# generated using pymatgen
data_Fe4Ni3B4P2H161C192N63O5F12
_symmetry_space_group_name_H-M   'P 1'
_cell_length_a   21.93670000
_cell_length_b   26.10770000
_cell_length_c   35.76360000
_cell_angle_alpha   90.00000000
_cell_angle_beta   93.22700000
_cell_angle_gamma   90.00000000
_symmetry_Int_Tables_number   1
_chemical_formula_structural   Fe4Ni3B4P2H161C192N63O5F12
_chemical_formula_sum   'Fe16 Ni12 B16 P8 H644 C768 N252 O20 F48'
_cell_volume   20449.93594643
_cell_formula_units_Z   4
loop_
 _symmetry_equiv_pos_site_id
 _symmetry_equiv_pos_as_xyz
  1  'x, y, z'
loop_
 _atom_site_type_symbol
 _atom_site_label
 _atom_site_symmetry_multiplicity
 _atom_site_fract_x
 _atom_site_fract_y
 _atom_site_fract_z
 _atom_site_occupancy
  Fe  Fe1  1  0.376830  0.832520  0.130940  1.0
  Fe  Fe2  1  0.123170  0.332520  0.369060  1.0
  Fe  Fe3  1  0.623170  0.167480  0.869060  1.0
  Fe  Fe4  1  0.876830  0.667480  0.630940  1.0
  Fe  Fe5  1  0.242200  0.096310  0.068850  1.0
  Fe  Fe6  1  0.257800  0.596310  0.431150  1.0
  Fe  Fe7  1  0.757800  0.903690  0.931150  1.0
  Fe  Fe8  1  0.742200  0.403690  0.568850  1.0
  Fe  Fe9  1  0.534780  0.255430  0.057950  1.0
  Fe  Fe10  1  0.965220  0.755430  0.442050  1.0
  Fe  Fe11  1  0.465220  0.744570  0.942050  1.0
  Fe  Fe12  1  0.034780  0.244570  0.557950  1.0
  Fe  Fe13  1  0.613350  0.010160  0.227780  1.0
  Fe  Fe14  1  0.886650  0.510160  0.272220  1.0
  Fe  Fe15  1  0.386650  0.989840  0.772220  1.0
  Fe  Fe16  1  0.113350  0.489840  0.727780  1.0
  Ni  Ni17  1  0.420340  0.018430  0.146850  1.0
  Ni  Ni18  1  0.079660  0.518430  0.353150  1.0
  Ni  Ni19  1  0.579660  0.981570  0.853150  1.0
  Ni  Ni20  1  0.920340  0.481570  0.646850  1.0
  Ni  Ni21  1  0.706840  0.157830  0.003550  1.0
  Ni  Ni22  1  0.793160  0.657830  0.496450  1.0
  Ni  Ni23  1  0.293160  0.842170  0.996450  1.0
  Ni  Ni24  1  0.206840  0.342170  0.503550  1.0
  Ni  Ni25  1  0.348570  0.203860  0.975500  1.0
  Ni  Ni26  1  0.151430  0.703860  0.524500  1.0
  Ni  Ni27  1  0.651430  0.796140  0.024500  1.0
  Ni  Ni28  1  0.848570  0.296140  0.475500  1.0
  B  B29  1  0.303800  0.799400  0.198200  1.0
  B  B30  1  0.196200  0.299400  0.301800  1.0
  B  B31  1  0.696200  0.200600  0.801800  1.0
  B  B32  1  0.803800  0.700600  0.698200  1.0
  B  B33  1  0.141400  0.159000  0.105200  1.0
  B  B34  1  0.358600  0.659000  0.394800  1.0
  B  B35  1  0.858600  0.841000  0.894800  1.0
  B  B36  1  0.641400  0.341000  0.605200  1.0
  B  B37  1  0.638300  0.104600  0.278600  1.0
  B  B38  1  0.861700  0.604600  0.221400  1.0
  B  B39  1  0.361700  0.895400  0.721400  1.0
  B  B40  1  0.138300  0.395400  0.778600  1.0
  B  B41  1  0.566600  0.369100  0.072300  1.0
  B  B42  1  0.933400  0.869100  0.427700  1.0
  B  B43  1  0.433400  0.630900  0.927700  1.0
  B  B44  1  0.066600  0.130900  0.572300  1.0
  P  P45  1  0.792500  0.635100  0.834500  1
  P  P46  1  0.707500  0.135100  0.665500  1
  P  P47  1  0.207500  0.364900  0.165500  1
  P  P48  1  0.292500  0.864900  0.334500  1
  P  P49  1  0.279700  0.505600  0.932770  1
  P  P50  1  0.220300  0.005600  0.567230  1
  P  P51  1  0.720300  0.494400  0.067230  1
  P  P52  1  0.779700  0.994400  0.432770  1
  H  H53  1  0.144100  0.467600  0.079700  1
  H  H54  1  0.355900  0.967600  0.420300  1
  H  H55  1  0.855900  0.532400  0.920300  1
  H  H56  1  0.644100  0.032400  0.579700  1
  H  H57  1  0.075300  0.481500  0.088500  1
  H  H58  1  0.424700  0.981500  0.411500  1
  H  H59  1  0.924700  0.518500  0.911500  1
  H  H60  1  0.575300  0.018500  0.588500  1
  H  H61  1  0.113600  0.442000  0.114800  1
  H  H62  1  0.386400  0.942000  0.385200  1
  H  H63  1  0.886400  0.558000  0.885200  1
  H  H64  1  0.613600  0.058000  0.614800  1
  H  H65  1  0.964000  0.666800  0.970900  1
  H  H66  1  0.536000  0.166800  0.529100  1
  H  H67  1  0.036000  0.333200  0.029100  1
  H  H68  1  0.464000  0.833200  0.470900  1
  H  H69  1  0.921700  0.716100  0.975900  1
  H  H70  1  0.578300  0.216100  0.524100  1
  H  H71  1  0.078300  0.283900  0.024100  1
  H  H72  1  0.421700  0.783900  0.475900  1
  H  H73  1  0.911000  0.665500  0.999900  1
  H  H74  1  0.589000  0.165500  0.500100  1
  H  H75  1  0.089000  0.334500  0.000100  1
  H  H76  1  0.411000  0.834500  0.499900  1
  H  H77  1  0.836500  0.373700  0.067400  1
  H  H78  1  0.663500  0.873700  0.432600  1
  H  H79  1  0.163500  0.626300  0.932600  1
  H  H80  1  0.336500  0.126300  0.567400  1
  H  H81  1  0.903600  0.352200  0.061300  1
  H  H82  1  0.596400  0.852200  0.438700  1
  H  H83  1  0.096400  0.647800  0.938700  1
  H  H84  1  0.403600  0.147800  0.561300  1
  H  H85  1  0.882300  0.361900  0.102800  1
  H  H86  1  0.617700  0.861900  0.397200  1
  H  H87  1  0.117700  0.638100  0.897200  1
  H  H88  1  0.382300  0.138100  0.602800  1
  H  H89  1  0.833700  0.602800  0.099700  1
  H  H90  1  0.666300  0.102800  0.400300  1
  H  H91  1  0.166300  0.397200  0.900300  1
  H  H92  1  0.333700  0.897200  0.599700  1
  H  H93  1  0.884400  0.600700  0.069300  1
  H  H94  1  0.615600  0.100700  0.430700  1
  H  H95  1  0.115600  0.399300  0.930700  1
  H  H96  1  0.384400  0.899300  0.569300  1
  H  H97  1  0.814400  0.589900  0.056900  1
  H  H98  1  0.685600  0.089900  0.443100  1
  H  H99  1  0.185600  0.410100  0.943100  1
  H  H100  1  0.314400  0.910100  0.556900  1
  H  H101  1  0.984100  0.654900  0.834300  1
  H  H102  1  0.515900  0.154900  0.665700  1
  H  H103  1  0.015900  0.345100  0.165700  1
  H  H104  1  0.484100  0.845100  0.334300  1
  H  H105  1  0.004200  0.713000  0.827800  1
  H  H106  1  0.495800  0.213000  0.672200  1
  H  H107  1  0.995800  0.287000  0.172200  1
  H  H108  1  0.504200  0.787000  0.327800  1
  H  H109  1  0.933300  0.698500  0.827800  1
  H  H110  1  0.566700  0.198500  0.672200  1
  H  H111  1  0.066700  0.301500  0.172200  1
  H  H112  1  0.433300  0.801500  0.327800  1
  H  H113  1  0.528200  0.948700  0.412700  1
  H  H114  1  0.971800  0.448700  0.087300  1
  H  H115  1  0.471800  0.051300  0.587300  1
  H  H116  1  0.028200  0.551300  0.912700  1
  H  H117  1  0.519600  0.003800  0.393700  1
  H  H118  1  0.980400  0.503800  0.106300  1
  H  H119  1  0.480400  0.996200  0.606300  1
  H  H120  1  0.019600  0.496200  0.893700  1
  H  H121  1  0.578000  0.992500  0.421300  1
  H  H122  1  0.922000  0.492500  0.078700  1
  H  H123  1  0.422000  0.007500  0.578700  1
  H  H124  1  0.078000  0.507500  0.921300  1
  H  H125  1  0.280100  0.788400  0.219800  1.0
  H  H126  1  0.219900  0.288400  0.280200  1.0
  H  H127  1  0.719900  0.211600  0.780200  1.0
  H  H128  1  0.780100  0.711600  0.719800  1.0
  H  H129  1  0.108700  0.179400  0.116800  1.0
  H  H130  1  0.391300  0.679400  0.383200  1.0
  H  H131  1  0.891300  0.820600  0.883200  1.0
  H  H132  1  0.608700  0.320600  0.616800  1.0
  H  H133  1  0.646000  0.135600  0.294500  1.0
  H  H134  1  0.854000  0.635600  0.205500  1.0
  H  H135  1  0.354000  0.864400  0.705500  1.0
  H  H136  1  0.146000  0.364400  0.794500  1.0
  H  H137  1  0.576400  0.406000  0.077200  1.0
  H  H138  1  0.923600  0.906000  0.422800  1.0
  H  H139  1  0.423600  0.594000  0.922800  1.0
  H  H140  1  0.076400  0.094000  0.577200  1.0
  H  H141  1  0.606100  0.986900  0.964700  1.0
  H  H142  1  0.893900  0.486900  0.535300  1.0
  H  H143  1  0.393900  0.013100  0.035300  1.0
  H  H144  1  0.106100  0.513100  0.464700  1.0
  H  H145  1  0.487800  0.984700  0.274000  1.0
  H  H146  1  0.012200  0.484700  0.226000  1.0
  H  H147  1  0.512200  0.015300  0.726000  1.0
  H  H148  1  0.987800  0.515300  0.774000  1.0
  H  H149  1  0.462000  0.049900  0.886700  1.0
  H  H150  1  0.038000  0.549900  0.613300  1.0
  H  H151  1  0.538000  0.950100  0.113300  1.0
  H  H152  1  0.962000  0.450100  0.386700  1.0
  H  H153  1  0.904300  0.229200  0.766400  1.0
  H  H154  1  0.595700  0.729200  0.733600  1.0
  H  H155  1  0.095700  0.770800  0.233600  1.0
  H  H156  1  0.404300  0.270800  0.266400  1.0
  H  H157  1  0.374500  0.827700  0.268400  1.0
  H  H158  1  0.125500  0.327700  0.231600  1.0
  H  H159  1  0.625500  0.172300  0.731600  1.0
  H  H160  1  0.874500  0.672300  0.768400  1.0
  H  H161  1  0.108500  0.218200  0.918900  1.0
  H  H162  1  0.391500  0.718200  0.581100  1.0
  H  H163  1  0.891500  0.781800  0.081100  1.0
  H  H164  1  0.608500  0.281800  0.418900  1.0
  H  H165  1  0.887400  0.018700  0.960000  1.0
  H  H166  1  0.612600  0.518700  0.540000  1.0
  H  H167  1  0.112600  0.981300  0.040000  1.0
  H  H168  1  0.387400  0.481300  0.460000  1.0
  H  H169  1  0.249300  0.109300  0.867700  1.0
  H  H170  1  0.250700  0.609300  0.632300  1.0
  H  H171  1  0.750700  0.890700  0.132300  1.0
  H  H172  1  0.749300  0.390700  0.367700  1.0
  H  H173  1  0.151500  0.128600  0.832300  1.0
  H  H174  1  0.348500  0.628600  0.667700  1.0
  H  H175  1  0.848500  0.871400  0.167700  1.0
  H  H176  1  0.651500  0.371400  0.332300  1.0
  H  H177  1  0.954100  0.099100  0.822100  1.0
  H  H178  1  0.545900  0.599100  0.677900  1.0
  H  H179  1  0.045900  0.900900  0.177900  1.0
  H  H180  1  0.454100  0.400900  0.322100  1.0
  H  H181  1  0.641700  0.068700  0.955300  1.0
  H  H182  1  0.858300  0.568700  0.544700  1.0
  H  H183  1  0.358300  0.931300  0.044700  1.0
  H  H184  1  0.141700  0.431300  0.455300  1.0
  H  H185  1  0.904300  0.051300  0.775100  1.0
  H  H186  1  0.595700  0.551300  0.724900  1.0
  H  H187  1  0.095700  0.948700  0.224900  1.0
  H  H188  1  0.404300  0.448700  0.275100  1.0
  H  H189  1  0.055600  0.143800  0.803900  1.0
  H  H190  1  0.444400  0.643800  0.696100  1.0
  H  H191  1  0.944400  0.856200  0.196100  1.0
  H  H192  1  0.555600  0.356200  0.303900  1.0
  H  H193  1  0.952800  0.964600  0.932500  1.0
  H  H194  1  0.547200  0.464600  0.567500  1.0
  H  H195  1  0.047200  0.035400  0.067500  1.0
  H  H196  1  0.452800  0.535400  0.432500  1.0
  H  H197  1  0.961200  0.137700  0.905800  1.0
  H  H198  1  0.538800  0.637700  0.594200  1.0
  H  H199  1  0.038800  0.862300  0.094200  1.0
  H  H200  1  0.461200  0.362300  0.405800  1.0
  H  H201  1  0.660200  0.223900  0.107800  1.0
  H  H202  1  0.839800  0.723900  0.392200  1.0
  H  H203  1  0.339800  0.776100  0.892200  1.0
  H  H204  1  0.160200  0.276100  0.607800  1.0
  H  H205  1  0.522400  0.194600  0.265000  1.0
  H  H206  1  0.977600  0.694600  0.235000  1.0
  H  H207  1  0.477600  0.805400  0.735000  1.0
  H  H208  1  0.022400  0.305400  0.765000  1.0
  H  H209  1  0.273700  0.689400  0.188500  1.0
  H  H210  1  0.226300  0.189400  0.311500  1.0
  H  H211  1  0.726300  0.310600  0.811500  1.0
  H  H212  1  0.773700  0.810600  0.688500  1.0
  H  H213  1  0.848900  0.181500  0.721700  1.0
  H  H214  1  0.651100  0.681500  0.778300  1.0
  H  H215  1  0.151100  0.818500  0.278300  1.0
  H  H216  1  0.348900  0.318500  0.221700  1.0
  H  H217  1  0.919600  0.364500  0.843800  1.0
  H  H218  1  0.580400  0.864500  0.656200  1.0
  H  H219  1  0.080400  0.635500  0.156200  1.0
  H  H220  1  0.419600  0.135500  0.343800  1.0
  H  H221  1  0.799500  0.100300  0.241800  1.0
  H  H222  1  0.700500  0.600300  0.258200  1.0
  H  H223  1  0.200500  0.899700  0.758200  1.0
  H  H224  1  0.299500  0.399700  0.741800  1.0
  H  H225  1  0.833900  0.346100  0.877600  1.0
  H  H226  1  0.666100  0.846100  0.622400  1.0
  H  H227  1  0.166100  0.653900  0.122400  1.0
  H  H228  1  0.333900  0.153900  0.377600  1.0
  H  H229  1  0.213900  0.000200  0.124100  1.0
  H  H230  1  0.286100  0.500200  0.375900  1.0
  H  H231  1  0.786100  0.999800  0.875900  1.0
  H  H232  1  0.713900  0.499800  0.624100  1.0
  H  H233  1  0.455700  0.236400  0.163700  1.0
  H  H234  1  0.044300  0.736400  0.336300  1.0
  H  H235  1  0.544300  0.763600  0.836300  1.0
  H  H236  1  0.955700  0.263600  0.663700  1.0
  H  H237  1  0.556200  0.272700  0.968100  1.0
  H  H238  1  0.943800  0.772700  0.531900  1.0
  H  H239  1  0.443800  0.727300  0.031900  1.0
  H  H240  1  0.056200  0.227300  0.468100  1.0
  H  H241  1  0.848200  0.092300  0.725400  1.0
  H  H242  1  0.651800  0.592300  0.774600  1.0
  H  H243  1  0.151800  0.907700  0.274600  1.0
  H  H244  1  0.348200  0.407700  0.225400  1.0
  H  H245  1  0.032800  0.082400  0.881700  1.0
  H  H246  1  0.467200  0.582400  0.618300  1.0
  H  H247  1  0.967200  0.917600  0.118300  1.0
  H  H248  1  0.532800  0.417600  0.381700  1.0
  H  H249  1  0.485400  0.874500  0.190900  1.0
  H  H250  1  0.014600  0.374500  0.309100  1.0
  H  H251  1  0.514600  0.125500  0.809100  1.0
  H  H252  1  0.985400  0.625500  0.690900  1.0
  H  H253  1  0.011600  0.231300  0.891400  1.0
  H  H254  1  0.488400  0.731300  0.608600  1.0
  H  H255  1  0.988400  0.768700  0.108600  1.0
  H  H256  1  0.511600  0.268700  0.391400  1.0
  H  H257  1  0.362300  0.051200  0.276800  1.0
  H  H258  1  0.137700  0.551200  0.223200  1.0
  H  H259  1  0.637700  0.948800  0.723200  1.0
  H  H260  1  0.862300  0.448800  0.776800  1.0
  H  H261  1  0.420300  0.133300  0.258700  1.0
  H  H262  1  0.079700  0.633300  0.241300  1.0
  H  H263  1  0.579700  0.866700  0.741300  1.0
  H  H264  1  0.920300  0.366700  0.758700  1.0
  H  H265  1  0.478000  0.152500  0.970200  1.0
  H  H266  1  0.022000  0.652500  0.529800  1.0
  H  H267  1  0.522000  0.847500  0.029800  1.0
  H  H268  1  0.978000  0.347500  0.470200  1.0
  H  H269  1  0.261300  0.906400  0.102700  1.0
  H  H270  1  0.238700  0.406400  0.397300  1.0
  H  H271  1  0.738700  0.093600  0.897300  1.0
  H  H272  1  0.761300  0.593600  0.602700  1.0
  H  H273  1  0.684000  0.375600  0.115400  1.0
  H  H274  1  0.816000  0.875600  0.384600  1.0
  H  H275  1  0.316000  0.624400  0.884600  1.0
  H  H276  1  0.184000  0.124400  0.615400  1.0
  H  H277  1  0.519700  0.085300  0.936900  1.0
  H  H278  1  0.980300  0.585300  0.563100  1.0
  H  H279  1  0.480300  0.914700  0.063100  1.0
  H  H280  1  0.019700  0.414700  0.436900  1.0
  H  H281  1  0.580000  0.270100  0.270000  1.0
  H  H282  1  0.920000  0.770100  0.230000  1.0
  H  H283  1  0.420000  0.729900  0.730000  1.0
  H  H284  1  0.080000  0.229900  0.770000  1.0
  H  H285  1  0.682900  0.274300  0.024700  1.0
  H  H286  1  0.817100  0.774300  0.475300  1.0
  H  H287  1  0.317100  0.725700  0.975300  1.0
  H  H288  1  0.182900  0.225700  0.524700  1.0
  H  H289  1  0.903800  0.194600  0.943600  1.0
  H  H290  1  0.596200  0.694600  0.556400  1.0
  H  H291  1  0.096200  0.805400  0.056400  1.0
  H  H292  1  0.403800  0.305400  0.443600  1.0
  H  H293  1  0.373000  0.392000  0.959900  1.0
  H  H294  1  0.127000  0.892000  0.540100  1.0
  H  H295  1  0.627000  0.608000  0.040100  1.0
  H  H296  1  0.873000  0.108000  0.459900  1.0
  H  H297  1  0.859900  0.281300  0.962700  1.0
  H  H298  1  0.640100  0.781300  0.537300  1.0
  H  H299  1  0.140100  0.718700  0.037300  1.0
  H  H300  1  0.359900  0.218700  0.462700  1.0
  H  H301  1  0.676700  0.995000  0.071800  1.0
  H  H302  1  0.823300  0.495000  0.428200  1.0
  H  H303  1  0.323300  0.005000  0.928200  1.0
  H  H304  1  0.176700  0.505000  0.571800  1.0
  H  H305  1  0.513900  0.309700  0.166600  1.0
  H  H306  1  0.986100  0.809700  0.333400  1.0
  H  H307  1  0.486100  0.690300  0.833400  1.0
  H  H308  1  0.013900  0.190300  0.666600  1.0
  H  H309  1  0.012900  0.012100  0.765200  1.0
  H  H310  1  0.487100  0.512100  0.734800  1.0
  H  H311  1  0.987100  0.987900  0.234800  1.0
  H  H312  1  0.512900  0.487900  0.265200  1.0
  H  H313  1  0.487600  0.314600  0.869800  1.0
  H  H314  1  0.012400  0.814600  0.630200  1.0
  H  H315  1  0.512400  0.685400  0.130200  1.0
  H  H316  1  0.987600  0.185400  0.369800  1.0
  H  H317  1  0.168600  0.112100  0.986600  1.0
  H  H318  1  0.331400  0.612100  0.513400  1.0
  H  H319  1  0.831400  0.887900  0.013400  1.0
  H  H320  1  0.668600  0.387900  0.486600  1.0
  H  H321  1  0.132600  0.006200  0.170100  1.0
  H  H322  1  0.367400  0.506200  0.329900  1.0
  H  H323  1  0.867400  0.993800  0.829900  1.0
  H  H324  1  0.632600  0.493800  0.670100  1.0
  H  H325  1  0.333200  0.935300  0.181000  1.0
  H  H326  1  0.166800  0.435300  0.319000  1.0
  H  H327  1  0.666800  0.064700  0.819000  1.0
  H  H328  1  0.833200  0.564700  0.681000  1.0
  H  H329  1  0.154400  0.991800  0.866500  1.0
  H  H330  1  0.345600  0.491800  0.633500  1.0
  H  H331  1  0.845600  0.008200  0.133500  1.0
  H  H332  1  0.654400  0.508200  0.366500  1.0
  H  H333  1  0.363300  0.076500  0.874100  1.0
  H  H334  1  0.136700  0.576500  0.625900  1.0
  H  H335  1  0.636700  0.923500  0.125900  1.0
  H  H336  1  0.863300  0.423500  0.374100  1.0
  H  H337  1  0.979300  0.998000  0.825900  1.0
  H  H338  1  0.520700  0.498000  0.674100  1.0
  H  H339  1  0.020700  0.002000  0.174100  1.0
  H  H340  1  0.479300  0.502000  0.325900  1.0
  H  H341  1  0.832000  0.206200  0.141000  1.0
  H  H342  1  0.668000  0.706200  0.359000  1.0
  H  H343  1  0.168000  0.793800  0.859000  1.0
  H  H344  1  0.332000  0.293800  0.641000  1.0
  H  H345  1  0.290600  0.918200  0.237300  1.0
  H  H346  1  0.209400  0.418200  0.262700  1.0
  H  H347  1  0.709400  0.081800  0.762700  1.0
  H  H348  1  0.790600  0.581800  0.737300  1.0
  H  H349  1  0.168100  0.914300  0.140200  1.0
  H  H350  1  0.331900  0.414300  0.359800  1.0
  H  H351  1  0.831900  0.085700  0.859800  1.0
  H  H352  1  0.668100  0.585700  0.640200  1.0
  H  H353  1  0.592600  0.356700  0.945300  1.0
  H  H354  1  0.907400  0.856700  0.554700  1.0
  H  H355  1  0.407400  0.643300  0.054700  1.0
  H  H356  1  0.092600  0.143300  0.445300  1.0
  H  H357  1  0.304800  0.649000  0.129600  1.0
  H  H358  1  0.195200  0.149000  0.370400  1.0
  H  H359  1  0.695200  0.351000  0.870400  1.0
  H  H360  1  0.804800  0.851000  0.629600  1.0
  H  H361  1  0.660900  0.396600  0.266900  1.0
  H  H362  1  0.839100  0.896600  0.233100  1.0
  H  H363  1  0.339100  0.603400  0.733100  1.0
  H  H364  1  0.160900  0.103400  0.766900  1.0
  H  H365  1  0.742800  0.961300  0.261400  1.0
  H  H366  1  0.757200  0.461300  0.238600  1.0
  H  H367  1  0.257200  0.038700  0.738600  1.0
  H  H368  1  0.242800  0.538700  0.761400  1.0
  H  H369  1  0.868500  0.195100  0.864800  1.0
  H  H370  1  0.631500  0.695100  0.635200  1.0
  H  H371  1  0.131500  0.804900  0.135200  1.0
  H  H372  1  0.368500  0.304900  0.364800  1.0
  H  H373  1  0.624600  0.947700  0.024000  1.0
  H  H374  1  0.875400  0.447700  0.476000  1.0
  H  H375  1  0.375400  0.052300  0.976000  1.0
  H  H376  1  0.124600  0.552300  0.524000  1.0
  H  H377  1  0.564600  0.357700  0.843400  1.0
  H  H378  1  0.935400  0.857700  0.656600  1.0
  H  H379  1  0.435400  0.642300  0.156600  1.0
  H  H380  1  0.064600  0.142300  0.343400  1.0
  H  H381  1  0.400100  0.276000  0.092900  1.0
  H  H382  1  0.099900  0.776000  0.407100  1.0
  H  H383  1  0.599900  0.724000  0.907100  1.0
  H  H384  1  0.900100  0.224000  0.592900  1.0
  H  H385  1  0.050200  0.190100  0.045900  1.0
  H  H386  1  0.449800  0.690100  0.454100  1.0
  H  H387  1  0.949800  0.809900  0.954100  1.0
  H  H388  1  0.550200  0.309900  0.545900  1.0
  H  H389  1  0.362200  0.716000  0.096600  1.0
  H  H390  1  0.137800  0.216000  0.403400  1.0
  H  H391  1  0.637800  0.284000  0.903400  1.0
  H  H392  1  0.862200  0.784000  0.596600  1.0
  H  H393  1  0.186500  0.003700  0.806200  1.0
  H  H394  1  0.313500  0.503700  0.693800  1.0
  H  H395  1  0.813500  0.996300  0.193800  1.0
  H  H396  1  0.686500  0.496300  0.306200  1.0
  H  H397  1  0.764100  0.385000  0.284900  1.0
  H  H398  1  0.735900  0.885000  0.215100  1.0
  H  H399  1  0.235900  0.615000  0.715100  1.0
  H  H400  1  0.264100  0.115000  0.784900  1.0
  H  H401  1  0.304700  0.976500  0.287100  1.0
  H  H402  1  0.195300  0.476500  0.212900  1.0
  H  H403  1  0.695300  0.023500  0.712900  1.0
  H  H404  1  0.804700  0.523500  0.787100  1.0
  H  H405  1  0.449800  0.457600  0.188900  1.0
  H  H406  1  0.050200  0.957600  0.311100  1.0
  H  H407  1  0.550200  0.542400  0.811100  1.0
  H  H408  1  0.949800  0.042400  0.688900  1.0
  H  H409  1  0.187500  0.856800  0.195500  1.0
  H  H410  1  0.312500  0.356800  0.304500  1.0
  H  H411  1  0.812500  0.143200  0.804500  1.0
  H  H412  1  0.687500  0.643200  0.695500  1.0
  H  H413  1  0.723800  0.055600  0.121600  1.0
  H  H414  1  0.776200  0.555600  0.378400  1.0
  H  H415  1  0.276200  0.944400  0.878400  1.0
  H  H416  1  0.223800  0.444400  0.621600  1.0
  H  H417  1  0.539400  0.477500  0.913600  1.0
  H  H418  1  0.960600  0.977500  0.586400  1.0
  H  H419  1  0.460600  0.522500  0.086400  1.0
  H  H420  1  0.039400  0.022500  0.413600  1.0
  H  H421  1  0.808300  0.260000  0.888000  1.0
  H  H422  1  0.691700  0.760000  0.612000  1.0
  H  H423  1  0.191700  0.740000  0.112000  1.0
  H  H424  1  0.308300  0.240000  0.388000  1.0
  H  H425  1  0.461400  0.043200  0.327700  1.0
  H  H426  1  0.038600  0.543200  0.172300  1.0
  H  H427  1  0.538600  0.956800  0.672300  1.0
  H  H428  1  0.961400  0.456800  0.827700  1.0
  H  H429  1  0.515600  0.506300  0.155700  1.0
  H  H430  1  0.984400  0.006300  0.344300  1.0
  H  H431  1  0.484400  0.493700  0.844300  1.0
  H  H432  1  0.015600  0.993700  0.655700  1.0
  H  H433  1  0.724900  0.353700  0.014200  1.0
  H  H434  1  0.775100  0.853700  0.485800  1.0
  H  H435  1  0.275100  0.646300  0.985800  1.0
  H  H436  1  0.224900  0.146300  0.514200  1.0
  H  H437  1  0.373600  0.360400  0.119100  1.0
  H  H438  1  0.126400  0.860400  0.380900  1.0
  H  H439  1  0.626400  0.639600  0.880900  1.0
  H  H440  1  0.873600  0.139600  0.619100  1.0
  H  H441  1  0.873600  0.227600  0.198800  1.0
  H  H442  1  0.626400  0.727600  0.301200  1.0
  H  H443  1  0.126400  0.772400  0.801200  1.0
  H  H444  1  0.373600  0.272400  0.698800  1.0
  H  H445  1  0.651600  0.404400  0.179200  1.0
  H  H446  1  0.848400  0.904400  0.320800  1.0
  H  H447  1  0.348400  0.595600  0.820800  1.0
  H  H448  1  0.151600  0.095600  0.679200  1.0
  H  H449  1  0.485400  0.388500  0.219900  1.0
  H  H450  1  0.014600  0.888500  0.280100  1.0
  H  H451  1  0.514600  0.611500  0.780100  1.0
  H  H452  1  0.985400  0.111500  0.719900  1.0
  H  H453  1  0.625900  0.180900  0.162300  1.0
  H  H454  1  0.874100  0.680900  0.337700  1.0
  H  H455  1  0.374100  0.819100  0.837700  1.0
  H  H456  1  0.125900  0.319100  0.662300  1.0
  H  H457  1  0.190600  0.280800  0.060400  1.0
  H  H458  1  0.309400  0.780800  0.439600  1.0
  H  H459  1  0.809400  0.719200  0.939600  1.0
  H  H460  1  0.690600  0.219200  0.560400  1.0
  H  H461  1  0.596800  0.416100  0.999400  1.0
  H  H462  1  0.903200  0.916100  0.500600  1.0
  H  H463  1  0.403200  0.583900  0.000600  1.0
  H  H464  1  0.096800  0.083900  0.499400  1.0
  H  H465  1  0.753200  0.089500  0.323900  1.0
  H  H466  1  0.746800  0.589500  0.176100  1.0
  H  H467  1  0.246800  0.910500  0.676100  1.0
  H  H468  1  0.253200  0.410500  0.823900  1.0
  H  H469  1  0.815900  0.358000  0.981600  1.0
  H  H470  1  0.684100  0.858000  0.518400  1.0
  H  H471  1  0.184100  0.642000  0.018400  1.0
  H  H472  1  0.315900  0.142000  0.481600  1.0
  H  H473  1  0.475000  0.867800  0.259800  1.0
  H  H474  1  0.025000  0.367800  0.240200  1.0
  H  H475  1  0.525000  0.132200  0.740200  1.0
  H  H476  1  0.975000  0.632200  0.759800  1.0
  H  H477  1  0.669100  0.274300  0.199900  1.0
  H  H478  1  0.830900  0.774300  0.300100  1.0
  H  H479  1  0.330900  0.725700  0.800100  1.0
  H  H480  1  0.169100  0.225700  0.699900  1.0
  H  H481  1  0.284300  0.383000  0.002100  1.0
  H  H482  1  0.215700  0.883000  0.497900  1.0
  H  H483  1  0.715700  0.617000  0.997900  1.0
  H  H484  1  0.784300  0.117000  0.502100  1.0
  H  H485  1  0.212100  0.364600  0.045900  1.0
  H  H486  1  0.287900  0.864600  0.454100  1.0
  H  H487  1  0.787900  0.635400  0.954100  1.0
  H  H488  1  0.712100  0.135400  0.545900  1.0
  H  H489  1  0.542000  0.113300  0.332400  1.0
  H  H490  1  0.958000  0.613300  0.167600  1.0
  H  H491  1  0.458000  0.886700  0.667600  1.0
  H  H492  1  0.042000  0.386700  0.832400  1.0
  H  H493  1  0.731500  0.292300  0.134100  1.0
  H  H494  1  0.768500  0.792300  0.365900  1.0
  H  H495  1  0.268500  0.707700  0.865900  1.0
  H  H496  1  0.231500  0.207700  0.634100  1.0
  H  H497  1  0.617200  0.478200  0.148400  1.0
  H  H498  1  0.882800  0.978200  0.351600  1.0
  H  H499  1  0.382800  0.521800  0.851600  1.0
  H  H500  1  0.117200  0.021800  0.648400  1.0
  H  H501  1  0.070800  0.162300  0.981100  1.0
  H  H502  1  0.429200  0.662300  0.518900  1.0
  H  H503  1  0.929200  0.837700  0.018900  1.0
  H  H504  1  0.570800  0.337700  0.481100  1.0
  H  H505  1  0.116400  0.014500  0.756300  1.0
  H  H506  1  0.383600  0.514500  0.743700  1.0
  H  H507  1  0.883600  0.985500  0.243700  1.0
  H  H508  1  0.616400  0.485500  0.256300  1.0
  H  H509  1  0.979900  0.298600  0.822600  1.0
  H  H510  1  0.520100  0.798600  0.677400  1.0
  H  H511  1  0.020100  0.701400  0.177400  1.0
  H  H512  1  0.479900  0.201400  0.322600  1.0
  H  H513  1  0.751100  0.084800  0.183700  1.0
  H  H514  1  0.748900  0.584800  0.316300  1.0
  H  H515  1  0.248900  0.915200  0.816300  1.0
  H  H516  1  0.251100  0.415200  0.683700  1.0
  H  H517  1  0.604100  0.089000  0.154700  1.0
  H  H518  1  0.895900  0.589000  0.345300  1.0
  H  H519  1  0.395900  0.911000  0.845300  1.0
  H  H520  1  0.104100  0.411000  0.654700  1.0
  H  H521  1  0.241400  0.215900  0.031600  1.0
  H  H522  1  0.258600  0.715900  0.468400  1.0
  H  H523  1  0.758600  0.784100  0.968400  1.0
  H  H524  1  0.741400  0.284100  0.531600  1.0
  H  H525  1  0.770200  0.266200  0.217400  1.0
  H  H526  1  0.729800  0.766200  0.282600  1.0
  H  H527  1  0.229800  0.733800  0.782600  1.0
  H  H528  1  0.270200  0.233800  0.717400  1.0
  H  H529  1  0.463300  0.434200  0.939400  1.0
  H  H530  1  0.036700  0.934200  0.560600  1.0
  H  H531  1  0.536700  0.565800  0.060600  1.0
  H  H532  1  0.963300  0.065800  0.439400  1.0
  H  H533  1  0.818900  0.320200  0.258100  1.0
  H  H534  1  0.681100  0.820200  0.241900  1.0
  H  H535  1  0.181100  0.679800  0.741900  1.0
  H  H536  1  0.318900  0.179800  0.758100  1.0
  H  H537  1  0.086600  0.093400  0.162400  1.0
  H  H538  1  0.413400  0.593400  0.337600  1.0
  H  H539  1  0.913400  0.906600  0.837600  1.0
  H  H540  1  0.586600  0.406600  0.662400  1.0
  H  H541  1  0.654200  0.194400  0.229300  1.0
  H  H542  1  0.845800  0.694400  0.270700  1.0
  H  H543  1  0.345800  0.805600  0.770700  1.0
  H  H544  1  0.154200  0.305600  0.729300  1.0
  H  H545  1  0.808800  0.006800  0.308900  1.0
  H  H546  1  0.691200  0.506800  0.191100  1.0
  H  H547  1  0.191200  0.993200  0.691100  1.0
  H  H548  1  0.308800  0.493200  0.808900  1.0
  H  H549  1  0.201200  0.246700  0.145300  1.0
  H  H550  1  0.298800  0.746700  0.354700  1.0
  H  H551  1  0.798800  0.753300  0.854700  1.0
  H  H552  1  0.701200  0.253300  0.645300  1.0
  H  H553  1  0.342900  0.179100  0.103700  1.0
  H  H554  1  0.157100  0.679100  0.396300  1.0
  H  H555  1  0.657100  0.820900  0.896300  1.0
  H  H556  1  0.842900  0.320900  0.603700  1.0
  H  H557  1  0.312800  0.251900  0.142600  1.0
  H  H558  1  0.187200  0.751900  0.357400  1.0
  H  H559  1  0.687200  0.748100  0.857400  1.0
  H  H560  1  0.812800  0.248100  0.642600  1.0
  H  H561  1  0.463600  0.417400  0.107300  1.0
  H  H562  1  0.036400  0.917400  0.392700  1.0
  H  H563  1  0.536400  0.582600  0.892700  1.0
  H  H564  1  0.963600  0.082600  0.607300  1.0
  H  H565  1  0.545500  0.443300  0.799400  1.0
  H  H566  1  0.954500  0.943300  0.700600  1.0
  H  H567  1  0.454500  0.556700  0.200600  1.0
  H  H568  1  0.045500  0.056700  0.299400  1.0
  H  H569  1  0.573700  0.430900  0.737900  1.0
  H  H570  1  0.926300  0.930900  0.762100  1.0
  H  H571  1  0.426300  0.569100  0.262100  1.0
  H  H572  1  0.073700  0.069100  0.237900  1.0
  H  H573  1  0.676700  0.420900  0.725700  1.0
  H  H574  1  0.823300  0.920900  0.774300  1.0
  H  H575  1  0.323300  0.579100  0.274300  1.0
  H  H576  1  0.176700  0.079100  0.225700  1.0
  H  H577  1  0.751500  0.423400  0.775000  1.0
  H  H578  1  0.748500  0.923400  0.725000  1.0
  H  H579  1  0.248500  0.576600  0.225000  1.0
  H  H580  1  0.251500  0.076600  0.275000  1.0
  H  H581  1  0.723300  0.435900  0.836400  1.0
  H  H582  1  0.776700  0.935900  0.663600  1.0
  H  H583  1  0.276700  0.564100  0.163600  1.0
  H  H584  1  0.223300  0.064100  0.336400  1.0
  H  H585  1  0.662000  0.537300  0.858600  1.0
  H  H586  1  0.838000  0.037300  0.641400  1.0
  H  H587  1  0.338000  0.462700  0.141400  1.0
  H  H588  1  0.162000  0.962700  0.358600  1.0
  H  H589  1  0.728700  0.579500  0.901700  1.0
  H  H590  1  0.771300  0.079500  0.598300  1.0
  H  H591  1  0.271300  0.420500  0.098300  1.0
  H  H592  1  0.228700  0.920500  0.401700  1.0
  H  H593  1  0.761100  0.539000  0.957800  1.0
  H  H594  1  0.738900  0.039000  0.542200  1.0
  H  H595  1  0.238900  0.461000  0.042200  1.0
  H  H596  1  0.261100  0.961000  0.457800  1.0
  H  H597  1  0.726700  0.456400  0.970700  1.0
  H  H598  1  0.773300  0.956400  0.529300  1.0
  H  H599  1  0.273300  0.543600  0.029300  1.0
  H  H600  1  0.226700  0.043600  0.470700  1.0
  H  H601  1  0.660100  0.414200  0.927600  1.0
  H  H602  1  0.839900  0.914200  0.572400  1.0
  H  H603  1  0.339900  0.585800  0.072400  1.0
  H  H604  1  0.160100  0.085800  0.427600  1.0
  H  H605  1  0.957300  0.144800  0.213800  1.0
  H  H606  1  0.542700  0.644800  0.286200  1.0
  H  H607  1  0.042700  0.855200  0.786200  1.0
  H  H608  1  0.457300  0.355200  0.713800  1.0
  H  H609  1  0.061800  0.162500  0.213700  1.0
  H  H610  1  0.438200  0.662500  0.286300  1.0
  H  H611  1  0.938200  0.837500  0.786300  1.0
  H  H612  1  0.561800  0.337500  0.713700  1.0
  H  H613  1  0.108900  0.211700  0.261900  1.0
  H  H614  1  0.391100  0.711700  0.238100  1.0
  H  H615  1  0.891100  0.788300  0.738100  1.0
  H  H616  1  0.608900  0.288300  0.761900  1.0
  H  H617  1  0.051500  0.243100  0.310100  1.0
  H  H618  1  0.448500  0.743100  0.189900  1.0
  H  H619  1  0.948500  0.756900  0.689900  1.0
  H  H620  1  0.551500  0.256900  0.810100  1.0
  H  H621  1  0.946900  0.225400  0.310100  1.0
  H  H622  1  0.553100  0.725400  0.189900  1.0
  H  H623  1  0.053100  0.774600  0.689900  1.0
  H  H624  1  0.446900  0.274600  0.810100  1.0
  H  H625  1  0.908900  0.110700  0.316800  1.0
  H  H626  1  0.591100  0.610700  0.183200  1.0
  H  H627  1  0.091100  0.889300  0.683200  1.0
  H  H628  1  0.408900  0.389300  0.816800  1.0
  H  H629  1  0.864800  0.108200  0.374800  1.0
  H  H630  1  0.635200  0.608200  0.125200  1.0
  H  H631  1  0.135200  0.891800  0.625200  1.0
  H  H632  1  0.364800  0.391800  0.874800  1.0
  H  H633  1  0.783000  0.162400  0.386400  1.0
  H  H634  1  0.717000  0.662400  0.113600  1.0
  H  H635  1  0.217000  0.837600  0.613600  1.0
  H  H636  1  0.283000  0.337600  0.886400  1.0
  H  H637  1  0.745300  0.219000  0.339900  1.0
  H  H638  1  0.754700  0.719000  0.160100  1.0
  H  H639  1  0.254700  0.781000  0.660100  1.0
  H  H640  1  0.245300  0.281000  0.839900  1.0
  H  H641  1  0.789500  0.221500  0.281900  1.0
  H  H642  1  0.710500  0.721500  0.218100  1.0
  H  H643  1  0.210500  0.778500  0.718100  1.0
  H  H644  1  0.289500  0.278500  0.781900  1.0
  H  H645  1  0.039400  0.896200  0.852700  1.0
  H  H646  1  0.460600  0.396200  0.647300  1.0
  H  H647  1  0.960600  0.103800  0.147300  1.0
  H  H648  1  0.539400  0.603800  0.352700  1.0
  H  H649  1  0.052700  0.813400  0.876700  1.0
  H  H650  1  0.447300  0.313400  0.623300  1.0
  H  H651  1  0.947300  0.186600  0.123300  1.0
  H  H652  1  0.552700  0.686600  0.376700  1.0
  H  H653  1  0.075500  0.801300  0.940800  1.0
  H  H654  1  0.424500  0.301300  0.559200  1.0
  H  H655  1  0.924500  0.198700  0.059200  1.0
  H  H656  1  0.575500  0.698700  0.440800  1.0
  H  H657  1  0.084900  0.872100  0.980900  1.0
  H  H658  1  0.415100  0.372100  0.519100  1.0
  H  H659  1  0.915100  0.127900  0.019100  1.0
  H  H660  1  0.584900  0.627900  0.480900  1.0
  H  H661  1  0.071600  0.955000  0.956800  1.0
  H  H662  1  0.428400  0.455000  0.543200  1.0
  H  H663  1  0.928400  0.045000  0.043200  1.0
  H  H664  1  0.571600  0.545000  0.456800  1.0
  H  H665  1  0.549800  0.111900  0.053200  1.0
  H  H666  1  0.950200  0.611900  0.446800  1.0
  H  H667  1  0.450200  0.888100  0.946800  1.0
  H  H668  1  0.049800  0.388100  0.553200  1.0
  H  H669  1  0.487300  0.101700  0.029100  1.0
  H  H670  1  0.012700  0.601700  0.470900  1.0
  H  H671  1  0.512700  0.898300  0.970900  1.0
  H  H672  1  0.987300  0.398300  0.529100  1.0
  H  H673  1  0.540100  0.059400  0.030500  1.0
  H  H674  1  0.959900  0.559400  0.469500  1.0
  H  H675  1  0.459900  0.940600  0.969500  1.0
  H  H676  1  0.040100  0.440600  0.530500  1.0
  H  H677  1  0.204300  0.220700  0.934300  1.0
  H  H678  1  0.295700  0.720700  0.565700  1.0
  H  H679  1  0.795700  0.779300  0.065700  1.0
  H  H680  1  0.704300  0.279300  0.434300  1.0
  H  H681  1  0.810300  0.071900  0.969300  1.0
  H  H682  1  0.689700  0.571900  0.530700  1.0
  H  H683  1  0.189700  0.928100  0.030700  1.0
  H  H684  1  0.310300  0.428100  0.469300  1.0
  H  H685  1  0.780800  0.189900  0.088500  1.0
  H  H686  1  0.719200  0.689900  0.411500  1.0
  H  H687  1  0.219200  0.810100  0.911500  1.0
  H  H688  1  0.280800  0.310100  0.588500  1.0
  H  H689  1  0.439400  0.268000  0.913900  1.0
  H  H690  1  0.060600  0.768000  0.586100  1.0
  H  H691  1  0.560600  0.732000  0.086100  1.0
  H  H692  1  0.939400  0.232000  0.413900  1.0
  H  H693  1  0.470400  0.142500  0.155600  1.0
  H  H694  1  0.029600  0.642500  0.344400  1.0
  H  H695  1  0.529600  0.857500  0.844400  1.0
  H  H696  1  0.970400  0.357500  0.655600  1.0
  C  C697  1  0.116000  0.473200  0.099600  1
  C  C698  1  0.384000  0.973200  0.400400  1
  C  C699  1  0.884000  0.526800  0.900400  1
  C  C700  1  0.616000  0.026800  0.599600  1
  C  C701  1  0.138600  0.516500  0.123900  1
  C  C702  1  0.361400  0.016500  0.376100  1
  C  C703  1  0.861400  0.483500  0.876100  1
  C  C704  1  0.638600  0.983500  0.623900  1
  C  C705  1  0.941800  0.687100  0.988900  1
  C  C706  1  0.558200  0.187100  0.511100  1
  C  C707  1  0.058200  0.312900  0.011100  1
  C  C708  1  0.441800  0.812900  0.488900  1
  C  C709  1  0.985600  0.706500  0.019100  1
  C  C710  1  0.514400  0.206500  0.480900  1
  C  C711  1  0.014400  0.293500  0.980900  1
  C  C712  1  0.485600  0.793500  0.519100  1
  C  C713  1  0.868900  0.350900  0.077400  1
  C  C714  1  0.631100  0.850900  0.422600  1
  C  C715  1  0.131100  0.649100  0.922600  1
  C  C716  1  0.368900  0.149100  0.577400  1
  C  C717  1  0.845300  0.297300  0.078700  1
  C  C718  1  0.654700  0.797300  0.421300  1
  C  C719  1  0.154700  0.702700  0.921300  1
  C  C720  1  0.345300  0.202700  0.578700  1
  C  C721  1  0.842100  0.610000  0.073600  1
  C  C722  1  0.657900  0.110000  0.426400  1
  C  C723  1  0.157900  0.390000  0.926400  1
  C  C724  1  0.342100  0.890000  0.573600  1
  C  C725  1  0.832800  0.665700  0.065700  1
  C  C726  1  0.667200  0.165700  0.434300  1
  C  C727  1  0.167200  0.334300  0.934300  1
  C  C728  1  0.332800  0.834300  0.565700  1
  C  C729  1  0.974000  0.690800  0.839000  1
  C  C730  1  0.526000  0.190800  0.661000  1
  C  C731  1  0.026000  0.309200  0.161000  1
  C  C732  1  0.474000  0.809200  0.339000  1
  C  C733  1  0.975000  0.700100  0.880200  1
  C  C734  1  0.525000  0.200100  0.619800  1
  C  C735  1  0.025000  0.299900  0.119800  1
  C  C736  1  0.475000  0.799900  0.380200  1
  C  C737  1  0.549000  0.978000  0.402100  1
  C  C738  1  0.951000  0.478000  0.097900  1
  C  C739  1  0.451000  0.022000  0.597900  1
  C  C740  1  0.049000  0.522000  0.902100  1
  C  C741  1  0.585000  0.960000  0.368700  1
  C  C742  1  0.915000  0.460000  0.131300  1
  C  C743  1  0.415000  0.040000  0.631300  1
  C  C744  1  0.085000  0.540000  0.868700  1
  C  C745  1  0.464600  0.230500  0.028100  1.0
  C  C746  1  0.035400  0.730500  0.471900  1.0
  C  C747  1  0.535400  0.769500  0.971900  1.0
  C  C748  1  0.964600  0.269500  0.528100  1.0
  C  C749  1  0.821500  0.185900  0.971300  1.0
  C  C750  1  0.678500  0.685900  0.528700  1.0
  C  C751  1  0.178500  0.814100  0.028700  1.0
  C  C752  1  0.321500  0.314100  0.471300  1.0
  C  C753  1  0.310400  0.063800  0.096000  1.0
  C  C754  1  0.189600  0.563800  0.404000  1.0
  C  C755  1  0.689600  0.936200  0.904000  1.0
  C  C756  1  0.810400  0.436200  0.596000  1.0
  C  C757  1  0.023300  0.189300  0.843700  1.0
  C  C758  1  0.476700  0.689300  0.656300  1.0
  C  C759  1  0.976700  0.810700  0.156300  1.0
  C  C760  1  0.523300  0.310700  0.343700  1.0
  C  C761  1  0.350800  0.831000  0.079200  1.0
  C  C762  1  0.149200  0.331000  0.420800  1.0
  C  C763  1  0.649200  0.169000  0.920800  1.0
  C  C764  1  0.850800  0.669000  0.579200  1.0
  C  C765  1  0.627400  0.004800  0.984600  1.0
  C  C766  1  0.872600  0.504800  0.515400  1.0
  C  C767  1  0.372600  0.995200  0.015400  1.0
  C  C768  1  0.127400  0.495200  0.484600  1.0
  C  C769  1  0.377600  0.035500  0.222300  1.0
  C  C770  1  0.122400  0.535500  0.277700  1.0
  C  C771  1  0.622400  0.964500  0.777700  1.0
  C  C772  1  0.877600  0.464500  0.722300  1.0
  C  C773  1  0.936600  0.169800  0.798800  1.0
  C  C774  1  0.563400  0.669800  0.701200  1.0
  C  C775  1  0.063400  0.830200  0.201200  1.0
  C  C776  1  0.436600  0.330200  0.298800  1.0
  C  C777  1  0.509600  0.014300  0.282400  1.0
  C  C778  1  0.990400  0.514300  0.217600  1.0
  C  C779  1  0.490400  0.985700  0.717600  1.0
  C  C780  1  0.009600  0.485700  0.782400  1.0
  C  C781  1  0.456600  0.156900  0.209300  1.0
  C  C782  1  0.043400  0.656900  0.290700  1.0
  C  C783  1  0.543400  0.843100  0.790700  1.0
  C  C784  1  0.956600  0.343100  0.709300  1.0
  C  C785  1  0.542400  0.998700  0.194300  1.0
  C  C786  1  0.957600  0.498700  0.305700  1.0
  C  C787  1  0.457600  0.001300  0.805700  1.0
  C  C788  1  0.042400  0.501300  0.694300  1.0
  C  C789  1  0.687200  0.059300  0.040600  1.0
  C  C790  1  0.812800  0.559300  0.459400  1.0
  C  C791  1  0.312800  0.940700  0.959400  1.0
  C  C792  1  0.187200  0.440700  0.540600  1.0
  C  C793  1  0.445100  0.075800  0.901700  1.0
  C  C794  1  0.054900  0.575800  0.598300  1.0
  C  C795  1  0.554900  0.924200  0.098300  1.0
  C  C796  1  0.945100  0.424200  0.401700  1.0
  C  C797  1  0.588200  0.208000  0.036500  1.0
  C  C798  1  0.911800  0.708000  0.463500  1.0
  C  C799  1  0.411800  0.792000  0.963500  1.0
  C  C800  1  0.088200  0.292000  0.536500  1.0
  C  C801  1  0.903900  0.192900  0.768500  1.0
  C  C802  1  0.596100  0.692900  0.731500  1.0
  C  C803  1  0.096100  0.807100  0.231500  1.0
  C  C804  1  0.403900  0.307100  0.268500  1.0
  C  C805  1  0.391700  0.834000  0.245100  1.0
  C  C806  1  0.108300  0.334000  0.254900  1.0
  C  C807  1  0.608300  0.166000  0.754900  1.0
  C  C808  1  0.891700  0.666000  0.745100  1.0
  C  C809  1  0.098000  0.202700  0.895400  1.0
  C  C810  1  0.402000  0.702700  0.604600  1.0
  C  C811  1  0.902000  0.797300  0.104600  1.0
  C  C812  1  0.598000  0.297300  0.395400  1.0
  C  C813  1  0.410100  0.082200  0.213200  1.0
  C  C814  1  0.089900  0.582200  0.286800  1.0
  C  C815  1  0.589900  0.917800  0.786800  1.0
  C  C816  1  0.910100  0.417800  0.713200  1.0
  C  C817  1  0.872400  0.119600  0.950800  1.0
  C  C818  1  0.627600  0.619600  0.549200  1.0
  C  C819  1  0.127600  0.880400  0.049200  1.0
  C  C820  1  0.372400  0.380400  0.450800  1.0
  C  C821  1  0.915600  0.031900  0.943300  1.0
  C  C822  1  0.584400  0.531900  0.556700  1.0
  C  C823  1  0.084400  0.968100  0.056700  1.0
  C  C824  1  0.415600  0.468100  0.443300  1.0
  C  C825  1  0.250100  0.135200  0.886400  1.0
  C  C826  1  0.249900  0.635200  0.613600  1.0
  C  C827  1  0.749900  0.864800  0.113600  1.0
  C  C828  1  0.750100  0.364800  0.386400  1.0
  C  C829  1  0.123700  0.150100  0.844300  1.0
  C  C830  1  0.376300  0.650100  0.655700  1.0
  C  C831  1  0.876300  0.849900  0.155700  1.0
  C  C832  1  0.623700  0.349900  0.344300  1.0
  C  C833  1  0.934200  0.116000  0.801300  1.0
  C  C834  1  0.565800  0.616000  0.698700  1.0
  C  C835  1  0.065800  0.884000  0.198700  1.0
  C  C836  1  0.434200  0.384000  0.301300  1.0
  C  C837  1  0.648300  0.053700  0.979400  1.0
  C  C838  1  0.851700  0.553700  0.520600  1.0
  C  C839  1  0.351700  0.946300  0.020600  1.0
  C  C840  1  0.148300  0.446300  0.479400  1.0
  C  C841  1  0.930300  0.241500  0.841300  1.0
  C  C842  1  0.569700  0.741500  0.658700  1.0
  C  C843  1  0.069700  0.758500  0.158700  1.0
  C  C844  1  0.430300  0.258500  0.341300  1.0
  C  C845  1  0.485900  0.206600  0.212700  1.0
  C  C846  1  0.014100  0.706600  0.287300  1.0
  C  C847  1  0.514100  0.793400  0.787300  1.0
  C  C848  1  0.985900  0.293400  0.712700  1.0
  C  C849  1  0.517100  0.203900  0.092100  1.0
  C  C850  1  0.982900  0.703900  0.407900  1.0
  C  C851  1  0.482900  0.796100  0.907900  1.0
  C  C852  1  0.017100  0.296100  0.592100  1.0
  C  C853  1  0.903400  0.087700  0.773900  1.0
  C  C854  1  0.596600  0.587700  0.726100  1.0
  C  C855  1  0.096600  0.912300  0.226100  1.0
  C  C856  1  0.403400  0.412300  0.273900  1.0
  C  C857  1  0.066000  0.159100  0.827500  1.0
  C  C858  1  0.434000  0.659100  0.672500  1.0
  C  C859  1  0.934000  0.840900  0.172500  1.0
  C  C860  1  0.566000  0.340900  0.327500  1.0
  C  C861  1  0.293100  0.123600  0.030600  1.0
  C  C862  1  0.206900  0.623600  0.469400  1.0
  C  C863  1  0.706900  0.876400  0.969400  1.0
  C  C864  1  0.793100  0.376400  0.530600  1.0
  C  C865  1  0.955500  0.000300  0.927600  1.0
  C  C866  1  0.544500  0.500300  0.572400  1.0
  C  C867  1  0.044500  0.999700  0.072400  1.0
  C  C868  1  0.455500  0.499700  0.427600  1.0
  C  C869  1  0.960100  0.102200  0.911700  1.0
  C  C870  1  0.539900  0.602200  0.588300  1.0
  C  C871  1  0.039900  0.897800  0.088300  1.0
  C  C872  1  0.460100  0.397800  0.411700  1.0
  C  C873  1  0.653700  0.259800  0.105800  1.0
  C  C874  1  0.846300  0.759800  0.394200  1.0
  C  C875  1  0.346300  0.740200  0.894200  1.0
  C  C876  1  0.153700  0.240200  0.605800  1.0
  C  C877  1  0.231200  0.034300  0.040500  1.0
  C  C878  1  0.268800  0.534300  0.459500  1.0
  C  C879  1  0.768800  0.965700  0.959500  1.0
  C  C880  1  0.731200  0.465700  0.540500  1.0
  C  C881  1  0.521200  0.217900  0.244600  1.0
  C  C882  1  0.978800  0.717900  0.255400  1.0
  C  C883  1  0.478800  0.782100  0.755400  1.0
  C  C884  1  0.021200  0.282100  0.744600  1.0
  C  C885  1  0.788300  0.143000  0.155600  1.0
  C  C886  1  0.711700  0.643000  0.344400  1.0
  C  C887  1  0.211700  0.857000  0.844400  1.0
  C  C888  1  0.288300  0.357000  0.655600  1.0
  C  C889  1  0.295900  0.705700  0.169800  1.0
  C  C890  1  0.204100  0.205700  0.330200  1.0
  C  C891  1  0.704100  0.294300  0.830200  1.0
  C  C892  1  0.795900  0.794300  0.669800  1.0
  C  C893  1  0.871100  0.164600  0.741700  1.0
  C  C894  1  0.628900  0.664600  0.758300  1.0
  C  C895  1  0.128900  0.835400  0.258300  1.0
  C  C896  1  0.371100  0.335400  0.241700  1.0
  C  C897  1  0.909000  0.329900  0.848600  1.0
  C  C898  1  0.591000  0.829900  0.651400  1.0
  C  C899  1  0.091000  0.670100  0.151400  1.0
  C  C900  1  0.409000  0.170100  0.348600  1.0
  C  C901  1  0.806600  0.122200  0.221300  1.0
  C  C902  1  0.693400  0.622200  0.278700  1.0
  C  C903  1  0.193400  0.877800  0.778700  1.0
  C  C904  1  0.306600  0.377800  0.721300  1.0
  C  C905  1  0.299000  0.148600  0.910700  1.0
  C  C906  1  0.201000  0.648600  0.589300  1.0
  C  C907  1  0.701000  0.851400  0.089300  1.0
  C  C908  1  0.799000  0.351400  0.410700  1.0
  C  C909  1  0.063200  0.994300  0.851400  1.0
  C  C910  1  0.436800  0.494300  0.648600  1.0
  C  C911  1  0.936800  0.005700  0.148600  1.0
  C  C912  1  0.563200  0.505700  0.351400  1.0
  C  C913  1  0.858000  0.319200  0.868400  1.0
  C  C914  1  0.642000  0.819200  0.631600  1.0
  C  C915  1  0.142000  0.680800  0.131600  1.0
  C  C916  1  0.358000  0.180800  0.368400  1.0
  C  C917  1  0.141100  0.172900  0.878900  1.0
  C  C918  1  0.358900  0.672900  0.621100  1.0
  C  C919  1  0.858900  0.827100  0.121100  1.0
  C  C920  1  0.641100  0.327100  0.378900  1.0
  C  C921  1  0.187900  0.028800  0.127300  1.0
  C  C922  1  0.312100  0.528800  0.372700  1.0
  C  C923  1  0.812100  0.971200  0.872700  1.0
  C  C924  1  0.687900  0.471200  0.627300  1.0
  C  C925  1  0.202700  0.167400  0.894900  1.0
  C  C926  1  0.297300  0.667400  0.605100  1.0
  C  C927  1  0.797300  0.832600  0.105100  1.0
  C  C928  1  0.702700  0.332600  0.394900  1.0
  C  C929  1  0.482400  0.242200  0.185100  1.0
  C  C930  1  0.017600  0.742200  0.314900  1.0
  C  C931  1  0.517600  0.757800  0.814900  1.0
  C  C932  1  0.982400  0.257800  0.685100  1.0
  C  C933  1  0.400800  0.902300  0.124600  1.0
  C  C934  1  0.099200  0.402300  0.375400  1.0
  C  C935  1  0.599200  0.097700  0.875400  1.0
  C  C936  1  0.900800  0.597700  0.624600  1.0
  C  C937  1  0.562600  0.302600  0.983000  1.0
  C  C938  1  0.937400  0.802600  0.517000  1.0
  C  C939  1  0.437400  0.697400  0.017000  1.0
  C  C940  1  0.062600  0.197400  0.483000  1.0
  C  C941  1  0.870500  0.112000  0.743900  1.0
  C  C942  1  0.629500  0.612000  0.756100  1.0
  C  C943  1  0.129500  0.888000  0.256100  1.0
  C  C944  1  0.370500  0.388000  0.243900  1.0
  C  C945  1  0.454700  0.803900  0.117700  1.0
  C  C946  1  0.045300  0.303900  0.382300  1.0
  C  C947  1  0.545300  0.196100  0.882300  1.0
  C  C948  1  0.954700  0.696100  0.617700  1.0
  C  C949  1  0.002400  0.069200  0.897000  1.0
  C  C950  1  0.497600  0.569200  0.603000  1.0
  C  C951  1  0.997600  0.930800  0.103000  1.0
  C  C952  1  0.502400  0.430800  0.397000  1.0
  C  C953  1  0.451900  0.859600  0.202500  1.0
  C  C954  1  0.048100  0.359600  0.297500  1.0
  C  C955  1  0.548100  0.140400  0.797500  1.0
  C  C956  1  0.951900  0.640400  0.702500  1.0
  C  C957  1  0.040100  0.211000  0.878900  1.0
  C  C958  1  0.459900  0.711000  0.621100  1.0
  C  C959  1  0.959900  0.789000  0.121100  1.0
  C  C960  1  0.540100  0.289000  0.378900  1.0
  C  C961  1  0.554100  0.297500  0.218800  1.0
  C  C962  1  0.945900  0.797500  0.281200  1.0
  C  C963  1  0.445900  0.702500  0.781200  1.0
  C  C964  1  0.054100  0.202500  0.718800  1.0
  C  C965  1  0.719400  0.091600  0.068600  1.0
  C  C966  1  0.780600  0.591600  0.431400  1.0
  C  C967  1  0.280600  0.908400  0.931400  1.0
  C  C968  1  0.219400  0.408400  0.568600  1.0
  C  C969  1  0.354900  0.027000  0.257300  1.0
  C  C970  1  0.145100  0.527000  0.242700  1.0
  C  C971  1  0.645100  0.973000  0.742700  1.0
  C  C972  1  0.854900  0.473000  0.757300  1.0
  C  C973  1  0.425700  0.339900  0.929700  1.0
  C  C974  1  0.074300  0.839900  0.570300  1.0
  C  C975  1  0.574300  0.660100  0.070300  1.0
  C  C976  1  0.925700  0.160100  0.429700  1.0
  C  C977  1  0.916100  0.083700  0.935000  1.0
  C  C978  1  0.583900  0.583700  0.565000  1.0
  C  C979  1  0.083900  0.916300  0.065000  1.0
  C  C980  1  0.416100  0.416300  0.435000  1.0
  C  C981  1  0.362200  0.129200  0.915800  1.0
  C  C982  1  0.137800  0.629200  0.584200  1.0
  C  C983  1  0.637800  0.870800  0.084200  1.0
  C  C984  1  0.862200  0.370800  0.415800  1.0
  C  C985  1  0.654400  0.336200  0.231700  1.0
  C  C986  1  0.845600  0.836200  0.268300  1.0
  C  C987  1  0.345600  0.663800  0.768300  1.0
  C  C988  1  0.154400  0.163800  0.731700  1.0
  C  C989  1  0.427500  0.126200  0.233300  1.0
  C  C990  1  0.072500  0.626200  0.266700  1.0
  C  C991  1  0.572500  0.873800  0.766700  1.0
  C  C992  1  0.927500  0.373800  0.733300  1.0
  C  C993  1  0.453700  0.136000  0.950900  1.0
  C  C994  1  0.046300  0.636000  0.549100  1.0
  C  C995  1  0.546300  0.864000  0.049100  1.0
  C  C996  1  0.953700  0.364000  0.450900  1.0
  C  C997  1  0.255200  0.889000  0.125500  1.0
  C  C998  1  0.244800  0.389000  0.374500  1.0
  C  C999  1  0.744800  0.111000  0.874500  1.0
  C  C1000  1  0.755200  0.611000  0.625500  1.0
  C  C1001  1  0.667400  0.342600  0.110200  1.0
  C  C1002  1  0.832600  0.842600  0.389800  1.0
  C  C1003  1  0.332600  0.657400  0.889800  1.0
  C  C1004  1  0.167400  0.157400  0.610200  1.0
  C  C1005  1  0.479400  0.096900  0.930700  1.0
  C  C1006  1  0.020600  0.596900  0.569300  1.0
  C  C1007  1  0.520600  0.903100  0.069300  1.0
  C  C1008  1  0.979400  0.403100  0.430700  1.0
  C  C1009  1  0.555600  0.263200  0.247800  1.0
  C  C1010  1  0.944400  0.763200  0.252200  1.0
  C  C1011  1  0.444400  0.736800  0.752200  1.0
  C  C1012  1  0.055600  0.236800  0.747800  1.0
  C  C1013  1  0.306200  0.307600  0.992600  1.0
  C  C1014  1  0.193800  0.807600  0.507400  1.0
  C  C1015  1  0.693800  0.692400  0.007400  1.0
  C  C1016  1  0.806200  0.192400  0.492600  1.0
  C  C1017  1  0.719700  0.276100  0.012000  1.0
  C  C1018  1  0.780300  0.776100  0.488000  1.0
  C  C1019  1  0.280300  0.723900  0.988000  1.0
  C  C1020  1  0.219700  0.223900  0.512000  1.0
  C  C1021  1  0.873800  0.172300  0.952800  1.0
  C  C1022  1  0.626200  0.672300  0.547200  1.0
  C  C1023  1  0.126200  0.827700  0.047200  1.0
  C  C1024  1  0.373800  0.327700  0.452800  1.0
  C  C1025  1  0.381300  0.357400  0.953500  1.0
  C  C1026  1  0.118700  0.857400  0.546500  1.0
  C  C1027  1  0.618700  0.642600  0.046500  1.0
  C  C1028  1  0.881300  0.142600  0.453500  1.0
  C  C1029  1  0.000400  0.017300  0.904400  1.0
  C  C1030  1  0.499600  0.517300  0.595600  1.0
  C  C1031  1  0.999600  0.982700  0.095600  1.0
  C  C1032  1  0.500400  0.482700  0.404400  1.0
  C  C1033  1  0.823300  0.280700  0.975600  1.0
  C  C1034  1  0.676700  0.780700  0.524400  1.0
  C  C1035  1  0.176700  0.719300  0.024400  1.0
  C  C1036  1  0.323300  0.219300  0.475600  1.0
  C  C1037  1  0.668600  0.009700  0.047800  1.0
  C  C1038  1  0.831400  0.509700  0.452200  1.0
  C  C1039  1  0.331400  0.990300  0.952200  1.0
  C  C1040  1  0.168600  0.490300  0.547800  1.0
  C  C1041  1  0.516200  0.286400  0.187000  1.0
  C  C1042  1  0.983800  0.786400  0.313000  1.0
  C  C1043  1  0.483800  0.713600  0.813000  1.0
  C  C1044  1  0.016200  0.213600  0.687000  1.0
  C  C1045  1  0.041600  0.007700  0.785800  1.0
  C  C1046  1  0.458400  0.507700  0.714200  1.0
  C  C1047  1  0.958400  0.992300  0.214200  1.0
  C  C1048  1  0.541600  0.492300  0.285800  1.0
  C  C1049  1  0.499700  0.347300  0.879200  1.0
  C  C1050  1  0.000300  0.847300  0.620800  1.0
  C  C1051  1  0.500300  0.652700  0.120800  1.0
  C  C1052  1  0.999700  0.152700  0.379200  1.0
  C  C1053  1  0.762300  0.129200  0.118500  1.0
  C  C1054  1  0.737700  0.629200  0.381500  1.0
  C  C1055  1  0.237700  0.870800  0.881500  1.0
  C  C1056  1  0.262300  0.370800  0.618500  1.0
  C  C1057  1  0.149300  0.127900  0.006700  1.0
  C  C1058  1  0.350700  0.627900  0.493300  1.0
  C  C1059  1  0.850700  0.872100  0.993300  1.0
  C  C1060  1  0.649300  0.372100  0.506700  1.0
  C  C1061  1  0.143400  0.031900  0.152800  1.0
  C  C1062  1  0.356600  0.531900  0.347200  1.0
  C  C1063  1  0.856600  0.968100  0.847200  1.0
  C  C1064  1  0.643400  0.468100  0.652800  1.0
  C  C1065  1  0.338700  0.959500  0.200800  1.0
  C  C1066  1  0.161300  0.459500  0.299200  1.0
  C  C1067  1  0.661300  0.040500  0.799200  1.0
  C  C1068  1  0.838700  0.540500  0.700800  1.0
  C  C1069  1  0.125400  0.995800  0.846000  1.0
  C  C1070  1  0.374600  0.495800  0.654000  1.0
  C  C1071  1  0.874600  0.004200  0.154000  1.0
  C  C1072  1  0.625400  0.504200  0.346000  1.0
  C  C1073  1  0.387100  0.091500  0.894200  1.0
  C  C1074  1  0.112900  0.591500  0.605800  1.0
  C  C1075  1  0.612900  0.908500  0.105800  1.0
  C  C1076  1  0.887100  0.408500  0.394200  1.0
  C  C1077  1  0.021700  0.999700  0.822000  1.0
  C  C1078  1  0.478300  0.499700  0.678000  1.0
  C  C1079  1  0.978300  0.000300  0.178000  1.0
  C  C1080  1  0.521700  0.500300  0.322000  1.0
  C  C1081  1  0.824700  0.184600  0.161600  1.0
  C  C1082  1  0.675300  0.684600  0.338400  1.0
  C  C1083  1  0.175300  0.815400  0.838400  1.0
  C  C1084  1  0.324700  0.315400  0.661600  1.0
  C  C1085  1  0.313300  0.948800  0.234400  1.0
  C  C1086  1  0.186700  0.448800  0.265600  1.0
  C  C1087  1  0.686700  0.051200  0.765600  1.0
  C  C1088  1  0.813300  0.551200  0.734400  1.0
  C  C1089  1  0.352100  0.313900  0.965600  1.0
  C  C1090  1  0.147900  0.813900  0.534400  1.0
  C  C1091  1  0.647900  0.686100  0.034400  1.0
  C  C1092  1  0.852100  0.186100  0.465600  1.0
  C  C1093  1  0.203200  0.893800  0.145900  1.0
  C  C1094  1  0.296800  0.393800  0.354100  1.0
  C  C1095  1  0.796800  0.106200  0.854100  1.0
  C  C1096  1  0.703200  0.606200  0.645900  1.0
  C  C1097  1  0.582600  0.348800  0.970100  1.0
  C  C1098  1  0.917400  0.848800  0.529900  1.0
  C  C1099  1  0.417400  0.651200  0.029900  1.0
  C  C1100  1  0.082600  0.151200  0.470100  1.0
  C  C1101  1  0.312900  0.683100  0.137800  1.0
  C  C1102  1  0.187100  0.183100  0.362200  1.0
  C  C1103  1  0.687100  0.316900  0.862200  1.0
  C  C1104  1  0.812900  0.816900  0.637800  1.0
  C  C1105  1  0.683000  0.369200  0.256700  1.0
  C  C1106  1  0.817000  0.869200  0.243300  1.0
  C  C1107  1  0.317000  0.630800  0.743300  1.0
  C  C1108  1  0.183000  0.130800  0.756700  1.0
  C  C1109  1  0.734100  0.993900  0.271800  1.0
  C  C1110  1  0.765900  0.493900  0.228200  1.0
  C  C1111  1  0.265900  0.006100  0.728200  1.0
  C  C1112  1  0.234100  0.506100  0.771800  1.0
  C  C1113  1  0.879000  0.229900  0.860800  1.0
  C  C1114  1  0.621000  0.729900  0.639200  1.0
  C  C1115  1  0.121000  0.770100  0.139200  1.0
  C  C1116  1  0.379000  0.270100  0.360800  1.0
  C  C1117  1  0.565300  0.422600  0.876400  1.0
  C  C1118  1  0.934700  0.922600  0.623600  1.0
  C  C1119  1  0.434700  0.577400  0.123600  1.0
  C  C1120  1  0.065300  0.077400  0.376400  1.0
  C  C1121  1  0.638000  0.981700  0.019600  1.0
  C  C1122  1  0.862000  0.481700  0.480400  1.0
  C  C1123  1  0.362000  0.018300  0.980400  1.0
  C  C1124  1  0.138000  0.518300  0.519600  1.0
  C  C1125  1  0.545100  0.373100  0.863600  1.0
  C  C1126  1  0.954900  0.873100  0.636400  1.0
  C  C1127  1  0.454900  0.626900  0.136400  1.0
  C  C1128  1  0.045100  0.126900  0.363600  1.0
  C  C1129  1  0.425700  0.305400  0.093600  1.0
  C  C1130  1  0.074300  0.805400  0.406400  1.0
  C  C1131  1  0.574300  0.694600  0.906400  1.0
  C  C1132  1  0.925700  0.194600  0.593600  1.0
  C  C1133  1  0.084400  0.170700  0.038900  1.0
  C  C1134  1  0.415600  0.670700  0.461100  1.0
  C  C1135  1  0.915600  0.829300  0.961100  1.0
  C  C1136  1  0.584400  0.329300  0.538900  1.0
  C  C1137  1  0.344200  0.720300  0.120000  1.0
  C  C1138  1  0.155800  0.220300  0.380000  1.0
  C  C1139  1  0.655800  0.279700  0.880000  1.0
  C  C1140  1  0.844200  0.779700  0.620000  1.0
  C  C1141  1  0.144100  0.003000  0.810400  1.0
  C  C1142  1  0.355900  0.503000  0.689600  1.0
  C  C1143  1  0.855900  0.997000  0.189600  1.0
  C  C1144  1  0.644100  0.497000  0.310400  1.0
  C  C1145  1  0.744500  0.362600  0.267100  1.0
  C  C1146  1  0.755500  0.862600  0.232900  1.0
  C  C1147  1  0.255500  0.637400  0.732900  1.0
  C  C1148  1  0.244500  0.137400  0.767100  1.0
  C  C1149  1  0.321300  0.982900  0.263600  1.0
  C  C1150  1  0.178700  0.482900  0.236400  1.0
  C  C1151  1  0.678700  0.017100  0.736400  1.0
  C  C1152  1  0.821300  0.517100  0.763600  1.0
  C  C1153  1  0.796900  0.235600  0.982900  1.0
  C  C1154  1  0.703100  0.735600  0.517100  1.0
  C  C1155  1  0.203100  0.764400  0.017100  1.0
  C  C1156  1  0.296900  0.264400  0.482900  1.0
  C  C1157  1  0.491200  0.447600  0.187300  1.0
  C  C1158  1  0.008800  0.947600  0.312700  1.0
  C  C1159  1  0.508800  0.552400  0.812700  1.0
  C  C1160  1  0.991200  0.052400  0.687300  1.0
  C  C1161  1  0.214500  0.862100  0.176000  1.0
  C  C1162  1  0.285500  0.362100  0.324000  1.0
  C  C1163  1  0.785500  0.137900  0.824000  1.0
  C  C1164  1  0.714500  0.637900  0.676000  1.0
  C  C1165  1  0.732800  0.084600  0.106800  1.0
  C  C1166  1  0.767200  0.584600  0.393200  1.0
  C  C1167  1  0.267200  0.915400  0.893200  1.0
  C  C1168  1  0.232800  0.415400  0.606800  1.0
  C  C1169  1  0.530200  0.443700  0.905100  1.0
  C  C1170  1  0.969800  0.943700  0.594900  1.0
  C  C1171  1  0.469800  0.556300  0.094900  1.0
  C  C1172  1  0.030200  0.056300  0.405100  1.0
  C  C1173  1  0.843000  0.268400  0.874500  1.0
  C  C1174  1  0.657000  0.768400  0.625500  1.0
  C  C1175  1  0.157000  0.731600  0.125500  1.0
  C  C1176  1  0.343000  0.231600  0.374500  1.0
  C  C1177  1  0.495000  0.046900  0.312200  1.0
  C  C1178  1  0.005000  0.546900  0.187800  1.0
  C  C1179  1  0.505000  0.953100  0.687800  1.0
  C  C1180  1  0.995000  0.453100  0.812200  1.0
  C  C1181  1  0.529600  0.475400  0.167300  1.0
  C  C1182  1  0.970400  0.975400  0.332700  1.0
  C  C1183  1  0.470400  0.524600  0.832700  1.0
  C  C1184  1  0.029600  0.024600  0.667300  1.0
  C  C1185  1  0.744000  0.323500  0.005800  1.0
  C  C1186  1  0.756000  0.823500  0.494200  1.0
  C  C1187  1  0.256000  0.676500  0.994200  1.0
  C  C1188  1  0.244000  0.176500  0.505800  1.0
  C  C1189  1  0.410100  0.351300  0.107600  1.0
  C  C1190  1  0.089900  0.851300  0.392400  1.0
  C  C1191  1  0.589900  0.648700  0.892400  1.0
  C  C1192  1  0.910100  0.148700  0.607600  1.0
  C  C1193  1  0.851200  0.196600  0.195700  1.0
  C  C1194  1  0.648800  0.696600  0.304300  1.0
  C  C1195  1  0.148800  0.803400  0.804300  1.0
  C  C1196  1  0.351200  0.303400  0.695700  1.0
  C  C1197  1  0.571100  0.386200  0.202600  1.0
  C  C1198  1  0.928900  0.886200  0.297400  1.0
  C  C1199  1  0.428900  0.613800  0.797400  1.0
  C  C1200  1  0.071100  0.113800  0.702600  1.0
  C  C1201  1  0.610600  0.415300  0.181200  1.0
  C  C1202  1  0.889400  0.915300  0.318800  1.0
  C  C1203  1  0.389400  0.584700  0.818800  1.0
  C  C1204  1  0.110600  0.084700  0.681200  1.0
  C  C1205  1  0.512500  0.406300  0.204700  1.0
  C  C1206  1  0.987500  0.906300  0.295300  1.0
  C  C1207  1  0.487500  0.593700  0.795300  1.0
  C  C1208  1  0.012500  0.093700  0.704700  1.0
  C  C1209  1  0.627000  0.155700  0.181600  1.0
  C  C1210  1  0.873000  0.655700  0.318400  1.0
  C  C1211  1  0.373000  0.844300  0.818400  1.0
  C  C1212  1  0.127000  0.344300  0.681600  1.0
  C  C1213  1  0.220300  0.288600  0.042900  1.0
  C  C1214  1  0.279700  0.788600  0.457100  1.0
  C  C1215  1  0.779700  0.711400  0.957100  1.0
  C  C1216  1  0.720300  0.211400  0.542900  1.0
  C  C1217  1  0.585200  0.381100  0.999800  1.0
  C  C1218  1  0.914800  0.881100  0.500200  1.0
  C  C1219  1  0.414800  0.618900  0.000200  1.0
  C  C1220  1  0.085200  0.118900  0.499800  1.0
  C  C1221  1  0.470700  0.369000  0.909100  1.0
  C  C1222  1  0.029300  0.869000  0.590900  1.0
  C  C1223  1  0.529300  0.631000  0.090900  1.0
  C  C1224  1  0.970700  0.131000  0.409100  1.0
  C  C1225  1  0.740200  0.064100  0.306200  1.0
  C  C1226  1  0.759800  0.564100  0.193800  1.0
  C  C1227  1  0.259800  0.935900  0.693800  1.0
  C  C1228  1  0.240200  0.435900  0.806200  1.0
  C  C1229  1  0.797600  0.326000  0.986800  1.0
  C  C1230  1  0.702400  0.826000  0.513200  1.0
  C  C1231  1  0.202400  0.674000  0.013200  1.0
  C  C1232  1  0.297600  0.174000  0.486800  1.0
  C  C1233  1  0.446400  0.856500  0.240600  1.0
  C  C1234  1  0.053600  0.356500  0.259400  1.0
  C  C1235  1  0.553600  0.143500  0.759400  1.0
  C  C1236  1  0.946400  0.643500  0.740600  1.0
  C  C1237  1  0.687700  0.297800  0.217300  1.0
  C  C1238  1  0.812300  0.797800  0.282700  1.0
  C  C1239  1  0.312300  0.702200  0.782700  1.0
  C  C1240  1  0.187700  0.202200  0.717300  1.0
  C  C1241  1  0.275700  0.348600  0.008700  1.0
  C  C1242  1  0.224300  0.848600  0.491300  1.0
  C  C1243  1  0.724300  0.651400  0.991300  1.0
  C  C1244  1  0.775700  0.151400  0.508700  1.0
  C  C1245  1  0.232800  0.337500  0.034300  1.0
  C  C1246  1  0.267200  0.837500  0.465700  1.0
  C  C1247  1  0.767200  0.662500  0.965700  1.0
  C  C1248  1  0.732800  0.162500  0.534300  1.0
  C  C1249  1  0.846100  0.164400  0.226000  1.0
  C  C1250  1  0.653900  0.664400  0.274000  1.0
  C  C1251  1  0.153900  0.835600  0.774000  1.0
  C  C1252  1  0.346100  0.335600  0.726000  1.0
  C  C1253  1  0.539800  0.086100  0.314700  1.0
  C  C1254  1  0.960200  0.586100  0.185300  1.0
  C  C1255  1  0.460200  0.913900  0.685300  1.0
  C  C1256  1  0.039800  0.413900  0.814700  1.0
  C  C1257  1  0.693800  0.297400  0.120200  1.0
  C  C1258  1  0.806200  0.797400  0.379800  1.0
  C  C1259  1  0.306200  0.702600  0.879800  1.0
  C  C1260  1  0.193800  0.202600  0.620200  1.0
  C  C1261  1  0.590700  0.459200  0.163200  1.0
  C  C1262  1  0.909300  0.959200  0.336800  1.0
  C  C1263  1  0.409300  0.540800  0.836800  1.0
  C  C1264  1  0.090700  0.040800  0.663200  1.0
  C  C1265  1  0.095200  0.155500  0.003400  1.0
  C  C1266  1  0.404800  0.655500  0.496600  1.0
  C  C1267  1  0.904800  0.844500  0.996600  1.0
  C  C1268  1  0.595200  0.344500  0.503400  1.0
  C  C1269  1  0.102500  0.009200  0.780700  1.0
  C  C1270  1  0.397500  0.509200  0.719300  1.0
  C  C1271  1  0.897500  0.990800  0.219300  1.0
  C  C1272  1  0.602500  0.490800  0.280700  1.0
  C  C1273  1  0.944600  0.290600  0.835700  1.0
  C  C1274  1  0.555400  0.790600  0.664300  1.0
  C  C1275  1  0.055400  0.709400  0.164300  1.0
  C  C1276  1  0.444600  0.209400  0.335700  1.0
  C  C1277  1  0.778400  0.113000  0.186500  1.0
  C  C1278  1  0.721600  0.613000  0.313500  1.0
  C  C1279  1  0.221600  0.887000  0.813500  1.0
  C  C1280  1  0.278400  0.387000  0.686500  1.0
  C  C1281  1  0.614700  0.105600  0.177700  1.0
  C  C1282  1  0.885300  0.605600  0.322300  1.0
  C  C1283  1  0.385300  0.894400  0.822300  1.0
  C  C1284  1  0.114700  0.394400  0.677700  1.0
  C  C1285  1  0.251300  0.250300  0.025800  1.0
  C  C1286  1  0.248700  0.750300  0.474200  1.0
  C  C1287  1  0.748700  0.749700  0.974200  1.0
  C  C1288  1  0.751300  0.249700  0.525800  1.0
  C  C1289  1  0.747700  0.293300  0.227800  1.0
  C  C1290  1  0.752300  0.793300  0.272200  1.0
  C  C1291  1  0.252300  0.706700  0.772200  1.0
  C  C1292  1  0.247700  0.206700  0.727800  1.0
  C  C1293  1  0.485400  0.418300  0.920400  1.0
  C  C1294  1  0.014600  0.918300  0.579600  1.0
  C  C1295  1  0.514600  0.581700  0.079600  1.0
  C  C1296  1  0.985400  0.081700  0.420400  1.0
  C  C1297  1  0.776500  0.324400  0.251700  1.0
  C  C1298  1  0.723500  0.824400  0.248300  1.0
  C  C1299  1  0.223500  0.675600  0.748300  1.0
  C  C1300  1  0.276500  0.175600  0.751700  1.0
  C  C1301  1  0.118000  0.079400  0.148300  1.0
  C  C1302  1  0.382000  0.579400  0.351700  1.0
  C  C1303  1  0.882000  0.920600  0.851700  1.0
  C  C1304  1  0.618000  0.420600  0.648300  1.0
  C  C1305  1  0.641100  0.162900  0.218200  1.0
  C  C1306  1  0.858900  0.662900  0.281800  1.0
  C  C1307  1  0.358900  0.837100  0.781800  1.0
  C  C1308  1  0.141100  0.337100  0.718200  1.0
  C  C1309  1  0.770600  0.018300  0.298200  1.0
  C  C1310  1  0.729400  0.518300  0.201800  1.0
  C  C1311  1  0.229400  0.981700  0.701800  1.0
  C  C1312  1  0.270600  0.481700  0.798200  1.0
  C  C1313  1  0.226000  0.223600  0.132300  1.0
  C  C1314  1  0.274000  0.723600  0.367700  1.0
  C  C1315  1  0.774000  0.776400  0.867700  1.0
  C  C1316  1  0.726000  0.276400  0.632300  1.0
  C  C1317  1  0.302200  0.186500  0.109800  1.0
  C  C1318  1  0.197800  0.686500  0.390200  1.0
  C  C1319  1  0.697800  0.813500  0.890200  1.0
  C  C1320  1  0.802200  0.313500  0.609800  1.0
  C  C1321  1  0.286600  0.226900  0.131100  1.0
  C  C1322  1  0.213400  0.726900  0.368900  1.0
  C  C1323  1  0.713400  0.773100  0.868900  1.0
  C  C1324  1  0.786600  0.273100  0.631100  1.0
  C  C1325  1  0.665100  0.987800  0.189700  1.0
  C  C1326  1  0.834900  0.487800  0.310300  1.0
  C  C1327  1  0.334900  0.012200  0.810300  1.0
  C  C1328  1  0.165100  0.512200  0.689700  1.0
  C  C1329  1  0.460300  0.382000  0.101300  1.0
  C  C1330  1  0.039700  0.882000  0.398700  1.0
  C  C1331  1  0.539700  0.618000  0.898700  1.0
  C  C1332  1  0.960300  0.118000  0.601300  1.0
  C  C1333  1  0.631710  0.440780  0.823690  1.0
  C  C1334  1  0.868290  0.940780  0.676310  1.0
  C  C1335  1  0.368290  0.559220  0.176310  1.0
  C  C1336  1  0.131710  0.059220  0.323690  1.0
  C  C1337  1  0.587300  0.439300  0.794420  1.0
  C  C1338  1  0.912700  0.939300  0.705580  1.0
  C  C1339  1  0.412700  0.560700  0.205580  1.0
  C  C1340  1  0.087300  0.060700  0.294420  1.0
  C  C1341  1  0.604100  0.431910  0.757900  1.0
  C  C1342  1  0.895900  0.931910  0.742100  1.0
  C  C1343  1  0.395900  0.568090  0.242100  1.0
  C  C1344  1  0.104100  0.068090  0.257900  1.0
  C  C1345  1  0.665200  0.425990  0.750650  1.0
  C  C1346  1  0.834800  0.925990  0.749350  1.0
  C  C1347  1  0.334800  0.574010  0.249350  1.0
  C  C1348  1  0.165200  0.074010  0.250650  1.0
  C  C1349  1  0.709700  0.427470  0.779920  1.0
  C  C1350  1  0.790300  0.927470  0.720080  1.0
  C  C1351  1  0.290300  0.572530  0.220080  1.0
  C  C1352  1  0.209700  0.072530  0.279920  1.0
  C  C1353  1  0.692900  0.434860  0.816440  1.0
  C  C1354  1  0.807100  0.934860  0.683560  1.0
  C  C1355  1  0.307100  0.565140  0.183560  1.0
  C  C1356  1  0.192900  0.065140  0.316440  1.0
  C  C1357  1  0.654750  0.471750  0.889080  1.0
  C  C1358  1  0.845250  0.971750  0.610920  1.0
  C  C1359  1  0.345250  0.528250  0.110920  1.0
  C  C1360  1  0.154750  0.028250  0.389080  1.0
  C  C1361  1  0.675100  0.520840  0.881390  1.0
  C  C1362  1  0.824900  0.020840  0.618610  1.0
  C  C1363  1  0.324900  0.479160  0.118610  1.0
  C  C1364  1  0.175100  0.979160  0.381390  1.0
  C  C1365  1  0.714700  0.545910  0.906990  1.0
  C  C1366  1  0.785300  0.045910  0.593010  1.0
  C  C1367  1  0.285300  0.454090  0.093010  1.0
  C  C1368  1  0.214700  0.954090  0.406990  1.0
  C  C1369  1  0.734000  0.521890  0.940280  1.0
  C  C1370  1  0.766000  0.021890  0.559720  1.0
  C  C1371  1  0.266000  0.478110  0.059720  1.0
  C  C1372  1  0.234000  0.978110  0.440280  1.0
  C  C1373  1  0.713600  0.472800  0.947970  1.0
  C  C1374  1  0.786400  0.972800  0.552030  1.0
  C  C1375  1  0.286400  0.527200  0.052030  1.0
  C  C1376  1  0.213600  0.027200  0.447970  1.0
  C  C1377  1  0.673980  0.447730  0.922370  1.0
  C  C1378  1  0.826020  0.947730  0.577630  1.0
  C  C1379  1  0.326020  0.552270  0.077630  1.0
  C  C1380  1  0.173980  0.052270  0.422370  1.0
  C  C1381  1  0.942300  0.183430  0.261940  1.0
  C  C1382  1  0.557700  0.683430  0.238060  1.0
  C  C1383  1  0.057700  0.816570  0.738060  1.0
  C  C1384  1  0.442300  0.316570  0.761940  1.0
  C  C1385  1  0.976400  0.164770  0.233330  1.0
  C  C1386  1  0.523600  0.664770  0.266670  1.0
  C  C1387  1  0.023600  0.835230  0.766670  1.0
  C  C1388  1  0.476400  0.335230  0.733330  1.0
  C  C1389  1  0.038500  0.175290  0.233310  1.0
  C  C1390  1  0.461500  0.675290  0.266690  1.0
  C  C1391  1  0.961500  0.824710  0.766690  1.0
  C  C1392  1  0.538500  0.324710  0.733310  1.0
  C  C1393  1  0.066500  0.204480  0.261900  1.0
  C  C1394  1  0.433500  0.704480  0.238100  1.0
  C  C1395  1  0.933500  0.795520  0.738100  1.0
  C  C1396  1  0.566500  0.295520  0.761900  1.0
  C  C1397  1  0.032300  0.223140  0.290520  1.0
  C  C1398  1  0.467700  0.723140  0.209480  1.0
  C  C1399  1  0.967700  0.776860  0.709480  1.0
  C  C1400  1  0.532300  0.276860  0.790520  1.0
  C  C1401  1  0.970200  0.212610  0.290540  1.0
  C  C1402  1  0.529800  0.712610  0.209460  1.0
  C  C1403  1  0.029800  0.787390  0.709460  1.0
  C  C1404  1  0.470200  0.287390  0.790540  1.0
  C  C1405  1  0.853300  0.166330  0.293890  1.0
  C  C1406  1  0.646700  0.666330  0.206110  1.0
  C  C1407  1  0.146700  0.833670  0.706110  1.0
  C  C1408  1  0.353300  0.333670  0.793890  1.0
  C  C1409  1  0.875700  0.132680  0.321480  1.0
  C  C1410  1  0.624300  0.632680  0.178520  1.0
  C  C1411  1  0.124300  0.867320  0.678520  1.0
  C  C1412  1  0.375700  0.367320  0.821480  1.0
  C  C1413  1  0.849500  0.131220  0.355960  1.0
  C  C1414  1  0.650500  0.631220  0.144040  1.0
  C  C1415  1  0.150500  0.868780  0.644040  1.0
  C  C1416  1  0.349500  0.368780  0.855960  1.0
  C  C1417  1  0.800900  0.163400  0.362840  1.0
  C  C1418  1  0.699100  0.663400  0.137160  1.0
  C  C1419  1  0.199100  0.836600  0.637160  1.0
  C  C1420  1  0.300900  0.336600  0.862840  1.0
  C  C1421  1  0.778500  0.197050  0.335240  1.0
  C  C1422  1  0.721500  0.697050  0.164760  1.0
  C  C1423  1  0.221500  0.802950  0.664760  1.0
  C  C1424  1  0.278500  0.302950  0.835240  1.0
  C  C1425  1  0.804800  0.198510  0.300760  1.0
  C  C1426  1  0.695200  0.698510  0.199240  1.0
  C  C1427  1  0.195200  0.801490  0.699240  1.0
  C  C1428  1  0.304800  0.301490  0.800760  1.0
  C  C1429  1  0.054270  0.933390  0.902470  1.0
  C  C1430  1  0.445730  0.433390  0.597530  1.0
  C  C1431  1  0.945730  0.066610  0.097530  1.0
  C  C1432  1  0.554270  0.566610  0.402470  1.0
  C  C1433  1  0.048660  0.891340  0.878690  1.0
  C  C1434  1  0.451340  0.391340  0.621310  1.0
  C  C1435  1  0.951340  0.108660  0.121310  1.0
  C  C1436  1  0.548660  0.608660  0.378690  1.0
  C  C1437  1  0.056600  0.842130  0.892980  1.0
  C  C1438  1  0.443400  0.342130  0.607020  1.0
  C  C1439  1  0.943400  0.157870  0.107020  1.0
  C  C1440  1  0.556600  0.657870  0.392980  1.0
  C  C1441  1  0.070090  0.834970  0.931060  1.0
  C  C1442  1  0.429910  0.334970  0.568940  1.0
  C  C1443  1  0.929910  0.165030  0.068940  1.0
  C  C1444  1  0.570090  0.665030  0.431060  1.0
  C  C1445  1  0.075700  0.877020  0.954850  1.0
  C  C1446  1  0.424300  0.377020  0.545150  1.0
  C  C1447  1  0.924300  0.122980  0.045150  1.0
  C  C1448  1  0.575700  0.622980  0.454850  1.0
  C  C1449  1  0.067790  0.926230  0.940550  1.0
  C  C1450  1  0.432210  0.426230  0.559450  1.0
  C  C1451  1  0.932210  0.073770  0.059450  1.0
  C  C1452  1  0.567790  0.573770  0.440550  1.0
  C  C1453  1  0.520000  0.085800  0.044900  1.0
  C  C1454  1  0.980000  0.585800  0.455100  1.0
  C  C1455  1  0.480000  0.914200  0.955100  1.0
  C  C1456  1  0.020000  0.414200  0.544900  1.0
  C  C1457  1  0.493400  0.061900  0.078200  1.0
  C  C1458  1  0.006600  0.561900  0.421800  1.0
  C  C1459  1  0.506600  0.938100  0.921800  1.0
  C  C1460  1  0.993400  0.438100  0.578200  1.0
  C  C1461  1  0.602800  0.941350  0.244300  1.0
  C  C1462  1  0.897200  0.441350  0.255700  1.0
  C  C1463  1  0.397200  0.058650  0.755700  1.0
  C  C1464  1  0.102800  0.558650  0.744300  1.0
  N  N1465  1  0.154400  0.546700  0.144400  1
  N  N1466  1  0.345600  0.046700  0.355600  1
  N  N1467  1  0.845600  0.453300  0.855600  1
  N  N1468  1  0.654400  0.953300  0.644400  1
  N  N1469  1  0.015100  0.720700  0.043500  1
  N  N1470  1  0.484900  0.220700  0.456500  1
  N  N1471  1  0.984900  0.279300  0.956500  1
  N  N1472  1  0.515100  0.779300  0.543500  1
  N  N1473  1  0.824700  0.258300  0.081000  1
  N  N1474  1  0.675300  0.758300  0.419000  1
  N  N1475  1  0.175300  0.741700  0.919000  1
  N  N1476  1  0.324700  0.241700  0.581000  1
  N  N1477  1  0.825300  0.706600  0.057200  1
  N  N1478  1  0.674700  0.206600  0.442800  1
  N  N1479  1  0.174700  0.293400  0.942800  1
  N  N1480  1  0.325300  0.793400  0.557200  1
  N  N1481  1  0.974000  0.710200  0.910600  1
  N  N1482  1  0.526000  0.210200  0.589400  1
  N  N1483  1  0.026000  0.289800  0.089400  1
  N  N1484  1  0.474000  0.789800  0.410600  1
  N  N1485  1  0.637400  0.971800  0.348600  1
  N  N1486  1  0.862600  0.471800  0.151400  1
  N  N1487  1  0.362600  0.028200  0.651400  1
  N  N1488  1  0.137400  0.528200  0.848600  1
  N  N1489  1  0.596600  0.899920  0.253400  1.0
  N  N1490  1  0.903400  0.399920  0.246600  1.0
  N  N1491  1  0.403400  0.100080  0.746600  1.0
  N  N1492  1  0.096600  0.600080  0.753400  1.0
  N  N1493  1  0.966100  0.200300  0.826500  1.0
  N  N1494  1  0.533900  0.700300  0.673500  1.0
  N  N1495  1  0.033900  0.799700  0.173500  1.0
  N  N1496  1  0.466100  0.299700  0.326500  1.0
  N  N1497  1  0.225500  0.196800  0.923500  1.0
  N  N1498  1  0.274500  0.696800  0.576500  1.0
  N  N1499  1  0.774500  0.803200  0.076500  1.0
  N  N1500  1  0.725500  0.303200  0.423500  1.0
  N  N1501  1  0.283000  0.185900  0.933660  1.0
  N  N1502  1  0.217000  0.685900  0.566340  1.0
  N  N1503  1  0.717000  0.814100  0.066340  1.0
  N  N1504  1  0.783000  0.314100  0.433660  1.0
  N  N1505  1  0.396100  0.151300  0.944190  1.0
  N  N1506  1  0.103900  0.651300  0.555810  1.0
  N  N1507  1  0.603900  0.848700  0.055810  1.0
  N  N1508  1  0.896100  0.348700  0.444190  1.0
  N  N1509  1  0.042800  0.983200  0.888400  1.0
  N  N1510  1  0.457200  0.483200  0.611600  1.0
  N  N1511  1  0.957200  0.016800  0.111600  1.0
  N  N1512  1  0.542800  0.516800  0.388400  1.0
  N  N1513  1  0.821500  0.104100  0.967330  1.0
  N  N1514  1  0.678500  0.604100  0.532670  1.0
  N  N1515  1  0.178500  0.895900  0.032670  1.0
  N  N1516  1  0.321500  0.395900  0.467330  1.0
  N  N1517  1  0.790000  0.144300  0.980420  1.0
  N  N1518  1  0.710000  0.644300  0.519580  1.0
  N  N1519  1  0.210000  0.855700  0.019580  1.0
  N  N1520  1  0.290000  0.355700  0.480420  1.0
  N  N1521  1  0.744600  0.232700  0.001220  1.0
  N  N1522  1  0.755400  0.732700  0.498780  1.0
  N  N1523  1  0.255400  0.767300  0.998780  1.0
  N  N1524  1  0.244600  0.267300  0.501220  1.0
  N  N1525  1  0.764400  0.159200  0.088180  1.0
  N  N1526  1  0.735600  0.659200  0.411820  1.0
  N  N1527  1  0.235600  0.840800  0.911820  1.0
  N  N1528  1  0.264400  0.340800  0.588180  1.0
  N  N1529  1  0.738600  0.136800  0.057220  1.0
  N  N1530  1  0.761400  0.636800  0.442780  1.0
  N  N1531  1  0.261400  0.863200  0.942780  1.0
  N  N1532  1  0.238600  0.363200  0.557220  1.0
  N  N1533  1  0.677700  0.081500  0.006660  1.0
  N  N1534  1  0.822300  0.581500  0.493340  1.0
  N  N1535  1  0.322300  0.918500  0.993340  1.0
  N  N1536  1  0.177700  0.418500  0.506660  1.0
  N  N1537  1  0.613600  0.448800  0.862000  1.0
  N  N1538  1  0.886400  0.948800  0.638000  1.0
  N  N1539  1  0.386400  0.551200  0.138000  1.0
  N  N1540  1  0.113600  0.051200  0.362000  1.0
  N  N1541  1  0.418100  0.288300  0.927900  1.0
  N  N1542  1  0.081900  0.788300  0.572100  1.0
  N  N1543  1  0.581900  0.711700  0.072100  1.0
  N  N1544  1  0.918100  0.211700  0.427900  1.0
  N  N1545  1  0.374400  0.271600  0.949900  1.0
  N  N1546  1  0.125600  0.771600  0.550100  1.0
  N  N1547  1  0.625600  0.728400  0.050100  1.0
  N  N1548  1  0.874400  0.228400  0.449900  1.0
  N  N1549  1  0.294200  0.258200  0.001700  1.0
  N  N1550  1  0.205800  0.758200  0.498300  1.0
  N  N1551  1  0.705800  0.741800  0.998300  1.0
  N  N1552  1  0.794200  0.241800  0.501700  1.0
  N  N1553  1  0.591200  0.342300  0.221400  1.0
  N  N1554  1  0.908800  0.842300  0.278600  1.0
  N  N1555  1  0.408800  0.657700  0.778600  1.0
  N  N1556  1  0.091200  0.157700  0.721400  1.0
  N  N1557  1  0.454800  0.130700  0.176070  1.0
  N  N1558  1  0.045200  0.630700  0.323930  1.0
  N  N1559  1  0.545200  0.869300  0.823930  1.0
  N  N1560  1  0.954800  0.369300  0.676070  1.0
  N  N1561  1  0.426600  0.085200  0.178040  1.0
  N  N1562  1  0.073400  0.585200  0.321960  1.0
  N  N1563  1  0.573400  0.914800  0.821960  1.0
  N  N1564  1  0.926600  0.414800  0.678040  1.0
  N  N1565  1  0.370100  0.001500  0.194650  1.0
  N  N1566  1  0.129900  0.501500  0.305350  1.0
  N  N1567  1  0.629900  0.998500  0.805350  1.0
  N  N1568  1  0.870100  0.498500  0.694650  1.0
  N  N1569  1  0.619600  0.082200  0.211500  1.0
  N  N1570  1  0.880400  0.582200  0.288500  1.0
  N  N1571  1  0.380400  0.917800  0.788500  1.0
  N  N1572  1  0.119600  0.417800  0.711500  1.0
  N  N1573  1  0.633700  0.117400  0.237200  1.0
  N  N1574  1  0.866300  0.617400  0.262800  1.0
  N  N1575  1  0.366300  0.882600  0.762800  1.0
  N  N1576  1  0.133700  0.382600  0.737200  1.0
  N  N1577  1  0.561900  0.034000  0.267700  1.0
  N  N1578  1  0.938100  0.534000  0.232300  1.0
  N  N1579  1  0.438100  0.966000  0.732300  1.0
  N  N1580  1  0.061900  0.466000  0.767700  1.0
  N  N1581  1  0.579200  0.077800  0.287200  1.0
  N  N1582  1  0.920800  0.577800  0.212800  1.0
  N  N1583  1  0.420800  0.922200  0.712800  1.0
  N  N1584  1  0.079200  0.422200  0.787200  1.0
  N  N1585  1  0.686100  0.021000  0.262700  1.0
  N  N1586  1  0.813900  0.521000  0.237300  1.0
  N  N1587  1  0.313900  0.979000  0.737300  1.0
  N  N1588  1  0.186100  0.479000  0.762700  1.0
  N  N1589  1  0.689600  0.064600  0.284100  1.0
  N  N1590  1  0.810400  0.564600  0.215900  1.0
  N  N1591  1  0.310400  0.935400  0.715900  1.0
  N  N1592  1  0.189600  0.435400  0.784100  1.0
  N  N1593  1  0.254300  0.158700  0.098700  1.0
  N  N1594  1  0.245700  0.658700  0.401300  1.0
  N  N1595  1  0.745700  0.841300  0.901300  1.0
  N  N1596  1  0.754300  0.341300  0.598700  1.0
  N  N1597  1  0.205300  0.183400  0.112600  1.0
  N  N1598  1  0.294700  0.683400  0.387400  1.0
  N  N1599  1  0.794700  0.816600  0.887400  1.0
  N  N1600  1  0.705300  0.316600  0.612600  1.0
  N  N1601  1  0.188500  0.071800  0.107800  1.0
  N  N1602  1  0.311500  0.571800  0.392200  1.0
  N  N1603  1  0.811500  0.928200  0.892200  1.0
  N  N1604  1  0.688500  0.428200  0.607800  1.0
  N  N1605  1  0.145000  0.102600  0.120700  1.0
  N  N1606  1  0.355000  0.602600  0.379300  1.0
  N  N1607  1  0.855000  0.897400  0.879300  1.0
  N  N1608  1  0.645000  0.397400  0.620700  1.0
  N  N1609  1  0.170200  0.127000  0.042400  1.0
  N  N1610  1  0.329800  0.627000  0.457600  1.0
  N  N1611  1  0.829800  0.873000  0.957600  1.0
  N  N1612  1  0.670200  0.373000  0.542400  1.0
  N  N1613  1  0.130100  0.154000  0.062400  1.0
  N  N1614  1  0.369900  0.654000  0.437600  1.0
  N  N1615  1  0.869900  0.846000  0.937600  1.0
  N  N1616  1  0.630100  0.346000  0.562400  1.0
  N  N1617  1  0.346100  0.763400  0.139660  1.0
  N  N1618  1  0.153900  0.263400  0.360340  1.0
  N  N1619  1  0.653900  0.236600  0.860340  1.0
  N  N1620  1  0.846100  0.736600  0.639660  1.0
  N  N1621  1  0.315000  0.753600  0.171000  1.0
  N  N1622  1  0.185000  0.253600  0.329000  1.0
  N  N1623  1  0.685000  0.246400  0.829000  1.0
  N  N1624  1  0.815000  0.746400  0.671000  1.0
  N  N1625  1  0.295200  0.856700  0.142190  1.0
  N  N1626  1  0.204800  0.356700  0.357810  1.0
  N  N1627  1  0.704800  0.143300  0.857810  1.0
  N  N1628  1  0.795200  0.643300  0.642190  1.0
  N  N1629  1  0.268900  0.839800  0.173990  1.0
  N  N1630  1  0.231100  0.339800  0.326010  1.0
  N  N1631  1  0.731100  0.160200  0.826010  1.0
  N  N1632  1  0.768900  0.660200  0.673990  1.0
  N  N1633  1  0.402800  0.838300  0.184210  1.0
  N  N1634  1  0.097200  0.338300  0.315790  1.0
  N  N1635  1  0.597200  0.161700  0.815790  1.0
  N  N1636  1  0.902800  0.661700  0.684210  1.0
  N  N1637  1  0.365200  0.821700  0.211000  1.0
  N  N1638  1  0.134800  0.321700  0.289000  1.0
  N  N1639  1  0.634800  0.178300  0.789000  1.0
  N  N1640  1  0.865200  0.678300  0.711000  1.0
  N  N1641  1  0.421800  0.216500  0.011410  1.0
  N  N1642  1  0.078200  0.716500  0.488590  1.0
  N  N1643  1  0.578200  0.783500  0.988590  1.0
  N  N1644  1  0.921800  0.283500  0.511410  1.0
  N  N1645  1  0.506500  0.170100  0.111500  1.0
  N  N1646  1  0.993500  0.670100  0.388500  1.0
  N  N1647  1  0.493500  0.829900  0.888500  1.0
  N  N1648  1  0.006500  0.329900  0.611500  1.0
  N  N1649  1  0.626800  0.183100  0.025170  1.0
  N  N1650  1  0.873200  0.683100  0.474830  1.0
  N  N1651  1  0.373200  0.816900  0.974830  1.0
  N  N1652  1  0.126800  0.316900  0.525170  1.0
  N  N1653  1  0.879600  0.172900  0.261000  1.0
  N  N1654  1  0.620400  0.672900  0.239000  1.0
  N  N1655  1  0.120400  0.827100  0.739000  1.0
  N  N1656  1  0.379600  0.327100  0.761000  1.0
  N  N1657  1  0.319100  0.145700  0.008900  1.0
  N  N1658  1  0.180900  0.645700  0.491100  1.0
  N  N1659  1  0.680900  0.854300  0.991100  1.0
  N  N1660  1  0.819100  0.354300  0.508900  1.0
  N  N1661  1  0.347400  0.044900  0.114570  1.0
  N  N1662  1  0.152600  0.544900  0.385430  1.0
  N  N1663  1  0.652600  0.955100  0.885430  1.0
  N  N1664  1  0.847400  0.455100  0.614570  1.0
  N  N1665  1  0.499500  0.995800  0.176100  1.0
  N  N1666  1  0.000500  0.495800  0.323900  1.0
  N  N1667  1  0.500500  0.004200  0.823900  1.0
  N  N1668  1  0.999500  0.504200  0.676100  1.0
  N  N1669  1  0.553600  0.305800  0.019600  1.0
  N  N1670  1  0.946400  0.805800  0.480400  1.0
  N  N1671  1  0.446400  0.694200  0.980400  1.0
  N  N1672  1  0.053600  0.194200  0.519600  1.0
  N  N1673  1  0.568500  0.354900  0.029800  1.0
  N  N1674  1  0.931500  0.854900  0.470200  1.0
  N  N1675  1  0.431500  0.645100  0.970200  1.0
  N  N1676  1  0.068500  0.145100  0.529800  1.0
  N  N1677  1  0.605400  0.281900  0.089040  1.0
  N  N1678  1  0.894600  0.781900  0.410960  1.0
  N  N1679  1  0.394600  0.718100  0.910960  1.0
  N  N1680  1  0.105400  0.218100  0.589040  1.0
  N  N1681  1  0.614300  0.332700  0.091800  1.0
  N  N1682  1  0.885700  0.832700  0.408200  1.0
  N  N1683  1  0.385700  0.667300  0.908200  1.0
  N  N1684  1  0.114300  0.167300  0.591800  1.0
  N  N1685  1  0.698200  0.978000  0.166900  1.0
  N  N1686  1  0.801800  0.478000  0.333100  1.0
  N  N1687  1  0.301800  0.022000  0.833100  1.0
  N  N1688  1  0.198200  0.522000  0.666900  1.0
  N  N1689  1  0.410300  0.945300  0.124870  1.0
  N  N1690  1  0.089700  0.445300  0.375130  1.0
  N  N1691  1  0.589700  0.054700  0.875130  1.0
  N  N1692  1  0.910300  0.554700  0.624870  1.0
  N  N1693  1  0.332700  0.832400  0.048680  1.0
  N  N1694  1  0.167300  0.332400  0.451320  1.0
  N  N1695  1  0.667300  0.167600  0.951320  1.0
  N  N1696  1  0.832700  0.667600  0.548680  1.0
  N  N1697  1  0.497900  0.783700  0.108000  1.0
  N  N1698  1  0.002100  0.283700  0.392000  1.0
  N  N1699  1  0.502100  0.216300  0.892000  1.0
  N  N1700  1  0.997900  0.716300  0.608000  1.0
  N  N1701  1  0.503400  0.354100  0.085200  1.0
  N  N1702  1  0.996600  0.854100  0.414800  1.0
  N  N1703  1  0.496600  0.645900  0.914800  1.0
  N  N1704  1  0.003400  0.145900  0.585200  1.0
  N  N1705  1  0.482300  0.306400  0.080500  1.0
  N  N1706  1  0.017700  0.806400  0.419500  1.0
  N  N1707  1  0.517700  0.693600  0.919500  1.0
  N  N1708  1  0.982300  0.193600  0.580500  1.0
  N  N1709  1  0.221700  0.996700  0.024500  1.0
  N  N1710  1  0.278300  0.496700  0.475500  1.0
  N  N1711  1  0.778300  0.003300  0.975500  1.0
  N  N1712  1  0.721700  0.503300  0.524500  1.0
  N  N1713  1  0.474500  0.043900  0.103490  1.0
  N  N1714  1  0.025500  0.543900  0.396510  1.0
  N  N1715  1  0.525500  0.956100  0.896510  1.0
  N  N1716  1  0.974500  0.456100  0.603490  1.0
  O  O1717  1  0.869000  0.465000  0.010200  1
  O  O1718  1  0.631000  0.965000  0.489800  1
  O  O1719  1  0.131000  0.535000  0.989800  1
  O  O1720  1  0.369000  0.035000  0.510200  1
  O  O1721  1  0.458000  0.475000  0.014900  1
  O  O1722  1  0.042000  0.975000  0.485100  1
  O  O1723  1  0.542000  0.525000  0.985100  1
  O  O1724  1  0.958000  0.025000  0.514900  1
  O  O1725  1  0.283000  0.179600  0.236700  1
  O  O1726  1  0.217000  0.679600  0.263300  1
  O  O1727  1  0.717000  0.820400  0.763300  1
  O  O1728  1  0.783000  0.320400  0.736700  1
  O  O1729  1  0.927700  0.307500  0.219600  1
  O  O1730  1  0.572300  0.807500  0.280400  1
  O  O1731  1  0.072300  0.692500  0.780400  1
  O  O1732  1  0.427700  0.192500  0.719600  1
  O  O1733  1  0.924000  0.494000  0.017900  1
  O  O1734  1  0.576000  0.994000  0.482100  1
  O  O1735  1  0.076000  0.506000  0.982100  1
  O  O1736  1  0.424000  0.006000  0.517900  1
  F  F1737  1  0.810800  0.641600  0.874100  1
  F  F1738  1  0.689200  0.141600  0.625900  1
  F  F1739  1  0.189200  0.358400  0.125900  1
  F  F1740  1  0.310800  0.858400  0.374100  1
  F  F1741  1  0.726000  0.659600  0.842100  1
  F  F1742  1  0.774000  0.159600  0.657900  1
  F  F1743  1  0.274000  0.340400  0.157900  1
  F  F1744  1  0.226000  0.840400  0.342100  1
  F  F1745  1  0.761600  0.586200  0.831900  1
  F  F1746  1  0.738400  0.086200  0.668100  1
  F  F1747  1  0.238400  0.413800  0.168100  1
  F  F1748  1  0.261600  0.913800  0.331900  1
  F  F1749  1  0.774300  0.651200  0.792300  1
  F  F1750  1  0.725700  0.151200  0.707700  1
  F  F1751  1  0.225700  0.348800  0.207700  1
  F  F1752  1  0.274300  0.848800  0.292300  1
  F  F1753  1  0.858500  0.610000  0.824100  1
  F  F1754  1  0.641500  0.110000  0.675900  1
  F  F1755  1  0.141500  0.390000  0.175900  1
  F  F1756  1  0.358500  0.890000  0.324100  1
  F  F1757  1  0.827600  0.686300  0.827200  1
  F  F1758  1  0.672400  0.186300  0.672800  1
  F  F1759  1  0.172400  0.313700  0.172800  1
  F  F1760  1  0.327600  0.813700  0.327200  1
  F  F1761  1  0.270100  0.473800  0.966100  1
  F  F1762  1  0.229900  0.973800  0.533900  1
  F  F1763  1  0.729900  0.526200  0.033900  1
  F  F1764  1  0.770100  0.026200  0.466100  1
  F  F1765  1  0.211000  0.512100  0.927900  1
  F  F1766  1  0.289000  0.012100  0.572100  1
  F  F1767  1  0.789000  0.487900  0.072100  1
  F  F1768  1  0.711000  0.987900  0.427900  1
  F  F1769  1  0.274900  0.455300  0.910600  1
  F  F1770  1  0.225100  0.955300  0.589400  1
  F  F1771  1  0.725100  0.544700  0.089400  1
  F  F1772  1  0.774900  0.044700  0.410600  1
  F  F1773  1  0.290700  0.537500  0.896800  1
  F  F1774  1  0.209300  0.037500  0.603200  1
  F  F1775  1  0.709300  0.462500  0.103200  1
  F  F1776  1  0.790700  0.962500  0.396800  1
  F  F1777  1  0.350100  0.496400  0.942000  1
  F  F1778  1  0.149900  0.996400  0.558000  1
  F  F1779  1  0.649900  0.503600  0.058000  1
  F  F1780  1  0.850100  0.003600  0.442000  1
  F  F1781  1  0.291200  0.553000  0.956600  1
  F  F1782  1  0.208800  0.053000  0.543400  1
  F  F1783  1  0.708800  0.447000  0.043400  1
  F  F1784  1  0.791200  0.947000  0.456600  1
