
#######################################################################
#
#                 Cambridge Crystallographic Data Centre
#                                CCDC 
#
#######################################################################
#
# If this CIF has been generated from an entry in the Cambridge 
# Structural Database, then it will include bibliographic, chemical, 
# crystal, experimental, refinement or atomic coordinate data resulting 
# from the CCDC's data processing and validation procedures.
#
#######################################################################

data_OYIGAF
_chemical_formula_moiety         
'8(Fe1 3+),6(Co1 2+),24(C1 N1 1-),8(C9 H10 B1 N6 1-),10(C26 H20 N4),4(F6 P1 1-),16(C2 H3 N1),5(H2 O1)'
_chemical_name_systematic        
"tetradecakis(\m~2~-Cyano)-octakis(hydrogen tripyrazolylborate-N,N',N'')-decakis(3-(2-pyridyl)-5-(4-(diphenylamino)phenyl)-1H-pyrazole-N,N')-bis(acetonitrile)-decacyano-hexa-cobalt(ii)-octa-iron(iii) tetrakis(hexafluorophosphate) acetonitrile solvate pentahydrate"
_symmetry_cell_setting           monoclinic
_symmetry_space_group_name_H-M   'P 21/n'
_symmetry_Int_Tables_number      14
_space_group_name_Hall           '-P 2yn'
loop_
_symmetry_equiv_pos_site_id
_symmetry_equiv_pos_as_xyz
1 x,y,z
2 1/2-x,1/2+y,1/2-z
3 -x,-y,-z
4 1/2+x,1/2-y,1/2+z
_cell_length_a                   21.986(4)
_cell_length_b                   26.275(4)
_cell_length_c                   35.933(6)
_cell_angle_alpha                90
_cell_angle_beta                 93.302(3)
_cell_angle_gamma                90
_cell_volume                     20723.4
_exptl_crystal_colour            red
_exptl_crystal_description       needle
_cell_formula_units_Z            2
loop_
_atom_site_label
_atom_site_type_symbol
_atom_site_fract_x
_atom_site_fract_y
_atom_site_fract_z
O1 O 0.4116(14) 0.1848(10) 0.2015(11)
C180 C 0.6379(7) 0.9845(5) 0.1255(4)
C184 C 0.6182(12) 1.0302(8) 0.1050(7)
H140 H 0.6177 1.0234 0.0781
H141 H 0.6465 1.0581 0.1113
H142 H 0.5772 1.0397 0.1117
N57 N 0.6526(5) 0.9525(4) 0.1455(3)
C181 C 0.3478(4) 0.2036(3) 0.0778(3)
C185 C 0.3721(8) 0.1520(4) 0.0758(5)
H143 H 0.4130 0.1532 0.0664
H144 H 0.3453 0.1315 0.0591
H145 H 0.3742 0.1368 0.1008
N59 N 0.3265(3) 0.2428(2) 0.08079(18)
C182 C 0.5235(11) 0.2128(6) 0.1221(6)
C186 C 0.5333(15) 0.2095(11) 0.1626(6)
H146 H 0.5537 0.1774 0.1692
H147 H 0.4940 0.2110 0.1740
H148 H 0.5588 0.2381 0.1716
N60 N 0.5159(9) 0.2207(6) 0.0910(5)
C183 C 0.6698(6) 0.1643(4) 0.9307(4)
C187 C 0.6654(11) 0.1104(4) 0.9211(8)
H149 H 0.6708 0.1061 0.8944
H150 H 0.6253 0.0974 0.9270
H151 H 0.6972 0.0914 0.9354
N61 N 0.6748(4) 0.2054(3) 0.9403(3)
C188 C 0.3899(18) 0.9695(9) 0.0075(7)
C189 C 0.3992(12) 1.0207(9) 0.0226(7)
H152 H 0.3863 1.0218 0.0482
H153 H 0.3752 1.0451 0.0073
H154 H 0.4425 1.0296 0.0225
N62 N 0.3843(16) 0.9318(9) -0.0080(8)
C190 C 0.778(2) 0.3345(16) 0.2198(10)
C191 C 0.7670(16) 0.3707(13) 0.1895(9)
H155 H 0.7270 0.3638 0.1770
H156 H 0.7986 0.3672 0.1715
H157 H 0.7676 0.4054 0.1995
N64 N 0.7884(16) 0.3089(13) 0.2451(10)
O2 O 0.0000 0.0000 0.0000
F1 F 0.7742(4) 0.1582(4) 0.1568(3)
F2 F 0.6880(8) 0.1868(3) 0.1778(4)
F3 F 0.6897(5) 0.1444(4) 0.1261(2)
F4 F 0.6431(4) 0.1114(4) 0.1754(3)
F5 F 0.7346(6) 0.0893(4) 0.1689(4)
F6 F 0.7257(7) 0.1380(7) 0.2114(4)
P1 P 0.7079(2) 0.13682(18) 0.16492(14)
F7 F 0.2881(5) 0.0106(5) 0.0749(4)
F8 F 0.2119(5) 0.0544(3) 0.0443(2)
F9 F 0.2264(6) -0.0270(4) 0.0344(3)
F10 F 0.1480(7) -0.0009(6) 0.0593(7)
F11 F 0.2063(5) 0.0377(4) 0.1036(2)
F12 F 0.2164(8) -0.0433(4) 0.0923(4)
P2 P 0.2196(2) 0.00737(16) 0.06782(13)
C193 C 0.4422(7) 0.8108(7) -0.0075(5)
H162 H 0.4548 0.8457 -0.0132
H163 H 0.4008 0.8113 0.0012
H164 H 0.4431 0.7899 -0.0301
C194 C 0.4840(7) 0.7895(6) 0.0215(4)
N58 N 0.5135(5) 0.7701(6) 0.0444(4)
N63 N 0.3596(13) 0.0291(10) 0.1524(9)
C195 C 0.4038(16) 0.0406(10) 0.1395(11)
C196 C 0.4593(14) 0.0621(12) 0.1256(10)
H165 H 0.4854 0.0749 0.1465
H166 H 0.4487 0.0901 0.1084
H167 H 0.4811 0.0356 0.1124
O3 O 0.681(3) 0.3087(13) 0.2101(8)
O4 O 0.525(3) 0.8893(13) 0.0721(14)
B1 B 0.6415(4) 0.3413(4) 0.1045(3)
H1 H 0.6092 0.3209 0.1161
B2 B 1.1396(4) 0.3941(4) 0.2785(3)
H2 H 1.1474 0.3634 0.2946
B3 B 1.1953(4) 0.2995(3) -0.1983(2)
H3 H 1.2191 0.2888 -0.2199
B4 B 1.0672(4) 0.1319(4) 0.0723(2)
H4 H 1.0771 0.0953 0.0770
C1 C 1.1484(3) 0.3307(2) -0.07977(19)
N1 N 1.3238(2) 0.3955(2) -0.03317(14)
H5 H 1.3130 0.4276 -0.0308
C2 C 1.1878(3) 0.4425(2) 0.04073(18)
C3 C 1.0977(3) 0.4015(3) -0.12463(17)
C4 C 0.9567(3) 0.3432(2) 0.20906(18)
C5 C 0.7921(3) 0.3775(2) 0.03095(18)
N2 N 1.5447(3) 0.5156(2) -0.11218(16)
C6 C 1.4173(3) 0.4674(3) -0.05788(18)
H6 H 1.3882 0.4804 -0.0418
C7 C 0.8777(3) 0.4635(3) 0.22313(18)
C8 C 1.0121(4) 0.4819(3) 0.2825(2)
H7 H 0.9901 0.5113 0.2741
C9 C 1.0894(3) 0.2930(2) 0.03620(17)
C10 C 1.3234(3) 0.3141(2) -0.02913(17)
C11 C 0.8089(3) 0.4354(3) 0.09499(18)
C12 C 0.6222(3) 0.3508(2) -0.15770(17)
H8 H 0.6498 0.3725 -0.1695
C13 C 0.4289(3) 0.2605(3) -0.16069(18)
C14 C 0.9667(3) 0.2704(2) 0.02814(18)
C15 C 1.0466(2) 0.4997(3) 0.19559(16)
C16 C 0.9106(3) 0.4174(2) 0.21323(17)
C17 C 0.4355(3) 0.3319(3) -0.20279(18)
C18 C 0.5226(3) 0.3117(2) -0.15806(18)
C19 C 0.9859(3) 0.2927(2) 0.21291(18)
C20 C 0.4344(3) 0.3856(3) -0.19976(19)
H9 H 0.4560 0.4020 -0.1795
C21 C 0.4034(3) 0.3094(3) -0.23320(19)
H10 H 0.4043 0.2735 -0.2361
C22 C 1.1279(3) 0.4970(3) -0.01489(19)
H11 H 1.1067 0.5151 -0.0345
C23 C 1.3750(3) 0.3799(3) -0.05023(17)
C24 C 0.4017(3) 0.4140(3) -0.2264(2)
H12 H 0.4015 0.4501 -0.2243
C25 C 1.4581(3) 0.5007(3) -0.07317(19)
H13 H 1.4558 0.5360 -0.0679
C26 C 1.0624(3) 0.1978(3) -0.01712(19)
H14 H 1.0548 0.2272 -0.0321
C27 C 1.0180(3) 0.2970(3) 0.09260(19)
C28 C 1.3754(3) 0.3272(3) -0.04799(17)
H15 H 1.4048 0.3046 -0.0572
C29 C 0.9522(3) 0.3660(3) -0.05072(18)
H16 H 0.9764 0.3503 -0.0311
C30 C 1.1549(3) 0.2409(3) 0.10562(19)
H17 H 1.1612 0.2766 0.1078
C31 C 1.4627(3) 0.3974(3) -0.08878(18)
H18 H 1.4643 0.3621 -0.0943
C32 C 0.7290(3) 0.4660(3) 0.04031(18)
C33 C 1.0238(3) 0.2821(3) 0.24480(19)
H19 H 1.0270 0.3059 0.2647
C34 C 0.8053(3) 0.1920(3) -0.0076(2)
C35 C 1.5636(3) 0.5050(3) -0.14934(18)
C36 C 1.1657(3) 0.5102(3) 0.19132(17)
C37 C 0.3703(3) 0.3386(3) -0.25921(19)
H20 H 0.3480 0.3225 -0.2794
C38 C 0.9433(3) 0.4261(3) -0.10013(18)
H21 H 0.9599 0.4522 -0.1148
C39 C 1.1483(3) 0.4478(3) -0.02042(18)
H22 H 1.1412 0.4327 -0.0443
C40 C 1.4181(3) 0.4157(3) -0.06550(17)
C41 C 0.7988(3) 0.3523(3) -0.09097(18)
C42 C 1.2042(3) 0.2066(3) -0.1714(2)
H23 H 1.2267 0.1908 -0.1900
C43 C 0.8612(3) 0.3720(3) -0.08589(17)
C44 C 0.6402(3) 0.3273(3) -0.12340(18)
C45 C 1.0453(3) 0.3033(3) -0.11782(18)
C46 C 1.5042(3) 0.4301(3) -0.1036(2)
H24 H 1.5343 0.4169 -0.1190
C47 C 1.2196(3) 0.4098(2) 0.06880(18)
C48 C 0.9251(4) 0.1595(3) -0.0707(2)
C49 C 0.5648(3) 0.3423(2) -0.17404(18)
H25 H 0.5539 0.3582 -0.1972
C50 C 0.3693(3) 0.3913(3) -0.2562(2)
H26 H 0.3468 0.4114 -0.2741
C51 C 0.5977(3) 0.2976(3) -0.10689(19)
H27 H 0.6084 0.2820 -0.0835
C52 C 0.9816(3) 0.2574(3) 0.18462(19)
H28 H 0.9552 0.2638 0.1633
C53 C 1.2435(3) 0.3900(2) -0.12630(19)
H29 H 1.2373 0.4076 -0.1037
C54 C 1.1558(3) 0.2206(3) -0.1209(2)
H30 H 1.1382 0.2160 -0.0976
C55 C 0.7493(3) 0.3658(3) -0.11516(19)
H31 H 0.7482 0.3920 -0.1335
C56 C 0.9268(3) 0.1954(3) 0.0932(2)
H32 H 0.9011 0.2246 0.0926
C57 C 1.2892(3) 0.3581(3) 0.15596(19)
C58 C 1.3255(3) 0.3159(3) 0.16180(19)
H33 H 1.3317 0.2936 0.1415
C59 C 0.8560(3) 0.4713(3) 0.25802(18)
H34 H 0.8627 0.4465 0.2771
C60 C 1.3072(4) 0.3784(3) 0.2217(2)
H35 H 1.3001 0.4000 0.2422
C61 C 1.5399(3) 0.4916(3) -0.2147(2)
H36 H 1.5103 0.4875 -0.2348
C62 C 0.3787(3) 0.2723(3) -0.14053(19)
H37 H 0.3691 0.3069 -0.1359
C63 C 0.7025(3) 0.3336(3) -0.10698(18)
C64 C 0.3560(4) 0.1838(3) -0.1340(2)
H38 H 0.3305 0.1573 -0.1259
C65 C 1.5026(3) 0.4829(3) -0.09621(18)
C66 C 0.9278(3) 0.3740(2) 0.23362(18)
H39 H 0.9209 0.3671 0.2590
C67 C 0.6428(4) 0.4672(4) 0.1529(2)
H40 H 0.6319 0.4925 0.1703
C68 C 1.0564(3) 0.2372(3) 0.24731(19)
H41 H 1.0809 0.2299 0.2693
C69 C 1.0209(4) 0.4140(3) 0.0438(2)
H42 H 0.9924 0.3880 0.0339
H43 H 1.0601 0.3982 0.0511
H44 H 1.0266 0.4398 0.0246
C70 C 1.0468(3) 0.3594(3) -0.20285(19)
H45 H 1.0131 0.3737 -0.1912
C71 C 1.5545(3) 0.5653(3) -0.09794(19)
C72 C 1.2836(3) 0.3634(3) -0.1769(2)
H46 H 1.3104 0.3584 -0.1964
C73 C 1.3265(4) 0.2188(3) -0.0259(2)
H47 H 1.3629 0.2180 -0.0390
C74 C 0.8241(4) 0.5159(3) 0.2650(2)
H48 H 0.8087 0.5222 0.2888
C75 C 1.5215(3) 0.4995(3) -0.1787(2)
H49 H 1.4793 0.5011 -0.1744
C76 C 1.1076(4) 0.3337(3) -0.2451(2)
H50 H 1.1249 0.3266 -0.2682
C77 C 0.8518(3) 0.1857(3) -0.0346(2)
C78 C 1.0880(4) 0.0611(3) -0.2043(2)
H51 H 1.0461 0.0586 -0.1994
C79 C 0.9998(3) 0.1519(3) -0.12067(19)
H52 H 0.9878 0.1846 -0.1299
C80 C 1.1691(4) 0.1590(4) 0.1101(2)
H53 H 1.1860 0.1263 0.1156
C81 C 1.2795(3) 0.3887(3) 0.1867(2)
H54 H 1.2532 0.4174 0.1837
C82 C 1.0702(4) 0.1131(3) 0.2025(2)
C83 C 0.9779(3) 0.4050(3) -0.07094(18)
H55 H 1.0182 0.4166 -0.0648
C84 C 0.9962(3) 0.4380(3) 0.0763(2)
C85 C 1.1279(4) 0.3434(3) 0.1823(2)
H56 H 1.1273 0.3184 0.1632
C86 C 0.8820(4) 0.1425(3) -0.0466(2)
H57 H 0.8745 0.1082 -0.0397
C87 C 1.0535(3) 0.2028(3) 0.21803(19)
C88 C 0.8395(3) 0.5406(3) 0.20225(19)
H58 H 0.8334 0.5649 0.1828
C89 C 1.2991(3) 0.2648(2) -0.01794(18)
C90 C 0.6866(3) 0.4705(3) 0.12713(19)
H59 H 0.7120 0.4992 0.1238
C91 C 1.0115(3) 0.0957(3) 0.2050(2)
H60 H 0.9846 0.1147 0.2194
C92 C 1.0831(4) 0.1514(3) -0.0300(2)
H61 H 1.0935 0.1432 -0.0546
C93 C 1.1389(3) 0.5195(3) 0.0200(2)
H62 H 1.1259 0.5534 0.0244
C94 C 1.0461(4) 0.1262(3) -0.1368(2)
H63 H 1.0657 0.1412 -0.1570
C95 C 1.1694(3) 0.4918(3) 0.0483(2)
H64 H 1.1774 0.5062 0.0723
C96 C 0.8156(3) 0.5507(3) 0.2362(2)
H65 H 0.7935 0.5812 0.2398
C97 C 1.1865(3) 0.1838(3) -0.1394(2)
H66 H 1.1939 0.1496 -0.1316
C98 C 1.2464(4) 0.1764(3) 0.0039(2)
H67 H 1.2272 0.1461 0.0116
C99 C 1.6257(3) 0.5028(3) -0.1554(2)
H68 H 1.6552 0.5062 -0.1352
C100 C 1.2945(3) 0.3947(3) -0.1465(2)
H69 H 1.3294 0.4151 -0.1408
C101 C 0.4079(4) 0.1724(3) -0.1532(3)
H70 H 0.4188 0.1379 -0.1571
C102 C 0.9966(4) 0.4502(3) 0.3120(2)
H71 H 0.9628 0.4537 0.3271
C103 C 0.7759(4) 0.1514(3) 0.0085(2)
H72 H 0.7855 0.1174 0.0020
C104 C 1.0151(3) 0.2125(3) 0.18665(19)
H73 H 1.0118 0.1886 0.1668
C105 C 1.2336(3) 0.4168(3) 0.10699(18)
H74 H 1.2245 0.4456 0.1217
C106 C 0.9116(4) 0.1492(3) 0.1071(2)
H75 H 0.8750 0.1401 0.1183
C107 C 1.5502(3) 0.6071(3) -0.1207(2)
H76 H 1.5417 0.6024 -0.1467
C108 C 0.9702(4) 0.1306(3) -0.09084(19)
C109 C 1.0406(4) 0.4131(4) 0.3145(2)
H77 H 1.0428 0.3862 0.3322
C110 C 1.2212(3) 0.2240(3) 0.01075(19)
H78 H 1.1846 0.2256 0.0235
C111 C 1.1094(4) 0.0849(3) 0.1803(2)
H79 H 1.1501 0.0960 0.1775
C112 C 1.1872(4) 0.2018(3) 0.2152(3)
H80 H 1.1685 0.2241 0.1972
C113 C 1.2635(3) 0.3729(3) 0.11881(18)
C114 C 1.2438(4) 0.1363(3) 0.2657(2)
H81 H 1.2632 0.1141 0.2835
C115 C 0.9612(4) 0.1182(3) 0.1013(2)
H82 H 0.9643 0.0831 0.1075
C116 C 1.3531(4) 0.3050(3) 0.1963(2)
H83 H 1.3779 0.2756 0.1997
C117 C 0.5398(3) 0.2896(3) -0.12346(19)
H84 H 0.5115 0.2690 -0.1112
C118 C 0.3425(3) 0.2338(3) -0.1271(2)
H85 H 0.3085 0.2421 -0.1132
C119 C 1.2355(4) 0.5058(3) 0.2726(2)
H86 H 1.2438 0.5383 0.2625
C120 C 1.1531(3) 0.1639(3) 0.2310(2)
C121 C 0.4434(4) 0.2108(3) -0.1666(2)
H87 H 0.4781 0.2026 -0.1800
C122 C 0.6480(3) 0.3715(3) 0.0064(2)
H88 H 0.6672 0.3874 -0.0136
C123 C 1.6016(3) 0.4899(3) -0.2211(2)
H89 H 1.6147 0.4850 -0.2456
C124 C 0.8852(3) 0.4095(3) -0.10785(18)
H90 H 0.8613 0.4236 -0.1282
C125 C 0.6184(4) 0.4197(4) 0.1481(2)
H91 H 0.5875 0.4056 0.1623
C126 C 0.9906(4) 0.0529(3) 0.1879(2)
H92 H 0.9496 0.0424 0.1905
C127 C 1.0322(4) 0.0563(3) -0.0949(2)
H93 H 1.0426 0.0230 -0.0864
C128 C 1.0278(4) 0.0243(3) 0.1669(2)
H94 H 1.0134 -0.0062 0.1553
C129 C 0.8035(4) 0.3144(4) 0.1084(2)
H95 H 0.8440 0.3222 0.1024
C130 C 1.3002(4) 0.1742(3) -0.0146(2)
H96 H 1.3187 0.1423 -0.0193
C131 C 1.1309(4) 0.0587(3) -0.1752(2)
C132 C 1.0878(4) 0.0412(3) 0.1628(2)
H97 H 1.1138 0.0222 0.1478
C133 C 1.0644(4) 0.0783(3) -0.1237(2)
C134 C 1.6438(4) 0.4954(3) -0.1912(2)
H98 H 1.6860 0.4941 -0.1954
C135 C 1.5578(4) 0.6554(3) -0.1071(2)
H99 H 1.5539 0.6838 -0.1234
C136 C 1.0855(4) 0.1201(3) 0.0003(2)
H100 H 1.0975 0.0854 0.0003
C137 C 0.7326(4) 0.1611(3) 0.0340(3)
H101 H 0.7122 0.1338 0.0452
C138 C 1.1043(5) 0.0672(3) -0.2408(3)
H102 H 1.0735 0.0682 -0.2604
C139 C 1.1155(3) 0.3938(3) 0.1780(2)
H103 H 1.1046 0.4101 0.1549
C140 C 1.5691(4) 0.5724(3) -0.0607(2)
H104 H 1.5742 0.5439 -0.0445
C141 C 1.5710(4) 0.6624(3) -0.0696(3)
H105 H 1.5763 0.6957 -0.0598
C142 C 1.0527(4) 0.3569(3) -0.2411(2)
H106 H 1.0246 0.3688 -0.2603
C143 C 1.3443(4) 0.3377(4) 0.2264(2)
C144 C 1.1952(4) 0.2042(4) 0.1193(2)
H107 H 1.2334 0.2096 0.1325
C145 C 1.1828(4) 0.1302(3) 0.2557(2)
H108 H 1.1609 0.1028 0.2657
C146 C 1.1749(5) 0.0512(4) -0.0784(3)
H109 H 1.1612 0.0847 -0.0735
C147 C 0.9859(4) 0.0822(3) -0.0789(2)
H110 H 0.9647 0.0667 -0.0595
C148 C 1.5764(4) 0.6215(4) -0.0469(2)
H111 H 1.5853 0.6264 -0.0210
C149 C 0.5833(4) 0.3278(4) 0.0390(3)
H112 H 0.5499 0.3078 0.0460
C150 C 0.7498(3) 0.2492(3) 0.0253(2)
H113 H 0.7399 0.2834 0.0307
C151 C 1.2480(5) 0.2069(4) 0.2255(4)
H114 H 1.2706 0.2339 0.2154
C152 C 1.2413(4) 0.4359(4) 0.3070(3)
H115 H 1.2534 0.4108 0.3249
C153 C 0.7193(4) 0.2108(3) 0.0430(3)
H116 H 0.6901 0.2184 0.0607
C154 C 1.1633(6) 0.0718(4) -0.2488(3)
H117 H 1.1743 0.0761 -0.2738
C155 C 1.1923(4) 0.0631(3) -0.1828(3)
H118 H 1.2233 0.0615 -0.1633
C156 C 0.5937(4) 0.3439(4) 0.0031(3)
H119 H 0.5691 0.3375 -0.0190
C157 C 0.7264(5) 0.2766(4) 0.1308(3)
H120 H 0.7021 0.2532 0.1436
C158 C 1.1414(4) 0.3356(3) 0.2191(3)
H121 H 1.1529 0.3041 0.2304
C159 C 1.1551(4) 0.0269(3) -0.1107(3)
C160 C 1.2335(6) -0.0222(4) -0.0597(4)
H122 H 1.2597 -0.0394 -0.0419
C161 C 1.1743(5) -0.0206(4) -0.1181(3)
H123 H 1.1611 -0.0369 -0.1408
C162 C 1.2143(5) -0.0458(4) -0.0920(3)
H124 H 1.2277 -0.0794 -0.0970
C163 C 0.7867(5) 0.2737(4) 0.1296(3)
H125 H 0.8127 0.2487 0.1411
C164 C 1.2765(4) 0.1740(4) 0.2501(3)
H126 H 1.3189 0.1774 0.2563
C165 C 1.2143(6) 0.0274(4) -0.0530(3)
H127 H 1.2286 0.0446 -0.0310
C166 C 1.2731(4) 0.4804(4) 0.2997(3)
H128 H 1.3114 0.4911 0.3106
C167 C 1.2069(5) 0.0702(4) -0.2199(3)
H129 H 1.2485 0.0739 -0.2252
C168 C 1.43952(17) 0.31633(14) 0.26215(10)
C169 C 1.46638(18) 0.28720(15) 0.29090(11)
H130 H 1.4425 0.2749 0.3102
C170 C 1.52821(19) 0.2760(2) 0.29143(14)
H131 H 1.5466 0.2561 0.3111
C171 C 1.56319(18) 0.2939(2) 0.26320(15)
H132 H 1.6054 0.2863 0.2636
C172 C 1.5363(2) 0.3231(2) 0.23444(15)
H133 H 1.5602 0.3353 0.2151
C173 C 1.4745(2) 0.3343(2) 0.23392(12)
H134 H 1.4561 0.3542 0.2143
C174 C 1.35423(19) 0.33545(16) 0.29551(12)
C175 C 1.30765(19) 0.3032(2) 0.30524(16)
H135 H 1.2919 0.2784 0.2880
C176 C 1.2841(2) 0.3071(3) 0.34019(17)
H136 H 1.2522 0.2850 0.3468
C177 C 1.3071(3) 0.3434(3) 0.36542(15)
H137 H 1.2910 0.3461 0.3893
C178 C 1.3537(3) 0.3757(3) 0.35569(16)
H138 H 1.3694 0.4004 0.3729
C179 C 1.3772(2) 0.37170(19) 0.32074(15)
H139 H 1.4091 0.3938 0.3141
C192 C 1.1042(3) 0.55554(18) 0.24426(17)
Co1 Co 0.84824(4) 0.29628(3) -0.02522(2)
Co2 Co 0.92092(4) 0.48145(3) 0.14627(2)
Co3 Co 1.20809(4) 0.34314(3) 0.00330(2)
Fe1 Fe 0.74100(4) 0.40369(4) 0.06822(3)
Fe2 Fe 1.12240(4) 0.33246(3) -0.13150(2)
Fe3 Fe 1.11482(5) 0.48843(4) 0.22829(3)
Fe4 Fe 1.03553(4) 0.24494(4) 0.05787(2)
N3 N 1.0013(2) 0.5039(2) 0.17590(13)
N4 N 0.8473(3) 0.4543(2) 0.11308(15)
N5 N 0.8707(2) 0.4985(2) 0.19536(14)
N6 N 0.9269(2) 0.41353(19) 0.17789(14)
N7 N 0.9758(2) 0.4562(2) 0.10180(16)
N8 N 0.9235(3) 0.2844(2) 0.01150(15)
N9 N 0.7926(2) 0.2406(2) 0.00081(15)
N10 N 0.8744(2) 0.2276(2) -0.05022(15)
N11 N 0.7834(2) 0.3145(2) -0.06846(16)
N12 N 0.8952(2) 0.3497(2) -0.05772(14)
N13 N 1.1266(2) 0.3179(2) 0.02504(15)
N14 N 1.1672(2) 0.3327(2) -0.04931(15)
N15 N 1.2467(2) 0.2672(2) 0.00014(14)
N16 N 1.2921(2) 0.3556(2) -0.02050(14)
N17 N 1.1777(2) 0.4206(2) 0.00676(14)
N18 N 1.2398(2) 0.3644(2) 0.05745(14)
N19 N 0.4652(2) 0.3010(2) -0.17510(15)
N20 N 0.7248(2) 0.3038(2) -0.07846(15)
H158 H 0.7033 0.2802 -0.0677
N21 N 0.9183(3) 0.2107(2) -0.07203(15)
H159 H 0.9401 0.2308 -0.0856
N22 N 1.1138(3) 0.0520(2) -0.13779(18)
N23 N 0.9546(2) 0.3683(2) 0.17589(14)
H160 H 0.9697 0.3562 0.1555
N24 N 1.0900(3) 0.1578(2) 0.22026(16)
N25 N 1.2660(2) 0.3429(2) 0.08845(14)
H161 H 1.2829 0.3126 0.0888
N26 N 0.6688(2) 0.3723(2) 0.04196(16)
N27 N 0.6293(3) 0.3457(2) 0.06239(18)
N28 N 0.7539(3) 0.3413(2) 0.09752(17)
N29 N 0.7046(3) 0.3173(3) 0.11142(19)
N30 N 0.6884(2) 0.4275(2) 0.10747(16)
N31 N 0.6448(3) 0.3959(3) 0.11992(17)
N32 N 1.1211(3) 0.4176(2) 0.21177(17)
N33 N 1.1356(3) 0.3807(2) 0.23704(18)
N34 N 1.1867(3) 0.4776(2) 0.26323(17)
N35 N 1.1908(3) 0.4346(2) 0.28442(18)
N36 N 1.0633(3) 0.4640(2) 0.26797(17)
N37 N 1.0807(3) 0.4210(2) 0.28729(17)
N38 N 1.0957(2) 0.3387(2) -0.18472(15)
N39 N 1.1332(3) 0.3224(2) -0.21140(15)
N40 N 1.1543(2) 0.2642(2) -0.14043(14)
N41 N 1.1846(3) 0.2547(2) -0.17212(15)
N42 N 1.2038(2) 0.3573(2) -0.14274(14)
N43 N 1.2293(2) 0.3412(2) -0.17450(15)
N44 N 1.0548(3) 0.1948(2) 0.01957(15)
N45 N 1.0684(3) 0.1459(2) 0.03000(16)
N46 N 0.9838(3) 0.1941(2) 0.08040(15)
N47 N 1.0049(3) 0.1462(2) 0.08528(16)
N48 N 1.1062(2) 0.2191(2) 0.08886(15)
N49 N 1.1151(3) 0.1680(2) 0.09193(16)
N50 N 0.8181(2) 0.3562(2) 0.00879(16)
N51 N 0.7196(3) 0.5038(2) 0.02527(17)
N52 N 0.9111(2) 0.5552(2) 0.12433(14)
N53 N 1.2000(2) 0.5216(2) 0.16817(14)
N54 N 1.0029(3) 0.2825(2) -0.10818(16)
N55 N 1.0069(3) 0.3300(3) 0.11179(17)
N56 N 1.37417(18) 0.32254(19) 0.25913(11)
N65 N 1.0968(3) 0.59770(19) 0.2555(2)
B1B B 1.3585(4) 0.6587(4) -0.1045(3)
H1B H 1.3908 0.6791 -0.1161
B2B B 0.8604(4) 0.6059(4) -0.2785(3)
H2B H 0.8526 0.6366 -0.2946
B3B B 0.8047(4) 0.7005(3) 0.1983(2)
H3B H 0.7809 0.7112 0.2199
B4B B 0.9328(4) 0.8681(4) -0.0723(2)
H4B H 0.9229 0.9047 -0.0770
C1B C 0.8516(3) 0.6693(2) 0.07977(19)
N1B N 0.6762(2) 0.6045(2) 0.03317(14)
H5B H 0.6870 0.5724 0.0308
C2B C 0.8122(3) 0.5575(2) -0.04073(18)
C3B C 0.9023(3) 0.5985(3) 0.12463(17)
C4B C 1.0433(3) 0.6568(2) -0.20906(18)
C5B C 1.2079(3) 0.6225(2) -0.03095(18)
N2B N 0.4553(3) 0.4844(2) 0.11218(16)
C6B C 0.5827(3) 0.5326(3) 0.05788(18)
H6B H 0.6118 0.5196 0.0418
C7B C 1.1223(3) 0.5365(3) -0.22313(18)
C8B C 0.9879(4) 0.5181(3) -0.2825(2)
H7B H 1.0099 0.4887 -0.2741
C9B C 0.9106(3) 0.7070(2) -0.03620(17)
C10B C 0.6766(3) 0.6859(2) 0.02913(17)
C11B C 1.1911(3) 0.5646(3) -0.09499(18)
C12B C 1.3778(3) 0.6492(2) 0.15770(17)
H8B H 1.3502 0.6275 0.1695
C13B C 1.5711(3) 0.7395(3) 0.16069(18)
C14B C 1.0333(3) 0.7296(2) -0.02814(18)
C15B C 0.9534(2) 0.5003(3) -0.19559(16)
C16B C 1.0894(3) 0.5826(2) -0.21323(17)
C17B C 1.5645(3) 0.6681(3) 0.20279(18)
C18B C 1.4774(3) 0.6883(2) 0.15806(18)
C19B C 1.0141(3) 0.7073(2) -0.21291(18)
C20B C 1.5656(3) 0.6144(3) 0.19976(19)
H9B H 1.5440 0.5980 0.1795
C21B C 1.5966(3) 0.6906(3) 0.23320(19)
H10B H 1.5957 0.7265 0.2361
C22B C 0.8721(3) 0.5030(3) 0.01489(19)
H11B H 0.8933 0.4849 0.0345
C23B C 0.6250(3) 0.6201(3) 0.05023(17)
C24B C 1.5983(3) 0.5860(3) 0.2264(2)
H12B H 1.5985 0.5499 0.2243
C25B C 0.5419(3) 0.4993(3) 0.07317(19)
H13B H 0.5442 0.4640 0.0679
C26B C 0.9376(3) 0.8022(3) 0.01712(19)
H14B H 0.9452 0.7728 0.0321
C27B C 0.9820(3) 0.7030(3) -0.09260(19)
C28B C 0.6246(3) 0.6728(3) 0.04799(17)
H15B H 0.5952 0.6954 0.0572
C29B C 1.0478(3) 0.6340(3) 0.05072(18)
H16B H 1.0236 0.6497 0.0311
C30B C 0.8451(3) 0.7591(3) -0.10562(19)
H17B H 0.8388 0.7234 -0.1078
C31B C 0.5373(3) 0.6026(3) 0.08878(18)
H18B H 0.5357 0.6379 0.0943
C32B C 1.2710(3) 0.5340(3) -0.04031(18)
C33B C 0.9762(3) 0.7179(3) -0.24480(19)
H19B H 0.9730 0.6941 -0.2647
C34B C 1.1947(3) 0.8080(3) 0.0076(2)
C35B C 0.4364(3) 0.4950(3) 0.14934(18)
C36B C 0.8343(3) 0.4898(3) -0.19132(17)
C37B C 1.6297(3) 0.6614(3) 0.25921(19)
H20B H 1.6520 0.6775 0.2794
C38B C 1.0567(3) 0.5739(3) 0.10013(18)
H21B H 1.0401 0.5478 0.1148
C39B C 0.8517(3) 0.5522(3) 0.02042(18)
H22B H 0.8588 0.5673 0.0443
C40B C 0.5819(3) 0.5843(3) 0.06550(17)
C41B C 1.2012(3) 0.6477(3) 0.09097(18)
C42B C 0.7958(3) 0.7934(3) 0.1714(2)
H23B H 0.7733 0.8092 0.1900
C43B C 1.1388(3) 0.6280(3) 0.08589(17)
C44B C 1.3598(3) 0.6727(3) 0.12340(18)
C45B C 0.9547(3) 0.6967(3) 0.11782(18)
C46B C 0.4958(3) 0.5699(3) 0.1036(2)
H24B H 0.4657 0.5831 0.1190
C47B C 0.7804(3) 0.5902(2) -0.06880(18)
C48B C 1.0749(4) 0.8405(3) 0.0707(2)
C49B C 1.4352(3) 0.6577(2) 0.17404(18)
H25B H 1.4461 0.6418 0.1972
C50B C 1.6307(3) 0.6087(3) 0.2562(2)
H26B H 1.6532 0.5886 0.2741
C51B C 1.4023(3) 0.7024(3) 0.10689(19)
H27B H 1.3916 0.7180 0.0835
C52B C 1.0184(3) 0.7426(3) -0.18462(19)
H28B H 1.0448 0.7362 -0.1633
C53B C 0.7565(3) 0.6100(2) 0.12630(19)
H29B H 0.7627 0.5924 0.1037
C54B C 0.8442(3) 0.7794(3) 0.1209(2)
H30B H 0.8618 0.7840 0.0976
C55B C 1.2507(3) 0.6342(3) 0.11516(19)
H31B H 1.2518 0.6080 0.1335
C56B C 1.0732(3) 0.8046(3) -0.0932(2)
H32B H 1.0989 0.7754 -0.0926
C57B C 0.7108(3) 0.6419(3) -0.15596(19)
C58B C 0.6745(3) 0.6841(3) -0.16180(19)
H33B H 0.6683 0.7064 -0.1415
C59B C 1.1440(3) 0.5287(3) -0.25802(18)
H34B H 1.1373 0.5535 -0.2771
C60B C 0.6928(4) 0.6216(3) -0.2217(2)
H35B H 0.6999 0.6000 -0.2422
C61B C 0.4601(3) 0.5084(3) 0.2147(2)
H36B H 0.4897 0.5125 0.2348
C62B C 1.6213(3) 0.7277(3) 0.14053(19)
H37B H 1.6309 0.6931 0.1359
C63B C 1.2975(3) 0.6664(3) 0.10698(18)
C64B C 1.6440(4) 0.8162(3) 0.1340(2)
H38B H 1.6695 0.8427 0.1259
C65B C 0.4974(3) 0.5171(3) 0.09621(18)
C66B C 1.0722(3) 0.6260(2) -0.23362(18)
H39B H 1.0791 0.6329 -0.2590
C67B C 1.3572(4) 0.5328(4) -0.1529(2)
H40B H 1.3681 0.5075 -0.1703
C68B C 0.9436(3) 0.7628(3) -0.24731(19)
H41B H 0.9191 0.7701 -0.2693
C69B C 0.9791(4) 0.5860(3) -0.0438(2)
H42B H 1.0076 0.6120 -0.0339
H43B H 0.9399 0.6018 -0.0511
H44B H 0.9734 0.5602 -0.0246
C70B C 0.9532(3) 0.6406(3) 0.20285(19)
H45B H 0.9869 0.6263 0.1912
C71B C 0.4455(3) 0.4347(3) 0.09794(19)
C72B C 0.7164(3) 0.6366(3) 0.1769(2)
H46B H 0.6896 0.6416 0.1964
C73B C 0.6735(4) 0.7812(3) 0.0259(2)
H47B H 0.6371 0.7820 0.0390
C74B C 1.1759(4) 0.4841(3) -0.2650(2)
H48B H 1.1913 0.4778 -0.2888
C75B C 0.4785(3) 0.5005(3) 0.1787(2)
H49B H 0.5207 0.4989 0.1744
C76B C 0.8924(4) 0.6663(3) 0.2451(2)
H50B H 0.8751 0.6734 0.2682
C77B C 1.1482(3) 0.8143(3) 0.0346(2)
C78B C 0.9120(4) 0.9389(3) 0.2043(2)
H51B H 0.9539 0.9414 0.1994
C79B C 1.0002(3) 0.8481(3) 0.12067(19)
H52B H 1.0122 0.8154 0.1299
C80B C 0.8309(4) 0.8410(4) -0.1101(2)
H53B H 0.8140 0.8737 -0.1156
C81B C 0.7205(3) 0.6113(3) -0.1867(2)
H54B H 0.7468 0.5826 -0.1837
C82B C 0.9298(4) 0.8869(3) -0.2025(2)
C83B C 1.0221(3) 0.5950(3) 0.07094(18)
H55B H 0.9818 0.5834 0.0648
C84B C 1.0038(3) 0.5620(3) -0.0763(2)
C85B C 0.8721(4) 0.6566(3) -0.1823(2)
H56B H 0.8727 0.6816 -0.1632
C86B C 1.1180(4) 0.8575(3) 0.0466(2)
H57B H 1.1255 0.8918 0.0397
C87B C 0.9465(3) 0.7972(3) -0.21803(19)
C88B C 1.1605(3) 0.4594(3) -0.20225(19)
H58B H 1.1666 0.4351 -0.1828
C89B C 0.7009(3) 0.7352(2) 0.01794(18)
C90B C 1.3134(3) 0.5295(3) -0.12713(19)
H59B H 1.2880 0.5008 -0.1238
C91B C 0.9885(3) 0.9043(3) -0.2050(2)
H60B H 1.0154 0.8853 -0.2194
C92B C 0.9169(4) 0.8486(3) 0.0300(2)
H61B H 0.9065 0.8568 0.0546
C93B C 0.8611(3) 0.4805(3) -0.0200(2)
H62B H 0.8741 0.4466 -0.0244
C94B C 0.9539(4) 0.8738(3) 0.1368(2)
H63B H 0.9343 0.8588 0.1570
C95B C 0.8306(3) 0.5082(3) -0.0483(2)
H64B H 0.8226 0.4938 -0.0723
C96B C 1.1844(3) 0.4493(3) -0.2362(2)
H65B H 1.2065 0.4188 -0.2398
C97B C 0.8135(3) 0.8162(3) 0.1394(2)
H66B H 0.8061 0.8504 0.1316
C98B C 0.7536(4) 0.8236(3) -0.0039(2)
H67B H 0.7728 0.8539 -0.0116
C99B C 0.3743(3) 0.4972(3) 0.1554(2)
H68B H 0.3448 0.4938 0.1352
C100B C 0.7055(3) 0.6053(3) 0.1465(2)
H69B H 0.6706 0.5849 0.1408
C101B C 1.5921(4) 0.8276(3) 0.1532(3)
H70B H 1.5812 0.8621 0.1571
C102B C 1.0034(4) 0.5498(3) -0.3120(2)
H71B H 1.0372 0.5463 -0.3271
C103B C 1.2241(4) 0.8486(3) -0.0085(2)
H72B H 1.2145 0.8826 -0.0020
C104B C 0.9849(3) 0.7875(3) -0.18665(19)
H73B H 0.9882 0.8114 -0.1668
C105B C 0.7664(3) 0.5832(3) -0.10699(18)
H74B H 0.7755 0.5544 -0.1217
C106B C 1.0884(4) 0.8508(3) -0.1071(2)
H75B H 1.1250 0.8599 -0.1183
C107B C 0.4498(3) 0.3929(3) 0.1207(2)
H76B H 0.4583 0.3976 0.1467
C108B C 1.0298(4) 0.8694(3) 0.09084(19)
C109B C 0.9594(4) 0.5869(4) -0.3145(2)
H77B H 0.9572 0.6138 -0.3322
C110B C 0.7788(3) 0.7760(3) -0.01075(19)
H78B H 0.8154 0.7744 -0.0235
C111B C 0.8906(4) 0.9151(3) -0.1803(2)
H79B H 0.8499 0.9040 -0.1775
C112B C 0.8128(4) 0.7982(3) -0.2152(3)
H80B H 0.8315 0.7759 -0.1972
C113B C 0.7365(3) 0.6271(3) -0.11881(18)
C114B C 0.7562(4) 0.8637(3) -0.2657(2)
H81B H 0.7368 0.8859 -0.2835
C115B C 1.0388(4) 0.8818(3) -0.1013(2)
H82B H 1.0357 0.9169 -0.1075
C116B C 0.6469(4) 0.6950(3) -0.1963(2)
H83B H 0.6221 0.7244 -0.1997
C117B C 1.4602(3) 0.7104(3) 0.12346(19)
H84B H 1.4885 0.7310 0.1112
C118B C 1.6575(3) 0.7662(3) 0.1271(2)
H85B H 1.6915 0.7579 0.1132
C119B C 0.7645(4) 0.4942(3) -0.2726(2)
H86B H 0.7562 0.4617 -0.2625
C120B C 0.8469(3) 0.8361(3) -0.2310(2)
C121B C 1.5566(4) 0.7892(3) 0.1666(2)
H87B H 1.5219 0.7974 0.1800
C122B C 1.3520(3) 0.6285(3) -0.0064(2)
H88B H 1.3328 0.6126 0.0136
C123B C 0.3984(3) 0.5101(3) 0.2211(2)
H89B H 0.3853 0.5150 0.2456
C124B C 1.1148(3) 0.5905(3) 0.10785(18)
H90B H 1.1387 0.5764 0.1282
C125B C 1.3816(4) 0.5803(4) -0.1481(2)
H91B H 1.4125 0.5944 -0.1623
C126B C 1.0094(4) 0.9471(3) -0.1879(2)
H92B H 1.0504 0.9576 -0.1905
C127B C 0.9678(4) 0.9437(3) 0.0949(2)
H93B H 0.9574 0.9770 0.0864
C128B C 0.9722(4) 0.9757(3) -0.1669(2)
H94B H 0.9866 1.0062 -0.1553
C129B C 1.1965(4) 0.6856(4) -0.1084(2)
H95B H 1.1560 0.6778 -0.1024
C130B C 0.6998(4) 0.8258(3) 0.0146(2)
H96B H 0.6813 0.8577 0.0193
C131B C 0.8691(4) 0.9413(3) 0.1752(2)
C132B C 0.9122(4) 0.9588(3) -0.1628(2)
H97B H 0.8862 0.9778 -0.1478
C133B C 0.9356(4) 0.9217(3) 0.1237(2)
C134B C 0.3562(4) 0.5046(3) 0.1912(2)
H98B H 0.3140 0.5059 0.1954
C135B C 0.4422(4) 0.3446(3) 0.1071(2)
H99B H 0.4461 0.3162 0.1234
C136B C 0.9145(4) 0.8799(3) -0.0003(2)
H100B H 0.9025 0.9146 -0.0003
C137B C 1.2674(4) 0.8389(3) -0.0340(3)
H101B H 1.2878 0.8662 -0.0452
C138B C 0.8957(5) 0.9328(3) 0.2408(3)
H102B H 0.9265 0.9318 0.2604
C139B C 0.8845(3) 0.6062(3) -0.1780(2)
H103B H 0.8954 0.5899 -0.1549
C140B C 0.4309(4) 0.4276(3) 0.0607(2)
H104B H 0.4258 0.4561 0.0445
C141B C 0.4290(4) 0.3376(3) 0.0696(3)
H105B H 0.4237 0.3043 0.0598
C142B C 0.9473(4) 0.6431(3) 0.2411(2)
H106B H 0.9754 0.6312 0.2603
C143B C 0.6557(4) 0.6623(4) -0.2264(2)
C144B C 0.8048(4) 0.7958(4) -0.1193(2)
H107B H 0.7666 0.7904 -0.1325
C145B C 0.8172(4) 0.8698(3) -0.2557(2)
H108B H 0.8391 0.8972 -0.2657
C146B C 0.8251(5) 0.9488(4) 0.0784(3)
H109B H 0.8388 0.9153 0.0735
C147B C 1.0141(4) 0.9178(3) 0.0789(2)
H110B H 1.0353 0.9333 0.0595
C148B C 0.4236(4) 0.3785(4) 0.0469(2)
H111B H 0.4147 0.3736 0.0210
C149B C 1.4167(4) 0.6722(4) -0.0390(3)
H112B H 1.4501 0.6922 -0.0460
C150B C 1.2502(3) 0.7508(3) -0.0253(2)
H113B H 1.2601 0.7166 -0.0307
C151B C 0.7520(5) 0.7931(4) -0.2255(4)
H114B H 0.7294 0.7661 -0.2154
C152B C 0.7587(4) 0.5641(4) -0.3070(3)
H115B H 0.7466 0.5892 -0.3249
C153B C 1.2807(4) 0.7892(3) -0.0430(3)
H116B H 1.3099 0.7816 -0.0607
C154B C 0.8367(6) 0.9282(4) 0.2488(3)
H117B H 0.8257 0.9239 0.2738
C155B C 0.8077(4) 0.9369(3) 0.1828(3)
H118B H 0.7767 0.9385 0.1633
C156B C 1.4063(4) 0.6561(4) -0.0031(3)
H119B H 1.4309 0.6625 0.0190
C157B C 1.2736(5) 0.7234(4) -0.1308(3)
H120B H 1.2979 0.7468 -0.1436
C158B C 0.8586(4) 0.6644(3) -0.2191(3)
H121B H 0.8471 0.6959 -0.2304
C159B C 0.8449(4) 0.9731(3) 0.1107(3)
C160B C 0.7665(6) 1.0222(4) 0.0597(4)
H122B H 0.7403 1.0394 0.0419
C161B C 0.8257(5) 1.0206(4) 0.1181(3)
H123B H 0.8389 1.0369 0.1408
C162B C 0.7857(5) 1.0458(4) 0.0920(3)
H124B H 0.7723 1.0794 0.0970
C163B C 1.2133(5) 0.7263(4) -0.1296(3)
H125B H 1.1873 0.7513 -0.1411
C164B C 0.7235(4) 0.8260(4) -0.2501(3)
H126B H 0.6811 0.8226 -0.2563
C165B C 0.7857(6) 0.9726(4) 0.0530(3)
H127B H 0.7714 0.9554 0.0310
C166B C 0.7269(4) 0.5196(4) -0.2997(3)
H128B H 0.6886 0.5089 -0.3106
C167B C 0.7931(5) 0.9298(4) 0.2199(3)
H129B H 0.7515 0.9261 0.2252
C168B C 0.56048(17) 0.68367(14) -0.26215(10)
C169B C 0.53362(18) 0.71280(15) -0.29090(11)
H130B H 0.5575 0.7251 -0.3102
C170B C 0.47179(19) 0.7240(2) -0.29143(14)
H131B H 0.4534 0.7439 -0.3111
C171B C 0.43681(18) 0.7061(2) -0.26320(15)
H132B H 0.3946 0.7137 -0.2636
C172B C 0.4637(2) 0.6769(2) -0.23444(15)
H133B H 0.4398 0.6647 -0.2151
C173B C 0.5255(2) 0.6657(2) -0.23392(12)
H134B H 0.5439 0.6458 -0.2143
C174B C 0.64577(19) 0.66455(16) -0.29551(12)
C175B C 0.69235(19) 0.6968(2) -0.30524(16)
H135B H 0.7081 0.7216 -0.2880
C176B C 0.7159(2) 0.6929(3) -0.34019(17)
H136B H 0.7478 0.7150 -0.3468
C177B C 0.6929(3) 0.6566(3) -0.36542(15)
H137B H 0.7090 0.6539 -0.3893
C178B C 0.6463(3) 0.6243(3) -0.35569(16)
H138B H 0.6306 0.5996 -0.3729
C179B C 0.6228(2) 0.62830(19) -0.32074(15)
H139B H 0.5909 0.6062 -0.3141
C192B C 0.8958(3) 0.44446(18) -0.24426(17)
Co1B Co 1.15176(4) 0.70372(3) 0.02522(2)
Co2B Co 1.07908(4) 0.51855(3) -0.14627(2)
Co3B Co 0.79191(4) 0.65686(3) -0.00330(2)
Fe1B Fe 1.25900(4) 0.59631(4) -0.06822(3)
Fe2B Fe 0.87760(4) 0.66754(3) 0.13150(2)
Fe3B Fe 0.88518(5) 0.51157(4) -0.22829(3)
Fe4B Fe 0.96447(4) 0.75506(4) -0.05787(2)
N3B N 0.9987(2) 0.4961(2) -0.17590(13)
N4B N 1.1527(3) 0.5457(2) -0.11308(15)
N5B N 1.1293(2) 0.5015(2) -0.19536(14)
N6B N 1.0731(2) 0.58647(19) -0.17789(14)
N7B N 1.0242(2) 0.5438(2) -0.10180(16)
N8B N 1.0765(3) 0.7156(2) -0.01150(15)
N9B N 1.2074(2) 0.7594(2) -0.00081(15)
N10B N 1.1256(2) 0.7724(2) 0.05022(15)
N11B N 1.2166(2) 0.6855(2) 0.06846(16)
N12B N 1.1048(2) 0.6503(2) 0.05772(14)
N13B N 0.8734(2) 0.6821(2) -0.02504(15)
N14B N 0.8328(2) 0.6673(2) 0.04931(15)
N15B N 0.7533(2) 0.7328(2) -0.00014(14)
N16B N 0.7079(2) 0.6444(2) 0.02050(14)
N17B N 0.8223(2) 0.5794(2) -0.00676(14)
N18B N 0.7602(2) 0.6356(2) -0.05745(14)
N19B N 1.5348(2) 0.6990(2) 0.17510(15)
N20B N 1.2752(2) 0.6962(2) 0.07846(15)
H158B H 1.2967 0.7198 0.0677
N21B N 1.0817(3) 0.7893(2) 0.07203(15)
H159B H 1.0599 0.7692 0.0856
N22B N 0.8862(3) 0.9480(2) 0.13779(18)
N23B N 1.0454(2) 0.6317(2) -0.17589(14)
H160B H 1.0303 0.6438 -0.1555
N24B N 0.9100(3) 0.8422(2) -0.22026(16)
N25B N 0.7340(2) 0.6571(2) -0.08845(14)
H161B H 0.7171 0.6874 -0.0888
N26B N 1.3312(2) 0.6277(2) -0.04196(16)
N27B N 1.3707(3) 0.6543(2) -0.06239(18)
N28B N 1.2461(3) 0.6587(2) -0.09752(17)
N29B N 1.2954(3) 0.6827(3) -0.11142(19)
N30B N 1.3116(2) 0.5725(2) -0.10747(16)
N31B N 1.3552(3) 0.6041(3) -0.11992(17)
N32B N 0.8789(3) 0.5824(2) -0.21177(17)
N33B N 0.8644(3) 0.6193(2) -0.23704(18)
N34B N 0.8133(3) 0.5224(2) -0.26323(17)
N35B N 0.8092(3) 0.5654(2) -0.28442(18)
N36B N 0.9367(3) 0.5360(2) -0.26797(17)
N37B N 0.9193(3) 0.5790(2) -0.28729(17)
N38B N 0.9043(2) 0.6613(2) 0.18472(15)
N39B N 0.8668(3) 0.6776(2) 0.21140(15)
N40B N 0.8457(2) 0.7358(2) 0.14043(14)
N41B N 0.8154(3) 0.7453(2) 0.17212(15)
N42B N 0.7962(2) 0.6427(2) 0.14274(14)
N43B N 0.7707(2) 0.6588(2) 0.17450(15)
N44B N 0.9452(3) 0.8052(2) -0.01957(15)
N45B N 0.9316(3) 0.8541(2) -0.03000(16)
N46B N 1.0162(3) 0.8059(2) -0.08040(15)
N47B N 0.9951(3) 0.8538(2) -0.08528(16)
N48B N 0.8938(2) 0.7809(2) -0.08886(15)
N49B N 0.8849(3) 0.8320(2) -0.09193(16)
N50B N 1.1819(2) 0.6438(2) -0.00879(16)
N51B N 1.2804(3) 0.4962(2) -0.02527(17)
N52B N 1.0889(2) 0.4448(2) -0.12433(14)
N53B N 0.8000(2) 0.4784(2) -0.16817(14)
N54B N 0.9971(3) 0.7175(2) 0.10818(16)
N55B N 0.9931(3) 0.6700(3) -0.11179(17)
N56B N 0.62583(18) 0.67746(19) -0.25913(11)
N65B N 0.9032(3) 0.40230(19) -0.2555(2)
loop_
_geom_bond_atom_site_label_1
_geom_bond_atom_site_label_2
_geom_bond_site_symmetry_1
_geom_bond_site_symmetry_2
B1 H1 1_555 1_555
B2 H2 1_555 1_555
B3 H3 1_555 1_555
B4 H4 1_555 1_555
C1 Fe2 1_555 1_555
N1 H5 1_555 1_555
C2 C47 1_555 1_555
C3 Fe2 1_555 1_555
C4 C19 1_555 1_555
C5 Fe1 1_555 1_555
N2 C35 1_555 1_555
C6 H6 1_555 1_555
C7 C16 1_555 1_555
C8 H7 1_555 1_555
C9 Fe4 1_555 1_555
C10 C28 1_555 1_555
C11 Fe1 1_555 1_555
C12 H8 1_555 1_555
C13 C62 1_555 1_555
C14 Fe4 1_555 1_555
C15 Fe3 1_555 1_555
C16 C66 1_555 1_555
C17 C20 1_555 1_555
C18 C49 1_555 1_555
C19 C33 1_555 1_555
C20 H9 1_555 1_555
C21 C17 1_555 1_555
H10 C21 1_555 1_555
C22 H11 1_555 1_555
C23 N1 1_555 1_555
C24 C20 1_555 1_555
H12 C24 1_555 1_555
C25 C6 1_555 1_555
H13 C25 1_555 1_555
C26 H14 1_555 1_555
C27 Fe4 1_555 1_555
C28 C23 1_555 1_555
H15 C28 1_555 1_555
C29 H16 1_555 1_555
C30 H17 1_555 1_555
C31 H18 1_555 1_555
C32 Fe1 1_555 1_555
C33 H19 1_555 1_555
C34 C77 1_555 1_555
C35 C75 1_555 1_555
C36 Fe3 1_555 1_555
C37 C21 1_555 1_555
H20 C37 1_555 1_555
C38 H21 1_555 1_555
C39 C22 1_555 1_555
H22 C39 1_555 1_555
C40 C6 1_555 1_555
C41 C43 1_555 1_555
C42 H23 1_555 1_555
C43 C124 1_555 1_555
C44 C12 1_555 1_555
C45 Fe2 1_555 1_555
C46 C31 1_555 1_555
H24 C46 1_555 1_555
C47 C105 1_555 1_555
C48 C86 1_555 1_555
C49 C12 1_555 1_555
H25 C49 1_555 1_555
C50 C24 1_555 1_555
H26 C50 1_555 1_555
C51 C44 1_555 1_555
H27 C51 1_555 1_555
C52 C19 1_555 1_555
H28 C52 1_555 1_555
C53 H29 1_555 1_555
C54 H30 1_555 1_555
C55 C41 1_555 1_555
H31 C55 1_555 1_555
C56 H32 1_555 1_555
C57 C58 1_555 1_555
C58 H33 1_555 1_555
C59 C7 1_555 1_555
H34 C59 1_555 1_555
C60 H35 1_555 1_555
C61 H36 1_555 1_555
C62 H37 1_555 1_555
C63 C44 1_555 1_555
C64 H38 1_555 1_555
C65 N2 1_555 1_555
C66 C4 1_555 1_555
H39 C66 1_555 1_555
C67 H40 1_555 1_555
C68 C33 1_555 1_555
H41 C68 1_555 1_555
C69 H42 1_555 1_555
H43 C69 1_555 1_555
H44 C69 1_555 1_555
C70 H45 1_555 1_555
C71 N2 1_555 1_555
C72 H46 1_555 1_555
C73 H47 1_555 1_555
C74 C59 1_555 1_555
H48 C74 1_555 1_555
C75 C61 1_555 1_555
H49 C75 1_555 1_555
C76 H50 1_555 1_555
C77 C86 1_555 1_555
C78 H51 1_555 1_555
C79 H52 1_555 1_555
C80 H53 1_555 1_555
C81 C57 1_555 1_555
H54 C81 1_555 1_555
C82 C91 1_555 1_555
C83 C29 1_555 1_555
H55 C83 1_555 1_555
C84 C69 1_555 1_555
C85 H56 1_555 1_555
C86 H57 1_555 1_555
C87 C68 1_555 1_555
C88 H58 1_555 1_555
C89 C10 1_555 1_555
C90 C67 1_555 1_555
H59 C90 1_555 1_555
C91 H60 1_555 1_555
C92 C26 1_555 1_555
H61 C92 1_555 1_555
C93 C22 1_555 1_555
H62 C93 1_555 1_555
C94 C79 1_555 1_555
H63 C94 1_555 1_555
C95 C2 1_555 1_555
H64 C95 1_555 1_555
C96 C74 1_555 1_555
H65 C96 1_555 1_555
C97 C42 1_555 1_555
H66 C97 1_555 1_555
C98 H67 1_555 1_555
C99 C35 1_555 1_555
H68 C99 1_555 1_555
C100 C53 1_555 1_555
H69 C100 1_555 1_555
C101 C64 1_555 1_555
H70 C101 1_555 1_555
C102 C8 1_555 1_555
H71 C102 1_555 1_555
C103 C34 1_555 1_555
H72 C103 1_555 1_555
C104 C52 1_555 1_555
H73 C104 1_555 1_555
C105 H74 1_555 1_555
C106 C56 1_555 1_555
H75 C106 1_555 1_555
C107 C71 1_555 1_555
H76 C107 1_555 1_555
C108 C48 1_555 1_555
C109 C102 1_555 1_555
H77 C109 1_555 1_555
C110 C98 1_555 1_555
H78 C110 1_555 1_555
C111 C82 1_555 1_555
H79 C111 1_555 1_555
C112 H80 1_555 1_555
C113 C57 1_555 1_555
C114 H81 1_555 1_555
C115 C106 1_555 1_555
H82 C115 1_555 1_555
C116 C58 1_555 1_555
H83 C116 1_555 1_555
C117 C18 1_555 1_555
H84 C117 1_555 1_555
C118 C62 1_555 1_555
H85 C118 1_555 1_555
C119 H86 1_555 1_555
C120 C112 1_555 1_555
C121 C13 1_555 1_555
H87 C121 1_555 1_555
C122 H88 1_555 1_555
C123 C61 1_555 1_555
H89 C123 1_555 1_555
C124 C38 1_555 1_555
H90 C124 1_555 1_555
C125 C67 1_555 1_555
H91 C125 1_555 1_555
C126 C91 1_555 1_555
H92 C126 1_555 1_555
C127 H93 1_555 1_555
C128 C126 1_555 1_555
H94 C128 1_555 1_555
C129 H95 1_555 1_555
C130 C73 1_555 1_555
H96 C130 1_555 1_555
C131 C78 1_555 1_555
C132 C111 1_555 1_555
H97 C132 1_555 1_555
C133 C94 1_555 1_555
C134 C99 1_555 1_555
H98 C134 1_555 1_555
C135 C107 1_555 1_555
H99 C135 1_555 1_555
C136 C92 1_555 1_555
H100 C136 1_555 1_555
C137 C103 1_555 1_555
H101 C137 1_555 1_555
C138 C78 1_555 1_555
H102 C138 1_555 1_555
C139 C85 1_555 1_555
H103 C139 1_555 1_555
C140 C71 1_555 1_555
H104 C140 1_555 1_555
C141 C135 1_555 1_555
H105 C141 1_555 1_555
C142 C70 1_555 1_555
H106 C142 1_555 1_555
C143 C60 1_555 1_555
C144 C30 1_555 1_555
H107 C144 1_555 1_555
C145 C114 1_555 1_555
H108 C145 1_555 1_555
C146 H109 1_555 1_555
C147 C108 1_555 1_555
H110 C147 1_555 1_555
C148 C140 1_555 1_555
H111 C148 1_555 1_555
C149 H112 1_555 1_555
C150 H113 1_555 1_555
C151 C112 1_555 1_555
H114 C151 1_555 1_555
C152 H115 1_555 1_555
C153 C137 1_555 1_555
H116 C153 1_555 1_555
C154 C138 1_555 1_555
H117 C154 1_555 1_555
C155 C131 1_555 1_555
H118 C155 1_555 1_555
C156 C122 1_555 1_555
H119 C156 1_555 1_555
C157 H120 1_555 1_555
C158 C85 1_555 1_555
H121 C158 1_555 1_555
C159 C146 1_555 1_555
C160 H122 1_555 1_555
C161 C159 1_555 1_555
H123 C161 1_555 1_555
C162 C160 1_555 1_555
H124 C162 1_555 1_555
C163 C129 1_555 1_555
H125 C163 1_555 1_555
C164 C114 1_555 1_555
H126 C164 1_555 1_555
C165 C146 1_555 1_555
H127 C165 1_555 1_555
C166 C119 1_555 1_555
H128 C166 1_555 1_555
C167 C154 1_555 1_555
H129 C167 1_555 1_555
C168 C169 1_555 1_555
C169 H130 1_555 1_555
C170 C169 1_555 1_555
H131 C170 1_555 1_555
C171 C170 1_555 1_555
H132 C171 1_555 1_555
C172 C171 1_555 1_555
H133 C172 1_555 1_555
C173 C168 1_555 1_555
H134 C173 1_555 1_555
C174 C175 1_555 1_555
C175 H135 1_555 1_555
C176 C175 1_555 1_555
H136 C176 1_555 1_555
C177 C176 1_555 1_555
H137 C177 1_555 1_555
C178 C177 1_555 1_555
H138 C178 1_555 1_555
C179 C174 1_555 1_555
H139 C179 1_555 1_555
C180 C184 1_555 1_555
C181 C185 1_555 1_555
C182 C186 1_555 1_555
C183 C187 1_555 1_555
C184 H140 1_555 1_555
H141 C184 1_555 1_555
H142 C184 1_555 1_555
C185 H143 1_555 1_555
H144 C185 1_555 1_555
H145 C185 1_555 1_555
C186 H146 1_555 1_555
H147 C186 1_555 1_555
H148 C186 1_555 1_555
C187 H149 1_555 1_555
H150 C187 1_555 1_555
H151 C187 1_555 1_555
C188 C189 1_555 1_555
C189 H152 1_555 1_555
H153 C189 1_555 1_555
H154 C189 1_555 1_555
C190 C191 1_555 1_555
C191 H155 1_555 1_555
H156 C191 1_555 1_555
H157 C191 1_555 1_555
C192 Fe3 1_555 1_555
Co1 N8 1_555 1_555
Co2 N3 1_555 1_555
Co3 N13 1_555 1_555
F1 P1 1_555 1_555
F2 P1 1_555 1_555
F3 P1 1_555 1_555
F4 P1 1_555 1_555
F5 P1 1_555 1_555
F6 P1 1_555 1_555
F7 P2 1_555 1_555
F8 P2 1_555 1_555
F9 P2 1_555 1_555
F10 P2 1_555 1_555
F11 P2 1_555 1_555
F12 P2 1_555 1_555
Fe1 N26 1_555 1_555
Fe2 N38 1_555 1_555
Fe3 N32 1_555 1_555
Fe4 N44 1_555 1_555
N3 C15 1_555 1_555
N4 C11 1_555 1_555
N5 C7 1_555 1_555
N6 C16 1_555 1_555
N7 C84 1_555 1_555
N8 C14 1_555 1_555
N9 C34 1_555 1_555
N10 C77 1_555 1_555
N11 C41 1_555 1_555
N12 C29 1_555 1_555
N13 C9 1_555 1_555
N14 C1 1_555 1_555
N15 C89 1_555 1_555
N16 N1 1_555 1_555
N17 C2 1_555 1_555
N18 C47 1_555 1_555
N19 C13 1_555 1_555
N20 C63 1_555 1_555
H158 N20 1_555 1_555
N21 C48 1_555 1_555
H159 N21 1_555 1_555
N22 C131 1_555 1_555
N23 C4 1_555 1_555
H160 N23 1_555 1_555
N24 C82 1_555 1_555
N25 C113 1_555 1_555
H161 N25 1_555 1_555
N26 C122 1_555 1_555
N27 B1 1_555 1_555
N28 C129 1_555 1_555
N29 B1 1_555 1_555
N30 C90 1_555 1_555
N31 B1 1_555 1_555
N32 C139 1_555 1_555
N33 B2 1_555 1_555
N34 C119 1_555 1_555
N35 B2 1_555 1_555
N36 C8 1_555 1_555
N37 B2 1_555 1_555
N38 C70 1_555 1_555
N39 B3 1_555 1_555
N40 C54 1_555 1_555
N41 B3 1_555 1_555
N42 C53 1_555 1_555
N43 B3 1_555 1_555
N44 C26 1_555 1_555
N45 B4 1_555 1_555
N46 C56 1_555 1_555
N47 B4 1_555 1_555
N48 C30 1_555 1_555
N49 B4 1_555 1_555
N50 C5 1_555 1_555
N51 C32 1_555 1_555
N52 Co2 1_555 1_555
N53 C36 1_555 1_555
N54 C45 1_555 1_555
N55 C27 1_555 1_555
N56 C143 1_555 1_555
N57 C180 1_555 1_555
C193 H162 1_555 1_555
H163 C193 1_555 1_555
H164 C193 1_555 1_555
C194 C193 1_555 1_555
N58 C194 1_555 1_555
N59 C181 1_555 1_555
N60 C182 1_555 1_555
N61 C183 1_555 1_555
N62 C188 1_555 1_555
N63 C195 1_555 1_555
C195 C196 1_555 1_555
C196 H165 1_555 1_555
H166 C196 1_555 1_555
H167 C196 1_555 1_555
N64 C190 1_555 1_555
N65 C192 1_555 1_555
B1B H1B 1_555 1_555
B2B H2B 1_555 1_555
B3B H3B 1_555 1_555
B4B H4B 1_555 1_555
C1B Fe2B 1_555 1_555
N1B H5B 1_555 1_555
C2B C47B 1_555 1_555
C3B N52 1_555 1_555
C4B C19B 1_555 1_555
C5B Fe1B 1_555 1_555
N2B C35B 1_555 1_555
C6B H6B 1_555 1_555
C7B C16B 1_555 1_555
C8B H7B 1_555 1_555
C9B Fe4B 1_555 1_555
C10B C28B 1_555 1_555
C11B Fe1B 1_555 1_555
C12B H8B 1_555 1_555
C13B C62B 1_555 1_555
C14B Fe4B 1_555 1_555
C15B Fe3B 1_555 1_555
C16B C66B 1_555 1_555
C17B C20B 1_555 1_555
C18B C49B 1_555 1_555
C19B C33B 1_555 1_555
C20B H9B 1_555 1_555
C21B C17B 1_555 1_555
H10B C21B 1_555 1_555
C22B H11B 1_555 1_555
C23B N1B 1_555 1_555
C24B C20B 1_555 1_555
H12B C24B 1_555 1_555
C25B C6B 1_555 1_555
H13B C25B 1_555 1_555
C26B H14B 1_555 1_555
C27B Fe4B 1_555 1_555
C28B C23B 1_555 1_555
H15B C28B 1_555 1_555
C29B H16B 1_555 1_555
C30B H17B 1_555 1_555
C31B H18B 1_555 1_555
C32B Fe1B 1_555 1_555
C33B H19B 1_555 1_555
C34B C77B 1_555 1_555
C35B C75B 1_555 1_555
C36B Fe3B 1_555 1_555
C37B C21B 1_555 1_555
H20B C37B 1_555 1_555
C38B H21B 1_555 1_555
C39B C22B 1_555 1_555
H22B C39B 1_555 1_555
C40B C6B 1_555 1_555
C41B C43B 1_555 1_555
C42B H23B 1_555 1_555
C43B C124B 1_555 1_555
C44B C12B 1_555 1_555
C45B Fe2B 1_555 1_555
C46B C31B 1_555 1_555
H24B C46B 1_555 1_555
C47B C105B 1_555 1_555
C48B C86B 1_555 1_555
C49B C12B 1_555 1_555
H25B C49B 1_555 1_555
C50B C24B 1_555 1_555
H26B C50B 1_555 1_555
C51B C44B 1_555 1_555
H27B C51B 1_555 1_555
C52B C19B 1_555 1_555
H28B C52B 1_555 1_555
C53B H29B 1_555 1_555
C54B H30B 1_555 1_555
C55B C41B 1_555 1_555
H31B C55B 1_555 1_555
C56B H32B 1_555 1_555
C57B C58B 1_555 1_555
C58B H33B 1_555 1_555
C59B C7B 1_555 1_555
H34B C59B 1_555 1_555
C60B H35B 1_555 1_555
C61B H36B 1_555 1_555
C62B H37B 1_555 1_555
C63B C44B 1_555 1_555
C64B H38B 1_555 1_555
C65B N2B 1_555 1_555
C66B C4B 1_555 1_555
H39B C66B 1_555 1_555
C67B H40B 1_555 1_555
C68B C33B 1_555 1_555
H41B C68B 1_555 1_555
C69B H42B 1_555 1_555
H43B C69B 1_555 1_555
H44B C69B 1_555 1_555
C70B H45B 1_555 1_555
C71B N2B 1_555 1_555
C72B H46B 1_555 1_555
C73B H47B 1_555 1_555
C74B C59B 1_555 1_555
H48B C74B 1_555 1_555
C75B C61B 1_555 1_555
H49B C75B 1_555 1_555
C76B H50B 1_555 1_555
C77B C86B 1_555 1_555
C78B H51B 1_555 1_555
C79B H52B 1_555 1_555
C80B H53B 1_555 1_555
C81B C57B 1_555 1_555
H54B C81B 1_555 1_555
C82B C91B 1_555 1_555
C83B C29B 1_555 1_555
H55B C83B 1_555 1_555
C84B C69B 1_555 1_555
C85B H56B 1_555 1_555
C86B H57B 1_555 1_555
C87B C68B 1_555 1_555
C88B H58B 1_555 1_555
C89B C10B 1_555 1_555
C90B C67B 1_555 1_555
H59B C90B 1_555 1_555
C91B H60B 1_555 1_555
C92B C26B 1_555 1_555
H61B C92B 1_555 1_555
C93B C22B 1_555 1_555
H62B C93B 1_555 1_555
C94B C79B 1_555 1_555
H63B C94B 1_555 1_555
C95B C2B 1_555 1_555
H64B C95B 1_555 1_555
C96B C74B 1_555 1_555
H65B C96B 1_555 1_555
C97B C42B 1_555 1_555
H66B C97B 1_555 1_555
C98B H67B 1_555 1_555
C99B C35B 1_555 1_555
H68B C99B 1_555 1_555
C100B C53B 1_555 1_555
H69B C100B 1_555 1_555
C101B C64B 1_555 1_555
H70B C101B 1_555 1_555
C102B C8B 1_555 1_555
H71B C102B 1_555 1_555
C103B C34B 1_555 1_555
H72B C103B 1_555 1_555
C104B C52B 1_555 1_555
H73B C104B 1_555 1_555
C105B H74B 1_555 1_555
C106B C56B 1_555 1_555
H75B C106B 1_555 1_555
C107B C71B 1_555 1_555
H76B C107B 1_555 1_555
C108B C48B 1_555 1_555
C109B C102B 1_555 1_555
H77B C109B 1_555 1_555
C110B C98B 1_555 1_555
H78B C110B 1_555 1_555
C111B C82B 1_555 1_555
H79B C111B 1_555 1_555
C112B H80B 1_555 1_555
C113B C57B 1_555 1_555
C114B H81B 1_555 1_555
C115B C106B 1_555 1_555
H82B C115B 1_555 1_555
C116B C58B 1_555 1_555
H83B C116B 1_555 1_555
C117B C18B 1_555 1_555
H84B C117B 1_555 1_555
C118B C62B 1_555 1_555
H85B C118B 1_555 1_555
C119B H86B 1_555 1_555
C120B C112B 1_555 1_555
C121B C13B 1_555 1_555
H87B C121B 1_555 1_555
C122B H88B 1_555 1_555
C123B C61B 1_555 1_555
H89B C123B 1_555 1_555
C124B C38B 1_555 1_555
H90B C124B 1_555 1_555
C125B C67B 1_555 1_555
H91B C125B 1_555 1_555
C126B C91B 1_555 1_555
H92B C126B 1_555 1_555
C127B H93B 1_555 1_555
C128B C126B 1_555 1_555
H94B C128B 1_555 1_555
C129B H95B 1_555 1_555
C130B C73B 1_555 1_555
H96B C130B 1_555 1_555
C131B C78B 1_555 1_555
C132B C111B 1_555 1_555
H97B C132B 1_555 1_555
C133B C94B 1_555 1_555
C134B C99B 1_555 1_555
H98B C134B 1_555 1_555
C135B C107B 1_555 1_555
H99B C135B 1_555 1_555
C136B C92B 1_555 1_555
H100B C136B 1_555 1_555
C137B C103B 1_555 1_555
H101B C137B 1_555 1_555
C138B C78B 1_555 1_555
H102B C138B 1_555 1_555
C139B C85B 1_555 1_555
H103B C139B 1_555 1_555
C140B C71B 1_555 1_555
H104B C140B 1_555 1_555
C141B C135B 1_555 1_555
H105B C141B 1_555 1_555
C142B C70B 1_555 1_555
H106B C142B 1_555 1_555
C143B C60B 1_555 1_555
C144B C30B 1_555 1_555
H107B C144B 1_555 1_555
C145B C114B 1_555 1_555
H108B C145B 1_555 1_555
C146B H109B 1_555 1_555
C147B C108B 1_555 1_555
H110B C147B 1_555 1_555
C148B C140B 1_555 1_555
H111B C148B 1_555 1_555
C149B H112B 1_555 1_555
C150B H113B 1_555 1_555
C151B C112B 1_555 1_555
H114B C151B 1_555 1_555
C152B H115B 1_555 1_555
C153B C137B 1_555 1_555
H116B C153B 1_555 1_555
C154B C138B 1_555 1_555
H117B C154B 1_555 1_555
C155B C131B 1_555 1_555
H118B C155B 1_555 1_555
C156B C122B 1_555 1_555
H119B C156B 1_555 1_555
C157B H120B 1_555 1_555
C158B C85B 1_555 1_555
H121B C158B 1_555 1_555
C159B C146B 1_555 1_555
C160B H122B 1_555 1_555
C161B C159B 1_555 1_555
H123B C161B 1_555 1_555
C162B C160B 1_555 1_555
H124B C162B 1_555 1_555
C163B C129B 1_555 1_555
H125B C163B 1_555 1_555
C164B C114B 1_555 1_555
H126B C164B 1_555 1_555
C165B C146B 1_555 1_555
H127B C165B 1_555 1_555
C166B C119B 1_555 1_555
H128B C166B 1_555 1_555
C167B C154B 1_555 1_555
H129B C167B 1_555 1_555
C168B C169B 1_555 1_555
C169B H130B 1_555 1_555
C170B C169B 1_555 1_555
H131B C170B 1_555 1_555
C171B C170B 1_555 1_555
H132B C171B 1_555 1_555
C172B C171B 1_555 1_555
H133B C172B 1_555 1_555
C173B C168B 1_555 1_555
H134B C173B 1_555 1_555
C174B C175B 1_555 1_555
C175B H135B 1_555 1_555
C176B C175B 1_555 1_555
H136B C176B 1_555 1_555
C177B C176B 1_555 1_555
H137B C177B 1_555 1_555
C178B C177B 1_555 1_555
H138B C178B 1_555 1_555
C179B C174B 1_555 1_555
H139B C179B 1_555 1_555
C192B Fe3B 1_555 1_555
Co1B N8B 1_555 1_555
Co2B N3B 1_555 1_555
Co3B N13B 1_555 1_555
Fe1B N26B 1_555 1_555
Fe2B C3B 1_555 1_555
Fe3B N32B 1_555 1_555
Fe4B N44B 1_555 1_555
N3B C15B 1_555 1_555
N4B C11B 1_555 1_555
N5B C7B 1_555 1_555
N6B C16B 1_555 1_555
N7B C84B 1_555 1_555
N8B C14B 1_555 1_555
N9B C34B 1_555 1_555
N10B C77B 1_555 1_555
N11B C41B 1_555 1_555
N12B C29B 1_555 1_555
N13B C9B 1_555 1_555
N14B C1B 1_555 1_555
N15B C89B 1_555 1_555
N16B N1B 1_555 1_555
N17B C2B 1_555 1_555
N18B C47B 1_555 1_555
N19B C13B 1_555 1_555
N20B C63B 1_555 1_555
H158B N20B 1_555 1_555
N21B C48B 1_555 1_555
H159B N21B 1_555 1_555
N22B C131B 1_555 1_555
N23B C4B 1_555 1_555
H160B N23B 1_555 1_555
N24B C82B 1_555 1_555
N25B C113B 1_555 1_555
H161B N25B 1_555 1_555
N26B C122B 1_555 1_555
N27B B1B 1_555 1_555
N28B C129B 1_555 1_555
N29B B1B 1_555 1_555
N30B C90B 1_555 1_555
N31B B1B 1_555 1_555
N32B C139B 1_555 1_555
N33B B2B 1_555 1_555
N34B C119B 1_555 1_555
N35B B2B 1_555 1_555
N36B C8B 1_555 1_555
N37B B2B 1_555 1_555
N38B C70B 1_555 1_555
N39B B3B 1_555 1_555
N40B C54B 1_555 1_555
N41B B3B 1_555 1_555
N42B C53B 1_555 1_555
N43B B3B 1_555 1_555
N44B C26B 1_555 1_555
N45B B4B 1_555 1_555
N46B C56B 1_555 1_555
N47B B4B 1_555 1_555
N48B C30B 1_555 1_555
N49B B4B 1_555 1_555
N50B C5B 1_555 1_555
N51B C32B 1_555 1_555
N52B C3 1_555 1_555
N53B C36B 1_555 1_555
N54B C45B 1_555 1_555
N55B C27B 1_555 1_555
N56B C143B 1_555 1_555
N65B C192B 1_555 1_555
C10 N16 1_555 1_555
C17 N19 1_555 1_555
C18 N19 1_555 1_555
C23 C40 1_555 1_555
C25 C65 1_555 1_555
C31 C40 1_555 1_555
C37 C50 1_555 1_555
C38 C83 1_555 1_555
C39 N17 1_555 1_555
C42 N41 1_555 1_555
C43 N12 1_555 1_555
C46 C65 1_555 1_555
C51 C117 1_555 1_555
C54 C97 1_555 1_555
C55 C63 1_555 1_555
C60 C81 1_555 1_555
C64 C118 1_555 1_555
C72 C100 1_555 1_555
C72 N43 1_555 1_555
C73 C89 1_555 1_555
C76 C142 1_555 1_555
C76 N39 1_555 1_555
C79 C108 1_555 1_555
C80 C144 1_555 1_555
C80 N49 1_555 1_555
C87 C104 1_555 1_555
C87 N24 1_555 1_555
C88 C96 1_555 1_555
C88 N5 1_555 1_555
C93 C95 1_555 1_555
C98 C130 1_555 1_555
C101 C121 1_555 1_555
C105 C113 1_555 1_555
C109 N37 1_555 1_555
C110 N15 1_555 1_555
C115 N47 1_555 1_555
C116 C143 1_555 1_555
C120 C145 1_555 1_555
C120 N24 1_555 1_555
C123 C134 1_555 1_555
C125 N31 1_555 1_555
C127 C133 1_555 1_555
C127 C147 1_555 1_555
C128 C132 1_555 1_555
C133 N22 1_555 1_555
C136 N45 1_555 1_555
C141 C148 1_555 1_555
C149 C156 1_555 1_555
C149 N27 1_555 1_555
C150 C153 1_555 1_555
C150 N9 1_555 1_555
C151 C164 1_555 1_555
C152 C166 1_555 1_555
C152 N35 1_555 1_555
C155 C167 1_555 1_555
C157 C163 1_555 1_555
C157 N29 1_555 1_555
C158 N33 1_555 1_555
C159 N22 1_555 1_555
C160 C165 1_555 1_555
C161 C162 1_555 1_555
C168 N56 1_555 1_555
C172 C173 1_555 1_555
C174 N56 1_555 1_555
C178 C179 1_555 1_555
Co1 N9 1_555 1_555
Co1 N10 1_555 1_555
Co1 N11 1_555 1_555
Co1 N12 1_555 1_555
Co1 N50 1_555 1_555
Co2 N4 1_555 1_555
Co2 N5 1_555 1_555
Co2 N6 1_555 1_555
Co2 N7 1_555 1_555
Co3 N14 1_555 1_555
Co3 N15 1_555 1_555
Co3 N16 1_555 1_555
Co3 N17 1_555 1_555
Co3 N18 1_555 1_555
Fe1 N28 1_555 1_555
Fe1 N30 1_555 1_555
Fe2 N40 1_555 1_555
Fe2 N42 1_555 1_555
Fe3 N34 1_555 1_555
Fe3 N36 1_555 1_555
Fe4 N46 1_555 1_555
Fe4 N48 1_555 1_555
N6 N23 1_555 1_555
N10 N21 1_555 1_555
N11 N20 1_555 1_555
N18 N25 1_555 1_555
N26 N27 1_555 1_555
N28 N29 1_555 1_555
N30 N31 1_555 1_555
N32 N33 1_555 1_555
N34 N35 1_555 1_555
N36 N37 1_555 1_555
N38 N39 1_555 1_555
N40 N41 1_555 1_555
N42 N43 1_555 1_555
N44 N45 1_555 1_555
N46 N47 1_555 1_555
N48 N49 1_555 1_555
C10B N16B 1_555 1_555
C17B N19B 1_555 1_555
C18B N19B 1_555 1_555
C23B C40B 1_555 1_555
C25B C65B 1_555 1_555
C31B C40B 1_555 1_555
C37B C50B 1_555 1_555
C38B C83B 1_555 1_555
C39B N17B 1_555 1_555
C42B N41B 1_555 1_555
C43B N12B 1_555 1_555
C46B C65B 1_555 1_555
C51B C117B 1_555 1_555
C54B C97B 1_555 1_555
C55B C63B 1_555 1_555
C60B C81B 1_555 1_555
C64B C118B 1_555 1_555
C72B C100B 1_555 1_555
C72B N43B 1_555 1_555
C73B C89B 1_555 1_555
C76B C142B 1_555 1_555
C76B N39B 1_555 1_555
C79B C108B 1_555 1_555
C80B C144B 1_555 1_555
C80B N49B 1_555 1_555
C87B C104B 1_555 1_555
C87B N24B 1_555 1_555
C88B C96B 1_555 1_555
C88B N5B 1_555 1_555
C93B C95B 1_555 1_555
C98B C130B 1_555 1_555
C101B C121B 1_555 1_555
C105B C113B 1_555 1_555
C109B N37B 1_555 1_555
C110B N15B 1_555 1_555
C115B N47B 1_555 1_555
C116B C143B 1_555 1_555
C120B C145B 1_555 1_555
C120B N24B 1_555 1_555
C123B C134B 1_555 1_555
C125B N31B 1_555 1_555
C127B C133B 1_555 1_555
C127B C147B 1_555 1_555
C128B C132B 1_555 1_555
C133B N22B 1_555 1_555
C136B N45B 1_555 1_555
C141B C148B 1_555 1_555
C149B C156B 1_555 1_555
C149B N27B 1_555 1_555
C150B C153B 1_555 1_555
C150B N9B 1_555 1_555
C151B C164B 1_555 1_555
C152B C166B 1_555 1_555
C152B N35B 1_555 1_555
C155B C167B 1_555 1_555
C157B C163B 1_555 1_555
C157B N29B 1_555 1_555
C158B N33B 1_555 1_555
C159B N22B 1_555 1_555
C160B C165B 1_555 1_555
C161B C162B 1_555 1_555
C168B N56B 1_555 1_555
C172B C173B 1_555 1_555
C174B N56B 1_555 1_555
C178B C179B 1_555 1_555
Co1B N9B 1_555 1_555
Co1B N10B 1_555 1_555
Co1B N11B 1_555 1_555
Co1B N12B 1_555 1_555
Co1B N50B 1_555 1_555
Co2B N4B 1_555 1_555
Co2B N5B 1_555 1_555
Co2B N6B 1_555 1_555
Co2B N7B 1_555 1_555
Co2B N52B 1_555 1_555
Co3B N14B 1_555 1_555
Co3B N15B 1_555 1_555
Co3B N16B 1_555 1_555
Co3B N17B 1_555 1_555
Co3B N18B 1_555 1_555
Fe1B N28B 1_555 1_555
Fe1B N30B 1_555 1_555
Fe2B N38B 1_555 1_555
Fe2B N40B 1_555 1_555
Fe2B N42B 1_555 1_555
Fe3B N34B 1_555 1_555
Fe3B N36B 1_555 1_555
Fe4B N46B 1_555 1_555
Fe4B N48B 1_555 1_555
N6B N23B 1_555 1_555
N10B N21B 1_555 1_555
N11B N20B 1_555 1_555
N18B N25B 1_555 1_555
N26B N27B 1_555 1_555
N28B N29B 1_555 1_555
N30B N31B 1_555 1_555
N32B N33B 1_555 1_555
N34B N35B 1_555 1_555
N36B N37B 1_555 1_555
N38B N39B 1_555 1_555
N40B N41B 1_555 1_555
N42B N43B 1_555 1_555
N44B N45B 1_555 1_555
N46B N47B 1_555 1_555
N48B N49B 1_555 1_555

#END
