# generated using pymatgen
data_Fe8Co6B8P4H354C416N132O7F24
_symmetry_space_group_name_H-M   'P 1'
_cell_length_a   21.98600000
_cell_length_b   26.27500000
_cell_length_c   35.93300000
_cell_angle_alpha   90.00000000
_cell_angle_beta   93.30200000
_cell_angle_gamma   90.00000000
_symmetry_Int_Tables_number   1
_chemical_formula_structural   Fe8Co6B8P4H354C416N132O7F24
_chemical_formula_sum   'Fe16 Co12 B16 P8 H708 C832 N264 O14 F48'
_cell_volume   20723.39064678
_cell_formula_units_Z   2
loop_
 _symmetry_equiv_pos_site_id
 _symmetry_equiv_pos_as_xyz
  1  'x, y, z'
loop_
 _atom_site_type_symbol
 _atom_site_label
 _atom_site_symmetry_multiplicity
 _atom_site_fract_x
 _atom_site_fract_y
 _atom_site_fract_z
 _atom_site_occupancy
  Fe  Fe1  1  0.741000  0.403690  0.068220  1.0
  Fe  Fe2  1  0.759000  0.903690  0.431780  1.0
  Fe  Fe3  1  0.259000  0.596310  0.931780  1.0
  Fe  Fe4  1  0.241000  0.096310  0.568220  1.0
  Fe  Fe5  1  0.122400  0.332460  0.868500  1.0
  Fe  Fe6  1  0.377600  0.832460  0.631500  1.0
  Fe  Fe7  1  0.877600  0.667540  0.131500  1.0
  Fe  Fe8  1  0.622400  0.167540  0.368500  1.0
  Fe  Fe9  1  0.114820  0.488430  0.228290  1.0
  Fe  Fe10  1  0.385180  0.988430  0.271710  1.0
  Fe  Fe11  1  0.885180  0.511570  0.771710  1.0
  Fe  Fe12  1  0.614820  0.011570  0.728290  1.0
  Fe  Fe13  1  0.035530  0.244940  0.057870  1.0
  Fe  Fe14  1  0.464470  0.744940  0.442130  1.0
  Fe  Fe15  1  0.964470  0.755060  0.942130  1.0
  Fe  Fe16  1  0.535530  0.255060  0.557870  1.0
  Co  Co17  1  0.848240  0.296280  0.974780  1.0
  Co  Co18  1  0.651760  0.796280  0.525220  1.0
  Co  Co19  1  0.151760  0.703720  0.025220  1.0
  Co  Co20  1  0.348240  0.203720  0.474780  1.0
  Co  Co21  1  0.920920  0.481450  0.146270  1.0
  Co  Co22  1  0.579080  0.981450  0.353730  1.0
  Co  Co23  1  0.079080  0.518550  0.853730  1.0
  Co  Co24  1  0.420920  0.018550  0.646270  1.0
  Co  Co25  1  0.208090  0.343140  0.003300  1.0
  Co  Co26  1  0.291910  0.843140  0.496700  1.0
  Co  Co27  1  0.791910  0.656860  0.996700  1.0
  Co  Co28  1  0.708090  0.156860  0.503300  1.0
  B  B29  1  0.641500  0.341300  0.104500  1.0
  B  B30  1  0.858500  0.841300  0.395500  1.0
  B  B31  1  0.358500  0.658700  0.895500  1.0
  B  B32  1  0.141500  0.158700  0.604500  1.0
  B  B33  1  0.139600  0.394100  0.278500  1.0
  B  B34  1  0.360400  0.894100  0.221500  1.0
  B  B35  1  0.860400  0.605900  0.721500  1.0
  B  B36  1  0.639600  0.105900  0.778500  1.0
  B  B37  1  0.195300  0.299500  0.801700  1.0
  B  B38  1  0.304700  0.799500  0.698300  1.0
  B  B39  1  0.804700  0.700500  0.198300  1.0
  B  B40  1  0.695300  0.200500  0.301700  1.0
  B  B41  1  0.067200  0.131900  0.072300  1.0
  B  B42  1  0.432800  0.631900  0.427700  1.0
  B  B43  1  0.932800  0.868100  0.927700  1.0
  B  B44  1  0.567200  0.368100  0.572300  1.0
  P  P45  1  0.707900  0.136820  0.164920  1
  P  P46  1  0.792100  0.636820  0.335080  1
  P  P47  1  0.292100  0.863180  0.835080  1
  P  P48  1  0.207900  0.363180  0.664920  1
  P  P49  1  0.219600  0.007370  0.067820  1
  P  P50  1  0.280400  0.507370  0.432180  1
  P  P51  1  0.780400  0.992630  0.932180  1
  P  P52  1  0.719600  0.492630  0.567820  1
  H  H53  1  0.617700  0.023400  0.078100  1
  H  H54  1  0.882300  0.523400  0.421900  1
  H  H55  1  0.382300  0.976600  0.921900  1
  H  H56  1  0.117700  0.476600  0.578100  1
  H  H57  1  0.646500  0.058100  0.111300  1
  H  H58  1  0.853500  0.558100  0.388700  1
  H  H59  1  0.353500  0.941900  0.888700  1
  H  H60  1  0.146500  0.441900  0.611300  1
  H  H61  1  0.577200  0.039700  0.111700  1
  H  H62  1  0.922800  0.539700  0.388300  1
  H  H63  1  0.422800  0.960300  0.888300  1
  H  H64  1  0.077200  0.460300  0.611700  1
  H  H65  1  0.413000  0.153200  0.066400  1
  H  H66  1  0.087000  0.653200  0.433600  1
  H  H67  1  0.587000  0.846800  0.933600  1
  H  H68  1  0.913000  0.346800  0.566400  1
  H  H69  1  0.345300  0.131500  0.059100  1
  H  H70  1  0.154700  0.631500  0.440900  1
  H  H71  1  0.654700  0.868500  0.940900  1
  H  H72  1  0.845300  0.368500  0.559100  1
  H  H73  1  0.374200  0.136800  0.100800  1
  H  H74  1  0.125800  0.636800  0.399200  1
  H  H75  1  0.625800  0.863200  0.899200  1
  H  H76  1  0.874200  0.363200  0.600800  1
  H  H77  1  0.553700  0.177400  0.169200  1
  H  H78  1  0.946300  0.677400  0.330800  1
  H  H79  1  0.446300  0.822600  0.830800  1
  H  H80  1  0.053700  0.322600  0.669200  1
  H  H81  1  0.494000  0.211000  0.174000  1
  H  H82  1  0.006000  0.711000  0.326000  1
  H  H83  1  0.506000  0.789000  0.826000  1
  H  H84  1  0.994000  0.289000  0.674000  1
  H  H85  1  0.558800  0.238100  0.171600  1
  H  H86  1  0.941200  0.738100  0.328400  1
  H  H87  1  0.441200  0.761900  0.828400  1
  H  H88  1  0.058800  0.261900  0.671600  1
  H  H89  1  0.670800  0.106100  0.894400  1
  H  H90  1  0.829200  0.606100  0.605600  1
  H  H91  1  0.329200  0.893900  0.105600  1
  H  H92  1  0.170800  0.393900  0.394400  1
  H  H93  1  0.625300  0.097400  0.927000  1
  H  H94  1  0.874700  0.597400  0.573000  1
  H  H95  1  0.374700  0.902600  0.073000  1
  H  H96  1  0.125300  0.402600  0.427000  1
  H  H97  1  0.697200  0.091400  0.935400  1
  H  H98  1  0.802800  0.591400  0.564600  1
  H  H99  1  0.302800  0.908600  0.064600  1
  H  H100  1  0.197200  0.408600  0.435400  1
  H  H101  1  0.386300  0.021800  0.048200  1
  H  H102  1  0.113700  0.521800  0.451800  1
  H  H103  1  0.613700  0.978200  0.951800  1
  H  H104  1  0.886300  0.478200  0.548200  1
  H  H105  1  0.375200  0.045100  0.007300  1
  H  H106  1  0.124800  0.545100  0.492700  1
  H  H107  1  0.624800  0.954900  0.992700  1
  H  H108  1  0.875200  0.454900  0.507300  1
  H  H109  1  0.442500  0.029600  0.022500  1
  H  H110  1  0.057500  0.529600  0.477500  1
  H  H111  1  0.557500  0.970400  0.977500  1
  H  H112  1  0.942500  0.470400  0.522500  1
  H  H113  1  0.727000  0.363800  0.177000  1
  H  H114  1  0.773000  0.863800  0.323000  1
  H  H115  1  0.273000  0.636200  0.823000  1
  H  H116  1  0.227000  0.136200  0.677000  1
  H  H117  1  0.798600  0.367200  0.171500  1
  H  H118  1  0.701400  0.867200  0.328500  1
  H  H119  1  0.201400  0.632800  0.828500  1
  H  H120  1  0.298600  0.132800  0.671500  1
  H  H121  1  0.767600  0.405400  0.199500  1
  H  H122  1  0.732400  0.905400  0.300500  1
  H  H123  1  0.232400  0.594600  0.800500  1
  H  H124  1  0.267600  0.094600  0.699500  1
  H  H125  1  0.454800  0.845700  0.986800  1
  H  H126  1  0.045200  0.345700  0.513200  1
  H  H127  1  0.545200  0.154300  0.013200  1
  H  H128  1  0.954800  0.654300  0.486800  1
  H  H129  1  0.400800  0.811300  0.001200  1
  H  H130  1  0.099200  0.311300  0.498800  1
  H  H131  1  0.599200  0.188700  0.998800  1
  H  H132  1  0.900800  0.688700  0.501200  1
  H  H133  1  0.443100  0.789900  0.969900  1
  H  H134  1  0.056900  0.289900  0.530100  1
  H  H135  1  0.556900  0.210100  0.030100  1
  H  H136  1  0.943100  0.710100  0.469900  1
  H  H137  1  0.485400  0.074900  0.146500  1
  H  H138  1  0.014600  0.574900  0.353500  1
  H  H139  1  0.514600  0.925100  0.853500  1
  H  H140  1  0.985400  0.425100  0.646500  1
  H  H141  1  0.448700  0.090100  0.108400  1
  H  H142  1  0.051300  0.590100  0.391600  1
  H  H143  1  0.551300  0.909900  0.891600  1
  H  H144  1  0.948700  0.409900  0.608400  1
  H  H145  1  0.481100  0.035600  0.112400  1
  H  H146  1  0.018900  0.535600  0.387600  1
  H  H147  1  0.518900  0.964400  0.887600  1
  H  H148  1  0.981100  0.464400  0.612400  1
  H  H149  1  0.558300  0.727600  0.690700  1
  H  H150  1  0.941700  0.227600  0.809300  1
  H  H151  1  0.441700  0.272400  0.309300  1
  H  H152  1  0.058300  0.772400  0.190700  1
  H  H153  1  0.725000  0.720200  0.741200  1
  H  H154  1  0.775000  0.220200  0.758800  1
  H  H155  1  0.275000  0.279800  0.258800  1
  H  H156  1  0.225000  0.779800  0.241200  1
  H  H157  1  0.454200  0.746600  0.690000  1
  H  H158  1  0.045800  0.246600  0.810000  1
  H  H159  1  0.545800  0.253400  0.310000  1
  H  H160  1  0.954200  0.753400  0.190000  1
  H  H161  1  0.791600  0.740900  0.695000  1
  H  H162  1  0.708400  0.240900  0.805000  1
  H  H163  1  0.208400  0.259100  0.305000  1
  H  H164  1  0.291600  0.759100  0.195000  1
  H  H165  1  0.394400  0.712500  0.735700  1
  H  H166  1  0.105600  0.212500  0.764300  1
  H  H167  1  0.605600  0.287500  0.264300  1
  H  H168  1  0.894400  0.787500  0.235700  1
  H  H169  1  0.769600  0.715000  0.633300  1
  H  H170  1  0.730400  0.215000  0.866700  1
  H  H171  1  0.230400  0.285000  0.366700  1
  H  H172  1  0.269600  0.785000  0.133300  1
  H  H173  1  0.438500  0.659400  0.782000  1
  H  H174  1  0.061500  0.159400  0.718000  1
  H  H175  1  0.561500  0.340600  0.218000  1
  H  H176  1  0.938500  0.840600  0.282000  1
  H  H177  1  0.681000  0.668500  0.617900  1
  H  H178  1  0.819000  0.168500  0.882100  1
  H  H179  1  0.319000  0.331500  0.382100  1
  H  H180  1  0.181000  0.831500  0.117900  1
  H  H181  1  0.542500  0.640300  0.782700  1
  H  H182  1  0.957500  0.140300  0.717300  1
  H  H183  1  0.457500  0.359700  0.217300  1
  H  H184  1  0.042500  0.859700  0.282700  1
  H  H185  1  0.614300  0.647800  0.664100  1
  H  H186  1  0.885700  0.147800  0.835900  1
  H  H187  1  0.385700  0.352200  0.335900  1
  H  H188  1  0.114300  0.852200  0.164100  1
  H  H189  1  0.609200  0.320900  0.116100  1.0
  H  H190  1  0.890800  0.820900  0.383900  1.0
  H  H191  1  0.390800  0.679100  0.883900  1.0
  H  H192  1  0.109200  0.179100  0.616100  1.0
  H  H193  1  0.147400  0.363400  0.294600  1.0
  H  H194  1  0.352600  0.863400  0.205400  1.0
  H  H195  1  0.852600  0.636600  0.705400  1.0
  H  H196  1  0.647400  0.136600  0.794600  1.0
  H  H197  1  0.219100  0.288800  0.780100  1.0
  H  H198  1  0.280900  0.788800  0.719900  1.0
  H  H199  1  0.780900  0.711200  0.219900  1.0
  H  H200  1  0.719100  0.211200  0.280100  1.0
  H  H201  1  0.077100  0.095300  0.077000  1.0
  H  H202  1  0.422900  0.595300  0.423000  1.0
  H  H203  1  0.922900  0.904700  0.923000  1.0
  H  H204  1  0.577100  0.404700  0.577000  1.0
  H  H205  1  0.313000  0.427600  0.969200  1.0
  H  H206  1  0.187000  0.927600  0.530800  1.0
  H  H207  1  0.687000  0.572400  0.030800  1.0
  H  H208  1  0.813000  0.072400  0.469200  1.0
  H  H209  1  0.388200  0.480400  0.958200  1.0
  H  H210  1  0.111800  0.980400  0.541800  1.0
  H  H211  1  0.611800  0.519600  0.041800  1.0
  H  H212  1  0.888200  0.019600  0.458200  1.0
  H  H213  1  0.990100  0.511300  0.274100  1.0
  H  H214  1  0.509900  0.011300  0.225900  1.0
  H  H215  1  0.009900  0.488700  0.725900  1.0
  H  H216  1  0.490100  0.988700  0.774100  1.0
  H  H217  1  0.649800  0.372500  0.830500  1.0
  H  H218  1  0.850200  0.872500  0.669500  1.0
  H  H219  1  0.350200  0.627500  0.169500  1.0
  H  H220  1  0.149800  0.127500  0.330500  1.0
  H  H221  1  0.456000  0.402000  0.820500  1.0
  H  H222  1  0.044000  0.902000  0.679500  1.0
  H  H223  1  0.544000  0.598000  0.179500  1.0
  H  H224  1  0.956000  0.098000  0.320500  1.0
  H  H225  1  0.404300  0.273500  0.763900  1.0
  H  H226  1  0.095700  0.773500  0.736100  1.0
  H  H227  1  0.595700  0.726500  0.236100  1.0
  H  H228  1  0.904300  0.226500  0.263900  1.0
  H  H229  1  0.106700  0.515100  0.965500  1.0
  H  H230  1  0.393300  0.015100  0.534500  1.0
  H  H231  1  0.893300  0.484900  0.034500  1.0
  H  H232  1  0.606700  0.984900  0.465500  1.0
  H  H233  1  0.401500  0.450100  0.775700  1.0
  H  H234  1  0.098500  0.950100  0.724300  1.0
  H  H235  1  0.598500  0.549900  0.224300  1.0
  H  H236  1  0.901500  0.049900  0.275700  1.0
  H  H237  1  0.455800  0.536000  0.932100  1.0
  H  H238  1  0.044200  0.036000  0.567900  1.0
  H  H239  1  0.544200  0.464000  0.067900  1.0
  H  H240  1  0.955800  0.964000  0.432100  1.0
  H  H241  1  0.054800  0.227200  0.967900  1.0
  H  H242  1  0.445200  0.727200  0.532100  1.0
  H  H243  1  0.945200  0.772800  0.032100  1.0
  H  H244  1  0.554800  0.272800  0.467900  1.0
  H  H245  1  0.404800  0.304600  0.942800  1.0
  H  H246  1  0.095200  0.804600  0.557200  1.0
  H  H247  1  0.595200  0.695400  0.057200  1.0
  H  H248  1  0.904800  0.195400  0.442800  1.0
  H  H249  1  0.976400  0.350300  0.968900  1.0
  H  H250  1  0.523600  0.850300  0.531100  1.0
  H  H251  1  0.023600  0.649700  0.031100  1.0
  H  H252  1  0.476400  0.149700  0.468900  1.0
  H  H253  1  0.161200  0.276600  0.107800  1.0
  H  H254  1  0.338800  0.776600  0.392200  1.0
  H  H255  1  0.838800  0.723400  0.892200  1.0
  H  H256  1  0.661200  0.223400  0.607800  1.0
  H  H257  1  0.464300  0.362100  0.905700  1.0
  H  H258  1  0.035700  0.862100  0.594300  1.0
  H  H259  1  0.535700  0.637900  0.094300  1.0
  H  H260  1  0.964300  0.137900  0.405700  1.0
  H  H261  1  0.027000  0.305900  0.264700  1.0
  H  H262  1  0.473000  0.805900  0.235300  1.0
  H  H263  1  0.973000  0.694100  0.735300  1.0
  H  H264  1  0.527000  0.194100  0.764700  1.0
  H  H265  1  0.348000  0.322500  0.720600  1.0
  H  H266  1  0.152000  0.822500  0.779400  1.0
  H  H267  1  0.652000  0.677500  0.279400  1.0
  H  H268  1  0.848000  0.177500  0.220600  1.0
  H  H269  1  0.959900  0.452200  0.885200  1.0
  H  H270  1  0.540100  0.952200  0.614800  1.0
  H  H271  1  0.040100  0.547800  0.114800  1.0
  H  H272  1  0.459900  0.047800  0.385200  1.0
  H  H273  1  0.141200  0.432700  0.955700  1.0
  H  H274  1  0.358800  0.932700  0.544300  1.0
  H  H275  1  0.858800  0.567300  0.044300  1.0
  H  H276  1  0.641200  0.067300  0.455700  1.0
  H  H277  1  0.226700  0.190800  0.810000  1.0
  H  H278  1  0.273300  0.690800  0.690000  1.0
  H  H279  1  0.773300  0.809200  0.190000  1.0
  H  H280  1  0.726700  0.309200  0.310000  1.0
  H  H281  1  0.534300  0.416900  0.881000  1.0
  H  H282  1  0.965700  0.916900  0.619000  1.0
  H  H283  1  0.465700  0.583100  0.119000  1.0
  H  H284  1  0.034300  0.083100  0.381000  1.0
  H  H285  1  0.553900  0.358200  0.802800  1.0
  H  H286  1  0.946100  0.858200  0.697200  1.0
  H  H287  1  0.446100  0.641800  0.197200  1.0
  H  H288  1  0.053900  0.141800  0.302800  1.0
  H  H289  1  0.346800  0.411400  0.725900  1.0
  H  H290  1  0.153200  0.911400  0.774100  1.0
  H  H291  1  0.653200  0.588600  0.274100  1.0
  H  H292  1  0.846800  0.088600  0.225900  1.0
  H  H293  1  0.608400  0.282000  0.916500  1.0
  H  H294  1  0.891600  0.782000  0.583500  1.0
  H  H295  1  0.391600  0.718000  0.083500  1.0
  H  H296  1  0.108400  0.218000  0.416500  1.0
  H  H297  1  0.955200  0.263800  0.163300  1.0
  H  H298  1  0.544800  0.763800  0.336700  1.0
  H  H299  1  0.044800  0.736200  0.836700  1.0
  H  H300  1  0.455200  0.236200  0.663300  1.0
  H  H301  1  0.237300  0.407600  0.896300  1.0
  H  H302  1  0.262700  0.907600  0.603700  1.0
  H  H303  1  0.762700  0.592400  0.103700  1.0
  H  H304  1  0.737300  0.092400  0.396300  1.0
  H  H305  1  0.138200  0.216000  0.902400  1.0
  H  H306  1  0.361800  0.716000  0.597600  1.0
  H  H307  1  0.861800  0.784000  0.097600  1.0
  H  H308  1  0.638200  0.284000  0.402400  1.0
  H  H309  1  0.748200  0.392000  0.866500  1.0
  H  H310  1  0.751800  0.892000  0.633500  1.0
  H  H311  1  0.251800  0.608000  0.133500  1.0
  H  H312  1  0.248200  0.108000  0.366500  1.0
  H  H313  1  0.901100  0.224600  0.092600  1.0
  H  H314  1  0.598900  0.724600  0.407400  1.0
  H  H315  1  0.098900  0.775400  0.907400  1.0
  H  H316  1  0.401100  0.275400  0.592600  1.0
  H  H317  1  0.331700  0.293600  0.141500  1.0
  H  H318  1  0.168300  0.793600  0.358500  1.0
  H  H319  1  0.668300  0.706400  0.858500  1.0
  H  H320  1  0.831700  0.206400  0.641500  1.0
  H  H321  1  0.862700  0.446500  0.277100  1.0
  H  H322  1  0.637300  0.946500  0.222900  1.0
  H  H323  1  0.137300  0.553500  0.722900  1.0
  H  H324  1  0.362700  0.053500  0.777100  1.0
  H  H325  1  0.300100  0.400000  0.242200  1.0
  H  H326  1  0.199900  0.900000  0.257800  1.0
  H  H327  1  0.699900  0.600000  0.757800  1.0
  H  H328  1  0.800100  0.100000  0.742200  1.0
  H  H329  1  0.510300  0.487500  0.765200  1.0
  H  H330  1  0.989700  0.987500  0.734800  1.0
  H  H331  1  0.489700  0.512500  0.234800  1.0
  H  H332  1  0.010300  0.012500  0.265200  1.0
  H  H333  1  0.369100  0.306900  0.864100  1.0
  H  H334  1  0.130900  0.806900  0.635900  1.0
  H  H335  1  0.630900  0.693100  0.135900  1.0
  H  H336  1  0.869100  0.193100  0.364100  1.0
  H  H337  1  0.330500  0.157300  0.874100  1.0
  H  H338  1  0.169500  0.657300  0.625900  1.0
  H  H339  1  0.669500  0.842700  0.125900  1.0
  H  H340  1  0.830500  0.342700  0.374100  1.0
  H  H341  1  0.920900  0.367100  0.259000  1.0
  H  H342  1  0.579100  0.867100  0.241000  1.0
  H  H343  1  0.079100  0.632900  0.741000  1.0
  H  H344  1  0.420900  0.132900  0.759000  1.0
  H  H345  1  0.631900  0.492500  0.170300  1.0
  H  H346  1  0.868100  0.992500  0.329700  1.0
  H  H347  1  0.368100  0.507500  0.829700  1.0
  H  H348  1  0.131900  0.007500  0.670300  1.0
  H  H349  1  0.080900  0.229900  0.269300  1.0
  H  H350  1  0.419100  0.729900  0.230700  1.0
  H  H351  1  0.919100  0.770100  0.730700  1.0
  H  H352  1  0.580900  0.270100  0.769300  1.0
  H  H353  1  0.992400  0.388000  0.033900  1.0
  H  H354  1  0.507600  0.888000  0.466100  1.0
  H  H355  1  0.007600  0.612000  0.966100  1.0
  H  H356  1  0.492400  0.112000  0.533900  1.0
  H  H357  1  0.060100  0.398200  0.051100  1.0
  H  H358  1  0.439900  0.898200  0.448900  1.0
  H  H359  1  0.939900  0.601800  0.948900  1.0
  H  H360  1  0.560100  0.101800  0.551100  1.0
  H  H361  1  0.026600  0.439800  0.024600  1.0
  H  H362  1  0.473400  0.939800  0.475400  1.0
  H  H363  1  0.973400  0.560200  0.975400  1.0
  H  H364  1  0.526600  0.060200  0.524600  1.0
  H  H365  1  0.013100  0.373700  0.808800  1.0
  H  H366  1  0.486900  0.873700  0.691200  1.0
  H  H367  1  0.986900  0.626300  0.191200  1.0
  H  H368  1  0.513100  0.126300  0.308800  1.0
  H  H369  1  0.310400  0.358400  0.803600  1.0
  H  H370  1  0.189600  0.858400  0.696400  1.0
  H  H371  1  0.689600  0.641600  0.196400  1.0
  H  H372  1  0.810400  0.141600  0.303600  1.0
  H  H373  1  0.362900  0.218000  0.961000  1.0
  H  H374  1  0.137100  0.718000  0.539000  1.0
  H  H375  1  0.637100  0.782000  0.039000  1.0
  H  H376  1  0.862900  0.282000  0.461000  1.0
  H  H377  1  0.808700  0.522200  0.288800  1.0
  H  H378  1  0.691300  0.022200  0.211200  1.0
  H  H379  1  0.191300  0.477800  0.711200  1.0
  H  H380  1  0.308700  0.977800  0.788800  1.0
  H  H381  1  0.479300  0.501100  0.825600  1.0
  H  H382  1  0.020700  0.001100  0.674400  1.0
  H  H383  1  0.520700  0.498900  0.174400  1.0
  H  H384  1  0.979300  0.998900  0.325600  1.0
  H  H385  1  0.124900  0.326600  0.731800  1.0
  H  H386  1  0.375100  0.826600  0.768200  1.0
  H  H387  1  0.875100  0.673400  0.268200  1.0
  H  H388  1  0.624900  0.173400  0.231800  1.0
  H  H389  1  0.046100  0.058600  0.800600  1.0
  H  H390  1  0.453900  0.558600  0.699400  1.0
  H  H391  1  0.953900  0.941400  0.199400  1.0
  H  H392  1  0.546100  0.441400  0.300600  1.0
  H  H393  1  0.987800  0.184600  0.870100  1.0
  H  H394  1  0.512200  0.684600  0.629900  1.0
  H  H395  1  0.012200  0.815400  0.129900  1.0
  H  H396  1  0.487800  0.315400  0.370100  1.0
  H  H397  1  0.186000  0.126300  0.115600  1.0
  H  H398  1  0.314000  0.626300  0.384400  1.0
  H  H399  1  0.814000  0.873700  0.884400  1.0
  H  H400  1  0.686000  0.373700  0.615600  1.0
  H  H401  1  0.253200  0.417400  0.183700  1.0
  H  H402  1  0.246800  0.917400  0.316300  1.0
  H  H403  1  0.746800  0.582600  0.816300  1.0
  H  H404  1  0.753200  0.082600  0.683700  1.0
  H  H405  1  0.018200  0.416600  0.935200  1.0
  H  H406  1  0.481800  0.916600  0.564800  1.0
  H  H407  1  0.981800  0.583400  0.064800  1.0
  H  H408  1  0.518200  0.083400  0.435200  1.0
  H  H409  1  0.127300  0.318400  0.163200  1.0
  H  H410  1  0.372700  0.818400  0.336800  1.0
  H  H411  1  0.872700  0.681600  0.836800  1.0
  H  H412  1  0.627300  0.181600  0.663200  1.0
  H  H413  1  0.874500  0.108200  0.960300  1.0
  H  H414  1  0.625500  0.608200  0.539700  1.0
  H  H415  1  0.125500  0.891800  0.039700  1.0
  H  H416  1  0.374500  0.391800  0.460300  1.0
  H  H417  1  0.833400  0.564900  0.182800  1.0
  H  H418  1  0.666600  0.064900  0.317200  1.0
  H  H419  1  0.166600  0.435100  0.817200  1.0
  H  H420  1  0.333400  0.935100  0.682800  1.0
  H  H421  1  0.712000  0.499200  0.123800  1.0
  H  H422  1  0.788000  0.999200  0.376200  1.0
  H  H423  1  0.288000  0.500800  0.876200  1.0
  H  H424  1  0.212000  0.000800  0.623800  1.0
  H  H425  1  0.984600  0.114700  0.219400  1.0
  H  H426  1  0.515400  0.614700  0.280600  1.0
  H  H427  1  0.015400  0.885300  0.780600  1.0
  H  H428  1  0.484600  0.385300  0.719400  1.0
  H  H429  1  0.093500  0.143200  0.945400  1.0
  H  H430  1  0.406500  0.643200  0.554600  1.0
  H  H431  1  0.906500  0.856800  0.054600  1.0
  H  H432  1  0.593500  0.356800  0.445400  1.0
  H  H433  1  0.125900  0.553400  0.024400  1.0
  H  H434  1  0.374100  0.053400  0.475600  1.0
  H  H435  1  0.874100  0.446600  0.975600  1.0
  H  H436  1  0.625900  0.946600  0.524400  1.0
  H  H437  1  0.065700  0.141200  0.843000  1.0
  H  H438  1  0.434300  0.641200  0.657000  1.0
  H  H439  1  0.934300  0.858800  0.157000  1.0
  H  H440  1  0.565700  0.358800  0.343000  1.0
  H  H441  1  0.177400  0.506200  0.072300  1.0
  H  H442  1  0.322600  0.006200  0.427700  1.0
  H  H443  1  0.822600  0.493800  0.927700  1.0
  H  H444  1  0.677400  0.993800  0.572300  1.0
  H  H445  1  0.793500  0.581200  0.239800  1.0
  H  H446  1  0.706500  0.081200  0.260200  1.0
  H  H447  1  0.206500  0.418800  0.760200  1.0
  H  H448  1  0.293500  0.918800  0.739800  1.0
  H  H449  1  0.193900  0.149600  0.868400  1.0
  H  H450  1  0.306100  0.649600  0.631600  1.0
  H  H451  1  0.806100  0.850400  0.131600  1.0
  H  H452  1  0.693900  0.350400  0.368400  1.0
  H  H453  1  0.227200  0.146100  0.011600  1.0
  H  H454  1  0.272800  0.646100  0.488400  1.0
  H  H455  1  0.772800  0.853900  0.988400  1.0
  H  H456  1  0.727200  0.353900  0.511600  1.0
  H  H457  1  0.655200  0.506200  0.864800  1.0
  H  H458  1  0.844800  0.006200  0.635200  1.0
  H  H459  1  0.344800  0.493800  0.135200  1.0
  H  H460  1  0.155200  0.993800  0.364800  1.0
  H  H461  1  0.329400  0.415100  0.859200  1.0
  H  H462  1  0.170600  0.915100  0.640800  1.0
  H  H463  1  0.670600  0.584900  0.140800  1.0
  H  H464  1  0.829400  0.084900  0.359200  1.0
  H  H465  1  0.418800  0.137900  0.842900  1.0
  H  H466  1  0.081200  0.637900  0.657100  1.0
  H  H467  1  0.581200  0.862100  0.157100  1.0
  H  H468  1  0.918800  0.362100  0.342900  1.0
  H  H469  1  0.962800  0.453700  0.327100  1.0
  H  H470  1  0.537200  0.953700  0.172900  1.0
  H  H471  1  0.037200  0.546300  0.672900  1.0
  H  H472  1  0.462800  0.046300  0.827100  1.0
  H  H473  1  0.785500  0.117400  0.002000  1.0
  H  H474  1  0.714500  0.617400  0.498000  1.0
  H  H475  1  0.214500  0.882600  0.998000  1.0
  H  H476  1  0.285500  0.382600  0.502000  1.0
  H  H477  1  0.011800  0.188600  0.166800  1.0
  H  H478  1  0.488200  0.688600  0.333200  1.0
  H  H479  1  0.988200  0.811400  0.833200  1.0
  H  H480  1  0.511800  0.311400  0.666800  1.0
  H  H481  1  0.224500  0.445600  0.121700  1.0
  H  H482  1  0.275500  0.945600  0.378300  1.0
  H  H483  1  0.775500  0.554400  0.878300  1.0
  H  H484  1  0.724500  0.054400  0.621700  1.0
  H  H485  1  0.875000  0.140100  0.118300  1.0
  H  H486  1  0.625000  0.640100  0.381700  1.0
  H  H487  1  0.125000  0.859900  0.881700  1.0
  H  H488  1  0.375000  0.359900  0.618300  1.0
  H  H489  1  0.541700  0.602400  0.853300  1.0
  H  H490  1  0.958300  0.102400  0.646700  1.0
  H  H491  1  0.458300  0.397600  0.146700  1.0
  H  H492  1  0.041700  0.897600  0.353300  1.0
  H  H493  1  0.042800  0.386200  0.332200  1.0
  H  H494  1  0.457200  0.886200  0.167800  1.0
  H  H495  1  0.957200  0.613800  0.667800  1.0
  H  H496  1  0.542800  0.113800  0.832200  1.0
  H  H497  1  0.184600  0.225600  0.023500  1.0
  H  H498  1  0.315400  0.725600  0.476500  1.0
  H  H499  1  0.815400  0.774400  0.976500  1.0
  H  H500  1  0.684600  0.274400  0.523500  1.0
  H  H501  1  0.150100  0.096000  0.177500  1.0
  H  H502  1  0.349900  0.596000  0.322500  1.0
  H  H503  1  0.849900  0.904000  0.822500  1.0
  H  H504  1  0.650100  0.404000  0.677500  1.0
  H  H505  1  0.168500  0.224100  0.197200  1.0
  H  H506  1  0.331500  0.724100  0.302800  1.0
  H  H507  1  0.831500  0.775900  0.802800  1.0
  H  H508  1  0.668500  0.275900  0.697200  1.0
  H  H509  1  0.263200  0.114100  0.283500  1.0
  H  H510  1  0.236800  0.614100  0.216500  1.0
  H  H511  1  0.736800  0.885900  0.716500  1.0
  H  H512  1  0.763200  0.385900  0.783500  1.0
  H  H513  1  0.964300  0.083100  0.107500  1.0
  H  H514  1  0.535700  0.583100  0.392500  1.0
  H  H515  1  0.035700  0.916900  0.892500  1.0
  H  H516  1  0.464300  0.416900  0.607500  1.0
  H  H517  1  0.377900  0.275600  0.199700  1.0
  H  H518  1  0.122100  0.775600  0.300300  1.0
  H  H519  1  0.622100  0.724400  0.800300  1.0
  H  H520  1  0.877900  0.224400  0.699700  1.0
  H  H521  1  0.511500  0.269000  0.888800  1.0
  H  H522  1  0.988500  0.769000  0.611200  1.0
  H  H523  1  0.488500  0.731000  0.111200  1.0
  H  H524  1  0.011500  0.231000  0.388800  1.0
  H  H525  1  0.308500  0.242100  0.886800  1.0
  H  H526  1  0.191500  0.742100  0.613200  1.0
  H  H527  1  0.691500  0.757900  0.113200  1.0
  H  H528  1  0.808500  0.257900  0.386800  1.0
  H  H529  1  0.243800  0.538300  0.262500  1.0
  H  H530  1  0.256200  0.038300  0.237500  1.0
  H  H531  1  0.756200  0.461700  0.737500  1.0
  H  H532  1  0.743800  0.961700  0.762500  1.0
  H  H533  1  0.478100  0.202600  0.820000  1.0
  H  H534  1  0.021900  0.702600  0.680000  1.0
  H  H535  1  0.521900  0.797400  0.180000  1.0
  H  H536  1  0.978100  0.297400  0.320000  1.0
  H  H537  1  0.667200  0.387400  0.986400  1.0
  H  H538  1  0.832800  0.887400  0.513600  1.0
  H  H539  1  0.332800  0.612600  0.013600  1.0
  H  H540  1  0.167200  0.112600  0.486400  1.0
  H  H541  1  0.614700  0.485000  0.754400  1.0
  H  H542  1  0.885300  0.985000  0.745600  1.0
  H  H543  1  0.385300  0.515000  0.245600  1.0
  H  H544  1  0.114700  0.015000  0.254400  1.0
  H  H545  1  0.861300  0.423600  0.871800  1.0
  H  H546  1  0.638700  0.923600  0.628200  1.0
  H  H547  1  0.138700  0.576400  0.128200  1.0
  H  H548  1  0.361300  0.076400  0.371800  1.0
  H  H549  1  0.587500  0.405600  0.162300  1.0
  H  H550  1  0.912500  0.905600  0.337700  1.0
  H  H551  1  0.412500  0.594400  0.837700  1.0
  H  H552  1  0.087500  0.094400  0.662300  1.0
  H  H553  1  0.949600  0.042400  0.190500  1.0
  H  H554  1  0.550400  0.542400  0.309500  1.0
  H  H555  1  0.050400  0.957600  0.809500  1.0
  H  H556  1  0.449600  0.457600  0.690500  1.0
  H  H557  1  0.042600  0.023000  0.913600  1.0
  H  H558  1  0.457400  0.523000  0.586400  1.0
  H  H559  1  0.957400  0.977000  0.086400  1.0
  H  H560  1  0.542600  0.477000  0.413600  1.0
  H  H561  1  0.013400  0.993800  0.155300  1.0
  H  H562  1  0.486600  0.493800  0.344700  1.0
  H  H563  1  0.986600  0.006200  0.844700  1.0
  H  H564  1  0.513400  0.506200  0.655300  1.0
  H  H565  1  0.844000  0.322200  0.102400  1.0
  H  H566  1  0.656000  0.822200  0.397600  1.0
  H  H567  1  0.156000  0.677800  0.897600  1.0
  H  H568  1  0.344000  0.177800  0.602400  1.0
  H  H569  1  0.318700  0.142300  0.980700  1.0
  H  H570  1  0.181300  0.642300  0.519300  1.0
  H  H571  1  0.681300  0.857700  0.019300  1.0
  H  H572  1  0.818700  0.357700  0.480700  1.0
  H  H573  1  0.113800  0.022200  0.147800  1.0
  H  H574  1  0.386200  0.522200  0.352200  1.0
  H  H575  1  0.886200  0.977800  0.852200  1.0
  H  H576  1  0.613800  0.477800  0.647800  1.0
  H  H577  1  0.686000  0.494100  0.804600  1.0
  H  H578  1  0.814000  0.994100  0.695400  1.0
  H  H579  1  0.314000  0.505900  0.195400  1.0
  H  H580  1  0.186000  0.005900  0.304600  1.0
  H  H581  1  0.553900  0.683800  0.876600  1.0
  H  H582  1  0.946100  0.183800  0.623400  1.0
  H  H583  1  0.446100  0.316200  0.123400  1.0
  H  H584  1  0.053900  0.816200  0.376600  1.0
  H  H585  1  0.097500  0.085400  0.000300  1.0
  H  H586  1  0.402500  0.585400  0.499700  1.0
  H  H587  1  0.902500  0.914600  0.999700  1.0
  H  H588  1  0.597500  0.414600  0.500300  1.0
  H  H589  1  0.712200  0.133800  0.045200  1.0
  H  H590  1  0.787800  0.633800  0.454800  1.0
  H  H591  1  0.287800  0.866200  0.954800  1.0
  H  H592  1  0.212200  0.366200  0.545200  1.0
  H  H593  1  0.073500  0.068200  0.739600  1.0
  H  H594  1  0.426500  0.568200  0.760400  1.0
  H  H595  1  0.926500  0.931800  0.260400  1.0
  H  H596  1  0.573500  0.431800  0.239600  1.0
  H  H597  1  0.104600  0.410100  0.154900  1.0
  H  H598  1  0.395400  0.910100  0.345100  1.0
  H  H599  1  0.895400  0.589900  0.845100  1.0
  H  H600  1  0.604600  0.089900  0.654900  1.0
  H  H601  1  0.574200  0.543900  0.955500  1.0
  H  H602  1  0.925800  0.043900  0.544500  1.0
  H  H603  1  0.425800  0.456100  0.044500  1.0
  H  H604  1  0.074200  0.956100  0.455500  1.0
  H  H605  1  0.576300  0.695700  0.940200  1.0
  H  H606  1  0.923700  0.195700  0.559800  1.0
  H  H607  1  0.423700  0.304300  0.059800  1.0
  H  H608  1  0.076300  0.804300  0.440200  1.0
  H  H609  1  0.024600  0.368800  0.739700  1.0
  H  H610  1  0.475400  0.868800  0.760300  1.0
  H  H611  1  0.975400  0.631200  0.260300  1.0
  H  H612  1  0.524600  0.131200  0.239700  1.0
  H  H613  1  0.233400  0.209600  0.132500  1.0
  H  H614  1  0.266600  0.709600  0.367500  1.0
  H  H615  1  0.766600  0.790400  0.867500  1.0
  H  H616  1  0.733400  0.290400  0.632500  1.0
  H  H617  1  0.160900  0.102800  0.265700  1.0
  H  H618  1  0.339100  0.602800  0.234300  1.0
  H  H619  1  0.839100  0.897200  0.734300  1.0
  H  H620  1  0.660900  0.397200  0.765700  1.0
  H  H621  1  0.161200  0.084700  0.926500  1.0
  H  H622  1  0.338800  0.584700  0.573500  1.0
  H  H623  1  0.838800  0.915300  0.073500  1.0
  H  H624  1  0.661200  0.415300  0.426500  1.0
  H  H625  1  0.964700  0.066700  0.940500  1.0
  H  H626  1  0.535300  0.566700  0.559500  1.0
  H  H627  1  0.035300  0.933300  0.059500  1.0
  H  H628  1  0.464700  0.433300  0.440500  1.0
  H  H629  1  0.585300  0.626400  0.979000  1.0
  H  H630  1  0.914700  0.126400  0.521000  1.0
  H  H631  1  0.414700  0.373600  0.021000  1.0
  H  H632  1  0.085300  0.873600  0.479000  1.0
  H  H633  1  0.549900  0.307800  0.046000  1.0
  H  H634  1  0.950100  0.807800  0.454000  1.0
  H  H635  1  0.450100  0.692200  0.954000  1.0
  H  H636  1  0.049900  0.192200  0.546000  1.0
  H  H637  1  0.739900  0.283400  0.030700  1.0
  H  H638  1  0.760100  0.783400  0.469300  1.0
  H  H639  1  0.260100  0.716600  0.969300  1.0
  H  H640  1  0.239900  0.216600  0.530700  1.0
  H  H641  1  0.270600  0.233900  0.215400  1.0
  H  H642  1  0.229400  0.733900  0.284600  1.0
  H  H643  1  0.729400  0.766100  0.784600  1.0
  H  H644  1  0.770600  0.266100  0.715400  1.0
  H  H645  1  0.253400  0.410800  0.324900  1.0
  H  H646  1  0.246600  0.910800  0.175100  1.0
  H  H647  1  0.746600  0.589200  0.675100  1.0
  H  H648  1  0.753400  0.089200  0.824900  1.0
  H  H649  1  0.690100  0.218400  0.060700  1.0
  H  H650  1  0.809900  0.718400  0.439300  1.0
  H  H651  1  0.309900  0.781600  0.939300  1.0
  H  H652  1  0.190100  0.281600  0.560700  1.0
  H  H653  1  0.174300  0.076100  0.726200  1.0
  H  H654  1  0.325700  0.576100  0.773800  1.0
  H  H655  1  0.825700  0.923900  0.273800  1.0
  H  H656  1  0.674300  0.423900  0.226200  1.0
  H  H657  1  0.223300  0.061500  0.836700  1.0
  H  H658  1  0.276700  0.561500  0.663300  1.0
  H  H659  1  0.776700  0.938500  0.163300  1.0
  H  H660  1  0.723300  0.438500  0.336700  1.0
  H  H661  1  0.569100  0.337500  0.981000  1.0
  H  H662  1  0.930900  0.837500  0.519000  1.0
  H  H663  1  0.430900  0.662500  0.019000  1.0
  H  H664  1  0.069100  0.162500  0.481000  1.0
  H  H665  1  0.702100  0.253200  0.143600  1.0
  H  H666  1  0.797900  0.753200  0.356400  1.0
  H  H667  1  0.297900  0.746800  0.856400  1.0
  H  H668  1  0.202100  0.246800  0.643600  1.0
  H  H669  1  0.152900  0.304100  0.230400  1.0
  H  H670  1  0.347100  0.804100  0.269600  1.0
  H  H671  1  0.847100  0.695900  0.769600  1.0
  H  H672  1  0.652900  0.195900  0.730400  1.0
  H  H673  1  0.259700  0.960600  0.958100  1.0
  H  H674  1  0.240300  0.460600  0.541900  1.0
  H  H675  1  0.740300  0.039400  0.041900  1.0
  H  H676  1  0.759700  0.539400  0.458100  1.0
  H  H677  1  0.161100  0.963100  0.859200  1.0
  H  H678  1  0.338900  0.463100  0.640800  1.0
  H  H679  1  0.838900  0.036900  0.140800  1.0
  H  H680  1  0.661100  0.536900  0.359200  1.0
  H  H681  1  0.227700  0.920600  0.903000  1.0
  H  H682  1  0.272300  0.420600  0.597000  1.0
  H  H683  1  0.772300  0.079400  0.097000  1.0
  H  H684  1  0.727700  0.579400  0.403000  1.0
  H  H685  1  0.812700  0.248700  0.141100  1.0
  H  H686  1  0.687300  0.748700  0.358900  1.0
  H  H687  1  0.187300  0.751300  0.858900  1.0
  H  H688  1  0.312700  0.251300  0.641100  1.0
  H  H689  1  0.318900  0.177400  0.256300  1.0
  H  H690  1  0.181100  0.677400  0.243700  1.0
  H  H691  1  0.681100  0.822600  0.743700  1.0
  H  H692  1  0.818900  0.322600  0.756300  1.0
  H  H693  1  0.228600  0.044600  0.969000  1.0
  H  H694  1  0.271400  0.544600  0.531000  1.0
  H  H695  1  0.771400  0.955400  0.031000  1.0
  H  H696  1  0.728600  0.455400  0.469000  1.0
  H  H697  1  0.311400  0.491100  0.310600  1.0
  H  H698  1  0.188600  0.991100  0.189400  1.0
  H  H699  1  0.688600  0.508900  0.689400  1.0
  H  H700  1  0.811400  0.008900  0.810600  1.0
  H  H701  1  0.248500  0.073900  0.774800  1.0
  H  H702  1  0.251500  0.573900  0.725200  1.0
  H  H703  1  0.751500  0.926100  0.225200  1.0
  H  H704  1  0.748500  0.426100  0.274800  1.0
  H  H705  1  0.442500  0.274900  0.310200  1.0
  H  H706  1  0.057500  0.774900  0.189800  1.0
  H  H707  1  0.557500  0.725100  0.689800  1.0
  H  H708  1  0.942500  0.225100  0.810200  1.0
  H  H709  1  0.546600  0.256100  0.311100  1.0
  H  H710  1  0.953400  0.756100  0.188900  1.0
  H  H711  1  0.453400  0.743900  0.688900  1.0
  H  H712  1  0.046600  0.243900  0.811100  1.0
  H  H713  1  0.605400  0.286300  0.263600  1.0
  H  H714  1  0.894600  0.786300  0.236400  1.0
  H  H715  1  0.394600  0.713700  0.736400  1.0
  H  H716  1  0.105400  0.213700  0.763600  1.0
  H  H717  1  0.560200  0.335300  0.215100  1.0
  H  H718  1  0.939800  0.835300  0.284900  1.0
  H  H719  1  0.439800  0.664700  0.784900  1.0
  H  H720  1  0.060200  0.164700  0.715100  1.0
  H  H721  1  0.456100  0.354200  0.214300  1.0
  H  H722  1  0.043900  0.854200  0.285700  1.0
  H  H723  1  0.543900  0.645800  0.785700  1.0
  H  H724  1  0.956100  0.145800  0.714300  1.0
  H  H725  1  0.291900  0.278400  0.288000  1.0
  H  H726  1  0.208100  0.778400  0.212000  1.0
  H  H727  1  0.708100  0.721600  0.712000  1.0
  H  H728  1  0.791900  0.221600  0.788000  1.0
  H  H729  1  0.252200  0.285000  0.346800  1.0
  H  H730  1  0.247800  0.785000  0.153200  1.0
  H  H731  1  0.747800  0.715000  0.653200  1.0
  H  H732  1  0.752200  0.215000  0.846800  1.0
  H  H733  1  0.291000  0.346100  0.389300  1.0
  H  H734  1  0.209000  0.846100  0.110700  1.0
  H  H735  1  0.709000  0.653900  0.610700  1.0
  H  H736  1  0.791000  0.153900  0.889300  1.0
  H  H737  1  0.369400  0.400400  0.372900  1.0
  H  H738  1  0.130600  0.900400  0.127100  1.0
  H  H739  1  0.630600  0.599600  0.627100  1.0
  H  H740  1  0.869400  0.099600  0.872900  1.0
  H  H741  1  0.409100  0.393800  0.314100  1.0
  H  H742  1  0.090900  0.893800  0.185900  1.0
  H  H743  1  0.590900  0.606200  0.685900  1.0
  H  H744  1  0.909100  0.106200  0.814100  1.0
  H  H745  1  0.703300  0.280200  0.932300  1.0
  H  H746  1  0.796700  0.780200  0.567700  1.0
  H  H747  1  0.296700  0.719800  0.067700  1.0
  H  H748  1  0.203300  0.219800  0.432300  1.0
  H  H749  1  0.940100  0.230800  0.914400  1.0
  H  H750  1  0.559900  0.730800  0.585600  1.0
  H  H751  1  0.059900  0.769200  0.085600  1.0
  H  H752  1  0.440100  0.269200  0.414400  1.0
  H  H753  1  0.969700  0.356200  0.155500  1.0
  H  H754  1  0.530300  0.856200  0.344500  1.0
  H  H755  1  0.030300  0.643800  0.844500  1.0
  H  H756  1  0.469700  0.143800  0.655500  1.0
  H  H757  1  0.282900  0.312600  0.088800  1.0
  H  H758  1  0.217100  0.812600  0.411200  1.0
  H  H759  1  0.717100  0.687400  0.911200  1.0
  H  H760  1  0.782900  0.187400  0.588800  1.0
  C  C761  1  0.637900  0.984500  0.125500  1
  C  C762  1  0.862100  0.484500  0.374500  1
  C  C763  1  0.362100  0.015500  0.874500  1
  C  C764  1  0.137900  0.515500  0.625500  1
  C  C765  1  0.618200  0.030200  0.105000  1
  C  C766  1  0.881800  0.530200  0.395000  1
  C  C767  1  0.381800  0.969800  0.895000  1
  C  C768  1  0.118200  0.469800  0.605000  1
  C  C769  1  0.347800  0.203600  0.077800  1
  C  C770  1  0.152200  0.703600  0.422200  1
  C  C771  1  0.652200  0.796400  0.922200  1
  C  C772  1  0.847800  0.296400  0.577800  1
  C  C773  1  0.372100  0.152000  0.075800  1
  C  C774  1  0.127900  0.652000  0.424200  1
  C  C775  1  0.627900  0.848000  0.924200  1
  C  C776  1  0.872100  0.348000  0.575800  1
  C  C777  1  0.523500  0.212800  0.122100  1
  C  C778  1  0.976500  0.712800  0.377900  1
  C  C779  1  0.476500  0.787200  0.877900  1
  C  C780  1  0.023500  0.287200  0.622100  1
  C  C781  1  0.533300  0.209500  0.162600  1
  C  C782  1  0.966700  0.709500  0.337400  1
  C  C783  1  0.466700  0.790500  0.837400  1
  C  C784  1  0.033300  0.290500  0.662600  1
  C  C785  1  0.669800  0.164300  0.930700  1
  C  C786  1  0.830200  0.664300  0.569300  1
  C  C787  1  0.330200  0.835700  0.069300  1
  C  C788  1  0.169800  0.335700  0.430700  1
  C  C789  1  0.665400  0.110400  0.921100  1
  C  C790  1  0.834600  0.610400  0.578900  1
  C  C791  1  0.334600  0.889600  0.078900  1
  C  C792  1  0.165400  0.389600  0.421100  1
  C  C793  1  0.389900  0.969500  0.007500  1
  C  C794  1  0.110100  0.469500  0.492500  1
  C  C795  1  0.610100  0.030500  0.992500  1
  C  C796  1  0.889900  0.530500  0.507500  1
  C  C797  1  0.399200  0.020700  0.022600  1
  C  C798  1  0.100800  0.520700  0.477400  1
  C  C799  1  0.600800  0.979300  0.977400  1
  C  C800  1  0.899200  0.479300  0.522600  1
  C  C801  1  0.778000  0.334500  0.219800  1
  C  C802  1  0.722000  0.834500  0.280200  1
  C  C803  1  0.222000  0.665500  0.780200  1
  C  C804  1  0.278000  0.165500  0.719800  1
  C  C805  1  0.767000  0.370700  0.189500  1
  C  C806  1  0.733000  0.870700  0.310500  1
  C  C807  1  0.233000  0.629300  0.810500  1
  C  C808  1  0.267000  0.129300  0.689500  1
  C  C809  1  0.442200  0.810800  0.992500  1
  C  C810  1  0.057800  0.310800  0.507500  1
  C  C811  1  0.557800  0.189200  0.007500  1
  C  C812  1  0.942200  0.689200  0.492500  1
  C  C813  1  0.484000  0.789500  0.021500  1
  C  C814  1  0.016000  0.289500  0.478500  1
  C  C815  1  0.516000  0.210500  0.978500  1
  C  C816  1  0.984000  0.710500  0.521500  1
  C  C817  1  0.403800  0.040600  0.139500  1
  C  C818  1  0.096200  0.540600  0.360500  1
  C  C819  1  0.596200  0.959400  0.860500  1
  C  C820  1  0.903800  0.459400  0.639500  1
  C  C821  1  0.459300  0.062100  0.125600  1
  C  C822  1  0.040700  0.562100  0.374400  1
  C  C823  1  0.540700  0.937900  0.874400  1
  C  C824  1  0.959300  0.437900  0.625600  1
  C  C825  1  0.560180  0.682170  0.736740  1
  C  C826  1  0.939820  0.182170  0.763260  1
  C  C827  1  0.439820  0.317830  0.263260  1
  C  C828  1  0.060180  0.817830  0.236740  1
  C  C829  1  0.663370  0.682080  0.706970  1
  C  C830  1  0.836630  0.182080  0.793030  1
  C  C831  1  0.336630  0.317920  0.293030  1
  C  C832  1  0.163370  0.817920  0.206970  1
  C  C833  1  0.533960  0.713750  0.709230  1
  C  C834  1  0.966040  0.213750  0.790770  1
  C  C835  1  0.466040  0.286250  0.290770  1
  C  C836  1  0.033960  0.786250  0.209230  1
  C  C837  1  0.716020  0.709700  0.716140  1
  C  C838  1  0.783980  0.209700  0.783860  1
  C  C839  1  0.283980  0.290300  0.283860  1
  C  C840  1  0.216020  0.790300  0.216140  1
  C  C841  1  0.472170  0.725100  0.708820  1
  C  C842  1  0.027830  0.225100  0.791180  1
  C  C843  1  0.527830  0.274900  0.291180  1
  C  C844  1  0.972170  0.774900  0.208820  1
  C  C845  1  0.755600  0.722000  0.688700  1
  C  C846  1  0.744400  0.222000  0.811300  1
  C  C847  1  0.244400  0.278000  0.311300  1
  C  C848  1  0.255600  0.778000  0.188700  1
  C  C849  1  0.436590  0.704800  0.735930  1
  C  C850  1  0.063410  0.204800  0.764070  1
  C  C851  1  0.563410  0.295200  0.264070  1
  C  C852  1  0.936590  0.795200  0.235930  1
  C  C853  1  0.742500  0.706600  0.652100  1
  C  C854  1  0.757500  0.206600  0.847900  1
  C  C855  1  0.257500  0.293400  0.347900  1
  C  C856  1  0.242500  0.793400  0.152100  1
  C  C857  1  0.462800  0.673200  0.763440  1
  C  C858  1  0.037200  0.173200  0.736560  1
  C  C859  1  0.537200  0.326800  0.236560  1
  C  C860  1  0.962800  0.826800  0.263440  1
  C  C861  1  0.689900  0.679000  0.642930  1
  C  C862  1  0.810100  0.179000  0.857070  1
  C  C863  1  0.310100  0.321000  0.357070  1
  C  C864  1  0.189900  0.821000  0.142930  1
  C  C865  1  0.524600  0.661910  0.763850  1
  C  C866  1  0.975400  0.161910  0.736150  1
  C  C867  1  0.475400  0.338090  0.236150  1
  C  C868  1  0.024600  0.838090  0.263850  1
  C  C869  1  0.650300  0.666667  0.670370  1
  C  C870  1  0.849700  0.166667  0.829630  1
  C  C871  1  0.349700  0.333333  0.329630  1
  C  C872  1  0.150300  0.833333  0.170370  1
  C  C873  1  0.148400  0.330700  0.920230  1.0
  C  C874  1  0.351600  0.830700  0.579770  1.0
  C  C875  1  0.851600  0.669300  0.079770  1.0
  C  C876  1  0.648400  0.169300  0.420230  1.0
  C  C877  1  0.187800  0.442500  0.040730  1.0
  C  C878  1  0.312200  0.942500  0.459270  1.0
  C  C879  1  0.812200  0.557500  0.959270  1.0
  C  C880  1  0.687800  0.057500  0.540730  1.0
  C  C881  1  0.097700  0.401500  0.875370  1.0
  C  C882  1  0.402300  0.901500  0.624630  1.0
  C  C883  1  0.902300  0.598500  0.124630  1.0
  C  C884  1  0.597700  0.098500  0.375370  1.0
  C  C885  1  0.956700  0.343200  0.209060  1.0
  C  C886  1  0.543300  0.843200  0.290940  1.0
  C  C887  1  0.043300  0.656800  0.790940  1.0
  C  C888  1  0.456700  0.156800  0.709060  1.0
  C  C889  1  0.792100  0.377500  0.030950  1.0
  C  C890  1  0.707900  0.877500  0.469050  1.0
  C  C891  1  0.207900  0.622500  0.969050  1.0
  C  C892  1  0.292100  0.122500  0.530950  1.0
  C  C893  1  0.417300  0.467400  0.942120  1.0
  C  C894  1  0.082700  0.967400  0.557880  1.0
  C  C895  1  0.582700  0.532600  0.057880  1.0
  C  C896  1  0.917300  0.032600  0.442120  1.0
  C  C897  1  0.877700  0.463500  0.223130  1.0
  C  C898  1  0.622300  0.963500  0.276870  1.0
  C  C899  1  0.122300  0.536500  0.776870  1.0
  C  C900  1  0.377700  0.036500  0.723130  1.0
  C  C901  1  0.012100  0.481900  0.282500  1.0
  C  C902  1  0.487900  0.981900  0.217500  1.0
  C  C903  1  0.987900  0.518100  0.717500  1.0
  C  C904  1  0.512100  0.018100  0.782500  1.0
  C  C905  1  0.089400  0.293000  0.036200  1.0
  C  C906  1  0.410600  0.793000  0.463800  1.0
  C  C907  1  0.910600  0.707000  0.963800  1.0
  C  C908  1  0.589400  0.207000  0.536200  1.0
  C  C909  1  0.323400  0.314100  0.970870  1.0
  C  C910  1  0.176600  0.814100  0.529130  1.0
  C  C911  1  0.676600  0.685900  0.029130  1.0
  C  C912  1  0.823400  0.185900  0.470870  1.0
  C  C913  1  0.808900  0.435400  0.094990  1.0
  C  C914  1  0.691100  0.935400  0.405010  1.0
  C  C915  1  0.191100  0.564600  0.905010  1.0
  C  C916  1  0.308900  0.064600  0.594990  1.0
  C  C917  1  0.622200  0.350800  0.842300  1.0
  C  C918  1  0.877800  0.850800  0.657700  1.0
  C  C919  1  0.377800  0.649200  0.157700  1.0
  C  C920  1  0.122200  0.149200  0.342300  1.0
  C  C921  1  0.428900  0.260500  0.839310  1.0
  C  C922  1  0.071100  0.760500  0.660690  1.0
  C  C923  1  0.571100  0.739500  0.160690  1.0
  C  C924  1  0.928900  0.239500  0.339310  1.0
  C  C925  1  0.966700  0.270400  0.028140  1.0
  C  C926  1  0.533300  0.770400  0.471860  1.0
  C  C927  1  0.033300  0.729600  0.971860  1.0
  C  C928  1  0.466700  0.229600  0.528140  1.0
  C  C929  1  0.046600  0.499700  0.195590  1.0
  C  C930  1  0.453400  0.999700  0.304410  1.0
  C  C931  1  0.953400  0.500300  0.804410  1.0
  C  C932  1  0.546600  0.000300  0.695590  1.0
  C  C933  1  0.910600  0.417400  0.213230  1.0
  C  C934  1  0.589400  0.917400  0.286770  1.0
  C  C935  1  0.089400  0.582600  0.786770  1.0
  C  C936  1  0.410600  0.082600  0.713230  1.0
  C  C937  1  0.435500  0.331900  0.797210  1.0
  C  C938  1  0.064500  0.831900  0.702790  1.0
  C  C939  1  0.564500  0.668100  0.202790  1.0
  C  C940  1  0.935500  0.168100  0.297210  1.0
  C  C941  1  0.522600  0.311700  0.841940  1.0
  C  C942  1  0.977400  0.811700  0.658060  1.0
  C  C943  1  0.477400  0.688300  0.158060  1.0
  C  C944  1  0.022600  0.188300  0.341940  1.0
  C  C945  1  0.985900  0.292700  0.212910  1.0
  C  C946  1  0.514100  0.792700  0.287090  1.0
  C  C947  1  0.014100  0.707300  0.787090  1.0
  C  C948  1  0.485900  0.207300  0.712910  1.0
  C  C949  1  0.434400  0.385600  0.800240  1.0
  C  C950  1  0.065600  0.885600  0.699760  1.0
  C  C951  1  0.565600  0.614400  0.199760  1.0
  C  C952  1  0.934400  0.114400  0.300240  1.0
  C  C953  1  0.403400  0.309400  0.766800  1.0
  C  C954  1  0.096600  0.809400  0.733200  1.0
  C  C955  1  0.596600  0.690600  0.233200  1.0
  C  C956  1  0.903400  0.190600  0.266800  1.0
  C  C957  1  0.127900  0.497000  0.985110  1.0
  C  C958  1  0.372100  0.997000  0.514890  1.0
  C  C959  1  0.872100  0.503000  0.014890  1.0
  C  C960  1  0.627900  0.003000  0.485110  1.0
  C  C961  1  0.375000  0.379900  0.949770  1.0
  C  C962  1  0.125000  0.879900  0.550230  1.0
  C  C963  1  0.625000  0.620100  0.050230  1.0
  C  C964  1  0.875000  0.120100  0.449770  1.0
  C  C965  1  0.401700  0.414000  0.773600  1.0
  C  C966  1  0.098300  0.914000  0.726400  1.0
  C  C967  1  0.598300  0.586000  0.226400  1.0
  C  C968  1  0.901700  0.086000  0.273600  1.0
  C  C969  1  0.458100  0.500700  0.926830  1.0
  C  C970  1  0.041900  0.000700  0.573170  1.0
  C  C971  1  0.541900  0.499300  0.073170  1.0
  C  C972  1  0.958100  0.999300  0.426830  1.0
  C  C973  1  0.062400  0.197800  0.982880  1.0
  C  C974  1  0.437600  0.697800  0.517120  1.0
  C  C975  1  0.937600  0.802200  0.017120  1.0
  C  C976  1  0.562400  0.302200  0.482880  1.0
  C  C977  1  0.018000  0.297000  0.092600  1.0
  C  C978  1  0.482000  0.797000  0.407400  1.0
  C  C979  1  0.982000  0.703000  0.907400  1.0
  C  C980  1  0.518000  0.203000  0.592600  1.0
  C  C981  1  0.375400  0.327200  0.952010  1.0
  C  C982  1  0.124600  0.827200  0.547990  1.0
  C  C983  1  0.624600  0.672800  0.047990  1.0
  C  C984  1  0.875400  0.172800  0.452010  1.0
  C  C985  1  0.952200  0.366000  0.949280  1.0
  C  C986  1  0.547800  0.866000  0.550720  1.0
  C  C987  1  0.047800  0.634000  0.050720  1.0
  C  C988  1  0.452200  0.134000  0.449280  1.0
  C  C989  1  0.154900  0.240900  0.105620  1.0
  C  C990  1  0.345100  0.740900  0.394380  1.0
  C  C991  1  0.845100  0.759100  0.894380  1.0
  C  C992  1  0.654900  0.259100  0.605620  1.0
  C  C993  1  0.462700  0.397400  0.911220  1.0
  C  C994  1  0.037300  0.897400  0.588780  1.0
  C  C995  1  0.537300  0.602600  0.088780  1.0
  C  C996  1  0.962700  0.102600  0.411220  1.0
  C  C997  1  0.729000  0.466000  0.040310  1.0
  C  C998  1  0.771000  0.966000  0.459690  1.0
  C  C999  1  0.271000  0.534000  0.959690  1.0
  C  C1000  1  0.229000  0.034000  0.540310  1.0
  C  C1001  1  0.023800  0.282100  0.244800  1.0
  C  C1002  1  0.476200  0.782100  0.255200  1.0
  C  C1003  1  0.976200  0.717900  0.755200  1.0
  C  C1004  1  0.523800  0.217900  0.744800  1.0
  C  C1005  1  0.805300  0.192000  0.992400  1.0
  C  C1006  1  0.694700  0.692000  0.507600  1.0
  C  C1007  1  0.194700  0.808000  0.007600  1.0
  C  C1008  1  0.305300  0.308000  0.492400  1.0
  C  C1009  1  0.563600  0.505000  0.850660  1.0
  C  C1010  1  0.936400  0.005000  0.649340  1.0
  C  C1011  1  0.436400  0.495000  0.149340  1.0
  C  C1012  1  0.063600  0.995000  0.350660  1.0
  C  C1013  1  0.165700  0.510200  0.191320  1.0
  C  C1014  1  0.334300  0.010200  0.308680  1.0
  C  C1015  1  0.834300  0.489800  0.808680  1.0
  C  C1016  1  0.665700  0.989800  0.691320  1.0
  C  C1017  1  0.370300  0.338600  0.740790  1.0
  C  C1018  1  0.129700  0.838600  0.759210  1.0
  C  C1019  1  0.629700  0.661400  0.259210  1.0
  C  C1020  1  0.870300  0.161400  0.240790  1.0
  C  C1021  1  0.943300  0.426100  0.899870  1.0
  C  C1022  1  0.556700  0.926100  0.600130  1.0
  C  C1023  1  0.056700  0.573900  0.100130  1.0
  C  C1024  1  0.443300  0.073900  0.399870  1.0
  C  C1025  1  0.148300  0.447800  0.979580  1.0
  C  C1026  1  0.351700  0.947800  0.520420  1.0
  C  C1027  1  0.851700  0.552200  0.020420  1.0
  C  C1028  1  0.648300  0.052200  0.479580  1.0
  C  C1029  1  0.418100  0.415700  0.934500  1.0
  C  C1030  1  0.081900  0.915700  0.565500  1.0
  C  C1031  1  0.581900  0.584300  0.065500  1.0
  C  C1032  1  0.918100  0.084300  0.434500  1.0
  C  C1033  1  0.798800  0.352300  0.909030  1.0
  C  C1034  1  0.701200  0.852300  0.590970  1.0
  C  C1035  1  0.201200  0.647700  0.090970  1.0
  C  C1036  1  0.298800  0.147700  0.409030  1.0
  C  C1037  1  0.204200  0.206600  0.828600  1.0
  C  C1038  1  0.295800  0.706600  0.671400  1.0
  C  C1039  1  0.795800  0.793400  0.171400  1.0
  C  C1040  1  0.704200  0.293400  0.328600  1.0
  C  C1041  1  0.861200  0.372000  0.914110  1.0
  C  C1042  1  0.638800  0.872000  0.585890  1.0
  C  C1043  1  0.138800  0.628000  0.085890  1.0
  C  C1044  1  0.361200  0.128000  0.414110  1.0
  C  C1045  1  0.640200  0.327300  0.876600  1.0
  C  C1046  1  0.859800  0.827300  0.623400  1.0
  C  C1047  1  0.359800  0.672700  0.123400  1.0
  C  C1048  1  0.140200  0.172700  0.376600  1.0
  C  C1049  1  0.045300  0.303300  0.882180  1.0
  C  C1050  1  0.454700  0.803300  0.617820  1.0
  C  C1051  1  0.954700  0.696700  0.117820  1.0
  C  C1052  1  0.545300  0.196700  0.382180  1.0
  C  C1053  1  0.504200  0.430100  0.896400  1.0
  C  C1054  1  0.995800  0.930100  0.603600  1.0
  C  C1055  1  0.495800  0.569900  0.103600  1.0
  C  C1056  1  0.004200  0.069900  0.396400  1.0
  C  C1057  1  0.219600  0.409800  0.068800  1.0
  C  C1058  1  0.280400  0.909800  0.431200  1.0
  C  C1059  1  0.780400  0.590200  0.931200  1.0
  C  C1060  1  0.719600  0.090200  0.568800  1.0
  C  C1061  1  0.925100  0.159500  0.929300  1.0
  C  C1062  1  0.574900  0.659500  0.570700  1.0
  C  C1063  1  0.074900  0.840500  0.070700  1.0
  C  C1064  1  0.425100  0.340500  0.429300  1.0
  C  C1065  1  0.564800  0.342300  0.825960  1.0
  C  C1066  1  0.935200  0.842300  0.674040  1.0
  C  C1067  1  0.435200  0.657700  0.174040  1.0
  C  C1068  1  0.064800  0.157700  0.325960  1.0
  C  C1069  1  0.369300  0.391300  0.743800  1.0
  C  C1070  1  0.130700  0.891300  0.756200  1.0
  C  C1071  1  0.630700  0.608700  0.256200  1.0
  C  C1072  1  0.869300  0.108700  0.243800  1.0
  C  C1073  1  0.597700  0.297600  0.893110  1.0
  C  C1074  1  0.902300  0.797600  0.606890  1.0
  C  C1075  1  0.402300  0.702400  0.106890  1.0
  C  C1076  1  0.097700  0.202400  0.393110  1.0
  C  C1077  1  0.981600  0.257400  0.184620  1.0
  C  C1078  1  0.518400  0.757400  0.315380  1.0
  C  C1079  1  0.018400  0.742600  0.815380  1.0
  C  C1080  1  0.481600  0.242600  0.684620  1.0
  C  C1081  1  0.243500  0.390000  0.873700  1.0
  C  C1082  1  0.256500  0.890000  0.626300  1.0
  C  C1083  1  0.756500  0.610000  0.126300  1.0
  C  C1084  1  0.743500  0.110000  0.373700  1.0
  C  C1085  1  0.155800  0.220600  0.879100  1.0
  C  C1086  1  0.344200  0.720600  0.620900  1.0
  C  C1087  1  0.844200  0.779400  0.120900  1.0
  C  C1088  1  0.655800  0.279400  0.379100  1.0
  C  C1089  1  0.749300  0.365800  0.884840  1.0
  C  C1090  1  0.750700  0.865800  0.615160  1.0
  C  C1091  1  0.250700  0.634200  0.115160  1.0
  C  C1092  1  0.249300  0.134200  0.384840  1.0
  C  C1093  1  0.926800  0.195400  0.093200  1.0
  C  C1094  1  0.573200  0.695400  0.406800  1.0
  C  C1095  1  0.073200  0.804600  0.906800  1.0
  C  C1096  1  0.426800  0.304600  0.593200  1.0
  C  C1097  1  0.289200  0.358100  0.155960  1.0
  C  C1098  1  0.210800  0.858100  0.344040  1.0
  C  C1099  1  0.710800  0.641900  0.844040  1.0
  C  C1100  1  0.789200  0.141900  0.655960  1.0
  C  C1101  1  0.325500  0.315900  0.161800  1.0
  C  C1102  1  0.174500  0.815900  0.338200  1.0
  C  C1103  1  0.674500  0.684100  0.838200  1.0
  C  C1104  1  0.825500  0.184100  0.661800  1.0
  C  C1105  1  0.856000  0.471300  0.258020  1.0
  C  C1106  1  0.644000  0.971300  0.241980  1.0
  C  C1107  1  0.144000  0.528700  0.741980  1.0
  C  C1108  1  0.356000  0.028700  0.758020  1.0
  C  C1109  1  0.307200  0.378400  0.221700  1.0
  C  C1110  1  0.192800  0.878400  0.278300  1.0
  C  C1111  1  0.692800  0.621600  0.778300  1.0
  C  C1112  1  0.807200  0.121600  0.721700  1.0
  C  C1113  1  0.539900  0.491600  0.785300  1.0
  C  C1114  1  0.960100  0.991600  0.714700  1.0
  C  C1115  1  0.460100  0.508400  0.214700  1.0
  C  C1116  1  0.039900  0.008400  0.285300  1.0
  C  C1117  1  0.378700  0.272300  0.859470  1.0
  C  C1118  1  0.121300  0.772300  0.640530  1.0
  C  C1119  1  0.621300  0.727700  0.140530  1.0
  C  C1120  1  0.878700  0.227700  0.359470  1.0
  C  C1121  1  0.702500  0.333600  0.893020  1.0
  C  C1122  1  0.797500  0.833600  0.606980  1.0
  C  C1123  1  0.297500  0.666400  0.106980  1.0
  C  C1124  1  0.202500  0.166400  0.393020  1.0
  C  C1125  1  0.356000  0.183800  0.866000  1.0
  C  C1126  1  0.144000  0.683800  0.634000  1.0
  C  C1127  1  0.644000  0.816200  0.134000  1.0
  C  C1128  1  0.856000  0.316200  0.366000  1.0
  C  C1129  1  0.502600  0.482900  0.903790  1.0
  C  C1130  1  0.997400  0.982900  0.596210  1.0
  C  C1131  1  0.497400  0.517100  0.096210  1.0
  C  C1132  1  0.002600  0.017100  0.403790  1.0
  C  C1133  1  0.927800  0.374000  0.233620  1.0
  C  C1134  1  0.572200  0.874000  0.266380  1.0
  C  C1135  1  0.072200  0.626000  0.766380  1.0
  C  C1136  1  0.427800  0.126000  0.733620  1.0
  C  C1137  1  0.642800  0.467200  0.152900  1.0
  C  C1138  1  0.857200  0.967200  0.347100  1.0
  C  C1139  1  0.357200  0.532800  0.847100  1.0
  C  C1140  1  0.142800  0.032800  0.652900  1.0
  C  C1141  1  0.056400  0.237200  0.247310  1.0
  C  C1142  1  0.443600  0.737200  0.252690  1.0
  C  C1143  1  0.943600  0.762800  0.752690  1.0
  C  C1144  1  0.556400  0.262800  0.747310  1.0
  C  C1145  1  0.020900  0.414000  0.043800  1.0
  C  C1146  1  0.479100  0.914000  0.456200  1.0
  C  C1147  1  0.979100  0.586000  0.956200  1.0
  C  C1148  1  0.520900  0.086000  0.543800  1.0
  C  C1149  1  0.046800  0.359400  0.797150  1.0
  C  C1150  1  0.453200  0.859400  0.702850  1.0
  C  C1151  1  0.953200  0.640600  0.202850  1.0
  C  C1152  1  0.546800  0.140600  0.297150  1.0
  C  C1153  1  0.554500  0.565300  0.902060  1.0
  C  C1154  1  0.945500  0.065300  0.597940  1.0
  C  C1155  1  0.445500  0.434700  0.097940  1.0
  C  C1156  1  0.054500  0.934700  0.402060  1.0
  C  C1157  1  0.283600  0.363400  0.823100  1.0
  C  C1158  1  0.216400  0.863400  0.676900  1.0
  C  C1159  1  0.716400  0.636600  0.176900  1.0
  C  C1160  1  0.783600  0.136600  0.323100  1.0
  C  C1161  1  0.326500  0.218800  0.974100  1.0
  C  C1162  1  0.173500  0.718800  0.525900  1.0
  C  C1163  1  0.673500  0.781200  0.025900  1.0
  C  C1164  1  0.826500  0.281200  0.474100  1.0
  C  C1165  1  0.824100  0.515900  0.265000  1.0
  C  C1166  1  0.675900  0.015900  0.235000  1.0
  C  C1167  1  0.175900  0.484100  0.735000  1.0
  C  C1168  1  0.324100  0.984100  0.765000  1.0
  C  C1169  1  0.521500  0.499500  0.821300  1.0
  C  C1170  1  0.978500  0.999500  0.678700  1.0
  C  C1171  1  0.478500  0.500500  0.178700  1.0
  C  C1172  1  0.021500  0.000500  0.321300  1.0
  C  C1173  1  0.107600  0.333700  0.754900  1.0
  C  C1174  1  0.392400  0.833700  0.745100  1.0
  C  C1175  1  0.892400  0.666300  0.245100  1.0
  C  C1176  1  0.607600  0.166300  0.254900  1.0
  C  C1177  1  0.851800  0.185700  0.965400  1.0
  C  C1178  1  0.648200  0.685700  0.534600  1.0
  C  C1179  1  0.148200  0.814300  0.034600  1.0
  C  C1180  1  0.351800  0.314300  0.465400  1.0
  C  C1181  1  0.088000  0.061100  0.795700  1.0
  C  C1182  1  0.412000  0.561100  0.704300  1.0
  C  C1183  1  0.912000  0.938900  0.204300  1.0
  C  C1184  1  0.588000  0.438900  0.295700  1.0
  C  C1185  1  0.999800  0.151900  0.879330  1.0
  C  C1186  1  0.500200  0.651900  0.620670  1.0
  C  C1187  1  0.000200  0.848100  0.120670  1.0
  C  C1188  1  0.499800  0.348100  0.379330  1.0
  C  C1189  1  0.169100  0.159000  0.110100  1.0
  C  C1190  1  0.330900  0.659000  0.389900  1.0
  C  C1191  1  0.830900  0.841000  0.889900  1.0
  C  C1192  1  0.669100  0.341000  0.610100  1.0
  C  C1193  1  0.279500  0.388700  0.186700  1.0
  C  C1194  1  0.220500  0.888700  0.313300  1.0
  C  C1195  1  0.720500  0.611300  0.813300  1.0
  C  C1196  1  0.779500  0.111300  0.686700  1.0
  C  C1197  1  0.070200  0.113100  0.202500  1.0
  C  C1198  1  0.429800  0.613100  0.297500  1.0
  C  C1199  1  0.929800  0.886900  0.797500  1.0
  C  C1200  1  0.570200  0.386900  0.702500  1.0
  C  C1201  1  0.977900  0.405000  0.929060  1.0
  C  C1202  1  0.522100  0.905000  0.570940  1.0
  C  C1203  1  0.022100  0.595000  0.070940  1.0
  C  C1204  1  0.477900  0.095000  0.429060  1.0
  C  C1205  1  0.996200  0.438000  0.076300  1.0
  C  C1206  1  0.503800  0.938000  0.423700  1.0
  C  C1207  1  0.003800  0.562000  0.923700  1.0
  C  C1208  1  0.496200  0.062000  0.576300  1.0
  C  C1209  1  0.127900  0.343400  0.182300  1.0
  C  C1210  1  0.372100  0.843400  0.317700  1.0
  C  C1211  1  0.872100  0.656600  0.817700  1.0
  C  C1212  1  0.627900  0.156600  0.682300  1.0
  C  C1213  1  0.882000  0.142500  0.953400  1.0
  C  C1214  1  0.618000  0.642500  0.546600  1.0
  C  C1215  1  0.118000  0.857500  0.046600  1.0
  C  C1216  1  0.382000  0.357500  0.453400  1.0
  C  C1217  1  0.053500  0.202800  0.218030  1.0
  C  C1218  1  0.446500  0.702800  0.281970  1.0
  C  C1219  1  0.946500  0.797200  0.781970  1.0
  C  C1220  1  0.553500  0.297200  0.718030  1.0
  C  C1221  1  0.839500  0.540600  0.202250  1.0
  C  C1222  1  0.660500  0.040600  0.297750  1.0
  C  C1223  1  0.160500  0.459400  0.797750  1.0
  C  C1224  1  0.339500  0.959400  0.702250  1.0
  C  C1225  1  0.299100  0.264800  0.982060  1.0
  C  C1226  1  0.200900  0.764800  0.517940  1.0
  C  C1227  1  0.700900  0.735200  0.017940  1.0
  C  C1228  1  0.799100  0.235200  0.482060  1.0
  C  C1229  1  0.686600  0.470500  0.127130  1.0
  C  C1230  1  0.813400  0.970500  0.372870  1.0
  C  C1231  1  0.313400  0.529500  0.872870  1.0
  C  C1232  1  0.186600  0.029500  0.627130  1.0
  C  C1233  1  0.011500  0.095700  0.205000  1.0
  C  C1234  1  0.488500  0.595700  0.295000  1.0
  C  C1235  1  0.988500  0.904300  0.795000  1.0
  C  C1236  1  0.511500  0.404300  0.705000  1.0
  C  C1237  1  0.083100  0.151400  0.970000  1.0
  C  C1238  1  0.416900  0.651400  0.530000  1.0
  C  C1239  1  0.916900  0.848600  0.030000  1.0
  C  C1240  1  0.583100  0.348600  0.470000  1.0
  C  C1241  1  0.138900  0.519500  0.020000  1.0
  C  C1242  1  0.361100  0.019500  0.480000  1.0
  C  C1243  1  0.861100  0.480500  0.980000  1.0
  C  C1244  1  0.638900  0.980500  0.520000  1.0
  C  C1245  1  0.046100  0.126200  0.863200  1.0
  C  C1246  1  0.453900  0.626200  0.636800  1.0
  C  C1247  1  0.953900  0.873800  0.136800  1.0
  C  C1248  1  0.546100  0.373800  0.363200  1.0
  C  C1249  1  0.169400  0.491800  0.048300  1.0
  C  C1250  1  0.330600  0.991800  0.451700  1.0
  C  C1251  1  0.830600  0.508200  0.951700  1.0
  C  C1252  1  0.669400  0.008200  0.548300  1.0
  C  C1253  1  0.815600  0.550700  0.236200  1.0
  C  C1254  1  0.684400  0.050700  0.263800  1.0
  C  C1255  1  0.184400  0.449300  0.763800  1.0
  C  C1256  1  0.315600  0.949300  0.736200  1.0
  C  C1257  1  0.186500  0.183800  0.860600  1.0
  C  C1258  1  0.313500  0.683800  0.639400  1.0
  C  C1259  1  0.813500  0.816200  0.139400  1.0
  C  C1260  1  0.686500  0.316200  0.360600  1.0
  C  C1261  1  0.246400  0.176400  0.003900  1.0
  C  C1262  1  0.253600  0.676400  0.496100  1.0
  C  C1263  1  0.753600  0.823600  0.996100  1.0
  C  C1264  1  0.746400  0.323600  0.503900  1.0
  C  C1265  1  0.625700  0.502800  0.844600  1.0
  C  C1266  1  0.874300  0.002800  0.655400  1.0
  C  C1267  1  0.374300  0.497200  0.155400  1.0
  C  C1268  1  0.125700  0.997200  0.344600  1.0
  C  C1269  1  0.294500  0.394700  0.853500  1.0
  C  C1270  1  0.205500  0.894700  0.646500  1.0
  C  C1271  1  0.705500  0.605300  0.146500  1.0
  C  C1272  1  0.794500  0.105300  0.353500  1.0
  C  C1273  1  0.407900  0.172400  0.846800  1.0
  C  C1274  1  0.092100  0.672400  0.653200  1.0
  C  C1275  1  0.592100  0.827600  0.153200  1.0
  C  C1276  1  0.907900  0.327600  0.346800  1.0
  C  C1277  1  0.996600  0.450200  0.312000  1.0
  C  C1278  1  0.503400  0.950200  0.188000  1.0
  C  C1279  1  0.003400  0.549800  0.688000  1.0
  C  C1280  1  0.496600  0.049800  0.812000  1.0
  C  C1281  1  0.775900  0.151400  0.008500  1.0
  C  C1282  1  0.724100  0.651400  0.491500  1.0
  C  C1283  1  0.224100  0.848600  0.991500  1.0
  C  C1284  1  0.275900  0.348600  0.508500  1.0
  C  C1285  1  0.015100  0.212500  0.186650  1.0
  C  C1286  1  0.484900  0.712500  0.313350  1.0
  C  C1287  1  0.984900  0.787500  0.813350  1.0
  C  C1288  1  0.515100  0.287500  0.686650  1.0
  C  C1289  1  0.233600  0.416800  0.106990  1.0
  C  C1290  1  0.266400  0.916800  0.393010  1.0
  C  C1291  1  0.766400  0.583200  0.893010  1.0
  C  C1292  1  0.733600  0.083200  0.606990  1.0
  C  C1293  1  0.911600  0.149200  0.107100  1.0
  C  C1294  1  0.588400  0.649200  0.392900  1.0
  C  C1295  1  0.088400  0.850800  0.892900  1.0
  C  C1296  1  0.411600  0.350800  0.607100  1.0
  C  C1297  1  0.550200  0.607100  0.879300  1.0
  C  C1298  1  0.949800  0.107100  0.620700  1.0
  C  C1299  1  0.449800  0.392900  0.120700  1.0
  C  C1300  1  0.050200  0.892900  0.379300  1.0
  C  C1301  1  0.970200  0.130600  0.909160  1.0
  C  C1302  1  0.529800  0.630600  0.590840  1.0
  C  C1303  1  0.029800  0.869400  0.090840  1.0
  C  C1304  1  0.470200  0.369400  0.409160  1.0
  C  C1305  1  0.040600  0.413100  0.314500  1.0
  C  C1306  1  0.459400  0.913100  0.185500  1.0
  C  C1307  1  0.959400  0.586900  0.685500  1.0
  C  C1308  1  0.540600  0.086900  0.814500  1.0
  C  C1309  1  0.221200  0.224000  0.010750  1.0
  C  C1310  1  0.278800  0.724000  0.489250  1.0
  C  C1311  1  0.778800  0.776000  0.989250  1.0
  C  C1312  1  0.721200  0.276000  0.510750  1.0
  C  C1313  1  0.109400  0.084900  0.180300  1.0
  C  C1314  1  0.390600  0.584900  0.319700  1.0
  C  C1315  1  0.890600  0.915100  0.819700  1.0
  C  C1316  1  0.609400  0.415100  0.680300  1.0
  C  C1317  1  0.187200  0.201800  0.215200  1.0
  C  C1318  1  0.312800  0.701800  0.284800  1.0
  C  C1319  1  0.812800  0.798200  0.784800  1.0
  C  C1320  1  0.687200  0.298200  0.715200  1.0
  C  C1321  1  0.263500  0.372900  0.118810  1.0
  C  C1322  1  0.236500  0.872900  0.381190  1.0
  C  C1323  1  0.736500  0.627100  0.881190  1.0
  C  C1324  1  0.763500  0.127100  0.618810  1.0
  C  C1325  1  0.243800  0.136300  0.265700  1.0
  C  C1326  1  0.256200  0.636300  0.234300  1.0
  C  C1327  1  0.756200  0.863700  0.734300  1.0
  C  C1328  1  0.743800  0.363700  0.765700  1.0
  C  C1329  1  0.961200  0.118200  0.101300  1.0
  C  C1330  1  0.538800  0.618200  0.398700  1.0
  C  C1331  1  0.038800  0.881800  0.898700  1.0
  C  C1332  1  0.461200  0.381800  0.601300  1.0
  C  C1333  1  0.353100  0.305000  0.196300  1.0
  C  C1334  1  0.146900  0.805000  0.303700  1.0
  C  C1335  1  0.646900  0.695000  0.803700  1.0
  C  C1336  1  0.853100  0.195000  0.696300  1.0
  C  C1337  1  0.539800  0.289600  0.876540  1.0
  C  C1338  1  0.960200  0.789600  0.623460  1.0
  C  C1339  1  0.460200  0.710400  0.123460  1.0
  C  C1340  1  0.039800  0.210400  0.376540  1.0
  C  C1341  1  0.342500  0.233800  0.872900  1.0
  C  C1342  1  0.157500  0.733800  0.627100  1.0
  C  C1343  1  0.657500  0.766200  0.127100  1.0
  C  C1344  1  0.842500  0.266200  0.372900  1.0
  C  C1345  1  0.235500  0.505800  0.272600  1.0
  C  C1346  1  0.264500  0.005800  0.227400  1.0
  C  C1347  1  0.764500  0.494200  0.727400  1.0
  C  C1348  1  0.735500  0.994200  0.772600  1.0
  C  C1349  1  0.153100  0.163900  0.231000  1.0
  C  C1350  1  0.346900  0.663900  0.269000  1.0
  C  C1351  1  0.846900  0.836100  0.769000  1.0
  C  C1352  1  0.653100  0.336100  0.731000  1.0
  C  C1353  1  0.443400  0.210800  0.833400  1.0
  C  C1354  1  0.056600  0.710800  0.666600  1.0
  C  C1355  1  0.556600  0.789200  0.166600  1.0
  C  C1356  1  0.943400  0.289200  0.333400  1.0
  C  C1357  1  0.648000  0.371500  0.006400  1.0
  C  C1358  1  0.852000  0.871500  0.493600  1.0
  C  C1359  1  0.352000  0.628500  0.993600  1.0
  C  C1360  1  0.148000  0.128500  0.506400  1.0
  C  C1361  1  0.601600  0.489900  0.778900  1.0
  C  C1362  1  0.898400  0.989900  0.721100  1.0
  C  C1363  1  0.398400  0.510100  0.221100  1.0
  C  C1364  1  0.101600  0.010100  0.278900  1.0
  C  C1365  1  0.885200  0.409500  0.892150  1.0
  C  C1366  1  0.614800  0.909500  0.607850  1.0
  C  C1367  1  0.114800  0.590500  0.107850  1.0
  C  C1368  1  0.385200  0.090500  0.392150  1.0
  C  C1369  1  0.618400  0.419700  0.148100  1.0
  C  C1370  1  0.881600  0.919700  0.351900  1.0
  C  C1371  1  0.381600  0.580300  0.851900  1.0
  C  C1372  1  0.118400  0.080300  0.648100  1.0
  C  C1373  1  0.990600  0.052900  0.187900  1.0
  C  C1374  1  0.509400  0.552900  0.312100  1.0
  C  C1375  1  0.009400  0.947100  0.812100  1.0
  C  C1376  1  0.490600  0.447100  0.687900  1.0
  C  C1377  1  0.032200  0.056300  0.905100  1.0
  C  C1378  1  0.467800  0.556300  0.594900  1.0
  C  C1379  1  0.967800  0.943700  0.094900  1.0
  C  C1380  1  0.532200  0.443700  0.405100  1.0
  C  C1381  1  0.027800  0.024300  0.166900  1.0
  C  C1382  1  0.472200  0.524300  0.333100  1.0
  C  C1383  1  0.972200  0.975700  0.833100  1.0
  C  C1384  1  0.527800  0.475700  0.666900  1.0
  C  C1385  1  0.803500  0.314400  0.108400  1.0
  C  C1386  1  0.696500  0.814400  0.391600  1.0
  C  C1387  1  0.196500  0.685600  0.891600  1.0
  C  C1388  1  0.303500  0.185600  0.608400  1.0
  C  C1389  1  0.300200  0.174200  0.985400  1.0
  C  C1390  1  0.199800  0.674200  0.514600  1.0
  C  C1391  1  0.699800  0.825800  0.014600  1.0
  C  C1392  1  0.800200  0.325800  0.485400  1.0
  C  C1393  1  0.130900  0.058700  0.824800  1.0
  C  C1394  1  0.369100  0.558700  0.675200  1.0
  C  C1395  1  0.869100  0.941300  0.175200  1.0
  C  C1396  1  0.630900  0.441300  0.324800  1.0
  C  C1397  1  0.087800  0.041200  0.162800  1.0
  C  C1398  1  0.412200  0.541200  0.337200  1.0
  C  C1399  1  0.912200  0.958800  0.837200  1.0
  C  C1400  1  0.587800  0.458800  0.662800  1.0
  C  C1401  1  0.064400  0.078300  0.876300  1.0
  C  C1402  1  0.435600  0.578300  0.623700  1.0
  C  C1403  1  0.935600  0.921700  0.123700  1.0
  C  C1404  1  0.564400  0.421700  0.376300  1.0
  C  C1405  1  0.643800  0.495400  0.808800  1.0
  C  C1406  1  0.856200  0.995400  0.691200  1.0
  C  C1407  1  0.356200  0.504600  0.191200  1.0
  C  C1408  1  0.143800  0.004600  0.308800  1.0
  C  C1409  1  0.557800  0.655400  0.892900  1.0
  C  C1410  1  0.942200  0.155400  0.607100  1.0
  C  C1411  1  0.442200  0.344600  0.107100  1.0
  C  C1412  1  0.057800  0.844600  0.392900  1.0
  C  C1413  1  0.085500  0.120100  0.000300  1.0
  C  C1414  1  0.414500  0.620100  0.499700  1.0
  C  C1415  1  0.914500  0.879900  0.999700  1.0
  C  C1416  1  0.585500  0.379900  0.500300  1.0
  C  C1417  1  0.732600  0.161100  0.034000  1.0
  C  C1418  1  0.767400  0.661100  0.466000  1.0
  C  C1419  1  0.267400  0.838900  0.966000  1.0
  C  C1420  1  0.232600  0.338900  0.534000  1.0
  C  C1421  1  0.104300  0.067200  0.759200  1.0
  C  C1422  1  0.395700  0.567200  0.740800  1.0
  C  C1423  1  0.895700  0.932800  0.240800  1.0
  C  C1424  1  0.604300  0.432800  0.259200  1.0
  C  C1425  1  0.115500  0.393800  0.178000  1.0
  C  C1426  1  0.384500  0.893800  0.322000  1.0
  C  C1427  1  0.884500  0.606200  0.822000  1.0
  C  C1428  1  0.615500  0.106200  0.678000  1.0
  C  C1429  1  0.569100  0.572400  0.939300  1.0
  C  C1430  1  0.930900  0.072400  0.560700  1.0
  C  C1431  1  0.430900  0.427600  0.060700  1.0
  C  C1432  1  0.069100  0.927600  0.439300  1.0
  C  C1433  1  0.571000  0.662400  0.930400  1.0
  C  C1434  1  0.929000  0.162400  0.569600  1.0
  C  C1435  1  0.429000  0.337600  0.069600  1.0
  C  C1436  1  0.071000  0.837600  0.430400  1.0
  C  C1437  1  0.052700  0.356900  0.758900  1.0
  C  C1438  1  0.447300  0.856900  0.741100  1.0
  C  C1439  1  0.947300  0.643100  0.241100  1.0
  C  C1440  1  0.552700  0.143100  0.258900  1.0
  C  C1441  1  0.344300  0.337700  0.226400  1.0
  C  C1442  1  0.155700  0.837700  0.273600  1.0
  C  C1443  1  0.655700  0.662300  0.773600  1.0
  C  C1444  1  0.844300  0.162300  0.726400  1.0
  C  C1445  1  0.195200  0.204200  0.119300  1.0
  C  C1446  1  0.304800  0.704200  0.380700  1.0
  C  C1447  1  0.804800  0.795800  0.880700  1.0
  C  C1448  1  0.695200  0.295800  0.619300  1.0
  C  C1449  1  0.182800  0.130200  0.255700  1.0
  C  C1450  1  0.317200  0.630200  0.244300  1.0
  C  C1451  1  0.817200  0.869800  0.744300  1.0
  C  C1452  1  0.682800  0.369800  0.755700  1.0
  C  C1453  1  0.174900  0.051200  0.921600  1.0
  C  C1454  1  0.325100  0.551200  0.578400  1.0
  C  C1455  1  0.825100  0.948800  0.078400  1.0
  C  C1456  1  0.674900  0.448800  0.421600  1.0
  C  C1457  1  0.985900  0.082200  0.921100  1.0
  C  C1458  1  0.514100  0.582200  0.578900  1.0
  C  C1459  1  0.014100  0.917800  0.078900  1.0
  C  C1460  1  0.485900  0.417800  0.421100  1.0
  C  C1461  1  0.576400  0.621500  0.953100  1.0
  C  C1462  1  0.923600  0.121500  0.546900  1.0
  C  C1463  1  0.423600  0.378500  0.046900  1.0
  C  C1464  1  0.076400  0.878500  0.453100  1.0
  C  C1465  1  0.583300  0.327800  0.039000  1.0
  C  C1466  1  0.916700  0.827800  0.461000  1.0
  C  C1467  1  0.416700  0.672200  0.961000  1.0
  C  C1468  1  0.083300  0.172200  0.539000  1.0
  C  C1469  1  0.749800  0.249200  0.025300  1.0
  C  C1470  1  0.750200  0.749200  0.474700  1.0
  C  C1471  1  0.250200  0.750800  0.974700  1.0
  C  C1472  1  0.249800  0.250800  0.525300  1.0
  C  C1473  1  0.248000  0.206900  0.225500  1.0
  C  C1474  1  0.252000  0.706900  0.274500  1.0
  C  C1475  1  0.752000  0.793100  0.774500  1.0
  C  C1476  1  0.748000  0.293100  0.725500  1.0
  C  C1477  1  0.241300  0.435900  0.307000  1.0
  C  C1478  1  0.258700  0.935900  0.193000  1.0
  C  C1479  1  0.758700  0.564100  0.693000  1.0
  C  C1480  1  0.741300  0.064100  0.807000  1.0
  C  C1481  1  0.719300  0.210800  0.043000  1.0
  C  C1482  1  0.780700  0.710800  0.457000  1.0
  C  C1483  1  0.280700  0.789200  0.957000  1.0
  C  C1484  1  0.219300  0.289200  0.543000  1.0
  C  C1485  1  0.163300  0.071800  0.751200  1.0
  C  C1486  1  0.336700  0.571800  0.748800  1.0
  C  C1487  1  0.836700  0.928200  0.248800  1.0
  C  C1488  1  0.663300  0.428200  0.251200  1.0
  C  C1489  1  0.192300  0.063100  0.817200  1.0
  C  C1490  1  0.307700  0.563100  0.682800  1.0
  C  C1491  1  0.807700  0.936900  0.182800  1.0
  C  C1492  1  0.692300  0.436900  0.317200  1.0
  C  C1493  1  0.593700  0.343900  0.003100  1.0
  C  C1494  1  0.906300  0.843900  0.496900  1.0
  C  C1495  1  0.406300  0.656100  0.996900  1.0
  C  C1496  1  0.093700  0.156100  0.503100  1.0
  C  C1497  1  0.726400  0.276600  0.130800  1.0
  C  C1498  1  0.773600  0.776600  0.369200  1.0
  C  C1499  1  0.273600  0.723400  0.869200  1.0
  C  C1500  1  0.226400  0.223400  0.630800  1.0
  C  C1501  1  0.141400  0.335600  0.219100  1.0
  C  C1502  1  0.358600  0.835600  0.280900  1.0
  C  C1503  1  0.858600  0.664400  0.780900  1.0
  C  C1504  1  0.641400  0.164400  0.719100  1.0
  C  C1505  1  0.155100  0.026900  0.889300  1.0
  C  C1506  1  0.344900  0.526900  0.610700  1.0
  C  C1507  1  0.844900  0.973100  0.110700  1.0
  C  C1508  1  0.655100  0.473100  0.389300  1.0
  C  C1509  1  0.233500  0.977800  0.940300  1.0
  C  C1510  1  0.266500  0.477800  0.559700  1.0
  C  C1511  1  0.766500  0.022200  0.059700  1.0
  C  C1512  1  0.733500  0.522200  0.440300  1.0
  C  C1513  1  0.174300  0.979400  0.881900  1.0
  C  C1514  1  0.325700  0.479400  0.618100  1.0
  C  C1515  1  0.825700  0.020600  0.118100  1.0
  C  C1516  1  0.674300  0.520600  0.381900  1.0
  C  C1517  1  0.214300  0.954200  0.908000  1.0
  C  C1518  1  0.285700  0.454200  0.592000  1.0
  C  C1519  1  0.785700  0.045800  0.092000  1.0
  C  C1520  1  0.714300  0.545800  0.408000  1.0
  C  C1521  1  0.786700  0.273700  0.129600  1.0
  C  C1522  1  0.713300  0.773700  0.370400  1.0
  C  C1523  1  0.213300  0.726300  0.870400  1.0
  C  C1524  1  0.286700  0.226300  0.629600  1.0
  C  C1525  1  0.276500  0.174000  0.250100  1.0
  C  C1526  1  0.223500  0.674000  0.249900  1.0
  C  C1527  1  0.723500  0.826000  0.749900  1.0
  C  C1528  1  0.776500  0.326000  0.750100  1.0
  C  C1529  1  0.214300  0.027400  0.947000  1.0
  C  C1530  1  0.285700  0.527400  0.553000  1.0
  C  C1531  1  0.785700  0.972600  0.053000  1.0
  C  C1532  1  0.714300  0.472600  0.447000  1.0
  C  C1533  1  0.273100  0.480400  0.299700  1.0
  C  C1534  1  0.226900  0.980400  0.200300  1.0
  C  C1535  1  0.726900  0.519600  0.700300  1.0
  C  C1536  1  0.773100  0.019600  0.799700  1.0
  C  C1537  1  0.206900  0.070200  0.780100  1.0
  C  C1538  1  0.293100  0.570200  0.719900  1.0
  C  C1539  1  0.793100  0.929800  0.219900  1.0
  C  C1540  1  0.706900  0.429800  0.280100  1.0
  C  C1541  1  0.439520  0.316330  0.262150  1.0
  C  C1542  1  0.060480  0.816330  0.237850  1.0
  C  C1543  1  0.560480  0.683670  0.737850  1.0
  C  C1544  1  0.939520  0.183670  0.762150  1.0
  C  C1545  1  0.466380  0.287200  0.290900  1.0
  C  C1546  1  0.033620  0.787200  0.209100  1.0
  C  C1547  1  0.533620  0.712800  0.709100  1.0
  C  C1548  1  0.966380  0.212800  0.790900  1.0
  C  C1549  1  0.528210  0.276000  0.291430  1.0
  C  C1550  1  0.971790  0.776000  0.208570  1.0
  C  C1551  1  0.471790  0.724000  0.708570  1.0
  C  C1552  1  0.028210  0.224000  0.791430  1.0
  C  C1553  1  0.563190  0.293900  0.263200  1.0
  C  C1554  1  0.936810  0.793900  0.236800  1.0
  C  C1555  1  0.436810  0.706100  0.736800  1.0
  C  C1556  1  0.063190  0.206100  0.763200  1.0
  C  C1557  1  0.536300  0.323100  0.234440  1.0
  C  C1558  1  0.963700  0.823100  0.265560  1.0
  C  C1559  1  0.463700  0.676900  0.765560  1.0
  C  C1560  1  0.036300  0.176900  0.734440  1.0
  C  C1561  1  0.474500  0.334300  0.233920  1.0
  C  C1562  1  0.025500  0.834300  0.266080  1.0
  C  C1563  1  0.525500  0.665700  0.766080  1.0
  C  C1564  1  0.974500  0.165700  0.733920  1.0
  C  C1565  1  0.354230  0.335450  0.295510  1.0
  C  C1566  1  0.145770  0.835450  0.204490  1.0
  C  C1567  1  0.645770  0.664550  0.704490  1.0
  C  C1568  1  0.854230  0.164550  0.795510  1.0
  C  C1569  1  0.307650  0.303200  0.305240  1.0
  C  C1570  1  0.192350  0.803200  0.194760  1.0
  C  C1571  1  0.692350  0.696800  0.694760  1.0
  C  C1572  1  0.807650  0.196800  0.805240  1.0
  C  C1573  1  0.284100  0.307100  0.340190  1.0
  C  C1574  1  0.215900  0.807100  0.159810  1.0
  C  C1575  1  0.715900  0.692900  0.659810  1.0
  C  C1576  1  0.784100  0.192900  0.840190  1.0
  C  C1577  1  0.307100  0.343400  0.365420  1.0
  C  C1578  1  0.192900  0.843400  0.134580  1.0
  C  C1579  1  0.692900  0.656600  0.634580  1.0
  C  C1580  1  0.807100  0.156600  0.865420  1.0
  C  C1581  1  0.353700  0.375700  0.355690  1.0
  C  C1582  1  0.146300  0.875700  0.144310  1.0
  C  C1583  1  0.646300  0.624300  0.644310  1.0
  C  C1584  1  0.853700  0.124300  0.855690  1.0
  C  C1585  1  0.377200  0.371700  0.320740  1.0
  C  C1586  1  0.122800  0.871700  0.179260  1.0
  C  C1587  1  0.622800  0.628300  0.679260  1.0
  C  C1588  1  0.877200  0.128300  0.820740  1.0
  C  C1589  1  0.104200  0.555540  0.244260  1.0
  C  C1590  1  0.395800  0.055540  0.255740  1.0
  C  C1591  1  0.895800  0.444460  0.755740  1.0
  C  C1592  1  0.604200  0.944460  0.744260  1.0
  N  N1593  1  0.652600  0.952500  0.145500  1
  N  N1594  1  0.847400  0.452500  0.354500  1
  N  N1595  1  0.347400  0.047500  0.854500  1
  N  N1596  1  0.152600  0.547500  0.645500  1
  N  N1597  1  0.326500  0.242800  0.080790  1
  N  N1598  1  0.173500  0.742800  0.419210  1
  N  N1599  1  0.673500  0.757200  0.919210  1
  N  N1600  1  0.826500  0.257200  0.580790  1
  N  N1601  1  0.515900  0.220700  0.091000  1
  N  N1602  1  0.984100  0.720700  0.409000  1
  N  N1603  1  0.484100  0.779300  0.909000  1
  N  N1604  1  0.015900  0.279300  0.591000  1
  N  N1605  1  0.674800  0.205400  0.940300  1
  N  N1606  1  0.825200  0.705400  0.559700  1
  N  N1607  1  0.325200  0.794600  0.059700  1
  N  N1608  1  0.174800  0.294600  0.440300  1
  N  N1609  1  0.384300  0.931800  0.992000  1
  N  N1610  1  0.115700  0.431800  0.508000  1
  N  N1611  1  0.615700  0.068200  0.008000  1
  N  N1612  1  0.884300  0.568200  0.492000  1
  N  N1613  1  0.788400  0.308900  0.245100  1
  N  N1614  1  0.711600  0.808900  0.254900  1
  N  N1615  1  0.211600  0.691100  0.754900  1
  N  N1616  1  0.288400  0.191100  0.745100  1
  N  N1617  1  0.513500  0.770100  0.044400  1
  N  N1618  1  0.986500  0.270100  0.455600  1
  N  N1619  1  0.486500  0.229900  0.955600  1
  N  N1620  1  0.013500  0.729900  0.544400  1
  N  N1621  1  0.359600  0.029100  0.152400  1
  N  N1622  1  0.140400  0.529100  0.347600  1
  N  N1623  1  0.640400  0.970900  0.847600  1
  N  N1624  1  0.859600  0.470900  0.652400  1
  N  N1625  1  0.623420  0.667860  0.735740  1
  N  N1626  1  0.876580  0.167860  0.764260  1
  N  N1627  1  0.376580  0.332140  0.264260  1
  N  N1628  1  0.123420  0.832140  0.235740  1
  N  N1629  1  0.323800  0.395500  0.966830  1.0
  N  N1630  1  0.176200  0.895500  0.533170  1.0
  N  N1631  1  0.676200  0.604500  0.033170  1.0
  N  N1632  1  0.823800  0.104500  0.466830  1.0
  N  N1633  1  0.544700  0.515600  0.887820  1.0
  N  N1634  1  0.955300  0.015600  0.612180  1.0
  N  N1635  1  0.455300  0.484400  0.112180  1.0
  N  N1636  1  0.044700  0.984400  0.387820  1.0
  N  N1637  1  0.001300  0.503900  0.175900  1.0
  N  N1638  1  0.498700  0.003900  0.324100  1.0
  N  N1639  1  0.998700  0.496100  0.824100  1.0
  N  N1640  1  0.501300  0.996100  0.675900  1.0
  N  N1641  1  0.847300  0.454300  0.113080  1.0
  N  N1642  1  0.652700  0.954300  0.386920  1.0
  N  N1643  1  0.152700  0.545700  0.886920  1.0
  N  N1644  1  0.347300  0.045700  0.613080  1.0
  N  N1645  1  0.870700  0.498500  0.195360  1.0
  N  N1646  1  0.629300  0.998500  0.304640  1.0
  N  N1647  1  0.129300  0.501500  0.804640  1.0
  N  N1648  1  0.370700  0.001500  0.695360  1.0
  N  N1649  1  0.926900  0.413530  0.177890  1.0
  N  N1650  1  0.573100  0.913530  0.322110  1.0
  N  N1651  1  0.073100  0.586470  0.822110  1.0
  N  N1652  1  0.426900  0.086470  0.677890  1.0
  N  N1653  1  0.975800  0.456200  0.101800  1.0
  N  N1654  1  0.524200  0.956200  0.398200  1.0
  N  N1655  1  0.024200  0.543800  0.898200  1.0
  N  N1656  1  0.475800  0.043800  0.601800  1.0
  N  N1657  1  0.923500  0.284400  0.011500  1.0
  N  N1658  1  0.576500  0.784400  0.488500  1.0
  N  N1659  1  0.076500  0.715600  0.988500  1.0
  N  N1660  1  0.423500  0.215600  0.511500  1.0
  N  N1661  1  0.792600  0.240600  0.000810  1.0
  N  N1662  1  0.707400  0.740600  0.499190  1.0
  N  N1663  1  0.207400  0.759400  0.999190  1.0
  N  N1664  1  0.292600  0.259400  0.500810  1.0
  N  N1665  1  0.874400  0.227600  0.949780  1.0
  N  N1666  1  0.625600  0.727600  0.550220  1.0
  N  N1667  1  0.125600  0.772400  0.050220  1.0
  N  N1668  1  0.374400  0.272400  0.449780  1.0
  N  N1669  1  0.783400  0.314500  0.931540  1.0
  N  N1670  1  0.716600  0.814500  0.568460  1.0
  N  N1671  1  0.216600  0.685500  0.068460  1.0
  N  N1672  1  0.283400  0.185500  0.431540  1.0
  N  N1673  1  0.895200  0.349700  0.942280  1.0
  N  N1674  1  0.604800  0.849700  0.557720  1.0
  N  N1675  1  0.104800  0.650300  0.057720  1.0
  N  N1676  1  0.395200  0.150300  0.442280  1.0
  N  N1677  1  0.126600  0.317900  0.025040  1.0
  N  N1678  1  0.373400  0.817900  0.474960  1.0
  N  N1679  1  0.873400  0.682100  0.974960  1.0
  N  N1680  1  0.626600  0.182100  0.525040  1.0
  N  N1681  1  0.167200  0.332700  0.950690  1.0
  N  N1682  1  0.332800  0.832700  0.549310  1.0
  N  N1683  1  0.832800  0.667300  0.049310  1.0
  N  N1684  1  0.667200  0.167300  0.450690  1.0
  N  N1685  1  0.246700  0.267200  0.000140  1.0
  N  N1686  1  0.253300  0.767200  0.499860  1.0
  N  N1687  1  0.753300  0.732800  0.999860  1.0
  N  N1688  1  0.746700  0.232800  0.500140  1.0
  N  N1689  1  0.292100  0.355600  0.979500  1.0
  N  N1690  1  0.207900  0.855600  0.520500  1.0
  N  N1691  1  0.707900  0.644400  0.020500  1.0
  N  N1692  1  0.792100  0.144400  0.479500  1.0
  N  N1693  1  0.177700  0.420600  0.006760  1.0
  N  N1694  1  0.322300  0.920600  0.493240  1.0
  N  N1695  1  0.822300  0.579400  0.993240  1.0
  N  N1696  1  0.677700  0.079400  0.506760  1.0
  N  N1697  1  0.239800  0.364400  0.057450  1.0
  N  N1698  1  0.260200  0.864400  0.442550  1.0
  N  N1699  1  0.760200  0.635600  0.942550  1.0
  N  N1700  1  0.739800  0.135600  0.557450  1.0
  N  N1701  1  0.465200  0.301000  0.824900  1.0
  N  N1702  1  0.034800  0.801000  0.675100  1.0
  N  N1703  1  0.534800  0.699000  0.175100  1.0
  N  N1704  1  0.965200  0.199000  0.324900  1.0
  N  N1705  1  0.724800  0.303800  0.921540  1.0
  N  N1706  1  0.775200  0.803800  0.578460  1.0
  N  N1707  1  0.275200  0.696200  0.078460  1.0
  N  N1708  1  0.224800  0.196200  0.421540  1.0
  N  N1709  1  0.918300  0.210700  0.927970  1.0
  N  N1710  1  0.581700  0.710700  0.572030  1.0
  N  N1711  1  0.081700  0.789300  0.072030  1.0
  N  N1712  1  0.418300  0.289300  0.427970  1.0
  N  N1713  1  0.113800  0.052000  0.862210  1.0
  N  N1714  1  0.386200  0.552000  0.637790  1.0
  N  N1715  1  0.886200  0.948000  0.137790  1.0
  N  N1716  1  0.613800  0.448000  0.362210  1.0
  N  N1717  1  0.954600  0.368300  0.175890  1.0
  N  N1718  1  0.545400  0.868300  0.324110  1.0
  N  N1719  1  0.045400  0.631700  0.824110  1.0
  N  N1720  1  0.454600  0.131700  0.675890  1.0
  N  N1721  1  0.090000  0.157800  0.220260  1.0
  N  N1722  1  0.410000  0.657800  0.279740  1.0
  N  N1723  1  0.910000  0.842200  0.779740  1.0
  N  N1724  1  0.590000  0.342200  0.720260  1.0
  N  N1725  1  0.266000  0.342900  0.088450  1.0
  N  N1726  1  0.234000  0.842900  0.411550  1.0
  N  N1727  1  0.734000  0.657100  0.911550  1.0
  N  N1728  1  0.766000  0.157100  0.588450  1.0
  N  N1729  1  0.668800  0.372300  0.041960  1.0
  N  N1730  1  0.831200  0.872300  0.458040  1.0
  N  N1731  1  0.331200  0.627700  0.958040  1.0
  N  N1732  1  0.168800  0.127700  0.541960  1.0
  N  N1733  1  0.629300  0.345700  0.062390  1.0
  N  N1734  1  0.870700  0.845700  0.437610  1.0
  N  N1735  1  0.370700  0.654300  0.937610  1.0
  N  N1736  1  0.129300  0.154300  0.562390  1.0
  N  N1737  1  0.753900  0.341300  0.097520  1.0
  N  N1738  1  0.746100  0.841300  0.402480  1.0
  N  N1739  1  0.246100  0.658700  0.902480  1.0
  N  N1740  1  0.253900  0.158700  0.597520  1.0
  N  N1741  1  0.704600  0.317300  0.111420  1.0
  N  N1742  1  0.795400  0.817300  0.388580  1.0
  N  N1743  1  0.295400  0.682700  0.888580  1.0
  N  N1744  1  0.204600  0.182700  0.611420  1.0
  N  N1745  1  0.688400  0.427500  0.107470  1.0
  N  N1746  1  0.811600  0.927500  0.392530  1.0
  N  N1747  1  0.311600  0.572500  0.892530  1.0
  N  N1748  1  0.188400  0.072500  0.607470  1.0
  N  N1749  1  0.644800  0.395900  0.119920  1.0
  N  N1750  1  0.855200  0.895900  0.380080  1.0
  N  N1751  1  0.355200  0.604100  0.880080  1.0
  N  N1752  1  0.144800  0.104100  0.619920  1.0
  N  N1753  1  0.121100  0.417600  0.211770  1.0
  N  N1754  1  0.378900  0.917600  0.288230  1.0
  N  N1755  1  0.878900  0.582400  0.788230  1.0
  N  N1756  1  0.621100  0.082400  0.711770  1.0
  N  N1757  1  0.135600  0.380700  0.237040  1.0
  N  N1758  1  0.364400  0.880700  0.262960  1.0
  N  N1759  1  0.864400  0.619300  0.762960  1.0
  N  N1760  1  0.635600  0.119300  0.737040  1.0
  N  N1761  1  0.186700  0.477600  0.263230  1.0
  N  N1762  1  0.313300  0.977600  0.236770  1.0
  N  N1763  1  0.813300  0.522400  0.736770  1.0
  N  N1764  1  0.686700  0.022400  0.763230  1.0
  N  N1765  1  0.190800  0.434600  0.284420  1.0
  N  N1766  1  0.309200  0.934600  0.215580  1.0
  N  N1767  1  0.809200  0.565400  0.715580  1.0
  N  N1768  1  0.690800  0.065400  0.784420  1.0
  N  N1769  1  0.063300  0.464000  0.267970  1.0
  N  N1770  1  0.436700  0.964000  0.232030  1.0
  N  N1771  1  0.936700  0.536000  0.732030  1.0
  N  N1772  1  0.563300  0.036000  0.767970  1.0
  N  N1773  1  0.080700  0.421000  0.287290  1.0
  N  N1774  1  0.419300  0.921000  0.212710  1.0
  N  N1775  1  0.919300  0.579000  0.712710  1.0
  N  N1776  1  0.580700  0.079000  0.787290  1.0
  N  N1777  1  0.095700  0.338700  0.815280  1.0
  N  N1778  1  0.404300  0.838700  0.684720  1.0
  N  N1779  1  0.904300  0.661300  0.184720  1.0
  N  N1780  1  0.595700  0.161300  0.315280  1.0
  N  N1781  1  0.133200  0.322400  0.788600  1.0
  N  N1782  1  0.366800  0.822400  0.711400  1.0
  N  N1783  1  0.866800  0.677600  0.211400  1.0
  N  N1784  1  0.633200  0.177600  0.288600  1.0
  N  N1785  1  0.154300  0.264200  0.859570  1.0
  N  N1786  1  0.345700  0.764200  0.640430  1.0
  N  N1787  1  0.845700  0.735800  0.140430  1.0
  N  N1788  1  0.654300  0.235800  0.359570  1.0
  N  N1789  1  0.184600  0.254700  0.827880  1.0
  N  N1790  1  0.315400  0.754700  0.672120  1.0
  N  N1791  1  0.815400  0.745300  0.172120  1.0
  N  N1792  1  0.684600  0.245300  0.327880  1.0
  N  N1793  1  0.203800  0.357300  0.857260  1.0
  N  N1794  1  0.296200  0.857300  0.642740  1.0
  N  N1795  1  0.796200  0.642700  0.142740  1.0
  N  N1796  1  0.703800  0.142700  0.357260  1.0
  N  N1797  1  0.229300  0.341200  0.825500  1.0
  N  N1798  1  0.270700  0.841200  0.674500  1.0
  N  N1799  1  0.770700  0.658800  0.174500  1.0
  N  N1800  1  0.729300  0.158800  0.325500  1.0
  N  N1801  1  0.054800  0.194800  0.019570  1.0
  N  N1802  1  0.445200  0.694800  0.480430  1.0
  N  N1803  1  0.945200  0.805200  0.980430  1.0
  N  N1804  1  0.554800  0.305200  0.519570  1.0
  N  N1805  1  0.068400  0.145900  0.030000  1.0
  N  N1806  1  0.431600  0.645900  0.470000  1.0
  N  N1807  1  0.931600  0.854100  0.970000  1.0
  N  N1808  1  0.568400  0.354100  0.530000  1.0
  N  N1809  1  0.983800  0.194100  0.080400  1.0
  N  N1810  1  0.516200  0.694100  0.419600  1.0
  N  N1811  1  0.016200  0.805900  0.919600  1.0
  N  N1812  1  0.483800  0.305900  0.580400  1.0
  N  N1813  1  0.004900  0.146200  0.085280  1.0
  N  N1814  1  0.495100  0.646200  0.414720  1.0
  N  N1815  1  0.995100  0.853800  0.914720  1.0
  N  N1816  1  0.504900  0.353800  0.585280  1.0
  N  N1817  1  0.106200  0.219100  0.088860  1.0
  N  N1818  1  0.393800  0.719100  0.411140  1.0
  N  N1819  1  0.893800  0.780900  0.911140  1.0
  N  N1820  1  0.606200  0.280900  0.588860  1.0
  N  N1821  1  0.115100  0.168000  0.091930  1.0
  N  N1822  1  0.384900  0.668000  0.408070  1.0
  N  N1823  1  0.884900  0.832000  0.908070  1.0
  N  N1824  1  0.615100  0.332000  0.591930  1.0
  N  N1825  1  0.818100  0.356200  0.008790  1.0
  N  N1826  1  0.681900  0.856200  0.491210  1.0
  N  N1827  1  0.181900  0.643800  0.991210  1.0
  N  N1828  1  0.318100  0.143800  0.508790  1.0
  N  N1829  1  0.719600  0.503800  0.025270  1.0
  N  N1830  1  0.780400  0.003800  0.474730  1.0
  N  N1831  1  0.280400  0.496200  0.974730  1.0
  N  N1832  1  0.219600  0.996200  0.525270  1.0
  N  N1833  1  0.911100  0.555200  0.124330  1.0
  N  N1834  1  0.588900  0.055200  0.375670  1.0
  N  N1835  1  0.088900  0.444800  0.875670  1.0
  N  N1836  1  0.411100  0.944800  0.624330  1.0
  N  N1837  1  0.200000  0.521600  0.168170  1.0
  N  N1838  1  0.300000  0.021600  0.331830  1.0
  N  N1839  1  0.800000  0.478400  0.831830  1.0
  N  N1840  1  0.700000  0.978400  0.668170  1.0
  N  N1841  1  0.002900  0.282500  0.891820  1.0
  N  N1842  1  0.497100  0.782500  0.608180  1.0
  N  N1843  1  0.997100  0.717500  0.108180  1.0
  N  N1844  1  0.502900  0.217500  0.391820  1.0
  N  N1845  1  0.006900  0.330000  0.111790  1.0
  N  N1846  1  0.493100  0.830000  0.388210  1.0
  N  N1847  1  0.993100  0.670000  0.888210  1.0
  N  N1848  1  0.506900  0.170000  0.611790  1.0
  N  N1849  1  0.374170  0.322540  0.259130  1.0
  N  N1850  1  0.125830  0.822540  0.240870  1.0
  N  N1851  1  0.625830  0.677460  0.740870  1.0
  N  N1852  1  0.874170  0.177460  0.759130  1.0
  N  N1853  1  0.096800  0.597700  0.255500  1.0
  N  N1854  1  0.403200  0.097700  0.244500  1.0
  N  N1855  1  0.903200  0.402300  0.744500  1.0
  N  N1856  1  0.596800  0.902300  0.755500  1.0
  O  O1857  1  0.411600  0.184800  0.201500  1
  O  O1858  1  0.088400  0.684800  0.298500  1
  O  O1859  1  0.588400  0.815200  0.798500  1
  O  O1860  1  0.911600  0.315200  0.701500  1
  O  O1861  1  0.000000  0.000000  0.000000  1
  O  O1862  1  0.500000  0.500000  0.500000  1
  O  O1863  1  0.681000  0.308700  0.210100  1
  O  O1864  1  0.819000  0.808700  0.289900  1
  O  O1865  1  0.319000  0.691300  0.789900  1
  O  O1866  1  0.181000  0.191300  0.710100  1
  O  O1867  1  0.525000  0.889300  0.072100  1
  O  O1868  1  0.975000  0.389300  0.427900  1
  O  O1869  1  0.475000  0.110700  0.927900  1
  O  O1870  1  0.025000  0.610700  0.572100  1
  F  F1871  1  0.774200  0.158200  0.156800  1
  F  F1872  1  0.725800  0.658200  0.343200  1
  F  F1873  1  0.225800  0.841800  0.843200  1
  F  F1874  1  0.274200  0.341800  0.656800  1
  F  F1875  1  0.688000  0.186800  0.177800  1
  F  F1876  1  0.812000  0.686800  0.322200  1
  F  F1877  1  0.312000  0.813200  0.822200  1
  F  F1878  1  0.188000  0.313200  0.677800  1
  F  F1879  1  0.689700  0.144400  0.126100  1
  F  F1880  1  0.810300  0.644400  0.373900  1
  F  F1881  1  0.310300  0.855600  0.873900  1
  F  F1882  1  0.189700  0.355600  0.626100  1
  F  F1883  1  0.643100  0.111400  0.175400  1
  F  F1884  1  0.856900  0.611400  0.324600  1
  F  F1885  1  0.356900  0.888600  0.824600  1
  F  F1886  1  0.143100  0.388600  0.675400  1
  F  F1887  1  0.734600  0.089300  0.168900  1
  F  F1888  1  0.765400  0.589300  0.331100  1
  F  F1889  1  0.265400  0.910700  0.831100  1
  F  F1890  1  0.234600  0.410700  0.668900  1
  F  F1891  1  0.725700  0.138000  0.211400  1
  F  F1892  1  0.774300  0.638000  0.288600  1
  F  F1893  1  0.274300  0.862000  0.788600  1
  F  F1894  1  0.225700  0.362000  0.711400  1
  F  F1895  1  0.288100  0.010600  0.074900  1
  F  F1896  1  0.211900  0.510600  0.425100  1
  F  F1897  1  0.711900  0.989400  0.925100  1
  F  F1898  1  0.788100  0.489400  0.574900  1
  F  F1899  1  0.211900  0.054400  0.044300  1
  F  F1900  1  0.288100  0.554400  0.455700  1
  F  F1901  1  0.788100  0.945600  0.955700  1
  F  F1902  1  0.711900  0.445600  0.544300  1
  F  F1903  1  0.226400  0.973000  0.034400  1
  F  F1904  1  0.273600  0.473000  0.465600  1
  F  F1905  1  0.773600  0.027000  0.965600  1
  F  F1906  1  0.726400  0.527000  0.534400  1
  F  F1907  1  0.148000  0.999100  0.059300  1
  F  F1908  1  0.352000  0.499100  0.440700  1
  F  F1909  1  0.852000  0.000900  0.940700  1
  F  F1910  1  0.648000  0.500900  0.559300  1
  F  F1911  1  0.206300  0.037700  0.103600  1
  F  F1912  1  0.293700  0.537700  0.396400  1
  F  F1913  1  0.793700  0.962300  0.896400  1
  F  F1914  1  0.706300  0.462300  0.603600  1
  F  F1915  1  0.216400  0.956700  0.092300  1
  F  F1916  1  0.283600  0.456700  0.407700  1
  F  F1917  1  0.783600  0.043300  0.907700  1
  F  F1918  1  0.716400  0.543300  0.592300  1
