
#######################################################################
#
#                 Cambridge Crystallographic Data Centre
#                                CCDC 
#
#######################################################################
#
# If this CIF has been generated from an entry in the Cambridge 
# Structural Database, then it will include bibliographic, chemical, 
# crystal, experimental, refinement or atomic coordinate data resulting 
# from the CCDC's data processing and validation procedures.
#
#######################################################################

data_OYIGEJ
_chemical_formula_moiety         
'8(Fe1 3+),6(Ni1 2+),24(C1 N1 1-),8(C9 H10 B1 N6 1-),10(C26 H20 N4),4(F6 P1 1-),13(C2 H3 N1),7(H2 O1)'
_chemical_name_systematic        
"tetradecakis(\m~2~-Cyano)-octakis(hydrogen tripyrazolylborate-N,N',N'')-decakis(3-(2-pyridyl)-5-(4-(diphenylamino)phenyl)-1H-pyrazole-N,N')-bis(acetonitrile)-decacyano-octa-iron(iii)-hexa-nickel(ii) tetrakis(hexafluorophosphate) acetonitrile solvate heptahydrate"
_symmetry_cell_setting           monoclinic
_symmetry_space_group_name_H-M   'P 21/n'
_symmetry_Int_Tables_number      14
_space_group_name_Hall           '-P 2yn'
loop_
_symmetry_equiv_pos_site_id
_symmetry_equiv_pos_as_xyz
1 x,y,z
2 1/2-x,1/2+y,1/2-z
3 -x,-y,-z
4 1/2+x,1/2-y,1/2+z
_cell_length_a                   21.9367(10)
_cell_length_b                   26.1077(12)
_cell_length_c                   35.7636(15)
_cell_angle_alpha                90
_cell_angle_beta                 93.227(3)
_cell_angle_gamma                90
_cell_volume                     20449.9
_exptl_crystal_colour            red
_exptl_crystal_description       needle
_cell_formula_units_Z            2
loop_
_atom_site_label
_atom_site_type_symbol
_atom_site_fract_x
_atom_site_fract_y
_atom_site_fract_z
C180 C 0.116(2) 0.4732(14) 0.0996(11)
H139 H 0.1441 0.4676 0.0797
H140 H 0.0753 0.4815 0.0885
H141 H 0.1136 0.4420 0.1148
C181 C 0.1386(12) 0.5165(8) 0.1239(6)
N58 N 0.1544(8) 0.5467(7) 0.1444(5)
C182 C 0.9418(10) 0.6871(12) 0.9889(7)
H142 H 0.9640 0.6668 0.9709
H143 H 0.9217 0.7161 0.9759
H144 H 0.9110 0.6655 0.9999
C183 C 0.9856(9) 0.7065(13) 1.0191(6)
N59 N 1.0151(9) 0.7207(14) 1.0435(6)
C184 C 0.8689(10) 0.3509(6) 0.0774(7)
H145 H 0.8365 0.3737 0.0674
H146 H 0.9036 0.3522 0.0613
H147 H 0.8823 0.3619 0.1028
C185 C 0.8453(7) 0.2973(5) 0.0787(4)
N60 N 0.8247(4) 0.2583(4) 0.0810(3)
C186 C 0.8421(15) 0.6100(7) 0.0736(9)
H148 H 0.8337 0.6028 0.0997
H149 H 0.8844 0.6007 0.0693
H150 H 0.8144 0.5899 0.0569
C187 C 0.8328(10) 0.6657(6) 0.0657(5)
N61 N 0.8253(7) 0.7066(5) 0.0572(5)
C188 C 0.974(3) 0.6908(19) 0.8390(11)
H151 H 0.9841 0.6549 0.8343
H152 H 1.0042 0.7130 0.8278
H153 H 0.9333 0.6985 0.8278
C189 C 0.975(3) 0.7001(14) 0.8802(10)
N62 N 0.974(3) 0.7102(18) 0.9106(9)
F1 F 0.8108(7) 0.6416(7) 0.8741(3)
F2 F 0.7260(6) 0.6596(6) 0.8421(4)
F3 F 0.7616(9) 0.5862(7) 0.8319(7)
F4 F 0.7743(8) 0.6512(16) 0.7923(7)
F5 F 0.8585(7) 0.6100(6) 0.8241(4)
F6 F 0.8276(9) 0.6863(7) 0.8272(5)
P1 P 0.7925(4) 0.6351(3) 0.8345(2)
F7 F 0.2701(9) 0.4738(5) 0.9661(3)
F8 F 0.2110(6) 0.5121(7) 0.9279(6)
F9 F 0.2749(11) 0.4553(6) 0.9106(5)
F10 F 0.2907(8) 0.5375(6) 0.8968(3)
F11 F 0.3501(9) 0.4964(8) 0.9420(11)
F12 F 0.2912(7) 0.5530(4) 0.9566(3)
P2 P 0.2797(3) 0.5056(2) 0.93277(16)
O1 O 0.869(3) 0.465(2) 0.0102(16)
O2 O 0.458(5) 0.475(3) 0.0149(9)
O3 O 0.283(2) 0.1796(18) 0.2367(12)
N63 N 0.6374(12) 0.9718(10) 0.3486(7)
C191 C 0.549(3) 0.978(2) 0.4021(16)
H159 H 0.5282 0.9487 0.4127
H160 H 0.5196 1.0038 0.3937
H161 H 0.5780 0.9925 0.4213
C192 C 0.585(3) 0.960(2) 0.3687(15)
O4 O 0.9277(16) 0.3075(13) 0.2196(9)
B1 B 0.3038(6) -0.2006(5) 0.1982(3)
H1 H 0.2801 -0.2116 0.2198
B2 B 0.1414(6) 0.1590(7) 0.1052(4)
H2 H 0.1087 0.1794 0.1168
B3 B 0.6383(6) 0.1046(6) 0.2786(4)
H3 H 0.6460 0.1356 0.2945
B4 B 0.5666(6) 0.3691(5) 0.0723(3)
H4 H 0.5764 0.4060 0.0772
C1 C 0.4646(4) 0.2305(4) 0.0281(2)
C2 C 0.8215(4) 0.1859(4) -0.0287(2)
C3 C 0.3104(4) 0.0638(4) 0.0960(2)
C4 C 0.0233(4) 0.1893(4) -0.1563(2)
C5 C 0.3508(4) -0.1690(3) 0.0792(2)
C6 C 0.6274(4) 0.0048(4) -0.0154(2)
H5 H 0.6061 -0.0131 -0.0353
C7 C 0.3776(4) 0.0355(4) 0.2223(2)
C8 C -0.0634(4) 0.1698(4) -0.2012(2)
C9 C 0.5096(5) 0.0143(5) 0.2824(3)
H6 H 0.4878 -0.0153 0.2740
C10 C 0.4566(4) 0.1569(4) 0.2093(3)
C11 C 0.5424(5) -0.0013(4) 0.1943(3)
C12 C 0.6872(4) 0.0593(4) 0.0406(2)
C13 C 0.4451(4) 0.0758(4) -0.0983(2)
H7 H 0.4620 0.0499 -0.1133
C14 C 0.5882(4) 0.2080(4) 0.0365(2)
C15 C -0.0961(4) 0.1929(4) -0.2315(3)
H8 H -0.0957 0.2292 -0.2336
C16 C 0.3917(5) -0.1660(5) 0.2451(3)
H9 H 0.3745 -0.1723 0.2684
C17 C 0.0980(5) 0.2027(4) -0.1046(3)
H10 H 0.1085 0.2182 -0.0811
C18 C 0.4101(4) 0.0822(4) 0.2132(2)
C19 C 0.8724(4) 0.1196(4) -0.0492(2)
C20 C 0.9156(4) 0.0319(4) -0.0567(2)
H11 H 0.8874 0.0187 -0.0400
C21 C 0.2501(4) 0.1352(4) -0.1136(2)
H12 H 0.2493 0.1093 -0.1323
C22 C 0.1237(4) 0.1501(4) -0.1557(2)
H13 H 0.1515 0.1286 -0.1677
C23 C -0.0658(4) 0.1160(4) -0.1987(2)
H14 H -0.0459 0.0991 -0.1779
C24 C 0.6483(4) 0.0537(4) -0.0206(2)
H15 H 0.6417 0.0687 -0.0447
C25 C -0.0697(4) 0.2415(4) -0.1587(3)
C26 C 0.4859(4) 0.2066(4) 0.2127(2)
C27 C 0.5171(4) 0.2039(4) 0.0921(3)
C28 C -0.0966(5) 0.0877(5) -0.2261(3)
H16 H -0.0957 0.0513 -0.2249
C29 C 0.0660(4) 0.1591(4) -0.1725(2)
H17 H 0.0556 0.1438 -0.1961
C30 C 0.2931(4) 0.1236(4) 0.0306(3)
C31 C 0.9555(4) 0.0003(4) -0.0724(2)
H18 H 0.9528 -0.0354 -0.0675
C32 C 0.9601(4) 0.1022(4) -0.0883(2)
H19 H 0.9612 0.1377 -0.0942
C33 C 0.6537(4) 0.2598(5) 0.1058(3)
H20 H 0.6602 0.2239 0.1078
C34 C 0.2312(4) 0.0343(4) 0.0405(2)
C35 C 0.5212(5) 0.2179(4) 0.2446(3)
H21 H 0.5224 0.1946 0.2650
C36 C 0.7883(4) 0.1430(4) 0.1556(2)
C37 C 0.2959(5) -0.2943(4) 0.1698(3)
H22 H 0.2737 -0.3106 0.1885
C38 C -0.1289(5) 0.1646(5) -0.2583(3)
H23 H -0.1511 0.1815 -0.2783
C39 C -0.0910(6) 0.3299(5) -0.1514(3)
H24 H -0.0804 0.3645 -0.1562
C40 C 0.8066(6) 0.1222(5) 0.2213(3)
H25 H 0.7995 0.1003 0.2418
C41 C 0.2990(4) 0.1486(4) -0.0893(2)
C42 C 1.0632(5) -0.0057(4) -0.1486(3)
C43 C -0.1420(5) 0.3192(6) -0.1316(3)
H26 H -0.1661 0.3461 -0.1224
C44 C 0.1411(4) 0.1729(4) -0.1211(2)
C45 C 0.1879(5) 0.0288(5) 0.1273(2)
H27 H 0.2139 0.0002 0.1241
C46 C 0.2027(4) 0.1674(4) -0.1051(2)
C47 C 0.4824(5) 0.2422(4) 0.1851(3)
H28 H 0.4557 0.2364 0.1637
C48 C 0.4008(4) -0.0977(4) 0.1246(2)
C49 C 0.5626(5) 0.3026(5) -0.0170(3)
H29 H 0.5562 0.2727 -0.0319
C50 C -0.1295(5) 0.1120(6) -0.2561(3)
H30 H -0.1518 0.0923 -0.2746
C51 C 0.4547(5) -0.1961(4) 0.1177(2)
C52 C 1.0024(5) 0.0692(4) -0.1030(2)
H31 H 1.0328 0.0824 -0.1183
C53 C 0.4519(5) -0.1404(4) 0.2025(3)
H32 H 0.4854 -0.1255 0.1909
C54 C 0.0401(4) 0.2110(4) -0.1211(3)
H33 H 0.0116 0.2313 -0.1086
C55 C 0.5541(5) 0.2975(4) 0.2188(3)
C56 C 0.7194(4) 0.0916(4) 0.0686(2)
C57 C 0.3549(5) 0.0270(4) 0.2573(3)
H34 H 0.3623 0.0512 0.2768
C58 C 0.4257(5) 0.3399(5) -0.0703(3)
C59 C 0.9161(4) 0.0837(4) -0.0650(2)
C60 C 0.3622(4) 0.1292(4) -0.0842(2)
C61 C 0.6544(5) 0.3362(4) 0.2317(3)
C62 C 0.4275(4) 0.1262(4) 0.2333(3)
H35 H 0.4203 0.1333 0.2587
C63 C 0.4537(4) 0.1360(4) -0.0491(2)
H36 H 0.4780 0.1525 -0.0298
C64 C 0.2552(4) -0.1110(4) 0.1255(3)
H37 H 0.2613 -0.0936 0.1027
C65 C 0.6674(5) 0.3426(5) 0.1102(3)
H38 H 0.6840 0.3756 0.1154
C66 C 0.4794(4) 0.0969(4) -0.0693(2)
H39 H 0.5197 0.0853 -0.0631
C67 C 0.5556(5) 0.2632(4) 0.2478(3)
H40 H 0.5800 0.2701 0.2700
C68 C 0.3062(4) 0.3076(5) -0.0074(3)
C69 C 0.7197(4) 0.2761(4) 0.0120(3)
H41 H 0.6829 0.2743 0.0247
C70 C 0.8738(4) 0.1723(4) -0.0472(2)
H42 H 0.9038 0.1946 -0.0564
C71 C 0.3813(5) 0.3574(5) -0.0465(3)
H43 H 0.3730 0.3920 -0.0401
C72 C 1.0004(4) 0.0173(4) -0.0956(2)
C73 C 0.8233(5) 0.2807(5) -0.0244(3)
H44 H 0.8599 0.2813 -0.0373
C74 C 0.6686(4) 0.0097(4) 0.0478(3)
H45 H 0.6767 -0.0050 0.0718
C75 C 0.5162(5) 0.2864(4) 0.1870(3)
H46 H 0.5139 0.3097 0.1666
C76 C 1.0416(5) 0.0077(4) -0.2142(3)
H47 H 1.0129 0.0121 -0.2348
C77 C 0.4997(5) 0.3473(4) -0.1208(3)
H48 H 0.4876 0.3146 -0.1302
C78 C 0.7623(4) 0.1292(4) 0.1185(2)
C79 C 0.1493(5) 0.1279(4) 0.0067(3)
H49 H 0.1686 0.1121 -0.0134
C80 C 0.1434(5) 0.0319(6) 0.1528(3)
H50 H 0.1326 0.0062 0.1701
C81 C 0.3387(4) -0.0405(4) 0.2008(3)
H51 H 0.3332 -0.0647 0.1810
C82 C 1.1254(5) -0.0042(5) -0.1540(3)
H52 H 1.1544 -0.0082 -0.1335
C83 C 0.3871(4) 0.0915(4) -0.1058(3)
H53 H 0.3633 0.0765 -0.1259
C84 C 1.0217(5) -0.0003(4) -0.1780(2)
H54 H 0.9793 -0.0020 -0.1741
C85 C 0.8247(5) 0.1846(5) 0.1616(3)
H55 H 0.8320 0.2062 0.1410
C86 C 0.3133(5) -0.0512(4) 0.2344(3)
H56 H 0.2906 -0.0818 0.2373
C87 C 0.3521(5) 0.3139(4) -0.0344(3)
C88 C 0.2032(4) -0.1062(4) 0.1459(3)
H57 H 0.1681 -0.0857 0.1402
C89 C 0.5826(6) 0.3488(5) -0.0299(3)
H58 H 0.5926 0.3567 -0.0547
C90 C 0.3129(5) -0.3169(5) 0.1378(3)
H59 H 0.3048 -0.3510 0.1296
C91 C 0.6830(5) 0.3692(4) 0.2567(3)
H60 H 0.6609 0.3966 0.2669
C92 C 0.7341(5) -0.0061(5) 0.2718(3)
H61 H 0.7428 -0.0387 0.2614
C93 C -0.1210(4) 0.2299(4) -0.1392(3)
H62 H -0.1315 0.1951 -0.1352
C94 C 0.5653(6) 0.4226(5) -0.1236(3)
C95 C 0.6380(4) -0.0183(4) 0.0196(3)
H63 H 0.6246 -0.0523 0.0240
C96 C 0.5451(5) 0.3731(4) -0.1364(2)
H64 H 0.5646 0.3577 -0.1566
C97 C 0.4257(5) 0.3054(5) 0.0936(3)
H65 H 0.4001 0.2760 0.0929
C98 C 0.0844(5) 0.1707(6) 0.0389(4)
H66 H 0.0502 0.1901 0.0459
C99 C 0.3442(4) -0.2797(4) 0.1200(3)
H67 H 0.3622 -0.2840 0.0966
C100 C 1.1441(5) 0.0030(5) -0.1896(3)
H68 H 1.1865 0.0037 -0.1938
C101 C 0.7445(7) 0.3626(6) 0.2671(4)
H69 H 0.7641 0.3850 0.2849
C102 C 0.3213(5) -0.0171(4) 0.2636(3)
H70 H 0.3047 -0.0235 0.2871
C103 C 0.7969(4) 0.2356(4) -0.0171(3)
C104 C 0.4912(6) 0.4476(5) 0.1873(4)
H71 H 0.4498 0.4576 0.1889
C105 C 0.2145(4) -0.1379(4) 0.1760(3)
H72 H 0.1875 -0.1432 0.1955
C106 C 0.7328(4) 0.0846(4) 0.1068(2)
H73 H 0.7238 0.0556 0.1216
C107 C 0.5302(5) 0.4437(5) -0.0949(3)
H74 H 0.5394 0.4775 -0.0864
C108 C -0.1570(5) 0.2684(5) -0.1255(3)
H75 H -0.1917 0.2600 -0.1120
C109 C 0.4950(6) 0.0469(6) 0.3122(4)
H76 H 0.4614 0.0432 0.3277
C110 C 0.5296(6) 0.4754(5) 0.1673(3)
H77 H 0.5156 0.5063 0.1557
C111 C 0.7440(5) 0.3235(4) 0.0058(3)
H78 H 0.7249 0.3537 0.0142
C112 C 0.4101(6) 0.3513(5) 0.1076(3)
H79 H 0.3736 0.3604 0.1191
C113 C 0.8512(5) 0.1966(5) 0.1957(3)
H80 H 0.8736 0.2276 0.1988
C114 C 0.5711(5) 0.3862(4) 0.2026(3)
C115 C 0.6106(5) 0.4153(4) 0.1812(3)
H81 H 0.6516 0.4044 0.1792
C116 C 0.5125(5) 0.4063(5) 0.2047(3)
H82 H 0.4854 0.3885 0.2199
C117 C 0.6270(5) 0.1557(5) 0.1816(3)
H83 H 0.6259 0.1809 0.1623
C118 C 0.2203(5) 0.2886(5) 0.0429(4)
H84 H 0.1906 0.2808 0.0604
C119 C 0.5852(6) 0.3811(5) -0.0002(3)
H85 H 0.5968 0.4161 -0.0006
C120 C 0.4707(5) 0.3690(4) -0.0909(3)
C121 C 0.7402(6) 0.0641(6) 0.3062(4)
H86 H 0.7532 0.0895 0.3239
C122 C 0.7976(6) 0.3260(4) -0.0132(3)
H87 H 0.8159 0.3580 -0.0184
C123 C 0.4464(5) -0.1435(4) 0.2406(3)
H88 H 0.4750 -0.1322 0.2598
C124 C 0.6877(6) 0.2978(5) 0.2173(4)
H89 H 0.6691 0.2743 0.1999
C125 C 0.2757(6) 0.3486(5) 0.0087(4)
H90 H 0.2843 0.3830 0.0021
C126 C 0.2328(6) 0.3375(5) 0.0343(4)
H91 H 0.2121 0.3646 0.0459
C127 C 0.8461(6) 0.1644(6) 0.2260(3)
C128 C 0.5398(6) 0.0861(6) 0.3147(3)
H92 H 0.5420 0.1133 0.3324
C129 C 0.6938(5) 0.2974(6) 0.1202(3)
H93 H 0.7315 0.2923 0.1341
C130 C 0.5907(6) 0.4592(5) 0.1632(3)
H94 H 0.6172 0.4782 0.1484
C131 C 0.0952(5) 0.1555(5) 0.0034(4)
H95 H 0.0708 0.1623 -0.0189
C132 C 1.1025(5) 0.0092(5) -0.2193(3)
H96 H 1.1164 0.0145 -0.2437
C133 C -0.0554(5) 0.2906(5) -0.1643(3)
H97 H -0.0201 0.2986 -0.1774
C134 C 0.7784(5) 0.1130(5) 0.1865(3)
H98 H 0.7511 0.0848 0.1837
C135 C 0.6147(5) 0.1056(5) 0.1777(3)
H99 H 0.6041 0.0890 0.1547
C136 C 0.2513(5) 0.2503(4) 0.0258(3)
H100 H 0.2414 0.2159 0.0316
C137 C 0.7477(7) 0.2933(7) 0.2278(6)
H101 H 0.7702 0.2662 0.2174
C138 C 0.4854(7) 0.4183(5) -0.0796(3)
H102 H 0.4633 0.4342 -0.0606
C139 C 0.7765(7) 0.3244(7) 0.2517(5)
H103 H 0.8189 0.3202 0.2581
C140 C 0.1180(5) 0.0794(6) 0.1483(3)
H104 H 0.0866 0.0934 0.1624
C141 C 0.6411(5) 0.1629(5) 0.2182(4)
H105 H 0.6542 0.1944 0.2293
C142 C 0.7706(7) 0.0183(6) 0.2982(4)
H106 H 0.8088 0.0068 0.3089
C143 C 0.2260(7) 0.2236(6) 0.1323(4)
H107 H 0.2012 0.2467 0.1453
C144 C 0.3022(6) 0.1865(5) 0.1098(3)
H108 H 0.3429 0.1791 0.1037
C145 C 0.2866(7) 0.2269(7) 0.1311(4)
H109 H 0.3128 0.2519 0.1426
C146 C 0.6651(5) -0.0122(5) 0.1897(3)
C147 C 0.4603(7) 0.3820(5) 0.1013(3)
H110 H 0.4636 0.4174 0.1073
C148 C 0.63171(19) 0.44078(13) -0.17631(10)
C149 C 0.5873(2) 0.43930(14) -0.20558(10)
H111 H 0.5455 0.4433 -0.2006
C150 C 0.6041(2) 0.43191(14) -0.24210(10)
H112 H 0.5737 0.4309 -0.2621
C151 C 0.6652(2) 0.42599(14) -0.24935(10)
H113 H 0.6767 0.4209 -0.2743
C152 C 0.7097(2) 0.42747(13) -0.22008(9)
H114 H 0.7515 0.4234 -0.2250
C153 C 0.69290(19) 0.43486(12) -0.18356(10)
H115 H 0.7233 0.4359 -0.1636
C154 C 0.65475(18) 0.47175(12) -0.11092(10)
C155 C 0.6751(2) 0.52084(12) -0.11861(11)
H116 H 0.6620 0.5373 -0.1414
C156 C 0.7147(2) 0.54591(11) -0.09301(11)
H117 H 0.7287 0.5795 -0.0983
C157 C 0.7340(2) 0.52189(11) -0.05972(11)
H118 H 0.7611 0.5390 -0.0422
C158 C 0.71360(18) 0.47280(11) -0.05203(10)
H119 H 0.7267 0.4564 -0.0293
C159 C 0.67398(17) 0.44773(11) -0.07763(10)
H120 H 0.6601 0.4142 -0.0724
C160 C 0.9423(2) 0.18343(16) 0.26194(8)
C161 C 0.9764(2) 0.16477(15) 0.23333(8)
H121 H 0.9573 0.1448 0.2138
C162 C 1.0385(2) 0.17529(16) 0.23331(9)
H122 H 1.0618 0.1625 0.2137
C163 C 1.0665(2) 0.20448(16) 0.26190(9)
H123 H 1.1089 0.2117 0.2619
C164 C 1.0323(2) 0.22314(17) 0.29052(9)
H124 H 1.0515 0.2431 0.3101
C165 C 0.9702(2) 0.21261(17) 0.29054(8)
H125 H 0.9469 0.2254 0.3101
C166 C 0.8533(2) 0.16633(17) 0.29389(8)
C167 C 0.8757(3) 0.13268(18) 0.32148(8)
H126 H 0.9089 0.1107 0.3168
C168 C 0.8495(3) 0.13122(19) 0.35596(8)
H127 H 0.8648 0.1082 0.3748
C169 C 0.8009(3) 0.16340(19) 0.36284(8)
H128 H 0.7830 0.1624 0.3864
C170 C 0.7785(3) 0.19705(19) 0.33524(8)
H129 H 0.7453 0.2190 0.3399
C171 C 0.8048(2) 0.19851(17) 0.30076(8)
H130 H 0.7895 0.2215 0.2819
C172 C 1.05427(17) -0.06661(14) -0.09753(10)
C173 C 1.04866(19) -0.10866(14) -0.12131(10)
H131 H 1.0394 -0.1038 -0.1473
C174 C 1.0566(2) -0.15787(14) -0.10702(11)
H132 H 1.0527 -0.1866 -0.1233
C175 C 1.07009(19) -0.16503(14) -0.06894(11)
H133 H 1.0755 -0.1987 -0.0592
C176 C 1.07570(18) -0.12298(13) -0.04515(11)
H134 H 1.0849 -0.1279 -0.0191
C177 C 1.06779(16) -0.07377(13) -0.05945(10)
H135 H 1.0716 -0.0450 -0.0432
N1 N 0.5966(5) -0.10008(18) 0.2534(4)
C178 C 0.5200(5) 0.0858(5) 0.0449(3)
H136 H 0.5498 0.1119 0.0532
H137 H 0.4873 0.1017 0.0291
H138 H 0.5401 0.0594 0.0305
C179 C 0.4934(4) 0.0619(4) 0.0782(2)
Fe1 Fe 0.37683(6) -0.16748(5) 0.13094(3)
Fe2 Fe 0.24220(6) 0.09631(6) 0.06885(3)
Fe3 Fe 0.53478(6) 0.25543(6) 0.05795(3)
Fe4 Fe 0.61335(7) 0.01016(7) 0.22778(4)
N2 N -0.0339(3) 0.2003(3) -0.1735(2)
N3 N 0.2255(4) 0.1968(3) -0.0765(2)
H154 H 0.2043 0.2207 -0.0657
N4 N 0.2830(3) 0.1859(3) -0.06634(19)
N5 N 0.3961(3) 0.1513(3) -0.05581(18)
N6 N 1.0428(4) -0.0168(4) -0.1116(2)
N7 N 0.8215(3) 0.1041(3) -0.03267(18)
H155 H 0.8103 0.0719 -0.0307
N8 N 0.7900(3) 0.1443(3) -0.01958(19)
N9 N 0.7446(3) 0.2327(3) 0.00122(19)
N10 N 0.7644(3) 0.1592(3) 0.08818(19)
H156 H 0.7808 0.1899 0.0885
N11 N 0.7386(3) 0.1368(3) 0.05722(18)
N12 N 0.6777(3) 0.0815(3) 0.00666(18)
N13 N 0.6136(4) 0.4488(4) -0.1380(3)
N14 N 0.4181(4) 0.2883(3) -0.0721(2)
H157 H 0.4394 0.2680 -0.0861
N15 N 0.3744(3) 0.2716(3) -0.0501(2)
N16 N 0.2942(4) 0.2582(3) 0.0017(2)
N17 N 0.5912(4) 0.3423(4) 0.2214(2)
N18 N 0.4548(3) 0.1307(3) 0.17607(19)
H158 H 0.4704 0.1425 0.1556
N19 N 0.4266(3) 0.0852(3) 0.17804(19)
N20 N 0.3701(3) 0.0015(3) 0.19465(19)
N21 N 0.6196(4) 0.0822(4) 0.2115(2)
N22 N 0.6337(4) 0.1174(4) 0.2372(3)
N23 N 0.5619(4) 0.0340(4) 0.2677(2)
N24 N 0.5792(4) 0.0778(4) 0.2872(3)
N25 N 0.6861(4) 0.0210(4) 0.2627(2)
N26 N 0.6896(4) 0.0646(4) 0.2841(3)
N27 N 0.2543(4) 0.1587(4) 0.0987(2)
N28 N 0.2053(4) 0.1834(4) 0.1126(3)
N29 N 0.1885(3) 0.0718(4) 0.1078(2)
N30 N 0.1450(4) 0.1026(4) 0.1207(2)
N31 N 0.1702(3) 0.1270(3) 0.0424(2)
N32 N 0.1301(4) 0.1540(4) 0.0624(2)
N33 N 0.3461(4) -0.2366(3) 0.13966(19)
N34 N 0.3150(4) -0.2464(3) 0.1710(2)
N35 N 0.2952(3) -0.1433(3) 0.14219(18)
N36 N 0.2689(3) -0.1602(3) 0.17399(19)
N37 N 0.4028(4) -0.1617(3) 0.18421(19)
N38 N 0.3652(4) -0.1783(3) 0.2110(2)
N39 N 0.4218(3) 0.2165(3) 0.01141(18)
N40 N 0.5065(4) 0.1701(4) 0.1115(2)
N41 N 0.6268(4) 0.1831(3) 0.02517(19)
N42 N 0.8796(7) 0.1729(5) 0.2610(3)
N43 N 0.3191(3) 0.1457(3) 0.0089(2)
N44 N 0.3474(3) 0.0449(3) 0.11457(19)
N45 N 0.4995(3) -0.0042(3) 0.1761(2)
N46 N 0.5536(4) 0.3058(3) 0.0196(2)
N47 N 0.5685(4) 0.3549(4) 0.0298(2)
N48 N 0.6054(3) 0.2819(3) 0.08904(19)
N49 N 0.6143(4) 0.3327(4) 0.0918(2)
N50 N 0.6982(4) -0.0220(4) 0.1669(3)
N51 N 0.4103(3) -0.0547(4) 0.12487(19)
N52 N 0.3327(3) -0.1676(3) 0.04868(19)
N53 N 0.4979(4) -0.2163(3) 0.1080(2)
N54 N 0.5034(4) 0.3541(4) 0.0852(2)
N55 N 0.4823(4) 0.3064(3) 0.0805(2)
N56 N 0.2217(3) -0.0033(3) 0.0245(2)
C190 C 0.6028(4) -0.05865(14) 0.2443(2)
N57 N 0.4745(3) 0.0439(3) 0.10349(19)
Ni1 Ni 0.42034(5) 0.01843(5) 0.14685(3)
Ni2 Ni 0.70684(5) 0.15783(5) 0.00355(3)
Ni3 Ni 0.34857(5) 0.20386(5) -0.02450(3)
B1B B 0.6962(6) 0.2006(5) -0.1982(3)
H1B H 0.7199 0.2116 -0.2198
B2B B 0.8586(6) -0.1590(7) -0.1052(4)
H2B H 0.8913 -0.1794 -0.1168
B3B B 0.3617(6) -0.1046(6) -0.2786(4)
H3B H 0.3540 -0.1356 -0.2945
B4B B 0.4334(6) -0.3691(5) -0.0723(3)
H4B H 0.4236 -0.4060 -0.0772
C1B C 0.5354(4) -0.2305(4) -0.0281(2)
C2B C 0.1785(4) -0.1859(4) 0.0287(2)
C3B C 0.6896(4) -0.0638(4) -0.0960(2)
C4B C 0.9767(4) -0.1893(4) 0.1563(2)
C5B C 0.6492(4) 0.1690(3) -0.0792(2)
C6B C 0.3726(4) -0.0048(4) 0.0154(2)
H5B H 0.3939 0.0131 0.0353
C7B C 0.6224(4) -0.0355(4) -0.2223(2)
C8B C 1.0634(4) -0.1698(4) 0.2012(2)
C9B C 0.4904(5) -0.0143(5) -0.2824(3)
H6B H 0.5122 0.0153 -0.2740
C10B C 0.5434(4) -0.1569(4) -0.2093(3)
C11B C 0.4576(5) 0.0013(4) -0.1943(3)
C12B C 0.3128(4) -0.0593(4) -0.0406(2)
C13B C 0.5549(4) -0.0758(4) 0.0983(2)
H7B H 0.5380 -0.0499 0.1133
C14B C 0.4118(4) -0.2080(4) -0.0365(2)
C15B C 1.0961(4) -0.1929(4) 0.2315(3)
H8B H 1.0957 -0.2292 0.2336
C16B C 0.6083(5) 0.1660(5) -0.2451(3)
H9B H 0.6255 0.1723 -0.2684
C17B C 0.9020(5) -0.2027(4) 0.1046(3)
H10B H 0.8915 -0.2182 0.0811
C18B C 0.5899(4) -0.0822(4) -0.2132(2)
C19B C 0.1276(4) -0.1196(4) 0.0492(2)
C20B C 0.0844(4) -0.0319(4) 0.0567(2)
H11B H 0.1126 -0.0187 0.0400
C21B C 0.7499(4) -0.1352(4) 0.1136(2)
H12B H 0.7507 -0.1093 0.1323
C22B C 0.8763(4) -0.1501(4) 0.1557(2)
H13B H 0.8485 -0.1286 0.1677
C23B C 1.0658(4) -0.1160(4) 0.1987(2)
H14B H 1.0459 -0.0991 0.1779
C24B C 0.3517(4) -0.0537(4) 0.0206(2)
H15B H 0.3583 -0.0687 0.0447
C25B C 1.0697(4) -0.2415(4) 0.1587(3)
C26B C 0.5141(4) -0.2066(4) -0.2127(2)
C27B C 0.4829(4) -0.2039(4) -0.0921(3)
C28B C 1.0966(5) -0.0877(5) 0.2261(3)
H16B H 1.0957 -0.0513 0.2249
C29B C 0.9340(4) -0.1591(4) 0.1725(2)
H17B H 0.9444 -0.1438 0.1961
C30B C 0.7069(4) -0.1236(4) -0.0306(3)
C31B C 0.0445(4) -0.0003(4) 0.0724(2)
H18B H 0.0472 0.0354 0.0675
C32B C 0.0399(4) -0.1022(4) 0.0883(2)
H19B H 0.0388 -0.1377 0.0942
C33B C 0.3463(4) -0.2598(5) -0.1058(3)
H20B H 0.3398 -0.2239 -0.1078
C34B C 0.7688(4) -0.0343(4) -0.0405(2)
C35B C 0.4788(5) -0.2179(4) -0.2446(3)
H21B H 0.4776 -0.1946 -0.2650
C36B C 0.2117(4) -0.1430(4) -0.1556(2)
C37B C 0.7041(5) 0.2943(4) -0.1698(3)
H22B H 0.7263 0.3106 -0.1885
C38B C 1.1289(5) -0.1646(5) 0.2583(3)
H23B H 1.1511 -0.1815 0.2783
C39B C 1.0910(6) -0.3299(5) 0.1514(3)
H24B H 1.0804 -0.3645 0.1562
C40B C 0.1934(6) -0.1222(5) -0.2213(3)
H25B H 0.2005 -0.1003 -0.2418
C41B C 0.7010(4) -0.1486(4) 0.0893(2)
C42B C -0.0632(5) 0.0057(4) 0.1486(3)
C43B C 1.1420(5) -0.3192(6) 0.1316(3)
H26B H 1.1661 -0.3461 0.1224
C44B C 0.8589(4) -0.1729(4) 0.1211(2)
C45B C 0.8121(5) -0.0288(5) -0.1273(2)
H27B H 0.7861 -0.0002 -0.1241
C46B C 0.7973(4) -0.1674(4) 0.1051(2)
C47B C 0.5176(5) -0.2422(4) -0.1851(3)
H28B H 0.5443 -0.2364 -0.1637
C48B C 0.5992(4) 0.0977(4) -0.1246(2)
C49B C 0.4374(5) -0.3026(5) 0.0170(3)
H29B H 0.4438 -0.2727 0.0319
C50B C 1.1295(5) -0.1120(6) 0.2561(3)
H30B H 1.1518 -0.0923 0.2746
C51B C 0.5453(5) 0.1961(4) -0.1177(2)
C52B C -0.0024(5) -0.0692(4) 0.1030(2)
H31B H -0.0328 -0.0824 0.1183
C53B C 0.5481(5) 0.1404(4) -0.2025(3)
H32B H 0.5146 0.1255 -0.1909
C54B C 0.9599(4) -0.2110(4) 0.1211(3)
H33B H 0.9884 -0.2313 0.1086
C55B C 0.4459(5) -0.2975(4) -0.2188(3)
C56B C 0.2806(4) -0.0916(4) -0.0686(2)
C57B C 0.6451(5) -0.0270(4) -0.2573(3)
H34B H 0.6377 -0.0512 -0.2768
C58B C 0.5743(5) -0.3399(5) 0.0703(3)
C59B C 0.0839(4) -0.0837(4) 0.0650(2)
C60B C 0.6378(4) -0.1292(4) 0.0842(2)
C61B C 0.3456(5) -0.3362(4) -0.2317(3)
C62B C 0.5725(4) -0.1262(4) -0.2333(3)
H35B H 0.5797 -0.1333 -0.2587
C63B C 0.5463(4) -0.1360(4) 0.0491(2)
H36B H 0.5220 -0.1525 0.0298
C64B C 0.7448(4) 0.1110(4) -0.1255(3)
H37B H 0.7387 0.0936 -0.1027
C65B C 0.3326(5) -0.3426(5) -0.1102(3)
H38B H 0.3160 -0.3756 -0.1154
C66B C 0.5206(4) -0.0969(4) 0.0693(2)
H39B H 0.4803 -0.0853 0.0631
C67B C 0.4444(5) -0.2632(4) -0.2478(3)
H40B H 0.4200 -0.2701 -0.2700
C68B C 0.6938(4) -0.3076(5) 0.0074(3)
C69B C 0.2803(4) -0.2761(4) -0.0120(3)
H41B H 0.3171 -0.2743 -0.0247
C70B C 0.1262(4) -0.1723(4) 0.0472(2)
H42B H 0.0962 -0.1946 0.0564
C71B C 0.6187(5) -0.3574(5) 0.0465(3)
H43B H 0.6270 -0.3920 0.0401
C72B C -0.0004(4) -0.0173(4) 0.0956(2)
C73B C 0.1767(5) -0.2807(5) 0.0244(3)
H44B H 0.1401 -0.2813 0.0373
C74B C 0.3314(4) -0.0097(4) -0.0478(3)
H45B H 0.3233 0.0050 -0.0718
C75B C 0.4838(5) -0.2864(4) -0.1870(3)
H46B H 0.4861 -0.3097 -0.1666
C76B C -0.0416(5) -0.0077(4) 0.2142(3)
H47B H -0.0129 -0.0121 0.2348
C77B C 0.5003(5) -0.3473(4) 0.1208(3)
H48B H 0.5124 -0.3146 0.1302
C78B C 0.2377(4) -0.1292(4) -0.1185(2)
C79B C 0.8507(5) -0.1279(4) -0.0067(3)
H49B H 0.8314 -0.1121 0.0134
C80B C 0.8566(5) -0.0319(6) -0.1528(3)
H50B H 0.8674 -0.0062 -0.1701
C81B C 0.6613(4) 0.0405(4) -0.2008(3)
H51B H 0.6668 0.0647 -0.1810
C82B C -0.1254(5) 0.0042(5) 0.1540(3)
H52B H -0.1544 0.0082 0.1335
C83B C 0.6129(4) -0.0915(4) 0.1058(3)
H53B H 0.6367 -0.0765 0.1259
C84B C -0.0217(5) 0.0003(4) 0.1780(2)
H54B H 0.0207 0.0020 0.1741
C85B C 0.1753(5) -0.1846(5) -0.1616(3)
H55B H 0.1680 -0.2062 -0.1410
C86B C 0.6867(5) 0.0512(4) -0.2344(3)
H56B H 0.7094 0.0818 -0.2373
C87B C 0.6479(5) -0.3139(4) 0.0344(3)
C88B C 0.7968(4) 0.1062(4) -0.1459(3)
H57B H 0.8319 0.0857 -0.1402
C89B C 0.4174(6) -0.3488(5) 0.0299(3)
H58B H 0.4074 -0.3567 0.0547
C90B C 0.6871(5) 0.3169(5) -0.1378(3)
H59B H 0.6952 0.3510 -0.1296
C91B C 0.3170(5) -0.3692(4) -0.2567(3)
H60B H 0.3391 -0.3966 -0.2669
C92B C 0.2659(5) 0.0061(5) -0.2718(3)
H61B H 0.2572 0.0387 -0.2614
C93B C 1.1210(4) -0.2299(4) 0.1392(3)
H62B H 1.1315 -0.1951 0.1352
C94B C 0.4347(6) -0.4226(5) 0.1236(3)
C95B C 0.3620(4) 0.0183(4) -0.0196(3)
H63B H 0.3754 0.0523 -0.0240
C96B C 0.4549(5) -0.3731(4) 0.1364(2)
H64B H 0.4354 -0.3577 0.1566
C97B C 0.5743(5) -0.3054(5) -0.0936(3)
H65B H 0.5999 -0.2760 -0.0929
C98B C 0.9156(5) -0.1707(6) -0.0389(4)
H66B H 0.9498 -0.1901 -0.0459
C99B C 0.6558(4) 0.2797(4) -0.1200(3)
H67B H 0.6378 0.2840 -0.0966
C100B C -0.1441(5) -0.0030(5) 0.1896(3)
H68B H -0.1865 -0.0037 0.1938
C101B C 0.2555(7) -0.3626(6) -0.2671(4)
H69B H 0.2359 -0.3850 -0.2849
C102B C 0.6787(5) 0.0171(4) -0.2636(3)
H70B H 0.6953 0.0235 -0.2871
C103B C 0.2031(4) -0.2356(4) 0.0171(3)
C104B C 0.5088(6) -0.4476(5) -0.1873(4)
H71B H 0.5502 -0.4576 -0.1889
C105B C 0.7855(4) 0.1379(4) -0.1760(3)
H72B H 0.8125 0.1432 -0.1955
C106B C 0.2672(4) -0.0846(4) -0.1068(2)
H73B H 0.2762 -0.0556 -0.1216
C107B C 0.4698(5) -0.4437(5) 0.0949(3)
H74B H 0.4606 -0.4775 0.0864
C108B C 1.1570(5) -0.2684(5) 0.1255(3)
H75B H 1.1917 -0.2600 0.1120
C109B C 0.5050(6) -0.0469(6) -0.3122(4)
H76B H 0.5386 -0.0432 -0.3277
C110B C 0.4704(6) -0.4754(5) -0.1673(3)
H77B H 0.4844 -0.5063 -0.1557
C111B C 0.2560(5) -0.3235(4) -0.0058(3)
H78B H 0.2751 -0.3537 -0.0142
C112B C 0.5899(6) -0.3513(5) -0.1076(3)
H79B H 0.6264 -0.3604 -0.1191
C113B C 0.1488(5) -0.1966(5) -0.1957(3)
H80B H 0.1264 -0.2276 -0.1988
C114B C 0.4289(5) -0.3862(4) -0.2026(3)
C115B C 0.3894(5) -0.4153(4) -0.1812(3)
H81B H 0.3484 -0.4044 -0.1792
C116B C 0.4875(5) -0.4063(5) -0.2047(3)
H82B H 0.5146 -0.3885 -0.2199
C117B C 0.3730(5) -0.1557(5) -0.1816(3)
H83B H 0.3741 -0.1809 -0.1623
C118B C 0.7797(5) -0.2886(5) -0.0429(4)
H84B H 0.8094 -0.2808 -0.0604
C119B C 0.4148(6) -0.3811(5) 0.0002(3)
H85B H 0.4032 -0.4161 0.0006
C120B C 0.5293(5) -0.3690(4) 0.0909(3)
C121B C 0.2598(6) -0.0641(6) -0.3062(4)
H86B H 0.2468 -0.0895 -0.3239
C122B C 0.2024(6) -0.3260(4) 0.0132(3)
H87B H 0.1841 -0.3580 0.0184
C123B C 0.5536(5) 0.1435(4) -0.2406(3)
H88B H 0.5250 0.1322 -0.2598
C124B C 0.3123(6) -0.2978(5) -0.2173(4)
H89B H 0.3309 -0.2743 -0.1999
C125B C 0.7243(6) -0.3486(5) -0.0087(4)
H90B H 0.7157 -0.3830 -0.0021
C126B C 0.7672(6) -0.3375(5) -0.0343(4)
H91B H 0.7879 -0.3646 -0.0459
C127B C 0.1539(6) -0.1644(6) -0.2260(3)
C128B C 0.4602(6) -0.0861(6) -0.3147(3)
H92B H 0.4580 -0.1133 -0.3324
C129B C 0.3062(5) -0.2974(6) -0.1202(3)
H93B H 0.2685 -0.2923 -0.1341
C130B C 0.4093(6) -0.4592(5) -0.1632(3)
H94B H 0.3828 -0.4782 -0.1484
C131B C 0.9048(5) -0.1555(5) -0.0034(4)
H95B H 0.9292 -0.1623 0.0189
C132B C -0.1025(5) -0.0092(5) 0.2193(3)
H96B H -0.1164 -0.0145 0.2437
C133B C 1.0554(5) -0.2906(5) 0.1643(3)
H97B H 1.0201 -0.2986 0.1774
C134B C 0.2216(5) -0.1130(5) -0.1865(3)
H98B H 0.2489 -0.0848 -0.1837
C135B C 0.3853(5) -0.1056(5) -0.1777(3)
H99B H 0.3959 -0.0890 -0.1547
C136B C 0.7487(5) -0.2503(4) -0.0258(3)
H100B H 0.7586 -0.2159 -0.0316
C137B C 0.2523(7) -0.2933(7) -0.2278(6)
H101B H 0.2298 -0.2662 -0.2174
C138B C 0.5146(7) -0.4183(5) 0.0796(3)
H102B H 0.5367 -0.4342 0.0606
C139B C 0.2235(7) -0.3244(7) -0.2517(5)
H103B H 0.1811 -0.3202 -0.2581
C140B C 0.8820(5) -0.0794(6) -0.1483(3)
H104B H 0.9134 -0.0934 -0.1624
C141B C 0.3589(5) -0.1629(5) -0.2182(4)
H105B H 0.3458 -0.1944 -0.2293
C142B C 0.2294(7) -0.0183(6) -0.2982(4)
H106B H 0.1912 -0.0068 -0.3089
C143B C 0.7740(7) -0.2236(6) -0.1323(4)
H107B H 0.7988 -0.2467 -0.1453
C144B C 0.6978(6) -0.1865(5) -0.1098(3)
H108B H 0.6571 -0.1791 -0.1037
C145B C 0.7134(7) -0.2269(7) -0.1311(4)
H109B H 0.6872 -0.2519 -0.1426
C146B C 0.3349(5) 0.0122(5) -0.1897(3)
C147B C 0.5397(7) -0.3820(5) -0.1013(3)
H110B H 0.5364 -0.4174 -0.1073
C148B C 0.36829(19) -0.44078(13) 0.17631(10)
C149B C 0.4127(2) -0.43930(14) 0.20558(10)
H111B H 0.4545 -0.4433 0.2006
C150B C 0.3959(2) -0.43191(14) 0.24210(10)
H112B H 0.4263 -0.4309 0.2621
C151B C 0.3348(2) -0.42599(14) 0.24935(10)
H113B H 0.3233 -0.4209 0.2743
C152B C 0.2903(2) -0.42747(13) 0.22008(9)
H114B H 0.2485 -0.4234 0.2250
C153B C 0.30710(19) -0.43486(12) 0.18356(10)
H115B H 0.2767 -0.4359 0.1636
C154B C 0.34525(18) -0.47175(12) 0.11092(10)
C155B C 0.3249(2) -0.52084(12) 0.11861(11)
H116B H 0.3380 -0.5373 0.1414
C156B C 0.2853(2) -0.54591(11) 0.09301(11)
H117B H 0.2713 -0.5795 0.0983
C157B C 0.2660(2) -0.52189(11) 0.05972(11)
H118B H 0.2389 -0.5390 0.0422
C158B C 0.28640(18) -0.47280(11) 0.05203(10)
H119B H 0.2733 -0.4564 0.0293
C159B C 0.32602(17) -0.44773(11) 0.07763(10)
H120B H 0.3399 -0.4142 0.0724
C160B C 0.0577(2) -0.18343(16) -0.26194(8)
C161B C 0.0236(2) -0.16477(15) -0.23333(8)
H121B H 0.0427 -0.1448 -0.2138
C162B C -0.0385(2) -0.17529(16) -0.23331(9)
H122B H -0.0618 -0.1625 -0.2137
C163B C -0.0665(2) -0.20448(16) -0.26190(9)
H123B H -0.1089 -0.2117 -0.2619
C164B C -0.0323(2) -0.22314(17) -0.29052(9)
H124B H -0.0515 -0.2431 -0.3101
C165B C 0.0298(2) -0.21261(17) -0.29054(8)
H125B H 0.0531 -0.2254 -0.3101
C166B C 0.1467(2) -0.16633(17) -0.29389(8)
C167B C 0.1243(3) -0.13268(18) -0.32148(8)
H126B H 0.0911 -0.1107 -0.3168
C168B C 0.1505(3) -0.13122(19) -0.35596(8)
H127B H 0.1352 -0.1082 -0.3748
C169B C 0.1991(3) -0.16340(19) -0.36284(8)
H128B H 0.2170 -0.1624 -0.3864
C170B C 0.2215(3) -0.19705(19) -0.33524(8)
H129B H 0.2547 -0.2190 -0.3399
C171B C 0.1952(2) -0.19851(17) -0.30076(8)
H130B H 0.2105 -0.2215 -0.2819
C172B C -0.05427(17) 0.06661(14) 0.09753(10)
C173B C -0.04866(19) 0.10866(14) 0.12131(10)
H131B H -0.0394 0.1038 0.1473
C174B C -0.0566(2) 0.15787(14) 0.10702(11)
H132B H -0.0527 0.1866 0.1233
C175B C -0.07009(19) 0.16503(14) 0.06894(11)
H133B H -0.0755 0.1987 0.0592
C176B C -0.07570(18) 0.12298(13) 0.04515(11)
H134B H -0.0849 0.1279 0.0191
C177B C -0.06779(16) 0.07377(13) 0.05945(10)
H135B H -0.0716 0.0450 0.0432
N1B N 0.4034(5) 0.10008(18) -0.2534(4)
C178B C 0.4800(5) -0.0858(5) -0.0449(3)
H136B H 0.4502 -0.1119 -0.0532
H137B H 0.5127 -0.1017 -0.0291
H138B H 0.4599 -0.0594 -0.0305
C179B C 0.5066(4) -0.0619(4) -0.0782(2)
Fe1B Fe 0.62317(6) 0.16748(5) -0.13094(3)
Fe2B Fe 0.75780(6) -0.09631(6) -0.06885(3)
Fe3B Fe 0.46522(6) -0.25543(6) -0.05795(3)
Fe4B Fe 0.38665(7) -0.01016(7) -0.22778(4)
N2B N 1.0339(3) -0.2003(3) 0.1735(2)
N3B N 0.7745(4) -0.1968(3) 0.0765(2)
H154B H 0.7957 -0.2207 0.0657
N4B N 0.7170(3) -0.1859(3) 0.06634(19)
N5B N 0.6039(3) -0.1513(3) 0.05581(18)
N6B N -0.0428(4) 0.0168(4) 0.1116(2)
N7B N 0.1785(3) -0.1041(3) 0.03267(18)
H155B H 0.1897 -0.0719 0.0307
N8B N 0.2100(3) -0.1443(3) 0.01958(19)
N9B N 0.2554(3) -0.2327(3) -0.00122(19)
N10B N 0.2356(3) -0.1592(3) -0.08818(19)
H156B H 0.2192 -0.1899 -0.0885
N11B N 0.2614(3) -0.1368(3) -0.05722(18)
N12B N 0.3223(3) -0.0815(3) -0.00666(18)
N13B N 0.3864(4) -0.4488(4) 0.1380(3)
N14B N 0.5819(4) -0.2883(3) 0.0721(2)
H157B H 0.5606 -0.2680 0.0861
N15B N 0.6256(3) -0.2716(3) 0.0501(2)
N16B N 0.7058(4) -0.2582(3) -0.0017(2)
N17B N 0.4088(4) -0.3423(4) -0.2214(2)
N18B N 0.5452(3) -0.1307(3) -0.17607(19)
H158B H 0.5296 -0.1425 -0.1556
N19B N 0.5734(3) -0.0852(3) -0.17804(19)
N20B N 0.6299(3) -0.0015(3) -0.19465(19)
N21B N 0.3804(4) -0.0822(4) -0.2115(2)
N22B N 0.3663(4) -0.1174(4) -0.2372(3)
N23B N 0.4381(4) -0.0340(4) -0.2677(2)
N24B N 0.4208(4) -0.0778(4) -0.2872(3)
N25B N 0.3139(4) -0.0210(4) -0.2627(2)
N26B N 0.3104(4) -0.0646(4) -0.2841(3)
N27B N 0.7457(4) -0.1587(4) -0.0987(2)
N28B N 0.7947(4) -0.1834(4) -0.1126(3)
N29B N 0.8115(3) -0.0718(4) -0.1078(2)
N30B N 0.8550(4) -0.1026(4) -0.1207(2)
N31B N 0.8298(3) -0.1270(3) -0.0424(2)
N32B N 0.8699(4) -0.1540(4) -0.0624(2)
N33B N 0.6539(4) 0.2366(3) -0.13966(19)
N34B N 0.6850(4) 0.2464(3) -0.1710(2)
N35B N 0.7048(3) 0.1433(3) -0.14219(18)
N36B N 0.7311(3) 0.1602(3) -0.17399(19)
N37B N 0.5972(4) 0.1617(3) -0.18421(19)
N38B N 0.6348(4) 0.1783(3) -0.2110(2)
N39B N 0.5782(3) -0.2165(3) -0.01141(18)
N40B N 0.4935(4) -0.1701(4) -0.1115(2)
N41B N 0.3732(4) -0.1831(3) -0.02517(19)
N42B N 0.1204(7) -0.1729(5) -0.2610(3)
N43B N 0.6809(3) -0.1457(3) -0.0089(2)
N44B N 0.6526(3) -0.0449(3) -0.11457(19)
N45B N 0.5005(3) 0.0042(3) -0.1761(2)
N46B N 0.4464(4) -0.3058(3) -0.0196(2)
N47B N 0.4315(4) -0.3549(4) -0.0298(2)
N48B N 0.3946(3) -0.2819(3) -0.08904(19)
N49B N 0.3857(4) -0.3327(4) -0.0918(2)
N50B N 0.3018(4) 0.0220(4) -0.1669(3)
N51B N 0.5897(3) 0.0547(4) -0.12487(19)
N52B N 0.6673(3) 0.1676(3) -0.04868(19)
N53B N 0.5021(4) 0.2163(3) -0.1080(2)
N54B N 0.4966(4) -0.3541(4) -0.0852(2)
N55B N 0.5177(4) -0.3064(3) -0.0805(2)
N56B N 0.7783(3) 0.0033(3) -0.0245(2)
C190B C 0.3972(4) 0.05865(14) -0.2443(2)
N57B N 0.5255(3) -0.0439(3) -0.10349(19)
Ni1B Ni 0.57966(5) -0.01843(5) -0.14685(3)
Ni2B Ni 0.29316(5) -0.15783(5) -0.00355(3)
Ni3B Ni 0.65143(5) -0.20386(5) 0.02450(3)
loop_
_geom_bond_atom_site_label_1
_geom_bond_atom_site_label_2
_geom_bond_site_symmetry_1
_geom_bond_site_symmetry_2
B1 H1 1_555 1_555
B2 H2 1_555 1_555
B3 H3 1_555 1_555
B4 H4 1_555 1_555
C1 Fe3 1_555 1_555
C2 C70 1_555 1_555
C3 Fe2 1_555 1_555
C4 C29 1_555 1_555
C5 Fe1 1_555 1_555
C6 H5 1_555 1_555
C7 C18 1_555 1_555
C8 C15 1_555 1_555
C9 H6 1_555 1_555
C10 C26 1_555 1_555
C11 Fe4 1_555 1_555
C12 C56 1_555 1_555
C13 H7 1_555 1_555
C14 Fe3 1_555 1_555
C15 H8 1_555 1_555
C16 H9 1_555 1_555
C17 H10 1_555 1_555
C18 C62 1_555 1_555
C19 C59 1_555 1_555
C20 H11 1_555 1_555
C21 H12 1_555 1_555
C22 H13 1_555 1_555
C23 C8 1_555 1_555
H14 C23 1_555 1_555
C24 C6 1_555 1_555
H15 C24 1_555 1_555
C25 C93 1_555 1_555
C26 C35 1_555 1_555
C27 Fe3 1_555 1_555
C28 C23 1_555 1_555
H16 C28 1_555 1_555
C29 C22 1_555 1_555
H17 C29 1_555 1_555
C30 Fe2 1_555 1_555
C31 C20 1_555 1_555
H18 C31 1_555 1_555
C32 H19 1_555 1_555
C33 H20 1_555 1_555
C34 Fe2 1_555 1_555
C35 H21 1_555 1_555
C36 C78 1_555 1_555
C37 H22 1_555 1_555
C38 C15 1_555 1_555
H23 C38 1_555 1_555
C39 H24 1_555 1_555
C40 H25 1_555 1_555
C41 C21 1_555 1_555
C42 C82 1_555 1_555
C43 C39 1_555 1_555
H26 C43 1_555 1_555
C44 C17 1_555 1_555
C45 H27 1_555 1_555
C46 C21 1_555 1_555
C47 C26 1_555 1_555
H28 C47 1_555 1_555
C48 Fe1 1_555 1_555
C49 H29 1_555 1_555
C50 C28 1_555 1_555
H30 C50 1_555 1_555
C51 Fe1 1_555 1_555
C52 C32 1_555 1_555
H31 C52 1_555 1_555
C53 H32 1_555 1_555
C54 C4 1_555 1_555
H33 C54 1_555 1_555
C55 C67 1_555 1_555
C56 C106 1_555 1_555
C57 C7 1_555 1_555
H34 C57 1_555 1_555
C58 C71 1_555 1_555
C59 C20 1_555 1_555
C60 C41 1_555 1_555
C61 C91 1_555 1_555
C62 C10 1_555 1_555
H35 C62 1_555 1_555
C63 H36 1_555 1_555
C64 H37 1_555 1_555
C65 H38 1_555 1_555
C66 C13 1_555 1_555
H39 C66 1_555 1_555
C67 C35 1_555 1_555
H40 C67 1_555 1_555
C68 C87 1_555 1_555
C69 H41 1_555 1_555
C70 C19 1_555 1_555
H42 C70 1_555 1_555
C71 H43 1_555 1_555
C72 C31 1_555 1_555
C73 H44 1_555 1_555
C74 C12 1_555 1_555
H45 C74 1_555 1_555
C75 C47 1_555 1_555
H46 C75 1_555 1_555
C76 H47 1_555 1_555
C77 H48 1_555 1_555
C78 C106 1_555 1_555
C79 H49 1_555 1_555
C80 C45 1_555 1_555
H50 C80 1_555 1_555
C81 H51 1_555 1_555
C82 H52 1_555 1_555
C83 C13 1_555 1_555
H53 C83 1_555 1_555
C84 C42 1_555 1_555
H54 C84 1_555 1_555
C85 C36 1_555 1_555
H55 C85 1_555 1_555
C86 C81 1_555 1_555
H56 C86 1_555 1_555
C87 C71 1_555 1_555
C88 C64 1_555 1_555
H57 C88 1_555 1_555
C89 C49 1_555 1_555
H58 C89 1_555 1_555
C90 C37 1_555 1_555
H59 C90 1_555 1_555
C91 H60 1_555 1_555
C92 H61 1_555 1_555
C93 H62 1_555 1_555
C94 C96 1_555 1_555
C95 C6 1_555 1_555
H63 C95 1_555 1_555
C96 C77 1_555 1_555
H64 C96 1_555 1_555
C97 H65 1_555 1_555
C98 H66 1_555 1_555
C99 C90 1_555 1_555
H67 C99 1_555 1_555
C100 C82 1_555 1_555
H68 C100 1_555 1_555
C101 C91 1_555 1_555
H69 C101 1_555 1_555
C102 C57 1_555 1_555
H70 C102 1_555 1_555
C103 C2 1_555 1_555
C104 H71 1_555 1_555
C105 C88 1_555 1_555
H72 C105 1_555 1_555
C106 H73 1_555 1_555
C107 C94 1_555 1_555
H74 C107 1_555 1_555
C108 C43 1_555 1_555
H75 C108 1_555 1_555
C109 C9 1_555 1_555
H76 C109 1_555 1_555
C110 C104 1_555 1_555
H77 C110 1_555 1_555
C111 C69 1_555 1_555
H78 C111 1_555 1_555
C112 C97 1_555 1_555
H79 C112 1_555 1_555
C113 C85 1_555 1_555
H80 C113 1_555 1_555
C114 C115 1_555 1_555
C115 H81 1_555 1_555
C116 C104 1_555 1_555
H82 C116 1_555 1_555
C117 H83 1_555 1_555
C118 H84 1_555 1_555
C119 C89 1_555 1_555
H85 C119 1_555 1_555
C120 C58 1_555 1_555
C121 H86 1_555 1_555
C122 C73 1_555 1_555
H87 C122 1_555 1_555
C123 C16 1_555 1_555
H88 C123 1_555 1_555
C124 C61 1_555 1_555
H89 C124 1_555 1_555
C125 C68 1_555 1_555
H90 C125 1_555 1_555
C126 C118 1_555 1_555
H91 C126 1_555 1_555
C127 C40 1_555 1_555
C128 C109 1_555 1_555
H92 C128 1_555 1_555
C129 C33 1_555 1_555
H93 C129 1_555 1_555
C130 C110 1_555 1_555
H94 C130 1_555 1_555
C131 C79 1_555 1_555
H95 C131 1_555 1_555
C132 C76 1_555 1_555
H96 C132 1_555 1_555
C133 C25 1_555 1_555
H97 C133 1_555 1_555
C134 C36 1_555 1_555
H98 C134 1_555 1_555
C135 C117 1_555 1_555
H99 C135 1_555 1_555
C136 C118 1_555 1_555
H100 C136 1_555 1_555
C137 C124 1_555 1_555
H101 C137 1_555 1_555
C138 C107 1_555 1_555
H102 C138 1_555 1_555
C139 C101 1_555 1_555
H103 C139 1_555 1_555
C140 C80 1_555 1_555
H104 C140 1_555 1_555
C141 C117 1_555 1_555
H105 C141 1_555 1_555
C142 C92 1_555 1_555
H106 C142 1_555 1_555
C143 H107 1_555 1_555
C144 H108 1_555 1_555
C145 C143 1_555 1_555
H109 C145 1_555 1_555
C146 Fe4 1_555 1_555
C147 C112 1_555 1_555
H110 C147 1_555 1_555
C148 C149 1_555 1_555
C149 H111 1_555 1_555
C150 C149 1_555 1_555
H112 C150 1_555 1_555
C151 C150 1_555 1_555
H113 C151 1_555 1_555
C152 C151 1_555 1_555
H114 C152 1_555 1_555
C153 C148 1_555 1_555
H115 C153 1_555 1_555
C154 C155 1_555 1_555
C155 H116 1_555 1_555
C156 C155 1_555 1_555
H117 C156 1_555 1_555
C157 C156 1_555 1_555
H118 C157 1_555 1_555
C158 C157 1_555 1_555
H119 C158 1_555 1_555
C159 C154 1_555 1_555
H120 C159 1_555 1_555
C160 C161 1_555 1_555
C161 H121 1_555 1_555
C162 C161 1_555 1_555
H122 C162 1_555 1_555
C163 C162 1_555 1_555
H123 C163 1_555 1_555
C164 C163 1_555 1_555
H124 C164 1_555 1_555
C165 C160 1_555 1_555
H125 C165 1_555 1_555
C166 C167 1_555 1_555
C167 H126 1_555 1_555
C168 C167 1_555 1_555
H127 C168 1_555 1_555
C169 C168 1_555 1_555
H128 C169 1_555 1_555
C170 C169 1_555 1_555
H129 C170 1_555 1_555
C171 C166 1_555 1_555
H130 C171 1_555 1_555
C172 C173 1_555 1_555
C173 H131 1_555 1_555
C174 C173 1_555 1_555
H132 C174 1_555 1_555
C175 C174 1_555 1_555
H133 C175 1_555 1_555
C176 C175 1_555 1_555
H134 C176 1_555 1_555
C177 C172 1_555 1_555
H135 C177 1_555 1_555
N1 C190 1_555 1_555
C178 H136 1_555 1_555
H137 C178 1_555 1_555
H138 C178 1_555 1_555
C179 C178 1_555 1_555
C180 H139 1_555 1_555
H140 C180 1_555 1_555
H141 C180 1_555 1_555
C181 C180 1_555 1_555
C182 H142 1_555 1_555
H143 C182 1_555 1_555
H144 C182 1_555 1_555
C183 C182 1_555 1_555
C184 H145 1_555 1_555
H146 C184 1_555 1_555
H147 C184 1_555 1_555
C185 C184 1_555 1_555
C186 H148 1_555 1_555
H149 C186 1_555 1_555
H150 C186 1_555 1_555
C187 C186 1_555 1_555
C188 H151 1_555 1_555
H152 C188 1_555 1_555
H153 C188 1_555 1_555
C189 C188 1_555 1_555
F1 P1 1_555 1_555
F2 P1 1_555 1_555
F3 P1 1_555 1_555
F4 P1 1_555 1_555
F5 P1 1_555 1_555
F6 P1 1_555 1_555
F7 P2 1_555 1_555
F8 P2 1_555 1_555
F9 P2 1_555 1_555
F10 P2 1_555 1_555
F11 P2 1_555 1_555
F12 P2 1_555 1_555
Fe1 N33 1_555 1_555
Fe2 N27 1_555 1_555
Fe3 N46 1_555 1_555
Fe4 N21 1_555 1_555
N2 C4 1_555 1_555
N3 C46 1_555 1_555
H154 N3 1_555 1_555
N4 C41 1_555 1_555
N5 C60 1_555 1_555
N6 C42 1_555 1_555
N7 C19 1_555 1_555
H155 N7 1_555 1_555
N8 C2 1_555 1_555
N9 C69 1_555 1_555
N10 C78 1_555 1_555
H156 N10 1_555 1_555
N11 C56 1_555 1_555
N12 C12 1_555 1_555
N13 C94 1_555 1_555
N14 C58 1_555 1_555
H157 N14 1_555 1_555
N15 C87 1_555 1_555
N16 C68 1_555 1_555
N17 C55 1_555 1_555
N18 C10 1_555 1_555
H158 N18 1_555 1_555
N19 C18 1_555 1_555
N20 C7 1_555 1_555
N21 C135 1_555 1_555
N22 B3 1_555 1_555
N23 C9 1_555 1_555
N24 B3 1_555 1_555
N25 C92 1_555 1_555
N26 B3 1_555 1_555
N27 C144 1_555 1_555
N28 B2 1_555 1_555
N29 C45 1_555 1_555
N30 B2 1_555 1_555
N31 C79 1_555 1_555
N32 B2 1_555 1_555
N33 C99 1_555 1_555
N34 B1 1_555 1_555
N35 C64 1_555 1_555
N36 B1 1_555 1_555
N37 C53 1_555 1_555
N38 B1 1_555 1_555
N39 C1 1_555 1_555
N40 C27 1_555 1_555
N41 C14 1_555 1_555
N42 C127 1_555 1_555
N43 C30 1_555 1_555
N44 C3 1_555 1_555
N45 C11 1_555 1_555
N46 C49 1_555 1_555
N47 B4 1_555 1_555
N48 C33 1_555 1_555
N49 B4 1_555 1_555
N50 C146 1_555 1_555
N51 C48 1_555 1_555
N52 C5 1_555 1_555
N53 C51 1_555 1_555
N54 B4 1_555 1_555
N55 C97 1_555 1_555
N56 C34 1_555 1_555
C190 Fe4 1_555 1_555
N57 C179 1_555 1_555
N58 C181 1_555 1_555
N59 C183 1_555 1_555
N60 C185 1_555 1_555
N61 C187 1_555 1_555
N62 C189 1_555 1_555
Ni1 N19 1_555 1_555
Ni2 N8 1_555 1_555
Ni3 N4 1_555 1_555
N63 C192 1_555 1_555
C191 H159 1_555 1_555
H160 C191 1_555 1_555
H161 C191 1_555 1_555
C192 C191 1_555 1_555
B1B H1B 1_555 1_555
B2B H2B 1_555 1_555
B3B H3B 1_555 1_555
B4B H4B 1_555 1_555
C1B Fe3B 1_555 1_555
C2B C70B 1_555 1_555
C3B Fe2B 1_555 1_555
C4B C29B 1_555 1_555
C5B Fe1B 1_555 1_555
C6B H5B 1_555 1_555
C7B C18B 1_555 1_555
C8B C15B 1_555 1_555
C9B H6B 1_555 1_555
C10B C26B 1_555 1_555
C11B Fe4B 1_555 1_555
C12B C56B 1_555 1_555
C13B H7B 1_555 1_555
C14B Fe3B 1_555 1_555
C15B H8B 1_555 1_555
C16B H9B 1_555 1_555
C17B H10B 1_555 1_555
C18B C62B 1_555 1_555
C19B C59B 1_555 1_555
C20B H11B 1_555 1_555
C21B H12B 1_555 1_555
C22B H13B 1_555 1_555
C23B C8B 1_555 1_555
H14B C23B 1_555 1_555
C24B C6B 1_555 1_555
H15B C24B 1_555 1_555
C25B C93B 1_555 1_555
C26B C35B 1_555 1_555
C27B Fe3B 1_555 1_555
C28B C23B 1_555 1_555
H16B C28B 1_555 1_555
C29B C22B 1_555 1_555
H17B C29B 1_555 1_555
C30B Fe2B 1_555 1_555
C31B C20B 1_555 1_555
H18B C31B 1_555 1_555
C32B H19B 1_555 1_555
C33B H20B 1_555 1_555
C34B Fe2B 1_555 1_555
C35B H21B 1_555 1_555
C36B C78B 1_555 1_555
C37B H22B 1_555 1_555
C38B C15B 1_555 1_555
H23B C38B 1_555 1_555
C39B H24B 1_555 1_555
C40B H25B 1_555 1_555
C41B C21B 1_555 1_555
C42B C82B 1_555 1_555
C43B C39B 1_555 1_555
H26B C43B 1_555 1_555
C44B C17B 1_555 1_555
C45B H27B 1_555 1_555
C46B C21B 1_555 1_555
C47B C26B 1_555 1_555
H28B C47B 1_555 1_555
C48B Fe1B 1_555 1_555
C49B H29B 1_555 1_555
C50B C28B 1_555 1_555
H30B C50B 1_555 1_555
C51B Fe1B 1_555 1_555
C52B C32B 1_555 1_555
H31B C52B 1_555 1_555
C53B H32B 1_555 1_555
C54B C4B 1_555 1_555
H33B C54B 1_555 1_555
C55B C67B 1_555 1_555
C56B C106B 1_555 1_555
C57B C7B 1_555 1_555
H34B C57B 1_555 1_555
C58B C71B 1_555 1_555
C59B C20B 1_555 1_555
C60B C41B 1_555 1_555
C61B C91B 1_555 1_555
C62B C10B 1_555 1_555
H35B C62B 1_555 1_555
C63B H36B 1_555 1_555
C64B H37B 1_555 1_555
C65B H38B 1_555 1_555
C66B C13B 1_555 1_555
H39B C66B 1_555 1_555
C67B C35B 1_555 1_555
H40B C67B 1_555 1_555
C68B C87B 1_555 1_555
C69B H41B 1_555 1_555
C70B C19B 1_555 1_555
H42B C70B 1_555 1_555
C71B H43B 1_555 1_555
C72B C31B 1_555 1_555
C73B H44B 1_555 1_555
C74B C12B 1_555 1_555
H45B C74B 1_555 1_555
C75B C47B 1_555 1_555
H46B C75B 1_555 1_555
C76B H47B 1_555 1_555
C77B H48B 1_555 1_555
C78B C106B 1_555 1_555
C79B H49B 1_555 1_555
C80B C45B 1_555 1_555
H50B C80B 1_555 1_555
C81B H51B 1_555 1_555
C82B H52B 1_555 1_555
C83B C13B 1_555 1_555
H53B C83B 1_555 1_555
C84B C42B 1_555 1_555
H54B C84B 1_555 1_555
C85B C36B 1_555 1_555
H55B C85B 1_555 1_555
C86B C81B 1_555 1_555
H56B C86B 1_555 1_555
C87B C71B 1_555 1_555
C88B C64B 1_555 1_555
H57B C88B 1_555 1_555
C89B C49B 1_555 1_555
H58B C89B 1_555 1_555
C90B C37B 1_555 1_555
H59B C90B 1_555 1_555
C91B H60B 1_555 1_555
C92B H61B 1_555 1_555
C93B H62B 1_555 1_555
C94B C96B 1_555 1_555
C95B C6B 1_555 1_555
H63B C95B 1_555 1_555
C96B C77B 1_555 1_555
H64B C96B 1_555 1_555
C97B H65B 1_555 1_555
C98B H66B 1_555 1_555
C99B C90B 1_555 1_555
H67B C99B 1_555 1_555
C100B C82B 1_555 1_555
H68B C100B 1_555 1_555
C101B C91B 1_555 1_555
H69B C101B 1_555 1_555
C102B C57B 1_555 1_555
H70B C102B 1_555 1_555
C103B C2B 1_555 1_555
C104B H71B 1_555 1_555
C105B C88B 1_555 1_555
H72B C105B 1_555 1_555
C106B H73B 1_555 1_555
C107B C94B 1_555 1_555
H74B C107B 1_555 1_555
C108B C43B 1_555 1_555
H75B C108B 1_555 1_555
C109B C9B 1_555 1_555
H76B C109B 1_555 1_555
C110B C104B 1_555 1_555
H77B C110B 1_555 1_555
C111B C69B 1_555 1_555
H78B C111B 1_555 1_555
C112B C97B 1_555 1_555
H79B C112B 1_555 1_555
C113B C85B 1_555 1_555
H80B C113B 1_555 1_555
C114B C115B 1_555 1_555
C115B H81B 1_555 1_555
C116B C104B 1_555 1_555
H82B C116B 1_555 1_555
C117B H83B 1_555 1_555
C118B H84B 1_555 1_555
C119B C89B 1_555 1_555
H85B C119B 1_555 1_555
C120B C58B 1_555 1_555
C121B H86B 1_555 1_555
C122B C73B 1_555 1_555
H87B C122B 1_555 1_555
C123B C16B 1_555 1_555
H88B C123B 1_555 1_555
C124B C61B 1_555 1_555
H89B C124B 1_555 1_555
C125B C68B 1_555 1_555
H90B C125B 1_555 1_555
C126B C118B 1_555 1_555
H91B C126B 1_555 1_555
C127B C40B 1_555 1_555
C128B C109B 1_555 1_555
H92B C128B 1_555 1_555
C129B C33B 1_555 1_555
H93B C129B 1_555 1_555
C130B C110B 1_555 1_555
H94B C130B 1_555 1_555
C131B C79B 1_555 1_555
H95B C131B 1_555 1_555
C132B C76B 1_555 1_555
H96B C132B 1_555 1_555
C133B C25B 1_555 1_555
H97B C133B 1_555 1_555
C134B C36B 1_555 1_555
H98B C134B 1_555 1_555
C135B C117B 1_555 1_555
H99B C135B 1_555 1_555
C136B C118B 1_555 1_555
H100B C136B 1_555 1_555
C137B C124B 1_555 1_555
H101B C137B 1_555 1_555
C138B C107B 1_555 1_555
H102B C138B 1_555 1_555
C139B C101B 1_555 1_555
H103B C139B 1_555 1_555
C140B C80B 1_555 1_555
H104B C140B 1_555 1_555
C141B C117B 1_555 1_555
H105B C141B 1_555 1_555
C142B C92B 1_555 1_555
H106B C142B 1_555 1_555
C143B H107B 1_555 1_555
C144B H108B 1_555 1_555
C145B C143B 1_555 1_555
H109B C145B 1_555 1_555
C146B Fe4B 1_555 1_555
C147B C112B 1_555 1_555
H110B C147B 1_555 1_555
C148B C149B 1_555 1_555
C149B H111B 1_555 1_555
C150B C149B 1_555 1_555
H112B C150B 1_555 1_555
C151B C150B 1_555 1_555
H113B C151B 1_555 1_555
C152B C151B 1_555 1_555
H114B C152B 1_555 1_555
C153B C148B 1_555 1_555
H115B C153B 1_555 1_555
C154B C155B 1_555 1_555
C155B H116B 1_555 1_555
C156B C155B 1_555 1_555
H117B C156B 1_555 1_555
C157B C156B 1_555 1_555
H118B C157B 1_555 1_555
C158B C157B 1_555 1_555
H119B C158B 1_555 1_555
C159B C154B 1_555 1_555
H120B C159B 1_555 1_555
C160B C161B 1_555 1_555
C161B H121B 1_555 1_555
C162B C161B 1_555 1_555
H122B C162B 1_555 1_555
C163B C162B 1_555 1_555
H123B C163B 1_555 1_555
C164B C163B 1_555 1_555
H124B C164B 1_555 1_555
C165B C160B 1_555 1_555
H125B C165B 1_555 1_555
C166B C167B 1_555 1_555
C167B H126B 1_555 1_555
C168B C167B 1_555 1_555
H127B C168B 1_555 1_555
C169B C168B 1_555 1_555
H128B C169B 1_555 1_555
C170B C169B 1_555 1_555
H129B C170B 1_555 1_555
C171B C166B 1_555 1_555
H130B C171B 1_555 1_555
C172B C173B 1_555 1_555
C173B H131B 1_555 1_555
C174B C173B 1_555 1_555
H132B C174B 1_555 1_555
C175B C174B 1_555 1_555
H133B C175B 1_555 1_555
C176B C175B 1_555 1_555
H134B C176B 1_555 1_555
C177B C172B 1_555 1_555
H135B C177B 1_555 1_555
N1B C190B 1_555 1_555
C178B H136B 1_555 1_555
H137B C178B 1_555 1_555
H138B C178B 1_555 1_555
C179B C178B 1_555 1_555
Fe1B N33B 1_555 1_555
Fe2B N27B 1_555 1_555
Fe3B N46B 1_555 1_555
Fe4B N21B 1_555 1_555
N2B C4B 1_555 1_555
N3B C46B 1_555 1_555
H154B N3B 1_555 1_555
N4B C41B 1_555 1_555
N5B C60B 1_555 1_555
N6B C42B 1_555 1_555
N7B C19B 1_555 1_555
H155B N7B 1_555 1_555
N8B C2B 1_555 1_555
N9B C69B 1_555 1_555
N10B C78B 1_555 1_555
H156B N10B 1_555 1_555
N11B C56B 1_555 1_555
N12B C12B 1_555 1_555
N13B C94B 1_555 1_555
N14B C58B 1_555 1_555
H157B N14B 1_555 1_555
N15B C87B 1_555 1_555
N16B C68B 1_555 1_555
N17B C55B 1_555 1_555
N18B C10B 1_555 1_555
H158B N18B 1_555 1_555
N19B C18B 1_555 1_555
N20B C7B 1_555 1_555
N21B C135B 1_555 1_555
N22B B3B 1_555 1_555
N23B C9B 1_555 1_555
N24B B3B 1_555 1_555
N25B C92B 1_555 1_555
N26B B3B 1_555 1_555
N27B C144B 1_555 1_555
N28B B2B 1_555 1_555
N29B C45B 1_555 1_555
N30B B2B 1_555 1_555
N31B C79B 1_555 1_555
N32B B2B 1_555 1_555
N33B C99B 1_555 1_555
N34B B1B 1_555 1_555
N35B C64B 1_555 1_555
N36B B1B 1_555 1_555
N37B C53B 1_555 1_555
N38B B1B 1_555 1_555
N39B C1B 1_555 1_555
N40B C27B 1_555 1_555
N41B C14B 1_555 1_555
N42B C127B 1_555 1_555
N43B C30B 1_555 1_555
N44B C3B 1_555 1_555
N45B C11B 1_555 1_555
N46B C49B 1_555 1_555
N47B B4B 1_555 1_555
N48B C33B 1_555 1_555
N49B B4B 1_555 1_555
N50B C146B 1_555 1_555
N51B C48B 1_555 1_555
N52B Ni2 1_555 1_555
N53B C51B 1_555 1_555
N54B B4B 1_555 1_555
N55B C97B 1_555 1_555
N56B C34B 1_555 1_555
C190B Fe4B 1_555 1_555
N57B C179B 1_555 1_555
Ni1B N19B 1_555 1_555
Ni2B N52 1_555 1_555
Ni3B N4B 1_555 1_555
C8 N2 1_555 1_555
C16 N38 1_555 1_555
C17 C54 1_555 1_555
C22 C44 1_555 1_555
C24 N12 1_555 1_555
C25 N2 1_555 1_555
C32 C59 1_555 1_555
C37 N34 1_555 1_555
C38 C50 1_555 1_555
C39 C133 1_555 1_555
C40 C134 1_555 1_555
C44 C46 1_555 1_555
C52 C72 1_555 1_555
C53 C123 1_555 1_555
C55 C75 1_555 1_555
C60 C83 1_555 1_555
C61 N17 1_555 1_555
C63 C66 1_555 1_555
C63 N5 1_555 1_555
C65 C129 1_555 1_555
C65 N49 1_555 1_555
C72 N6 1_555 1_555
C73 C103 1_555 1_555
C74 C95 1_555 1_555
C76 C84 1_555 1_555
C77 C120 1_555 1_555
C81 N20 1_555 1_555
C86 C102 1_555 1_555
C93 C108 1_555 1_555
C98 C131 1_555 1_555
C98 N32 1_555 1_555
C100 C132 1_555 1_555
C103 N9 1_555 1_555
C105 N36 1_555 1_555
C111 C122 1_555 1_555
C113 C127 1_555 1_555
C114 C116 1_555 1_555
C114 N17 1_555 1_555
C115 C130 1_555 1_555
C119 N47 1_555 1_555
C120 C138 1_555 1_555
C121 C142 1_555 1_555
C121 N26 1_555 1_555
C125 C126 1_555 1_555
C128 N24 1_555 1_555
C136 N16 1_555 1_555
C137 C139 1_555 1_555
C140 N30 1_555 1_555
C141 N22 1_555 1_555
C143 N28 1_555 1_555
C144 C145 1_555 1_555
C147 N54 1_555 1_555
C148 N13 1_555 1_555
C152 C153 1_555 1_555
C154 N13 1_555 1_555
C158 C159 1_555 1_555
C160 N42 1_555 1_555
C164 C165 1_555 1_555
C166 N42 1_555 1_555
C170 C171 1_555 1_555
C172 N6 1_555 1_555
C176 C177 1_555 1_555
Fe1 N35 1_555 1_555
Fe1 N37 1_555 1_555
Fe2 N29 1_555 1_555
Fe2 N31 1_555 1_555
Fe3 N48 1_555 1_555
Fe3 N55 1_555 1_555
Fe4 N23 1_555 1_555
Fe4 N25 1_555 1_555
N3 N4 1_555 1_555
N5 Ni3 1_555 1_555
N7 N8 1_555 1_555
N9 Ni2 1_555 1_555
N10 N11 1_555 1_555
N11 Ni2 1_555 1_555
N12 Ni2 1_555 1_555
N14 N15 1_555 1_555
N15 Ni3 1_555 1_555
N16 Ni3 1_555 1_555
N18 N19 1_555 1_555
N20 Ni1 1_555 1_555
N21 N22 1_555 1_555
N23 N24 1_555 1_555
N25 N26 1_555 1_555
N27 N28 1_555 1_555
N29 N30 1_555 1_555
N31 N32 1_555 1_555
N33 N34 1_555 1_555
N35 N36 1_555 1_555
N37 N38 1_555 1_555
N39 Ni3 1_555 1_555
N41 Ni2 1_555 1_555
N43 Ni3 1_555 1_555
N44 Ni1 1_555 1_555
N45 Ni1 1_555 1_555
N46 N47 1_555 1_555
N48 N49 1_555 1_555
N51 Ni1 1_555 1_555
N54 N55 1_555 1_555
N57 Ni1 1_555 1_555
C5B N52B 1_555 1_555
C8B N2B 1_555 1_555
C16B N38B 1_555 1_555
C17B C54B 1_555 1_555
C22B C44B 1_555 1_555
C24B N12B 1_555 1_555
C25B N2B 1_555 1_555
C32B C59B 1_555 1_555
C37B N34B 1_555 1_555
C38B C50B 1_555 1_555
C39B C133B 1_555 1_555
C40B C134B 1_555 1_555
C44B C46B 1_555 1_555
C52B C72B 1_555 1_555
C53B C123B 1_555 1_555
C55B C75B 1_555 1_555
C60B C83B 1_555 1_555
C61B N17B 1_555 1_555
C63B C66B 1_555 1_555
C63B N5B 1_555 1_555
C65B C129B 1_555 1_555
C65B N49B 1_555 1_555
C72B N6B 1_555 1_555
C73B C103B 1_555 1_555
C74B C95B 1_555 1_555
C76B C84B 1_555 1_555
C77B C120B 1_555 1_555
C81B N20B 1_555 1_555
C86B C102B 1_555 1_555
C93B C108B 1_555 1_555
C98B C131B 1_555 1_555
C98B N32B 1_555 1_555
C100B C132B 1_555 1_555
C103B N9B 1_555 1_555
C105B N36B 1_555 1_555
C111B C122B 1_555 1_555
C113B C127B 1_555 1_555
C114B C116B 1_555 1_555
C114B N17B 1_555 1_555
C115B C130B 1_555 1_555
C119B N47B 1_555 1_555
C120B C138B 1_555 1_555
C121B C142B 1_555 1_555
C121B N26B 1_555 1_555
C125B C126B 1_555 1_555
C128B N24B 1_555 1_555
C136B N16B 1_555 1_555
C137B C139B 1_555 1_555
C140B N30B 1_555 1_555
C141B N22B 1_555 1_555
C143B N28B 1_555 1_555
C144B C145B 1_555 1_555
C147B N54B 1_555 1_555
C148B N13B 1_555 1_555
C152B C153B 1_555 1_555
C154B N13B 1_555 1_555
C158B C159B 1_555 1_555
C160B N42B 1_555 1_555
C164B C165B 1_555 1_555
C166B N42B 1_555 1_555
C170B C171B 1_555 1_555
C172B N6B 1_555 1_555
C176B C177B 1_555 1_555
Fe1B N35B 1_555 1_555
Fe1B N37B 1_555 1_555
Fe2B N29B 1_555 1_555
Fe2B N31B 1_555 1_555
Fe3B N48B 1_555 1_555
Fe3B N55B 1_555 1_555
Fe4B N23B 1_555 1_555
Fe4B N25B 1_555 1_555
N3B N4B 1_555 1_555
N5B Ni3B 1_555 1_555
N7B N8B 1_555 1_555
N8B Ni2B 1_555 1_555
N9B Ni2B 1_555 1_555
N10B N11B 1_555 1_555
N11B Ni2B 1_555 1_555
N12B Ni2B 1_555 1_555
N14B N15B 1_555 1_555
N15B Ni3B 1_555 1_555
N16B Ni3B 1_555 1_555
N18B N19B 1_555 1_555
N20B Ni1B 1_555 1_555
N21B N22B 1_555 1_555
N23B N24B 1_555 1_555
N25B N26B 1_555 1_555
N27B N28B 1_555 1_555
N29B N30B 1_555 1_555
N31B N32B 1_555 1_555
N33B N34B 1_555 1_555
N35B N36B 1_555 1_555
N37B N38B 1_555 1_555
N39B Ni3B 1_555 1_555
N41B Ni2B 1_555 1_555
N43B Ni3B 1_555 1_555
N44B Ni1B 1_555 1_555
N45B Ni1B 1_555 1_555
N46B N47B 1_555 1_555
N48B N49B 1_555 1_555
N51B Ni1B 1_555 1_555
N54B N55B 1_555 1_555
N57B Ni1B 1_555 1_555

#END
