
#######################################################################
#
#                 Cambridge Crystallographic Data Centre
#                                CCDC 
#
#######################################################################
#
# If this CIF has been generated from an entry in the Cambridge 
# Structural Database, then it will include bibliographic, chemical, 
# crystal, experimental, refinement or atomic coordinate data resulting 
# from the CCDC's data processing and validation procedures.
#
#######################################################################

data_PACXAU
_chemical_formula_moiety         
'C160 H96 F24 N16 O20 Pd2 4+,2(C12 H8 N2 O6 S2 2-),10(C2 H3 N1),2(H2 O1)'
_chemical_name_systematic        
"tetrakis(\m~2~-1,15-bis(Trifluoromethyl)-8,22-bis(pyridin-3-yl)-8,22-diaza-29-oxadecacyclo[13.13.1.1^3,13^.1^17,27^.0^2,14^.0^4,12^.0^6,10^.0^16,28^.0^18,26^.0^20,24^]hentriaconta-4(12),5,10,18(26),19,24-hexaene-7,9,21,23-tetrone-N,N')-di-palladium(ii) bis(4,4'-azobenzenedisulfonate) clathrate acetonitrile solvate dihydrate"
_symmetry_cell_setting           triclinic
_symmetry_space_group_name_H-M   'P -1'
_symmetry_Int_Tables_number      2
_space_group_name_Hall           '-P 1'
loop_
_symmetry_equiv_pos_site_id
_symmetry_equiv_pos_as_xyz
1 x,y,z
2 -x,-y,-z
_cell_length_a                   17.158(2)
_cell_length_b                   18.8062(18)
_cell_length_c                   20.0326(19)
_cell_angle_alpha                74.075(3)
_cell_angle_beta                 89.790(4)
_cell_angle_gamma                71.856(3)
_cell_volume                     5883.2
_exptl_crystal_colour            yellow
_exptl_crystal_description       block
_cell_formula_units_Z            1
loop_
_atom_site_label
_atom_site_type_symbol
_atom_site_fract_x
_atom_site_fract_y
_atom_site_fract_z
Pd1 Pd 0.84941(11) 0.02655(7) 0.77410(8)
F1 F 0.2470(7) 0.5198(5) 0.9409(5)
F2 F 0.3019(10) 0.5699(6) 0.8511(7)
F3 F 0.1821(7) 0.6304(5) 0.8720(5)
F4 F 0.0480(7) 0.3890(5) 0.8841(5)
F5 F 0.0155(7) 0.4193(5) 0.7743(5)
F6 F -0.0284(7) 0.5030(5) 0.8307(5)
F7 F 0.8199(7) 0.7435(4) 0.7790(5)
F8 F 0.7806(7) 0.7526(5) 0.6745(6)
F9 F 0.7425(7) 0.8513(5) 0.7144(5)
F10 F 0.6052(7) 0.7368(5) 0.9481(5)
F11 F 0.4875(8) 0.7438(5) 0.9036(5)
F12 F 0.5246(7) 0.8456(4) 0.8851(5)
O1 O 0.6126(10) 0.1736(7) 0.8713(9)
O5 O 0.4400(9) 0.0512(6) 0.8181(7)
O8 O 0.1295(10) 0.5046(6) 0.8580(6)
O11 O 0.1220(11) 0.8582(9) 0.4690(7)
O12 O -0.0875(10) 0.7698(7) 0.4315(7)
O13 O 0.8689(9) 0.2944(7) 0.7973(7)
O14 O 0.6797(10) 0.2859(7) 0.9574(8)
O15 O 0.6605(8) 0.7781(5) 0.8152(6)
O16 O 0.3797(10) 0.9602(6) 0.4047(8)
O17 O 0.1905(13) 0.9892(12) 0.5611(8)
N1 N 0.7501(9) -0.0070(7) 0.8126(8)
N9 N 0.5464(12) 0.0964(8) 0.8440(10)
N10 N 0.0116(13) 0.8310(8) 0.4322(8)
N11 N 0.9491(11) 0.0577(7) 0.7379(10)
N12 N 0.8437(9) 0.0757(7) 0.8521(7)
N13 N 0.7775(10) 0.2698(8) 0.8799(8)
N14 N 0.2649(11) 0.9780(8) 0.4701(8)
N15 N 0.8502(9) -0.0204(7) 0.6970(6)
C1 C 0.6833(19) 0.0506(12) 0.8062(15)
C9 C 0.7611(16) -0.0823(10) 0.8489(11)
C17 C 0.6951(16) -0.1003(12) 0.8835(14)
C20 C 0.6239(13) -0.0423(10) 0.8820(9)
C23 C 0.6183(17) 0.0345(10) 0.8386(14)
C26 C 0.5494(15) 0.1612(11) 0.8637(13)
C29 C 0.4634(16) 0.0992(10) 0.8302(10)
C30 C 0.4657(12) 0.2119(11) 0.8608(12)
C31 C 0.4128(15) 0.1772(11) 0.8446(12)
C32 C 0.4383(14) 0.2823(9) 0.8778(11)
C33 C 0.3242(13) 0.2079(8) 0.8415(10)
C34 C 0.3551(12) 0.3125(10) 0.8758(10)
C35 C 0.2986(12) 0.2756(9) 0.8615(10)
C36 C 0.3032(14) 0.3813(8) 0.8974(10)
C37 C 0.2339(11) 0.3480(9) 0.9320(9)
C38 C 0.2162(12) 0.3243(9) 0.8700(9)
C39 C 0.2585(11) 0.4408(8) 0.8288(8)
C40 C 0.1939(11) 0.4027(9) 0.8089(10)
C41 C 0.2001(17) 0.5219(9) 0.8282(12)
C42 C 0.2293(19) 0.5610(10) 0.8739(11)
C43 C 0.1136(16) 0.4692(11) 0.8064(10)
C44 C 0.0382(18) 0.4469(10) 0.8222(9)
C45 C 0.1706(12) 0.5693(8) 0.7522(7)
C46 C 0.1039(11) 0.5325(9) 0.7378(8)
C47 C 0.1176(15) 0.6593(9) 0.7346(10)
C48 C 0.0372(15) 0.6552(10) 0.7634(10)
C49 C 0.0220(12) 0.6036(9) 0.7178(9)
C50 C 0.0967(12) 0.6906(10) 0.6596(9)
C51 C 0.0336(14) 0.6588(10) 0.6479(9)
C52 C 0.1172(15) 0.7417(9) 0.6064(10)
C53 C -0.0138(13) 0.6810(10) 0.5829(9)
C54 C 0.0727(13) 0.7630(11) 0.5452(10)
C55 C 0.0111(16) 0.7374(10) 0.5322(9)
C56 C 0.0757(19) 0.8193(13) 0.4792(13)
C57 C -0.0276(15) 0.7787(11) 0.4582(10)
C58 C 0.9291(18) 0.1086(11) 0.6765(15)
C59 C 0.0044(19) 0.8787(10) 0.3610(14)
C60 C -0.0846(14) 0.9179(10) 0.3314(9)
C61 C -0.0959(15) 0.9646(11) 0.2637(12)
C62 C 1.0236(16) 0.0231(9) 0.7682(13)
C63 C 0.8138(10) 0.1549(8) 0.8405(8)
C64 C 0.8620(14) 0.0297(9) 0.9187(9)
C65 C 0.8540(14) 0.0587(9) 0.9751(11)
C66 C 0.8193(12) 0.1444(9) 0.9594(13)
C67 C 0.8044(13) 0.1873(9) 0.8931(10)
C68 C 0.8205(17) 0.3169(11) 0.8329(14)
C69 C 0.7185(15) 0.3137(9) 0.9138(11)
C70 C 0.7778(13) 0.3966(8) 0.8439(11)
C71 C 0.7224(13) 0.3951(9) 0.8890(9)
C72 C 0.8049(11) 0.4631(8) 0.8150(8)
C73 C 0.6799(13) 0.4587(9) 0.9118(9)
C74 C 0.7676(14) 0.5265(10) 0.8348(10)
C75 C 0.7073(15) 0.5262(8) 0.8804(11)
C76 C 0.7702(11) 0.6075(7) 0.8215(8)
C77 C 0.7568(11) 0.6179(9) 0.8983(9)
C78 C 0.6783(13) 0.6041(8) 0.8985(9)
C79 C 0.6916(13) 0.6631(8) 0.7776(10)
C80 C 0.6238(14) 0.6634(8) 0.8313(11)
C81 C 0.6811(12) 0.7551(8) 0.7556(8)
C82 C 0.7544(13) 0.7759(9) 0.7305(10)
C83 C 0.5911(13) 0.7508(9) 0.8253(9)
C84 C 0.5535(12) 0.7708(10) 0.8906(10)
C85 C 0.6042(14) 0.7921(8) 0.7034(10)
C86 C 0.5340(15) 0.7933(9) 0.7567(10)
C87 C 0.5811(14) 0.8791(9) 0.6614(10)
C88 C 0.549(2) 0.9202(11) 0.7188(11)
C89 C 0.4841(15) 0.8801(11) 0.7395(10)
C90 C 0.4938(16) 0.8971(10) 0.6264(13)
C91 C 0.4358(15) 0.9016(12) 0.6748(12)
C92 C 0.4782(14) 0.9136(8) 0.5474(9)
C93 C 0.3564(14) 0.9173(10) 0.6488(11)
C94 C 0.3951(15) 0.9348(10) 0.5299(12)
C95 C 0.3350(16) 0.9386(12) 0.5792(11)
C96 C 0.3535(17) 0.9594(11) 0.4586(11)
C97 C 0.2564(19) 0.9679(12) 0.5440(11)
C98 C 0.7978(12) 0.0133(10) 0.6420(9)
C99 C 0.2017(15) 1.0156(11) 0.4120(11)
C100 C 0.1439(15) 1.0858(12) 0.4136(11)
C101 C 0.0857(15) 1.1239(12) 0.3550(11)
C102 C 0.9073(15) -0.0881(10) 0.6977(11)
H1 H 0.6795 0.1022 0.7800
H2 H 0.8121 -0.1219 0.8510
H3 H 0.7005 -0.1529 0.9077
H4 H 0.5800 -0.0518 0.9081
H5 H 0.4746 0.3070 0.8896
H6 H 0.2880 0.1843 0.8275
H7 H 0.3326 0.4013 0.9273
H8 H 0.1734 0.2976 0.8756
H9 H 0.2552 0.3033 0.9743
H10 H 0.1864 0.3886 0.9419
H11 H 0.2979 0.4454 0.7922
H12 H 0.2023 0.3926 0.7625
H13 H 0.2161 0.5606 0.7211
H14 H 0.1178 0.5090 0.6984
H15 H -0.0058 0.7070 0.7530
H16 H 0.0437 0.6284 0.8140
H17 H 0.1437 0.6904 0.7548
H18 H -0.0309 0.5916 0.7213
H19 H 0.1607 0.7613 0.6120
H20 H -0.0561 0.6610 0.5745
H21 H 0.8734 0.1354 0.6582
H22 H -0.1293 0.9108 0.3576
H23 H -0.1490 0.9878 0.2389
H24 H 1.0309 -0.0121 0.8137
H25 H 0.7995 0.1878 0.7940
H26 H 0.8814 -0.0253 0.9268
H27 H 0.8698 0.0255 1.0214
H28 H 0.8079 0.1684 0.9959
H29 H 0.8468 0.4617 0.7838
H30 H 0.6386 0.4587 0.9435
H31 H 0.8220 0.6153 0.8027
H32 H 0.6513 0.6025 0.9430
H33 H 0.7986 0.5778 0.9346
H34 H 0.7521 0.6710 0.9005
H35 H 0.6792 0.6456 0.7372
H36 H 0.5800 0.6444 0.8170
H37 H 0.6025 0.7586 0.6726
H38 H 0.4990 0.7622 0.7487
H39 H 0.5920 0.9068 0.7573
H40 H 0.5251 0.9776 0.6997
H41 H 0.6226 0.8962 0.6316
H42 H 0.4519 0.8950 0.7781
H43 H 0.5195 0.9097 0.5157
H44 H 0.3154 0.9131 0.6802
H45 H 0.7567 0.0614 0.6401
H46 H 0.1436 1.1067 0.4517
H47 H 0.0437 1.1719 0.3518
H48 H 0.9460 -0.1136 0.7375
Pd1A Pd 0.15059(11) 0.97345(7) 0.22590(8)
F1A F 0.7530(7) 0.4802(5) 0.0591(5)
F2A F 0.6981(10) 0.4301(6) 0.1489(7)
F3A F 0.8179(7) 0.3696(5) 0.1280(5)
F4A F 0.9520(7) 0.6110(5) 0.1159(5)
F5A F 0.9845(7) 0.5807(5) 0.2257(5)
F6A F 1.0284(7) 0.4970(5) 0.1693(5)
F7A F 0.1801(7) 0.2565(4) 0.2210(5)
F8A F 0.2194(7) 0.2474(5) 0.3255(6)
F9A F 0.2575(7) 0.1487(5) 0.2856(5)
F10A F 0.3948(7) 0.2632(5) 0.0519(5)
F11A F 0.5125(8) 0.2562(5) 0.0964(5)
F12A F 0.4754(7) 0.1544(4) 0.1149(5)
O1A O 0.3874(10) 0.8264(7) 0.1287(9)
O5A O 0.5600(9) 0.9488(6) 0.1819(7)
O8A O 0.8705(10) 0.4954(6) 0.1420(6)
O11A O 0.8780(11) 0.1418(9) 0.5310(7)
O12A O 1.0875(10) 0.2302(7) 0.5685(7)
O13A O 0.1311(9) 0.7056(7) 0.2027(7)
O14A O 0.3203(10) 0.7141(7) 0.0426(8)
O15A O 0.3395(8) 0.2219(5) 0.1848(6)
O16A O 0.6203(10) 0.0398(6) 0.5953(8)
O17A O 0.8095(13) 0.0108(12) 0.4389(8)
N1A N 0.2499(9) 1.0070(7) 0.1874(8)
N9A N 0.4536(12) 0.9036(8) 0.1560(10)
N10A N 0.9884(13) 0.1690(8) 0.5678(8)
N11A N 0.0509(11) 0.9423(7) 0.2621(10)
N12A N 0.1563(9) 0.9243(7) 0.1479(7)
N13A N 0.2225(10) 0.7302(8) 0.1201(8)
N14A N 0.7351(11) 0.0220(8) 0.5299(8)
N15A N 0.1498(9) 1.0204(7) 0.3030(6)
C1A C 0.3167(19) 0.9494(12) 0.1938(15)
C9A C 0.2389(16) 1.0823(10) 0.1511(11)
C17A C 0.3049(16) 1.1003(12) 0.1165(14)
C20A C 0.3761(13) 1.0423(10) 0.1180(9)
C23A C 0.3817(17) 0.9655(10) 0.1614(14)
C26A C 0.4506(15) 0.8388(11) 0.1363(13)
C29A C 0.5366(16) 0.9008(10) 0.1698(10)
C30A C 0.5343(12) 0.7881(11) 0.1392(12)
C31A C 0.5872(15) 0.8228(11) 0.1554(12)
C32A C 0.5617(14) 0.7177(9) 0.1222(11)
C33A C 0.6758(13) 0.7921(8) 0.1585(10)
C34A C 0.6449(12) 0.6875(10) 0.1242(10)
C35A C 0.7014(12) 0.7244(9) 0.1385(10)
C36A C 0.6968(14) 0.6187(8) 0.1026(10)
C37A C 0.7661(11) 0.6520(9) 0.0680(9)
C38A C 0.7838(12) 0.6757(9) 0.1300(9)
C39A C 0.7415(11) 0.5592(8) 0.1712(8)
C40A C 0.8061(11) 0.5973(9) 0.1911(10)
C41A C 0.7999(17) 0.4781(9) 0.1718(12)
C42A C 0.7707(19) 0.4390(10) 0.1261(11)
C43A C 0.8864(16) 0.5308(11) 0.1936(10)
C44A C 0.9618(18) 0.5531(10) 0.1778(9)
C45A C 0.8294(12) 0.4307(8) 0.2478(7)
C46A C 0.8961(11) 0.4675(9) 0.2622(8)
C47A C 0.8824(15) 0.3407(9) 0.2654(10)
C48A C 0.9628(15) 0.3448(10) 0.2366(10)
C49A C 0.9780(12) 0.3964(9) 0.2822(9)
C50A C 0.9033(12) 0.3094(10) 0.3404(9)
C51A C 0.9664(14) 0.3412(10) 0.3521(9)
C52A C 0.8828(15) 0.2583(9) 0.3936(10)
C53A C 1.0138(13) 0.3190(10) 0.4171(9)
C54A C 0.9273(13) 0.2370(11) 0.4548(10)
C55A C 0.9889(16) 0.2626(10) 0.4678(9)
C56A C 0.9243(19) 0.1807(13) 0.5208(13)
C57A C 1.0276(15) 0.2213(11) 0.5418(10)
C58A C 0.0709(18) 0.8914(11) 0.3235(15)
C59A C 0.9956(19) 0.1213(10) 0.6390(14)
C60A C 1.0846(14) 0.0821(10) 0.6686(9)
C61A C 1.0959(15) 0.0354(11) 0.7363(12)
C62A C -0.0236(16) 0.9769(9) 0.2318(13)
C63A C 0.1862(10) 0.8451(8) 0.1595(8)
C64A C 0.1380(14) 0.9703(9) 0.0813(9)
C65A C 0.1460(14) 0.9413(9) 0.0249(11)
C66A C 0.1807(12) 0.8556(9) 0.0406(13)
C67A C 0.1956(13) 0.8127(9) 0.1069(10)
C68A C 0.1795(17) 0.6831(11) 0.1671(14)
C69A C 0.2815(15) 0.6863(9) 0.0862(11)
C70A C 0.2222(13) 0.6034(8) 0.1561(11)
C71A C 0.2776(13) 0.6049(9) 0.1110(9)
C72A C 0.1951(11) 0.5369(8) 0.1850(8)
C73A C 0.3201(13) 0.5413(9) 0.0882(9)
C74A C 0.2324(14) 0.4735(10) 0.1652(10)
C75A C 0.2927(15) 0.4738(8) 0.1196(11)
C76A C 0.2298(11) 0.3925(7) 0.1785(8)
C77A C 0.2432(11) 0.3821(9) 0.1017(9)
C78A C 0.3217(13) 0.3959(8) 0.1015(9)
C79A C 0.3084(13) 0.3369(8) 0.2224(10)
C80A C 0.3762(14) 0.3366(8) 0.1687(11)
C81A C 0.3189(12) 0.2449(8) 0.2444(8)
C82A C 0.2456(13) 0.2241(9) 0.2695(10)
C83A C 0.4089(13) 0.2492(9) 0.1747(9)
C84A C 0.4465(12) 0.2292(10) 0.1094(10)
C85A C 0.3958(14) 0.2079(8) 0.2966(10)
C86A C 0.4660(15) 0.2067(9) 0.2433(10)
C87A C 0.4189(14) 0.1209(9) 0.3386(10)
C88A C 0.451(2) 0.0798(11) 0.2812(11)
C89A C 0.5159(15) 0.1199(11) 0.2605(10)
C90A C 0.5062(16) 0.1029(10) 0.3736(13)
C91A C 0.5642(15) 0.0984(12) 0.3252(12)
C92A C 0.5218(14) 0.0864(8) 0.4526(9)
C93A C 0.6436(14) 0.0827(10) 0.3512(11)
C94A C 0.6049(15) 0.0652(10) 0.4701(12)
C95A C 0.6650(16) 0.0614(12) 0.4208(11)
C96A C 0.6465(17) 0.0406(11) 0.5414(11)
C97A C 0.7436(19) 0.0321(12) 0.4560(11)
C98A C 0.2022(12) 0.9867(10) 0.3580(9)
C99A C 0.7983(15) -0.0156(11) 0.5880(11)
C100A C 0.8561(15) -0.0858(12) 0.5864(11)
C101A C 0.9143(15) -0.1239(12) 0.6450(11)
C102A C 0.0927(15) 1.0881(10) 0.3023(11)
H1A H 0.3205 0.8978 0.2200
H2A H 0.1879 1.1219 0.1490
H3A H 0.2995 1.1529 0.0923
H4A H 0.4200 1.0518 0.0919
H5A H 0.5254 0.6930 0.1104
H6A H 0.7120 0.8157 0.1725
H7A H 0.6674 0.5987 0.0727
H8A H 0.8266 0.7024 0.1244
H9A H 0.7448 0.6967 0.0257
H10A H 0.8136 0.6114 0.0581
H11A H 0.7021 0.5546 0.2078
H12A H 0.7977 0.6074 0.2375
H13A H 0.7839 0.4394 0.2789
H14A H 0.8822 0.4910 0.3016
H15A H 1.0058 0.2930 0.2470
H16A H 0.9563 0.3716 0.1860
H17A H 0.8563 0.3096 0.2452
H18A H 1.0309 0.4084 0.2787
H19A H 0.8393 0.2387 0.3880
H20A H 1.0561 0.3390 0.4255
H21A H 0.1266 0.8646 0.3418
H22A H 1.1293 0.0892 0.6424
H23A H 1.1490 0.0122 0.7611
H24A H -0.0309 1.0121 0.1863
H25A H 0.2005 0.8122 0.2060
H26A H 0.1186 1.0253 0.0732
H27A H 0.1302 0.9745 -0.0214
H28A H 0.1921 0.8316 0.0041
H29A H 0.1532 0.5383 0.2162
H30A H 0.3614 0.5413 0.0565
H31A H 0.1780 0.3847 0.1973
H32A H 0.3487 0.3975 0.0570
H33A H 0.2014 0.4222 0.0654
H34A H 0.2479 0.3290 0.0995
H35A H 0.3208 0.3544 0.2628
H36A H 0.4200 0.3556 0.1830
H37A H 0.3975 0.2414 0.3274
H38A H 0.5010 0.2378 0.2513
H39A H 0.4080 0.0932 0.2427
H40A H 0.4749 0.0224 0.3003
H41A H 0.3774 0.1038 0.3684
H42A H 0.5481 0.1050 0.2219
H43A H 0.4805 0.0903 0.4843
H44A H 0.6846 0.0869 0.3198
H45A H 0.2433 0.9386 0.3599
H46A H 0.8564 -0.1067 0.5483
H47A H 0.9563 -0.1719 0.6482
H48A H 0.0540 1.1136 0.2625
S1 S 0.3445(9) 0.4873(8) 0.6177(8)
O2 O 0.3285(18) 0.5676(15) 0.6157(14)
O6 O 0.367(2) 0.4261(19) 0.6804(19)
O9 O 0.408(2) 0.457(2) 0.571(2)
N2 N 0.0244(18) 0.4667(12) 0.5212(13)
C2 C 0.242(2) 0.4825(17) 0.5881(16)
C10 C 0.1882(19) 0.5498(15) 0.5466(14)
C18 C 0.113(2) 0.5457(17) 0.5239(15)
C21 C 0.092(2) 0.4771(14) 0.5386(12)
C24 C 0.1490(19) 0.4067(16) 0.5840(15)
C27 C 0.223(2) 0.4091(18) 0.6119(18)
H49 H 0.2008 0.5972 0.5337
H51 H 0.0740 0.5927 0.4964
H53 H 0.1368 0.3591 0.5949
H55 H 0.2591 0.3647 0.6452
S1A S -0.3445(9) 0.5127(8) 0.3823(8)
O2A O -0.3285(18) 0.4324(15) 0.3843(14)
O6A O -0.367(2) 0.5739(19) 0.3196(19)
O9A O -0.408(2) 0.543(2) 0.429(2)
N2A N -0.0244(18) 0.5333(12) 0.4788(13)
C2A C -0.242(2) 0.5175(17) 0.4119(16)
C10A C -0.1882(19) 0.4502(15) 0.4534(14)
C18A C -0.113(2) 0.4543(17) 0.4761(15)
C21A C -0.092(2) 0.5229(14) 0.4614(12)
C24A C -0.1490(19) 0.5933(16) 0.4160(15)
C27A C -0.223(2) 0.5909(18) 0.3881(18)
H49A H -0.2008 0.4028 0.4663
H51A H -0.0740 0.4073 0.5036
H53A H -0.1368 0.6409 0.4051
H55A H -0.2591 0.6353 0.3548
S2 S 0.0352(8) 0.8307(6) 0.8783(7)
O3 O 0.0745(16) 0.8197(12) 0.8122(11)
O7 O -0.0478(8) 0.8815(6) 0.8623(6)
O10 O 0.0940(11) 0.8438(8) 0.9062(11)
N3 N 0.0294(9) 0.5077(7) 1.0093(8)
C3 C 0.0236(14) 0.7415(8) 0.9289(10)
C11 C -0.0396(13) 0.7180(9) 0.9098(9)
C19 C -0.0397(12) 0.6440(8) 0.9329(8)
C22 C 0.0261(11) 0.5902(8) 0.9815(10)
C25 C 0.0866(13) 0.6098(9) 1.0067(10)
C28 C 0.0888(13) 0.6852(10) 0.9827(11)
H50 H -0.0848 0.7557 0.8792
H52 H -0.0822 0.6283 0.9173
H54 H 0.1277 0.5717 1.0411
H56 H 0.1307 0.7003 1.0002
S2A S -0.0352(8) 0.1693(6) 1.1217(7)
O3A O -0.0745(16) 0.1803(12) 1.1878(11)
O7A O 0.0478(8) 0.1185(6) 1.1377(6)
O10A O -0.0940(11) 0.1562(8) 1.0938(11)
N3A N -0.0294(9) 0.4923(7) 0.9907(8)
C3A C -0.0236(14) 0.2585(8) 1.0711(10)
C11A C 0.0396(13) 0.2820(9) 1.0902(9)
C19A C 0.0397(12) 0.3560(8) 1.0671(8)
C22A C -0.0261(11) 0.4098(8) 1.0185(10)
C25A C -0.0866(13) 0.3902(9) 0.9933(10)
C28A C -0.0888(13) 0.3148(10) 1.0173(11)
H50A H 0.0848 0.2443 1.1208
H52A H 0.0822 0.3717 1.0827
H54A H -0.1277 0.4283 0.9589
H56A H -0.1307 0.2997 0.9998
O4 O 0.1621(18) 0.8446(15) 0.7052(14)
N4 N 0.8564(19) 0.5598(14) 0.6400(14)
C4 C 0.805(2) 0.5346(15) 0.6311(15)
C12 C 0.751(2) 0.4929(16) 0.6195(16)
H57 H 0.7282 0.5128 0.5706
H58 H 0.7060 0.5002 0.6498
H59 H 0.7823 0.4371 0.6301
N5 N 0.2897(16) 0.1252(14) 0.5001(13)
C5 C 0.2839(17) 0.1850(15) 0.4942(13)
C13 C 0.263(2) 0.2671(16) 0.4886(16)
H60 H 0.2325 0.2981 0.4432
H61 H 0.3132 0.2801 0.4931
H62 H 0.2283 0.2789 0.5258
N6 N 0.282(2) 0.9074(18) 0.8207(16)
C6 C 0.286(2) 0.842(2) 0.8418(17)
C14 C 0.2922(17) 0.7641(13) 0.8687(14)
H63 H 0.3484 0.7341 0.8898
H64 H 0.2795 0.7441 0.8312
H65 H 0.2533 0.7588 0.9043
N7 N 0.2811(14) 0.8121(12) 0.3293(11)
C7 C 0.300(2) 0.7572(16) 0.3777(16)
C15 C 0.309(3) 0.6802(18) 0.427(2)
H66 H 0.2580 0.6816 0.4488
H67 H 0.3541 0.6674 0.4631
H68 H 0.3226 0.6405 0.4020
N8 N 0.142(2) 0.6963(16) 0.3911(16)
C8 C 0.089(2) 0.6920(17) 0.3611(18)
C16 C 0.030(2) 0.670(2) 0.323(2)
H69 H 0.0343 0.6884 0.2723
H70 H -0.0259 0.6937 0.3333
H71 H 0.0440 0.6129 0.3368
loop_
_geom_bond_atom_site_label_1
_geom_bond_atom_site_label_2
_geom_bond_site_symmetry_1
_geom_bond_site_symmetry_2
Pd1 N1 1_555 1_555
S1 O2 1_555 1_555
S2 O3 1_555 1_555
F1 C42 1_555 1_555
F2 C42 1_555 1_555
F3 C42 1_555 1_555
F4 C44 1_555 1_555
F5 C44 1_555 1_555
F6 C44 1_555 1_555
F7 C82 1_555 1_555
F8 C82 1_555 1_555
F9 C82 1_555 1_555
F10 C84 1_555 1_555
F11 C84 1_555 1_555
F12 C84 1_555 1_555
O1 C26 1_555 1_555
O5 C29 1_555 1_555
O6 S1 1_555 1_555
O7 S2 1_555 1_555
O8 C41 1_555 1_555
O9 S1 1_555 1_555
O10 S2 1_555 1_555
O11 C56 1_555 1_555
O12 C57 1_555 1_555
O13 C68 1_555 1_555
O14 C69 1_555 1_555
O15 C81 1_555 1_555
O16 C96 1_555 1_555
O17 C97 1_555 1_555
N1 C1 1_555 1_555
N2 C21 1_555 1_555
N3 C22 1_555 1_555
N4 C4 1_555 1_555
N5 C5 1_555 1_555
N6 C6 1_555 1_555
N7 C7 1_555 1_555
N8 C8 1_555 1_555
N9 C23 1_555 1_555
N10 C56 1_555 1_555
N11 Pd1 1_555 1_555
N12 Pd1 1_555 1_555
N13 C67 1_555 1_555
N14 C96 1_555 1_555
N15 Pd1 1_555 1_555
C1 C23 1_555 1_555
C2 S1 1_555 1_555
C3 S2 1_555 1_555
C4 C12 1_555 1_555
C5 C13 1_555 1_555
C6 C14 1_555 1_555
C7 C15 1_555 1_555
C8 C16 1_555 1_555
C9 N1 1_555 1_555
C10 C2 1_555 1_555
C11 C3 1_555 1_555
C12 H57 1_555 1_555
C13 H60 1_555 1_555
C14 H63 1_555 1_555
C15 H66 1_555 1_555
C16 H69 1_555 1_555
C17 C9 1_555 1_555
C18 C10 1_555 1_555
C19 C11 1_555 1_555
C20 C17 1_555 1_555
C21 C18 1_555 1_555
C22 C19 1_555 1_555
C23 C20 1_555 1_555
C24 C21 1_555 1_555
C25 C22 1_555 1_555
C26 N9 1_555 1_555
C27 C2 1_555 1_555
C28 C3 1_555 1_555
C29 N9 1_555 1_555
C30 C26 1_555 1_555
C31 C29 1_555 1_555
C32 C30 1_555 1_555
C33 C31 1_555 1_555
C34 C32 1_555 1_555
C35 C33 1_555 1_555
C36 C34 1_555 1_555
C37 C36 1_555 1_555
C38 C35 1_555 1_555
C39 C36 1_555 1_555
C40 C38 1_555 1_555
C41 C39 1_555 1_555
C42 C41 1_555 1_555
C43 O8 1_555 1_555
C44 C43 1_555 1_555
C45 C41 1_555 1_555
C46 C43 1_555 1_555
C47 C45 1_555 1_555
C48 C47 1_555 1_555
C49 C46 1_555 1_555
C50 C47 1_555 1_555
C51 C49 1_555 1_555
C52 C50 1_555 1_555
C53 C51 1_555 1_555
C54 C52 1_555 1_555
C55 C53 1_555 1_555
C56 C54 1_555 1_555
C57 N10 1_555 1_555
C58 N11 1_555 1_555
C59 N10 1_555 1_555
C60 C59 1_555 1_555
C61 C60 1_555 1_555
C62 N11 1_555 1_555
C63 N12 1_555 1_555
C64 N12 1_555 1_555
C65 C64 1_555 1_555
C66 C65 1_555 1_555
C67 C63 1_555 1_555
C68 N13 1_555 1_555
C69 N13 1_555 1_555
C70 C68 1_555 1_555
C71 C69 1_555 1_555
C72 C70 1_555 1_555
C73 C71 1_555 1_555
C74 C72 1_555 1_555
C75 C73 1_555 1_555
C76 C74 1_555 1_555
C77 C76 1_555 1_555
C78 C75 1_555 1_555
C79 C76 1_555 1_555
C80 C78 1_555 1_555
C81 C79 1_555 1_555
C82 C81 1_555 1_555
C83 O15 1_555 1_555
C84 C83 1_555 1_555
C85 C81 1_555 1_555
C86 C83 1_555 1_555
C87 C85 1_555 1_555
C88 C87 1_555 1_555
C89 C86 1_555 1_555
C90 C87 1_555 1_555
C91 C89 1_555 1_555
C92 C90 1_555 1_555
C93 C91 1_555 1_555
C94 C92 1_555 1_555
C95 C93 1_555 1_555
C96 C94 1_555 1_555
C97 N14 1_555 1_555
C98 N15 1_555 1_555
C99 N14 1_555 1_555
C100 C99 1_555 1_555
C101 C100 1_555 1_555
C102 N15 1_555 1_555
H1 C1 1_555 1_555
H2 C9 1_555 1_555
H3 C17 1_555 1_555
H4 C20 1_555 1_555
H5 C32 1_555 1_555
H6 C33 1_555 1_555
H7 C36 1_555 1_555
H8 C38 1_555 1_555
H9 C37 1_555 1_555
H10 C37 1_555 1_555
H11 C39 1_555 1_555
H12 C40 1_555 1_555
H13 C45 1_555 1_555
H14 C46 1_555 1_555
H15 C48 1_555 1_555
H16 C48 1_555 1_555
H17 C47 1_555 1_555
H18 C49 1_555 1_555
H19 C52 1_555 1_555
H20 C53 1_555 1_555
H21 C58 1_555 1_555
H22 C60 1_555 1_555
H23 C61 1_555 1_555
H24 C62 1_555 1_555
H25 C63 1_555 1_555
H26 C64 1_555 1_555
H27 C65 1_555 1_555
H28 C66 1_555 1_555
H29 C72 1_555 1_555
H30 C73 1_555 1_555
H31 C76 1_555 1_555
H32 C78 1_555 1_555
H33 C77 1_555 1_555
H34 C77 1_555 1_555
H35 C79 1_555 1_555
H36 C80 1_555 1_555
H37 C85 1_555 1_555
H38 C86 1_555 1_555
H39 C88 1_555 1_555
H40 C88 1_555 1_555
H41 C87 1_555 1_555
H42 C89 1_555 1_555
H43 C92 1_555 1_555
H44 C93 1_555 1_555
H45 C98 1_555 1_555
H46 C100 1_555 1_555
H47 C101 1_555 1_555
H48 C102 1_555 1_555
H49 C10 1_555 1_555
H50 C11 1_555 1_555
H51 C18 1_555 1_555
H52 C19 1_555 1_555
H53 C24 1_555 1_555
H54 C25 1_555 1_555
H55 C27 1_555 1_555
H56 C28 1_555 1_555
H58 C12 1_555 1_555
H59 C12 1_555 1_555
H61 C13 1_555 1_555
H62 C13 1_555 1_555
H64 C14 1_555 1_555
H65 C14 1_555 1_555
H67 C15 1_555 1_555
H68 C15 1_555 1_555
H70 C16 1_555 1_555
H71 C16 1_555 1_555
Pd1A N1A 1_555 1_555
S1A O2A 1_555 1_555
S2A O3A 1_555 1_555
F1A C42A 1_555 1_555
F2A C42A 1_555 1_555
F3A C42A 1_555 1_555
F4A C44A 1_555 1_555
F5A C44A 1_555 1_555
F6A C44A 1_555 1_555
F7A C82A 1_555 1_555
F8A C82A 1_555 1_555
F9A C82A 1_555 1_555
F10A C84A 1_555 1_555
F11A C84A 1_555 1_555
F12A C84A 1_555 1_555
O1A C26A 1_555 1_555
O5A C29A 1_555 1_555
O6A S1A 1_555 1_555
O7A S2A 1_555 1_555
O8A C41A 1_555 1_555
O9A S1A 1_555 1_555
O10A S2A 1_555 1_555
O11A C56A 1_555 1_555
O12A C57A 1_555 1_555
O13A C68A 1_555 1_555
O14A C69A 1_555 1_555
O15A C81A 1_555 1_555
O16A C96A 1_555 1_555
O17A C97A 1_555 1_555
N1A C1A 1_555 1_555
N2A N2 1_555 1_555
N3A N3 1_555 1_555
N9A C23A 1_555 1_555
N10A C56A 1_555 1_555
N11A Pd1A 1_555 1_555
N12A Pd1A 1_555 1_555
N13A C67A 1_555 1_555
N14A C96A 1_555 1_555
N15A Pd1A 1_555 1_555
C1A C23A 1_555 1_555
C2A S1A 1_555 1_555
C3A S2A 1_555 1_555
C9A N1A 1_555 1_555
C10A C2A 1_555 1_555
C11A C3A 1_555 1_555
C17A C9A 1_555 1_555
C18A C10A 1_555 1_555
C19A C11A 1_555 1_555
C20A C17A 1_555 1_555
C21A N2A 1_555 1_555
C22A N3A 1_555 1_555
C23A C20A 1_555 1_555
C24A C21A 1_555 1_555
C25A C22A 1_555 1_555
C26A N9A 1_555 1_555
C27A C2A 1_555 1_555
C28A C3A 1_555 1_555
C29A N9A 1_555 1_555
C30A C26A 1_555 1_555
C31A C29A 1_555 1_555
C32A C30A 1_555 1_555
C33A C31A 1_555 1_555
C34A C32A 1_555 1_555
C35A C33A 1_555 1_555
C36A C34A 1_555 1_555
C37A C36A 1_555 1_555
C38A C35A 1_555 1_555
C39A C36A 1_555 1_555
C40A C38A 1_555 1_555
C41A C39A 1_555 1_555
C42A C41A 1_555 1_555
C43A O8A 1_555 1_555
C44A C43A 1_555 1_555
C45A C41A 1_555 1_555
C46A C43A 1_555 1_555
C47A C45A 1_555 1_555
C48A C47A 1_555 1_555
C49A C46A 1_555 1_555
C50A C47A 1_555 1_555
C51A C49A 1_555 1_555
C52A C50A 1_555 1_555
C53A C51A 1_555 1_555
C54A C52A 1_555 1_555
C55A C53A 1_555 1_555
C56A C54A 1_555 1_555
C57A N10A 1_555 1_555
C58A C59 1_555 1_555
C59A C58 1_555 1_555
C60A C59A 1_555 1_555
C61A C62 1_555 1_555
C62A C61 1_555 1_555
C63A N12A 1_555 1_555
C64A N12A 1_555 1_555
C65A C64A 1_555 1_555
C66A C65A 1_555 1_555
C67A C63A 1_555 1_555
C68A N13A 1_555 1_555
C69A N13A 1_555 1_555
C70A C68A 1_555 1_555
C71A C69A 1_555 1_555
C72A C70A 1_555 1_555
C73A C71A 1_555 1_555
C74A C72A 1_555 1_555
C75A C73A 1_555 1_555
C76A C74A 1_555 1_555
C77A C76A 1_555 1_555
C78A C75A 1_555 1_555
C79A C76A 1_555 1_555
C80A C78A 1_555 1_555
C81A C79A 1_555 1_555
C82A C81A 1_555 1_555
C83A O15A 1_555 1_555
C84A C83A 1_555 1_555
C85A C81A 1_555 1_555
C86A C83A 1_555 1_555
C87A C85A 1_555 1_555
C88A C87A 1_555 1_555
C89A C86A 1_555 1_555
C90A C87A 1_555 1_555
C91A C89A 1_555 1_555
C92A C90A 1_555 1_555
C93A C91A 1_555 1_555
C94A C92A 1_555 1_555
C95A C93A 1_555 1_555
C96A C94A 1_555 1_555
C97A N14A 1_555 1_555
C98A C99 1_555 1_555
C99A C98 1_555 1_555
C100A C99A 1_555 1_555
C101A C102 1_555 1_555
C102A C101 1_555 1_555
H1A C1A 1_555 1_555
H2A C9A 1_555 1_555
H3A C17A 1_555 1_555
H4A C20A 1_555 1_555
H5A C32A 1_555 1_555
H6A C33A 1_555 1_555
H7A C36A 1_555 1_555
H8A C38A 1_555 1_555
H9A C37A 1_555 1_555
H10A C37A 1_555 1_555
H11A C39A 1_555 1_555
H12A C40A 1_555 1_555
H13A C45A 1_555 1_555
H14A C46A 1_555 1_555
H15A C48A 1_555 1_555
H16A C48A 1_555 1_555
H17A C47A 1_555 1_555
H18A C49A 1_555 1_555
H19A C52A 1_555 1_555
H20A C53A 1_555 1_555
H21A C58A 1_555 1_555
H22A C60A 1_555 1_555
H23A C61A 1_555 1_555
H24A C62A 1_555 1_555
H25A C63A 1_555 1_555
H26A C64A 1_555 1_555
H27A C65A 1_555 1_555
H28A C66A 1_555 1_555
H29A C72A 1_555 1_555
H30A C73A 1_555 1_555
H31A C76A 1_555 1_555
H32A C78A 1_555 1_555
H33A C77A 1_555 1_555
H34A C77A 1_555 1_555
H35A C79A 1_555 1_555
H36A C80A 1_555 1_555
H37A C85A 1_555 1_555
H38A C86A 1_555 1_555
H39A C88A 1_555 1_555
H40A C88A 1_555 1_555
H41A C87A 1_555 1_555
H42A C89A 1_555 1_555
H43A C92A 1_555 1_555
H44A C93A 1_555 1_555
H45A C98A 1_555 1_555
H46A C100A 1_555 1_555
H47A C101A 1_555 1_555
H48A C102A 1_555 1_555
H49A C10A 1_555 1_555
H50A C11A 1_555 1_555
H51A C18A 1_555 1_555
H52A C19A 1_555 1_555
H53A C24A 1_555 1_555
H54A C25A 1_555 1_555
H55A C27A 1_555 1_555
H56A C28A 1_555 1_555
C24 C27 1_555 1_555
C25 C28 1_555 1_555
C30 C31 1_555 1_555
C34 C35 1_555 1_555
C37 C38 1_555 1_555
C39 C40 1_555 1_555
C40 C43 1_555 1_555
C45 C46 1_555 1_555
C48 C49 1_555 1_555
C50 C51 1_555 1_555
C54 C55 1_555 1_555
C55 C57 1_555 1_555
C66 C67 1_555 1_555
C70 C71 1_555 1_555
C74 C75 1_555 1_555
C77 C78 1_555 1_555
C79 C80 1_555 1_555
C80 C83 1_555 1_555
C85 C86 1_555 1_555
C88 C89 1_555 1_555
C90 C91 1_555 1_555
C94 C95 1_555 1_555
C95 C97 1_555 1_555
N10A C59A 1_555 1_555
N11A C58A 1_555 1_555
N11A C62A 1_555 1_555
N14A C99A 1_555 1_555
N15A C98A 1_555 1_555
N15A C102A 1_555 1_555
C18A C21A 1_555 1_555
C19A C22A 1_555 1_555
C24A C27A 1_555 1_555
C25A C28A 1_555 1_555
C30A C31A 1_555 1_555
C34A C35A 1_555 1_555
C37A C38A 1_555 1_555
C39A C40A 1_555 1_555
C40A C43A 1_555 1_555
C45A C46A 1_555 1_555
C48A C49A 1_555 1_555
C50A C51A 1_555 1_555
C54A C55A 1_555 1_555
C55A C57A 1_555 1_555
C60A C61A 1_555 1_555
C66A C67A 1_555 1_555
C70A C71A 1_555 1_555
C74A C75A 1_555 1_555
C77A C78A 1_555 1_555
C79A C80A 1_555 1_555
C80A C83A 1_555 1_555
C85A C86A 1_555 1_555
C88A C89A 1_555 1_555
C90A C91A 1_555 1_555
C94A C95A 1_555 1_555
C95A C97A 1_555 1_555
C100A C101A 1_555 1_555

#END
