# generated using pymatgen
data_Fe4Ni3H84C220S4N62(O2F15)4
_symmetry_space_group_name_H-M   'P 1'
_cell_length_a   27.44260000
_cell_length_b   39.87730000
_cell_length_c   39.87730000
_cell_angle_alpha   90.00000000
_cell_angle_beta   90.00000000
_cell_angle_gamma   90.00000000
_symmetry_Int_Tables_number   1
_chemical_formula_structural   Fe4Ni3H84C220S4N62(O2F15)4
_chemical_formula_sum   'Fe16 Ni12 H336 C880 S16 N248 O32 F240'
_cell_volume   43639.19659470
_cell_formula_units_Z   4
loop_
 _symmetry_equiv_pos_site_id
 _symmetry_equiv_pos_as_xyz
  1  'x, y, z'
loop_
 _atom_site_type_symbol
 _atom_site_label
 _atom_site_symmetry_multiplicity
 _atom_site_fract_x
 _atom_site_fract_y
 _atom_site_fract_z
 _atom_site_occupancy
  Fe  Fe1  1  0.866360  0.651750  0.442880  1.0
  Fe  Fe2  1  0.866360  0.848250  0.057120  1.0
  Fe  Fe3  1  0.866360  0.057120  0.651750  1.0
  Fe  Fe4  1  0.866360  0.442880  0.848250  1.0
  Fe  Fe5  1  0.133640  0.348250  0.557120  1.0
  Fe  Fe6  1  0.133640  0.151750  0.942880  1.0
  Fe  Fe7  1  0.133640  0.942880  0.348250  1.0
  Fe  Fe8  1  0.133640  0.557120  0.151750  1.0
  Fe  Fe9  1  0.201290  0.059760  0.655100  1.0
  Fe  Fe10  1  0.201290  0.440240  0.844900  1.0
  Fe  Fe11  1  0.201290  0.844900  0.059760  1.0
  Fe  Fe12  1  0.201290  0.655100  0.440240  1.0
  Fe  Fe13  1  0.798710  0.940240  0.344900  1.0
  Fe  Fe14  1  0.798710  0.559760  0.155100  1.0
  Fe  Fe15  1  0.798710  0.155100  0.940240  1.0
  Fe  Fe16  1  0.798710  0.344900  0.559760  1.0
  Ni  Ni17  1  0.902460  0.750000  0.750000  1
  Ni  Ni18  1  0.097540  0.250000  0.250000  1
  Ni  Ni19  1  0.168840  0.750000  0.750000  1
  Ni  Ni20  1  0.831160  0.250000  0.250000  1
  Ni  Ni21  1  0.532290  0.862410  0.536770  1.0
  Ni  Ni22  1  0.532290  0.637590  0.963230  1.0
  Ni  Ni23  1  0.532290  0.963230  0.862410  1.0
  Ni  Ni24  1  0.532290  0.536770  0.637590  1.0
  Ni  Ni25  1  0.467710  0.137590  0.463230  1.0
  Ni  Ni26  1  0.467710  0.362410  0.036770  1.0
  Ni  Ni27  1  0.467710  0.036770  0.137590  1.0
  Ni  Ni28  1  0.467710  0.463230  0.362410  1.0
  H  H29  1  0.970900  0.650800  0.412700  1.0
  H  H30  1  0.970900  0.849200  0.087300  1.0
  H  H31  1  0.970900  0.087300  0.650800  1.0
  H  H32  1  0.970900  0.412700  0.849200  1.0
  H  H33  1  0.029100  0.349200  0.587300  1.0
  H  H34  1  0.029100  0.150800  0.912700  1.0
  H  H35  1  0.029100  0.912700  0.349200  1.0
  H  H36  1  0.029100  0.587300  0.150800  1.0
  H  H37  1  0.028300  0.690500  0.398100  1.0
  H  H38  1  0.028300  0.809500  0.101900  1.0
  H  H39  1  0.028300  0.101900  0.690500  1.0
  H  H40  1  0.028300  0.398100  0.809500  1.0
  H  H41  1  0.971700  0.309500  0.601900  1.0
  H  H42  1  0.971700  0.190500  0.898100  1.0
  H  H43  1  0.971700  0.898100  0.309500  1.0
  H  H44  1  0.971700  0.601900  0.190500  1.0
  H  H45  1  0.010100  0.747000  0.404100  1.0
  H  H46  1  0.010100  0.753000  0.095900  1.0
  H  H47  1  0.010100  0.095900  0.747000  1.0
  H  H48  1  0.010100  0.404100  0.753000  1.0
  H  H49  1  0.989900  0.253000  0.595900  1.0
  H  H50  1  0.989900  0.247000  0.904100  1.0
  H  H51  1  0.989900  0.904100  0.253000  1.0
  H  H52  1  0.989900  0.595900  0.247000  1.0
  H  H53  1  0.935900  0.762700  0.426600  1.0
  H  H54  1  0.935900  0.737300  0.073400  1.0
  H  H55  1  0.935900  0.073400  0.762700  1.0
  H  H56  1  0.935900  0.426600  0.737300  1.0
  H  H57  1  0.064100  0.237300  0.573400  1.0
  H  H58  1  0.064100  0.262700  0.926600  1.0
  H  H59  1  0.064100  0.926600  0.237300  1.0
  H  H60  1  0.064100  0.573400  0.262700  1.0
  H  H61  1  0.845300  0.771200  0.459100  1.0
  H  H62  1  0.845300  0.728800  0.040900  1.0
  H  H63  1  0.845300  0.040900  0.771200  1.0
  H  H64  1  0.845300  0.459100  0.728800  1.0
  H  H65  1  0.154700  0.228800  0.540900  1.0
  H  H66  1  0.154700  0.271200  0.959100  1.0
  H  H67  1  0.154700  0.959100  0.228800  1.0
  H  H68  1  0.154700  0.540900  0.271200  1.0
  H  H69  1  0.181400  0.602500  0.383500  1.0
  H  H70  1  0.181400  0.897500  0.116500  1.0
  H  H71  1  0.181400  0.116500  0.602500  1.0
  H  H72  1  0.181400  0.383500  0.897500  1.0
  H  H73  1  0.818600  0.397500  0.616500  1.0
  H  H74  1  0.818600  0.102500  0.883500  1.0
  H  H75  1  0.818600  0.883500  0.397500  1.0
  H  H76  1  0.818600  0.616500  0.102500  1.0
  H  H77  1  0.216000  0.589900  0.331900  1.0
  H  H78  1  0.216000  0.910100  0.168100  1.0
  H  H79  1  0.216000  0.168100  0.589900  1.0
  H  H80  1  0.216000  0.331900  0.910100  1.0
  H  H81  1  0.784000  0.410100  0.668100  1.0
  H  H82  1  0.784000  0.089900  0.831900  1.0
  H  H83  1  0.784000  0.831900  0.410100  1.0
  H  H84  1  0.784000  0.668100  0.089900  1.0
  H  H85  1  0.295500  0.608600  0.321100  1.0
  H  H86  1  0.295500  0.891400  0.178900  1.0
  H  H87  1  0.295500  0.178900  0.608600  1.0
  H  H88  1  0.295500  0.321100  0.891400  1.0
  H  H89  1  0.704500  0.391400  0.678900  1.0
  H  H90  1  0.704500  0.108600  0.821100  1.0
  H  H91  1  0.704500  0.821100  0.391400  1.0
  H  H92  1  0.704500  0.678900  0.108600  1.0
  H  H93  1  0.331300  0.647400  0.357800  1.0
  H  H94  1  0.331300  0.852600  0.142200  1.0
  H  H95  1  0.331300  0.142200  0.647400  1.0
  H  H96  1  0.331300  0.357800  0.852600  1.0
  H  H97  1  0.668700  0.352600  0.642200  1.0
  H  H98  1  0.668700  0.147400  0.857800  1.0
  H  H99  1  0.668700  0.857800  0.352600  1.0
  H  H100  1  0.668700  0.642200  0.147400  1.0
  H  H101  1  0.363500  0.690500  0.404800  1.0
  H  H102  1  0.363500  0.809500  0.095200  1.0
  H  H103  1  0.363500  0.095200  0.690500  1.0
  H  H104  1  0.363500  0.404800  0.809500  1.0
  H  H105  1  0.636500  0.309500  0.595200  1.0
  H  H106  1  0.636500  0.190500  0.904800  1.0
  H  H107  1  0.636500  0.904800  0.309500  1.0
  H  H108  1  0.636500  0.595200  0.190500  1.0
  H  H109  1  0.096800  0.087900  0.639600  1.0
  H  H110  1  0.096800  0.412100  0.860400  1.0
  H  H111  1  0.096800  0.860400  0.087900  1.0
  H  H112  1  0.096800  0.639600  0.412100  1.0
  H  H113  1  0.903200  0.912100  0.360400  1.0
  H  H114  1  0.903200  0.587900  0.139600  1.0
  H  H115  1  0.903200  0.139600  0.912100  1.0
  H  H116  1  0.903200  0.360400  0.587900  1.0
  H  H117  1  0.038800  0.079600  0.598800  1.0
  H  H118  1  0.038800  0.420400  0.901200  1.0
  H  H119  1  0.038800  0.901200  0.079600  1.0
  H  H120  1  0.038800  0.598800  0.420400  1.0
  H  H121  1  0.961200  0.920400  0.401200  1.0
  H  H122  1  0.961200  0.579600  0.098800  1.0
  H  H123  1  0.961200  0.098800  0.920400  1.0
  H  H124  1  0.961200  0.401200  0.579600  1.0
  H  H125  1  0.052700  0.042200  0.555800  1.0
  H  H126  1  0.052700  0.457800  0.944200  1.0
  H  H127  1  0.052700  0.944200  0.042200  1.0
  H  H128  1  0.052700  0.555800  0.457800  1.0
  H  H129  1  0.947300  0.957800  0.444200  1.0
  H  H130  1  0.947300  0.542200  0.055800  1.0
  H  H131  1  0.947300  0.055800  0.957800  1.0
  H  H132  1  0.947300  0.444200  0.542200  1.0
  H  H133  1  0.130700  0.017600  0.550100  1.0
  H  H134  1  0.130700  0.482400  0.949900  1.0
  H  H135  1  0.130700  0.949900  0.017600  1.0
  H  H136  1  0.130700  0.550100  0.482400  1.0
  H  H137  1  0.869300  0.982400  0.449900  1.0
  H  H138  1  0.869300  0.517600  0.050100  1.0
  H  H139  1  0.869300  0.050100  0.982400  1.0
  H  H140  1  0.869300  0.449900  0.517600  1.0
  H  H141  1  0.220000  0.985000  0.558700  1.0
  H  H142  1  0.220000  0.515000  0.941300  1.0
  H  H143  1  0.220000  0.941300  0.985000  1.0
  H  H144  1  0.220000  0.558700  0.515000  1.0
  H  H145  1  0.780000  0.015000  0.441300  1.0
  H  H146  1  0.780000  0.485000  0.058700  1.0
  H  H147  1  0.780000  0.058700  0.015000  1.0
  H  H148  1  0.780000  0.441300  0.485000  1.0
  H  H149  1  0.888700  0.131700  0.668800  1.0
  H  H150  1  0.888700  0.368300  0.831200  1.0
  H  H151  1  0.888700  0.831200  0.131700  1.0
  H  H152  1  0.888700  0.668800  0.368300  1.0
  H  H153  1  0.111300  0.868300  0.331200  1.0
  H  H154  1  0.111300  0.631700  0.168800  1.0
  H  H155  1  0.111300  0.168800  0.868300  1.0
  H  H156  1  0.111300  0.331200  0.631700  1.0
  H  H157  1  0.849300  0.182900  0.663200  1.0
  H  H158  1  0.849300  0.317100  0.836800  1.0
  H  H159  1  0.849300  0.836800  0.182900  1.0
  H  H160  1  0.849300  0.663200  0.317100  1.0
  H  H161  1  0.150700  0.817100  0.336800  1.0
  H  H162  1  0.150700  0.682900  0.163200  1.0
  H  H163  1  0.150700  0.163200  0.817100  1.0
  H  H164  1  0.150700  0.336800  0.682900  1.0
  H  H165  1  0.776400  0.184600  0.632400  1.0
  H  H166  1  0.776400  0.315400  0.867600  1.0
  H  H167  1  0.776400  0.867600  0.184600  1.0
  H  H168  1  0.776400  0.632400  0.315400  1.0
  H  H169  1  0.223600  0.815400  0.367600  1.0
  H  H170  1  0.223600  0.684600  0.132400  1.0
  H  H171  1  0.223600  0.132400  0.815400  1.0
  H  H172  1  0.223600  0.367600  0.684600  1.0
  H  H173  1  0.733900  0.133700  0.624500  1.0
  H  H174  1  0.733900  0.366300  0.875500  1.0
  H  H175  1  0.733900  0.875500  0.133700  1.0
  H  H176  1  0.733900  0.624500  0.366300  1.0
  H  H177  1  0.266100  0.866300  0.375500  1.0
  H  H178  1  0.266100  0.633700  0.124500  1.0
  H  H179  1  0.266100  0.124500  0.866300  1.0
  H  H180  1  0.266100  0.375500  0.633700  1.0
  H  H181  1  0.704500  0.070500  0.602400  1.0
  H  H182  1  0.704500  0.429500  0.897600  1.0
  H  H183  1  0.704500  0.897600  0.070500  1.0
  H  H184  1  0.704500  0.602400  0.429500  1.0
  H  H185  1  0.295500  0.929500  0.397600  1.0
  H  H186  1  0.295500  0.570500  0.102400  1.0
  H  H187  1  0.295500  0.102400  0.929500  1.0
  H  H188  1  0.295500  0.397600  0.570500  1.0
  H  H189  1  0.170300  0.131000  0.676700  1.0
  H  H190  1  0.170300  0.369000  0.823300  1.0
  H  H191  1  0.170300  0.823300  0.131000  1.0
  H  H192  1  0.170300  0.676700  0.369000  1.0
  H  H193  1  0.829700  0.869000  0.323300  1.0
  H  H194  1  0.829700  0.631000  0.176700  1.0
  H  H195  1  0.829700  0.176700  0.869000  1.0
  H  H196  1  0.829700  0.323300  0.631000  1.0
  H  H197  1  0.130700  0.154800  0.722200  1.0
  H  H198  1  0.130700  0.345200  0.777800  1.0
  H  H199  1  0.130700  0.777800  0.154800  1.0
  H  H200  1  0.130700  0.722200  0.345200  1.0
  H  H201  1  0.869300  0.845200  0.277800  1.0
  H  H202  1  0.869300  0.654800  0.222200  1.0
  H  H203  1  0.869300  0.222200  0.845200  1.0
  H  H204  1  0.869300  0.277800  0.654800  1.0
  H  H205  1  0.104300  0.119800  0.765700  1.0
  H  H206  1  0.104300  0.380200  0.734300  1.0
  H  H207  1  0.104300  0.734300  0.119800  1.0
  H  H208  1  0.104300  0.765700  0.380200  1.0
  H  H209  1  0.895700  0.880200  0.234300  1.0
  H  H210  1  0.895700  0.619800  0.265700  1.0
  H  H211  1  0.895700  0.265700  0.880200  1.0
  H  H212  1  0.895700  0.234300  0.619800  1.0
  H  H213  1  0.114700  0.061700  0.760900  1.0
  H  H214  1  0.114700  0.438300  0.739100  1.0
  H  H215  1  0.114700  0.739100  0.061700  1.0
  H  H216  1  0.114700  0.760900  0.438300  1.0
  H  H217  1  0.885300  0.938300  0.239100  1.0
  H  H218  1  0.885300  0.561700  0.260900  1.0
  H  H219  1  0.885300  0.260900  0.938300  1.0
  H  H220  1  0.885300  0.239100  0.561700  1.0
  H  H221  1  0.130500  0.994900  0.746000  1.0
  H  H222  1  0.130500  0.505100  0.754000  1.0
  H  H223  1  0.130500  0.754000  0.994900  1.0
  H  H224  1  0.130500  0.746000  0.505100  1.0
  H  H225  1  0.869500  0.005100  0.254000  1.0
  H  H226  1  0.869500  0.494900  0.246000  1.0
  H  H227  1  0.869500  0.246000  0.005100  1.0
  H  H228  1  0.869500  0.254000  0.494900  1.0
  H  H229  1  0.897400  0.594600  0.394500  1.0
  H  H230  1  0.897400  0.905400  0.105500  1.0
  H  H231  1  0.897400  0.105500  0.594600  1.0
  H  H232  1  0.897400  0.394500  0.905400  1.0
  H  H233  1  0.102600  0.405400  0.605500  1.0
  H  H234  1  0.102600  0.094600  0.894500  1.0
  H  H235  1  0.102600  0.894500  0.405400  1.0
  H  H236  1  0.102600  0.605500  0.094600  1.0
  H  H237  1  0.938200  0.543900  0.398900  1.0
  H  H238  1  0.938200  0.956100  0.101100  1.0
  H  H239  1  0.938200  0.101100  0.543900  1.0
  H  H240  1  0.938200  0.398900  0.956100  1.0
  H  H241  1  0.061800  0.456100  0.601100  1.0
  H  H242  1  0.061800  0.043900  0.898900  1.0
  H  H243  1  0.061800  0.898900  0.456100  1.0
  H  H244  1  0.061800  0.601100  0.043900  1.0
  H  H245  1  0.960300  0.524900  0.452400  1.0
  H  H246  1  0.960300  0.975100  0.047600  1.0
  H  H247  1  0.960300  0.047600  0.524900  1.0
  H  H248  1  0.960300  0.452400  0.975100  1.0
  H  H249  1  0.039700  0.475100  0.547600  1.0
  H  H250  1  0.039700  0.024900  0.952400  1.0
  H  H251  1  0.039700  0.952400  0.475100  1.0
  H  H252  1  0.039700  0.547600  0.024900  1.0
  H  H253  1  0.959300  0.563100  0.497100  1.0
  H  H254  1  0.959300  0.936900  0.002900  1.0
  H  H255  1  0.959300  0.002900  0.563100  1.0
  H  H256  1  0.959300  0.497100  0.936900  1.0
  H  H257  1  0.040700  0.436900  0.502900  1.0
  H  H258  1  0.040700  0.063100  0.997100  1.0
  H  H259  1  0.040700  0.997100  0.436900  1.0
  H  H260  1  0.040700  0.502900  0.063100  1.0
  H  H261  1  0.938400  0.610900  0.546400  1.0
  H  H262  1  0.938400  0.889100  0.953600  1.0
  H  H263  1  0.938400  0.953600  0.610900  1.0
  H  H264  1  0.938400  0.546400  0.889100  1.0
  H  H265  1  0.061600  0.389100  0.453600  1.0
  H  H266  1  0.061600  0.110900  0.046400  1.0
  H  H267  1  0.061600  0.046400  0.389100  1.0
  H  H268  1  0.061600  0.453600  0.110900  1.0
  H  H269  1  0.716100  0.843900  0.528200  1.0
  H  H270  1  0.716100  0.656100  0.971800  1.0
  H  H271  1  0.716100  0.971800  0.843900  1.0
  H  H272  1  0.716100  0.528200  0.656100  1.0
  H  H273  1  0.283900  0.156100  0.471800  1.0
  H  H274  1  0.283900  0.343900  0.028200  1.0
  H  H275  1  0.283900  0.028200  0.156100  1.0
  H  H276  1  0.283900  0.471800  0.343900  1.0
  H  H277  1  0.707500  0.898800  0.555300  1.0
  H  H278  1  0.707500  0.601200  0.944700  1.0
  H  H279  1  0.707500  0.944700  0.898800  1.0
  H  H280  1  0.707500  0.555300  0.601200  1.0
  H  H281  1  0.292500  0.101200  0.444700  1.0
  H  H282  1  0.292500  0.398800  0.055300  1.0
  H  H283  1  0.292500  0.055300  0.101200  1.0
  H  H284  1  0.292500  0.444700  0.398800  1.0
  H  H285  1  0.561100  0.975900  0.591900  1.0
  H  H286  1  0.561100  0.524100  0.908100  1.0
  H  H287  1  0.561100  0.908100  0.975900  1.0
  H  H288  1  0.561100  0.591900  0.524100  1.0
  H  H289  1  0.438900  0.024100  0.408100  1.0
  H  H290  1  0.438900  0.475900  0.091900  1.0
  H  H291  1  0.438900  0.091900  0.024100  1.0
  H  H292  1  0.438900  0.408100  0.475900  1.0
  H  H293  1  0.470100  0.972100  0.589200  1.0
  H  H294  1  0.470100  0.527900  0.910800  1.0
  H  H295  1  0.470100  0.910800  0.972100  1.0
  H  H296  1  0.470100  0.589200  0.527900  1.0
  H  H297  1  0.529900  0.027900  0.410800  1.0
  H  H298  1  0.529900  0.472100  0.089200  1.0
  H  H299  1  0.529900  0.089200  0.027900  1.0
  H  H300  1  0.529900  0.410800  0.472100  1.0
  H  H301  1  0.346800  0.881900  0.542800  1.0
  H  H302  1  0.346800  0.618100  0.957200  1.0
  H  H303  1  0.346800  0.957200  0.881900  1.0
  H  H304  1  0.346800  0.542800  0.618100  1.0
  H  H305  1  0.653200  0.118100  0.457200  1.0
  H  H306  1  0.653200  0.381900  0.042800  1.0
  H  H307  1  0.653200  0.042800  0.118100  1.0
  H  H308  1  0.653200  0.457200  0.381900  1.0
  H  H309  1  0.354200  0.829900  0.510500  1.0
  H  H310  1  0.354200  0.670100  0.989500  1.0
  H  H311  1  0.354200  0.989500  0.829900  1.0
  H  H312  1  0.354200  0.510500  0.670100  1.0
  H  H313  1  0.645800  0.170100  0.489500  1.0
  H  H314  1  0.645800  0.329900  0.010500  1.0
  H  H315  1  0.645800  0.010500  0.170100  1.0
  H  H316  1  0.645800  0.489500  0.329900  1.0
  H  H317  1  0.503900  0.748700  0.481300  1.0
  H  H318  1  0.503900  0.751300  0.018700  1.0
  H  H319  1  0.503900  0.018700  0.748700  1.0
  H  H320  1  0.503900  0.481300  0.751300  1.0
  H  H321  1  0.496100  0.251300  0.518700  1.0
  H  H322  1  0.496100  0.248700  0.981300  1.0
  H  H323  1  0.496100  0.981300  0.251300  1.0
  H  H324  1  0.496100  0.518700  0.248700  1.0
  H  H325  1  0.592900  0.753700  0.484200  1.0
  H  H326  1  0.592900  0.746300  0.015800  1.0
  H  H327  1  0.592900  0.015800  0.753700  1.0
  H  H328  1  0.592900  0.484200  0.746300  1.0
  H  H329  1  0.407100  0.246300  0.515800  1.0
  H  H330  1  0.407100  0.253700  0.984200  1.0
  H  H331  1  0.407100  0.984200  0.246300  1.0
  H  H332  1  0.407100  0.515800  0.253700  1.0
  H  H333  1  0.902100  0.646200  0.673900  1.0
  H  H334  1  0.902100  0.853800  0.826100  1.0
  H  H335  1  0.902100  0.826100  0.646200  1.0
  H  H336  1  0.902100  0.673900  0.853800  1.0
  H  H337  1  0.097900  0.353800  0.326100  1.0
  H  H338  1  0.097900  0.146200  0.173900  1.0
  H  H339  1  0.097900  0.173900  0.353800  1.0
  H  H340  1  0.097900  0.326100  0.146200  1.0
  H  H341  1  0.899800  0.622200  0.731500  1.0
  H  H342  1  0.899800  0.877800  0.768500  1.0
  H  H343  1  0.899800  0.768500  0.622200  1.0
  H  H344  1  0.899800  0.731500  0.877800  1.0
  H  H345  1  0.100200  0.377800  0.268500  1.0
  H  H346  1  0.100200  0.122200  0.231500  1.0
  H  H347  1  0.100200  0.231500  0.377800  1.0
  H  H348  1  0.100200  0.268500  0.122200  1.0
  H  H349  1  0.173500  0.841000  0.659700  1.0
  H  H350  1  0.173500  0.659000  0.840300  1.0
  H  H351  1  0.173500  0.840300  0.841000  1.0
  H  H352  1  0.173500  0.659700  0.659000  1.0
  H  H353  1  0.826500  0.159000  0.340300  1.0
  H  H354  1  0.826500  0.341000  0.159700  1.0
  H  H355  1  0.826500  0.159700  0.159000  1.0
  H  H356  1  0.826500  0.340300  0.341000  1.0
  H  H357  1  0.167300  0.787600  0.627700  1.0
  H  H358  1  0.167300  0.712400  0.872300  1.0
  H  H359  1  0.167300  0.872300  0.787600  1.0
  H  H360  1  0.167300  0.627700  0.712400  1.0
  H  H361  1  0.832700  0.212400  0.372300  1.0
  H  H362  1  0.832700  0.287600  0.127700  1.0
  H  H363  1  0.832700  0.127700  0.212400  1.0
  H  H364  1  0.832700  0.372300  0.287600  1.0
  C  C365  1  0.993300  0.185000  0.673100  1
  C  C366  1  0.993300  0.315000  0.826900  1
  C  C367  1  0.993300  0.826900  0.185000  1
  C  C368  1  0.993300  0.673100  0.315000  1
  C  C369  1  0.006700  0.815000  0.326900  1
  C  C370  1  0.006700  0.685000  0.173100  1
  C  C371  1  0.006700  0.173100  0.815000  1
  C  C372  1  0.006700  0.326900  0.685000  1
  C  C373  1  0.132200  0.214800  0.647500  1
  C  C374  1  0.132200  0.285200  0.852500  1
  C  C375  1  0.132200  0.852500  0.214800  1
  C  C376  1  0.132200  0.647500  0.285200  1
  C  C377  1  0.867800  0.785200  0.352500  1
  C  C378  1  0.867800  0.714800  0.147500  1
  C  C379  1  0.867800  0.147500  0.785200  1
  C  C380  1  0.867800  0.352500  0.714800  1
  C  C381  1  0.963400  0.673800  0.415800  1.0
  C  C382  1  0.963400  0.826200  0.084200  1.0
  C  C383  1  0.963400  0.084200  0.673800  1.0
  C  C384  1  0.963400  0.415800  0.826200  1.0
  C  C385  1  0.036600  0.326200  0.584200  1.0
  C  C386  1  0.036600  0.173800  0.915800  1.0
  C  C387  1  0.036600  0.915800  0.326200  1.0
  C  C388  1  0.036600  0.584200  0.173800  1.0
  C  C389  1  0.997600  0.697300  0.406800  1.0
  C  C390  1  0.997600  0.802700  0.093200  1.0
  C  C391  1  0.997600  0.093200  0.697300  1.0
  C  C392  1  0.997600  0.406800  0.802700  1.0
  C  C393  1  0.002400  0.302700  0.593200  1.0
  C  C394  1  0.002400  0.197300  0.906800  1.0
  C  C395  1  0.002400  0.906800  0.302700  1.0
  C  C396  1  0.002400  0.593200  0.197300  1.0
  C  C397  1  0.987100  0.730400  0.410600  1.0
  C  C398  1  0.987100  0.769600  0.089400  1.0
  C  C399  1  0.987100  0.089400  0.730400  1.0
  C  C400  1  0.987100  0.410600  0.769600  1.0
  C  C401  1  0.012900  0.269600  0.589400  1.0
  C  C402  1  0.012900  0.230400  0.910600  1.0
  C  C403  1  0.012900  0.910600  0.269600  1.0
  C  C404  1  0.012900  0.589400  0.230400  1.0
  C  C405  1  0.943500  0.739700  0.423700  1.0
  C  C406  1  0.943500  0.760300  0.076300  1.0
  C  C407  1  0.943500  0.076300  0.739700  1.0
  C  C408  1  0.943500  0.423700  0.760300  1.0
  C  C409  1  0.056500  0.260300  0.576300  1.0
  C  C410  1  0.056500  0.239700  0.923700  1.0
  C  C411  1  0.056500  0.923700  0.260300  1.0
  C  C412  1  0.056500  0.576300  0.239700  1.0
  C  C413  1  0.910000  0.714900  0.432900  1.0
  C  C414  1  0.910000  0.785100  0.067100  1.0
  C  C415  1  0.910000  0.067100  0.714900  1.0
  C  C416  1  0.910000  0.432900  0.785100  1.0
  C  C417  1  0.090000  0.285100  0.567100  1.0
  C  C418  1  0.090000  0.214900  0.932900  1.0
  C  C419  1  0.090000  0.932900  0.285100  1.0
  C  C420  1  0.090000  0.567100  0.214900  1.0
  C  C421  1  0.861400  0.721800  0.447400  1.0
  C  C422  1  0.861400  0.778200  0.052600  1.0
  C  C423  1  0.861400  0.052600  0.721800  1.0
  C  C424  1  0.861400  0.447400  0.778200  1.0
  C  C425  1  0.138600  0.278200  0.552600  1.0
  C  C426  1  0.138600  0.221800  0.947400  1.0
  C  C427  1  0.138600  0.947400  0.278200  1.0
  C  C428  1  0.138600  0.552600  0.221800  1.0
  C  C429  1  0.835500  0.748400  0.458100  1.0
  C  C430  1  0.835500  0.751600  0.041900  1.0
  C  C431  1  0.835500  0.041900  0.748400  1.0
  C  C432  1  0.835500  0.458100  0.751600  1.0
  C  C433  1  0.164500  0.251600  0.541900  1.0
  C  C434  1  0.164500  0.248400  0.958100  1.0
  C  C435  1  0.164500  0.958100  0.251600  1.0
  C  C436  1  0.164500  0.541900  0.248400  1.0
  C  C437  1  0.749800  0.752000  0.479900  1.0
  C  C438  1  0.749800  0.748000  0.020100  1.0
  C  C439  1  0.749800  0.020100  0.752000  1.0
  C  C440  1  0.749800  0.479900  0.748000  1.0
  C  C441  1  0.250200  0.248000  0.520100  1.0
  C  C442  1  0.250200  0.252000  0.979900  1.0
  C  C443  1  0.250200  0.979900  0.248000  1.0
  C  C444  1  0.250200  0.520100  0.252000  1.0
  C  C445  1  0.729700  0.745600  0.511100  1.0
  C  C446  1  0.729700  0.754400  0.988900  1.0
  C  C447  1  0.729700  0.988900  0.745600  1.0
  C  C448  1  0.729700  0.511100  0.754400  1.0
  C  C449  1  0.270300  0.254400  0.488900  1.0
  C  C450  1  0.270300  0.245600  0.011100  1.0
  C  C451  1  0.270300  0.011100  0.254400  1.0
  C  C452  1  0.270300  0.488900  0.245600  1.0
  C  C453  1  0.691500  0.765700  0.522300  1.0
  C  C454  1  0.691500  0.734300  0.977700  1.0
  C  C455  1  0.691500  0.977700  0.765700  1.0
  C  C456  1  0.691500  0.522300  0.734300  1.0
  C  C457  1  0.308500  0.234300  0.477700  1.0
  C  C458  1  0.308500  0.265700  0.022300  1.0
  C  C459  1  0.308500  0.022300  0.234300  1.0
  C  C460  1  0.308500  0.477700  0.265700  1.0
  C  C461  1  0.669200  0.789400  0.503300  1.0
  C  C462  1  0.669200  0.710600  0.996700  1.0
  C  C463  1  0.669200  0.996700  0.789400  1.0
  C  C464  1  0.669200  0.503300  0.710600  1.0
  C  C465  1  0.330800  0.210600  0.496700  1.0
  C  C466  1  0.330800  0.289400  0.003300  1.0
  C  C467  1  0.330800  0.003300  0.210600  1.0
  C  C468  1  0.330800  0.496700  0.289400  1.0
  C  C469  1  0.689400  0.793800  0.472300  1.0
  C  C470  1  0.689400  0.706200  0.027700  1.0
  C  C471  1  0.689400  0.027700  0.793800  1.0
  C  C472  1  0.689400  0.472300  0.706200  1.0
  C  C473  1  0.310600  0.206200  0.527700  1.0
  C  C474  1  0.310600  0.293800  0.972300  1.0
  C  C475  1  0.310600  0.972300  0.206200  1.0
  C  C476  1  0.310600  0.527700  0.293800  1.0
  C  C477  1  0.726900  0.775400  0.460200  1.0
  C  C478  1  0.726900  0.724600  0.039800  1.0
  C  C479  1  0.726900  0.039800  0.775400  1.0
  C  C480  1  0.726900  0.460200  0.724600  1.0
  C  C481  1  0.273100  0.224600  0.539800  1.0
  C  C482  1  0.273100  0.275400  0.960200  1.0
  C  C483  1  0.273100  0.960200  0.224600  1.0
  C  C484  1  0.273100  0.539800  0.275400  1.0
  C  C485  1  0.211100  0.613100  0.377400  1.0
  C  C486  1  0.211100  0.886900  0.122600  1.0
  C  C487  1  0.211100  0.122600  0.613100  1.0
  C  C488  1  0.211100  0.377400  0.886900  1.0
  C  C489  1  0.788900  0.386900  0.622600  1.0
  C  C490  1  0.788900  0.113100  0.877400  1.0
  C  C491  1  0.788900  0.877400  0.386900  1.0
  C  C492  1  0.788900  0.622600  0.113100  1.0
  C  C493  1  0.232500  0.604000  0.347400  1.0
  C  C494  1  0.232500  0.896000  0.152600  1.0
  C  C495  1  0.232500  0.152600  0.604000  1.0
  C  C496  1  0.232500  0.347400  0.896000  1.0
  C  C497  1  0.767500  0.396000  0.652600  1.0
  C  C498  1  0.767500  0.104000  0.847400  1.0
  C  C499  1  0.767500  0.847400  0.396000  1.0
  C  C500  1  0.767500  0.652600  0.104000  1.0
  C  C501  1  0.278400  0.616100  0.340400  1.0
  C  C502  1  0.278400  0.883900  0.159600  1.0
  C  C503  1  0.278400  0.159600  0.616100  1.0
  C  C504  1  0.278400  0.340400  0.883900  1.0
  C  C505  1  0.721600  0.383900  0.659600  1.0
  C  C506  1  0.721600  0.116100  0.840400  1.0
  C  C507  1  0.721600  0.840400  0.383900  1.0
  C  C508  1  0.721600  0.659600  0.116100  1.0
  C  C509  1  0.299400  0.639100  0.361900  1.0
  C  C510  1  0.299400  0.860900  0.138100  1.0
  C  C511  1  0.299400  0.138100  0.639100  1.0
  C  C512  1  0.299400  0.361900  0.860900  1.0
  C  C513  1  0.700600  0.360900  0.638100  1.0
  C  C514  1  0.700600  0.139100  0.861900  1.0
  C  C515  1  0.700600  0.861900  0.360900  1.0
  C  C516  1  0.700600  0.638100  0.139100  1.0
  C  C517  1  0.272900  0.650000  0.389600  1.0
  C  C518  1  0.272900  0.850000  0.110400  1.0
  C  C519  1  0.272900  0.110400  0.650000  1.0
  C  C520  1  0.272900  0.389600  0.850000  1.0
  C  C521  1  0.727100  0.350000  0.610400  1.0
  C  C522  1  0.727100  0.150000  0.889600  1.0
  C  C523  1  0.727100  0.889600  0.350000  1.0
  C  C524  1  0.727100  0.610400  0.150000  1.0
  C  C525  1  0.291900  0.674600  0.413300  1.0
  C  C526  1  0.291900  0.825400  0.086700  1.0
  C  C527  1  0.291900  0.086700  0.674600  1.0
  C  C528  1  0.291900  0.413300  0.825400  1.0
  C  C529  1  0.708100  0.325400  0.586700  1.0
  C  C530  1  0.708100  0.174600  0.913300  1.0
  C  C531  1  0.708100  0.913300  0.325400  1.0
  C  C532  1  0.708100  0.586700  0.174600  1.0
  C  C533  1  0.334300  0.691500  0.417600  1.0
  C  C534  1  0.334300  0.808500  0.082400  1.0
  C  C535  1  0.334300  0.082400  0.691500  1.0
  C  C536  1  0.334300  0.417600  0.808500  1.0
  C  C537  1  0.665700  0.308500  0.582400  1.0
  C  C538  1  0.665700  0.191500  0.917600  1.0
  C  C539  1  0.665700  0.917600  0.308500  1.0
  C  C540  1  0.665700  0.582400  0.191500  1.0
  C  C541  1  0.356400  0.733800  0.460400  1.0
  C  C542  1  0.356400  0.766200  0.039600  1.0
  C  C543  1  0.356400  0.039600  0.733800  1.0
  C  C544  1  0.356400  0.460400  0.766200  1.0
  C  C545  1  0.643600  0.266200  0.539600  1.0
  C  C546  1  0.643600  0.233800  0.960400  1.0
  C  C547  1  0.643600  0.960400  0.266200  1.0
  C  C548  1  0.643600  0.539600  0.233800  1.0
  C  C549  1  0.380000  0.758200  0.441000  1.0
  C  C550  1  0.380000  0.741800  0.059000  1.0
  C  C551  1  0.380000  0.059000  0.758200  1.0
  C  C552  1  0.380000  0.441000  0.741800  1.0
  C  C553  1  0.620000  0.241800  0.559000  1.0
  C  C554  1  0.620000  0.258200  0.941000  1.0
  C  C555  1  0.620000  0.941000  0.241800  1.0
  C  C556  1  0.620000  0.559000  0.258200  1.0
  C  C557  1  0.411100  0.780700  0.457000  1.0
  C  C558  1  0.411100  0.719300  0.043000  1.0
  C  C559  1  0.411100  0.043000  0.780700  1.0
  C  C560  1  0.411100  0.457000  0.719300  1.0
  C  C561  1  0.588900  0.219300  0.543000  1.0
  C  C562  1  0.588900  0.280700  0.957000  1.0
  C  C563  1  0.588900  0.957000  0.219300  1.0
  C  C564  1  0.588900  0.543000  0.280700  1.0
  C  C565  1  0.419200  0.780600  0.490800  1.0
  C  C566  1  0.419200  0.719400  0.009200  1.0
  C  C567  1  0.419200  0.009200  0.780600  1.0
  C  C568  1  0.419200  0.490800  0.719400  1.0
  C  C569  1  0.580800  0.219400  0.509200  1.0
  C  C570  1  0.580800  0.280600  0.990800  1.0
  C  C571  1  0.580800  0.990800  0.219400  1.0
  C  C572  1  0.580800  0.509200  0.280600  1.0
  C  C573  1  0.392900  0.757100  0.508200  1.0
  C  C574  1  0.392900  0.742900  0.991800  1.0
  C  C575  1  0.392900  0.991800  0.757100  1.0
  C  C576  1  0.392900  0.508200  0.742900  1.0
  C  C577  1  0.607100  0.242900  0.491800  1.0
  C  C578  1  0.607100  0.257100  0.008200  1.0
  C  C579  1  0.607100  0.008200  0.242900  1.0
  C  C580  1  0.607100  0.491800  0.257100  1.0
  C  C581  1  0.362700  0.734000  0.494700  1.0
  C  C582  1  0.362700  0.766000  0.005300  1.0
  C  C583  1  0.362700  0.005300  0.734000  1.0
  C  C584  1  0.362700  0.494700  0.766000  1.0
  C  C585  1  0.637300  0.266000  0.505300  1.0
  C  C586  1  0.637300  0.234000  0.994700  1.0
  C  C587  1  0.637300  0.994700  0.266000  1.0
  C  C588  1  0.637300  0.505300  0.234000  1.0
  C  C589  1  0.103300  0.072600  0.621900  1.0
  C  C590  1  0.103300  0.427400  0.878100  1.0
  C  C591  1  0.103300  0.878100  0.072600  1.0
  C  C592  1  0.103300  0.621900  0.427400  1.0
  C  C593  1  0.896700  0.927400  0.378100  1.0
  C  C594  1  0.896700  0.572600  0.121900  1.0
  C  C595  1  0.896700  0.121900  0.927400  1.0
  C  C596  1  0.896700  0.378100  0.572600  1.0
  C  C597  1  0.068900  0.067900  0.597600  1.0
  C  C598  1  0.068900  0.432100  0.902400  1.0
  C  C599  1  0.068900  0.902400  0.067900  1.0
  C  C600  1  0.068900  0.597600  0.432100  1.0
  C  C601  1  0.931100  0.932100  0.402400  1.0
  C  C602  1  0.931100  0.567900  0.097600  1.0
  C  C603  1  0.931100  0.097600  0.932100  1.0
  C  C604  1  0.931100  0.402400  0.567900  1.0
  C  C605  1  0.077500  0.046700  0.571800  1.0
  C  C606  1  0.077500  0.453300  0.928200  1.0
  C  C607  1  0.077500  0.928200  0.046700  1.0
  C  C608  1  0.077500  0.571800  0.453300  1.0
  C  C609  1  0.922500  0.953300  0.428200  1.0
  C  C610  1  0.922500  0.546700  0.071800  1.0
  C  C611  1  0.922500  0.071800  0.953300  1.0
  C  C612  1  0.922500  0.428200  0.546700  1.0
  C  C613  1  0.122900  0.031300  0.568800  1.0
  C  C614  1  0.122900  0.468700  0.931200  1.0
  C  C615  1  0.122900  0.931200  0.031300  1.0
  C  C616  1  0.122900  0.568800  0.468700  1.0
  C  C617  1  0.877100  0.968700  0.431200  1.0
  C  C618  1  0.877100  0.531300  0.068800  1.0
  C  C619  1  0.877100  0.068800  0.968700  1.0
  C  C620  1  0.877100  0.431200  0.531300  1.0
  C  C621  1  0.156300  0.036900  0.594600  1.0
  C  C622  1  0.156300  0.463100  0.905400  1.0
  C  C623  1  0.156300  0.905400  0.036900  1.0
  C  C624  1  0.156300  0.594600  0.463100  1.0
  C  C625  1  0.843700  0.963100  0.405400  1.0
  C  C626  1  0.843700  0.536900  0.094600  1.0
  C  C627  1  0.843700  0.094600  0.963100  1.0
  C  C628  1  0.843700  0.405400  0.536900  1.0
  C  C629  1  0.203900  0.020200  0.595800  1.0
  C  C630  1  0.203900  0.479800  0.904200  1.0
  C  C631  1  0.203900  0.904200  0.020200  1.0
  C  C632  1  0.203900  0.595800  0.479800  1.0
  C  C633  1  0.796100  0.979800  0.404200  1.0
  C  C634  1  0.796100  0.520200  0.095800  1.0
  C  C635  1  0.796100  0.095800  0.979800  1.0
  C  C636  1  0.796100  0.404200  0.520200  1.0
  C  C637  1  0.229700  0.997000  0.578100  1.0
  C  C638  1  0.229700  0.503000  0.921900  1.0
  C  C639  1  0.229700  0.921900  0.997000  1.0
  C  C640  1  0.229700  0.578100  0.503000  1.0
  C  C641  1  0.770300  0.003000  0.421900  1.0
  C  C642  1  0.770300  0.497000  0.078100  1.0
  C  C643  1  0.770300  0.078100  0.003000  1.0
  C  C644  1  0.770300  0.421900  0.497000  1.0
  C  C645  1  0.314600  0.975400  0.586400  1.0
  C  C646  1  0.314600  0.524600  0.913600  1.0
  C  C647  1  0.314600  0.913600  0.975400  1.0
  C  C648  1  0.314600  0.586400  0.524600  1.0
  C  C649  1  0.685400  0.024600  0.413600  1.0
  C  C650  1  0.685400  0.475400  0.086400  1.0
  C  C651  1  0.685400  0.086400  0.024600  1.0
  C  C652  1  0.685400  0.413600  0.475400  1.0
  C  C653  1  0.331900  0.975200  0.553600  1.0
  C  C654  1  0.331900  0.524800  0.946400  1.0
  C  C655  1  0.331900  0.946400  0.975200  1.0
  C  C656  1  0.331900  0.553600  0.524800  1.0
  C  C657  1  0.668100  0.024800  0.446400  1.0
  C  C658  1  0.668100  0.475200  0.053600  1.0
  C  C659  1  0.668100  0.053600  0.024800  1.0
  C  C660  1  0.668100  0.446400  0.475200  1.0
  C  C661  1  0.372400  0.955600  0.546900  1.0
  C  C662  1  0.372400  0.544400  0.953100  1.0
  C  C663  1  0.372400  0.953100  0.955600  1.0
  C  C664  1  0.372400  0.546900  0.544400  1.0
  C  C665  1  0.627600  0.044400  0.453100  1.0
  C  C666  1  0.627600  0.455600  0.046900  1.0
  C  C667  1  0.627600  0.046900  0.044400  1.0
  C  C668  1  0.627600  0.453100  0.455600  1.0
  C  C669  1  0.394400  0.934900  0.570100  1.0
  C  C670  1  0.394400  0.565100  0.929900  1.0
  C  C671  1  0.394400  0.929900  0.934900  1.0
  C  C672  1  0.394400  0.570100  0.565100  1.0
  C  C673  1  0.605600  0.065100  0.429900  1.0
  C  C674  1  0.605600  0.434900  0.070100  1.0
  C  C675  1  0.605600  0.070100  0.065100  1.0
  C  C676  1  0.605600  0.429900  0.434900  1.0
  C  C677  1  0.376700  0.936900  0.601900  1.0
  C  C678  1  0.376700  0.563100  0.898100  1.0
  C  C679  1  0.376700  0.898100  0.936900  1.0
  C  C680  1  0.376700  0.601900  0.563100  1.0
  C  C681  1  0.623300  0.063100  0.398100  1.0
  C  C682  1  0.623300  0.436900  0.101900  1.0
  C  C683  1  0.623300  0.101900  0.063100  1.0
  C  C684  1  0.623300  0.398100  0.436900  1.0
  C  C685  1  0.337000  0.955200  0.610300  1.0
  C  C686  1  0.337000  0.544800  0.889700  1.0
  C  C687  1  0.337000  0.889700  0.955200  1.0
  C  C688  1  0.337000  0.610300  0.544800  1.0
  C  C689  1  0.663000  0.044800  0.389700  1.0
  C  C690  1  0.663000  0.455200  0.110300  1.0
  C  C691  1  0.663000  0.110300  0.044800  1.0
  C  C692  1  0.663000  0.389700  0.455200  1.0
  C  C693  1  0.857400  0.132200  0.658600  1.0
  C  C694  1  0.857400  0.367800  0.841400  1.0
  C  C695  1  0.857400  0.841400  0.132200  1.0
  C  C696  1  0.857400  0.658600  0.367800  1.0
  C  C697  1  0.142600  0.867800  0.341400  1.0
  C  C698  1  0.142600  0.632200  0.158600  1.0
  C  C699  1  0.142600  0.158600  0.867800  1.0
  C  C700  1  0.142600  0.341400  0.632200  1.0
  C  C701  1  0.834800  0.162900  0.654900  1.0
  C  C702  1  0.834800  0.337100  0.845100  1.0
  C  C703  1  0.834800  0.845100  0.162900  1.0
  C  C704  1  0.834800  0.654900  0.337100  1.0
  C  C705  1  0.165200  0.837100  0.345100  1.0
  C  C706  1  0.165200  0.662900  0.154900  1.0
  C  C707  1  0.165200  0.154900  0.837100  1.0
  C  C708  1  0.165200  0.345100  0.662900  1.0
  C  C709  1  0.790600  0.163700  0.638600  1.0
  C  C710  1  0.790600  0.336300  0.861400  1.0
  C  C711  1  0.790600  0.861400  0.163700  1.0
  C  C712  1  0.790600  0.638600  0.336300  1.0
  C  C713  1  0.209400  0.836300  0.361400  1.0
  C  C714  1  0.209400  0.663700  0.138600  1.0
  C  C715  1  0.209400  0.138600  0.836300  1.0
  C  C716  1  0.209400  0.361400  0.663700  1.0
  C  C717  1  0.767100  0.133900  0.631400  1.0
  C  C718  1  0.767100  0.366100  0.868600  1.0
  C  C719  1  0.767100  0.868600  0.133900  1.0
  C  C720  1  0.767100  0.631400  0.366100  1.0
  C  C721  1  0.232900  0.866100  0.368600  1.0
  C  C722  1  0.232900  0.633900  0.131400  1.0
  C  C723  1  0.232900  0.131400  0.866100  1.0
  C  C724  1  0.232900  0.368600  0.633900  1.0
  C  C725  1  0.793200  0.104100  0.634300  1.0
  C  C726  1  0.793200  0.395900  0.865700  1.0
  C  C727  1  0.793200  0.865700  0.104100  1.0
  C  C728  1  0.793200  0.634300  0.395900  1.0
  C  C729  1  0.206800  0.895900  0.365700  1.0
  C  C730  1  0.206800  0.604100  0.134300  1.0
  C  C731  1  0.206800  0.134300  0.895900  1.0
  C  C732  1  0.206800  0.365700  0.604100  1.0
  C  C733  1  0.773800  0.071400  0.624000  1.0
  C  C734  1  0.773800  0.428600  0.876000  1.0
  C  C735  1  0.773800  0.876000  0.071400  1.0
  C  C736  1  0.773800  0.624000  0.428600  1.0
  C  C737  1  0.226200  0.928600  0.376000  1.0
  C  C738  1  0.226200  0.571400  0.124000  1.0
  C  C739  1  0.226200  0.124000  0.928600  1.0
  C  C740  1  0.226200  0.376000  0.571400  1.0
  C  C741  1  0.732700  0.058800  0.609700  1.0
  C  C742  1  0.732700  0.441200  0.890300  1.0
  C  C743  1  0.732700  0.890300  0.058800  1.0
  C  C744  1  0.732700  0.609700  0.441200  1.0
  C  C745  1  0.267300  0.941200  0.390300  1.0
  C  C746  1  0.267300  0.558800  0.109700  1.0
  C  C747  1  0.267300  0.109700  0.941200  1.0
  C  C748  1  0.267300  0.390300  0.558800  1.0
  C  C749  1  0.710800  0.999200  0.596900  1.0
  C  C750  1  0.710800  0.500800  0.903100  1.0
  C  C751  1  0.710800  0.903100  0.999200  1.0
  C  C752  1  0.710800  0.596900  0.500800  1.0
  C  C753  1  0.289200  0.000800  0.403100  1.0
  C  C754  1  0.289200  0.499200  0.096900  1.0
  C  C755  1  0.289200  0.096900  0.000800  1.0
  C  C756  1  0.289200  0.403100  0.499200  1.0
  C  C757  1  0.686100  0.002100  0.566700  1.0
  C  C758  1  0.686100  0.497900  0.933300  1.0
  C  C759  1  0.686100  0.933300  0.002100  1.0
  C  C760  1  0.686100  0.566700  0.497900  1.0
  C  C761  1  0.313900  0.997900  0.433300  1.0
  C  C762  1  0.313900  0.502100  0.066700  1.0
  C  C763  1  0.313900  0.066700  0.997900  1.0
  C  C764  1  0.313900  0.433300  0.502100  1.0
  C  C765  1  0.653400  0.976900  0.558300  1.0
  C  C766  1  0.653400  0.523100  0.941700  1.0
  C  C767  1  0.653400  0.941700  0.976900  1.0
  C  C768  1  0.653400  0.558300  0.523100  1.0
  C  C769  1  0.346600  0.023100  0.441700  1.0
  C  C770  1  0.346600  0.476900  0.058300  1.0
  C  C771  1  0.346600  0.058300  0.023100  1.0
  C  C772  1  0.346600  0.441700  0.476900  1.0
  C  C773  1  0.647200  0.947700  0.576600  1.0
  C  C774  1  0.647200  0.552300  0.923400  1.0
  C  C775  1  0.647200  0.923400  0.947700  1.0
  C  C776  1  0.647200  0.576600  0.552300  1.0
  C  C777  1  0.352800  0.052300  0.423400  1.0
  C  C778  1  0.352800  0.447700  0.076600  1.0
  C  C779  1  0.352800  0.076600  0.052300  1.0
  C  C780  1  0.352800  0.423400  0.447700  1.0
  C  C781  1  0.674200  0.945500  0.605400  1.0
  C  C782  1  0.674200  0.554500  0.894600  1.0
  C  C783  1  0.674200  0.894600  0.945500  1.0
  C  C784  1  0.674200  0.605400  0.554500  1.0
  C  C785  1  0.325800  0.054500  0.394600  1.0
  C  C786  1  0.325800  0.445500  0.105400  1.0
  C  C787  1  0.325800  0.105400  0.054500  1.0
  C  C788  1  0.325800  0.394600  0.445500  1.0
  C  C789  1  0.704700  0.970200  0.615900  1.0
  C  C790  1  0.704700  0.529800  0.884100  1.0
  C  C791  1  0.704700  0.884100  0.970200  1.0
  C  C792  1  0.704700  0.615900  0.529800  1.0
  C  C793  1  0.295300  0.029800  0.384100  1.0
  C  C794  1  0.295300  0.470200  0.115900  1.0
  C  C795  1  0.295300  0.115900  0.029800  1.0
  C  C796  1  0.295300  0.384100  0.470200  1.0
  C  C797  1  0.158400  0.116700  0.694000  1.0
  C  C798  1  0.158400  0.383300  0.806000  1.0
  C  C799  1  0.158400  0.806000  0.116700  1.0
  C  C800  1  0.158400  0.694000  0.383300  1.0
  C  C801  1  0.841600  0.883300  0.306000  1.0
  C  C802  1  0.841600  0.616700  0.194000  1.0
  C  C803  1  0.841600  0.194000  0.883300  1.0
  C  C804  1  0.841600  0.306000  0.616700  1.0
  C  C805  1  0.135400  0.131200  0.721000  1.0
  C  C806  1  0.135400  0.368800  0.779000  1.0
  C  C807  1  0.135400  0.779000  0.131200  1.0
  C  C808  1  0.135400  0.721000  0.368800  1.0
  C  C809  1  0.864600  0.868800  0.279000  1.0
  C  C810  1  0.864600  0.631200  0.221000  1.0
  C  C811  1  0.864600  0.221000  0.868800  1.0
  C  C812  1  0.864600  0.279000  0.631200  1.0
  C  C813  1  0.119200  0.110500  0.746300  1.0
  C  C814  1  0.119200  0.389500  0.753700  1.0
  C  C815  1  0.119200  0.753700  0.110500  1.0
  C  C816  1  0.119200  0.746300  0.389500  1.0
  C  C817  1  0.880800  0.889500  0.253700  1.0
  C  C818  1  0.880800  0.610500  0.246300  1.0
  C  C819  1  0.880800  0.246300  0.889500  1.0
  C  C820  1  0.880800  0.253700  0.610500  1.0
  C  C821  1  0.124900  0.076300  0.743400  1.0
  C  C822  1  0.124900  0.423700  0.756600  1.0
  C  C823  1  0.124900  0.756600  0.076300  1.0
  C  C824  1  0.124900  0.743400  0.423700  1.0
  C  C825  1  0.875100  0.923700  0.256600  1.0
  C  C826  1  0.875100  0.576300  0.243400  1.0
  C  C827  1  0.875100  0.243400  0.923700  1.0
  C  C828  1  0.875100  0.256600  0.576300  1.0
  C  C829  1  0.145600  0.063400  0.714300  1.0
  C  C830  1  0.145600  0.436600  0.785700  1.0
  C  C831  1  0.145600  0.785700  0.063400  1.0
  C  C832  1  0.145600  0.714300  0.436600  1.0
  C  C833  1  0.854400  0.936600  0.285700  1.0
  C  C834  1  0.854400  0.563400  0.214300  1.0
  C  C835  1  0.854400  0.214300  0.936600  1.0
  C  C836  1  0.854400  0.285700  0.563400  1.0
  C  C837  1  0.155000  0.027900  0.708700  1.0
  C  C838  1  0.155000  0.472100  0.791300  1.0
  C  C839  1  0.155000  0.791300  0.027900  1.0
  C  C840  1  0.155000  0.708700  0.472100  1.0
  C  C841  1  0.845000  0.972100  0.291300  1.0
  C  C842  1  0.845000  0.527900  0.208700  1.0
  C  C843  1  0.845000  0.208700  0.972100  1.0
  C  C844  1  0.845000  0.291300  0.527900  1.0
  C  C845  1  0.145800  0.998400  0.724900  1.0
  C  C846  1  0.145800  0.501600  0.775100  1.0
  C  C847  1  0.145800  0.775100  0.998400  1.0
  C  C848  1  0.145800  0.724900  0.501600  1.0
  C  C849  1  0.854200  0.001600  0.275100  1.0
  C  C850  1  0.854200  0.498400  0.224900  1.0
  C  C851  1  0.854200  0.224900  0.001600  1.0
  C  C852  1  0.854200  0.275100  0.498400  1.0
  C  C853  1  0.165100  0.939500  0.708600  1.0
  C  C854  1  0.165100  0.560500  0.791400  1.0
  C  C855  1  0.165100  0.791400  0.939500  1.0
  C  C856  1  0.165100  0.708600  0.560500  1.0
  C  C857  1  0.834900  0.060500  0.291400  1.0
  C  C858  1  0.834900  0.439500  0.208600  1.0
  C  C859  1  0.834900  0.208600  0.060500  1.0
  C  C860  1  0.834900  0.291400  0.439500  1.0
  C  C861  1  0.209200  0.922200  0.709700  1.0
  C  C862  1  0.209200  0.577800  0.790300  1.0
  C  C863  1  0.209200  0.790300  0.922200  1.0
  C  C864  1  0.209200  0.709700  0.577800  1.0
  C  C865  1  0.790800  0.077800  0.290300  1.0
  C  C866  1  0.790800  0.422200  0.209700  1.0
  C  C867  1  0.790800  0.209700  0.077800  1.0
  C  C868  1  0.790800  0.290300  0.422200  1.0
  C  C869  1  0.208300  0.887500  0.715600  1.0
  C  C870  1  0.208300  0.612500  0.784400  1.0
  C  C871  1  0.208300  0.784400  0.887500  1.0
  C  C872  1  0.208300  0.715600  0.612500  1.0
  C  C873  1  0.791700  0.112500  0.284400  1.0
  C  C874  1  0.791700  0.387500  0.215600  1.0
  C  C875  1  0.791700  0.215600  0.112500  1.0
  C  C876  1  0.791700  0.284400  0.387500  1.0
  C  C877  1  0.166300  0.869800  0.721700  1.0
  C  C878  1  0.166300  0.630200  0.778300  1.0
  C  C879  1  0.166300  0.778300  0.869800  1.0
  C  C880  1  0.166300  0.721700  0.630200  1.0
  C  C881  1  0.833700  0.130200  0.278300  1.0
  C  C882  1  0.833700  0.369800  0.221700  1.0
  C  C883  1  0.833700  0.221700  0.130200  1.0
  C  C884  1  0.833700  0.278300  0.369800  1.0
  C  C885  1  0.124800  0.888400  0.722000  1.0
  C  C886  1  0.124800  0.611600  0.778000  1.0
  C  C887  1  0.124800  0.778000  0.888400  1.0
  C  C888  1  0.124800  0.722000  0.611600  1.0
  C  C889  1  0.875200  0.111600  0.278000  1.0
  C  C890  1  0.875200  0.388400  0.222000  1.0
  C  C891  1  0.875200  0.222000  0.111600  1.0
  C  C892  1  0.875200  0.278000  0.388400  1.0
  C  C893  1  0.122800  0.921400  0.715100  1.0
  C  C894  1  0.122800  0.578600  0.784900  1.0
  C  C895  1  0.122800  0.784900  0.921400  1.0
  C  C896  1  0.122800  0.715100  0.578600  1.0
  C  C897  1  0.877200  0.078600  0.284900  1.0
  C  C898  1  0.877200  0.421400  0.215100  1.0
  C  C899  1  0.877200  0.215100  0.078600  1.0
  C  C900  1  0.877200  0.284900  0.421400  1.0
  C  C901  1  0.910100  0.588100  0.415700  1.0
  C  C902  1  0.910100  0.911900  0.084300  1.0
  C  C903  1  0.910100  0.084300  0.588100  1.0
  C  C904  1  0.910100  0.415700  0.911900  1.0
  C  C905  1  0.089900  0.411900  0.584300  1.0
  C  C906  1  0.089900  0.088100  0.915700  1.0
  C  C907  1  0.089900  0.915700  0.411900  1.0
  C  C908  1  0.089900  0.584300  0.088100  1.0
  C  C909  1  0.933000  0.557400  0.418100  1.0
  C  C910  1  0.933000  0.942600  0.081900  1.0
  C  C911  1  0.933000  0.081900  0.557400  1.0
  C  C912  1  0.933000  0.418100  0.942600  1.0
  C  C913  1  0.067000  0.442600  0.581900  1.0
  C  C914  1  0.067000  0.057400  0.918100  1.0
  C  C915  1  0.067000  0.918100  0.442600  1.0
  C  C916  1  0.067000  0.581900  0.057400  1.0
  C  C917  1  0.948000  0.546900  0.449300  1.0
  C  C918  1  0.948000  0.953100  0.050700  1.0
  C  C919  1  0.948000  0.050700  0.546900  1.0
  C  C920  1  0.948000  0.449300  0.953100  1.0
  C  C921  1  0.052000  0.453100  0.550700  1.0
  C  C922  1  0.052000  0.046900  0.949300  1.0
  C  C923  1  0.052000  0.949300  0.453100  1.0
  C  C924  1  0.052000  0.550700  0.046900  1.0
  C  C925  1  0.945000  0.568700  0.476200  1.0
  C  C926  1  0.945000  0.931300  0.023800  1.0
  C  C927  1  0.945000  0.023800  0.568700  1.0
  C  C928  1  0.945000  0.476200  0.931300  1.0
  C  C929  1  0.055000  0.431300  0.523800  1.0
  C  C930  1  0.055000  0.068700  0.976200  1.0
  C  C931  1  0.055000  0.976200  0.431300  1.0
  C  C932  1  0.055000  0.523800  0.068700  1.0
  C  C933  1  0.920600  0.599000  0.471900  1.0
  C  C934  1  0.920600  0.901000  0.028100  1.0
  C  C935  1  0.920600  0.028100  0.599000  1.0
  C  C936  1  0.920600  0.471900  0.901000  1.0
  C  C937  1  0.079400  0.401000  0.528100  1.0
  C  C938  1  0.079400  0.099000  0.971900  1.0
  C  C939  1  0.079400  0.971900  0.401000  1.0
  C  C940  1  0.079400  0.528100  0.099000  1.0
  C  C941  1  0.912200  0.623100  0.498800  1.0
  C  C942  1  0.912200  0.876900  0.001200  1.0
  C  C943  1  0.912200  0.001200  0.623100  1.0
  C  C944  1  0.912200  0.498800  0.876900  1.0
  C  C945  1  0.087800  0.376900  0.501200  1.0
  C  C946  1  0.087800  0.123100  0.998800  1.0
  C  C947  1  0.087800  0.998800  0.376900  1.0
  C  C948  1  0.087800  0.501200  0.123100  1.0
  C  C949  1  0.921900  0.626300  0.532200  1.0
  C  C950  1  0.921900  0.873700  0.967800  1.0
  C  C951  1  0.921900  0.967800  0.626300  1.0
  C  C952  1  0.921900  0.532200  0.873700  1.0
  C  C953  1  0.078100  0.373700  0.467800  1.0
  C  C954  1  0.078100  0.126300  0.032200  1.0
  C  C955  1  0.078100  0.032200  0.373700  1.0
  C  C956  1  0.078100  0.467800  0.126300  1.0
  C  C957  1  0.902800  0.672400  0.572200  1.0
  C  C958  1  0.902800  0.827600  0.927800  1.0
  C  C959  1  0.902800  0.927800  0.672400  1.0
  C  C960  1  0.902800  0.572200  0.827600  1.0
  C  C961  1  0.097200  0.327600  0.427800  1.0
  C  C962  1  0.097200  0.172400  0.072200  1.0
  C  C963  1  0.097200  0.072200  0.327600  1.0
  C  C964  1  0.097200  0.427800  0.172400  1.0
  C  C965  1  0.859600  0.682900  0.586800  1.0
  C  C966  1  0.859600  0.817100  0.913200  1.0
  C  C967  1  0.859600  0.913200  0.682900  1.0
  C  C968  1  0.859600  0.586800  0.817100  1.0
  C  C969  1  0.140400  0.317100  0.413200  1.0
  C  C970  1  0.140400  0.182900  0.086800  1.0
  C  C971  1  0.140400  0.086800  0.317100  1.0
  C  C972  1  0.140400  0.413200  0.182900  1.0
  C  C973  1  0.861600  0.696400  0.619100  1.0
  C  C974  1  0.861600  0.803600  0.880900  1.0
  C  C975  1  0.861600  0.880900  0.696400  1.0
  C  C976  1  0.861600  0.619100  0.803600  1.0
  C  C977  1  0.138400  0.303600  0.380900  1.0
  C  C978  1  0.138400  0.196400  0.119100  1.0
  C  C979  1  0.138400  0.119100  0.303600  1.0
  C  C980  1  0.138400  0.380900  0.196400  1.0
  C  C981  1  0.903500  0.700600  0.636800  1.0
  C  C982  1  0.903500  0.799400  0.863200  1.0
  C  C983  1  0.903500  0.863200  0.700600  1.0
  C  C984  1  0.903500  0.636800  0.799400  1.0
  C  C985  1  0.096500  0.299400  0.363200  1.0
  C  C986  1  0.096500  0.200600  0.136800  1.0
  C  C987  1  0.096500  0.136800  0.299400  1.0
  C  C988  1  0.096500  0.363200  0.200600  1.0
  C  C989  1  0.945600  0.691400  0.620800  1.0
  C  C990  1  0.945600  0.808600  0.879200  1.0
  C  C991  1  0.945600  0.879200  0.691400  1.0
  C  C992  1  0.945600  0.620800  0.808600  1.0
  C  C993  1  0.054400  0.308600  0.379200  1.0
  C  C994  1  0.054400  0.191400  0.120800  1.0
  C  C995  1  0.054400  0.120800  0.308600  1.0
  C  C996  1  0.054400  0.379200  0.191400  1.0
  C  C997  1  0.946000  0.676900  0.590500  1.0
  C  C998  1  0.946000  0.823100  0.909500  1.0
  C  C999  1  0.946000  0.909500  0.676900  1.0
  C  C1000  1  0.946000  0.590500  0.823100  1.0
  C  C1001  1  0.054000  0.323100  0.409500  1.0
  C  C1002  1  0.054000  0.176900  0.090500  1.0
  C  C1003  1  0.054000  0.090500  0.323100  1.0
  C  C1004  1  0.054000  0.409500  0.176900  1.0
  C  C1005  1  0.628400  0.810900  0.514700  1.0
  C  C1006  1  0.628400  0.689100  0.985300  1.0
  C  C1007  1  0.628400  0.985300  0.810900  1.0
  C  C1008  1  0.628400  0.514700  0.689100  1.0
  C  C1009  1  0.371600  0.189100  0.485300  1.0
  C  C1010  1  0.371600  0.310900  0.014700  1.0
  C  C1011  1  0.371600  0.014700  0.189100  1.0
  C  C1012  1  0.371600  0.485300  0.310900  1.0
  C  C1013  1  0.637500  0.842700  0.527500  1.0
  C  C1014  1  0.637500  0.657300  0.972500  1.0
  C  C1015  1  0.637500  0.972500  0.842700  1.0
  C  C1016  1  0.637500  0.527500  0.657300  1.0
  C  C1017  1  0.362500  0.157300  0.472500  1.0
  C  C1018  1  0.362500  0.342700  0.027500  1.0
  C  C1019  1  0.362500  0.027500  0.157300  1.0
  C  C1020  1  0.362500  0.472500  0.342700  1.0
  C  C1021  1  0.686400  0.855000  0.533500  1.0
  C  C1022  1  0.686400  0.645000  0.966500  1.0
  C  C1023  1  0.686400  0.966500  0.855000  1.0
  C  C1024  1  0.686400  0.533500  0.645000  1.0
  C  C1025  1  0.313600  0.145000  0.466500  1.0
  C  C1026  1  0.313600  0.355000  0.033500  1.0
  C  C1027  1  0.313600  0.033500  0.145000  1.0
  C  C1028  1  0.313600  0.466500  0.355000  1.0
  C  C1029  1  0.681600  0.884800  0.547900  1.0
  C  C1030  1  0.681600  0.615200  0.952100  1.0
  C  C1031  1  0.681600  0.952100  0.884800  1.0
  C  C1032  1  0.681600  0.547900  0.615200  1.0
  C  C1033  1  0.318400  0.115200  0.452100  1.0
  C  C1034  1  0.318400  0.384800  0.047900  1.0
  C  C1035  1  0.318400  0.047900  0.115200  1.0
  C  C1036  1  0.318400  0.452100  0.384800  1.0
  C  C1037  1  0.630000  0.892400  0.550400  1.0
  C  C1038  1  0.630000  0.607600  0.949600  1.0
  C  C1039  1  0.630000  0.949600  0.892400  1.0
  C  C1040  1  0.630000  0.550400  0.607600  1.0
  C  C1041  1  0.370000  0.107600  0.449600  1.0
  C  C1042  1  0.370000  0.392400  0.050400  1.0
  C  C1043  1  0.370000  0.050400  0.107600  1.0
  C  C1044  1  0.370000  0.449600  0.392400  1.0
  C  C1045  1  0.612500  0.921400  0.564600  1.0
  C  C1046  1  0.612500  0.578600  0.935400  1.0
  C  C1047  1  0.612500  0.935400  0.921400  1.0
  C  C1048  1  0.612500  0.564600  0.578600  1.0
  C  C1049  1  0.387500  0.078600  0.435400  1.0
  C  C1050  1  0.387500  0.421400  0.064600  1.0
  C  C1051  1  0.387500  0.064600  0.078600  1.0
  C  C1052  1  0.387500  0.435400  0.421400  1.0
  C  C1053  1  0.562700  0.927900  0.568000  1.0
  C  C1054  1  0.562700  0.572100  0.932000  1.0
  C  C1055  1  0.562700  0.932000  0.927900  1.0
  C  C1056  1  0.562700  0.568000  0.572100  1.0
  C  C1057  1  0.437300  0.072100  0.432000  1.0
  C  C1058  1  0.437300  0.427900  0.068000  1.0
  C  C1059  1  0.437300  0.068000  0.072100  1.0
  C  C1060  1  0.437300  0.432000  0.427900  1.0
  C  C1061  1  0.542700  0.957900  0.582800  1.0
  C  C1062  1  0.542700  0.542100  0.917200  1.0
  C  C1063  1  0.542700  0.917200  0.957900  1.0
  C  C1064  1  0.542700  0.582800  0.542100  1.0
  C  C1065  1  0.457300  0.042100  0.417200  1.0
  C  C1066  1  0.457300  0.457900  0.082800  1.0
  C  C1067  1  0.457300  0.082800  0.042100  1.0
  C  C1068  1  0.457300  0.417200  0.457900  1.0
  C  C1069  1  0.493300  0.956200  0.581600  1.0
  C  C1070  1  0.493300  0.543800  0.918400  1.0
  C  C1071  1  0.493300  0.918400  0.956200  1.0
  C  C1072  1  0.493300  0.581600  0.543800  1.0
  C  C1073  1  0.506700  0.043800  0.418400  1.0
  C  C1074  1  0.506700  0.456200  0.081600  1.0
  C  C1075  1  0.506700  0.081600  0.043800  1.0
  C  C1076  1  0.506700  0.418400  0.456200  1.0
  C  C1077  1  0.484600  0.923500  0.565500  1.0
  C  C1078  1  0.484600  0.576500  0.934500  1.0
  C  C1079  1  0.484600  0.934500  0.923500  1.0
  C  C1080  1  0.484600  0.565500  0.576500  1.0
  C  C1081  1  0.515400  0.076500  0.434500  1.0
  C  C1082  1  0.515400  0.423500  0.065500  1.0
  C  C1083  1  0.515400  0.065500  0.076500  1.0
  C  C1084  1  0.515400  0.434500  0.423500  1.0
  C  C1085  1  0.437000  0.912700  0.559400  1.0
  C  C1086  1  0.437000  0.587300  0.940600  1.0
  C  C1087  1  0.437000  0.940600  0.912700  1.0
  C  C1088  1  0.437000  0.559400  0.587300  1.0
  C  C1089  1  0.563000  0.087300  0.440600  1.0
  C  C1090  1  0.563000  0.412700  0.059400  1.0
  C  C1091  1  0.563000  0.059400  0.087300  1.0
  C  C1092  1  0.563000  0.440600  0.412700  1.0
  C  C1093  1  0.425500  0.881900  0.544200  1.0
  C  C1094  1  0.425500  0.618100  0.955800  1.0
  C  C1095  1  0.425500  0.955800  0.881900  1.0
  C  C1096  1  0.425500  0.544200  0.618100  1.0
  C  C1097  1  0.574500  0.118100  0.455800  1.0
  C  C1098  1  0.574500  0.381900  0.044200  1.0
  C  C1099  1  0.574500  0.044200  0.118100  1.0
  C  C1100  1  0.574500  0.455800  0.381900  1.0
  C  C1101  1  0.376200  0.870800  0.536700  1.0
  C  C1102  1  0.376200  0.629200  0.963300  1.0
  C  C1103  1  0.376200  0.963300  0.870800  1.0
  C  C1104  1  0.376200  0.536700  0.629200  1.0
  C  C1105  1  0.623800  0.129200  0.463300  1.0
  C  C1106  1  0.623800  0.370800  0.036700  1.0
  C  C1107  1  0.623800  0.036700  0.129200  1.0
  C  C1108  1  0.623800  0.463300  0.370800  1.0
  C  C1109  1  0.380200  0.842500  0.519900  1.0
  C  C1110  1  0.380200  0.657500  0.980100  1.0
  C  C1111  1  0.380200  0.980100  0.842500  1.0
  C  C1112  1  0.380200  0.519900  0.657500  1.0
  C  C1113  1  0.619800  0.157500  0.480100  1.0
  C  C1114  1  0.619800  0.342500  0.019900  1.0
  C  C1115  1  0.619800  0.019900  0.157500  1.0
  C  C1116  1  0.619800  0.480100  0.342500  1.0
  C  C1117  1  0.431900  0.834000  0.518500  1.0
  C  C1118  1  0.431900  0.666000  0.981500  1.0
  C  C1119  1  0.431900  0.981500  0.834000  1.0
  C  C1120  1  0.431900  0.518500  0.666000  1.0
  C  C1121  1  0.568100  0.166000  0.481500  1.0
  C  C1122  1  0.568100  0.334000  0.018500  1.0
  C  C1123  1  0.568100  0.018500  0.166000  1.0
  C  C1124  1  0.568100  0.481500  0.334000  1.0
  C  C1125  1  0.452500  0.805600  0.504800  1.0
  C  C1126  1  0.452500  0.694400  0.995200  1.0
  C  C1127  1  0.452500  0.995200  0.805600  1.0
  C  C1128  1  0.452500  0.504800  0.694400  1.0
  C  C1129  1  0.547500  0.194400  0.495200  1.0
  C  C1130  1  0.547500  0.305600  0.004800  1.0
  C  C1131  1  0.547500  0.004800  0.194400  1.0
  C  C1132  1  0.547500  0.495200  0.305600  1.0
  C  C1133  1  0.502100  0.797900  0.504400  1.0
  C  C1134  1  0.502100  0.702100  0.995600  1.0
  C  C1135  1  0.502100  0.995600  0.797900  1.0
  C  C1136  1  0.502100  0.504400  0.702100  1.0
  C  C1137  1  0.497900  0.202100  0.495600  1.0
  C  C1138  1  0.497900  0.297900  0.004400  1.0
  C  C1139  1  0.497900  0.004400  0.202100  1.0
  C  C1140  1  0.497900  0.495600  0.297900  1.0
  C  C1141  1  0.521800  0.767000  0.490100  1.0
  C  C1142  1  0.521800  0.733000  0.009900  1.0
  C  C1143  1  0.521800  0.009900  0.767000  1.0
  C  C1144  1  0.521800  0.490100  0.733000  1.0
  C  C1145  1  0.478200  0.233000  0.509900  1.0
  C  C1146  1  0.478200  0.267000  0.990100  1.0
  C  C1147  1  0.478200  0.990100  0.233000  1.0
  C  C1148  1  0.478200  0.509900  0.267000  1.0
  C  C1149  1  0.569900  0.769700  0.492000  1.0
  C  C1150  1  0.569900  0.730300  0.008000  1.0
  C  C1151  1  0.569900  0.008000  0.769700  1.0
  C  C1152  1  0.569900  0.492000  0.730300  1.0
  C  C1153  1  0.430100  0.230300  0.508000  1.0
  C  C1154  1  0.430100  0.269700  0.992000  1.0
  C  C1155  1  0.430100  0.992000  0.230300  1.0
  C  C1156  1  0.430100  0.508000  0.269700  1.0
  C  C1157  1  0.581000  0.800500  0.507600  1.0
  C  C1158  1  0.581000  0.699500  0.992400  1.0
  C  C1159  1  0.581000  0.992400  0.800500  1.0
  C  C1160  1  0.581000  0.507600  0.699500  1.0
  C  C1161  1  0.419000  0.199500  0.492400  1.0
  C  C1162  1  0.419000  0.300500  0.007600  1.0
  C  C1163  1  0.419000  0.007600  0.199500  1.0
  C  C1164  1  0.419000  0.492400  0.300500  1.0
  C  C1165  1  0.902300  0.716500  0.671700  1.0
  C  C1166  1  0.902300  0.783500  0.828300  1.0
  C  C1167  1  0.902300  0.828300  0.716500  1.0
  C  C1168  1  0.902300  0.671700  0.783500  1.0
  C  C1169  1  0.097700  0.283500  0.328300  1.0
  C  C1170  1  0.097700  0.216500  0.171700  1.0
  C  C1171  1  0.097700  0.171700  0.283500  1.0
  C  C1172  1  0.097700  0.328300  0.216500  1.0
  C  C1173  1  0.902400  0.694100  0.698000  1.0
  C  C1174  1  0.902400  0.805900  0.802000  1.0
  C  C1175  1  0.902400  0.802000  0.694100  1.0
  C  C1176  1  0.902400  0.698000  0.805900  1.0
  C  C1177  1  0.097600  0.305900  0.302000  1.0
  C  C1178  1  0.097600  0.194100  0.198000  1.0
  C  C1179  1  0.097600  0.198000  0.305900  1.0
  C  C1180  1  0.097600  0.302000  0.194100  1.0
  C  C1181  1  0.901900  0.658300  0.694400  1.0
  C  C1182  1  0.901900  0.841700  0.805600  1.0
  C  C1183  1  0.901900  0.805600  0.658300  1.0
  C  C1184  1  0.901900  0.694400  0.841700  1.0
  C  C1185  1  0.098100  0.341700  0.305600  1.0
  C  C1186  1  0.098100  0.158300  0.194400  1.0
  C  C1187  1  0.098100  0.194400  0.341700  1.0
  C  C1188  1  0.098100  0.305600  0.158300  1.0
  C  C1189  1  0.901100  0.645300  0.725500  1.0
  C  C1190  1  0.901100  0.854700  0.774500  1.0
  C  C1191  1  0.901100  0.774500  0.645300  1.0
  C  C1192  1  0.901100  0.725500  0.854700  1.0
  C  C1193  1  0.098900  0.354700  0.274500  1.0
  C  C1194  1  0.098900  0.145300  0.225500  1.0
  C  C1195  1  0.098900  0.225500  0.354700  1.0
  C  C1196  1  0.098900  0.274500  0.145300  1.0
  C  C1197  1  0.902500  0.674100  0.748400  1.0
  C  C1198  1  0.902500  0.825900  0.751600  1.0
  C  C1199  1  0.902500  0.751600  0.674100  1.0
  C  C1200  1  0.902500  0.748400  0.825900  1.0
  C  C1201  1  0.097500  0.325900  0.251600  1.0
  C  C1202  1  0.097500  0.174100  0.248400  1.0
  C  C1203  1  0.097500  0.248400  0.325900  1.0
  C  C1204  1  0.097500  0.251600  0.174100  1.0
  C  C1205  1  0.167300  0.833700  0.730500  1.0
  C  C1206  1  0.167300  0.666300  0.769500  1.0
  C  C1207  1  0.167300  0.769500  0.833700  1.0
  C  C1208  1  0.167300  0.730500  0.666300  1.0
  C  C1209  1  0.832700  0.166300  0.269500  1.0
  C  C1210  1  0.832700  0.333700  0.230500  1.0
  C  C1211  1  0.832700  0.230500  0.166300  1.0
  C  C1212  1  0.832700  0.269500  0.333700  1.0
  C  C1213  1  0.167100  0.810900  0.704200  1.0
  C  C1214  1  0.167100  0.689100  0.795800  1.0
  C  C1215  1  0.167100  0.795800  0.810900  1.0
  C  C1216  1  0.167100  0.704200  0.689100  1.0
  C  C1217  1  0.832900  0.189100  0.295800  1.0
  C  C1218  1  0.832900  0.310900  0.204200  1.0
  C  C1219  1  0.832900  0.204200  0.189100  1.0
  C  C1220  1  0.832900  0.295800  0.310900  1.0
  C  C1221  1  0.170400  0.819100  0.669000  1.0
  C  C1222  1  0.170400  0.680900  0.831000  1.0
  C  C1223  1  0.170400  0.831000  0.819100  1.0
  C  C1224  1  0.170400  0.669000  0.680900  1.0
  C  C1225  1  0.829600  0.180900  0.331000  1.0
  C  C1226  1  0.829600  0.319100  0.169000  1.0
  C  C1227  1  0.829600  0.169000  0.180900  1.0
  C  C1228  1  0.829600  0.331000  0.319100  1.0
  C  C1229  1  0.168300  0.789900  0.651400  1.0
  C  C1230  1  0.168300  0.710100  0.848600  1.0
  C  C1231  1  0.168300  0.848600  0.789900  1.0
  C  C1232  1  0.168300  0.651400  0.710100  1.0
  C  C1233  1  0.831700  0.210100  0.348600  1.0
  C  C1234  1  0.831700  0.289900  0.151400  1.0
  C  C1235  1  0.831700  0.151400  0.210100  1.0
  C  C1236  1  0.831700  0.348600  0.289900  1.0
  C  C1237  1  0.167800  0.763500  0.675000  1.0
  C  C1238  1  0.167800  0.736500  0.825000  1.0
  C  C1239  1  0.167800  0.825000  0.763500  1.0
  C  C1240  1  0.167800  0.675000  0.736500  1.0
  C  C1241  1  0.832200  0.236500  0.325000  1.0
  C  C1242  1  0.832200  0.263500  0.175000  1.0
  C  C1243  1  0.832200  0.175000  0.236500  1.0
  C  C1244  1  0.832200  0.325000  0.263500  1.0
  S  S1245  1  0.996800  0.174900  0.628000  1
  S  S1246  1  0.996800  0.325100  0.872000  1
  S  S1247  1  0.996800  0.872000  0.174900  1
  S  S1248  1  0.996800  0.628000  0.325100  1
  S  S1249  1  0.003200  0.825100  0.372000  1
  S  S1250  1  0.003200  0.674900  0.128000  1
  S  S1251  1  0.003200  0.128000  0.825100  1
  S  S1252  1  0.003200  0.372000  0.674900  1
  S  S1253  1  0.098800  0.185100  0.619800  1
  S  S1254  1  0.098800  0.314900  0.880200  1
  S  S1255  1  0.098800  0.880200  0.185100  1
  S  S1256  1  0.098800  0.619800  0.314900  1
  S  S1257  1  0.901200  0.814900  0.380200  1
  S  S1258  1  0.901200  0.685100  0.119800  1
  S  S1259  1  0.901200  0.119800  0.814900  1
  S  S1260  1  0.901200  0.380200  0.685100  1
  N  N1261  1  0.042000  0.196600  0.615900  1
  N  N1262  1  0.042000  0.303400  0.884100  1
  N  N1263  1  0.042000  0.884100  0.196600  1
  N  N1264  1  0.042000  0.615900  0.303400  1
  N  N1265  1  0.958000  0.803400  0.384100  1
  N  N1266  1  0.958000  0.696600  0.115900  1
  N  N1267  1  0.958000  0.115900  0.803400  1
  N  N1268  1  0.958000  0.384100  0.696600  1
  N  N1269  1  0.919500  0.682000  0.428800  1.0
  N  N1270  1  0.919500  0.818000  0.071200  1.0
  N  N1271  1  0.919500  0.071200  0.682000  1.0
  N  N1272  1  0.919500  0.428800  0.818000  1.0
  N  N1273  1  0.080500  0.318000  0.571200  1.0
  N  N1274  1  0.080500  0.182000  0.928800  1.0
  N  N1275  1  0.080500  0.928800  0.318000  1.0
  N  N1276  1  0.080500  0.571200  0.182000  1.0
  N  N1277  1  0.833900  0.693600  0.450700  1.0
  N  N1278  1  0.833900  0.806400  0.049300  1.0
  N  N1279  1  0.833900  0.049300  0.693600  1.0
  N  N1280  1  0.833900  0.450700  0.806400  1.0
  N  N1281  1  0.166100  0.306400  0.549300  1.0
  N  N1282  1  0.166100  0.193600  0.950700  1.0
  N  N1283  1  0.166100  0.950700  0.306400  1.0
  N  N1284  1  0.166100  0.549300  0.193600  1.0
  N  N1285  1  0.790700  0.701000  0.463900  1.0
  N  N1286  1  0.790700  0.799000  0.036100  1.0
  N  N1287  1  0.790700  0.036100  0.701000  1.0
  N  N1288  1  0.790700  0.463900  0.799000  1.0
  N  N1289  1  0.209300  0.299000  0.536100  1.0
  N  N1290  1  0.209300  0.201000  0.963900  1.0
  N  N1291  1  0.209300  0.963900  0.299000  1.0
  N  N1292  1  0.209300  0.536100  0.201000  1.0
  N  N1293  1  0.792500  0.735000  0.466900  1.0
  N  N1294  1  0.792500  0.765000  0.033100  1.0
  N  N1295  1  0.792500  0.033100  0.735000  1.0
  N  N1296  1  0.792500  0.466900  0.765000  1.0
  N  N1297  1  0.207500  0.265000  0.533100  1.0
  N  N1298  1  0.207500  0.235000  0.966900  1.0
  N  N1299  1  0.207500  0.966900  0.265000  1.0
  N  N1300  1  0.207500  0.533100  0.235000  1.0
  N  N1301  1  0.230000  0.636000  0.398400  1.0
  N  N1302  1  0.230000  0.864000  0.101600  1.0
  N  N1303  1  0.230000  0.101600  0.636000  1.0
  N  N1304  1  0.230000  0.398400  0.864000  1.0
  N  N1305  1  0.770000  0.364000  0.601600  1.0
  N  N1306  1  0.770000  0.136000  0.898400  1.0
  N  N1307  1  0.770000  0.898400  0.364000  1.0
  N  N1308  1  0.770000  0.601600  0.136000  1.0
  N  N1309  1  0.259300  0.681300  0.438500  1.0
  N  N1310  1  0.259300  0.818700  0.061500  1.0
  N  N1311  1  0.259300  0.061500  0.681300  1.0
  N  N1312  1  0.259300  0.438500  0.818700  1.0
  N  N1313  1  0.740700  0.318700  0.561500  1.0
  N  N1314  1  0.740700  0.181300  0.938500  1.0
  N  N1315  1  0.740700  0.938500  0.318700  1.0
  N  N1316  1  0.740700  0.561500  0.181300  1.0
  N  N1317  1  0.279000  0.704500  0.457000  1.0
  N  N1318  1  0.279000  0.795500  0.043000  1.0
  N  N1319  1  0.279000  0.043000  0.704500  1.0
  N  N1320  1  0.279000  0.457000  0.795500  1.0
  N  N1321  1  0.721000  0.295500  0.543000  1.0
  N  N1322  1  0.721000  0.204500  0.957000  1.0
  N  N1323  1  0.721000  0.957000  0.295500  1.0
  N  N1324  1  0.721000  0.543000  0.204500  1.0
  N  N1325  1  0.324300  0.710000  0.444800  1.0
  N  N1326  1  0.324300  0.790000  0.055200  1.0
  N  N1327  1  0.324300  0.055200  0.710000  1.0
  N  N1328  1  0.324300  0.444800  0.790000  1.0
  N  N1329  1  0.675700  0.290000  0.555200  1.0
  N  N1330  1  0.675700  0.210000  0.944800  1.0
  N  N1331  1  0.675700  0.944800  0.290000  1.0
  N  N1332  1  0.675700  0.555200  0.210000  1.0
  N  N1333  1  0.146200  0.056200  0.621600  1.0
  N  N1334  1  0.146200  0.443800  0.878400  1.0
  N  N1335  1  0.146200  0.878400  0.056200  1.0
  N  N1336  1  0.146200  0.621600  0.443800  1.0
  N  N1337  1  0.853800  0.943800  0.378400  1.0
  N  N1338  1  0.853800  0.556200  0.121600  1.0
  N  N1339  1  0.853800  0.121600  0.943800  1.0
  N  N1340  1  0.853800  0.378400  0.556200  1.0
  N  N1341  1  0.231400  0.031300  0.622400  1.0
  N  N1342  1  0.231400  0.468700  0.877600  1.0
  N  N1343  1  0.231400  0.877600  0.031300  1.0
  N  N1344  1  0.231400  0.622400  0.468700  1.0
  N  N1345  1  0.768600  0.968700  0.377600  1.0
  N  N1346  1  0.768600  0.531300  0.122400  1.0
  N  N1347  1  0.768600  0.122400  0.968700  1.0
  N  N1348  1  0.768600  0.377600  0.531300  1.0
  N  N1349  1  0.274100  0.015800  0.621800  1.0
  N  N1350  1  0.274100  0.484200  0.878200  1.0
  N  N1351  1  0.274100  0.878200  0.015800  1.0
  N  N1352  1  0.274100  0.621800  0.484200  1.0
  N  N1353  1  0.725900  0.984200  0.378200  1.0
  N  N1354  1  0.725900  0.515800  0.121800  1.0
  N  N1355  1  0.725900  0.121800  0.984200  1.0
  N  N1356  1  0.725900  0.378200  0.515800  1.0
  N  N1357  1  0.272100  0.995300  0.594700  1.0
  N  N1358  1  0.272100  0.504700  0.905300  1.0
  N  N1359  1  0.272100  0.905300  0.995300  1.0
  N  N1360  1  0.272100  0.594700  0.504700  1.0
  N  N1361  1  0.727900  0.004700  0.405300  1.0
  N  N1362  1  0.727900  0.495300  0.094700  1.0
  N  N1363  1  0.727900  0.094700  0.004700  1.0
  N  N1364  1  0.727900  0.405300  0.495300  1.0
  N  N1365  1  0.837600  0.103000  0.648800  1.0
  N  N1366  1  0.837600  0.397000  0.851200  1.0
  N  N1367  1  0.837600  0.851200  0.103000  1.0
  N  N1368  1  0.837600  0.648800  0.397000  1.0
  N  N1369  1  0.162400  0.897000  0.351200  1.0
  N  N1370  1  0.162400  0.603000  0.148800  1.0
  N  N1371  1  0.162400  0.148800  0.897000  1.0
  N  N1372  1  0.162400  0.351200  0.603000  1.0
  N  N1373  1  0.807400  0.046100  0.627700  1.0
  N  N1374  1  0.807400  0.453900  0.872300  1.0
  N  N1375  1  0.807400  0.872300  0.046100  1.0
  N  N1376  1  0.807400  0.627700  0.453900  1.0
  N  N1377  1  0.192600  0.953900  0.372300  1.0
  N  N1378  1  0.192600  0.546100  0.127700  1.0
  N  N1379  1  0.192600  0.127700  0.953900  1.0
  N  N1380  1  0.192600  0.372300  0.546100  1.0
  N  N1381  1  0.787500  0.017600  0.618500  1.0
  N  N1382  1  0.787500  0.482400  0.881500  1.0
  N  N1383  1  0.787500  0.881500  0.017600  1.0
  N  N1384  1  0.787500  0.618500  0.482400  1.0
  N  N1385  1  0.212500  0.982400  0.381500  1.0
  N  N1386  1  0.212500  0.517600  0.118500  1.0
  N  N1387  1  0.212500  0.118500  0.982400  1.0
  N  N1388  1  0.212500  0.381500  0.517600  1.0
  N  N1389  1  0.741800  0.026100  0.608500  1.0
  N  N1390  1  0.741800  0.473900  0.891500  1.0
  N  N1391  1  0.741800  0.891500  0.026100  1.0
  N  N1392  1  0.741800  0.608500  0.473900  1.0
  N  N1393  1  0.258200  0.973900  0.391500  1.0
  N  N1394  1  0.258200  0.526100  0.108500  1.0
  N  N1395  1  0.258200  0.108500  0.973900  1.0
  N  N1396  1  0.258200  0.391500  0.526100  1.0
  N  N1397  1  0.165000  0.083400  0.690500  1.0
  N  N1398  1  0.165000  0.416600  0.809500  1.0
  N  N1399  1  0.165000  0.809500  0.083400  1.0
  N  N1400  1  0.165000  0.690500  0.416600  1.0
  N  N1401  1  0.835000  0.916600  0.309500  1.0
  N  N1402  1  0.835000  0.583400  0.190500  1.0
  N  N1403  1  0.835000  0.190500  0.916600  1.0
  N  N1404  1  0.835000  0.309500  0.583400  1.0
  N  N1405  1  0.179400  0.021600  0.679200  1.0
  N  N1406  1  0.179400  0.478400  0.820800  1.0
  N  N1407  1  0.179400  0.820800  0.021600  1.0
  N  N1408  1  0.179400  0.679200  0.478400  1.0
  N  N1409  1  0.820600  0.978400  0.320800  1.0
  N  N1410  1  0.820600  0.521600  0.179200  1.0
  N  N1411  1  0.820600  0.179200  0.978400  1.0
  N  N1412  1  0.820600  0.320800  0.521600  1.0
  N  N1413  1  0.184400  0.989100  0.676000  1.0
  N  N1414  1  0.184400  0.510900  0.824000  1.0
  N  N1415  1  0.184400  0.824000  0.989100  1.0
  N  N1416  1  0.184400  0.676000  0.510900  1.0
  N  N1417  1  0.815600  0.010900  0.324000  1.0
  N  N1418  1  0.815600  0.489100  0.176000  1.0
  N  N1419  1  0.815600  0.176000  0.010900  1.0
  N  N1420  1  0.815600  0.324000  0.489100  1.0
  N  N1421  1  0.164000  0.975300  0.703500  1.0
  N  N1422  1  0.164000  0.524700  0.796500  1.0
  N  N1423  1  0.164000  0.796500  0.975300  1.0
  N  N1424  1  0.164000  0.703500  0.524700  1.0
  N  N1425  1  0.836000  0.024700  0.296500  1.0
  N  N1426  1  0.836000  0.475300  0.203500  1.0
  N  N1427  1  0.836000  0.203500  0.024700  1.0
  N  N1428  1  0.836000  0.296500  0.475300  1.0
  N  N1429  1  0.904800  0.609400  0.441600  1.0
  N  N1430  1  0.904800  0.890600  0.058400  1.0
  N  N1431  1  0.904800  0.058400  0.609400  1.0
  N  N1432  1  0.904800  0.441600  0.890600  1.0
  N  N1433  1  0.095200  0.390600  0.558400  1.0
  N  N1434  1  0.095200  0.109400  0.941600  1.0
  N  N1435  1  0.095200  0.941600  0.390600  1.0
  N  N1436  1  0.095200  0.558400  0.109400  1.0
  N  N1437  1  0.888200  0.651100  0.488400  1.0
  N  N1438  1  0.888200  0.848900  0.011600  1.0
  N  N1439  1  0.888200  0.011600  0.651100  1.0
  N  N1440  1  0.888200  0.488400  0.848900  1.0
  N  N1441  1  0.111800  0.348900  0.511600  1.0
  N  N1442  1  0.111800  0.151100  0.988400  1.0
  N  N1443  1  0.111800  0.988400  0.348900  1.0
  N  N1444  1  0.111800  0.511600  0.151100  1.0
  N  N1445  1  0.882800  0.671400  0.513800  1.0
  N  N1446  1  0.882800  0.828600  0.986200  1.0
  N  N1447  1  0.882800  0.986200  0.671400  1.0
  N  N1448  1  0.882800  0.513800  0.828600  1.0
  N  N1449  1  0.117200  0.328600  0.486200  1.0
  N  N1450  1  0.117200  0.171400  0.013800  1.0
  N  N1451  1  0.117200  0.013800  0.328600  1.0
  N  N1452  1  0.117200  0.486200  0.171400  1.0
  N  N1453  1  0.903200  0.655700  0.540400  1.0
  N  N1454  1  0.903200  0.844300  0.959600  1.0
  N  N1455  1  0.903200  0.959600  0.655700  1.0
  N  N1456  1  0.903200  0.540400  0.844300  1.0
  N  N1457  1  0.096800  0.344300  0.459600  1.0
  N  N1458  1  0.096800  0.155700  0.040400  1.0
  N  N1459  1  0.096800  0.040400  0.344300  1.0
  N  N1460  1  0.096800  0.459600  0.155700  1.0
  N  N1461  1  0.527100  0.905500  0.558000  1.0
  N  N1462  1  0.527100  0.594500  0.942000  1.0
  N  N1463  1  0.527100  0.942000  0.905500  1.0
  N  N1464  1  0.527100  0.558000  0.594500  1.0
  N  N1465  1  0.472900  0.094500  0.442000  1.0
  N  N1466  1  0.472900  0.405500  0.058000  1.0
  N  N1467  1  0.472900  0.058000  0.094500  1.0
  N  N1468  1  0.472900  0.442000  0.405500  1.0
  N  N1469  1  0.603300  0.865600  0.539400  1.0
  N  N1470  1  0.603300  0.634400  0.960600  1.0
  N  N1471  1  0.603300  0.960600  0.865600  1.0
  N  N1472  1  0.603300  0.539400  0.634400  1.0
  N  N1473  1  0.396700  0.134400  0.460600  1.0
  N  N1474  1  0.396700  0.365600  0.039400  1.0
  N  N1475  1  0.396700  0.039400  0.134400  1.0
  N  N1476  1  0.396700  0.460600  0.365600  1.0
  N  N1477  1  0.538700  0.818700  0.516000  1.0
  N  N1478  1  0.538700  0.681300  0.984000  1.0
  N  N1479  1  0.538700  0.984000  0.818700  1.0
  N  N1480  1  0.538700  0.516000  0.681300  1.0
  N  N1481  1  0.461300  0.181300  0.484000  1.0
  N  N1482  1  0.461300  0.318700  0.016000  1.0
  N  N1483  1  0.461300  0.016000  0.181300  1.0
  N  N1484  1  0.461300  0.484000  0.318700  1.0
  N  N1485  1  0.459300  0.859600  0.533000  1.0
  N  N1486  1  0.459300  0.640400  0.967000  1.0
  N  N1487  1  0.459300  0.967000  0.859600  1.0
  N  N1488  1  0.459300  0.533000  0.640400  1.0
  N  N1489  1  0.540700  0.140400  0.467000  1.0
  N  N1490  1  0.540700  0.359600  0.033000  1.0
  N  N1491  1  0.540700  0.033000  0.140400  1.0
  N  N1492  1  0.540700  0.467000  0.359600  1.0
  N  N1493  1  0.903000  0.704600  0.730700  1.0
  N  N1494  1  0.903000  0.795400  0.769300  1.0
  N  N1495  1  0.903000  0.769300  0.704600  1.0
  N  N1496  1  0.903000  0.730700  0.795400  1.0
  N  N1497  1  0.097000  0.295400  0.269300  1.0
  N  N1498  1  0.097000  0.204600  0.230700  1.0
  N  N1499  1  0.097000  0.230700  0.295400  1.0
  N  N1500  1  0.097000  0.269300  0.204600  1.0
  N  N1501  1  0.168300  0.776900  0.708000  1.0
  N  N1502  1  0.168300  0.723100  0.792000  1.0
  N  N1503  1  0.168300  0.792000  0.776900  1.0
  N  N1504  1  0.168300  0.708000  0.723100  1.0
  N  N1505  1  0.831700  0.223100  0.292000  1.0
  N  N1506  1  0.831700  0.276900  0.208000  1.0
  N  N1507  1  0.831700  0.208000  0.223100  1.0
  N  N1508  1  0.831700  0.292000  0.276900  1.0
  O  O1509  1  0.954900  0.189100  0.610900  1
  O  O1510  1  0.954900  0.310900  0.889100  1
  O  O1511  1  0.954900  0.889100  0.189100  1
  O  O1512  1  0.954900  0.610900  0.310900  1
  O  O1513  1  0.045100  0.810900  0.389100  1
  O  O1514  1  0.045100  0.689100  0.110900  1
  O  O1515  1  0.045100  0.110900  0.810900  1
  O  O1516  1  0.045100  0.389100  0.689100  1
  O  O1517  1  0.007000  0.140700  0.629000  1
  O  O1518  1  0.007000  0.359300  0.871000  1
  O  O1519  1  0.007000  0.871000  0.140700  1
  O  O1520  1  0.007000  0.629000  0.359300  1
  O  O1521  1  0.993000  0.859300  0.371000  1
  O  O1522  1  0.993000  0.640700  0.129000  1
  O  O1523  1  0.993000  0.129000  0.859300  1
  O  O1524  1  0.993000  0.371000  0.640700  1
  O  O1525  1  0.098700  0.154900  0.638200  1
  O  O1526  1  0.098700  0.345100  0.861800  1
  O  O1527  1  0.098700  0.861800  0.154900  1
  O  O1528  1  0.098700  0.638200  0.345100  1
  O  O1529  1  0.901300  0.845100  0.361800  1
  O  O1530  1  0.901300  0.654900  0.138200  1
  O  O1531  1  0.901300  0.138200  0.845100  1
  O  O1532  1  0.901300  0.361800  0.654900  1
  O  O1533  1  0.121900  0.190000  0.587300  1
  O  O1534  1  0.121900  0.310000  0.912700  1
  O  O1535  1  0.121900  0.912700  0.190000  1
  O  O1536  1  0.121900  0.587300  0.310000  1
  O  O1537  1  0.878100  0.810000  0.412700  1
  O  O1538  1  0.878100  0.690000  0.087300  1
  O  O1539  1  0.878100  0.087300  0.810000  1
  O  O1540  1  0.878100  0.412700  0.690000  1
  F  F1541  1  0.032100  0.176100  0.692800  1
  F  F1542  1  0.032100  0.323900  0.807200  1
  F  F1543  1  0.032100  0.807200  0.176100  1
  F  F1544  1  0.032100  0.692800  0.323900  1
  F  F1545  1  0.967900  0.823900  0.307200  1
  F  F1546  1  0.967900  0.676100  0.192800  1
  F  F1547  1  0.967900  0.192800  0.823900  1
  F  F1548  1  0.967900  0.307200  0.676100  1
  F  F1549  1  0.989300  0.217600  0.678600  1
  F  F1550  1  0.989300  0.282400  0.821400  1
  F  F1551  1  0.989300  0.821400  0.217600  1
  F  F1552  1  0.989300  0.678600  0.282400  1
  F  F1553  1  0.010700  0.782400  0.321400  1
  F  F1554  1  0.010700  0.717600  0.178600  1
  F  F1555  1  0.010700  0.178600  0.782400  1
  F  F1556  1  0.010700  0.321400  0.717600  1
  F  F1557  1  0.959300  0.171800  0.692200  1
  F  F1558  1  0.959300  0.328200  0.807800  1
  F  F1559  1  0.959300  0.807800  0.171800  1
  F  F1560  1  0.959300  0.692200  0.328200  1
  F  F1561  1  0.040700  0.828200  0.307800  1
  F  F1562  1  0.040700  0.671800  0.192200  1
  F  F1563  1  0.040700  0.192200  0.828200  1
  F  F1564  1  0.040700  0.307800  0.671800  1
  F  F1565  1  0.180700  0.214500  0.647500  1
  F  F1566  1  0.180700  0.285500  0.852500  1
  F  F1567  1  0.180700  0.852500  0.214500  1
  F  F1568  1  0.180700  0.647500  0.285500  1
  F  F1569  1  0.819300  0.785500  0.352500  1
  F  F1570  1  0.819300  0.714500  0.147500  1
  F  F1571  1  0.819300  0.147500  0.785500  1
  F  F1572  1  0.819300  0.352500  0.714500  1
  F  F1573  1  0.116300  0.213000  0.679000  1
  F  F1574  1  0.116300  0.287000  0.821000  1
  F  F1575  1  0.116300  0.821000  0.213000  1
  F  F1576  1  0.116300  0.679000  0.287000  1
  F  F1577  1  0.883700  0.787000  0.321000  1
  F  F1578  1  0.883700  0.713000  0.179000  1
  F  F1579  1  0.883700  0.179000  0.787000  1
  F  F1580  1  0.883700  0.321000  0.713000  1
  F  F1581  1  0.123900  0.246400  0.638800  1
  F  F1582  1  0.123900  0.253600  0.861200  1
  F  F1583  1  0.123900  0.861200  0.246400  1
  F  F1584  1  0.123900  0.638800  0.253600  1
  F  F1585  1  0.876100  0.753600  0.361200  1
  F  F1586  1  0.876100  0.746400  0.138800  1
  F  F1587  1  0.876100  0.138800  0.753600  1
  F  F1588  1  0.876100  0.361200  0.746400  1
  F  F1589  1  0.747500  0.720400  0.529400  1.0
  F  F1590  1  0.747500  0.779600  0.970600  1.0
  F  F1591  1  0.747500  0.970600  0.720400  1.0
  F  F1592  1  0.747500  0.529400  0.779600  1.0
  F  F1593  1  0.252500  0.279600  0.470600  1.0
  F  F1594  1  0.252500  0.220400  0.029400  1.0
  F  F1595  1  0.252500  0.029400  0.279600  1.0
  F  F1596  1  0.252500  0.470600  0.220400  1.0
  F  F1597  1  0.672600  0.758000  0.552900  1.0
  F  F1598  1  0.672600  0.742000  0.947100  1.0
  F  F1599  1  0.672600  0.947100  0.758000  1.0
  F  F1600  1  0.672600  0.552900  0.742000  1.0
  F  F1601  1  0.327400  0.242000  0.447100  1.0
  F  F1602  1  0.327400  0.258000  0.052900  1.0
  F  F1603  1  0.327400  0.052900  0.242000  1.0
  F  F1604  1  0.327400  0.447100  0.258000  1.0
  F  F1605  1  0.668900  0.816500  0.452100  1.0
  F  F1606  1  0.668900  0.683500  0.047900  1.0
  F  F1607  1  0.668900  0.047900  0.816500  1.0
  F  F1608  1  0.668900  0.452100  0.683500  1.0
  F  F1609  1  0.331100  0.183500  0.547900  1.0
  F  F1610  1  0.331100  0.316500  0.952100  1.0
  F  F1611  1  0.331100  0.952100  0.183500  1.0
  F  F1612  1  0.331100  0.547900  0.316500  1.0
  F  F1613  1  0.743000  0.778600  0.428600  1.0
  F  F1614  1  0.743000  0.721400  0.071400  1.0
  F  F1615  1  0.743000  0.071400  0.778600  1.0
  F  F1616  1  0.743000  0.428600  0.721400  1.0
  F  F1617  1  0.257000  0.221400  0.571400  1.0
  F  F1618  1  0.257000  0.278600  0.928600  1.0
  F  F1619  1  0.257000  0.928600  0.221400  1.0
  F  F1620  1  0.257000  0.571400  0.278600  1.0
  F  F1621  1  0.373100  0.757500  0.407700  1.0
  F  F1622  1  0.373100  0.742500  0.092300  1.0
  F  F1623  1  0.373100  0.092300  0.757500  1.0
  F  F1624  1  0.373100  0.407700  0.742500  1.0
  F  F1625  1  0.626900  0.242500  0.592300  1.0
  F  F1626  1  0.626900  0.257500  0.907700  1.0
  F  F1627  1  0.626900  0.907700  0.242500  1.0
  F  F1628  1  0.626900  0.592300  0.257500  1.0
  F  F1629  1  0.438200  0.799800  0.435900  1.0
  F  F1630  1  0.438200  0.700200  0.064100  1.0
  F  F1631  1  0.438200  0.064100  0.799800  1.0
  F  F1632  1  0.438200  0.435900  0.700200  1.0
  F  F1633  1  0.561800  0.200200  0.564100  1.0
  F  F1634  1  0.561800  0.299800  0.935900  1.0
  F  F1635  1  0.561800  0.935900  0.200200  1.0
  F  F1636  1  0.561800  0.564100  0.299800  1.0
  F  F1637  1  0.398600  0.756700  0.541500  1.0
  F  F1638  1  0.398600  0.743300  0.958500  1.0
  F  F1639  1  0.398600  0.958500  0.756700  1.0
  F  F1640  1  0.398600  0.541500  0.743300  1.0
  F  F1641  1  0.601400  0.243300  0.458500  1.0
  F  F1642  1  0.601400  0.256700  0.041500  1.0
  F  F1643  1  0.601400  0.041500  0.243300  1.0
  F  F1644  1  0.601400  0.458500  0.256700  1.0
  F  F1645  1  0.340100  0.711300  0.513600  1.0
  F  F1646  1  0.340100  0.788700  0.986400  1.0
  F  F1647  1  0.340100  0.986400  0.711300  1.0
  F  F1648  1  0.340100  0.513600  0.788700  1.0
  F  F1649  1  0.659900  0.288700  0.486400  1.0
  F  F1650  1  0.659900  0.211300  0.013600  1.0
  F  F1651  1  0.659900  0.013600  0.288700  1.0
  F  F1652  1  0.659900  0.486400  0.211300  1.0
  F  F1653  1  0.309900  0.994400  0.530500  1.0
  F  F1654  1  0.309900  0.505600  0.969500  1.0
  F  F1655  1  0.309900  0.969500  0.994400  1.0
  F  F1656  1  0.309900  0.530500  0.505600  1.0
  F  F1657  1  0.690100  0.005600  0.469500  1.0
  F  F1658  1  0.690100  0.494400  0.030500  1.0
  F  F1659  1  0.690100  0.030500  0.005600  1.0
  F  F1660  1  0.690100  0.469500  0.494400  1.0
  F  F1661  1  0.388800  0.955600  0.514800  1.0
  F  F1662  1  0.388800  0.544400  0.985200  1.0
  F  F1663  1  0.388800  0.985200  0.955600  1.0
  F  F1664  1  0.388800  0.514800  0.544400  1.0
  F  F1665  1  0.611200  0.044400  0.485200  1.0
  F  F1666  1  0.611200  0.455600  0.014800  1.0
  F  F1667  1  0.611200  0.014800  0.044400  1.0
  F  F1668  1  0.611200  0.485200  0.455600  1.0
  F  F1669  1  0.398000  0.917500  0.625400  1.0
  F  F1670  1  0.398000  0.582500  0.874600  1.0
  F  F1671  1  0.398000  0.874600  0.917500  1.0
  F  F1672  1  0.398000  0.625400  0.582500  1.0
  F  F1673  1  0.602000  0.082500  0.374600  1.0
  F  F1674  1  0.602000  0.417500  0.125400  1.0
  F  F1675  1  0.602000  0.125400  0.082500  1.0
  F  F1676  1  0.602000  0.374600  0.417500  1.0
  F  F1677  1  0.321500  0.954800  0.641900  1.0
  F  F1678  1  0.321500  0.545200  0.858100  1.0
  F  F1679  1  0.321500  0.858100  0.954800  1.0
  F  F1680  1  0.321500  0.641900  0.545200  1.0
  F  F1681  1  0.678500  0.045200  0.358100  1.0
  F  F1682  1  0.678500  0.454800  0.141900  1.0
  F  F1683  1  0.678500  0.141900  0.045200  1.0
  F  F1684  1  0.678500  0.358100  0.454800  1.0
  F  F1685  1  0.690800  0.030300  0.548600  1.0
  F  F1686  1  0.690800  0.469700  0.951400  1.0
  F  F1687  1  0.690800  0.951400  0.030300  1.0
  F  F1688  1  0.690800  0.548600  0.469700  1.0
  F  F1689  1  0.309200  0.969700  0.451400  1.0
  F  F1690  1  0.309200  0.530300  0.048600  1.0
  F  F1691  1  0.309200  0.048600  0.969700  1.0
  F  F1692  1  0.309200  0.451400  0.530300  1.0
  F  F1693  1  0.629600  0.980800  0.528700  1.0
  F  F1694  1  0.629600  0.519200  0.971300  1.0
  F  F1695  1  0.629600  0.971300  0.980800  1.0
  F  F1696  1  0.629600  0.528700  0.519200  1.0
  F  F1697  1  0.370400  0.019200  0.471300  1.0
  F  F1698  1  0.370400  0.480800  0.028700  1.0
  F  F1699  1  0.370400  0.028700  0.019200  1.0
  F  F1700  1  0.370400  0.471300  0.480800  1.0
  F  F1701  1  0.668600  0.917200  0.623400  1.0
  F  F1702  1  0.668600  0.582800  0.876600  1.0
  F  F1703  1  0.668600  0.876600  0.917200  1.0
  F  F1704  1  0.668600  0.623400  0.582800  1.0
  F  F1705  1  0.331400  0.082800  0.376600  1.0
  F  F1706  1  0.331400  0.417200  0.123400  1.0
  F  F1707  1  0.331400  0.123400  0.082800  1.0
  F  F1708  1  0.331400  0.376600  0.417200  1.0
  F  F1709  1  0.728200  0.967200  0.645200  1.0
  F  F1710  1  0.728200  0.532800  0.854800  1.0
  F  F1711  1  0.728200  0.854800  0.967200  1.0
  F  F1712  1  0.728200  0.645200  0.532800  1.0
  F  F1713  1  0.271800  0.032800  0.354800  1.0
  F  F1714  1  0.271800  0.467200  0.145200  1.0
  F  F1715  1  0.271800  0.145200  0.032800  1.0
  F  F1716  1  0.271800  0.354800  0.467200  1.0
  F  F1717  1  0.250200  0.938700  0.703100  1.0
  F  F1718  1  0.250200  0.561300  0.796900  1.0
  F  F1719  1  0.250200  0.796900  0.938700  1.0
  F  F1720  1  0.250200  0.703100  0.561300  1.0
  F  F1721  1  0.749800  0.061300  0.296900  1.0
  F  F1722  1  0.749800  0.438700  0.203100  1.0
  F  F1723  1  0.749800  0.203100  0.061300  1.0
  F  F1724  1  0.749800  0.296900  0.438700  1.0
  F  F1725  1  0.252200  0.871200  0.713500  1.0
  F  F1726  1  0.252200  0.628800  0.786500  1.0
  F  F1727  1  0.252200  0.786500  0.871200  1.0
  F  F1728  1  0.252200  0.713500  0.628800  1.0
  F  F1729  1  0.747800  0.128800  0.286500  1.0
  F  F1730  1  0.747800  0.371200  0.213500  1.0
  F  F1731  1  0.747800  0.213500  0.128800  1.0
  F  F1732  1  0.747800  0.286500  0.371200  1.0
  F  F1733  1  0.082400  0.873100  0.729000  1.0
  F  F1734  1  0.082400  0.626900  0.771000  1.0
  F  F1735  1  0.082400  0.771000  0.873100  1.0
  F  F1736  1  0.082400  0.729000  0.626900  1.0
  F  F1737  1  0.917600  0.126900  0.271000  1.0
  F  F1738  1  0.917600  0.373100  0.229000  1.0
  F  F1739  1  0.917600  0.229000  0.126900  1.0
  F  F1740  1  0.917600  0.271000  0.373100  1.0
  F  F1741  1  0.080100  0.938200  0.718200  1.0
  F  F1742  1  0.080100  0.561800  0.781800  1.0
  F  F1743  1  0.080100  0.781800  0.938200  1.0
  F  F1744  1  0.080100  0.718200  0.561800  1.0
  F  F1745  1  0.919900  0.061800  0.281800  1.0
  F  F1746  1  0.919900  0.438200  0.218200  1.0
  F  F1747  1  0.919900  0.218200  0.061800  1.0
  F  F1748  1  0.919900  0.281800  0.438200  1.0
  F  F1749  1  0.817400  0.678100  0.570600  1.0
  F  F1750  1  0.817400  0.821900  0.929400  1.0
  F  F1751  1  0.817400  0.929400  0.678100  1.0
  F  F1752  1  0.817400  0.570600  0.821900  1.0
  F  F1753  1  0.182600  0.321900  0.429400  1.0
  F  F1754  1  0.182600  0.178100  0.070600  1.0
  F  F1755  1  0.182600  0.070600  0.321900  1.0
  F  F1756  1  0.182600  0.429400  0.178100  1.0
  F  F1757  1  0.818000  0.705000  0.632600  1.0
  F  F1758  1  0.818000  0.795000  0.867400  1.0
  F  F1759  1  0.818000  0.867400  0.705000  1.0
  F  F1760  1  0.818000  0.632600  0.795000  1.0
  F  F1761  1  0.182000  0.295000  0.367400  1.0
  F  F1762  1  0.182000  0.205000  0.132600  1.0
  F  F1763  1  0.182000  0.132600  0.295000  1.0
  F  F1764  1  0.182000  0.367400  0.205000  1.0
  F  F1765  1  0.987300  0.695000  0.637500  1.0
  F  F1766  1  0.987300  0.805000  0.862500  1.0
  F  F1767  1  0.987300  0.862500  0.695000  1.0
  F  F1768  1  0.987300  0.637500  0.805000  1.0
  F  F1769  1  0.012700  0.305000  0.362500  1.0
  F  F1770  1  0.012700  0.195000  0.137500  1.0
  F  F1771  1  0.012700  0.137500  0.305000  1.0
  F  F1772  1  0.012700  0.362500  0.195000  1.0
  F  F1773  1  0.988100  0.668400  0.576100  1.0
  F  F1774  1  0.988100  0.831600  0.923900  1.0
  F  F1775  1  0.988100  0.923900  0.668400  1.0
  F  F1776  1  0.988100  0.576100  0.831600  1.0
  F  F1777  1  0.011900  0.331600  0.423900  1.0
  F  F1778  1  0.011900  0.168400  0.076100  1.0
  F  F1779  1  0.011900  0.076100  0.331600  1.0
  F  F1780  1  0.011900  0.423900  0.168400  1.0
