
#######################################################################
#
#                 Cambridge Crystallographic Data Centre
#                                CCDC 
#
#######################################################################
#
# If this CIF has been generated from an entry in the Cambridge 
# Structural Database, then it will include bibliographic, chemical, 
# crystal, experimental, refinement or atomic coordinate data resulting 
# from the CCDC's data processing and validation procedures.
#
#######################################################################

data_PAHVEC
_chemical_formula_moiety         
'C432 H168 F96 Fe8 N120 Ni6 16+,16(C2 F6 N1 O4 S2 1-)'
_chemical_name_systematic        
'hexakis(\m-5,10,15,20-tetrakis(2,3,5,6-tetrafluoro-4-(4-(pyridin-2-yl)-1H-1,2,3-triazol-1-yl)phenyl)porphyrinato)-octa-iron-hexa-nickel hexadecakis(bis((trifluoromethyl)sulfonyl)azanide)'
_symmetry_cell_setting           tetragonal
_symmetry_space_group_name_H-M   'P 4/n'
_symmetry_Int_Tables_number      85
_space_group_name_Hall           '-P 4a'
loop_
_symmetry_equiv_pos_site_id
_symmetry_equiv_pos_as_xyz
1 x,y,z
2 1/2-x,1/2-y,z
3 1/2-y,x,z
4 y,1/2-x,z
5 -x,-y,-z
6 1/2+x,1/2+y,-z
7 1/2+y,-x,-z
8 -y,1/2+x,-z
_cell_length_a                   39.8773(3)
_cell_length_b                   39.8773(3)
_cell_length_c                   27.4426(4)
_cell_angle_alpha                90
_cell_angle_beta                 90
_cell_angle_gamma                90
_cell_volume                     43639.2
_exptl_crystal_colour            'dark pink'
_exptl_crystal_description       needle
_cell_formula_units_Z            2
loop_
_atom_site_label
_atom_site_type_symbol
_atom_site_fract_x
_atom_site_fract_y
_atom_site_fract_z
Fe1 Fe 0.65175(6) 0.44288(6) 0.86636(8)
Fe2 Fe 1.05976(6) 0.65510(6) 0.20129(8)
Ni1 Ni 0.86241(5) 0.53677(6) 0.53229(6)
Ni2 Ni 0.7500 0.7500 0.90246(15)
Ni3 Ni 0.7500 0.7500 0.16884(15)
N1 N 0.6820(3) 0.4288(3) 0.9195(4)
N2 N 0.6936(3) 0.4507(3) 0.8339(4)
N3 N 0.7010(3) 0.4639(3) 0.7907(4)
N4 N 0.7350(3) 0.4669(3) 0.7925(4)
C1 C 0.6738(4) 0.4158(4) 0.9634(5)
H1 H 0.6508 0.4127 0.9709
C2 C 0.6973(4) 0.4068(5) 0.9976(6)
H2 H 0.6905 0.3981 1.0283
C3 C 0.7304(4) 0.4106(5) 0.9871(6)
H3 H 0.7470 0.4041 1.0101
C4 C 0.7397(4) 0.4237(5) 0.9435(5)
H4 H 0.7627 0.4266 0.9359
C5 C 0.7149(3) 0.4329(4) 0.9100(5)
C6 C 0.7218(3) 0.4474(4) 0.8614(4)
C7 C 0.7484(3) 0.4581(4) 0.8355(5)
H5 H 0.7712 0.4591 0.8453
C8 C 0.7520(4) 0.4799(3) 0.7498(5)
C9 C 0.7456(4) 0.5111(4) 0.7297(5)
C10 C 0.7657(4) 0.5223(4) 0.6915(6)
C11 C 0.7894(3) 0.5033(3) 0.6692(5)
C12 C 0.7938(4) 0.4723(4) 0.6894(6)
C13 C 0.7754(4) 0.4602(4) 0.7269(6)
F1 F 0.7204(3) 0.5294(3) 0.7475(5)
F2 F 0.7580(3) 0.5529(3) 0.6726(5)
F3 F 0.8165(4) 0.4521(3) 0.6689(5)
F4 F 0.7786(4) 0.4286(3) 0.7430(5)
N5 N 0.6360(3) 0.3984(2) 0.2300(4)
N6 N 0.6813(3) 0.4385(3) 0.2593(4)
N7 N 0.7045(3) 0.4570(3) 0.2790(4)
N8 N 0.7100(3) 0.4448(3) 0.3243(4)
C14 C 0.6131(4) 0.3774(4) 0.2111(5)
H6 H 0.6025 0.3835 0.1814
C15 C 0.6040(5) 0.3474(4) 0.2325(6)
H7 H 0.5899 0.3319 0.2160
C16 C 0.6161(5) 0.3404(3) 0.2784(5)
H8 H 0.6086 0.3211 0.2955
C17 C 0.6391(4) 0.3619(4) 0.2994(4)
H9 H 0.6474 0.3578 0.3313
C18 C 0.6500(4) 0.3896(3) 0.2729(5)
C19 C 0.6746(4) 0.4133(4) 0.2919(5)
C20 C 0.6915(4) 0.4176(4) 0.3343(5)
H10 H 0.6905 0.4048 0.3635
C21 C 0.7338(4) 0.4604(3) 0.3564(5)
C22 C 0.7582(5) 0.4410(4) 0.3800(7)
C23 C 0.7807(5) 0.4570(4) 0.4111(8)
C24 C 0.7806(4) 0.4908(4) 0.4192(6)
C25 C 0.7571(4) 0.5082(4) 0.3929(6)
C26 C 0.7340(4) 0.4947(4) 0.3627(6)
F5 F 0.7575(4) 0.4077(3) 0.3731(6)
F6 F 0.7998(4) 0.4359(3) 0.4382(6)
F7 F 0.7567(3) 0.5415(3) 0.3986(5)
F8 F 0.7113(3) 0.5136(3) 0.3401(4)
N9 N 1.0562(3) 0.6216(3) 0.1462(4)
N10 N 1.0313(3) 0.6224(3) 0.2314(4)
N11 N 1.0158(3) 0.6218(3) 0.2741(4)
N12 N 0.9953(3) 0.5947(3) 0.2721(4)
C27 C 1.0726(4) 0.6219(4) 0.1033(5)
H11 H 1.0879 0.6396 0.0968
C28 C 1.0679(5) 0.5976(4) 0.0689(6)
H12 H 1.0796 0.5988 0.0388
C29 C 1.0467(5) 0.5718(5) 0.0775(6)
H13 H 1.0422 0.5558 0.0527
C30 C 1.0313(5) 0.5688(4) 0.1229(5)
H14 H 1.0176 0.5501 0.1307
C31 C 1.0369(4) 0.5946(4) 0.1563(5)
C32 C 1.0202(4) 0.5958(3) 0.2039(4)
C33 C 0.9970(4) 0.5781(4) 0.2297(5)
H15 H 0.9850 0.5587 0.2200
C34 C 0.9754(4) 0.5864(3) 0.3146(5)
C35 C 0.9752(4) 0.5536(4) 0.3319(6)
C36 C 0.9556(4) 0.5469(4) 0.3724(6)
C37 C 0.9349(4) 0.5701(3) 0.3944(5)
C38 C 0.9369(4) 0.6019(3) 0.3767(5)
C39 C 0.9552(4) 0.6103(4) 0.3370(5)
F9 F 0.9944(3) 0.5305(2) 0.3099(4)
F10 F 0.9556(3) 0.5148(2) 0.3888(4)
F11 F 0.9175(3) 0.6254(2) 0.3980(4)
F12 F 0.9548(3) 0.6419(2) 0.3215(4)
N13 N 1.1030(2) 0.6488(4) 0.8376(4)
N14 N 1.0461(3) 0.6277(3) 0.8074(4)
N15 N 1.0176(3) 0.6185(3) 0.7875(4)
N16 N 1.0261(3) 0.6085(3) 0.7418(4)
C40 C 1.1322(3) 0.6586(5) 0.8574(5)
H16 H 1.1317 0.6688 0.8887
C41 C 1.1629(2) 0.6549(6) 0.8348(6)
H17 H 1.1829 0.6632 0.8493
C42 C 1.1637(2) 0.6386(7) 0.7906(7)
H18 H 1.1846 0.6324 0.7764
C43 C 1.1339(3) 0.6314(6) 0.7671(5)
H19 H 1.1337 0.6245 0.7339
C44 C 1.1041(2) 0.6343(5) 0.7932(5)
C45 C 1.0714(3) 0.6240(4) 0.7738(5)
C46 C 1.0588(3) 0.6097(4) 0.7327(5)
H20 H 1.0705 0.6024 0.7045
C47 C 0.9992(3) 0.5969(3) 0.7108(5)
C48 C 1.0021(3) 0.5667(3) 0.6861(5)
C49 C 0.9769(4) 0.5583(4) 0.6534(6)
C50 C 0.9477(3) 0.5766(3) 0.6472(5)
C51 C 0.9455(4) 0.6054(4) 0.6742(6)
C52 C 0.9702(3) 0.6159(4) 0.7047(6)
F13 F 1.0303(3) 0.5486(3) 0.6908(4)
F14 F 0.9808(3) 0.5287(3) 0.6296(4)
F15 F 0.9172(2) 0.6234(3) 0.6686(4)
F16 F 0.9672(3) 0.6452(3) 0.7282(4)
N17 N 1.0834(3) 0.6905(2) 0.1650(4)
N18 N 1.0216(3) 0.6792(3) 0.1794(4)
N19 N 0.9891(3) 0.6760(3) 0.1844(4)
N20 N 0.9753(3) 0.7035(3) 0.1640(4)
C53 C 1.1167(2) 0.6940(3) 0.1584(6)
H21 H 1.1310 0.6767 0.1703
C54 C 1.1312(2) 0.7210(4) 0.1354(6)
H22 H 1.1548 0.7222 0.1307
C55 C 1.1105(3) 0.7463(3) 0.1192(6)
H23 H 1.1198 0.7657 0.1043
C56 C 1.0763(3) 0.7434(3) 0.1249(5)
H24 H 1.0617 0.7609 0.1147
C57 C 1.0634(2) 0.7143(3) 0.1456(5)
C58 C 1.0279(3) 0.7087(3) 0.1550(5)
C59 C 0.9984(3) 0.7249(3) 0.1458(5)
H25 H 0.9949 0.7460 0.1305
C60 C 0.9395(3) 0.7086(4) 0.1651(5)
C61 C 0.9222(3) 0.7097(5) 0.2092(5)
C62 C 0.8875(3) 0.7156(5) 0.2083(5)
C63 C 0.8698(3) 0.7217(4) 0.1663(5)
C64 C 0.8884(3) 0.7220(5) 0.1248(5)
C65 C 0.9214(3) 0.7151(5) 0.1228(5)
F17 F 0.9387(2) 0.7031(3) 0.2502(3)
F18 F 0.8712(3) 0.7135(4) 0.2522(4)
F19 F 0.8731(3) 0.7290(4) 0.0824(4)
F20 F 0.9382(3) 0.7182(4) 0.0801(4)
N21 N 0.6094(2) 0.4416(3) 0.9048(4)
N22 N 0.6511(3) 0.4884(3) 0.8882(4)
N23 N 0.6714(3) 0.5138(3) 0.8828(4)
N24 N 0.6557(3) 0.5404(3) 0.9032(4)
C66 C 0.5881(3) 0.4157(2) 0.9101(6)
H26 H 0.5946 0.3945 0.8974
C67 C 0.5574(3) 0.4181(3) 0.9330(7)
H27 H 0.5439 0.3989 0.9382
C68 C 0.5469(3) 0.4493(4) 0.9480(7)
H28 H 0.5249 0.4524 0.9603
C69 C 0.5687(3) 0.4762(3) 0.9450(6)
H29 H 0.5631 0.4971 0.9593
C70 C 0.5990(3) 0.4719(3) 0.9206(6)
C71 C 0.6231(3) 0.4988(3) 0.9122(5)
C72 C 0.6263(3) 0.5322(3) 0.9219(5)
H30 H 0.6109 0.5464 0.9384
C73 C 0.6724(4) 0.5722(3) 0.9028(5)
C74 C 0.6829(4) 0.5868(3) 0.8596(5)
C75 C 0.6964(4) 0.6191(4) 0.8616(5)
C76 C 0.7006(4) 0.6368(3) 0.9035(5)
C77 C 0.6914(5) 0.6208(4) 0.9456(5)
C78 C 0.6769(4) 0.5905(4) 0.9460(5)
F21 F 0.6781(3) 0.5706(2) 0.8174(3)
F22 F 0.7050(3) 0.6326(3) 0.8180(4)
F23 F 0.6950(4) 0.6375(3) 0.9873(4)
F24 F 0.6684(4) 0.5761(3) 0.9881(4)
C79 C 0.8109(3) 0.5147(4) 0.6284(5)
C80 C 0.8427(3) 0.5275(4) 0.6375(5)
C81 C 0.8550(5) 0.5335(5) 0.6864(6)
H31 H 0.8439 0.5282 0.7161
C82 C 0.8848(5) 0.5479(5) 0.6816(5)
H32 H 0.8988 0.5553 0.7075
C83 C 0.8924(3) 0.5504(4) 0.6300(5)
C84 C 0.9214(3) 0.5646(4) 0.6125(4)
C85 C 0.9279(4) 0.5680(4) 0.5627(4)
C86 C 0.9579(4) 0.5828(4) 0.5427(5)
H33 H 0.9759 0.5919 0.5611
C87 C 0.9562(4) 0.5816(4) 0.4933(5)
H34 H 0.9721 0.5892 0.4701
C88 C 0.9235(4) 0.5655(4) 0.4846(5)
C89 C 0.9127(4) 0.5594(4) 0.4370(5)
C90 C 0.8819(4) 0.5442(4) 0.4255(5)
C91 C 0.8708(4) 0.5367(4) 0.3762(5)
H35 H 0.8819 0.5428 0.3468
C92 C 0.8425(4) 0.5199(5) 0.3802(5)
H36 H 0.8299 0.5105 0.3542
C93 C 0.8340(4) 0.5185(5) 0.4319(5)
C94 C 0.8056(4) 0.5048(5) 0.4525(6)
C95 C 0.7979(4) 0.5044(5) 0.5021(6)
C96 C 0.7670(5) 0.4901(5) 0.5218(6)
H37 H 0.7487 0.4813 0.5039
C97 C 0.7697(4) 0.4920(5) 0.5699(6)
H38 H 0.7537 0.4842 0.5929
C98 C 0.8005(4) 0.5076(4) 0.5810(5)
C99 C 0.7165(4) 0.6717(4) 0.9023(6)
C100 C 0.6941(4) 0.6980(4) 0.9024(6)
C101 C 0.6583(4) 0.6944(4) 0.9019(6)
H39 H 0.6462 0.6739 0.9021
C102 C 0.6453(4) 0.7255(4) 0.9011(6)
H40 H 0.6222 0.7315 0.8998
C103 C 0.6741(4) 0.7484(4) 0.9025(6)
C104 C 0.8337(4) 0.7305(4) 0.1673(6)
C105 C 0.8109(4) 0.7042(4) 0.1671(6)
C106 C 0.8191(4) 0.6690(4) 0.1704(7)
H41 H 0.8410 0.6597 0.1735
C107 C 0.7899(4) 0.6514(4) 0.1683(7)
H42 H 0.7876 0.6277 0.1673
C108 C 0.7635(4) 0.6750(4) 0.1678(6)
N25 N 0.9055(3) 0.5580(3) 0.5271(4)
N26 N 0.8656(3) 0.5394(3) 0.6033(4)
N27 N 0.8187(3) 0.5160(4) 0.5387(4)
N28 N 0.8596(3) 0.5330(3) 0.4593(4)
N29 N 0.7046(3) 0.7307(3) 0.9030(4)
N30 N 0.7769(3) 0.7080(3) 0.1683(4)
N17B N 0.8095(2) 1.0834(3) 0.1650(4)
N18B N 0.8208(3) 1.0216(3) 0.1794(4)
N19B N 0.8240(3) 0.9891(3) 0.1844(4)
N20B N 0.7965(3) 0.9753(3) 0.1640(4)
C53B C 0.8060(3) 1.1167(2) 0.1584(6)
H21B H 0.8233 1.1310 0.1703
C54B C 0.7790(4) 1.1312(2) 0.1354(6)
H22B H 0.7778 1.1548 0.1307
C55B C 0.7537(3) 1.1105(3) 0.1192(6)
H23B H 0.7343 1.1198 0.1043
C56B C 0.7566(3) 1.0763(3) 0.1249(5)
H24B H 0.7391 1.0617 0.1147
C57B C 0.7857(3) 1.0634(2) 0.1456(5)
C58B C 0.7913(3) 1.0279(3) 0.1550(5)
C59B C 0.7751(3) 0.9984(3) 0.1458(5)
H25B H 0.7540 0.9949 0.1305
C60B C 0.7914(4) 0.9395(3) 0.1651(5)
C61B C 0.7903(5) 0.9222(3) 0.2092(5)
C62B C 0.7844(5) 0.8875(3) 0.2083(5)
C63B C 0.7783(4) 0.8698(3) 0.1663(5)
C64B C 0.7780(5) 0.8884(3) 0.1248(5)
C65B C 0.7849(5) 0.9214(3) 0.1228(5)
F17B F 0.7969(3) 0.9387(2) 0.2502(3)
F18B F 0.7865(4) 0.8712(3) 0.2522(4)
F19B F 0.7710(4) 0.8731(3) 0.0824(4)
F20B F 0.7818(4) 0.9382(3) 0.0801(4)
C104B C 0.7695(4) 0.8337(4) 0.1673(6)
C105B C 0.7958(4) 0.8109(4) 0.1671(6)
C106B C 0.8310(4) 0.8191(4) 0.1704(7)
H41B H 0.8403 0.8410 0.1735
C107B C 0.8486(4) 0.7899(4) 0.1683(7)
H42B H 0.8723 0.7876 0.1673
C108B C 0.8250(4) 0.7635(4) 0.1678(6)
N30B N 0.7920(3) 0.7769(3) 0.1683(4)
N17C N 0.6905(2) 0.4166(3) 0.1650(4)
N18C N 0.6792(3) 0.4784(3) 0.1794(4)
N19C N 0.6760(3) 0.5109(3) 0.1844(4)
N20C N 0.7035(3) 0.5247(3) 0.1640(4)
C53C C 0.6940(3) 0.3833(2) 0.1584(6)
H21C H 0.6767 0.3690 0.1703
C54C C 0.7210(4) 0.3688(2) 0.1354(6)
H22C H 0.7222 0.3452 0.1307
C55C C 0.7463(3) 0.3895(3) 0.1192(6)
H23C H 0.7657 0.3802 0.1043
C56C C 0.7434(3) 0.4237(3) 0.1249(5)
H24C H 0.7609 0.4383 0.1147
C57C C 0.7143(3) 0.4366(2) 0.1456(5)
C58C C 0.7087(3) 0.4721(3) 0.1550(5)
C59C C 0.7249(3) 0.5016(3) 0.1458(5)
H25C H 0.7460 0.5051 0.1305
C60C C 0.7086(4) 0.5605(3) 0.1651(5)
C61C C 0.7097(5) 0.5778(3) 0.2092(5)
C62C C 0.7156(5) 0.6125(3) 0.2083(5)
C63C C 0.7217(4) 0.6302(3) 0.1663(5)
C64C C 0.7220(5) 0.6116(3) 0.1248(5)
C65C C 0.7151(5) 0.5786(3) 0.1228(5)
F17C F 0.7031(3) 0.5613(2) 0.2502(3)
F18C F 0.7135(4) 0.6288(3) 0.2522(4)
F19C F 0.7290(4) 0.6269(3) 0.0824(4)
F20C F 0.7182(4) 0.5618(3) 0.0801(4)
C104C C 0.7305(4) 0.6663(4) 0.1673(6)
C105C C 0.7042(4) 0.6891(4) 0.1671(6)
C106C C 0.6690(4) 0.6809(4) 0.1704(7)
H41C H 0.6597 0.6590 0.1735
C107C C 0.6514(4) 0.7101(4) 0.1683(7)
H42C H 0.6277 0.7124 0.1673
C108C C 0.6750(4) 0.7365(4) 0.1678(6)
N30C N 0.7080(3) 0.7231(3) 0.1683(4)
N17A N 0.4166(3) 0.8095(2) 0.1650(4)
N18A N 0.4784(3) 0.8208(3) 0.1794(4)
N19A N 0.5109(3) 0.8240(3) 0.1844(4)
N20A N 0.5247(3) 0.7965(3) 0.1640(4)
C53A C 0.3833(2) 0.8060(3) 0.1584(6)
H21A H 0.3690 0.8233 0.1703
C54A C 0.3688(2) 0.7790(4) 0.1354(6)
H22A H 0.3452 0.7778 0.1307
C55A C 0.3895(3) 0.7537(3) 0.1192(6)
H23A H 0.3802 0.7343 0.1043
C56A C 0.4237(3) 0.7566(3) 0.1249(5)
H24A H 0.4383 0.7391 0.1147
C57A C 0.4366(2) 0.7857(3) 0.1456(5)
C58A C 0.4721(3) 0.7913(3) 0.1550(5)
C59A C 0.5016(3) 0.7751(3) 0.1458(5)
H25A H 0.5051 0.7540 0.1305
C60A C 0.5605(3) 0.7914(4) 0.1651(5)
C61A C 0.5778(3) 0.7903(5) 0.2092(5)
C62A C 0.6125(3) 0.7844(5) 0.2083(5)
C63A C 0.6302(3) 0.7783(4) 0.1663(5)
C64A C 0.6116(3) 0.7780(5) 0.1248(5)
C65A C 0.5786(3) 0.7849(5) 0.1228(5)
F17A F 0.5613(2) 0.7969(3) 0.2502(3)
F18A F 0.6288(3) 0.7865(4) 0.2522(4)
F19A F 0.6269(3) 0.7710(4) 0.0824(4)
F20A F 0.5618(3) 0.7818(4) 0.0801(4)
C104A C 0.6663(4) 0.7695(4) 0.1673(6)
C105A C 0.6891(4) 0.7958(4) 0.1671(6)
C106A C 0.6809(4) 0.8310(4) 0.1704(7)
H41A H 0.6590 0.8403 0.1735
C107A C 0.7101(4) 0.8486(4) 0.1683(7)
H42A H 0.7124 0.8723 0.1673
C108A C 0.7365(4) 0.8250(4) 0.1678(6)
N30A N 0.7231(3) 0.7920(3) 0.1683(4)
N21B N 1.0584(3) 0.6094(2) 0.9048(4)
N22B N 1.0116(3) 0.6511(3) 0.8882(4)
N23B N 0.9862(3) 0.6714(3) 0.8828(4)
N24B N 0.9596(3) 0.6557(3) 0.9032(4)
C66B C 1.0843(2) 0.5881(3) 0.9101(6)
H26B H 1.1055 0.5946 0.8974
C67B C 1.0819(3) 0.5574(3) 0.9330(7)
H27B H 1.1011 0.5439 0.9382
C68B C 1.0507(4) 0.5469(3) 0.9480(7)
H28B H 1.0476 0.5249 0.9603
C69B C 1.0238(3) 0.5687(3) 0.9450(6)
H29B H 1.0029 0.5631 0.9593
C70B C 1.0281(3) 0.5990(3) 0.9206(6)
C71B C 1.0012(3) 0.6231(3) 0.9122(5)
C72B C 0.9678(3) 0.6263(3) 0.9219(5)
H30B H 0.9536 0.6109 0.9384
C73B C 0.9278(3) 0.6724(4) 0.9028(5)
C74B C 0.9132(3) 0.6829(4) 0.8596(5)
C75B C 0.8809(4) 0.6964(4) 0.8616(5)
C76B C 0.8632(3) 0.7006(4) 0.9035(5)
C77B C 0.8792(4) 0.6914(5) 0.9456(5)
C78B C 0.9095(4) 0.6769(4) 0.9460(5)
F21B F 0.9294(2) 0.6781(3) 0.8174(3)
F22B F 0.8674(3) 0.7050(3) 0.8180(4)
F23B F 0.8625(3) 0.6950(4) 0.9873(4)
F24B F 0.9239(3) 0.6684(4) 0.9881(4)
C99B C 0.8283(4) 0.7165(4) 0.9023(6)
C100B C 0.8020(4) 0.6941(4) 0.9024(6)
C101B C 0.8056(4) 0.6583(4) 0.9019(6)
H39B H 0.8261 0.6462 0.9021
C102B C 0.7745(4) 0.6453(4) 0.9011(6)
H40B H 0.7685 0.6222 0.8998
C103B C 0.7516(4) 0.6741(4) 0.9025(6)
N29B N 0.7693(3) 0.7046(3) 0.9030(4)
N21C N 0.4416(3) 0.8906(2) 0.9048(4)
N22C N 0.4884(3) 0.8489(3) 0.8882(4)
N23C N 0.5138(3) 0.8286(3) 0.8828(4)
N24C N 0.5404(3) 0.8443(3) 0.9032(4)
C66C C 0.4157(2) 0.9119(3) 0.9101(6)
H26C H 0.3945 0.9054 0.8974
C67C C 0.4181(3) 0.9426(3) 0.9330(7)
H27C H 0.3989 0.9561 0.9382
C68C C 0.4493(4) 0.9531(3) 0.9480(7)
H28C H 0.4524 0.9751 0.9603
C69C C 0.4762(3) 0.9313(3) 0.9450(6)
H29C H 0.4971 0.9369 0.9593
C70C C 0.4719(3) 0.9010(3) 0.9206(6)
C71C C 0.4988(3) 0.8769(3) 0.9122(5)
C72C C 0.5322(3) 0.8737(3) 0.9219(5)
H30C H 0.5464 0.8891 0.9384
C73C C 0.5722(3) 0.8276(4) 0.9028(5)
C74C C 0.5868(3) 0.8171(4) 0.8596(5)
C75C C 0.6191(4) 0.8036(4) 0.8616(5)
C76C C 0.6368(3) 0.7994(4) 0.9035(5)
C77C C 0.6208(4) 0.8086(5) 0.9456(5)
C78C C 0.5905(4) 0.8231(4) 0.9460(5)
F21C F 0.5706(2) 0.8219(3) 0.8174(3)
F22C F 0.6326(3) 0.7950(3) 0.8180(4)
F23C F 0.6375(3) 0.8050(4) 0.9873(4)
F24C F 0.5761(3) 0.8316(4) 0.9881(4)
C99C C 0.6717(4) 0.7835(4) 0.9023(6)
C100C C 0.6980(4) 0.8059(4) 0.9024(6)
C101C C 0.6944(4) 0.8417(4) 0.9019(6)
H39C H 0.6739 0.8538 0.9021
C102C C 0.7255(4) 0.8547(4) 0.9011(6)
H40C H 0.7315 0.8778 0.8998
C103C C 0.7484(4) 0.8259(4) 0.9025(6)
N29C N 0.7307(3) 0.7954(3) 0.9030(4)
N21A N 0.8906(2) 1.0584(3) 0.9048(4)
N22A N 0.8489(3) 1.0116(3) 0.8882(4)
N23A N 0.8286(3) 0.9862(3) 0.8828(4)
N24A N 0.8443(3) 0.9596(3) 0.9032(4)
C66A C 0.9119(3) 1.0843(2) 0.9101(6)
H26A H 0.9054 1.1055 0.8974
C67A C 0.9426(3) 1.0819(3) 0.9330(7)
H27A H 0.9561 1.1011 0.9382
C68A C 0.9531(3) 1.0507(4) 0.9480(7)
H28A H 0.9751 1.0476 0.9603
C69A C 0.9313(3) 1.0238(3) 0.9450(6)
H29A H 0.9369 1.0029 0.9593
C70A C 0.9010(3) 1.0281(3) 0.9206(6)
C71A C 0.8769(3) 1.0012(3) 0.9122(5)
C72A C 0.8737(3) 0.9678(3) 0.9219(5)
H30A H 0.8891 0.9536 0.9384
C73A C 0.8276(4) 0.9278(3) 0.9028(5)
C74A C 0.8171(4) 0.9132(3) 0.8596(5)
C75A C 0.8036(4) 0.8809(4) 0.8616(5)
C76A C 0.7994(4) 0.8632(3) 0.9035(5)
C77A C 0.8086(5) 0.8792(4) 0.9456(5)
C78A C 0.8231(4) 0.9095(4) 0.9460(5)
F21A F 0.8219(3) 0.9294(2) 0.8174(3)
F22A F 0.7950(3) 0.8674(3) 0.8180(4)
F23A F 0.8050(4) 0.8625(3) 0.9873(4)
F24A F 0.8316(4) 0.9239(3) 0.9881(4)
C99A C 0.7835(4) 0.8283(4) 0.9023(6)
C100A C 0.8059(4) 0.8020(4) 0.9024(6)
C101A C 0.8417(4) 0.8056(4) 0.9019(6)
H39A H 0.8538 0.8261 0.9021
C102A C 0.8547(4) 0.7745(4) 0.9011(6)
H40A H 0.8778 0.7685 0.8998
C103A C 0.8259(4) 0.7516(4) 0.9025(6)
N29A N 0.7954(3) 0.7693(3) 0.9030(4)
Fe1A Fe 0.84825(6) 1.05712(6) 0.86636(8)
Fe2A Fe 0.44024(6) 0.84490(6) 0.20129(8)
Ni1A Ni 0.63759(5) 0.96323(6) 0.53229(6)
N1A N 0.8180(3) 1.0712(3) 0.9195(4)
N2A N 0.8064(3) 1.0493(3) 0.8339(4)
N3A N 0.7990(3) 1.0361(3) 0.7907(4)
N4A N 0.7650(3) 1.0331(3) 0.7925(4)
C1A C 0.8262(4) 1.0842(4) 0.9634(5)
H1A H 0.8492 1.0873 0.9709
C2A C 0.8027(4) 1.0932(5) 0.9976(6)
H2A H 0.8095 1.1019 1.0283
C3A C 0.7696(4) 1.0894(5) 0.9871(6)
H3A H 0.7530 1.0959 1.0101
C4A C 0.7603(4) 1.0763(5) 0.9435(5)
H4A H 0.7373 1.0734 0.9359
C5A C 0.7851(3) 1.0671(4) 0.9100(5)
C6A C 0.7782(3) 1.0526(4) 0.8614(4)
C7A C 0.7516(3) 1.0419(4) 0.8355(5)
H5A H 0.7288 1.0409 0.8453
C8A C 0.7480(4) 1.0201(3) 0.7498(5)
C9A C 0.7544(4) 0.9889(4) 0.7297(5)
C10A C 0.7343(4) 0.9777(4) 0.6915(6)
C11A C 0.7106(3) 0.9967(3) 0.6692(5)
C12A C 0.7062(4) 1.0277(4) 0.6894(6)
C13A C 0.7246(4) 1.0398(4) 0.7269(6)
F1A F 0.7796(3) 0.9706(3) 0.7475(5)
F2A F 0.7420(3) 0.9471(3) 0.6726(5)
F3A F 0.6835(4) 1.0479(3) 0.6689(5)
F4A F 0.7214(4) 1.0714(3) 0.7430(5)
N5A N 0.8640(3) 1.1016(2) 0.2300(4)
N6A N 0.8187(3) 1.0615(3) 0.2593(4)
N7A N 0.7955(3) 1.0430(3) 0.2790(4)
N8A N 0.7900(3) 1.0552(3) 0.3243(4)
C14A C 0.8869(4) 1.1226(4) 0.2111(5)
H6A H 0.8975 1.1165 0.1814
C15A C 0.8960(5) 1.1526(4) 0.2325(6)
H7A H 0.9101 1.1681 0.2160
C16A C 0.8839(5) 1.1596(3) 0.2784(5)
H8A H 0.8914 1.1789 0.2955
C17A C 0.8609(4) 1.1381(4) 0.2994(4)
H9A H 0.8526 1.1422 0.3313
C18A C 0.8500(4) 1.1104(3) 0.2729(5)
C19A C 0.8254(4) 1.0867(4) 0.2919(5)
C20A C 0.8085(4) 1.0824(4) 0.3343(5)
H10A H 0.8095 1.0952 0.3635
C21A C 0.7662(4) 1.0396(3) 0.3564(5)
C22A C 0.7418(5) 1.0590(4) 0.3800(7)
C23A C 0.7193(5) 1.0430(4) 0.4111(8)
C24A C 0.7194(4) 1.0092(4) 0.4192(6)
C25A C 0.7429(4) 0.9918(4) 0.3929(6)
C26A C 0.7660(4) 1.0053(4) 0.3627(6)
F5A F 0.7425(4) 1.0923(3) 0.3731(6)
F6A F 0.7002(4) 1.0641(3) 0.4382(6)
F7A F 0.7433(3) 0.9585(3) 0.3986(5)
F8A F 0.7887(3) 0.9864(3) 0.3401(4)
N9A N 0.4438(3) 0.8784(3) 0.1462(4)
N10A N 0.4687(3) 0.8776(3) 0.2314(4)
N11A N 0.4842(3) 0.8782(3) 0.2741(4)
N12A N 0.5047(3) 0.9053(3) 0.2721(4)
C27A C 0.4274(4) 0.8781(4) 0.1033(5)
H11A H 0.4121 0.8604 0.0968
C28A C 0.4321(5) 0.9024(4) 0.0689(6)
H12A H 0.4204 0.9012 0.0388
C29A C 0.4533(5) 0.9282(5) 0.0775(6)
H13A H 0.4578 0.9442 0.0527
C30A C 0.4687(5) 0.9312(4) 0.1229(5)
H14A H 0.4824 0.9499 0.1307
C31A C 0.4631(4) 0.9054(4) 0.1563(5)
C32A C 0.4798(4) 0.9042(3) 0.2039(4)
C33A C 0.5030(4) 0.9219(4) 0.2297(5)
H15A H 0.5150 0.9413 0.2200
C34A C 0.5246(4) 0.9136(3) 0.3146(5)
C35A C 0.5248(4) 0.9464(4) 0.3319(6)
C36A C 0.5444(4) 0.9531(4) 0.3724(6)
C37A C 0.5651(4) 0.9299(3) 0.3944(5)
C38A C 0.5631(4) 0.8981(3) 0.3767(5)
C39A C 0.5448(4) 0.8897(4) 0.3370(5)
F9A F 0.5056(3) 0.9695(2) 0.3099(4)
F10A F 0.5444(3) 0.9852(2) 0.3888(4)
F11A F 0.5825(3) 0.8746(2) 0.3980(4)
F12A F 0.5452(3) 0.8581(2) 0.3215(4)
N13A N 0.3970(2) 0.8512(4) 0.8376(4)
N14A N 0.4539(3) 0.8723(3) 0.8074(4)
N15A N 0.4824(3) 0.8815(3) 0.7875(4)
N16A N 0.4739(3) 0.8915(3) 0.7418(4)
C40A C 0.3678(3) 0.8414(5) 0.8574(5)
H16A H 0.3683 0.8312 0.8887
C41A C 0.3371(2) 0.8451(6) 0.8348(6)
H17A H 0.3171 0.8368 0.8493
C42A C 0.3363(2) 0.8614(7) 0.7906(7)
H18A H 0.3154 0.8676 0.7764
C43A C 0.3661(3) 0.8686(6) 0.7671(5)
H19A H 0.3663 0.8755 0.7339
C44A C 0.3959(2) 0.8657(5) 0.7932(5)
C45A C 0.4286(3) 0.8760(4) 0.7738(5)
C46A C 0.4412(3) 0.8903(4) 0.7327(5)
H20A H 0.4295 0.8976 0.7045
C47A C 0.5008(3) 0.9031(3) 0.7108(5)
C48A C 0.4979(3) 0.9333(3) 0.6861(5)
C49A C 0.5231(4) 0.9417(4) 0.6534(6)
C50A C 0.5523(3) 0.9234(3) 0.6472(5)
C51A C 0.5545(4) 0.8946(4) 0.6742(6)
C52A C 0.5298(3) 0.8841(4) 0.7047(6)
F13A F 0.4697(3) 0.9514(3) 0.6908(4)
F14A F 0.5192(3) 0.9713(3) 0.6296(4)
F15A F 0.5828(2) 0.8766(3) 0.6686(4)
F16A F 0.5328(3) 0.8548(3) 0.7282(4)
C79A C 0.6891(3) 0.9853(4) 0.6284(5)
C80A C 0.6573(3) 0.9725(4) 0.6375(5)
C81A C 0.6450(5) 0.9665(5) 0.6864(6)
H31A H 0.6561 0.9718 0.7161
C82A C 0.6152(5) 0.9521(5) 0.6816(5)
H32A H 0.6012 0.9447 0.7075
C83A C 0.6076(3) 0.9496(4) 0.6300(5)
C84A C 0.5786(3) 0.9354(4) 0.6125(4)
C85A C 0.5721(4) 0.9320(4) 0.5627(4)
C86A C 0.5421(4) 0.9172(4) 0.5427(5)
H33A H 0.5241 0.9081 0.5611
C87A C 0.5438(4) 0.9184(4) 0.4933(5)
H34A H 0.5279 0.9108 0.4701
C88A C 0.5765(4) 0.9345(4) 0.4846(5)
C89A C 0.5873(4) 0.9406(4) 0.4370(5)
C90A C 0.6181(4) 0.9558(4) 0.4255(5)
C91A C 0.6292(4) 0.9633(4) 0.3762(5)
H35A H 0.6181 0.9572 0.3468
C92A C 0.6575(4) 0.9801(5) 0.3802(5)
H36A H 0.6701 0.9895 0.3542
C93A C 0.6660(4) 0.9815(5) 0.4319(5)
C94A C 0.6944(4) 0.9952(5) 0.4525(6)
C95A C 0.7021(4) 0.9956(5) 0.5021(6)
C96A C 0.7330(5) 1.0099(5) 0.5218(6)
H37A H 0.7513 1.0187 0.5039
C97A C 0.7303(4) 1.0080(5) 0.5699(6)
H38A H 0.7463 1.0158 0.5929
C98A C 0.6995(4) 0.9924(4) 0.5810(5)
N25A N 0.5945(3) 0.9420(3) 0.5271(4)
N26A N 0.6344(3) 0.9606(3) 0.6033(4)
N27A N 0.6813(3) 0.9840(4) 0.5387(4)
N28A N 0.6404(3) 0.9670(3) 0.4593(4)
Fe1B Fe 1.05712(6) 0.65175(6) 0.86636(8)
Fe2B Fe 0.84490(6) 1.05976(6) 0.20129(8)
Ni1B Ni 0.96323(6) 0.86241(5) 0.53229(6)
N1B N 1.0712(3) 0.6820(3) 0.9195(4)
N2B N 1.0493(3) 0.6936(3) 0.8339(4)
N3B N 1.0361(3) 0.7010(3) 0.7907(4)
N4B N 1.0331(3) 0.7350(3) 0.7925(4)
C1B C 1.0842(4) 0.6738(4) 0.9634(5)
H1B H 1.0873 0.6508 0.9709
C2B C 1.0932(5) 0.6973(4) 0.9976(6)
H2B H 1.1019 0.6905 1.0283
C3B C 1.0894(5) 0.7304(4) 0.9871(6)
H3B H 1.0959 0.7470 1.0101
C4B C 1.0763(5) 0.7397(4) 0.9435(5)
H4B H 1.0734 0.7627 0.9359
C5B C 1.0671(4) 0.7149(3) 0.9100(5)
C6B C 1.0526(4) 0.7218(3) 0.8614(4)
C7B C 1.0419(4) 0.7484(3) 0.8355(5)
H5B H 1.0409 0.7712 0.8453
C8B C 1.0201(3) 0.7520(4) 0.7498(5)
C9B C 0.9889(4) 0.7456(4) 0.7297(5)
C10B C 0.9777(4) 0.7657(4) 0.6915(6)
C11B C 0.9967(3) 0.7894(3) 0.6692(5)
C12B C 1.0277(4) 0.7938(4) 0.6894(6)
C13B C 1.0398(4) 0.7754(4) 0.7269(6)
F1B F 0.9706(3) 0.7204(3) 0.7475(5)
F2B F 0.9471(3) 0.7580(3) 0.6726(5)
F3B F 1.0479(3) 0.8165(4) 0.6689(5)
F4B F 1.0714(3) 0.7786(4) 0.7430(5)
N5B N 1.1016(2) 0.6360(3) 0.2300(4)
N6B N 1.0615(3) 0.6813(3) 0.2593(4)
N7B N 1.0430(3) 0.7045(3) 0.2790(4)
N8B N 1.0552(3) 0.7100(3) 0.3243(4)
C14B C 1.1226(4) 0.6131(4) 0.2111(5)
H6B H 1.1165 0.6025 0.1814
C15B C 1.1526(4) 0.6040(5) 0.2325(6)
H7B H 1.1681 0.5899 0.2160
C16B C 1.1596(3) 0.6161(5) 0.2784(5)
H8B H 1.1789 0.6086 0.2955
C17B C 1.1381(4) 0.6391(4) 0.2994(4)
H9B H 1.1422 0.6474 0.3313
C18B C 1.1104(3) 0.6500(4) 0.2729(5)
C19B C 1.0867(4) 0.6746(4) 0.2919(5)
C20B C 1.0824(4) 0.6915(4) 0.3343(5)
H10B H 1.0952 0.6905 0.3635
C21B C 1.0396(3) 0.7338(4) 0.3564(5)
C22B C 1.0590(4) 0.7582(5) 0.3800(7)
C23B C 1.0430(4) 0.7807(5) 0.4111(8)
C24B C 1.0092(4) 0.7806(4) 0.4192(6)
C25B C 0.9918(4) 0.7571(4) 0.3929(6)
C26B C 1.0053(4) 0.7340(4) 0.3627(6)
F5B F 1.0923(3) 0.7575(4) 0.3731(6)
F6B F 1.0641(3) 0.7998(4) 0.4382(6)
F7B F 0.9585(3) 0.7567(3) 0.3986(5)
F8B F 0.9864(3) 0.7113(3) 0.3401(4)
N9B N 0.8784(3) 1.0562(3) 0.1462(4)
N10B N 0.8776(3) 1.0313(3) 0.2314(4)
N11B N 0.8782(3) 1.0158(3) 0.2741(4)
N12B N 0.9053(3) 0.9953(3) 0.2721(4)
C27B C 0.8781(4) 1.0726(4) 0.1033(5)
H11B H 0.8604 1.0879 0.0968
C28B C 0.9024(4) 1.0679(5) 0.0689(6)
H12B H 0.9012 1.0796 0.0388
C29B C 0.9282(5) 1.0467(5) 0.0775(6)
H13B H 0.9442 1.0422 0.0527
C30B C 0.9312(4) 1.0313(5) 0.1229(5)
H14B H 0.9499 1.0176 0.1307
C31B C 0.9054(4) 1.0369(4) 0.1563(5)
C32B C 0.9042(3) 1.0202(4) 0.2039(4)
C33B C 0.9219(4) 0.9970(4) 0.2297(5)
H15B H 0.9413 0.9850 0.2200
C34B C 0.9136(3) 0.9754(4) 0.3146(5)
C35B C 0.9464(4) 0.9752(4) 0.3319(6)
C36B C 0.9531(4) 0.9556(4) 0.3724(6)
C37B C 0.9299(3) 0.9349(4) 0.3944(5)
C38B C 0.8981(3) 0.9369(4) 0.3767(5)
C39B C 0.8897(4) 0.9552(4) 0.3370(5)
F9B F 0.9695(2) 0.9944(3) 0.3099(4)
F10B F 0.9852(2) 0.9556(3) 0.3888(4)
F11B F 0.8746(2) 0.9175(3) 0.3980(4)
F12B F 0.8581(2) 0.9548(3) 0.3215(4)
N13B N 0.8512(4) 1.1030(2) 0.8376(4)
N14B N 0.8723(3) 1.0461(3) 0.8074(4)
N15B N 0.8815(3) 1.0176(3) 0.7875(4)
N16B N 0.8915(3) 1.0261(3) 0.7418(4)
C40B C 0.8414(5) 1.1322(3) 0.8574(5)
H16B H 0.8312 1.1317 0.8887
C41B C 0.8451(6) 1.1629(2) 0.8348(6)
H17B H 0.8368 1.1829 0.8493
C42B C 0.8614(7) 1.1637(2) 0.7906(7)
H18B H 0.8676 1.1846 0.7764
C43B C 0.8686(6) 1.1339(3) 0.7671(5)
H19B H 0.8755 1.1337 0.7339
C44B C 0.8657(5) 1.1041(2) 0.7932(5)
C45B C 0.8760(4) 1.0714(3) 0.7738(5)
C46B C 0.8903(4) 1.0588(3) 0.7327(5)
H20B H 0.8976 1.0705 0.7045
C47B C 0.9031(3) 0.9992(3) 0.7108(5)
C48B C 0.9333(3) 1.0021(3) 0.6861(5)
C49B C 0.9417(4) 0.9769(4) 0.6534(6)
C50B C 0.9234(3) 0.9477(3) 0.6472(5)
C51B C 0.8946(4) 0.9455(4) 0.6742(6)
C52B C 0.8841(4) 0.9702(3) 0.7047(6)
F13B F 0.9514(3) 1.0303(3) 0.6908(4)
F14B F 0.9713(3) 0.9808(3) 0.6296(4)
F15B F 0.8766(3) 0.9172(2) 0.6686(4)
F16B F 0.8548(3) 0.9672(3) 0.7282(4)
C79B C 0.9853(4) 0.8109(3) 0.6284(5)
C80B C 0.9725(4) 0.8427(3) 0.6375(5)
C81B C 0.9665(5) 0.8550(5) 0.6864(6)
H31B H 0.9718 0.8439 0.7161
C82B C 0.9521(5) 0.8848(5) 0.6816(5)
H32B H 0.9447 0.8988 0.7075
C83B C 0.9496(4) 0.8924(3) 0.6300(5)
C84B C 0.9354(4) 0.9214(3) 0.6125(4)
C85B C 0.9320(4) 0.9279(4) 0.5627(4)
C86B C 0.9172(4) 0.9579(4) 0.5427(5)
H33B H 0.9081 0.9759 0.5611
C87B C 0.9184(4) 0.9562(4) 0.4933(5)
H34B H 0.9108 0.9721 0.4701
C88B C 0.9345(4) 0.9235(4) 0.4846(5)
C89B C 0.9406(4) 0.9127(4) 0.4370(5)
C90B C 0.9558(4) 0.8819(4) 0.4255(5)
C91B C 0.9633(4) 0.8708(4) 0.3762(5)
H35B H 0.9572 0.8819 0.3468
C92B C 0.9801(5) 0.8425(4) 0.3802(5)
H36B H 0.9895 0.8299 0.3542
C93B C 0.9815(5) 0.8340(4) 0.4319(5)
C94B C 0.9952(5) 0.8056(4) 0.4525(6)
C95B C 0.9956(5) 0.7979(4) 0.5021(6)
C96B C 1.0099(5) 0.7670(5) 0.5218(6)
H37B H 1.0187 0.7487 0.5039
C97B C 1.0080(5) 0.7697(4) 0.5699(6)
H38B H 1.0158 0.7537 0.5929
C98B C 0.9924(4) 0.8005(4) 0.5810(5)
N25B N 0.9420(3) 0.9055(3) 0.5271(4)
N26B N 0.9606(3) 0.8656(3) 0.6033(4)
N27B N 0.9840(4) 0.8187(3) 0.5387(4)
N28B N 0.9670(3) 0.8596(3) 0.4593(4)
Fe1C Fe 0.44288(6) 0.84825(6) 0.86636(8)
Fe2C Fe 0.65510(6) 0.44024(6) 0.20129(8)
Ni1C Ni 0.53677(6) 0.63759(5) 0.53229(6)
N1C N 0.4288(3) 0.8180(3) 0.9195(4)
N2C N 0.4507(3) 0.8064(3) 0.8339(4)
N3C N 0.4639(3) 0.7990(3) 0.7907(4)
N4C N 0.4669(3) 0.7650(3) 0.7925(4)
C1C C 0.4158(4) 0.8262(4) 0.9634(5)
H1C H 0.4127 0.8492 0.9709
C2C C 0.4068(5) 0.8027(4) 0.9976(6)
H2C H 0.3981 0.8095 1.0283
C3C C 0.4106(5) 0.7696(4) 0.9871(6)
H3C H 0.4041 0.7530 1.0101
C4C C 0.4237(5) 0.7603(4) 0.9435(5)
H4C H 0.4266 0.7373 0.9359
C5C C 0.4329(4) 0.7851(3) 0.9100(5)
C6C C 0.4474(4) 0.7782(3) 0.8614(4)
C7C C 0.4581(4) 0.7516(3) 0.8355(5)
H5C H 0.4591 0.7288 0.8453
C8C C 0.4799(3) 0.7480(4) 0.7498(5)
C9C C 0.5111(4) 0.7544(4) 0.7297(5)
C10C C 0.5223(4) 0.7343(4) 0.6915(6)
C11C C 0.5033(3) 0.7106(3) 0.6692(5)
C12C C 0.4723(4) 0.7062(4) 0.6894(6)
C13C C 0.4602(4) 0.7246(4) 0.7269(6)
F1C F 0.5294(3) 0.7796(3) 0.7475(5)
F2C F 0.5529(3) 0.7420(3) 0.6726(5)
F3C F 0.4521(3) 0.6835(4) 0.6689(5)
F4C F 0.4286(3) 0.7214(4) 0.7430(5)
N5C N 0.3984(2) 0.8640(3) 0.2300(4)
N6C N 0.4385(3) 0.8187(3) 0.2593(4)
N7C N 0.4570(3) 0.7955(3) 0.2790(4)
N8C N 0.4448(3) 0.7900(3) 0.3243(4)
C14C C 0.3774(4) 0.8869(4) 0.2111(5)
H6C H 0.3835 0.8975 0.1814
C15C C 0.3474(4) 0.8960(5) 0.2325(6)
H7C H 0.3319 0.9101 0.2160
C16C C 0.3404(3) 0.8839(5) 0.2784(5)
H8C H 0.3211 0.8914 0.2955
C17C C 0.3619(4) 0.8609(4) 0.2994(4)
H9C H 0.3578 0.8526 0.3313
C18C C 0.3896(3) 0.8500(4) 0.2729(5)
C19C C 0.4133(4) 0.8254(4) 0.2919(5)
C20C C 0.4176(4) 0.8085(4) 0.3343(5)
H10C H 0.4048 0.8095 0.3635
C21C C 0.4604(3) 0.7662(4) 0.3564(5)
C22C C 0.4410(4) 0.7418(5) 0.3800(7)
C23C C 0.4570(4) 0.7193(5) 0.4111(8)
C24C C 0.4908(4) 0.7194(4) 0.4192(6)
C25C C 0.5082(4) 0.7429(4) 0.3929(6)
C26C C 0.4947(4) 0.7660(4) 0.3627(6)
F5C F 0.4077(3) 0.7425(4) 0.3731(6)
F6C F 0.4359(3) 0.7002(4) 0.4382(6)
F7C F 0.5415(3) 0.7433(3) 0.3986(5)
F8C F 0.5136(3) 0.7887(3) 0.3401(4)
N9C N 0.6216(3) 0.4438(3) 0.1462(4)
N10C N 0.6224(3) 0.4687(3) 0.2314(4)
N11C N 0.6218(3) 0.4842(3) 0.2741(4)
N12C N 0.5947(3) 0.5047(3) 0.2721(4)
C27C C 0.6219(4) 0.4274(4) 0.1033(5)
H11C H 0.6396 0.4121 0.0968
C28C C 0.5976(4) 0.4321(5) 0.0689(6)
H12C H 0.5988 0.4204 0.0388
C29C C 0.5718(5) 0.4533(5) 0.0775(6)
H13C H 0.5558 0.4578 0.0527
C30C C 0.5688(4) 0.4687(5) 0.1229(5)
H14C H 0.5501 0.4824 0.1307
C31C C 0.5946(4) 0.4631(4) 0.1563(5)
C32C C 0.5958(3) 0.4798(4) 0.2039(4)
C33C C 0.5781(4) 0.5030(4) 0.2297(5)
H15C H 0.5587 0.5150 0.2200
C34C C 0.5864(3) 0.5246(4) 0.3146(5)
C35C C 0.5536(4) 0.5248(4) 0.3319(6)
C36C C 0.5469(4) 0.5444(4) 0.3724(6)
C37C C 0.5701(3) 0.5651(4) 0.3944(5)
C38C C 0.6019(3) 0.5631(4) 0.3767(5)
C39C C 0.6103(4) 0.5448(4) 0.3370(5)
F9C F 0.5305(2) 0.5056(3) 0.3099(4)
F10C F 0.5148(2) 0.5444(3) 0.3888(4)
F11C F 0.6254(2) 0.5825(3) 0.3980(4)
F12C F 0.6419(2) 0.5452(3) 0.3215(4)
N13C N 0.6488(4) 0.3970(2) 0.8376(4)
N14C N 0.6277(3) 0.4539(3) 0.8074(4)
N15C N 0.6185(3) 0.4824(3) 0.7875(4)
N16C N 0.6085(3) 0.4739(3) 0.7418(4)
C40C C 0.6586(5) 0.3678(3) 0.8574(5)
H16C H 0.6688 0.3683 0.8887
C41C C 0.6549(6) 0.3371(2) 0.8348(6)
H17C H 0.6632 0.3171 0.8493
C42C C 0.6386(7) 0.3363(2) 0.7906(7)
H18C H 0.6324 0.3154 0.7764
C43C C 0.6314(6) 0.3661(3) 0.7671(5)
H19C H 0.6245 0.3663 0.7339
C44C C 0.6343(5) 0.3959(2) 0.7932(5)
C45C C 0.6240(4) 0.4286(3) 0.7738(5)
C46C C 0.6097(4) 0.4412(3) 0.7327(5)
H20C H 0.6024 0.4295 0.7045
C47C C 0.5969(3) 0.5008(3) 0.7108(5)
C48C C 0.5667(3) 0.4979(3) 0.6861(5)
C49C C 0.5583(4) 0.5231(4) 0.6534(6)
C50C C 0.5766(3) 0.5523(3) 0.6472(5)
C51C C 0.6054(4) 0.5545(4) 0.6742(6)
C52C C 0.6159(4) 0.5298(3) 0.7047(6)
F13C F 0.5486(3) 0.4697(3) 0.6908(4)
F14C F 0.5287(3) 0.5192(3) 0.6296(4)
F15C F 0.6234(3) 0.5828(2) 0.6686(4)
F16C F 0.6452(3) 0.5328(3) 0.7282(4)
C79C C 0.5147(4) 0.6891(3) 0.6284(5)
C80C C 0.5275(4) 0.6573(3) 0.6375(5)
C81C C 0.5335(5) 0.6450(5) 0.6864(6)
H31C H 0.5282 0.6561 0.7161
C82C C 0.5479(5) 0.6152(5) 0.6816(5)
H32C H 0.5553 0.6012 0.7075
C83C C 0.5504(4) 0.6076(3) 0.6300(5)
C84C C 0.5646(4) 0.5786(3) 0.6125(4)
C85C C 0.5680(4) 0.5721(4) 0.5627(4)
C86C C 0.5828(4) 0.5421(4) 0.5427(5)
H33C H 0.5919 0.5241 0.5611
C87C C 0.5816(4) 0.5438(4) 0.4933(5)
H34C H 0.5892 0.5279 0.4701
C88C C 0.5655(4) 0.5765(4) 0.4846(5)
C89C C 0.5594(4) 0.5873(4) 0.4370(5)
C90C C 0.5442(4) 0.6181(4) 0.4255(5)
C91C C 0.5367(4) 0.6292(4) 0.3762(5)
H35C H 0.5428 0.6181 0.3468
C92C C 0.5199(5) 0.6575(4) 0.3802(5)
H36C H 0.5105 0.6701 0.3542
C93C C 0.5185(5) 0.6660(4) 0.4319(5)
C94C C 0.5048(5) 0.6944(4) 0.4525(6)
C95C C 0.5044(5) 0.7021(4) 0.5021(6)
C96C C 0.4901(5) 0.7330(5) 0.5218(6)
H37C H 0.4813 0.7513 0.5039
C97C C 0.4920(5) 0.7303(4) 0.5699(6)
H38C H 0.4842 0.7463 0.5929
C98C C 0.5076(4) 0.6995(4) 0.5810(5)
N25C N 0.5580(3) 0.5945(3) 0.5271(4)
N26C N 0.5394(3) 0.6344(3) 0.6033(4)
N27C N 0.5160(4) 0.6813(3) 0.5387(4)
N28C N 0.5330(3) 0.6404(3) 0.4593(4)
S1 S 1.1749(3) 0.6280(4) -0.0032(5)
S2 S 1.1851(3) 0.6198(4) 0.0988(5)
N31 N 1.1966(8) 0.6159(9) 0.0420(8)
O1 O 1.1891(8) 0.6109(8) -0.0451(10)
O2 O 1.1407(6) 0.6290(7) 0.0070(11)
O3 O 1.1549(7) 0.6382(8) 0.0987(13)
O4 O 1.1900(7) 0.5873(6) 0.1219(10)
F25 F 1.1761(8) 0.6928(7) 0.0321(11)
F26 F 1.2176(9) 0.6786(10) -0.0107(16)
F27 F 1.1718(8) 0.6922(8) -0.0407(11)
F28 F 1.2145(10) 0.6475(10) 0.1807(12)
F29 F 1.2130(10) 0.6790(9) 0.1163(15)
F30 F 1.2464(8) 0.6388(8) 0.1239(13)
C109 C 1.1850(10) 0.6731(7) -0.0067(14)
C110 C 1.2148(9) 0.6475(9) 0.1322(14)
loop_
_geom_bond_atom_site_label_1
_geom_bond_atom_site_label_2
_geom_bond_site_symmetry_1
_geom_bond_site_symmetry_2
Fe1 N1 1_555 1_555
Fe2 N9 1_555 1_555
Ni1 N25 1_555 1_555
Ni2 N29 1_555 1_555
Ni3 N30 1_555 1_555
N1 C1 1_555 1_555
N2 Fe1 1_555 1_555
N3 N2 1_555 1_555
N4 N3 1_555 1_555
C1 H1 1_555 1_555
C2 C1 1_555 1_555
H2 C2 1_555 1_555
C3 C2 1_555 1_555
H3 C3 1_555 1_555
C4 C3 1_555 1_555
H4 C4 1_555 1_555
C5 N1 1_555 1_555
C6 N2 1_555 1_555
C7 N4 1_555 1_555
H5 C7 1_555 1_555
C8 N4 1_555 1_555
C9 C8 1_555 1_555
C10 C9 1_555 1_555
C11 C10 1_555 1_555
C12 C11 1_555 1_555
C13 C8 1_555 1_555
F1 C9 1_555 1_555
F2 C10 1_555 1_555
F3 C12 1_555 1_555
F4 C13 1_555 1_555
N5 C14 1_555 1_555
N6 N7 1_555 1_555
N7 N8 1_555 1_555
N8 C20 1_555 1_555
C14 H6 1_555 1_555
C15 C14 1_555 1_555
H7 C15 1_555 1_555
C16 C15 1_555 1_555
H8 C16 1_555 1_555
C17 C16 1_555 1_555
H9 C17 1_555 1_555
C18 N5 1_555 1_555
C19 N6 1_555 1_555
C20 C19 1_555 1_555
H10 C20 1_555 1_555
C21 N8 1_555 1_555
C22 C21 1_555 1_555
C23 C22 1_555 1_555
C24 C23 1_555 1_555
C25 C24 1_555 1_555
C26 C21 1_555 1_555
F5 C22 1_555 1_555
F6 C23 1_555 1_555
F7 C25 1_555 1_555
F8 C26 1_555 1_555
N9 C27 1_555 1_555
N10 Fe2 1_555 1_555
N11 N10 1_555 1_555
N12 N11 1_555 1_555
C27 H11 1_555 1_555
C28 C27 1_555 1_555
H12 C28 1_555 1_555
C29 C28 1_555 1_555
H13 C29 1_555 1_555
C30 C29 1_555 1_555
H14 C30 1_555 1_555
C31 N9 1_555 1_555
C32 N10 1_555 1_555
C33 N12 1_555 1_555
H15 C33 1_555 1_555
C34 N12 1_555 1_555
C35 C34 1_555 1_555
C36 C35 1_555 1_555
C37 C36 1_555 1_555
C38 C37 1_555 1_555
C39 C34 1_555 1_555
F9 C35 1_555 1_555
F10 C36 1_555 1_555
F11 C38 1_555 1_555
F12 C39 1_555 1_555
N13 C40 1_555 1_555
N14 N15 1_555 1_555
N15 N16 1_555 1_555
N16 C46 1_555 1_555
C40 H16 1_555 1_555
C41 C40 1_555 1_555
H17 C41 1_555 1_555
C42 C41 1_555 1_555
H18 C42 1_555 1_555
C43 C42 1_555 1_555
H19 C43 1_555 1_555
C44 N13 1_555 1_555
C45 N14 1_555 1_555
C46 C45 1_555 1_555
H20 C46 1_555 1_555
C47 N16 1_555 1_555
C48 C47 1_555 1_555
C49 C48 1_555 1_555
C50 C49 1_555 1_555
C51 C50 1_555 1_555
C52 C47 1_555 1_555
F13 C48 1_555 1_555
F14 C49 1_555 1_555
F15 C51 1_555 1_555
F16 C52 1_555 1_555
N17 Fe2 1_555 1_555
N18 Fe2 1_555 1_555
N19 N18 1_555 1_555
N20 N19 1_555 1_555
C53 N17 1_555 1_555
H21 C53 1_555 1_555
C54 C53 1_555 1_555
H22 C54 1_555 1_555
C55 C54 1_555 1_555
H23 C55 1_555 1_555
C56 C55 1_555 1_555
H24 C56 1_555 1_555
C57 N17 1_555 1_555
C58 N18 1_555 1_555
C59 N20 1_555 1_555
H25 C59 1_555 1_555
C60 N20 1_555 1_555
C61 C60 1_555 1_555
C62 C61 1_555 1_555
C63 C62 1_555 1_555
C64 C63 1_555 1_555
C65 C60 1_555 1_555
F17 C61 1_555 1_555
F18 C62 1_555 1_555
F19 C64 1_555 1_555
F20 C65 1_555 1_555
N21 Fe1 1_555 1_555
N22 Fe1 1_555 1_555
N23 N22 1_555 1_555
N24 N23 1_555 1_555
C66 N21 1_555 1_555
H26 C66 1_555 1_555
C67 C66 1_555 1_555
H27 C67 1_555 1_555
C68 C67 1_555 1_555
H28 C68 1_555 1_555
C69 C68 1_555 1_555
H29 C69 1_555 1_555
C70 N21 1_555 1_555
C71 N22 1_555 1_555
C72 N24 1_555 1_555
H30 C72 1_555 1_555
C73 N24 1_555 1_555
C74 C73 1_555 1_555
C75 C74 1_555 1_555
C76 C75 1_555 1_555
C77 C76 1_555 1_555
C78 C73 1_555 1_555
F21 C74 1_555 1_555
F22 C75 1_555 1_555
F23 C77 1_555 1_555
F24 C78 1_555 1_555
C79 C11 1_555 1_555
C80 C79 1_555 1_555
C81 C80 1_555 1_555
H31 C81 1_555 1_555
C82 C81 1_555 1_555
H32 C82 1_555 1_555
C83 C82 1_555 1_555
C84 C50 1_555 1_555
C85 C84 1_555 1_555
C86 C85 1_555 1_555
H33 C86 1_555 1_555
C87 C86 1_555 1_555
H34 C87 1_555 1_555
C88 C87 1_555 1_555
C89 C37 1_555 1_555
C90 C89 1_555 1_555
C91 C90 1_555 1_555
H35 C91 1_555 1_555
C92 C91 1_555 1_555
H36 C92 1_555 1_555
C93 C92 1_555 1_555
C94 C24 1_555 1_555
C95 C94 1_555 1_555
C96 C95 1_555 1_555
H37 C96 1_555 1_555
C97 C96 1_555 1_555
H38 C97 1_555 1_555
C98 C79 1_555 1_555
C99 C76 1_555 1_555
C100 C99 1_555 1_555
C101 C100 1_555 1_555
H39 C101 1_555 1_555
C102 C101 1_555 1_555
H40 C102 1_555 1_555
C103 C102 1_555 1_555
C104 C63 1_555 1_555
C105 C104 1_555 1_555
C106 C105 1_555 1_555
H41 C106 1_555 1_555
C107 C106 1_555 1_555
H42 C107 1_555 1_555
C108 C107 1_555 1_555
N25 C85 1_555 1_555
N26 Ni1 1_555 1_555
N27 Ni1 1_555 1_555
N28 Ni1 1_555 1_555
N29 C100 1_555 1_555
N30 C105 1_555 1_555
S1 N31 1_555 1_555
S2 N31 1_555 1_555
O1 S1 1_555 1_555
O2 S1 1_555 1_555
O3 S2 1_555 1_555
O4 S2 1_555 1_555
F25 C109 1_555 1_555
F26 C109 1_555 1_555
F27 C109 1_555 1_555
F28 C110 1_555 1_555
F29 C110 1_555 1_555
F30 C110 1_555 1_555
C109 S1 1_555 1_555
C110 S2 1_555 1_555
N17B C53B 1_555 1_555
N18B N19B 1_555 1_555
N19B N20B 1_555 1_555
N20B C59B 1_555 1_555
C53B H21B 1_555 1_555
C54B C53B 1_555 1_555
H22B C54B 1_555 1_555
C55B C54B 1_555 1_555
H23B C55B 1_555 1_555
C56B C55B 1_555 1_555
H24B C56B 1_555 1_555
C57B N17B 1_555 1_555
C58B N18B 1_555 1_555
C59B C58B 1_555 1_555
H25B C59B 1_555 1_555
C60B N20B 1_555 1_555
C61B C60B 1_555 1_555
C62B C61B 1_555 1_555
C63B C62B 1_555 1_555
C64B C63B 1_555 1_555
C65B C60B 1_555 1_555
F17B C61B 1_555 1_555
F18B C62B 1_555 1_555
F19B C64B 1_555 1_555
F20B C65B 1_555 1_555
C104B C63B 1_555 1_555
C105B C104B 1_555 1_555
C106B C105B 1_555 1_555
H41B C106B 1_555 1_555
C107B C106B 1_555 1_555
H42B C107B 1_555 1_555
C108B C104 1_555 1_555
N30B Ni3 1_555 1_555
N17C C53C 1_555 1_555
N18C N19C 1_555 1_555
N19C N20C 1_555 1_555
N20C C59C 1_555 1_555
C53C H21C 1_555 1_555
C54C C53C 1_555 1_555
H22C C54C 1_555 1_555
C55C C54C 1_555 1_555
H23C C55C 1_555 1_555
C56C C55C 1_555 1_555
H24C C56C 1_555 1_555
C57C N17C 1_555 1_555
C58C N18C 1_555 1_555
C59C C58C 1_555 1_555
H25C C59C 1_555 1_555
C60C N20C 1_555 1_555
C61C C60C 1_555 1_555
C62C C61C 1_555 1_555
C63C C62C 1_555 1_555
C64C C63C 1_555 1_555
C65C C60C 1_555 1_555
F17C C61C 1_555 1_555
F18C C62C 1_555 1_555
F19C C64C 1_555 1_555
F20C C65C 1_555 1_555
C104C C108 1_555 1_555
C105C C104C 1_555 1_555
C106C C105C 1_555 1_555
H41C C106C 1_555 1_555
C107C C106C 1_555 1_555
H42C C107C 1_555 1_555
C108C C107C 1_555 1_555
N30C Ni3 1_555 1_555
N17A C53A 1_555 1_555
N18A N19A 1_555 1_555
N19A N20A 1_555 1_555
N20A C59A 1_555 1_555
C53A H21A 1_555 1_555
C54A C53A 1_555 1_555
H22A C54A 1_555 1_555
C55A C54A 1_555 1_555
H23A C55A 1_555 1_555
C56A C55A 1_555 1_555
H24A C56A 1_555 1_555
C57A N17A 1_555 1_555
C58A N18A 1_555 1_555
C59A C58A 1_555 1_555
H25A C59A 1_555 1_555
C60A N20A 1_555 1_555
C61A C60A 1_555 1_555
C62A C61A 1_555 1_555
C63A C62A 1_555 1_555
C64A C63A 1_555 1_555
C65A C60A 1_555 1_555
F17A C61A 1_555 1_555
F18A C62A 1_555 1_555
F19A C64A 1_555 1_555
F20A C65A 1_555 1_555
C104A C108C 1_555 1_555
C105A C104A 1_555 1_555
C106A C105A 1_555 1_555
H41A C106A 1_555 1_555
C107A C106A 1_555 1_555
H42A C107A 1_555 1_555
C108A C104B 1_555 1_555
N30A Ni3 1_555 1_555
N21B C66B 1_555 1_555
N22B N23B 1_555 1_555
N23B N24B 1_555 1_555
N24B C72B 1_555 1_555
C66B H26B 1_555 1_555
C67B C66B 1_555 1_555
H27B C67B 1_555 1_555
C68B C67B 1_555 1_555
H28B C68B 1_555 1_555
C69B C68B 1_555 1_555
H29B C69B 1_555 1_555
C70B N21B 1_555 1_555
C71B N22B 1_555 1_555
C72B C71B 1_555 1_555
H30B C72B 1_555 1_555
C73B N24B 1_555 1_555
C74B C73B 1_555 1_555
C75B C74B 1_555 1_555
C76B C75B 1_555 1_555
C77B C76B 1_555 1_555
C78B C73B 1_555 1_555
F21B C74B 1_555 1_555
F22B C75B 1_555 1_555
F23B C77B 1_555 1_555
F24B C78B 1_555 1_555
C99B C76B 1_555 1_555
C100B C99B 1_555 1_555
C101B C100B 1_555 1_555
H39B C101B 1_555 1_555
C102B C101B 1_555 1_555
H40B C102B 1_555 1_555
C103B C99 1_555 1_555
N29B Ni2 1_555 1_555
N21C C66C 1_555 1_555
N22C N23C 1_555 1_555
N23C N24C 1_555 1_555
N24C C72C 1_555 1_555
C66C H26C 1_555 1_555
C67C C66C 1_555 1_555
H27C C67C 1_555 1_555
C68C C67C 1_555 1_555
H28C C68C 1_555 1_555
C69C C68C 1_555 1_555
H29C C69C 1_555 1_555
C70C N21C 1_555 1_555
C71C N22C 1_555 1_555
C72C C71C 1_555 1_555
H30C C72C 1_555 1_555
C73C N24C 1_555 1_555
C74C C73C 1_555 1_555
C75C C74C 1_555 1_555
C76C C75C 1_555 1_555
C77C C76C 1_555 1_555
C78C C73C 1_555 1_555
F21C C74C 1_555 1_555
F22C C75C 1_555 1_555
F23C C77C 1_555 1_555
F24C C78C 1_555 1_555
C99C C103 1_555 1_555
C100C C99C 1_555 1_555
C101C C100C 1_555 1_555
H39C C101C 1_555 1_555
C102C C101C 1_555 1_555
H40C C102C 1_555 1_555
C103C C102C 1_555 1_555
N29C Ni2 1_555 1_555
N21A C66A 1_555 1_555
N22A N23A 1_555 1_555
N23A N24A 1_555 1_555
N24A C72A 1_555 1_555
C66A H26A 1_555 1_555
C67A C66A 1_555 1_555
H27A C67A 1_555 1_555
C68A C67A 1_555 1_555
H28A C68A 1_555 1_555
C69A C68A 1_555 1_555
H29A C69A 1_555 1_555
C70A N21A 1_555 1_555
C71A N22A 1_555 1_555
C72A C71A 1_555 1_555
H30A C72A 1_555 1_555
C73A N24A 1_555 1_555
C74A C73A 1_555 1_555
C75A C74A 1_555 1_555
C76A C75A 1_555 1_555
C77A C76A 1_555 1_555
C78A C73A 1_555 1_555
F21A C74A 1_555 1_555
F22A C75A 1_555 1_555
F23A C77A 1_555 1_555
F24A C78A 1_555 1_555
C99A C103C 1_555 1_555
C100A C99A 1_555 1_555
C101A C100A 1_555 1_555
H39A C101A 1_555 1_555
C102A C101A 1_555 1_555
H40A C102A 1_555 1_555
C103A C99B 1_555 1_555
N29A Ni2 1_555 1_555
Fe1A N21A 1_555 1_555
Fe2A N17A 1_555 1_555
Ni1A N25A 1_555 1_555
N1A Fe1A 1_555 1_555
N2A Fe1A 1_555 1_555
N3A N2A 1_555 1_555
N4A N3A 1_555 1_555
C1A N1A 1_555 1_555
H1A C1A 1_555 1_555
C2A C1A 1_555 1_555
H2A C2A 1_555 1_555
C3A C2A 1_555 1_555
H3A C3A 1_555 1_555
C4A C3A 1_555 1_555
H4A C4A 1_555 1_555
C5A N1A 1_555 1_555
C6A N2A 1_555 1_555
C7A N4A 1_555 1_555
H5A C7A 1_555 1_555
C8A N4A 1_555 1_555
C9A C8A 1_555 1_555
C10A C9A 1_555 1_555
C11A C10A 1_555 1_555
C12A C11A 1_555 1_555
C13A C8A 1_555 1_555
F1A C9A 1_555 1_555
F2A C10A 1_555 1_555
F3A C12A 1_555 1_555
F4A C13A 1_555 1_555
N5A C14A 1_555 1_555
N6A N7A 1_555 1_555
N7A N8A 1_555 1_555
N8A C20A 1_555 1_555
C14A H6A 1_555 1_555
C15A C14A 1_555 1_555
H7A C15A 1_555 1_555
C16A C15A 1_555 1_555
H8A C16A 1_555 1_555
C17A C16A 1_555 1_555
H9A C17A 1_555 1_555
C18A N5A 1_555 1_555
C19A N6A 1_555 1_555
C20A C19A 1_555 1_555
H10A C20A 1_555 1_555
C21A N8A 1_555 1_555
C22A C21A 1_555 1_555
C23A C22A 1_555 1_555
C24A C23A 1_555 1_555
C25A C24A 1_555 1_555
C26A C21A 1_555 1_555
F5A C22A 1_555 1_555
F6A C23A 1_555 1_555
F7A C25A 1_555 1_555
F8A C26A 1_555 1_555
N9A Fe2A 1_555 1_555
N10A Fe2A 1_555 1_555
N11A N10A 1_555 1_555
N12A N11A 1_555 1_555
C27A N9A 1_555 1_555
H11A C27A 1_555 1_555
C28A C27A 1_555 1_555
H12A C28A 1_555 1_555
C29A C28A 1_555 1_555
H13A C29A 1_555 1_555
C30A C29A 1_555 1_555
H14A C30A 1_555 1_555
C31A N9A 1_555 1_555
C32A N10A 1_555 1_555
C33A N12A 1_555 1_555
H15A C33A 1_555 1_555
C34A N12A 1_555 1_555
C35A C34A 1_555 1_555
C36A C35A 1_555 1_555
C37A C36A 1_555 1_555
C38A C37A 1_555 1_555
C39A C34A 1_555 1_555
F9A C35A 1_555 1_555
F10A C36A 1_555 1_555
F11A C38A 1_555 1_555
F12A C39A 1_555 1_555
N13A C40A 1_555 1_555
N14A N15A 1_555 1_555
N15A N16A 1_555 1_555
N16A C46A 1_555 1_555
C40A H16A 1_555 1_555
C41A C40A 1_555 1_555
H17A C41A 1_555 1_555
C42A C41A 1_555 1_555
H18A C42A 1_555 1_555
C43A C42A 1_555 1_555
H19A C43A 1_555 1_555
C44A N13A 1_555 1_555
C45A N14A 1_555 1_555
C46A C45A 1_555 1_555
H20A C46A 1_555 1_555
C47A N16A 1_555 1_555
C48A C47A 1_555 1_555
C49A C48A 1_555 1_555
C50A C49A 1_555 1_555
C51A C50A 1_555 1_555
C52A C47A 1_555 1_555
F13A C48A 1_555 1_555
F14A C49A 1_555 1_555
F15A C51A 1_555 1_555
F16A C52A 1_555 1_555
C79A C11A 1_555 1_555
C80A C79A 1_555 1_555
C81A C80A 1_555 1_555
H31A C81A 1_555 1_555
C82A C81A 1_555 1_555
H32A C82A 1_555 1_555
C83A C82A 1_555 1_555
C84A C50A 1_555 1_555
C85A C84A 1_555 1_555
C86A C85A 1_555 1_555
H33A C86A 1_555 1_555
C87A C86A 1_555 1_555
H34A C87A 1_555 1_555
C88A C87A 1_555 1_555
C89A C37A 1_555 1_555
C90A C89A 1_555 1_555
C91A C90A 1_555 1_555
H35A C91A 1_555 1_555
C92A C91A 1_555 1_555
H36A C92A 1_555 1_555
C93A C92A 1_555 1_555
C94A C24A 1_555 1_555
C95A C94A 1_555 1_555
C96A C95A 1_555 1_555
H37A C96A 1_555 1_555
C97A C96A 1_555 1_555
H38A C97A 1_555 1_555
C98A C79A 1_555 1_555
N25A C85A 1_555 1_555
N26A Ni1A 1_555 1_555
N27A Ni1A 1_555 1_555
N28A Ni1A 1_555 1_555
Fe1B N13 1_555 1_555
Fe2B N17B 1_555 1_555
Ni1B N25B 1_555 1_555
N1B Fe1B 1_555 1_555
N2B Fe1B 1_555 1_555
N3B N2B 1_555 1_555
N4B N3B 1_555 1_555
C1B N1B 1_555 1_555
H1B C1B 1_555 1_555
C2B C1B 1_555 1_555
H2B C2B 1_555 1_555
C3B C2B 1_555 1_555
H3B C3B 1_555 1_555
C4B C3B 1_555 1_555
H4B C4B 1_555 1_555
C5B N1B 1_555 1_555
C6B N2B 1_555 1_555
C7B N4B 1_555 1_555
H5B C7B 1_555 1_555
C8B N4B 1_555 1_555
C9B C8B 1_555 1_555
C10B C9B 1_555 1_555
C11B C10B 1_555 1_555
C12B C11B 1_555 1_555
C13B C8B 1_555 1_555
F1B C9B 1_555 1_555
F2B C10B 1_555 1_555
F3B C12B 1_555 1_555
F4B C13B 1_555 1_555
N5B Fe2 1_555 1_555
N6B Fe2 1_555 1_555
N7B N6B 1_555 1_555
N8B N7B 1_555 1_555
C14B N5B 1_555 1_555
H6B C14B 1_555 1_555
C15B C14B 1_555 1_555
H7B C15B 1_555 1_555
C16B C15B 1_555 1_555
H8B C16B 1_555 1_555
C17B C16B 1_555 1_555
H9B C17B 1_555 1_555
C18B N5B 1_555 1_555
C19B N6B 1_555 1_555
C20B N8B 1_555 1_555
H10B C20B 1_555 1_555
C21B N8B 1_555 1_555
C22B C21B 1_555 1_555
C23B C22B 1_555 1_555
C24B C23B 1_555 1_555
C25B C24B 1_555 1_555
C26B C21B 1_555 1_555
F5B C22B 1_555 1_555
F6B C23B 1_555 1_555
F7B C25B 1_555 1_555
F8B C26B 1_555 1_555
N9B Fe2B 1_555 1_555
N10B Fe2B 1_555 1_555
N11B N10B 1_555 1_555
N12B N11B 1_555 1_555
C27B N9B 1_555 1_555
H11B C27B 1_555 1_555
C28B C27B 1_555 1_555
H12B C28B 1_555 1_555
C29B C28B 1_555 1_555
H13B C29B 1_555 1_555
C30B C29B 1_555 1_555
H14B C30B 1_555 1_555
C31B N9B 1_555 1_555
C32B N10B 1_555 1_555
C33B N12B 1_555 1_555
H15B C33B 1_555 1_555
C34B N12B 1_555 1_555
C35B C34B 1_555 1_555
C36B C35B 1_555 1_555
C37B C36B 1_555 1_555
C38B C37B 1_555 1_555
C39B C34B 1_555 1_555
F9B C35B 1_555 1_555
F10B C36B 1_555 1_555
F11B C38B 1_555 1_555
F12B C39B 1_555 1_555
N13B Fe1A 1_555 1_555
N14B Fe1A 1_555 1_555
N15B N14B 1_555 1_555
N16B N15B 1_555 1_555
C40B N13B 1_555 1_555
H16B C40B 1_555 1_555
C41B C40B 1_555 1_555
H17B C41B 1_555 1_555
C42B C41B 1_555 1_555
H18B C42B 1_555 1_555
C43B C42B 1_555 1_555
H19B C43B 1_555 1_555
C44B N13B 1_555 1_555
C45B N14B 1_555 1_555
C46B N16B 1_555 1_555
H20B C46B 1_555 1_555
C47B N16B 1_555 1_555
C48B C47B 1_555 1_555
C49B C48B 1_555 1_555
C50B C49B 1_555 1_555
C51B C50B 1_555 1_555
C52B C47B 1_555 1_555
F13B C48B 1_555 1_555
F14B C49B 1_555 1_555
F15B C51B 1_555 1_555
F16B C52B 1_555 1_555
C79B C11B 1_555 1_555
C80B C79B 1_555 1_555
C81B C80B 1_555 1_555
H31B C81B 1_555 1_555
C82B C81B 1_555 1_555
H32B C82B 1_555 1_555
C83B C82B 1_555 1_555
C84B C50B 1_555 1_555
C85B C84B 1_555 1_555
C86B C85B 1_555 1_555
H33B C86B 1_555 1_555
C87B C86B 1_555 1_555
H34B C87B 1_555 1_555
C88B C87B 1_555 1_555
C89B C37B 1_555 1_555
C90B C89B 1_555 1_555
C91B C90B 1_555 1_555
H35B C91B 1_555 1_555
C92B C91B 1_555 1_555
H36B C92B 1_555 1_555
C93B C92B 1_555 1_555
C94B C24B 1_555 1_555
C95B C94B 1_555 1_555
C96B C95B 1_555 1_555
H37B C96B 1_555 1_555
C97B C96B 1_555 1_555
H38B C97B 1_555 1_555
C98B C79B 1_555 1_555
N25B C85B 1_555 1_555
N26B Ni1B 1_555 1_555
N27B Ni1B 1_555 1_555
N28B Ni1B 1_555 1_555
Fe1C N21C 1_555 1_555
Fe2C N5 1_555 1_555
Ni1C N25C 1_555 1_555
N1C Fe1C 1_555 1_555
N2C Fe1C 1_555 1_555
N3C N2C 1_555 1_555
N4C N3C 1_555 1_555
C1C N1C 1_555 1_555
H1C C1C 1_555 1_555
C2C C1C 1_555 1_555
H2C C2C 1_555 1_555
C3C C2C 1_555 1_555
H3C C3C 1_555 1_555
C4C C3C 1_555 1_555
H4C C4C 1_555 1_555
C5C N1C 1_555 1_555
C6C N2C 1_555 1_555
C7C N4C 1_555 1_555
H5C C7C 1_555 1_555
C8C N4C 1_555 1_555
C9C C8C 1_555 1_555
C10C C9C 1_555 1_555
C11C C10C 1_555 1_555
C12C C11C 1_555 1_555
C13C C8C 1_555 1_555
F1C C9C 1_555 1_555
F2C C10C 1_555 1_555
F3C C12C 1_555 1_555
F4C C13C 1_555 1_555
N5C Fe2A 1_555 1_555
N6C Fe2A 1_555 1_555
N7C N6C 1_555 1_555
N8C N7C 1_555 1_555
C14C N5C 1_555 1_555
H6C C14C 1_555 1_555
C15C C14C 1_555 1_555
H7C C15C 1_555 1_555
C16C C15C 1_555 1_555
H8C C16C 1_555 1_555
C17C C16C 1_555 1_555
H9C C17C 1_555 1_555
C18C N5C 1_555 1_555
C19C N6C 1_555 1_555
C20C N8C 1_555 1_555
H10C C20C 1_555 1_555
C21C N8C 1_555 1_555
C22C C21C 1_555 1_555
C23C C22C 1_555 1_555
C24C C23C 1_555 1_555
C25C C24C 1_555 1_555
C26C C21C 1_555 1_555
F5C C22C 1_555 1_555
F6C C23C 1_555 1_555
F7C C25C 1_555 1_555
F8C C26C 1_555 1_555
N9C Fe2C 1_555 1_555
N10C Fe2C 1_555 1_555
N11C N10C 1_555 1_555
N12C N11C 1_555 1_555
C27C N9C 1_555 1_555
H11C C27C 1_555 1_555
C28C C27C 1_555 1_555
H12C C28C 1_555 1_555
C29C C28C 1_555 1_555
H13C C29C 1_555 1_555
C30C C29C 1_555 1_555
H14C C30C 1_555 1_555
C31C N9C 1_555 1_555
C32C N10C 1_555 1_555
C33C N12C 1_555 1_555
H15C C33C 1_555 1_555
C34C N12C 1_555 1_555
C35C C34C 1_555 1_555
C36C C35C 1_555 1_555
C37C C36C 1_555 1_555
C38C C37C 1_555 1_555
C39C C34C 1_555 1_555
F9C C35C 1_555 1_555
F10C C36C 1_555 1_555
F11C C38C 1_555 1_555
F12C C39C 1_555 1_555
N13C Fe1 1_555 1_555
N14C Fe1 1_555 1_555
N15C N14C 1_555 1_555
N16C N15C 1_555 1_555
C40C N13C 1_555 1_555
H16C C40C 1_555 1_555
C41C C40C 1_555 1_555
H17C C41C 1_555 1_555
C42C C41C 1_555 1_555
H18C C42C 1_555 1_555
C43C C42C 1_555 1_555
H19C C43C 1_555 1_555
C44C N13C 1_555 1_555
C45C N14C 1_555 1_555
C46C N16C 1_555 1_555
H20C C46C 1_555 1_555
C47C N16C 1_555 1_555
C48C C47C 1_555 1_555
C49C C48C 1_555 1_555
C50C C49C 1_555 1_555
C51C C50C 1_555 1_555
C52C C47C 1_555 1_555
F13C C48C 1_555 1_555
F14C C49C 1_555 1_555
F15C C51C 1_555 1_555
F16C C52C 1_555 1_555
C79C C11C 1_555 1_555
C80C C79C 1_555 1_555
C81C C80C 1_555 1_555
H31C C81C 1_555 1_555
C82C C81C 1_555 1_555
H32C C82C 1_555 1_555
C83C C82C 1_555 1_555
C84C C50C 1_555 1_555
C85C C84C 1_555 1_555
C86C C85C 1_555 1_555
H33C C86C 1_555 1_555
C87C C86C 1_555 1_555
H34C C87C 1_555 1_555
C88C C87C 1_555 1_555
C89C C37C 1_555 1_555
C90C C89C 1_555 1_555
C91C C90C 1_555 1_555
H35C C91C 1_555 1_555
C92C C91C 1_555 1_555
H36C C92C 1_555 1_555
C93C C92C 1_555 1_555
C94C C24C 1_555 1_555
C95C C94C 1_555 1_555
C96C C95C 1_555 1_555
H37C C96C 1_555 1_555
C97C C96C 1_555 1_555
H38C C97C 1_555 1_555
C98C C79C 1_555 1_555
N25C C85C 1_555 1_555
N26C Ni1C 1_555 1_555
N27C Ni1C 1_555 1_555
N28C Ni1C 1_555 1_555
C4 C5 1_555 1_555
C5 C6 1_555 1_555
C6 C7 1_555 1_555
C12 C13 1_555 1_555
N6 Fe2C 1_555 1_555
C17 C18 1_555 1_555
C18 C19 1_555 1_555
C25 C26 1_555 1_555
C30 C31 1_555 1_555
C31 C32 1_555 1_555
C32 C33 1_555 1_555
C38 C39 1_555 1_555
N14 Fe1B 1_555 1_555
C43 C44 1_555 1_555
C44 C45 1_555 1_555
C51 C52 1_555 1_555
C56 C57 1_555 1_555
C57 C58 1_555 1_555
C58 C59 1_555 1_555
C64 C65 1_555 1_555
C69 C70 1_555 1_555
C70 C71 1_555 1_555
C71 C72 1_555 1_555
C77 C78 1_555 1_555
C80 N26 1_555 1_555
C83 C84 1_555 1_555
C83 N26 1_555 1_555
C88 C89 1_555 1_555
C88 N25 1_555 1_555
C90 N28 1_555 1_555
C93 C94 1_555 1_555
C93 N28 1_555 1_555
C95 N27 1_555 1_555
C97 C98 1_555 1_555
C98 N27 1_555 1_555
C103 N29 1_555 1_555
C108 N30 1_555 1_555
N18B Fe2B 1_555 1_555
C56B C57B 1_555 1_555
C57B C58B 1_555 1_555
C64B C65B 1_555 1_555
C105B N30B 1_555 1_555
C107B C108B 1_555 1_555
C108B N30B 1_555 1_555
N17C Fe2C 1_555 1_555
N18C Fe2C 1_555 1_555
C56C C57C 1_555 1_555
C57C C58C 1_555 1_555
C63C C104C 1_555 1_555
C64C C65C 1_555 1_555
C105C N30C 1_555 1_555
C108C N30C 1_555 1_555
N18A Fe2A 1_555 1_555
C56A C57A 1_555 1_555
C57A C58A 1_555 1_555
C63A C104A 1_555 1_555
C64A C65A 1_555 1_555
C105A N30A 1_555 1_555
C107A C108A 1_555 1_555
C108A N30A 1_555 1_555
N21B Fe1B 1_555 1_555
N22B Fe1B 1_555 1_555
C69B C70B 1_555 1_555
C70B C71B 1_555 1_555
C77B C78B 1_555 1_555
C100B N29B 1_555 1_555
C102B C103B 1_555 1_555
C103B N29B 1_555 1_555
N22C Fe1C 1_555 1_555
C69C C70C 1_555 1_555
C70C C71C 1_555 1_555
C76C C99C 1_555 1_555
C77C C78C 1_555 1_555
C100C N29C 1_555 1_555
C103C N29C 1_555 1_555
N22A Fe1A 1_555 1_555
C69A C70A 1_555 1_555
C70A C71A 1_555 1_555
C76A C99A 1_555 1_555
C77A C78A 1_555 1_555
C100A N29A 1_555 1_555
C102A C103A 1_555 1_555
C103A N29A 1_555 1_555
C4A C5A 1_555 1_555
C5A C6A 1_555 1_555
C6A C7A 1_555 1_555
C12A C13A 1_555 1_555
N5A Fe2B 1_555 1_555
N6A Fe2B 1_555 1_555
C17A C18A 1_555 1_555
C18A C19A 1_555 1_555
C25A C26A 1_555 1_555
C30A C31A 1_555 1_555
C31A C32A 1_555 1_555
C32A C33A 1_555 1_555
C38A C39A 1_555 1_555
N13A Fe1C 1_555 1_555
N14A Fe1C 1_555 1_555
C43A C44A 1_555 1_555
C44A C45A 1_555 1_555
C51A C52A 1_555 1_555
C80A N26A 1_555 1_555
C83A C84A 1_555 1_555
C83A N26A 1_555 1_555
C88A C89A 1_555 1_555
C88A N25A 1_555 1_555
C90A N28A 1_555 1_555
C93A C94A 1_555 1_555
C93A N28A 1_555 1_555
C95A N27A 1_555 1_555
C97A C98A 1_555 1_555
C98A N27A 1_555 1_555
C4B C5B 1_555 1_555
C5B C6B 1_555 1_555
C6B C7B 1_555 1_555
C12B C13B 1_555 1_555
C17B C18B 1_555 1_555
C18B C19B 1_555 1_555
C19B C20B 1_555 1_555
C25B C26B 1_555 1_555
C30B C31B 1_555 1_555
C31B C32B 1_555 1_555
C32B C33B 1_555 1_555
C38B C39B 1_555 1_555
C43B C44B 1_555 1_555
C44B C45B 1_555 1_555
C45B C46B 1_555 1_555
C51B C52B 1_555 1_555
C80B N26B 1_555 1_555
C83B C84B 1_555 1_555
C83B N26B 1_555 1_555
C88B C89B 1_555 1_555
C88B N25B 1_555 1_555
C90B N28B 1_555 1_555
C93B C94B 1_555 1_555
C93B N28B 1_555 1_555
C95B N27B 1_555 1_555
C97B C98B 1_555 1_555
C98B N27B 1_555 1_555
C4C C5C 1_555 1_555
C5C C6C 1_555 1_555
C6C C7C 1_555 1_555
C12C C13C 1_555 1_555
C17C C18C 1_555 1_555
C18C C19C 1_555 1_555
C19C C20C 1_555 1_555
C25C C26C 1_555 1_555
C30C C31C 1_555 1_555
C31C C32C 1_555 1_555
C32C C33C 1_555 1_555
C38C C39C 1_555 1_555
C43C C44C 1_555 1_555
C44C C45C 1_555 1_555
C45C C46C 1_555 1_555
C51C C52C 1_555 1_555
C80C N26C 1_555 1_555
C83C C84C 1_555 1_555
C83C N26C 1_555 1_555
C88C C89C 1_555 1_555
C88C N25C 1_555 1_555
C90C N28C 1_555 1_555
C93C C94C 1_555 1_555
C93C N28C 1_555 1_555
C95C N27C 1_555 1_555
C97C C98C 1_555 1_555
C98C N27C 1_555 1_555

#END
