
#######################################################################
#
#                 Cambridge Crystallographic Data Centre
#                                CCDC 
#
#######################################################################
#
# If this CIF has been generated from an entry in the Cambridge 
# Structural Database, then it will include bibliographic, chemical, 
# crystal, experimental, refinement or atomic coordinate data resulting 
# from the CCDC's data processing and validation procedures.
#
#######################################################################

data_PALMAR
_chemical_formula_moiety         
'C108 H144 N36 Pd6 12+,C27 H30 N6 O4,12(N1 O3 1-),14(H2 O1)'
_chemical_name_systematic        
"tetrakis(\m~3~-2,4,6-tris(4-Pyridyl)-1,3,5-triazine)-hexakis(N,N,N',N'-tetramethylethylenediamine)-hexa-palladium acetyl-tryptophyl-tryptophyl-alanine amide clathrate dodecanitrate tetradecahydrate"
_symmetry_cell_setting           monoclinic
_symmetry_space_group_name_H-M   'C 2/c'
_symmetry_Int_Tables_number      15
_space_group_name_Hall           '-C 2yn'
loop_
_symmetry_equiv_pos_site_id
_symmetry_equiv_pos_as_xyz
1 x,y,z
2 1/2+x,1/2+y,z
3 -x,y,1/2-z
4 1/2-x,1/2+y,1/2-z
5 -x,-y,-z
6 1/2-x,1/2-y,-z
7 x,-y,1/2+z
8 1/2+x,1/2-y,1/2+z
_cell_length_a                   70.377(14)
_cell_length_b                   17.181(3)
_cell_length_c                   42.159(8)
_cell_angle_alpha                90
_cell_angle_beta                 99.90(3)
_cell_angle_gamma                90
_cell_volume                     50217.4
_exptl_crystal_colour            yellow
_exptl_crystal_description       block
_cell_formula_units_Z            8
loop_
_atom_site_label
_atom_site_type_symbol
_atom_site_fract_x
_atom_site_fract_y
_atom_site_fract_z
C1 C 0.0101(3) 0.6551(13) 0.4015(5)
H1 H 0.0011 0.6983 0.4001
H2 H 0.0030 0.6093 0.3928
C2 C 0.0264(3) 0.6740(13) 0.3808(5)
H3 H 0.0208 0.6804 0.3583
H4 H 0.0332 0.7214 0.3884
C3 C 0.1192(3) -0.2155(13) 0.3393(5)
H5 H 0.1194 -0.2662 0.3292
H6 H 0.1063 -0.1944 0.3332
C4 C 0.1312(3) -0.1705(13) 0.3282(5)
H7 H 0.1289 -0.1710 0.3048
H8 H 0.1444 -0.1864 0.3360
C5 C 0.2364(3) -0.1719(13) 0.7375(5)
H9 H 0.2408 -0.1708 0.7606
H10 H 0.2477 -0.1802 0.7275
C6 C 0.2252(3) -0.2325(13) 0.7312(5)
H11 H 0.2196 -0.2435 0.7501
H12 H 0.2334 -0.2766 0.7281
C7 C 0.1226(3) 0.6619(13) 0.7916(5)
H13 H 0.1208 0.7177 0.7893
H14 H 0.1181 0.6473 0.8113
C8 C 0.1393(3) 0.6504(13) 0.7960(5)
H15 H 0.1429 0.6354 0.8184
H16 H 0.1453 0.7006 0.7939
C9 C -0.0200(3) -0.0452(13) 0.6142(5)
H17 H -0.0279 -0.0426 0.6309
H18 H -0.0285 -0.0404 0.5936
C10 C -0.0109(3) -0.1198(12) 0.6156(5)
H19 H -0.0196 -0.1553 0.6023
H20 H -0.0096 -0.1384 0.6376
C11 C 0.2664(3) 0.5510(13) 0.5084(5)
H21 H 0.2686 0.6058 0.5134
H22 H 0.2790 0.5262 0.5114
C12 C 0.2585(3) 0.5451(13) 0.4772(5)
H23 H 0.2662 0.5079 0.4676
H24 H 0.2602 0.5951 0.4674
C13 C 0.00357(16) 0.5966(9) 0.4486(4)
H25 H 0.0065 0.5967 0.4717
H26 H 0.0033 0.5439 0.4409
H27 H -0.0088 0.6203 0.4416
C14 C 0.02390(19) 0.7106(7) 0.4518(3)
H28 H 0.0127 0.7423 0.4517
H29 H 0.0330 0.7380 0.4415
H30 H 0.0296 0.6992 0.4737
C15 C 0.0330(2) 0.5342(10) 0.3643(3)
H31 H 0.0432 0.4962 0.3665
H32 H 0.0297 0.5497 0.3422
H33 H 0.0219 0.5121 0.3713
C16 C 0.0584(2) 0.6414(10) 0.3756(4)
H34 H 0.0551 0.6693 0.3557
H35 H 0.0673 0.6005 0.3730
H36 H 0.0643 0.6764 0.3922
C17 C 0.1077(4) -0.2639(11) 0.3917(6)
H37 H 0.0963 -0.2349 0.3837
H38 H 0.1098 -0.2649 0.4148
H39 H 0.1063 -0.3162 0.3836
C18 C 0.1432(4) -0.2562(14) 0.3925(7)
H40 H 0.1437 -0.2791 0.4134
H41 H 0.1522 -0.2140 0.3939
H42 H 0.1464 -0.2948 0.3778
C19 C 0.1452(3) -0.0397(13) 0.3370(5)
H43 H 0.1486 -0.0466 0.3161
H44 H 0.1560 -0.0532 0.3533
H45 H 0.1417 0.0136 0.3397
C20 C 0.1095(3) -0.0539(14) 0.3253(5)
H46 H 0.0987 -0.0890 0.3241
H47 H 0.1107 -0.0371 0.3040
H48 H 0.1073 -0.0096 0.3381
C21 C 0.2452(3) -0.0643(16) 0.7148(6)
H49 H 0.2515 -0.1018 0.7033
H50 H 0.2544 -0.0417 0.7317
H51 H 0.2396 -0.0242 0.7003
C22 C 0.2238(4) -0.0535(14) 0.7574(5)
H52 H 0.2335 -0.0589 0.7763
H53 H 0.2116 -0.0715 0.7619
H54 H 0.2227 0.0002 0.7511
C23 C 0.1912(3) -0.2652(15) 0.7108(10)
H55 H 0.1804 -0.2653 0.6934
H56 H 0.1880 -0.2366 0.7286
H57 H 0.1944 -0.3178 0.7173
C24 C 0.2163(5) -0.2549(14) 0.6749(6)
H58 H 0.2160 -0.2141 0.6592
H59 H 0.2094 -0.2994 0.6650
H60 H 0.2294 -0.2691 0.6829
C25 C 0.0980(3) 0.6864(12) 0.7418(5)
H61 H 0.0866 0.7019 0.7499
H62 H 0.0945 0.6669 0.7203
H63 H 0.1064 0.7304 0.7418
C26 C 0.0960(3) 0.5742(11) 0.7748(5)
H64 H 0.1028 0.5470 0.7932
H65 H 0.0909 0.5373 0.7584
H66 H 0.0856 0.6036 0.7809
C27 C 0.1641(3) 0.6422(12) 0.7660(5)
H67 H 0.1584 0.6735 0.7480
H68 H 0.1734 0.6073 0.7593
H69 H 0.1705 0.6753 0.7829
C28 C 0.1562(4) 0.5354(13) 0.7952(5)
H70 H 0.1614 0.5516 0.8167
H71 H 0.1661 0.5123 0.7854
H72 H 0.1461 0.4978 0.7959
C29 C -0.0168(3) 0.0829(14) 0.5937(6)
H73 H -0.0303 0.0853 0.5947
H74 H -0.0151 0.0691 0.5723
H75 H -0.0109 0.1327 0.5993
C30 C -0.0055(3) 0.0382(14) 0.6506(5)
H76 H -0.0181 0.0490 0.6552
H77 H 0.0026 0.0831 0.6555
H78 H 0.0001 -0.0051 0.6633
C31 C 0.0041(3) -0.1555(12) 0.5744(4)
H79 H 0.0147 -0.1429 0.5637
H80 H -0.0075 -0.1330 0.5628
H81 H 0.0027 -0.2110 0.5751
C32 C 0.0203(3) -0.1802(9) 0.6263(5)
H82 H 0.0158 -0.2324 0.6218
H83 H 0.0202 -0.1684 0.6486
H84 H 0.0332 -0.1755 0.6221
C33 C 0.2679(2) 0.4543(14) 0.5442(6)
H85 H 0.2786 0.4734 0.5595
H86 H 0.2727 0.4308 0.5264
H87 H 0.2609 0.4164 0.5543
C34 C 0.2530(4) 0.5736(17) 0.5568(7)
H88 H 0.2590 0.5549 0.5776
H89 H 0.2395 0.5820 0.5565
H90 H 0.2590 0.6218 0.5523
C35 C 0.2238(3) 0.5818(17) 0.4527(6)
H91 H 0.2302 0.6310 0.4568
H92 H 0.2124 0.5815 0.4624
H93 H 0.2202 0.5741 0.4299
C36 C 0.2356(4) 0.4528(16) 0.4399(6)
H94 H 0.2376 0.4747 0.4198
H95 H 0.2233 0.4275 0.4371
H96 H 0.2456 0.4155 0.4471
C37 C 0.05528(15) 0.5747(6) 0.5040(3)
H97 H 0.0609 0.6224 0.5005
C38 C 0.05766(15) 0.5451(6) 0.5347(3)
H98 H 0.0645 0.5734 0.5517
C39 C 0.03690(14) 0.4685(6) 0.4845(2)
H99 H 0.0295 0.4426 0.4673
C40 C 0.03893(14) 0.4352(6) 0.5148(3)
H100 H 0.0330 0.3881 0.5179
C41 C 0.08457(15) 0.5346(8) 0.4391(3)
H101 H 0.0861 0.5870 0.4444
C42 C 0.10058(17) 0.4896(9) 0.4395(3)
H102 H 0.1128 0.5115 0.4448
C43 C 0.06475(16) 0.4285(8) 0.4238(3)
H103 H 0.0524 0.4078 0.4180
C44 C 0.08038(17) 0.3801(8) 0.4247(3)
H104 H 0.0787 0.3272 0.4204
C45 C 0.1106(2) 0.0523(10) 0.3943(3)
H105 H 0.0988 0.0289 0.3867
C46 C 0.1109(2) 0.1280(10) 0.4020(3)
H106 H 0.0993 0.1552 0.3998
C47 C 0.1436(2) 0.0467(11) 0.4078(4)
H107 H 0.1549 0.0178 0.4090
C48 C 0.1455(2) 0.1208(11) 0.4165(4)
H108 H 0.1576 0.1415 0.4245
C49 C 0.10610(17) -0.1128(8) 0.4443(3)
H109 H 0.0952 -0.1095 0.4284
C50 C 0.10351(17) -0.1105(8) 0.4759(3)
H110 H 0.0914 -0.1026 0.4812
C51 C 0.13868(17) -0.1297(10) 0.4574(3)
H111 H 0.1505 -0.1387 0.4511
C52 C 0.13777(18) -0.1273(9) 0.4900(4)
H112 H 0.1490 -0.1303 0.5052
C53 C 0.18280(18) -0.1299(10) 0.6292(4)
H113 H 0.1949 -0.1374 0.6237
C54 C 0.16670(18) -0.1274(9) 0.6047(3)
H114 H 0.1682 -0.1301 0.5832
C55 C 0.16398(17) -0.1134(8) 0.6691(3)
H115 H 0.1630 -0.1057 0.6906
C56 C 0.14665(18) -0.1166(8) 0.6443(3)
H116 H 0.1345 -0.1159 0.6501
C57 C 0.21132(18) 0.0374(10) 0.6619(4)
H117 H 0.2189 0.0066 0.6508
C58 C 0.20866(19) 0.1119(10) 0.6543(4)
H118 H 0.2137 0.1317 0.6369
C59 C 0.1926(2) 0.0533(11) 0.7031(4)
H119 H 0.1868 0.0325 0.7194
C60 C 0.1911(2) 0.1303(10) 0.6956(3)
H120 H 0.1846 0.1624 0.7079
C61 C 0.08576(17) 0.4244(7) 0.6809(3)
H121 H 0.0804 0.3757 0.6831
C62 C 0.09804(17) 0.4571(7) 0.7060(3)
H122 H 0.1005 0.4310 0.7256
C63 C 0.10251(16) 0.5662(7) 0.6762(2)
H123 H 0.1084 0.6143 0.6749
C64 C 0.08977(16) 0.5396(7) 0.6499(3)
H124 H 0.0868 0.5697 0.6314
C65 C 0.15533(18) 0.5311(9) 0.6964(3)
H125 H 0.1536 0.5835 0.6912
C66 C 0.1668(2) 0.4900(9) 0.6801(3)
H126 H 0.1729 0.5129 0.6645
C67 C 0.16010(19) 0.3789(9) 0.7106(3)
H127 H 0.1615 0.3261 0.7153
C68 C 0.14900(18) 0.4256(9) 0.7262(3)
H128 H 0.1431 0.4040 0.7423
C69 C 0.05962(15) -0.0640(6) 0.6193(3)
H129 H 0.0579 -0.0630 0.6407
C70 C 0.07753(16) -0.0822(6) 0.6128(3)
H130 H 0.0876 -0.0934 0.6295
C71 C 0.06433(16) -0.0657(7) 0.5558(3)
H131 H 0.0657 -0.0645 0.5343
C72 C 0.04711(16) -0.0510(7) 0.5656(3)
H132 H 0.0364 -0.0426 0.5497
C73 C 0.03887(17) 0.1315(8) 0.6339(3)
H133 H 0.0412 0.1033 0.6530
C74 C 0.04547(15) 0.2070(7) 0.6333(3)
H134 H 0.0518 0.2307 0.6520
C75 C 0.03339(14) 0.2116(7) 0.5770(3)
H135 H 0.0316 0.2372 0.5573
C76 C 0.02681(15) 0.1368(6) 0.5793(3)
H136 H 0.0205 0.1126 0.5606
C77 C 0.21110(19) 0.4844(11) 0.5668(3)
H137 H 0.2092 0.5364 0.5609
C78 C 0.20399(17) 0.4510(10) 0.5941(3)
H138 H 0.1974 0.4830 0.6064
C79 C 0.2174(2) 0.3316(11) 0.5834(3)
H139 H 0.2202 0.2805 0.5898
C80 C 0.2241(2) 0.3552(12) 0.5575(4)
H140 H 0.2304 0.3220 0.5453
C81 C 0.2011(2) 0.3617(13) 0.4742(4)
H141 H 0.2119 0.3296 0.4759
C82 C 0.18386(19) 0.3342(10) 0.4613(3)
H142 H 0.1828 0.2830 0.4541
C83 C 0.16942(17) 0.4535(10) 0.4701(3)
H143 H 0.1583 0.4832 0.4693
C84 C 0.18798(19) 0.4890(11) 0.4839(4)
H144 H 0.1893 0.5403 0.4910
C85 C 0.05399(14) 0.4352(6) 0.5721(2)
C86 C 0.05047(14) 0.3308(6) 0.6028(3)
C87 C 0.06830(15) 0.4302(7) 0.6244(3)
C88 C 0.04998(15) 0.4735(6) 0.5404(2)
C89 C 0.04251(15) 0.2471(6) 0.6041(3)
C90 C 0.08136(15) 0.4653(7) 0.6518(2)
C91 C 0.09864(16) 0.4116(8) 0.4320(3)
C92 C 0.11608(19) 0.3578(11) 0.4315(3)
C93 C 0.12991(19) 0.2469(10) 0.4243(3)
C94 C 0.1286(2) 0.1680(10) 0.4135(4)
C95 C 0.14802(19) 0.3436(11) 0.4432(3)
C96 C 0.16758(18) 0.3795(10) 0.4583(3)
C97 C 0.19842(18) 0.1621(10) 0.6716(3)
C98 C 0.19478(18) 0.2421(10) 0.6617(3)
C99 C 0.19864(18) 0.3474(11) 0.6298(3)
C100 C 0.20653(19) 0.3749(11) 0.6025(4)
C101 C 0.18131(17) 0.3597(10) 0.6695(3)
C102 C 0.16915(18) 0.4126(9) 0.6879(3)
C103 C 0.14849(16) -0.1207(8) 0.6127(3)
C104 C 0.13148(16) -0.1138(7) 0.5871(3)
C105 C 0.11842(17) -0.1141(7) 0.5341(3)
C106 C 0.11985(16) -0.1204(8) 0.4999(3)
C107 C 0.09961(16) -0.1006(7) 0.5723(3)
C108 C 0.08041(15) -0.0835(7) 0.5819(3)
N1 N 0.01865(14) 0.6413(6) 0.4355(3)
N2 N 0.03990(16) 0.6057(8) 0.3852(3)
N3 N 0.1241(2) -0.2275(10) 0.3810(3)
N4 N 0.1274(3) -0.0943(11) 0.3404(3)
N5 N 0.2297(2) -0.1036(11) 0.7290(4)
N6 N 0.20765(19) -0.2290(9) 0.7001(4)
N7 N 0.1083(2) 0.6233(7) 0.7631(3)
N8 N 0.14893(19) 0.5965(9) 0.7781(3)
N9 N -0.00687(16) 0.0201(8) 0.6180(3)
N10 N 0.00772(15) -0.1257(6) 0.6059(3)
N11 N 0.25548(19) 0.5173(10) 0.5328(4)
N12 N 0.2363(2) 0.5207(11) 0.4662(4)
N13 N 0.04510(12) 0.5366(5) 0.4788(2)
N14 N 0.06655(12) 0.5053(6) 0.4311(2)
N15 N 0.12656(17) 0.0088(8) 0.3972(3)
N16 N 0.12299(14) -0.1193(7) 0.4349(3)
N17 N 0.20327(16) 0.0065(7) 0.6854(3)
N18 N 0.18135(14) -0.1218(7) 0.6603(3)
N19 N 0.14620(15) 0.5034(7) 0.7191(2)
N20 N 0.10654(13) 0.5257(5) 0.7029(2)
N21 N 0.02899(12) 0.0976(5) 0.6067(2)
N22 N 0.04446(12) -0.0477(5) 0.5964(2)
N23 N 0.20313(14) 0.4384(9) 0.4852(3)
N24 N 0.22099(15) 0.4330(9) 0.5501(3)
N25 N 0.06532(12) 0.4719(5) 0.5965(2)
N26 N 0.04579(11) 0.3650(5) 0.5739(2)
N27 N 0.06121(12) 0.3592(5) 0.6285(2)
N28 N 0.13280(13) 0.3964(8) 0.4439(2)
N29 N 0.11436(16) 0.2920(9) 0.4217(3)
N30 N 0.14796(16) 0.2725(9) 0.4348(3)
N31 N 0.18425(16) 0.2865(8) 0.6794(2)
N32 N 0.18817(14) 0.3929(8) 0.6453(2)
N33 N 0.20261(15) 0.2695(8) 0.6364(3)
N34 N 0.11453(13) -0.1074(5) 0.5961(3)
N35 N 0.10035(13) -0.1024(6) 0.5410(3)
N36 N 0.13406(13) -0.1209(6) 0.5565(3)
Pd1 Pd 0.042853(11) 0.57218(5) 0.432390(19)
Pd2 Pd 0.125323(18) -0.10705(9) 0.38817(3)
Pd3 Pd 0.205419(15) -0.11041(8) 0.69403(3)
Pd4 Pd 0.127540(15) 0.56328(6) 0.74014(2)
Pd5 Pd 0.018898(11) -0.01341(5) 0.60732(2)
Pd6 Pd 0.228893(15) 0.47678(10) 0.50883(3)
N37 N 0.1131(4) 0.3453(13) 0.6309(7)
H145 H 0.1131 0.3160 0.6474
C109 C 0.1227(5) 0.4136(16) 0.6304(6)
H146 H 0.1300 0.4361 0.6485
C110 C 0.1206(4) 0.4448(16) 0.6010(6)
C111 C 0.1266(4) 0.5315(12) 0.5919(6)
H147 H 0.1178 0.5494 0.5730
H148 H 0.1255 0.5666 0.6095
C112 C 0.1451(3) 0.5330(12) 0.5858(6)
H149 H 0.1557 0.5333 0.6043
C113 C 0.1455(3) 0.4710(11) 0.5599(5)
O1 O 0.1379(3) 0.4710(15) 0.5301(4)
N38 N 0.1541(3) 0.4057(10) 0.5698(6)
H150 H 0.1636 0.4067 0.5856
C114 C 0.1034(2) 0.3312(14) 0.6004(4)
C115 C 0.1063(2) 0.3963(10) 0.5823(6)
C116 C 0.0981(2) 0.3999(10) 0.5499(5)
C117 C 0.0870(2) 0.3384(14) 0.5356(4)
C118 C 0.08401(19) 0.2733(10) 0.5537(6)
C119 C 0.0922(2) 0.2697(10) 0.5861(6)
H151 H 0.0911 0.2282 0.5976
H152 H 0.0771 0.2342 0.5437
H153 H 0.0816 0.3434 0.5134
H154 H 0.1000 0.4466 0.5372
N39 N 0.1620(4) 0.1062(15) 0.4985(6)
H155 H 0.1677 0.0656 0.4927
C120 C 0.1702(4) 0.1724(14) 0.5123(7)
H156 H 0.1835 0.1779 0.5181
C121 C 0.1581(3) 0.2285(15) 0.5169(6)
C122 C 0.1632(2) 0.3039(12) 0.5402(5)
H157 H 0.1739 0.2920 0.5572
H158 H 0.1668 0.3474 0.5279
C123 C 0.1472(2) 0.3227(9) 0.5532(4)
H159 H 0.1348 0.3223 0.5385
C124 C 0.1490(3) 0.2682(12) 0.5824(4)
O2 O 0.1590(2) 0.2732(12) 0.6107(4)
N40 N 0.1384(4) 0.2055(10) 0.5782(5)
H160 H 0.1315 0.2008 0.5593
C125 C 0.1415(3) 0.1195(12) 0.4957(4)
C126 C 0.1406(2) 0.1990(11) 0.5012(4)
C127 C 0.1228(3) 0.2362(10) 0.4979(4)
C128 C 0.1059(2) 0.1938(17) 0.4889(6)
C129 C 0.1068(3) 0.1142(16) 0.4834(6)
C130 C 0.1246(4) 0.0771(9) 0.4867(5)
H161 H 0.1203 0.2872 0.5002
H162 H 0.0963 0.0782 0.4769
H163 H 0.0931 0.2108 0.4849
H164 H 0.1267 0.0220 0.4841
N41 N 0.1723(3) 0.0940(10) 0.5846(5)
H165 H 0.1807 0.0570 0.5859
H166 H 0.1712 0.1264 0.5689
C131 C 0.1601(7) 0.1022(16) 0.6096(7)
O3 O 0.1596(3) 0.0640(12) 0.6326(4)
C132 C 0.1363(6) 0.1412(15) 0.6006(7)
H167 H 0.1317 0.1595 0.6200
C133 C 0.1210(5) 0.0848(14) 0.5793(11)
H168 H 0.1112 0.0700 0.5915
H169 H 0.1275 0.0391 0.5735
H170 H 0.1151 0.1116 0.5601
N42 N 0.1438(3) 0.6141(12) 0.5570(10)
H171 H 0.1331 0.6383 0.5513
C134 C 0.1585(5) 0.6349(17) 0.5455(11)
O4 O 0.1697(4) 0.5844(11) 0.5390(8)
C135 C 0.1613(4) 0.7102(14) 0.5431(9)
H172 H 0.1721 0.7191 0.5326
H173 H 0.1637 0.7328 0.5642
H174 H 0.1500 0.7336 0.5307
N43 N 0.1042(6) 0.705(2) 0.5956(10)
O5 O 0.1085(4) 0.7146(15) 0.6294(7)
O6 O 0.0912(3) 0.7140(11) 0.5768(5)
O7 O 0.1244(4) 0.7181(16) 0.5931(7)
N44 N 0.1931(7) 0.650(3) 0.6139(10)
O8 O 0.1874(4) 0.5983(15) 0.6312(6)
O9 O 0.2117(4) 0.6424(15) 0.6072(7)
O10 O 0.1843(5) 0.725(2) 0.6081(8)
O11 O 0.1776(7) -0.331(3) 0.4578(12)
O12 O 0.2869(6) -0.052(3) 0.7827(10)
O13 O 0.3003(3) 0.0019(12) 0.7469(6)
O14 O 0.2806(7) 0.038(3) 0.8005(12)
N45 N 0.2866(7) 0.038(3) 0.7741(11)
O15 O 0.2660(8) -0.220(3) 0.8005(13)
O16 O 0.2650(7) -0.112(3) 0.8241(12)
O17 O 0.2270(7) 0.157(3) 0.7661(12)
O18 O 0.0986(6) 0.169(2) 0.3172(10)
O19 O 0.1247(8) 0.172(3) 0.3339(11)
O20 O 0.0038(3) -0.0064(11) 0.5249(5)
O21 O -0.0105(4) 0.1245(14) 0.5119(7)
O22 O 0.0841(2) 0.6250(9) 0.3083(4)
O23 O 0.01359(19) 0.2608(7) 0.4982(3)
O24 O 0.1170(2) 0.3711(9) 0.7777(4)
O25 O 0.0420(3) -0.0166(10) 0.6883(5)
O26 O -0.0073(2) 0.7672(8) 0.3267(4)
O27 O 0.2041(2) 0.6463(8) 0.5196(4)
O28 O 0.1383(3) 0.7178(11) 0.6952(5)
O29 O 0.2055(3) -0.0096(10) 0.5775(4)
O30 O 0.1799(3) -0.0115(11) 0.4771(5)
O31 O 0.0274(3) 0.7819(10) 0.3087(4)
O32 O 0.1957(3) 0.1628(12) 0.4083(5)
O33 O 0.2508(2) 0.1700(8) 0.6162(4)
O34 O 0.0348(3) 0.1445(12) 0.7127(5)
O35 O -0.0209(3) 0.6168(13) 0.3283(6)
O36 O 0.1126(3) 0.5799(11) 0.8666(5)
O37 O -0.0237(3) 0.5094(10) 0.3738(5)
O38 O 0.0064(4) 0.4217(16) 0.4135(7)
N46 N -0.0180(13) 0.466(5) 0.403(2)
O39 O -0.0279(8) 0.390(3) 0.4196(12)
O40 O 0.1543(3) -0.3223(12) 0.3023(5)
O41 O 0.2026(4) 0.3091(15) 0.7640(7)
O42 O 0.0712(8) 0.818(3) 0.6867(12)
O43 O 0.0233(8) 0.329(3) 0.3706(14)
O44 O -0.0451(5) 0.3868(19) 0.3383(9)
O45 O 0.0629(9) 0.774(4) 0.5121(15)
O46 O 0.2311(6) -0.101(2) 0.6170(9)
O47 O 0.0593(4) 0.7202(14) 0.6091(6)
O48 O 0.1412(4) 0.0788(14) 0.6812(6)
O49 O 0.0833(4) 0.7081(16) 0.8473(7)
O50 O 0.1111(5) -0.0121(18) 0.6799(8)
O51 O 0.2686(6) -0.226(2) 0.6845(10)
O52 O 0.2661(4) 0.3195(16) 0.5993(7)
O53 O 0.1770(7) -0.372(3) 0.3570(11)
O54 O 0.1751(6) -0.086(2) 0.7498(10)
O55 O 0.1467(15) 0.064(6) 0.735(3)
O56 O 0.2290(7) -0.473(3) 0.6619(11)
O57 O -0.0593(5) -0.1758(18) 0.5721(8)
O58 O 0.0586(6) 0.547(2) 0.7211(9)
O59 O 0.0519(4) 0.7754(17) 0.8693(7)
O60 O 0.1731(4) -0.2222(17) 0.2714(7)
O61 O 0.0390(5) 0.2757(19) 0.4532(8)
O62 O 0.0226(5) 0.108(2) 0.7638(9)
O63 O 0.2847(11) 0.209(4) 0.5853(19)
O64 O 0.1139(5) 0.230(2) 0.6769(9)
O65 O -0.0747(8) -0.038(3) 0.5669(14)
O66 O 0.2234(7) 0.755(3) 0.5277(12)
O67 O 0.0693(8) -0.223(3) 0.3117(13)
O68 O 0.0510(8) 0.852(3) 0.4812(13)
O69 O 0.0115(9) -0.105(3) 0.7091(14)
O70 O 0.2562(5) 0.4388(19) 0.6251(9)
O71 O 0.1052(6) -0.175(2) 0.6826(10)
O72 O -0.1072(9) 0.747(3) 0.2669(14)
N47? N 0.1496(7) -0.363(3) 0.4546(11)
O73? O 0.1391(4) -0.4006(17) 0.4489(7)
O74? O 0.1489(7) -0.293(3) 0.4717(12)
N48? N 0.2856(7) -0.095(3) 0.7821(12)
N49? N 0.2426(5) 0.1280(19) 0.7291(8)
O75? O 0.2452(6) 0.159(2) 0.7130(11)
O76? O 0.2243(6) 0.246(2) 0.7169(9)
N50? N 0.1331(9) 0.145(3) 0.3272(12)
O77? O 0.1428(9) 0.174(3) 0.3300(13)
N51? N 0.0000(9) 0.051(4) 0.5090(17)
O78? O -0.0073(16) 0.124(6) 0.544(3)
N52? N 0.0633(8) -0.126(3) 0.3568(12)
O79? O 0.0672(8) -0.037(3) 0.3837(12)
O80? O 0.0783(4) -0.1030(15) 0.3717(7)
O81? O 0.0523(5) -0.1664(19) 0.3657(8)
O82? O 0.1521(3) 0.6804(9) 0.6441(4)
O83? O 0.0845(4) 0.4764(15) 0.3513(6)
N53? N 0.0136(3) 0.6455(11) 0.5365(4)
O84? O 0.0739(4) 0.7188(16) 0.4576(7)
O85? O 0.1888(3) -0.1047(11) 0.5286(5)
O86? O 0.2215(3) 0.1336(12) 0.5699(5)
O87? O 0.2441(4) 0.2985(17) 0.4953(7)
O88? O 0.1908(5) 0.1457(18) 0.4761(8)
N54? N 0.2210(8) 0.160(3) 0.5302(15)
N55? N 0.1035(4) 0.7030(15) 0.5106(7)
O89? O 0.1082(5) 0.6788(17) 0.4792(8)
N56? N 0.0178(7) 0.377(2) 0.4089(10)
O90? O 0.1136(6) 0.540(2) 0.3590(9)
O91? O 0.0607(3) 0.8119(13) 0.4251(5)
O92? O 0.1744(9) -0.113(3) 0.4064(17)
O93? O 0.0404(7) -0.247(3) 0.5424(11)
O94? O 0.1545(8) 0.516(3) 0.3899(14)
O95? O 0.2175(5) 0.625(2) 0.7894(8)
O96? O -0.0487(5) 0.620(2) 0.2785(8)
N57? N 0.1817(6) -0.092(2) 0.4289(11)
O97? O 0.2227(4) 0.1868(16) 0.5117(7)
O98? O 0.2143(7) 0.745(3) 0.8083(11)
O99? O -0.0691(5) 0.7416(19) 0.2908(8)
N58? N 0.1532(5) 0.439(3) 0.3850(9)
O100? O 0.1223(6) 0.591(2) 0.4894(9)
N59? N 0.0939(5) 0.5122(18) 0.3543(7)
N60? N -0.0523(6) 0.696(3) 0.2833(10)
O101? O 0.0772(8) 0.040(3) 0.6913(14)
N61? N 0.1305(7) 0.697(3) 0.6246(12)
O102? O 0.0907(8) 0.119(3) 0.6484(13)
N62? N 0.0832(11) 0.097(4) 0.6736(19)
O103? O 0.1528(6) 0.385(3) 0.3778(11)
O104? O 0.0334(10) 0.662(4) 0.5106(17)
N63? N 0.0708(5) 0.744(2) 0.4425(9)
N64? N 0.2494(8) 0.334(3) 0.5076(13)
O105? O 0.0272(8) 0.692(3) 0.5376(12)
N65? N 0.1872(10) -0.116(4) 0.4965(17)
N66? N 0.2135(8) 0.683(4) 0.7954(13)
N67? N 0.1938(8) 0.128(3) 0.4599(15)
N68? N 0.2409(5) 0.230(2) 0.5020(8)
N69? N -0.0238(9) 0.637(3) 0.2162(14)
O106? O -0.0437(6) 0.655(2) 0.2148(10)
O107? O -0.0148(6) 0.571(2) 0.2197(10)
loop_
_geom_bond_atom_site_label_1
_geom_bond_atom_site_label_2
_geom_bond_site_symmetry_1
_geom_bond_site_symmetry_2
C1 H1 1_555 1_555
H2 C1 1_555 1_555
C2 C1 1_555 1_555
H3 C2 1_555 1_555
H4 C2 1_555 1_555
C3 H5 1_555 1_555
H6 C3 1_555 1_555
C4 C3 1_555 1_555
H7 C4 1_555 1_555
H8 C4 1_555 1_555
C5 H9 1_555 1_555
H10 C5 1_555 1_555
C6 C5 1_555 1_555
H11 C6 1_555 1_555
H12 C6 1_555 1_555
C7 H13 1_555 1_555
H14 C7 1_555 1_555
C8 C7 1_555 1_555
H15 C8 1_555 1_555
H16 C8 1_555 1_555
C9 H17 1_555 1_555
H18 C9 1_555 1_555
C10 C9 1_555 1_555
H19 C10 1_555 1_555
H20 C10 1_555 1_555
C11 H21 1_555 1_555
H22 C11 1_555 1_555
C12 C11 1_555 1_555
H23 C12 1_555 1_555
H24 C12 1_555 1_555
C13 H25 1_555 1_555
H26 C13 1_555 1_555
H27 C13 1_555 1_555
C14 H28 1_555 1_555
H29 C14 1_555 1_555
H30 C14 1_555 1_555
C15 H31 1_555 1_555
H32 C15 1_555 1_555
H33 C15 1_555 1_555
C16 H34 1_555 1_555
H35 C16 1_555 1_555
H36 C16 1_555 1_555
C17 H37 1_555 1_555
H38 C17 1_555 1_555
H39 C17 1_555 1_555
C18 H40 1_555 1_555
H41 C18 1_555 1_555
H42 C18 1_555 1_555
C19 H43 1_555 1_555
H44 C19 1_555 1_555
H45 C19 1_555 1_555
C20 H46 1_555 1_555
H47 C20 1_555 1_555
H48 C20 1_555 1_555
C21 H49 1_555 1_555
H50 C21 1_555 1_555
H51 C21 1_555 1_555
C22 H52 1_555 1_555
H53 C22 1_555 1_555
H54 C22 1_555 1_555
C23 H55 1_555 1_555
H56 C23 1_555 1_555
H57 C23 1_555 1_555
C24 H58 1_555 1_555
H59 C24 1_555 1_555
H60 C24 1_555 1_555
C25 H61 1_555 1_555
H62 C25 1_555 1_555
H63 C25 1_555 1_555
C26 H64 1_555 1_555
H65 C26 1_555 1_555
H66 C26 1_555 1_555
C27 H67 1_555 1_555
H68 C27 1_555 1_555
H69 C27 1_555 1_555
C28 H70 1_555 1_555
H71 C28 1_555 1_555
H72 C28 1_555 1_555
C29 H73 1_555 1_555
H74 C29 1_555 1_555
H75 C29 1_555 1_555
C30 H76 1_555 1_555
H77 C30 1_555 1_555
H78 C30 1_555 1_555
C31 H79 1_555 1_555
H80 C31 1_555 1_555
H81 C31 1_555 1_555
C32 H82 1_555 1_555
H83 C32 1_555 1_555
H84 C32 1_555 1_555
C33 H85 1_555 1_555
H86 C33 1_555 1_555
H87 C33 1_555 1_555
C34 H88 1_555 1_555
H89 C34 1_555 1_555
H90 C34 1_555 1_555
C35 H91 1_555 1_555
H92 C35 1_555 1_555
H93 C35 1_555 1_555
C36 H94 1_555 1_555
H95 C36 1_555 1_555
H96 C36 1_555 1_555
C37 H97 1_555 1_555
C38 C37 1_555 1_555
H98 C38 1_555 1_555
C39 H99 1_555 1_555
C40 C39 1_555 1_555
H100 C40 1_555 1_555
C41 H101 1_555 1_555
C42 C41 1_555 1_555
H102 C42 1_555 1_555
C43 H103 1_555 1_555
C44 C43 1_555 1_555
H104 C44 1_555 1_555
C45 H105 1_555 1_555
C46 C45 1_555 1_555
H106 C46 1_555 1_555
C47 H107 1_555 1_555
C48 C47 1_555 1_555
H108 C48 1_555 1_555
C49 H109 1_555 1_555
C50 C49 1_555 1_555
H110 C50 1_555 1_555
C51 H111 1_555 1_555
C52 C51 1_555 1_555
H112 C52 1_555 1_555
C53 H113 1_555 1_555
C54 C53 1_555 1_555
H114 C54 1_555 1_555
C55 H115 1_555 1_555
C56 C55 1_555 1_555
H116 C56 1_555 1_555
C57 H117 1_555 1_555
C58 C57 1_555 1_555
H118 C58 1_555 1_555
C59 H119 1_555 1_555
C60 C59 1_555 1_555
H120 C60 1_555 1_555
C61 H121 1_555 1_555
C62 C61 1_555 1_555
H122 C62 1_555 1_555
C63 H123 1_555 1_555
C64 C63 1_555 1_555
H124 C64 1_555 1_555
C65 H125 1_555 1_555
C66 C65 1_555 1_555
H126 C66 1_555 1_555
C67 H127 1_555 1_555
C68 C67 1_555 1_555
H128 C68 1_555 1_555
C69 H129 1_555 1_555
C70 C69 1_555 1_555
H130 C70 1_555 1_555
C71 H131 1_555 1_555
C72 C71 1_555 1_555
H132 C72 1_555 1_555
C73 H133 1_555 1_555
C74 C73 1_555 1_555
H134 C74 1_555 1_555
C75 H135 1_555 1_555
C76 C75 1_555 1_555
H136 C76 1_555 1_555
C77 H137 1_555 1_555
C78 C77 1_555 1_555
H138 C78 1_555 1_555
C79 H139 1_555 1_555
C80 C79 1_555 1_555
H140 C80 1_555 1_555
C81 H141 1_555 1_555
C82 C81 1_555 1_555
H142 C82 1_555 1_555
C83 H143 1_555 1_555
C84 C83 1_555 1_555
H144 C84 1_555 1_555
C85 C88 1_555 1_555
C86 C89 1_555 1_555
C87 C90 1_555 1_555
C88 C38 1_555 1_555
C89 C74 1_555 1_555
C90 C61 1_555 1_555
C91 C42 1_555 1_555
C92 C91 1_555 1_555
C93 C94 1_555 1_555
C94 C46 1_555 1_555
C95 C96 1_555 1_555
C96 C82 1_555 1_555
C97 C58 1_555 1_555
C98 C97 1_555 1_555
C99 C100 1_555 1_555
C100 C78 1_555 1_555
C101 C102 1_555 1_555
C102 C66 1_555 1_555
C103 C54 1_555 1_555
C104 C103 1_555 1_555
C105 C106 1_555 1_555
C106 C50 1_555 1_555
C107 C108 1_555 1_555
C108 C70 1_555 1_555
N1 C1 1_555 1_555
N2 C2 1_555 1_555
N3 C3 1_555 1_555
N4 C4 1_555 1_555
N5 C5 1_555 1_555
N6 C6 1_555 1_555
N7 C7 1_555 1_555
N8 C8 1_555 1_555
N9 C9 1_555 1_555
N10 C10 1_555 1_555
N11 C11 1_555 1_555
N12 C12 1_555 1_555
N13 C37 1_555 1_555
N14 C41 1_555 1_555
N15 C45 1_555 1_555
N16 C49 1_555 1_555
N17 C57 1_555 1_555
N18 C53 1_555 1_555
N19 C65 1_555 1_555
N20 C62 1_555 1_555
N21 C73 1_555 1_555
N22 C69 1_555 1_555
N23 C81 1_555 1_555
N24 C77 1_555 1_555
N25 C85 1_555 1_555
N26 C85 1_555 1_555
N27 C86 1_555 1_555
N28 C92 1_555 1_555
N29 C92 1_555 1_555
N30 C93 1_555 1_555
N31 C98 1_555 1_555
N32 C99 1_555 1_555
N33 C98 1_555 1_555
N34 C104 1_555 1_555
N35 C105 1_555 1_555
N36 C104 1_555 1_555
Pd1 N1 1_555 1_555
Pd2 N3 1_555 1_555
Pd3 N5 1_555 1_555
Pd4 N7 1_555 1_555
Pd5 N9 1_555 1_555
Pd6 N11 1_555 1_555
N37 H145 1_555 1_555
C109 N37 1_555 1_555
H146 C109 1_555 1_555
C110 C109 1_555 1_555
C111 C110 1_555 1_555
H147 C111 1_555 1_555
H148 C111 1_555 1_555
C112 C111 1_555 1_555
H149 C112 1_555 1_555
C113 C112 1_555 1_555
O1 C113 1_555 1_555
N38 C113 1_555 1_555
H150 N38 1_555 1_555
C114 N37 1_555 1_555
C115 C110 1_555 1_555
C116 C115 1_555 1_555
C117 C116 1_555 1_555
C118 C117 1_555 1_555
C119 C114 1_555 1_555
H151 C119 1_555 1_555
H152 C118 1_555 1_555
H153 C117 1_555 1_555
H154 C116 1_555 1_555
N39 H155 1_555 1_555
C120 N39 1_555 1_555
H156 C120 1_555 1_555
C121 C120 1_555 1_555
C122 C121 1_555 1_555
H157 C122 1_555 1_555
H158 C122 1_555 1_555
C123 N38 1_555 1_555
H159 C123 1_555 1_555
C124 C123 1_555 1_555
O2 C124 1_555 1_555
N40 C124 1_555 1_555
H160 N40 1_555 1_555
C125 N39 1_555 1_555
C126 C121 1_555 1_555
C127 C126 1_555 1_555
C128 C127 1_555 1_555
C129 C128 1_555 1_555
C130 C125 1_555 1_555
H161 C127 1_555 1_555
H162 C129 1_555 1_555
H163 C128 1_555 1_555
H164 C130 1_555 1_555
N41 H165 1_555 1_555
H166 N41 1_555 1_555
C131 N41 1_555 1_555
O3 C131 1_555 1_555
C132 N40 1_555 1_555
H167 C132 1_555 1_555
C133 C132 1_555 1_555
H168 C133 1_555 1_555
H169 C133 1_555 1_555
H170 C133 1_555 1_555
N42 C112 1_555 1_555
H171 N42 1_555 1_555
C134 N42 1_555 1_555
O4 C134 1_555 1_555
C135 C134 1_555 1_555
H172 C135 1_555 1_555
H173 C135 1_555 1_555
H174 C135 1_555 1_555
N43 O5 1_555 1_555
O6 N43 1_555 1_555
O7 N43 1_555 1_555
N44 O8 1_555 1_555
O9 N44 1_555 1_555
O10 N44 1_555 1_555
O12 N45 1_555 1_555
O13 N45 1_555 1_555
O14 N45 1_555 1_555
O37 N46 1_555 1_555
O38 N46 1_555 1_555
N46 O39 1_555 1_555
C13 N1 1_555 1_555
C14 N1 1_555 1_555
C15 N2 1_555 1_555
C16 N2 1_555 1_555
C17 N3 1_555 1_555
C18 N3 1_555 1_555
C19 N4 1_555 1_555
C20 N4 1_555 1_555
C21 N5 1_555 1_555
C22 N5 1_555 1_555
C23 N6 1_555 1_555
C24 N6 1_555 1_555
C25 N7 1_555 1_555
C26 N7 1_555 1_555
C27 N8 1_555 1_555
C28 N8 1_555 1_555
C29 N9 1_555 1_555
C30 N9 1_555 1_555
C31 N10 1_555 1_555
C32 N10 1_555 1_555
C33 N11 1_555 1_555
C34 N11 1_555 1_555
C35 N12 1_555 1_555
C36 N12 1_555 1_555
C39 N13 1_555 1_555
C40 C88 1_555 1_555
C43 N14 1_555 1_555
C44 C91 1_555 1_555
C47 N15 1_555 1_555
C48 C94 1_555 1_555
C51 N16 1_555 1_555
C52 C106 1_555 1_555
C55 N18 1_555 1_555
C56 C103 1_555 1_555
C59 N17 1_555 1_555
C60 C97 1_555 1_555
C63 N20 1_555 1_555
C64 C90 1_555 1_555
C67 C102 1_555 1_555
C68 N19 1_555 1_555
C71 C108 1_555 1_555
C72 N22 1_555 1_555
C75 C89 1_555 1_555
C76 N21 1_555 1_555
C79 C100 1_555 1_555
C80 N24 1_555 1_555
C83 C96 1_555 1_555
C84 N23 1_555 1_555
C86 N26 1_555 1_555
C87 N25 1_555 1_555
C87 N27 1_555 1_555
C93 N29 1_555 1_555
C95 N28 1_555 1_555
C95 N30 1_555 1_555
C99 N33 1_555 1_555
C101 N31 1_555 1_555
C101 N32 1_555 1_555
C105 N36 1_555 1_555
C107 N34 1_555 1_555
C107 N35 1_555 1_555
N2 Pd1 1_555 1_555
N4 Pd2 1_555 1_555
N6 Pd3 1_555 1_555
N8 Pd4 1_555 1_555
N10 Pd5 1_555 1_555
N12 Pd6 1_555 1_555
N13 Pd1 1_555 1_555
N14 Pd1 1_555 1_555
N15 Pd2 1_555 1_555
N16 Pd2 1_555 1_555
N17 Pd3 1_555 1_555
N18 Pd3 1_555 1_555
N19 Pd4 1_555 1_555
N20 Pd4 1_555 1_555
N21 Pd5 1_555 1_555
N22 Pd5 1_555 1_555
N23 Pd6 1_555 1_555
N24 Pd6 1_555 1_555
C114 C115 1_555 1_555
C118 C119 1_555 1_555
C122 C123 1_555 1_555
C125 C126 1_555 1_555
C129 C130 1_555 1_555
C131 C132 1_555 1_555

#END
