# generated using pymatgen
data_H174Pd6C135N69O107
_symmetry_space_group_name_H-M   'P 1'
_cell_length_a   17.18100000
_cell_length_b   36.22191633
_cell_length_c   42.15900000
_cell_angle_alpha   99.61482943
_cell_angle_beta   90.00000000
_cell_angle_gamma   103.71916130
_symmetry_Int_Tables_number   1
_chemical_formula_structural   H174Pd6C135N69O107
_chemical_formula_sum   'H696 Pd24 C540 N276 O428'
_cell_volume   25108.68242360
_cell_formula_units_Z   4
loop_
 _symmetry_equiv_pos_site_id
 _symmetry_equiv_pos_as_xyz
  1  'x, y, z'
loop_
 _atom_site_type_symbol
 _atom_site_label
 _atom_site_symmetry_multiplicity
 _atom_site_fract_x
 _atom_site_fract_y
 _atom_site_fract_z
 _atom_site_occupancy
  C  C1  1  0.334800  0.979800  0.598500  1
  C  C2  1  0.355000  0.020200  0.901500  1
  C  C3  1  0.665200  0.020200  0.401500  1
  C  C4  1  0.645000  0.979800  0.098500  1
  C  C5  1  0.299600  0.947200  0.619200  1
  C  C6  1  0.352400  0.052800  0.880800  1
  C  C7  1  0.700400  0.052800  0.380800  1
  C  C8  1  0.647600  0.947200  0.119200  1
  C  C9  1  0.096300  0.761600  0.660700  1
  C  C10  1  0.334700  0.238400  0.839300  1
  C  C11  1  0.903700  0.238400  0.339300  1
  C  C12  1  0.665300  0.761600  0.160700  1
  C  C13  1  0.039300  0.737600  0.671800  1
  C  C14  1  0.301700  0.262400  0.828200  1
  C  C15  1  0.960700  0.262400  0.328200  1
  C  C16  1  0.698300  0.737600  0.171800  1
  C  C17  1  0.935500  0.527200  0.262500  1
  C  C18  1  0.408300  0.472800  0.237500  1
  C  C19  1  0.064500  0.472800  0.737500  1
  C  C20  1  0.591700  0.527200  0.762500  1
  C  C21  1  0.007300  0.549600  0.268800  1
  C  C22  1  0.457700  0.450400  0.231200  1
  C  C23  1  0.992700  0.450400  0.731200  1
  C  C24  1  0.542300  0.549600  0.768800  1
  C  C25  1  0.215500  0.754800  0.208400  1
  C  C26  1  0.460700  0.245200  0.291600  1
  C  C27  1  0.784500  0.245200  0.791600  1
  C  C28  1  0.539300  0.754800  0.708400  1
  C  C29  1  0.210300  0.721400  0.204000  1
  C  C30  1  0.488900  0.278600  0.296000  1
  C  C31  1  0.789700  0.278600  0.796000  1
  C  C32  1  0.511100  0.721400  0.704000  1
  C  C33  1  0.065200  0.040000  0.385800  1
  C  C34  1  0.025200  0.960000  0.114200  1
  C  C35  1  0.934800  0.960000  0.614200  1
  C  C36  1  0.974800  0.040000  0.885800  1
  C  C37  1  0.130700  0.021800  0.384400  1
  C  C38  1  0.108900  0.978200  0.115600  1
  C  C39  1  0.869300  0.978200  0.615600  1
  C  C40  1  0.891100  0.021800  0.884400  1
  C  C41  1  0.182600  0.467200  0.491600  1
  C  C42  1  0.715400  0.532800  0.008400  1
  C  C43  1  0.817400  0.532800  0.508400  1
  C  C44  1  0.284600  0.467200  0.991600  1
  C  C45  1  0.196400  0.483000  0.522800  1
  C  C46  1  0.713400  0.517000  0.977200  1
  C  C47  1  0.803600  0.517000  0.477200  1
  C  C48  1  0.286600  0.483000  0.022800  1
  C  C49  1  0.399830  0.992860  0.551400  1
  C  C50  1  0.406970  0.007140  0.948600  1
  C  C51  1  0.600170  0.007140  0.448600  1
  C  C52  1  0.593030  0.992860  0.051400  1
  C  C53  1  0.265500  0.952200  0.548200  1
  C  C54  1  0.313300  0.047800  0.951800  1
  C  C55  1  0.734500  0.047800  0.451800  1
  C  C56  1  0.686700  0.952200  0.048200  1
  C  C57  1  0.432800  0.934000  0.635700  1
  C  C58  1  0.498800  0.066000  0.864300  1
  C  C59  1  0.567200  0.066000  0.364300  1
  C  C60  1  0.501200  0.934000  0.135700  1
  C  C61  1  0.300200  0.883200  0.624400  1
  C  C62  1  0.417000  0.116800  0.875600  1
  C  C63  1  0.699800  0.116800  0.375600  1
  C  C64  1  0.583000  0.883200  0.124400  1
  C  C65  1  0.156200  0.784600  0.608300  1
  C  C66  1  0.371600  0.215400  0.891700  1
  C  C67  1  0.843800  0.215400  0.391700  1
  C  C68  1  0.628400  0.784600  0.108300  1
  C  C69  1  0.113000  0.713600  0.607500  1
  C  C70  1  0.399400  0.286400  0.892500  1
  C  C71  1  0.887000  0.286400  0.392500  1
  C  C72  1  0.600600  0.713600  0.107500  1
  C  C73  1  0.894500  0.709600  0.663000  1
  C  C74  1  0.184900  0.290400  0.837000  1
  C  C75  1  0.105500  0.290400  0.337000  1
  C  C76  1  0.815100  0.709600  0.163000  1
  C  C77  1  0.944400  0.781000  0.674700  1
  C  C78  1  0.163400  0.219000  0.825300  1
  C  C79  1  0.055600  0.219000  0.325300  1
  C  C80  1  0.836600  0.781000  0.174700  1
  C  C81  1  0.819100  0.509600  0.285200  1
  C  C82  1  0.309500  0.490400  0.214800  1
  C  C83  1  0.180900  0.490400  0.714800  1
  C  C84  1  0.690500  0.509600  0.785200  1
  C  C85  1  0.829700  0.552400  0.242600  1
  C  C86  1  0.277300  0.447600  0.257400  1
  C  C87  1  0.170300  0.447600  0.757400  1
  C  C88  1  0.722700  0.552400  0.742600  1
  C  C89  1  0.074000  0.617600  0.289200  1
  C  C90  1  0.456400  0.382400  0.210800  1
  C  C91  1  0.926000  0.382400  0.710800  1
  C  C92  1  0.543600  0.617600  0.789200  1
  C  C93  1  0.038600  0.567400  0.325100  1
  C  C94  1  0.471200  0.432600  0.174900  1
  C  C95  1  0.961400  0.432600  0.674900  1
  C  C96  1  0.528800  0.567400  0.825100  1
  C  C97  1  0.215600  0.804000  0.258200  1
  C  C98  1  0.411600  0.196000  0.241800  1
  C  C99  1  0.784400  0.196000  0.741800  1
  C  C100  1  0.588400  0.804000  0.758200  1
  C  C101  1  0.329800  0.808000  0.225200  1
  C  C102  1  0.521800  0.192000  0.274800  1
  C  C103  1  0.670200  0.192000  0.774800  1
  C  C104  1  0.478200  0.808000  0.725200  1
  C  C105  1  0.193700  0.671800  0.234000  1
  C  C106  1  0.521900  0.328200  0.266000  1
  C  C107  1  0.806300  0.328200  0.766000  1
  C  C108  1  0.478100  0.671800  0.734000  1
  C  C109  1  0.308400  0.687600  0.204800  1
  C  C110  1  0.620800  0.312400  0.295200  1
  C  C111  1  0.691600  0.312400  0.795200  1
  C  C112  1  0.379200  0.687600  0.704800  1
  C  C113  1  0.933900  0.033600  0.406300  1
  C  C114  1  0.900300  0.966400  0.093700  1
  C  C115  1  0.066100  0.966400  0.593700  1
  C  C116  1  0.099700  0.033600  0.906300  1
  C  C117  1  0.967300  0.011000  0.349400  1
  C  C118  1  0.956300  0.989000  0.150600  1
  C  C119  1  0.032700  0.989000  0.650600  1
  C  C120  1  0.043700  0.011000  0.849400  1
  C  C121  1  0.151400  0.991800  0.425600  1
  C  C122  1  0.159600  0.008200  0.074400  1
  C  C123  1  0.848600  0.008200  0.574400  1
  C  C124  1  0.840400  0.991800  0.925600  1
  C  C125  1  0.159900  0.959400  0.373700  1
  C  C126  1  0.200500  0.040600  0.126300  1
  C  C127  1  0.840100  0.040600  0.626300  1
  C  C128  1  0.799500  0.959400  0.873700  1
  C  C129  1  0.277800  0.464200  0.455800  1
  C  C130  1  0.813600  0.535800  0.044200  1
  C  C131  1  0.722200  0.535800  0.544200  1
  C  C132  1  0.186400  0.464200  0.955800  1
  C  C133  1  0.173400  0.494000  0.443200  1
  C  C134  1  0.679400  0.506000  0.056800  1
  C  C135  1  0.826600  0.506000  0.556800  1
  C  C136  1  0.320600  0.494000  0.943200  1
  C  C137  1  0.194400  0.552400  0.547300  1
  C  C138  1  0.642000  0.447600  0.952700  1
  C  C139  1  0.805600  0.447600  0.452700  1
  C  C140  1  0.358000  0.552400  0.047300  1
  C  C141  1  0.311600  0.528800  0.560100  1
  C  C142  1  0.782800  0.471200  0.939900  1
  C  C143  1  0.688400  0.471200  0.439900  1
  C  C144  1  0.217200  0.528800  0.060100  1
  C  C145  1  0.370020  0.889440  0.496000  1
  C  C146  1  0.480580  0.110560  0.004000  1
  C  C147  1  0.629980  0.110560  0.504000  1
  C  C148  1  0.519420  0.889440  0.996000  1
  C  C149  1  0.397240  0.884680  0.465300  1
  C  C150  1  0.512560  0.115320  0.034700  1
  C  C151  1  0.602760  0.115320  0.534700  1
  C  C152  1  0.487440  0.884680  0.965300  1
  C  C153  1  0.494600  0.926200  0.515500  1
  C  C154  1  0.568400  0.073800  0.984500  1
  C  C155  1  0.505400  0.073800  0.484500  1
  C  C156  1  0.431600  0.926200  0.015500  1
  C  C157  1  0.525870  0.922140  0.485200  1
  C  C158  1  0.603730  0.077860  0.014800  1
  C  C159  1  0.474130  0.077860  0.514800  1
  C  C160  1  0.396270  0.922140  0.985200  1
  C  C161  1  0.380830  0.830860  0.560900  1
  C  C162  1  0.549970  0.169140  0.939100  1
  C  C163  1  0.619170  0.169140  0.439100  1
  C  C164  1  0.450030  0.830860  0.060900  1
  C  C165  1  0.409820  0.798840  0.560500  1
  C  C166  1  0.610980  0.201160  0.939500  1
  C  C167  1  0.590180  0.201160  0.439500  1
  C  C168  1  0.389020  0.798840  0.060500  1
  C  C169  1  0.506750  0.870500  0.576200  1
  C  C170  1  0.636250  0.129500  0.923800  1
  C  C171  1  0.493250  0.129500  0.423800  1
  C  C172  1  0.363750  0.870500  0.076200  1
  C  C173  1  0.539520  0.839240  0.575300  1
  C  C174  1  0.700280  0.160760  0.924700  1
  C  C175  1  0.460480  0.160760  0.424700  1
  C  C176  1  0.299720  0.839240  0.075300  1
  C  C177  1  0.837100  0.778800  0.605700  1
  C  C178  1  0.058300  0.221200  0.894300  1
  C  C179  1  0.162900  0.221200  0.394300  1
  C  C180  1  0.941700  0.778800  0.105700  1
  C  C181  1  0.761100  0.778200  0.598000  1
  C  C182  1  0.982900  0.221800  0.902000  1
  C  C183  1  0.238900  0.221800  0.402000  1
  C  C184  1  0.017100  0.778200  0.098000  1
  C  C185  1  0.809700  0.712800  0.592200  1
  C  C186  1  0.096900  0.287200  0.907800  1
  C  C187  1  0.190300  0.287200  0.407800  1
  C  C188  1  0.903100  0.712800  0.092200  1
  C  C189  1  0.733700  0.709000  0.583500  1
  C  C190  1  0.024700  0.291000  0.916500  1
  C  C191  1  0.266300  0.291000  0.416500  1
  C  C192  1  0.975300  0.709000  0.083500  1
  C  C193  1  0.006700  0.787800  0.555700  1
  C  C194  1  0.218900  0.212200  0.944300  1
  C  C195  1  0.993300  0.212200  0.444300  1
  C  C196  1  0.781100  0.787800  0.055700  1
  C  C197  1  0.006990  0.792980  0.524100  1
  C  C198  1  0.214010  0.207020  0.975900  1
  C  C199  1  0.993010  0.207020  0.475900  1
  C  C200  1  0.785990  0.792980  0.024100  1
  C  C201  1  0.991020  0.722640  0.542600  1
  C  C202  1  0.268380  0.277360  0.957400  1
  C  C203  1  0.008980  0.277360  0.457400  1
  C  C204  1  0.731620  0.722640  0.042600  1
  C  C205  1  0.989530  0.724460  0.510000  1
  C  C206  1  0.265070  0.275540  0.990000  1
  C  C207  1  0.010470  0.275540  0.490000  1
  C  C208  1  0.734930  0.724460  0.010000  1
  C  C209  1  0.947100  0.634400  0.370800  1
  C  C210  1  0.312700  0.365600  0.129200  1
  C  C211  1  0.052900  0.365600  0.629200  1
  C  C212  1  0.687300  0.634400  0.870800  1
  C  C213  1  0.960700  0.666600  0.395300  1
  C  C214  1  0.294100  0.333400  0.104700  1
  C  C215  1  0.039300  0.333400  0.604700  1
  C  C216  1  0.705900  0.666600  0.895300  1
  C  C217  1  0.949420  0.672040  0.330900  1
  C  C218  1  0.277380  0.327960  0.169100  1
  C  C219  1  0.050580  0.327960  0.669100  1
  C  C220  1  0.722620  0.672040  0.830900  1
  C  C221  1  0.969950  0.706700  0.355700  1
  C  C222  1  0.263250  0.293300  0.144300  1
  C  C223  1  0.030050  0.293300  0.644300  1
  C  C224  1  0.736750  0.706700  0.855700  1
  C  C225  1  0.751280  0.577360  0.338100  1
  C  C226  1  0.173920  0.422640  0.161900  1
  C  C227  1  0.248720  0.422640  0.661900  1
  C  C228  1  0.826080  0.577360  0.838100  1
  C  C229  1  0.679440  0.582680  0.345700  1
  C  C230  1  0.096760  0.417320  0.154300  1
  C  C231  1  0.320560  0.417320  0.654300  1
  C  C232  1  0.903240  0.582680  0.845700  1
  C  C233  1  0.754100  0.614800  0.296900  1
  C  C234  1  0.139300  0.385200  0.203100  1
  C  C235  1  0.245900  0.385200  0.703100  1
  C  C236  1  0.860700  0.614800  0.796900  1
  C  C237  1  0.678600  0.617800  0.304400  1
  C  C238  1  0.060800  0.382200  0.195600  1
  C  C239  1  0.321400  0.382200  0.695600  1
  C  C240  1  0.939200  0.617800  0.804400  1
  C  C241  1  0.489840  0.828480  0.319100  1
  C  C242  1  0.661360  0.171520  0.180900  1
  C  C243  1  0.510160  0.171520  0.680900  1
  C  C244  1  0.338640  0.828480  0.819100  1
  C  C245  1  0.444860  0.803920  0.294000  1
  C  C246  1  0.640940  0.196080  0.206000  1
  C  C247  1  0.555140  0.196080  0.706000  1
  C  C248  1  0.359060  0.803920  0.794000  1
  C  C249  1  0.331290  0.794980  0.323800  1
  C  C250  1  0.536310  0.205020  0.176200  1
  C  C251  1  0.668710  0.205020  0.676200  1
  C  C252  1  0.463690  0.794980  0.823800  1
  C  C253  1  0.370630  0.820460  0.350100  1
  C  C254  1  0.550170  0.179540  0.149900  1
  C  C255  1  0.629370  0.179540  0.649900  1
  C  C256  1  0.449830  0.820460  0.850100  1
  C  C257  1  0.313570  0.689340  0.303600  1
  C  C258  1  0.624230  0.310660  0.196400  1
  C  C259  1  0.686430  0.310660  0.696400  1
  C  C260  1  0.375770  0.689340  0.803600  1
  C  C261  1  0.343200  0.666400  0.319900  1
  C  C262  1  0.676800  0.333600  0.180100  1
  C  C263  1  0.656800  0.333600  0.680100  1
  C  C264  1  0.323200  0.666400  0.819900  1
  C  C265  1  0.461000  0.679800  0.289400  1
  C  C266  1  0.781200  0.320200  0.210600  1
  C  C267  1  0.539000  0.320200  0.710600  1
  C  C268  1  0.218800  0.679800  0.789400  1
  C  C269  1  0.425400  0.702000  0.273800  1
  C  C270  1  0.723400  0.298000  0.226200  1
  C  C271  1  0.574600  0.298000  0.726200  1
  C  C272  1  0.276600  0.702000  0.773800  1
  C  C273  1  0.004380  0.880760  0.380700  1
  C  C274  1  0.123620  0.119240  0.119300  1
  C  C275  1  0.995620  0.119240  0.619300  1
  C  C276  1  0.876380  0.880760  0.880700  1
  C  C277  1  0.004670  0.844940  0.387200  1
  C  C278  1  0.159730  0.155060  0.112800  1
  C  C279  1  0.995330  0.155060  0.612800  1
  C  C280  1  0.840270  0.844940  0.887200  1
  C  C281  1  0.001370  0.871340  0.444200  1
  C  C282  1  0.130030  0.128660  0.055800  1
  C  C283  1  0.998630  0.128660  0.555800  1
  C  C284  1  0.869970  0.871340  0.944200  1
  C  C285  1  0.003890  0.905780  0.434400  1
  C  C286  1  0.098110  0.094220  0.065600  1
  C  C287  1  0.996110  0.094220  0.565600  1
  C  C288  1  0.901890  0.905780  0.934400  1
  C  C289  1  0.829630  0.922260  0.366100  1
  C  C290  1  0.907370  0.077740  0.133900  1
  C  C291  1  0.170370  0.077740  0.633900  1
  C  C292  1  0.092630  0.922260  0.866100  1
  C  C293  1  0.747530  0.909060  0.366700  1
  C  C294  1  0.838470  0.090940  0.133300  1
  C  C295  1  0.252470  0.090940  0.633300  1
  C  C296  1  0.161530  0.909060  0.866700  1
  C  C297  1  0.755010  0.933220  0.423000  1
  C  C298  1  0.821790  0.066780  0.077000  1
  C  C299  1  0.244990  0.066780  0.577000  1
  C  C300  1  0.178210  0.933220  0.923000  1
  C  C301  1  0.836390  0.946380  0.420700  1
  C  C302  1  0.890010  0.053620  0.079300  1
  C  C303  1  0.163610  0.053620  0.579300  1
  C  C304  1  0.109990  0.946380  0.920700  1
  C  C305  1  0.304500  0.577800  0.433200  1
  C  C306  1  0.726700  0.422200  0.066800  1
  C  C307  1  0.695500  0.422200  0.566800  1
  C  C308  1  0.273300  0.577800  0.933200  1
  C  C309  1  0.345010  0.592020  0.405900  1
  C  C310  1  0.752990  0.407980  0.094100  1
  C  C311  1  0.654990  0.407980  0.594100  1
  C  C312  1  0.247010  0.592020  0.905900  1
  C  C313  1  0.451000  0.565200  0.416600  1
  C  C314  1  0.885800  0.434800  0.083400  1
  C  C315  1  0.549000  0.434800  0.583400  1
  C  C316  1  0.114200  0.565200  0.916600  1
  C  C317  1  0.420700  0.551800  0.442500  1
  C  C318  1  0.868900  0.448200  0.057500  1
  C  C319  1  0.579300  0.448200  0.557500  1
  C  C320  1  0.131100  0.551800  0.942500  1
  C  C321  1  0.437200  0.597800  0.525800  1
  C  C322  1  0.839400  0.402200  0.974200  1
  C  C323  1  0.562800  0.402200  0.474200  1
  C  C324  1  0.160600  0.597800  0.025800  1
  C  C325  1  0.481940  0.632280  0.538700  1
  C  C326  1  0.849660  0.367720  0.961300  1
  C  C327  1  0.518060  0.367720  0.461300  1
  C  C328  1  0.150340  0.632280  0.038700  1
  C  C329  1  0.377080  0.661160  0.529900  1
  C  C330  1  0.715920  0.338840  0.970100  1
  C  C331  1  0.622920  0.338840  0.470100  1
  C  C332  1  0.284080  0.661160  0.029900  1
  C  C333  1  0.323020  0.624040  0.516100  1
  C  C334  1  0.698980  0.375960  0.983900  1
  C  C335  1  0.676980  0.375960  0.483900  1
  C  C336  1  0.301020  0.624040  0.016100  1
  C  C337  1  0.510810  0.892020  0.427900  1
  C  C338  1  0.618790  0.107980  0.072100  1
  C  C339  1  0.489190  0.107980  0.572100  1
  C  C340  1  0.381210  0.892020  0.927900  1
  C  C341  1  0.618730  0.899060  0.397200  1
  C  C342  1  0.719670  0.100940  0.102800  1
  C  C343  1  0.381270  0.100940  0.602800  1
  C  C344  1  0.280330  0.899060  0.897200  1
  C  C345  1  0.501500  0.863400  0.375600  1
  C  C346  1  0.638100  0.136600  0.124400  1
  C  C347  1  0.498500  0.136600  0.624400  1
  C  C348  1  0.361900  0.863400  0.875600  1
  C  C349  1  0.476520  0.900040  0.459600  1
  C  C350  1  0.576480  0.099960  0.040400  1
  C  C351  1  0.523480  0.099960  0.540400  1
  C  C352  1  0.423520  0.900040  0.959600  1
  C  C353  1  0.710390  0.914980  0.395900  1
  C  C354  1  0.795410  0.085020  0.104100  1
  C  C355  1  0.289610  0.085020  0.604100  1
  C  C356  1  0.204590  0.914980  0.895900  1
  C  C357  1  0.453340  0.837280  0.348200  1
  C  C358  1  0.616060  0.162720  0.151800  1
  C  C359  1  0.546660  0.162720  0.651800  1
  C  C360  1  0.383940  0.837280  0.848200  1
  C  C361  1  0.489760  0.802720  0.568000  1
  C  C362  1  0.687040  0.197280  0.932000  1
  C  C363  1  0.510240  0.197280  0.432000  1
  C  C364  1  0.312960  0.802720  0.068000  1
  C  C365  1  0.526120  0.767840  0.568500  1
  C  C366  1  0.758280  0.232160  0.931500  1
  C  C367  1  0.473880  0.232160  0.431500  1
  C  C368  1  0.241720  0.767840  0.068500  1
  C  C369  1  0.623190  0.740180  0.575700  1
  C  C370  1  0.883010  0.259820  0.924300  1
  C  C371  1  0.376810  0.259820  0.424300  1
  C  C372  1  0.116990  0.740180  0.075700  1
  C  C373  1  0.703400  0.742800  0.586500  1
  C  C374  1  0.960600  0.257200  0.913500  1
  C  C375  1  0.296600  0.257200  0.413500  1
  C  C376  1  0.039400  0.742800  0.086500  1
  C  C377  1  0.508380  0.703960  0.556800  1
  C  C378  1  0.804420  0.296040  0.943200  1
  C  C379  1  0.491620  0.296040  0.443200  1
  C  C380  1  0.195580  0.703960  0.056800  1
  C  C381  1  0.452920  0.664840  0.541700  1
  C  C382  1  0.788080  0.335160  0.958300  1
  C  C383  1  0.547080  0.335160  0.458300  1
  C  C384  1  0.211920  0.664840  0.041700  1
  C  C385  1  0.639480  0.603160  0.328400  1
  C  C386  1  0.036320  0.396840  0.171600  1
  C  C387  1  0.360520  0.396840  0.671600  1
  C  C388  1  0.963680  0.603160  0.828400  1
  C  C389  1  0.563120  0.610440  0.338300  1
  C  C390  1  0.952680  0.389560  0.161700  1
  C  C391  1  0.436880  0.389560  0.661700  1
  C  C392  1  0.047320  0.610440  0.838300  1
  C  C393  1  0.453960  0.602720  0.370200  1
  C  C394  1  0.851240  0.397280  0.129800  1
  C  C395  1  0.546040  0.397280  0.629800  1
  C  C396  1  0.148760  0.602720  0.870200  1
  C  C397  1  0.418570  0.586940  0.397500  1
  C  C398  1  0.831630  0.413060  0.102500  1
  C  C399  1  0.581430  0.413060  0.602500  1
  C  C400  1  0.168370  0.586940  0.897500  1
  C  C401  1  0.458990  0.637380  0.330500  1
  C  C402  1  0.821610  0.362620  0.169500  1
  C  C403  1  0.541010  0.362620  0.669500  1
  C  C404  1  0.178390  0.637380  0.830500  1
  C  C405  1  0.418250  0.661700  0.312100  1
  C  C406  1  0.756550  0.338300  0.187900  1
  C  C407  1  0.581750  0.338300  0.687900  1
  C  C408  1  0.243450  0.661700  0.812100  1
  C  C409  1  0.972210  0.703020  0.387300  1
  C  C410  1  0.269190  0.296980  0.112700  1
  C  C411  1  0.027790  0.296980  0.612700  1
  C  C412  1  0.730810  0.703020  0.887300  1
  C  C413  1  0.982320  0.737040  0.412900  1
  C  C414  1  0.245280  0.262960  0.087100  1
  C  C415  1  0.017680  0.262960  0.587100  1
  C  C416  1  0.754720  0.737040  0.912900  1
  C  C417  1  0.995680  0.763160  0.465900  1
  C  C418  1  0.232520  0.236840  0.034100  1
  C  C419  1  0.004320  0.236840  0.534100  1
  C  C420  1  0.767480  0.763160  0.965900  1
  C  C421  1  0.000550  0.760300  0.500100  1
  C  C422  1  0.240250  0.239700  0.999900  1
  C  C423  1  0.999450  0.239700  0.499900  1
  C  C424  1  0.759750  0.760300  0.000100  1
  C  C425  1  0.000990  0.800780  0.427700  1
  C  C426  1  0.200210  0.199220  0.072300  1
  C  C427  1  0.999010  0.199220  0.572300  1
  C  C428  1  0.799790  0.800780  0.927700  1
  C  C429  1  0.003090  0.839180  0.418100  1
  C  C430  1  0.163910  0.160820  0.081900  1
  C  C431  1  0.996910  0.160820  0.581900  1
  C  C432  1  0.836090  0.839180  0.918100  1
  C  C433  1  0.463700  0.754600  0.369600  1
  C  C434  1  0.709100  0.245400  0.130400  1
  C  C435  1  0.536300  0.245400  0.630400  1
  C  C436  1  0.290900  0.754600  0.869600  1
  C  C437  1  0.434600  0.758800  0.399000  1
  C  C438  1  0.675800  0.241200  0.101000  1
  C  C439  1  0.565400  0.241200  0.601000  1
  C  C440  1  0.324200  0.758800  0.899000  1
  C  C441  1  0.341900  0.746800  0.408100  1
  C  C442  1  0.595100  0.253200  0.091900  1
  C  C443  1  0.658100  0.253200  0.591900  1
  C  C444  1  0.404900  0.746800  0.908100  1
  C  C445  1  0.321900  0.709800  0.414200  1
  C  C446  1  0.612100  0.290200  0.085800  1
  C  C447  1  0.678100  0.290200  0.585800  1
  C  C448  1  0.387900  0.709800  0.914200  1
  C  C449  1  0.383500  0.709000  0.440100  1
  C  C450  1  0.674500  0.291000  0.059900  1
  C  C451  1  0.616500  0.291000  0.559900  1
  C  C452  1  0.325500  0.709000  0.940100  1
  C  C453  1  0.565400  0.793200  0.399600  1
  C  C454  1  0.772200  0.206800  0.100400  1
  C  C455  1  0.434600  0.206800  0.600400  1
  C  C456  1  0.227800  0.793200  0.899600  1
  C  C457  1  0.497400  0.787400  0.417700  1
  C  C458  1  0.710000  0.212600  0.082300  1
  C  C459  1  0.502600  0.212600  0.582300  1
  C  C460  1  0.290000  0.787400  0.917700  1
  C  C461  1  0.502000  0.803800  0.450100  1
  C  C462  1  0.698200  0.196200  0.049900  1
  C  C463  1  0.498000  0.196200  0.549900  1
  C  C464  1  0.301800  0.803800  0.950100  1
  C  C465  1  0.574600  0.826000  0.464400  1
  C  C466  1  0.748600  0.174000  0.035600  1
  C  C467  1  0.425400  0.174000  0.535600  1
  C  C468  1  0.251400  0.826000  0.964400  1
  C  C469  1  0.642690  0.831980  0.446300  1
  C  C470  1  0.810710  0.168020  0.053700  1
  C  C471  1  0.357310  0.168020  0.553700  1
  C  C472  1  0.189290  0.831980  0.946300  1
  C  C473  1  0.638100  0.815600  0.413900  1
  C  C474  1  0.822500  0.184400  0.086100  1
  C  C475  1  0.361900  0.184400  0.586100  1
  C  C476  1  0.177500  0.815600  0.913900  1
  C  C477  1  0.657400  0.659600  0.487700  1
  C  C478  1  0.997800  0.340400  0.012300  1
  C  C479  1  0.342600  0.340400  0.512300  1
  C  C480  1  0.002200  0.659600  0.987700  1
  C  C481  1  0.613400  0.683800  0.483100  1
  C  C482  1  0.929600  0.316200  0.016900  1
  C  C483  1  0.386600  0.316200  0.516900  1
  C  C484  1  0.070400  0.683800  0.983100  1
  C  C485  1  0.532900  0.673600  0.459800  1
  C  C486  1  0.859300  0.326400  0.040200  1
  C  C487  1  0.467100  0.326400  0.540200  1
  C  C488  1  0.140700  0.673600  0.959800  1
  C  C489  1  0.530100  0.705600  0.446800  1
  C  C490  1  0.824500  0.294400  0.053200  1
  C  C491  1  0.469900  0.294400  0.553200  1
  C  C492  1  0.175500  0.705600  0.946800  1
  C  C493  1  0.582800  0.702000  0.417600  1
  C  C494  1  0.880800  0.298000  0.082400  1
  C  C495  1  0.417200  0.298000  0.582400  1
  C  C496  1  0.119200  0.702000  0.917600  1
  C  C497  1  0.739000  0.717000  0.504300  1
  C  C498  1  0.022000  0.283000  0.995700  1
  C  C499  1  0.261000  0.283000  0.495700  1
  C  C500  1  0.978000  0.717000  0.004300  1
  C  C501  1  0.660400  0.718800  0.498800  1
  C  C502  1  0.941600  0.281200  0.001200  1
  C  C503  1  0.339600  0.281200  0.501200  1
  C  C504  1  0.058400  0.718800  0.998800  1
  C  C505  1  0.641000  0.754400  0.502100  1
  C  C506  1  0.886600  0.245600  0.997900  1
  C  C507  1  0.359000  0.245600  0.497900  1
  C  C508  1  0.113400  0.754400  0.002100  1
  C  C509  1  0.700300  0.788200  0.511100  1
  C  C510  1  0.912100  0.211800  0.988900  1
  C  C511  1  0.299700  0.211800  0.488900  1
  C  C512  1  0.087900  0.788200  0.011100  1
  C  C513  1  0.779000  0.786400  0.516600  1
  C  C514  1  0.992600  0.213600  0.983400  1
  C  C515  1  0.221000  0.213600  0.483400  1
  C  C516  1  0.007400  0.786400  0.016600  1
  C  C517  1  0.798300  0.750800  0.513300  1
  C  C518  1  0.047500  0.249200  0.986700  1
  C  C519  1  0.201700  0.249200  0.486700  1
  C  C520  1  0.952500  0.750800  0.013300  1
  C  C521  1  0.737700  0.679800  0.390400  1
  C  C522  1  0.057900  0.320200  0.109600  1
  C  C523  1  0.262300  0.320200  0.609600  1
  C  C524  1  0.942100  0.679800  0.890400  1
  C  C525  1  0.722500  0.727400  0.399400  1
  C  C526  1  0.995100  0.272600  0.100600  1
  C  C527  1  0.277500  0.272600  0.600600  1
  C  C528  1  0.004900  0.727400  0.899400  1
  C  C529  1  0.794200  0.758000  0.420700  1
  C  C530  1  0.036200  0.242000  0.079300  1
  C  C531  1  0.205800  0.242000  0.579300  1
  C  C532  1  0.963800  0.758000  0.920700  1
  C  C533  1  0.206600  0.683000  0.454500  1
  C  C534  1  0.523600  0.317000  0.045500  1
  C  C535  1  0.793400  0.317000  0.545500  1
  C  C536  1  0.476400  0.683000  0.954500  1
  C  C537  1  0.128500  0.677400  0.456900  1
  C  C538  1  0.451100  0.322600  0.043100  1
  C  C539  1  0.871500  0.322600  0.543100  1
  C  C540  1  0.548900  0.677400  0.956900  1
  H  H541  1  0.300600  0.997800  0.599900  1
  H  H542  1  0.302800  0.002200  0.900100  1
  H  H543  1  0.699400  0.002200  0.400100  1
  H  H544  1  0.697200  0.997800  0.099900  1
  H  H545  1  0.387700  0.994000  0.607200  1
  H  H546  1  0.393700  0.006000  0.892800  1
  H  H547  1  0.612300  0.006000  0.392800  1
  H  H548  1  0.606300  0.994000  0.107200  1
  H  H549  1  0.298800  0.958400  0.641700  1
  H  H550  1  0.340400  0.041600  0.858300  1
  H  H551  1  0.701200  0.041600  0.358300  1
  H  H552  1  0.659600  0.958400  0.141700  1
  H  H553  1  0.245400  0.933600  0.611600  1
  H  H554  1  0.311800  0.066400  0.888400  1
  H  H555  1  0.754600  0.066400  0.388400  1
  H  H556  1  0.688200  0.933600  0.111600  1
  H  H557  1  0.146800  0.761200  0.670800  1
  H  H558  1  0.385600  0.238800  0.829200  1
  H  H559  1  0.853200  0.238800  0.329200  1
  H  H560  1  0.614400  0.761200  0.170800  1
  H  H561  1  0.088100  0.787400  0.666800  1
  H  H562  1  0.300700  0.212600  0.833200  1
  H  H563  1  0.911900  0.212600  0.333200  1
  H  H564  1  0.699300  0.787400  0.166800  1
  H  H565  1  0.042100  0.742200  0.695200  1
  H  H566  1  0.299900  0.257800  0.804800  1
  H  H567  1  0.957900  0.257800  0.304800  1
  H  H568  1  0.700100  0.742200  0.195200  1
  H  H569  1  0.042000  0.711200  0.664000  1
  H  H570  1  0.330800  0.288800  0.836000  1
  H  H571  1  0.958000  0.288800  0.336000  1
  H  H572  1  0.669200  0.711200  0.164000  1
  H  H573  1  0.930000  0.518400  0.239400  1
  H  H574  1  0.411600  0.481600  0.260600  1
  H  H575  1  0.070000  0.481600  0.760600  1
  H  H576  1  0.588400  0.518400  0.739400  1
  H  H577  1  0.932500  0.504600  0.272500  1
  H  H578  1  0.427900  0.495400  0.227500  1
  H  H579  1  0.067500  0.495400  0.727500  1
  H  H580  1  0.572100  0.504600  0.772500  1
  H  H581  1  0.023900  0.560800  0.249900  1
  H  H582  1  0.463100  0.439200  0.250100  1
  H  H583  1  0.976100  0.439200  0.750100  1
  H  H584  1  0.536900  0.560800  0.749900  1
  H  H585  1  0.043200  0.533200  0.271900  1
  H  H586  1  0.510000  0.466800  0.228100  1
  H  H587  1  0.956800  0.466800  0.728100  1
  H  H588  1  0.490000  0.533200  0.771900  1
  H  H589  1  0.161500  0.758400  0.210700  1
  H  H590  1  0.403100  0.241600  0.289300  1
  H  H591  1  0.838500  0.241600  0.789300  1
  H  H592  1  0.596900  0.758400  0.710700  1
  H  H593  1  0.234600  0.763800  0.188700  1
  H  H594  1  0.470800  0.236200  0.311300  1
  H  H595  1  0.765400  0.236200  0.811300  1
  H  H596  1  0.529200  0.763800  0.688700  1
  H  H597  1  0.221700  0.714200  0.181600  1
  H  H598  1  0.507500  0.285800  0.318400  1
  H  H599  1  0.778300  0.285800  0.818400  1
  H  H600  1  0.492500  0.714200  0.681600  1
  H  H601  1  0.154100  0.709400  0.206100  1
  H  H602  1  0.444700  0.290600  0.293900  1
  H  H603  1  0.845900  0.290600  0.793900  1
  H  H604  1  0.555300  0.709400  0.706100  1
  H  H605  1  0.070500  0.055800  0.369100  1
  H  H606  1  0.014700  0.944200  0.130900  1
  H  H607  1  0.929500  0.944200  0.630900  1
  H  H608  1  0.985300  0.055800  0.869100  1
  H  H609  1  0.068900  0.057000  0.406400  1
  H  H610  1  0.011900  0.943000  0.093600  1
  H  H611  1  0.931100  0.943000  0.593600  1
  H  H612  1  0.988100  0.057000  0.906400  1
  H  H613  1  0.174900  0.039200  0.397700  1
  H  H614  1  0.135700  0.960800  0.102300  1
  H  H615  1  0.825100  0.960800  0.602300  1
  H  H616  1  0.864300  0.039200  0.897700  1
  H  H617  1  0.148000  0.019200  0.362400  1
  H  H618  1  0.128800  0.980800  0.137600  1
  H  H619  1  0.852000  0.980800  0.637600  1
  H  H620  1  0.871200  0.019200  0.862400  1
  H  H621  1  0.125600  0.462800  0.486600  1
  H  H622  1  0.662800  0.537200  0.013400  1
  H  H623  1  0.874400  0.537200  0.513400  1
  H  H624  1  0.337200  0.462800  0.986600  1
  H  H625  1  0.194800  0.442000  0.488600  1
  H  H626  1  0.752800  0.558000  0.011400  1
  H  H627  1  0.805200  0.558000  0.511400  1
  H  H628  1  0.247200  0.442000  0.988600  1
  H  H629  1  0.225900  0.467600  0.532400  1
  H  H630  1  0.758300  0.532400  0.967600  1
  H  H631  1  0.774100  0.532400  0.467600  1
  H  H632  1  0.241700  0.467600  0.032400  1
  H  H633  1  0.144700  0.479600  0.532600  1
  H  H634  1  0.665100  0.520400  0.967400  1
  H  H635  1  0.855300  0.520400  0.467400  1
  H  H636  1  0.334900  0.479600  0.032600  1
  H  H637  1  0.396800  0.987000  0.528300  1
  H  H638  1  0.409800  0.013000  0.971700  1
  H  H639  1  0.603200  0.013000  0.471700  1
  H  H640  1  0.590200  0.987000  0.028300  1
  H  H641  1  0.452800  0.993400  0.559100  1
  H  H642  1  0.459400  0.006600  0.940900  1
  H  H643  1  0.547200  0.006600  0.440900  1
  H  H644  1  0.540600  0.993400  0.059100  1
  H  H645  1  0.388500  0.017600  0.558400  1
  H  H646  1  0.370900  0.982400  0.941600  1
  H  H647  1  0.611500  0.982400  0.441600  1
  H  H648  1  0.629100  0.017600  0.058400  1
  H  H649  1  0.245000  0.974600  0.548300  1
  H  H650  1  0.270400  0.025400  0.951700  1
  H  H651  1  0.755000  0.025400  0.451700  1
  H  H652  1  0.729600  0.974600  0.048300  1
  H  H653  1  0.229000  0.934000  0.558500  1
  H  H654  1  0.295000  0.066000  0.941500  1
  H  H655  1  0.771000  0.066000  0.441500  1
  H  H656  1  0.705000  0.934000  0.058500  1
  H  H657  1  0.271200  0.940800  0.526300  1
  H  H658  1  0.330400  0.059200  0.973700  1
  H  H659  1  0.728800  0.059200  0.473700  1
  H  H660  1  0.669600  0.940800  0.026300  1
  H  H661  1  0.460600  0.913600  0.633500  1
  H  H662  1  0.547000  0.086400  0.866500  1
  H  H663  1  0.539400  0.086400  0.366500  1
  H  H664  1  0.453000  0.913600  0.133500  1
  H  H665  1  0.420600  0.940600  0.657800  1
  H  H666  1  0.480000  0.059400  0.842200  1
  H  H667  1  0.579400  0.059400  0.342200  1
  H  H668  1  0.520000  0.940600  0.157800  1
  H  H669  1  0.466000  0.956200  0.628700  1
  H  H670  1  0.509800  0.043800  0.871300  1
  H  H671  1  0.534000  0.043800  0.371300  1
  H  H672  1  0.490200  0.956200  0.128700  1
  H  H673  1  0.275600  0.889800  0.644300  1
  H  H674  1  0.385800  0.110200  0.855700  1
  H  H675  1  0.724400  0.110200  0.355700  1
  H  H676  1  0.614200  0.889800  0.144300  1
  H  H677  1  0.332200  0.865400  0.627000  1
  H  H678  1  0.466800  0.134600  0.873000  1
  H  H679  1  0.667800  0.134600  0.373000  1
  H  H680  1  0.533200  0.865400  0.127000  1
  H  H681  1  0.259300  0.871400  0.607800  1
  H  H682  1  0.387900  0.128600  0.892200  1
  H  H683  1  0.740700  0.128600  0.392200  1
  H  H684  1  0.612100  0.871400  0.107800  1
  H  H685  1  0.138600  0.807400  0.616300  1
  H  H686  1  0.331200  0.192600  0.883700  1
  H  H687  1  0.861400  0.192600  0.383700  1
  H  H688  1  0.668800  0.807400  0.116300  1
  H  H689  1  0.155100  0.780400  0.585200  1
  H  H690  1  0.374700  0.219600  0.914800  1
  H  H691  1  0.844900  0.219600  0.414800  1
  H  H692  1  0.625300  0.780400  0.085200  1
  H  H693  1  0.209900  0.787400  0.616400  1
  H  H694  1  0.422500  0.212600  0.883600  1
  H  H695  1  0.790100  0.212600  0.383600  1
  H  H696  1  0.577500  0.787400  0.116400  1
  H  H697  1  0.135400  0.712600  0.586600  1
  H  H698  1  0.422800  0.287400  0.913400  1
  H  H699  1  0.864600  0.287400  0.413400  1
  H  H700  1  0.577200  0.712600  0.086600  1
  H  H701  1  0.061800  0.695600  0.606100  1
  H  H702  1  0.366200  0.304400  0.893900  1
  H  H703  1  0.938200  0.304400  0.393900  1
  H  H704  1  0.633800  0.695600  0.106100  1
  H  H705  1  0.148400  0.707200  0.622200  1
  H  H706  1  0.441200  0.292800  0.877800  1
  H  H707  1  0.851600  0.292800  0.377800  1
  H  H708  1  0.558800  0.707200  0.122200  1
  H  H709  1  0.898000  0.702800  0.683900  1
  H  H710  1  0.195200  0.297200  0.816100  1
  H  H711  1  0.102000  0.297200  0.316100  1
  H  H712  1  0.804800  0.702800  0.183900  1
  H  H713  1  0.897200  0.688000  0.646700  1
  H  H714  1  0.209200  0.312000  0.853300  1
  H  H715  1  0.102800  0.312000  0.353300  1
  H  H716  1  0.790800  0.688000  0.146700  1
  H  H717  1  0.844700  0.716600  0.660300  1
  H  H718  1  0.128100  0.283400  0.839700  1
  H  H719  1  0.155300  0.283400  0.339700  1
  H  H720  1  0.871900  0.716600  0.160300  1
  H  H721  1  0.990300  0.802600  0.675900  1
  H  H722  1  0.187700  0.197400  0.824100  1
  H  H723  1  0.009700  0.197400  0.324100  1
  H  H724  1  0.812300  0.802600  0.175900  1
  H  H725  1  0.926400  0.778600  0.696000  1
  H  H726  1  0.147800  0.221400  0.804000  1
  H  H727  1  0.073600  0.221400  0.304000  1
  H  H728  1  0.852200  0.778600  0.196000  1
  H  H729  1  0.902300  0.785400  0.661900  1
  H  H730  1  0.116900  0.214600  0.838100  1
  H  H731  1  0.097700  0.214600  0.338100  1
  H  H732  1  0.883100  0.785400  0.161900  1
  H  H733  1  0.850300  0.497000  0.296700  1
  H  H734  1  0.353300  0.503000  0.203300  1
  H  H735  1  0.149700  0.503000  0.703300  1
  H  H736  1  0.646700  0.497000  0.796700  1
  H  H737  1  0.787300  0.491200  0.268300  1
  H  H738  1  0.296100  0.508800  0.231700  1
  H  H739  1  0.212700  0.508800  0.731700  1
  H  H740  1  0.703900  0.491200  0.768300  1
  H  H741  1  0.784600  0.520800  0.299700  1
  H  H742  1  0.263800  0.479200  0.200300  1
  H  H743  1  0.215400  0.479200  0.700300  1
  H  H744  1  0.736200  0.520800  0.799700  1
  H  H745  1  0.825400  0.533000  0.223700  1
  H  H746  1  0.292400  0.467000  0.276300  1
  H  H747  1  0.174600  0.467000  0.776300  1
  H  H748  1  0.707600  0.533000  0.723700  1
  H  H749  1  0.859900  0.576800  0.238100  1
  H  H750  1  0.283100  0.423200  0.261900  1
  H  H751  1  0.140100  0.423200  0.761900  1
  H  H752  1  0.716900  0.576800  0.738100  1
  H  H753  1  0.777100  0.554600  0.248900  1
  H  H754  1  0.222500  0.445400  0.251100  1
  H  H755  1  0.222900  0.445400  0.751100  1
  H  H756  1  0.777500  0.554600  0.748900  1
  H  H757  1  0.084900  0.639200  0.306600  1
  H  H758  1  0.445700  0.360800  0.193400  1
  H  H759  1  0.915100  0.360800  0.693400  1
  H  H760  1  0.554300  0.639200  0.806600  1
  H  H761  1  0.048600  0.624000  0.271400  1
  H  H762  1  0.424600  0.376000  0.228600  1
  H  H763  1  0.951400  0.376000  0.728600  1
  H  H764  1  0.575400  0.624000  0.771400  1
  H  H765  1  0.123400  0.611200  0.282700  1
  H  H766  1  0.512200  0.388800  0.217300  1
  H  H767  1  0.876600  0.388800  0.717300  1
  H  H768  1  0.487800  0.611200  0.782700  1
  H  H769  1  0.998100  0.568000  0.340800  1
  H  H770  1  0.430100  0.432000  0.159200  1
  H  H771  1  0.001900  0.432000  0.659200  1
  H  H772  1  0.569900  0.568000  0.840800  1
  H  H773  1  0.090000  0.581200  0.335000  1
  H  H774  1  0.508800  0.418800  0.165000  1
  H  H775  1  0.910000  0.418800  0.665000  1
  H  H776  1  0.491200  0.581200  0.835000  1
  H  H777  1  0.039700  0.541200  0.317100  1
  H  H778  1  0.498500  0.458800  0.182900  1
  H  H779  1  0.960300  0.458800  0.682900  1
  H  H780  1  0.501500  0.541200  0.817100  1
  H  H781  1  0.211500  0.826800  0.250100  1
  H  H782  1  0.384700  0.173200  0.249900  1
  H  H783  1  0.788500  0.173200  0.749900  1
  H  H784  1  0.615300  0.826800  0.750100  1
  H  H785  1  0.238600  0.811000  0.279700  1
  H  H786  1  0.427600  0.189000  0.220300  1
  H  H787  1  0.761400  0.189000  0.720300  1
  H  H788  1  0.572400  0.811000  0.779700  1
  H  H789  1  0.163200  0.787200  0.258200  1
  H  H790  1  0.376000  0.212800  0.241800  1
  H  H791  1  0.836800  0.212800  0.741800  1
  H  H792  1  0.624000  0.787200  0.758200  1
  H  H793  1  0.350200  0.794400  0.206800  1
  H  H794  1  0.555800  0.205600  0.293200  1
  H  H795  1  0.649800  0.205600  0.793200  1
  H  H796  1  0.444200  0.794400  0.706800  1
  H  H797  1  0.371800  0.818200  0.241600  1
  H  H798  1  0.553600  0.181800  0.258400  1
  H  H799  1  0.628200  0.181800  0.758400  1
  H  H800  1  0.446400  0.818200  0.741600  1
  H  H801  1  0.310800  0.828800  0.219100  1
  H  H802  1  0.482000  0.171200  0.280900  1
  H  H803  1  0.689200  0.171200  0.780900  1
  H  H804  1  0.518000  0.828800  0.719100  1
  H  H805  1  0.168100  0.683200  0.252000  1
  H  H806  1  0.484900  0.316800  0.248000  1
  H  H807  1  0.831900  0.316800  0.748000  1
  H  H808  1  0.515100  0.683200  0.752000  1
  H  H809  1  0.219300  0.653200  0.240700  1
  H  H810  1  0.566100  0.346800  0.259300  1
  H  H811  1  0.780700  0.346800  0.759300  1
  H  H812  1  0.433900  0.653200  0.740700  1
  H  H813  1  0.154200  0.659000  0.217100  1
  H  H814  1  0.495200  0.341000  0.282900  1
  H  H815  1  0.845800  0.341000  0.782900  1
  H  H816  1  0.504800  0.659000  0.717100  1
  H  H817  1  0.287000  0.677200  0.183300  1
  H  H818  1  0.609800  0.322800  0.316700  1
  H  H819  1  0.713000  0.322800  0.816700  1
  H  H820  1  0.390200  0.677200  0.683300  1
  H  H821  1  0.321600  0.667800  0.214600  1
  H  H822  1  0.653800  0.332200  0.285400  1
  H  H823  1  0.678400  0.332200  0.785400  1
  H  H824  1  0.346200  0.667800  0.714600  1
  H  H825  1  0.356100  0.707800  0.204100  1
  H  H826  1  0.648300  0.292200  0.295900  1
  H  H827  1  0.643900  0.292200  0.795900  1
  H  H828  1  0.351700  0.707800  0.704100  1
  H  H829  1  0.945000  0.060600  0.405300  1
  H  H830  1  0.884400  0.939400  0.094700  1
  H  H831  1  0.055000  0.939400  0.594700  1
  H  H832  1  0.115600  0.060600  0.905300  1
  H  H833  1  0.946000  0.030200  0.427700  1
  H  H834  1  0.915800  0.969800  0.072300  1
  H  H835  1  0.054000  0.969800  0.572300  1
  H  H836  1  0.084200  0.030200  0.927700  1
  H  H837  1  0.878200  0.021800  0.400700  1
  H  H838  1  0.856400  0.978200  0.099300  1
  H  H839  1  0.121800  0.978200  0.599300  1
  H  H840  1  0.143600  0.021800  0.900700  1
  H  H841  1  0.969100  0.036200  0.344800  1
  H  H842  1  0.932900  0.963800  0.155200  1
  H  H843  1  0.030900  0.963800  0.655200  1
  H  H844  1  0.067100  0.036200  0.844800  1
  H  H845  1  0.914300  0.994800  0.344500  1
  H  H846  1  0.919500  0.005200  0.155500  1
  H  H847  1  0.085700  0.005200  0.655500  1
  H  H848  1  0.080500  0.994800  0.844500  1
  H  H849  1  0.005000  0.999800  0.336700  1
  H  H850  1  0.005200  0.000200  0.163300  1
  H  H851  1  0.995000  0.000200  0.663300  1
  H  H852  1  0.994800  0.999800  0.836700  1
  H  H853  1  0.128200  0.970600  0.436300  1
  H  H854  1  0.157600  0.029400  0.063700  1
  H  H855  1  0.871800  0.029400  0.563700  1
  H  H856  1  0.842400  0.970600  0.936300  1
  H  H857  1  0.140500  0.015000  0.437200  1
  H  H858  1  0.125500  0.985000  0.062800  1
  H  H859  1  0.859500  0.985000  0.562800  1
  H  H860  1  0.874500  0.015000  0.937200  1
  H  H861  1  0.208300  0.994600  0.424900  1
  H  H862  1  0.213700  0.005400  0.075100  1
  H  H863  1  0.791700  0.005400  0.575100  1
  H  H864  1  0.786300  0.994600  0.924900  1
  H  H865  1  0.216600  0.968400  0.378200  1
  H  H866  1  0.248200  0.031600  0.121800  1
  H  H867  1  0.783400  0.031600  0.621800  1
  H  H868  1  0.751800  0.968400  0.878200  1
  H  H869  1  0.148200  0.959600  0.351400  1
  H  H870  1  0.188600  0.040400  0.148600  1
  H  H871  1  0.851800  0.040400  0.648600  1
  H  H872  1  0.811400  0.959600  0.851400  1
  H  H873  1  0.142300  0.933600  0.377900  1
  H  H874  1  0.208700  0.066400  0.122100  1
  H  H875  1  0.857700  0.066400  0.622100  1
  H  H876  1  0.791300  0.933600  0.877900  1
  H  H877  1  0.248000  0.442800  0.440500  1
  H  H878  1  0.805200  0.557200  0.059500  1
  H  H879  1  0.752000  0.557200  0.559500  1
  H  H880  1  0.194800  0.442800  0.940500  1
  H  H881  1  0.296500  0.454600  0.473600  1
  H  H882  1  0.841900  0.545400  0.026400  1
  H  H883  1  0.703500  0.545400  0.526400  1
  H  H884  1  0.158100  0.454600  0.973600  1
  H  H885  1  0.322700  0.478200  0.445700  1
  H  H886  1  0.844500  0.521800  0.054300  1
  H  H887  1  0.677300  0.521800  0.554300  1
  H  H888  1  0.155500  0.478200  0.945700  1
  H  H889  1  0.186100  0.482000  0.422400  1
  H  H890  1  0.704100  0.518000  0.077600  1
  H  H891  1  0.813900  0.518000  0.577600  1
  H  H892  1  0.295900  0.482000  0.922400  1
  H  H893  1  0.178500  0.521000  0.443500  1
  H  H894  1  0.657500  0.479000  0.056500  1
  H  H895  1  0.821500  0.479000  0.556500  1
  H  H896  1  0.342500  0.521000  0.943500  1
  H  H897  1  0.119200  0.482000  0.447700  1
  H  H898  1  0.637200  0.518000  0.052300  1
  H  H899  1  0.880800  0.518000  0.552300  1
  H  H900  1  0.362800  0.482000  0.947700  1
  H  H901  1  0.138800  0.539600  0.543200  1
  H  H902  1  0.599200  0.460400  0.956800  1
  H  H903  1  0.861200  0.460400  0.456800  1
  H  H904  1  0.400800  0.539600  0.043200  1
  H  H905  1  0.206100  0.575200  0.537600  1
  H  H906  1  0.630900  0.424800  0.962400  1
  H  H907  1  0.793900  0.424800  0.462400  1
  H  H908  1  0.369100  0.575200  0.037600  1
  H  H909  1  0.205700  0.559600  0.570100  1
  H  H910  1  0.646100  0.440400  0.929900  1
  H  H911  1  0.794300  0.440400  0.429900  1
  H  H912  1  0.353900  0.559600  0.070100  1
  H  H913  1  0.287700  0.524800  0.580200  1
  H  H914  1  0.762900  0.475200  0.919800  1
  H  H915  1  0.712300  0.475200  0.419800  1
  H  H916  1  0.237100  0.524800  0.080200  1
  H  H917  1  0.349200  0.553400  0.562900  1
  H  H918  1  0.795800  0.446600  0.937100  1
  H  H919  1  0.650800  0.446600  0.437100  1
  H  H920  1  0.204200  0.553400  0.062900  1
  H  H921  1  0.338900  0.508800  0.552900  1
  H  H922  1  0.830100  0.491200  0.947100  1
  H  H923  1  0.661100  0.491200  0.447100  1
  H  H924  1  0.169900  0.508800  0.052900  1
  H  H925  1  0.316700  0.878200  0.499500  1
  H  H926  1  0.438500  0.121800  0.000500  1
  H  H927  1  0.683300  0.121800  0.500500  1
  H  H928  1  0.561500  0.878200  0.999500  1
  H  H929  1  0.362100  0.871000  0.448300  1
  H  H930  1  0.491100  0.129000  0.051700  1
  H  H931  1  0.637900  0.129000  0.551700  1
  H  H932  1  0.508900  0.871000  0.948300  1
  H  H933  1  0.527900  0.941000  0.532700  1
  H  H934  1  0.586900  0.059000  0.967300  1
  H  H935  1  0.472100  0.059000  0.467300  1
  H  H936  1  0.413100  0.941000  0.032700  1
  H  H937  1  0.578900  0.934000  0.482100  1
  H  H938  1  0.644900  0.066000  0.017900  1
  H  H939  1  0.421100  0.066000  0.517900  1
  H  H940  1  0.355100  0.934000  0.982100  1
  H  H941  1  0.326900  0.827800  0.555600  1
  H  H942  1  0.499100  0.172200  0.944400  1
  H  H943  1  0.673100  0.172200  0.444400  1
  H  H944  1  0.500900  0.827800  0.055600  1
  H  H945  1  0.375700  0.774400  0.555200  1
  H  H946  1  0.601300  0.225600  0.944800  1
  H  H947  1  0.624300  0.225600  0.444800  1
  H  H948  1  0.398700  0.774400  0.055200  1
  H  H949  1  0.539800  0.895200  0.582000  1
  H  H950  1  0.644600  0.104800  0.918000  1
  H  H951  1  0.460200  0.104800  0.418000  1
  H  H952  1  0.355400  0.895200  0.082000  1
  H  H953  1  0.594100  0.842600  0.579600  1
  H  H954  1  0.751500  0.157400  0.920400  1
  H  H955  1  0.405900  0.157400  0.420400  1
  H  H956  1  0.248500  0.842600  0.079600  1
  H  H957  1  0.872300  0.802400  0.613300  1
  H  H958  1  0.069900  0.197600  0.886700  1
  H  H959  1  0.127700  0.197600  0.386700  1
  H  H960  1  0.930100  0.802400  0.113300  1
  H  H961  1  0.745500  0.801400  0.600200  1
  H  H962  1  0.944100  0.198600  0.899800  1
  H  H963  1  0.254500  0.198600  0.399800  1
  H  H964  1  0.055900  0.801400  0.100200  1
  H  H965  1  0.827300  0.690200  0.591000  1
  H  H966  1  0.137100  0.309800  0.909000  1
  H  H967  1  0.172700  0.309800  0.409000  1
  H  H968  1  0.862900  0.690200  0.091000  1
  H  H969  1  0.700900  0.684800  0.575500  1
  H  H970  1  0.016100  0.315200  0.924500  1
  H  H971  1  0.299100  0.315200  0.424500  1
  H  H972  1  0.983900  0.684800  0.075500  1
  H  H973  1  0.014300  0.809600  0.571600  1
  H  H974  1  0.204700  0.190400  0.928400  1
  H  H975  1  0.985700  0.190400  0.428400  1
  H  H976  1  0.795300  0.809600  0.071600  1
  H  H977  1  0.011200  0.817200  0.518800  1
  H  H978  1  0.194000  0.182800  0.981200  1
  H  H979  1  0.988800  0.182800  0.481200  1
  H  H980  1  0.806000  0.817200  0.018800  1
  H  H981  1  0.988200  0.699000  0.548900  1
  H  H982  1  0.289200  0.301000  0.951100  1
  H  H983  1  0.011800  0.301000  0.451100  1
  H  H984  1  0.710800  0.699000  0.048900  1
  H  H985  1  0.981300  0.702000  0.494800  1
  H  H986  1  0.279300  0.298000  0.005200  1
  H  H987  1  0.018700  0.298000  0.505200  1
  H  H988  1  0.720700  0.702000  0.994800  1
  H  H989  1  0.942500  0.610200  0.376300  1
  H  H990  1  0.332300  0.389800  0.123700  1
  H  H991  1  0.057500  0.389800  0.623700  1
  H  H992  1  0.667700  0.610200  0.876300  1
  H  H993  1  0.961900  0.663600  0.416800  1
  H  H994  1  0.298300  0.336400  0.083200  1
  H  H995  1  0.038100  0.336400  0.583200  1
  H  H996  1  0.701700  0.663600  0.916800  1
  H  H997  1  0.942700  0.674000  0.309400  1
  H  H998  1  0.268700  0.326000  0.190600  1
  H  H999  1  0.057300  0.326000  0.690600  1
  H  H1000  1  0.731300  0.674000  0.809400  1
  H  H1001  1  0.981400  0.731000  0.349900  1
  H  H1002  1  0.250400  0.269000  0.150100  1
  H  H1003  1  0.018600  0.269000  0.650100  1
  H  H1004  1  0.749600  0.731000  0.849900  1
  H  H1005  1  0.774500  0.562200  0.349200  1
  H  H1006  1  0.212300  0.437800  0.150800  1
  H  H1007  1  0.225500  0.437800  0.650800  1
  H  H1008  1  0.787700  0.562200  0.849200  1
  H  H1009  1  0.654600  0.572600  0.363100  1
  H  H1010  1  0.082000  0.427400  0.136900  1
  H  H1011  1  0.345400  0.427400  0.636900  1
  H  H1012  1  0.918000  0.572600  0.863100  1
  H  H1013  1  0.780700  0.626400  0.280600  1
  H  H1014  1  0.154300  0.373600  0.219400  1
  H  H1015  1  0.219300  0.373600  0.719400  1
  H  H1016  1  0.845700  0.626400  0.780600  1
  H  H1017  1  0.653000  0.630800  0.292100  1
  H  H1018  1  0.022200  0.369200  0.207900  1
  H  H1019  1  0.347000  0.369200  0.707900  1
  H  H1020  1  0.977800  0.630800  0.792100  1
  H  H1021  1  0.543900  0.839200  0.316900  1
  H  H1022  1  0.704700  0.160800  0.183100  1
  H  H1023  1  0.456100  0.160800  0.683100  1
  H  H1024  1  0.295300  0.839200  0.816900  1
  H  H1025  1  0.468500  0.799000  0.274400  1
  H  H1026  1  0.669500  0.201000  0.225600  1
  H  H1027  1  0.531500  0.201000  0.725600  1
  H  H1028  1  0.330500  0.799000  0.774400  1
  H  H1029  1  0.277300  0.783200  0.325100  1
  H  H1030  1  0.494100  0.216800  0.174900  1
  H  H1031  1  0.722700  0.216800  0.674900  1
  H  H1032  1  0.505900  0.783200  0.825100  1
  H  H1033  1  0.343500  0.826400  0.368600  1
  H  H1034  1  0.517100  0.173600  0.131400  1
  H  H1035  1  0.656500  0.173600  0.631400  1
  H  H1036  1  0.482900  0.826400  0.868600  1
  H  H1037  1  0.262900  0.692800  0.308800  1
  H  H1038  1  0.570100  0.307200  0.191200  1
  H  H1039  1  0.737100  0.307200  0.691200  1
  H  H1040  1  0.429900  0.692800  0.808800  1
  H  H1041  1  0.314200  0.654200  0.335500  1
  H  H1042  1  0.660000  0.345800  0.164500  1
  H  H1043  1  0.685800  0.345800  0.664500  1
  H  H1044  1  0.340000  0.654200  0.835500  1
  H  H1045  1  0.512400  0.677000  0.284700  1
  H  H1046  1  0.835400  0.323000  0.215300  1
  H  H1047  1  0.487600  0.323000  0.715300  1
  H  H1048  1  0.164600  0.677000  0.784700  1
  H  H1049  1  0.452900  0.713800  0.257700  1
  H  H1050  1  0.739100  0.286200  0.242300  1
  H  H1051  1  0.547100  0.286200  0.742300  1
  H  H1052  1  0.260900  0.713800  0.757700  1
  H  H1053  1  0.005100  0.884200  0.359300  1
  H  H1054  1  0.120900  0.115800  0.140700  1
  H  H1055  1  0.994900  0.115800  0.640700  1
  H  H1056  1  0.879100  0.884200  0.859300  1
  H  H1057  1  0.005800  0.824800  0.370500  1
  H  H1058  1  0.181000  0.175200  0.129500  1
  H  H1059  1  0.994200  0.175200  0.629500  1
  H  H1060  1  0.819000  0.824800  0.870500  1
  H  H1061  1  0.998800  0.868600  0.465700  1
  H  H1062  1  0.130200  0.131400  0.034300  1
  H  H1063  1  0.001200  0.131400  0.534300  1
  H  H1064  1  0.869800  0.868600  0.965700  1
  H  H1065  1  0.006200  0.927200  0.450300  1
  H  H1066  1  0.079000  0.072800  0.049700  1
  H  H1067  1  0.993800  0.072800  0.549700  1
  H  H1068  1  0.921000  0.927200  0.950300  1
  H  H1069  1  0.855500  0.917600  0.347000  1
  H  H1070  1  0.937900  0.082400  0.153000  1
  H  H1071  1  0.144500  0.082400  0.653000  1
  H  H1072  1  0.062100  0.917600  0.847000  1
  H  H1073  1  0.717500  0.896400  0.348000  1
  H  H1074  1  0.821100  0.103600  0.152000  1
  H  H1075  1  0.282500  0.103600  0.652000  1
  H  H1076  1  0.178900  0.896400  0.848000  1
  H  H1077  1  0.731200  0.936800  0.442700  1
  H  H1078  1  0.794400  0.063200  0.057300  1
  H  H1079  1  0.268800  0.063200  0.557300  1
  H  H1080  1  0.205600  0.936800  0.942700  1
  H  H1081  1  0.866900  0.959000  0.439400  1
  H  H1082  1  0.907900  0.041000  0.060600  1
  H  H1083  1  0.133100  0.041000  0.560600  1
  H  H1084  1  0.092100  0.959000  0.939400  1
  H  H1085  1  0.254400  0.581600  0.439100  1
  H  H1086  1  0.672800  0.418400  0.060900  1
  H  H1087  1  0.745600  0.418400  0.560900  1
  H  H1088  1  0.327200  0.581600  0.939100  1
  H  H1089  1  0.319600  0.605200  0.393600  1
  H  H1090  1  0.714400  0.394800  0.106400  1
  H  H1091  1  0.680400  0.394800  0.606400  1
  H  H1092  1  0.285600  0.605200  0.893600  1
  H  H1093  1  0.499300  0.559600  0.410200  1
  H  H1094  1  0.939700  0.440400  0.089800  1
  H  H1095  1  0.500700  0.440400  0.589800  1
  H  H1096  1  0.060300  0.559600  0.910200  1
  H  H1097  1  0.447600  0.539200  0.454700  1
  H  H1098  1  0.908400  0.460800  0.045300  1
  H  H1099  1  0.552400  0.460800  0.545300  1
  H  H1100  1  0.091600  0.539200  0.954700  1
  H  H1101  1  0.458500  0.576200  0.524100  1
  H  H1102  1  0.882300  0.423800  0.975900  1
  H  H1103  1  0.541500  0.423800  0.475900  1
  H  H1104  1  0.117700  0.576200  0.024100  1
  H  H1105  1  0.534200  0.634400  0.545900  1
  H  H1106  1  0.899800  0.365600  0.954100  1
  H  H1107  1  0.465800  0.365600  0.454100  1
  H  H1108  1  0.100200  0.634400  0.045900  1
  H  H1109  1  0.358500  0.683400  0.530700  1
  H  H1110  1  0.675100  0.316600  0.969300  1
  H  H1111  1  0.641500  0.316600  0.469300  1
  H  H1112  1  0.324900  0.683400  0.030700  1
  H  H1113  1  0.270400  0.621400  0.509000  1
  H  H1114  1  0.649000  0.378600  0.991000  1
  H  H1115  1  0.729600  0.378600  0.491000  1
  H  H1116  1  0.351000  0.621400  0.009000  1
  H  H1117  1  0.570900  0.773800  0.352600  1
  H  H1118  1  0.797100  0.226200  0.147400  1
  H  H1119  1  0.429100  0.226200  0.647400  1
  H  H1120  1  0.202900  0.773800  0.852600  1
  H  H1121  1  0.433900  0.740000  0.351500  1
  H  H1122  1  0.693900  0.260000  0.148500  1
  H  H1123  1  0.566100  0.260000  0.648500  1
  H  H1124  1  0.306100  0.740000  0.851500  1
  H  H1125  1  0.332800  0.764400  0.427000  1
  H  H1126  1  0.568400  0.235600  0.073000  1
  H  H1127  1  0.667200  0.235600  0.573000  1
  H  H1128  1  0.431600  0.764400  0.927000  1
  H  H1129  1  0.307900  0.749000  0.390500  1
  H  H1130  1  0.558900  0.251000  0.109500  1
  H  H1131  1  0.692100  0.251000  0.609500  1
  H  H1132  1  0.441100  0.749000  0.890500  1
  H  H1133  1  0.311000  0.688600  0.395700  1
  H  H1134  1  0.622400  0.311400  0.104300  1
  H  H1135  1  0.689000  0.311400  0.604300  1
  H  H1136  1  0.377600  0.688600  0.895700  1
  H  H1137  1  0.429700  0.672800  0.414400  1
  H  H1138  1  0.756900  0.327200  0.085600  1
  H  H1139  1  0.570300  0.327200  0.585600  1
  H  H1140  1  0.243100  0.672800  0.914400  1
  H  H1141  1  0.680700  0.817800  0.402400  1
  H  H1142  1  0.862900  0.182200  0.097600  1
  H  H1143  1  0.319300  0.182200  0.597600  1
  H  H1144  1  0.137100  0.817800  0.902400  1
  H  H1145  1  0.688700  0.845800  0.456300  1
  H  H1146  1  0.842900  0.154200  0.043700  1
  H  H1147  1  0.311300  0.154200  0.543700  1
  H  H1148  1  0.157100  0.845800  0.956300  1
  H  H1149  1  0.575000  0.836800  0.486600  1
  H  H1150  1  0.738200  0.163200  0.013400  1
  H  H1151  1  0.425000  0.163200  0.513400  1
  H  H1152  1  0.261800  0.836800  0.986600  1
  H  H1153  1  0.453400  0.800000  0.462800  1
  H  H1154  1  0.653400  0.200000  0.037200  1
  H  H1155  1  0.546600  0.200000  0.537200  1
  H  H1156  1  0.346600  0.800000  0.962800  1
  H  H1157  1  0.766700  0.664600  0.507300  1
  H  H1158  1  0.102100  0.335400  0.992700  1
  H  H1159  1  0.233300  0.335400  0.492700  1
  H  H1160  1  0.897900  0.664600  0.007300  1
  H  H1161  1  0.638600  0.633000  0.481900  1
  H  H1162  1  0.005600  0.367000  0.018100  1
  H  H1163  1  0.361400  0.367000  0.518100  1
  H  H1164  1  0.994400  0.633000  0.981900  1
  H  H1165  1  0.534100  0.652200  0.442800  1
  H  H1166  1  0.881900  0.347800  0.057200  1
  H  H1167  1  0.465900  0.347800  0.557200  1
  H  H1168  1  0.118100  0.652200  0.942800  1
  H  H1169  1  0.485800  0.666400  0.472100  1
  H  H1170  1  0.819400  0.333600  0.027900  1
  H  H1171  1  0.514200  0.333600  0.527900  1
  H  H1172  1  0.180600  0.666400  0.972100  1
  H  H1173  1  0.542900  0.730400  0.461500  1
  H  H1174  1  0.812500  0.269600  0.038500  1
  H  H1175  1  0.457100  0.269600  0.538500  1
  H  H1176  1  0.187500  0.730400  0.961500  1
  H  H1177  1  0.667700  0.737000  0.440700  1
  H  H1178  1  0.930700  0.263000  0.059300  1
  H  H1179  1  0.332300  0.263000  0.559300  1
  H  H1180  1  0.069300  0.737000  0.940700  1
  H  H1181  1  0.592500  0.759400  0.499800  1
  H  H1182  1  0.833100  0.240600  0.000200  1
  H  H1183  1  0.407500  0.240600  0.500200  1
  H  H1184  1  0.166900  0.759400  0.999800  1
  H  H1185  1  0.825500  0.807400  0.523100  1
  H  H1186  1  0.018100  0.192600  0.976900  1
  H  H1187  1  0.174500  0.192600  0.476900  1
  H  H1188  1  0.981900  0.807400  0.023100  1
  H  H1189  1  0.696100  0.813800  0.515100  1
  H  H1190  1  0.882300  0.186200  0.984900  1
  H  H1191  1  0.303900  0.186200  0.484900  1
  H  H1192  1  0.117700  0.813800  0.015100  1
  H  H1193  1  0.851300  0.746600  0.515900  1
  H  H1194  1  0.104700  0.253400  0.984100  1
  H  H1195  1  0.148700  0.253400  0.484100  1
  H  H1196  1  0.895300  0.746600  0.015900  1
  H  H1197  1  0.762300  0.638600  0.414100  1
  H  H1198  1  0.123700  0.361400  0.085900  1
  H  H1199  1  0.237700  0.361400  0.585900  1
  H  H1200  1  0.876300  0.638600  0.914100  1
  H  H1201  1  0.702400  0.657600  0.431100  1
  H  H1202  1  0.044800  0.342400  0.068900  1
  H  H1203  1  0.297600  0.342400  0.568900  1
  H  H1204  1  0.955200  0.657600  0.931100  1
  H  H1205  1  0.708800  0.736600  0.380000  1
  H  H1206  1  0.972200  0.263400  0.120000  1
  H  H1207  1  0.291200  0.263400  0.620000  1
  H  H1208  1  0.027800  0.736600  0.880000  1
  H  H1209  1  0.818800  0.777600  0.408500  1
  H  H1210  1  0.041200  0.222400  0.091500  1
  H  H1211  1  0.181200  0.222400  0.591500  1
  H  H1212  1  0.958800  0.777600  0.908500  1
  H  H1213  1  0.833400  0.745000  0.426500  1
  H  H1214  1  0.088400  0.255000  0.073500  1
  H  H1215  1  0.166600  0.255000  0.573500  1
  H  H1216  1  0.911600  0.745000  0.926500  1
  H  H1217  1  0.773300  0.769800  0.439900  1
  H  H1218  1  0.003500  0.230200  0.060100  1
  H  H1219  1  0.226700  0.230200  0.560100  1
  H  H1220  1  0.996500  0.769800  0.939900  1
  H  H1221  1  0.228600  0.733800  0.448700  1
  H  H1222  1  0.494800  0.266200  0.051300  1
  H  H1223  1  0.771400  0.266200  0.551300  1
  H  H1224  1  0.505200  0.733800  0.948700  1
  H  H1225  1  0.108800  0.655800  0.467400  1
  H  H1226  1  0.453000  0.344200  0.032600  1
  H  H1227  1  0.891200  0.344200  0.532600  1
  H  H1228  1  0.547000  0.655800  0.967400  1
  H  H1229  1  0.103500  0.672600  0.435800  1
  H  H1230  1  0.430900  0.327400  0.064200  1
  H  H1231  1  0.896500  0.327400  0.564200  1
  H  H1232  1  0.569100  0.672600  0.935800  1
  H  H1233  1  0.116400  0.700000  0.469300  1
  H  H1234  1  0.416400  0.300000  0.030700  1
  H  H1235  1  0.883600  0.300000  0.530700  1
  H  H1236  1  0.583600  0.700000  0.969300  1
  N  N1237  1  0.340050  0.962700  0.564500  1
  N  N1238  1  0.377350  0.037300  0.935500  1
  N  N1239  1  0.659950  0.037300  0.435500  1
  N  N1240  1  0.622650  0.962700  0.064500  1
  N  N1241  1  0.354400  0.920200  0.614800  1
  N  N1242  1  0.434200  0.079800  0.885200  1
  N  N1243  1  0.645600  0.079800  0.385200  1
  N  N1244  1  0.565800  0.920200  0.114800  1
  N  N1245  1  0.103400  0.751800  0.619000  1
  N  N1246  1  0.351600  0.248200  0.881000  1
  N  N1247  1  0.896600  0.248200  0.381000  1
  N  N1248  1  0.648400  0.751800  0.119000  1
  N  N1249  1  0.966900  0.745200  0.659600  1
  N  N1250  1  0.221700  0.254800  0.840400  1
  N  N1251  1  0.033100  0.254800  0.340400  1
  N  N1252  1  0.778300  0.745200  0.159600  1
  N  N1253  1  0.873900  0.540600  0.271000  1
  N  N1254  1  0.333300  0.459400  0.229000  1
  N  N1255  1  0.126100  0.459400  0.729000  1
  N  N1256  1  0.666700  0.540600  0.771000  1
  N  N1257  1  0.021350  0.584700  0.299900  1
  N  N1258  1  0.436650  0.415300  0.200100  1
  N  N1259  1  0.978650  0.415300  0.700100  1
  N  N1260  1  0.563350  0.584700  0.799900  1
  N  N1261  1  0.268400  0.783400  0.236900  1
  N  N1262  1  0.485000  0.216600  0.263100  1
  N  N1263  1  0.731600  0.216600  0.763100  1
  N  N1264  1  0.515000  0.783400  0.736900  1
  N  N1265  1  0.254570  0.702140  0.221900  1
  N  N1266  1  0.552430  0.297860  0.278100  1
  N  N1267  1  0.745430  0.297860  0.778100  1
  N  N1268  1  0.447570  0.702140  0.721900  1
  N  N1269  1  0.986770  0.013740  0.382000  1
  N  N1270  1  0.973030  0.986260  0.118000  1
  N  N1271  1  0.013230  0.986260  0.618000  1
  N  N1272  1  0.026970  0.013740  0.882000  1
  N  N1273  1  0.117980  0.984560  0.394100  1
  N  N1274  1  0.133420  0.015440  0.105900  1
  N  N1275  1  0.882020  0.015440  0.605900  1
  N  N1276  1  0.866580  0.984560  0.894100  1
  N  N1277  1  0.227220  0.489040  0.467200  1
  N  N1278  1  0.738180  0.510960  0.032800  1
  N  N1279  1  0.772780  0.510960  0.532800  1
  N  N1280  1  0.261820  0.489040  0.967200  1
  N  N1281  1  0.243000  0.527400  0.533800  1
  N  N1282  1  0.715600  0.472600  0.966200  1
  N  N1283  1  0.757000  0.472600  0.466200  1
  N  N1284  1  0.284400  0.527400  0.033800  1
  N  N1285  1  0.418300  0.909800  0.521200  1
  N  N1286  1  0.508500  0.090200  0.978800  1
  N  N1287  1  0.581700  0.090200  0.478800  1
  N  N1288  1  0.491500  0.909800  0.021200  1
  N  N1289  1  0.428150  0.866900  0.568900  1
  N  N1290  1  0.561250  0.133100  0.931100  1
  N  N1291  1  0.571850  0.133100  0.431100  1
  N  N1292  1  0.438750  0.866900  0.068900  1
  N  N1293  1  0.864640  0.746880  0.602800  1
  N  N1294  1  0.117760  0.253120  0.897200  1
  N  N1295  1  0.135360  0.253120  0.397200  1
  N  N1296  1  0.882240  0.746880  0.102800  1
  N  N1297  1  0.996310  0.754020  0.565100  1
  N  N1298  1  0.242290  0.245980  0.934900  1
  N  N1299  1  0.003690  0.245980  0.434900  1
  N  N1300  1  0.757710  0.754020  0.065100  1
  N  N1301  1  0.790230  0.593460  0.314600  1
  N  N1302  1  0.196770  0.406540  0.185400  1
  N  N1303  1  0.209770  0.406540  0.685400  1
  N  N1304  1  0.803230  0.593460  0.814600  1
  N  N1305  1  0.940450  0.637300  0.339700  1
  N  N1306  1  0.303150  0.362700  0.160300  1
  N  N1307  1  0.059550  0.362700  0.660300  1
  N  N1308  1  0.696850  0.637300  0.839700  1
  N  N1309  1  0.350400  0.707600  0.280900  1
  N  N1310  1  0.642800  0.292400  0.219100  1
  N  N1311  1  0.649600  0.292400  0.719100  1
  N  N1312  1  0.357200  0.707600  0.780900  1
  N  N1313  1  0.367760  0.786920  0.297100  1
  N  N1314  1  0.580840  0.213080  0.202900  1
  N  N1315  1  0.632240  0.213080  0.702900  1
  N  N1316  1  0.419160  0.786920  0.797100  1
  N  N1317  1  0.873410  0.942020  0.393300  1
  N  N1318  1  0.931390  0.057980  0.106700  1
  N  N1319  1  0.126590  0.057980  0.606700  1
  N  N1320  1  0.068610  0.942020  0.893300  1
  N  N1321  1  0.003240  0.911080  0.403600  1
  N  N1322  1  0.092160  0.088920  0.096400  1
  N  N1323  1  0.996760  0.088920  0.596400  1
  N  N1324  1  0.907840  0.911080  0.903600  1
  N  N1325  1  0.358470  0.593740  0.514800  1
  N  N1326  1  0.764730  0.406260  0.985200  1
  N  N1327  1  0.641530  0.406260  0.485200  1
  N  N1328  1  0.235270  0.593740  0.014800  1
  N  N1329  1  0.346010  0.558020  0.449900  1
  N  N1330  1  0.787990  0.441980  0.050100  1
  N  N1331  1  0.653990  0.441980  0.550100  1
  N  N1332  1  0.212010  0.558020  0.949900  1
  N  N1333  1  0.462780  0.869360  0.403500  1
  N  N1334  1  0.593420  0.130640  0.096500  1
  N  N1335  1  0.537220  0.130640  0.596500  1
  N  N1336  1  0.406580  0.869360  0.903500  1
  N  N1337  1  0.589210  0.908420  0.426100  1
  N  N1338  1  0.680790  0.091580  0.073900  1
  N  N1339  1  0.410790  0.091580  0.573900  1
  N  N1340  1  0.319210  0.908420  0.926100  1
  N  N1341  1  0.579590  0.877580  0.371500  1
  N  N1342  1  0.702010  0.122420  0.128500  1
  N  N1343  1  0.420410  0.122420  0.628500  1
  N  N1344  1  0.297990  0.877580  0.871500  1
  N  N1345  1  0.470800  0.734400  0.556100  1
  N  N1346  1  0.736400  0.265600  0.943900  1
  N  N1347  1  0.529200  0.265600  0.443900  1
  N  N1348  1  0.263600  0.734400  0.056100  1
  N  N1349  1  0.593640  0.771280  0.578300  1
  N  N1350  1  0.822360  0.228720  0.921700  1
  N  N1351  1  0.406360  0.228720  0.421700  1
  N  N1352  1  0.177640  0.771280  0.078300  1
  N  N1353  1  0.579540  0.704080  0.565200  1
  N  N1354  1  0.875460  0.295920  0.934800  1
  N  N1355  1  0.420460  0.295920  0.434800  1
  N  N1356  1  0.124540  0.704080  0.065200  1
  N  N1357  1  0.529250  0.631500  0.320600  1
  N  N1358  1  0.897750  0.368500  0.179400  1
  N  N1359  1  0.470750  0.368500  0.679400  1
  N  N1360  1  0.102250  0.631500  0.820600  1
  N  N1361  1  0.418930  0.623660  0.354700  1
  N  N1362  1  0.795270  0.376340  0.145300  1
  N  N1363  1  0.581070  0.376340  0.645300  1
  N  N1364  1  0.204730  0.623660  0.854700  1
  N  N1365  1  0.527890  0.594780  0.363600  1
  N  N1366  1  0.933110  0.405220  0.136400  1
  N  N1367  1  0.472110  0.405220  0.636400  1
  N  N1368  1  0.066890  0.594780  0.863600  1
  N  N1369  1  0.992870  0.770940  0.403900  1
  N  N1370  1  0.221930  0.229060  0.096100  1
  N  N1371  1  0.007130  0.229060  0.596100  1
  N  N1372  1  0.778070  0.770940  0.903900  1
  N  N1373  1  0.002050  0.799300  0.459000  1
  N  N1374  1  0.202750  0.200700  0.041000  1
  N  N1375  1  0.997950  0.200700  0.541000  1
  N  N1376  1  0.797250  0.799300  0.959000  1
  N  N1377  1  0.986840  0.731880  0.443500  1
  N  N1378  1  0.254960  0.268120  0.056500  1
  N  N1379  1  0.013160  0.268120  0.556500  1
  N  N1380  1  0.745040  0.731880  0.943500  1
  N  N1381  1  0.541600  0.773800  0.369100  1
  N  N1382  1  0.767800  0.226200  0.130900  1
  N  N1383  1  0.458400  0.226200  0.630900  1
  N  N1384  1  0.232200  0.773800  0.869100  1
  N  N1385  1  0.440200  0.691800  0.430200  1
  N  N1386  1  0.748400  0.308200  0.069800  1
  N  N1387  1  0.559800  0.308200  0.569800  1
  N  N1388  1  0.251600  0.691800  0.930200  1
  N  N1389  1  0.731800  0.676000  0.501500  1
  N  N1390  1  0.055800  0.324000  0.998500  1
  N  N1391  1  0.268200  0.324000  0.498500  1
  N  N1392  1  0.944200  0.676000  0.001500  1
  N  N1393  1  0.656100  0.723200  0.421800  1
  N  N1394  1  0.932900  0.276800  0.078200  1
  N  N1395  1  0.343900  0.276800  0.578200  1
  N  N1396  1  0.067100  0.723200  0.921800  1
  N  N1397  1  0.733700  0.655400  0.415400  1
  N  N1398  1  0.078300  0.344600  0.084600  1
  N  N1399  1  0.266300  0.344600  0.584600  1
  N  N1400  1  0.921700  0.655400  0.915400  1
  N  N1401  1  0.242100  0.712400  0.443000  1
  N  N1402  1  0.529700  0.287600  0.057000  1
  N  N1403  1  0.757900  0.287600  0.557000  1
  N  N1404  1  0.470300  0.712400  0.943000  1
  N  N1405  1  0.190800  0.791600  0.404400  1
  N  N1406  1  0.399200  0.208400  0.095600  1
  N  N1407  1  0.809200  0.208400  0.595600  1
  N  N1408  1  0.600800  0.791600  0.904400  1
  N  N1409  1  0.156900  0.613800  0.386100  1
  N  N1410  1  0.543100  0.386200  0.113900  1
  N  N1411  1  0.843100  0.386200  0.613900  1
  N  N1412  1  0.456900  0.613800  0.886100  1
  N  N1413  1  0.675400  0.426800  0.225900  1
  N  N1414  1  0.248600  0.573200  0.274100  1
  N  N1415  1  0.324600  0.573200  0.774100  1
  N  N1416  1  0.751400  0.426800  0.725900  1
  N  N1417  1  0.552000  0.036000  0.597000  1
  N  N1418  1  0.516000  0.964000  0.903000  1
  N  N1419  1  0.448000  0.964000  0.403000  1
  N  N1420  1  0.484000  0.036000  0.097000  1
  N  N1421  1  0.213400  0.700800  0.545400  1
  N  N1422  1  0.512600  0.299200  0.954600  1
  N  N1423  1  0.786600  0.299200  0.454600  1
  N  N1424  1  0.487400  0.700800  0.045400  1
  N  N1425  1  0.809400  0.428800  0.217900  1
  N  N1426  1  0.380600  0.571200  0.282100  1
  N  N1427  1  0.190600  0.571200  0.782100  1
  N  N1428  1  0.619400  0.428800  0.717900  1
  N  N1429  1  0.629400  0.514800  0.270900  1
  N  N1430  1  0.114600  0.485200  0.229100  1
  N  N1431  1  0.370600  0.485200  0.729100  1
  N  N1432  1  0.885400  0.514800  0.770900  1
  N  N1433  1  0.721900  0.733800  0.672800  1
  N  N1434  1  0.988100  0.266200  0.827200  1
  N  N1435  1  0.278100  0.266200  0.327200  1
  N  N1436  1  0.011900  0.733800  0.172800  1
  N  N1437  1  0.949000  1.000000  0.491000  1
  N  N1438  1  0.949000  1.000000  0.009000  1
  N  N1439  1  0.051000  1.000000  0.509000  1
  N  N1440  1  0.051000  1.000000  0.991000  1
  N  N1441  1  0.062700  0.873400  0.643200  1
  N  N1442  1  0.189300  0.126600  0.856800  1
  N  N1443  1  0.937300  0.126600  0.356800  1
  N  N1444  1  0.810700  0.873400  0.143200  1
  N  N1445  1  0.340900  0.972800  0.463500  1
  N  N1446  1  0.368100  0.027200  0.036500  1
  N  N1447  1  0.659100  0.027200  0.536500  1
  N  N1448  1  0.631900  0.972800  0.963500  1
  N  N1449  1  0.619000  0.558000  0.469800  1
  N  N1450  1  0.061000  0.442000  0.030200  1
  N  N1451  1  0.381000  0.442000  0.530200  1
  N  N1452  1  0.939000  0.558000  0.969800  1
  N  N1453  1  0.193500  0.793000  0.489400  1
  N  N1454  1  0.400500  0.207000  0.010600  1
  N  N1455  1  0.806500  0.207000  0.510600  1
  N  N1456  1  0.599500  0.793000  0.989400  1
  N  N1457  1  0.605200  0.964400  0.591100  1
  N  N1458  1  0.640800  0.035600  0.908900  1
  N  N1459  1  0.394800  0.035600  0.408900  1
  N  N1460  1  0.359200  0.964400  0.091100  1
  N  N1461  1  0.910300  0.636600  0.571100  1
  N  N1462  1  0.273700  0.363400  0.928900  1
  N  N1463  1  0.089700  0.363400  0.428900  1
  N  N1464  1  0.726300  0.636600  0.071100  1
  N  N1465  1  0.407800  0.693600  0.615000  1
  N  N1466  1  0.714200  0.306400  0.885000  1
  N  N1467  1  0.592200  0.306400  0.385000  1
  N  N1468  1  0.285800  0.693600  0.115000  1
  N  N1469  1  0.393900  0.812200  0.645700  1
  N  N1470  1  0.581700  0.187800  0.854300  1
  N  N1471  1  0.606100  0.187800  0.354300  1
  N  N1472  1  0.418300  0.812200  0.145700  1
  N  N1473  1  0.356300  0.104600  0.716700  1
  N  N1474  1  0.251700  0.895400  0.783300  1
  N  N1475  1  0.643700  0.895400  0.283300  1
  N  N1476  1  0.748300  0.104600  0.216700  1
  N  N1477  1  0.172500  0.739000  0.375400  1
  N  N1478  1  0.433500  0.261000  0.124600  1
  N  N1479  1  0.827500  0.261000  0.624600  1
  N  N1480  1  0.566500  0.739000  0.875400  1
  N  N1481  1  0.819800  0.833600  0.326400  1
  N  N1482  1  0.986200  0.166400  0.173600  1
  N  N1483  1  0.180200  0.166400  0.673600  1
  N  N1484  1  0.013800  0.833600  0.826400  1
  N  N1485  1  0.185200  0.858400  0.557500  1
  N  N1486  1  0.326800  0.141600  0.942500  1
  N  N1487  1  0.814800  0.141600  0.442500  1
  N  N1488  1  0.673200  0.858400  0.057500  1
  N  N1489  1  0.416600  0.501200  0.492400  1
  N  N1490  1  0.915400  0.498800  0.007600  1
  N  N1491  1  0.583400  0.498800  0.507600  1
  N  N1492  1  0.084600  0.501200  0.992400  1
  N  N1493  1  0.928800  0.625600  0.503500  1
  N  N1494  1  0.303200  0.374400  0.996500  1
  N  N1495  1  0.071200  0.374400  0.496500  1
  N  N1496  1  0.696800  0.625600  0.003500  1
  N  N1497  1  0.103500  0.573000  0.204600  1
  N  N1498  1  0.530500  0.427000  0.295400  1
  N  N1499  1  0.896500  0.427000  0.795400  1
  N  N1500  1  0.469500  0.573000  0.704600  1
  N  N1501  1  0.678200  0.612400  0.540100  1
  N  N1502  1  0.065800  0.387600  0.959900  1
  N  N1503  1  0.321800  0.387600  0.459900  1
  N  N1504  1  0.934200  0.612400  0.040100  1
  N  N1505  1  0.529100  0.518200  0.498000  1
  N  N1506  1  0.010900  0.481800  0.002000  1
  N  N1507  1  0.470900  0.481800  0.502000  1
  N  N1508  1  0.989100  0.518200  0.998000  1
  N  N1509  1  0.386800  0.047600  0.783800  1
  N  N1510  1  0.339200  0.952400  0.716200  1
  N  N1511  1  0.613200  0.952400  0.216200  1
  N  N1512  1  0.660800  0.047600  0.283800  1
  O  O1513  1  0.391100  0.724200  0.469900  1
  O  O1514  1  0.666900  0.275800  0.030100  1
  O  O1515  1  0.608900  0.275800  0.530100  1
  O  O1516  1  0.333100  0.724200  0.969900  1
  O  O1517  1  0.567800  0.682000  0.389300  1
  O  O1518  1  0.885800  0.318000  0.110700  1
  O  O1519  1  0.432200  0.318000  0.610700  1
  O  O1520  1  0.114200  0.682000  0.889300  1
  O  O1521  1  0.776400  0.680800  0.367400  1
  O  O1522  1  0.095600  0.319200  0.132600  1
  O  O1523  1  0.223600  0.319200  0.632600  1
  O  O1524  1  0.904400  0.680800  0.867400  1
  O  O1525  1  0.245900  0.660600  0.461000  1
  O  O1526  1  0.585300  0.339400  0.039000  1
  O  O1527  1  0.754100  0.339400  0.539000  1
  O  O1528  1  0.414700  0.660600  0.961000  1
  O  O1529  1  0.176900  0.783000  0.370600  1
  O  O1530  1  0.393900  0.217000  0.129400  1
  O  O1531  1  0.823100  0.217000  0.629400  1
  O  O1532  1  0.606100  0.783000  0.870600  1
  O  O1533  1  0.194800  0.817600  0.423200  1
  O  O1534  1  0.377200  0.182400  0.076800  1
  O  O1535  1  0.805200  0.182400  0.576800  1
  O  O1536  1  0.622800  0.817600  0.923200  1
  O  O1537  1  0.157500  0.751200  0.406900  1
  O  O1538  1  0.406300  0.248800  0.093100  1
  O  O1539  1  0.842500  0.248800  0.593100  1
  O  O1540  1  0.593700  0.751200  0.906900  1
  O  O1541  1  0.214300  0.625200  0.368800  1
  O  O1542  1  0.589100  0.374800  0.131200  1
  O  O1543  1  0.785700  0.374800  0.631200  1
  O  O1544  1  0.410900  0.625200  0.868800  1
  O  O1545  1  0.145900  0.576600  0.392800  1
  O  O1546  1  0.569300  0.423400  0.107200  1
  O  O1547  1  0.854100  0.423400  0.607200  1
  O  O1548  1  0.430700  0.576600  0.892800  1
  O  O1549  1  0.090700  0.631400  0.391900  1
  O  O1550  1  0.459300  0.368600  0.108100  1
  O  O1551  1  0.909300  0.368600  0.608100  1
  O  O1552  1  0.540700  0.631400  0.891900  1
  O  O1553  1  0.153400  0.644800  0.542200  1
  O  O1554  1  0.508600  0.355200  0.957800  1
  O  O1555  1  0.846600  0.355200  0.457800  1
  O  O1556  1  0.491400  0.644800  0.042200  1
  O  O1557  1  0.765100  0.426200  0.217300  1
  O  O1558  1  0.338900  0.573800  0.282700  1
  O  O1559  1  0.234900  0.573800  0.782700  1
  O  O1560  1  0.661100  0.426200  0.717300  1
  O  O1561  1  0.697800  0.399400  0.253100  1
  O  O1562  1  0.298400  0.600600  0.246900  1
  O  O1563  1  0.302200  0.600600  0.746900  1
  O  O1564  1  0.701600  0.399400  0.753100  1
  O  O1565  1  0.681400  0.438800  0.199500  1
  O  O1566  1  0.242600  0.561200  0.300500  1
  O  O1567  1  0.318600  0.561200  0.800500  1
  O  O1568  1  0.757400  0.438800  0.699500  1
  O  O1569  1  0.954000  0.468000  0.199500  1
  O  O1570  1  0.486000  0.532000  0.300500  1
  O  O1571  1  0.046000  0.532000  0.800500  1
  O  O1572  1  0.514000  0.468000  0.699500  1
  O  O1573  1  0.847000  0.470000  0.175900  1
  O  O1574  1  0.377000  0.530000  0.324100  1
  O  O1575  1  0.153000  0.530000  0.824100  1
  O  O1576  1  0.623000  0.470000  0.675900  1
  O  O1577  1  0.616000  0.546000  0.233900  1
  O  O1578  1  0.070000  0.454000  0.266100  1
  O  O1579  1  0.384000  0.454000  0.766100  1
  O  O1580  1  0.930000  0.546000  0.733900  1
  O  O1581  1  0.732400  0.802800  0.682800  1
  O  O1582  1  0.929600  0.197200  0.817200  1
  O  O1583  1  0.267600  0.197200  0.317200  1
  O  O1584  1  0.070400  0.802800  0.182800  1
  O  O1585  1  0.703300  0.750600  0.666100  1
  O  O1586  1  0.952700  0.249400  0.833900  1
  O  O1587  1  0.296700  0.249400  0.333900  1
  O  O1588  1  0.047300  0.750600  0.166100  1
  O  O1589  1  0.002600  0.992400  0.475100  1
  O  O1590  1  0.010200  0.007600  0.024900  1
  O  O1591  1  0.997400  0.007600  0.524900  1
  O  O1592  1  0.989800  0.992400  0.975100  1
  O  O1593  1  0.886000  0.021000  0.488100  1
  O  O1594  1  0.865000  0.979000  0.011900  1
  O  O1595  1  0.114000  0.979000  0.511900  1
  O  O1596  1  0.135000  0.021000  0.988100  1
  O  O1597  1  0.290900  0.831800  0.691700  1
  O  O1598  1  0.459100  0.168200  0.808300  1
  O  O1599  1  0.709100  0.168200  0.308300  1
  O  O1600  1  0.540900  0.831800  0.191700  1
  O  O1601  1  0.725610  0.972820  0.501800  1
  O  O1602  1  0.752790  0.027180  0.998200  1
  O  O1603  1  0.274390  0.027180  0.498200  1
  O  O1604  1  0.247210  0.972820  0.001800  1
  O  O1605  1  0.511900  0.766000  0.222300  1
  O  O1606  1  0.745900  0.234000  0.277700  1
  O  O1607  1  0.488100  0.234000  0.777700  1
  O  O1608  1  0.254100  0.766000  0.722300  1
  O  O1609  1  0.974600  0.916000  0.311700  1
  O  O1610  1  0.058600  0.084000  0.188300  1
  O  O1611  1  0.025400  0.084000  0.688300  1
  O  O1612  1  0.941400  0.916000  0.811700  1
  O  O1613  1  0.240100  0.014600  0.673300  1
  O  O1614  1  0.225500  0.985400  0.826700  1
  O  O1615  1  0.759900  0.985400  0.326700  1
  O  O1616  1  0.774500  0.014600  0.173300  1
  O  O1617  1  0.149600  0.591800  0.480400  1
  O  O1618  1  0.557800  0.408200  0.019600  1
  O  O1619  1  0.850400  0.408200  0.519600  1
  O  O1620  1  0.442200  0.591800  0.980400  1
  O  O1621  1  0.143900  0.723400  0.304800  1
  O  O1622  1  0.420500  0.276600  0.195200  1
  O  O1623  1  0.856100  0.276600  0.695200  1
  O  O1624  1  0.579500  0.723400  0.804800  1
  O  O1625  1  0.804100  0.589000  0.422500  1
  O  O1626  1  0.215100  0.411000  0.077500  1
  O  O1627  1  0.195900  0.411000  0.577500  1
  O  O1628  1  0.784900  0.589000  0.922500  1
  O  O1629  1  0.831600  0.640200  0.522900  1
  O  O1630  1  0.191400  0.359800  0.977100  1
  O  O1631  1  0.168400  0.359800  0.477100  1
  O  O1632  1  0.808600  0.640200  0.022900  1
  O  O1633  1  0.190700  0.945200  0.691300  1
  O  O1634  1  0.245500  0.054800  0.808700  1
  O  O1635  1  0.809300  0.054800  0.308700  1
  O  O1636  1  0.754500  0.945200  0.191300  1
  O  O1637  1  0.641500  0.608600  0.591700  1
  O  O1638  1  0.032900  0.391400  0.908300  1
  O  O1639  1  0.358500  0.391400  0.408300  1
  O  O1640  1  0.967100  0.608600  0.091700  1
  O  O1641  1  0.579200  0.498400  0.383800  1
  O  O1642  1  0.080800  0.501600  0.116200  1
  O  O1643  1  0.420800  0.501600  0.616200  1
  O  O1644  1  0.919200  0.498400  0.883800  1
  O  O1645  1  0.820700  0.930400  0.287300  1
  O  O1646  1  0.890300  0.069600  0.212700  1
  O  O1647  1  0.179300  0.069600  0.712700  1
  O  O1648  1  0.109700  0.930400  0.787300  1
  O  O1649  1  0.404100  0.041800  0.671700  1
  O  O1650  1  0.362300  0.958200  0.828300  1
  O  O1651  1  0.595900  0.958200  0.328300  1
  O  O1652  1  0.637700  0.041800  0.171700  1
  O  O1653  1  0.307500  0.774800  0.133400  1
  O  O1654  1  0.532700  0.225200  0.366600  1
  O  O1655  1  0.692500  0.225200  0.866600  1
  O  O1656  1  0.467300  0.774800  0.633400  1
  O  O1657  1  0.514300  0.047400  0.626200  1
  O  O1658  1  0.466900  0.952600  0.873800  1
  O  O1659  1  0.485700  0.952600  0.373800  1
  O  O1660  1  0.533100  0.047400  0.126200  1
  O  O1661  1  0.571900  0.987200  0.586500  1
  O  O1662  1  0.584700  0.012800  0.913500  1
  O  O1663  1  0.428100  0.012800  0.413500  1
  O  O1664  1  0.415300  0.987200  0.086500  1
  O  O1665  1  0.637900  0.055800  0.580400  1
  O  O1666  1  0.582100  0.944200  0.919600  1
  O  O1667  1  0.362100  0.944200  0.419600  1
  O  O1668  1  0.417900  0.055800  0.080400  1
  O  O1669  1  0.168000  0.691400  0.697700  1
  O  O1670  1  0.476600  0.308600  0.802300  1
  O  O1671  1  0.832000  0.308600  0.302300  1
  O  O1672  1  0.523400  0.691400  0.197700  1
  O  O1673  1  0.488300  0.594800  0.236000  1
  O  O1674  1  0.893500  0.405200  0.264000  1
  O  O1675  1  0.511700  0.405200  0.764000  1
  O  O1676  1  0.106500  0.594800  0.736000  1
  O  O1677  1  0.110800  0.857600  0.313300  1
  O  O1678  1  0.253200  0.142400  0.186700  1
  O  O1679  1  0.889200  0.142400  0.686700  1
  O  O1680  1  0.746800  0.857600  0.813300  1
  O  O1681  1  0.647700  0.953400  0.629400  1
  O  O1682  1  0.694300  0.046600  0.870600  1
  O  O1683  1  0.352300  0.046600  0.370600  1
  O  O1684  1  0.305700  0.953400  0.129400  1
  O  O1685  1  0.658300  0.090200  0.661700  1
  O  O1686  1  0.568100  0.909800  0.838300  1
  O  O1687  1  0.341700  0.909800  0.338300  1
  O  O1688  1  0.431900  0.090200  0.161700  1
  O  O1689  1  0.163100  0.874200  0.487900  1
  O  O1690  1  0.288900  0.125800  0.012100  1
  O  O1691  1  0.836900  0.125800  0.512100  1
  O  O1692  1  0.711100  0.874200  0.987900  1
  O  O1693  1  0.869900  0.537800  0.383000  1
  O  O1694  1  0.332100  0.462200  0.117000  1
  O  O1695  1  0.130100  0.462200  0.617000  1
  O  O1696  1  0.667900  0.537800  0.883000  1
  O  O1697  1  0.220500  0.881400  0.390900  1
  O  O1698  1  0.339100  0.118600  0.109100  1
  O  O1699  1  0.779500  0.118600  0.609100  1
  O  O1700  1  0.660900  0.881400  0.890900  1
  O  O1701  1  0.780000  0.717600  0.318800  1
  O  O1702  1  0.062400  0.282400  0.181200  1
  O  O1703  1  0.220000  0.282400  0.681200  1
  O  O1704  1  0.937600  0.717600  0.818800  1
  O  O1705  1  0.208600  0.833400  0.152700  1
  O  O1706  1  0.375200  0.166600  0.347300  1
  O  O1707  1  0.791400  0.166600  0.847300  1
  O  O1708  1  0.624800  0.833400  0.652700  1
  O  O1709  1  0.901000  0.777800  0.320100  1
  O  O1710  1  0.123200  0.222200  0.179900  1
  O  O1711  1  0.099000  0.222200  0.679900  1
  O  O1712  1  0.876800  0.777800  0.820100  1
  O  O1713  1  0.957400  0.462800  0.315500  1
  O  O1714  1  0.494600  0.537200  0.184500  1
  O  O1715  1  0.042600  0.537200  0.684500  1
  O  O1716  1  0.505400  0.462800  0.815500  1
  O  O1717  1  0.414400  0.467800  0.400700  1
  O  O1718  1  0.946600  0.532200  0.099300  1
  O  O1719  1  0.585600  0.532200  0.599300  1
  O  O1720  1  0.053400  0.467800  0.900700  1
  O  O1721  1  0.195000  0.646000  0.643000  1
  O  O1722  1  0.549000  0.354000  0.857000  1
  O  O1723  1  0.805000  0.354000  0.357000  1
  O  O1724  1  0.451000  0.646000  0.143000  1
  O  O1725  1  0.910900  0.649800  0.250200  1
  O  O1726  1  0.261100  0.350200  0.249800  1
  O  O1727  1  0.089100  0.350200  0.749800  1
  O  O1728  1  0.738900  0.649800  0.750200  1
  O  O1729  1  0.789300  0.706600  0.265000  1
  O  O1730  1  0.082700  0.293400  0.235000  1
  O  O1731  1  0.210700  0.293400  0.735000  1
  O  O1732  1  0.917300  0.706600  0.765000  1
  O  O1733  1  0.244000  0.542000  0.338100  1
  O  O1734  1  0.702000  0.458000  0.161900  1
  O  O1735  1  0.756000  0.458000  0.661900  1
  O  O1736  1  0.298000  0.542000  0.838100  1
  O  O1737  1  0.235100  0.118600  0.427900  1
  O  O1738  1  0.116500  0.881400  0.072100  1
  O  O1739  1  0.764900  0.881400  0.572100  1
  O  O1740  1  0.883500  0.118600  0.927900  1
  O  O1741  1  0.394400  0.882800  0.278900  1
  O  O1742  1  0.511600  0.117200  0.221100  1
  O  O1743  1  0.605600  0.117200  0.721100  1
  O  O1744  1  0.488400  0.882800  0.778900  1
  O  O1745  1  0.172700  0.896200  0.130700  1
  O  O1746  1  0.276500  0.103800  0.369300  1
  O  O1747  1  0.827300  0.103800  0.869300  1
  O  O1748  1  0.723500  0.896200  0.630700  1
  O  O1749  1  0.049100  0.653800  0.728600  1
  O  O1750  1  0.395300  0.346200  0.771400  1
  O  O1751  1  0.950900  0.346200  0.271400  1
  O  O1752  1  0.604700  0.653800  0.228600  1
  O  O1753  1  0.685300  0.922000  0.546800  1
  O  O1754  1  0.763300  0.078000  0.953200  1
  O  O1755  1  0.314700  0.078000  0.453200  1
  O  O1756  1  0.236700  0.922000  0.046800  1
  O  O1757  1  0.869400  0.954800  0.236200  1
  O  O1758  1  0.914600  0.045200  0.263800  1
  O  O1759  1  0.130600  0.045200  0.763800  1
  O  O1760  1  0.085400  0.954800  0.736200  1
  O  O1761  1  0.506300  0.430600  0.414700  1
  O  O1762  1  0.075700  0.569400  0.085300  1
  O  O1763  1  0.493700  0.569400  0.585300  1
  O  O1764  1  0.924300  0.430600  0.914700  1
  O  O1765  1  0.656100  0.772200  0.323100  1
  O  O1766  1  0.883900  0.227800  0.176900  1
  O  O1767  1  0.343900  0.227800  0.676900  1
  O  O1768  1  0.116100  0.772200  0.823100  1
  O  O1769  1  0.112700  0.149400  0.433100  1
  O  O1770  1  0.963300  0.850600  0.066900  1
  O  O1771  1  0.887300  0.850600  0.566900  1
  O  O1772  1  0.036700  0.149400  0.933100  1
  O  O1773  1  0.021600  0.553200  0.472300  1
  O  O1774  1  0.468400  0.446800  0.027700  1
  O  O1775  1  0.978400  0.446800  0.527700  1
  O  O1776  1  0.531600  0.553200  0.972300  1
  O  O1777  1  0.153700  0.861400  0.688300  1
  O  O1778  1  0.292300  0.138600  0.811700  1
  O  O1779  1  0.846300  0.138600  0.311700  1
  O  O1780  1  0.707700  0.861400  0.188300  1
  O  O1781  1  0.097000  0.898000  0.518800  1
  O  O1782  1  0.199000  0.102000  0.981200  1
  O  O1783  1  0.903000  0.102000  0.481200  1
  O  O1784  1  0.801000  0.898000  0.018800  1
  O  O1785  1  0.093500  0.977000  0.290900  1
  O  O1786  1  0.116500  0.023000  0.209100  1
  O  O1787  1  0.906500  0.023000  0.709100  1
  O  O1788  1  0.883500  0.977000  0.790900  1
  O  O1789  1  0.305000  0.487600  0.374900  1
  O  O1790  1  0.817400  0.512400  0.125100  1
  O  O1791  1  0.695000  0.512400  0.625100  1
  O  O1792  1  0.182600  0.487600  0.874900  1
  O  O1793  1  0.069800  0.789600  0.317400  1
  O  O1794  1  0.280200  0.210400  0.182600  1
  O  O1795  1  0.930200  0.210400  0.682600  1
  O  O1796  1  0.719800  0.789600  0.817400  1
  O  O1797  1  0.360200  0.214400  0.733100  1
  O  O1798  1  0.145800  0.785600  0.766900  1
  O  O1799  1  0.639800  0.785600  0.266900  1
  O  O1800  1  0.854200  0.214400  0.233100  1
  O  O1801  1  0.261500  0.721800  0.551100  1
  O  O1802  1  0.539700  0.278200  0.948900  1
  O  O1803  1  0.738500  0.278200  0.448900  1
  O  O1804  1  0.460300  0.721800  0.051100  1
  O  O1805  1  0.144100  0.702200  0.528300  1
  O  O1806  1  0.441900  0.297800  0.971700  1
  O  O1807  1  0.855900  0.297800  0.471700  1
  O  O1808  1  0.558100  0.702200  0.028300  1
  O  O1809  1  0.595800  0.509600  0.287000  1
  O  O1810  1  0.086200  0.490400  0.213000  1
  O  O1811  1  0.404200  0.490400  0.713000  1
  O  O1812  1  0.913800  0.509600  0.787000  1
  O  O1813  1  0.529700  0.551400  0.283100  1
  O  O1814  1  0.978300  0.448600  0.216900  1
  O  O1815  1  0.470300  0.448600  0.716900  1
  O  O1816  1  0.021700  0.551400  0.783100  1
  O  O1817  1  0.683200  0.714400  0.670000  1
  O  O1818  1  0.968800  0.285600  0.830000  1
  O  O1819  1  0.316800  0.285600  0.330000  1
  O  O1820  1  0.031200  0.714400  0.170000  1
  O  O1821  1  0.883300  0.014600  0.456000  1
  O  O1822  1  0.868700  0.985400  0.044000  1
  O  O1823  1  0.116700  0.985400  0.544000  1
  O  O1824  1  0.131300  0.014600  0.956000  1
  O  O1825  1  0.969800  0.865600  0.616300  1
  O  O1826  1  0.104200  0.134400  0.883700  1
  O  O1827  1  0.030200  0.134400  0.383700  1
  O  O1828  1  0.895800  0.865600  0.116300  1
  O  O1829  1  0.024700  0.843400  0.628300  1
  O  O1830  1  0.181300  0.156600  0.871700  1
  O  O1831  1  0.975300  0.156600  0.371700  1
  O  O1832  1  0.818700  0.843400  0.128300  1
  O  O1833  1  0.114100  0.895400  0.634300  1
  O  O1834  1  0.218700  0.104600  0.865700  1
  O  O1835  1  0.885900  0.104600  0.365700  1
  O  O1836  1  0.781300  0.895400  0.134300  1
  O  O1837  1  0.167500  0.695800  0.355900  1
  O  O1838  1  0.471700  0.304200  0.144100  1
  O  O1839  1  0.832500  0.304200  0.644100  1
  O  O1840  1  0.528300  0.695800  0.855900  1
  O  O1841  1  0.439100  0.831000  0.648700  1
  O  O1842  1  0.608100  0.169000  0.851300  1
  O  O1843  1  0.560900  0.169000  0.351300  1
  O  O1844  1  0.391900  0.831000  0.148700  1
  O  O1845  1  0.207300  0.852200  0.542400  1
  O  O1846  1  0.355100  0.147800  0.957600  1
  O  O1847  1  0.792700  0.147800  0.457600  1
  O  O1848  1  0.644900  0.852200  0.042400  1
  O  O1849  1  0.915900  0.622400  0.471400  1
  O  O1850  1  0.293500  0.377600  0.028600  1
  O  O1851  1  0.084100  0.377600  0.528600  1
  O  O1852  1  0.706500  0.622400  0.971400  1
  O  O1853  1  0.644900  0.557000  0.430100  1
  O  O1854  1  0.087900  0.443000  0.069900  1
  O  O1855  1  0.355100  0.443000  0.569900  1
  O  O1856  1  0.912100  0.557000  0.930100  1
  O  O1857  1  0.457400  0.511800  0.504700  1
  O  O1858  1  0.945600  0.488200  0.995300  1
  O  O1859  1  0.542600  0.488200  0.495300  1
  O  O1860  1  0.054400  0.511800  0.004700  1
  O  O1861  1  0.663500  0.618400  0.523900  1
  O  O1862  1  0.045100  0.381600  0.976100  1
  O  O1863  1  0.336500  0.381600  0.476100  1
  O  O1864  1  0.954900  0.618400  0.023900  1
  O  O1865  1  0.213000  0.783600  0.520800  1
  O  O1866  1  0.429400  0.216400  0.979200  1
  O  O1867  1  0.787000  0.216400  0.479200  1
  O  O1868  1  0.570600  0.783600  0.020800  1
  O  O1869  1  0.346400  0.772800  0.641000  1
  O  O1870  1  0.573600  0.227200  0.859000  1
  O  O1871  1  0.653600  0.227200  0.359000  1
  O  O1872  1  0.426400  0.772800  0.141000  1
  O  O1873  1  0.127400  0.878600  0.574900  1
  O  O1874  1  0.248800  0.121400  0.925100  1
  O  O1875  1  0.872600  0.121400  0.425100  1
  O  O1876  1  0.751200  0.878600  0.074900  1
  O  O1877  1  0.938600  0.651200  0.593600  1
  O  O1878  1  0.287400  0.348800  0.906400  1
  O  O1879  1  0.061400  0.348800  0.406400  1
  O  O1880  1  0.712600  0.651200  0.093600  1
  O  O1881  1  0.206600  0.919200  0.457600  1
  O  O1882  1  0.287400  0.080800  0.042400  1
  O  O1883  1  0.793400  0.080800  0.542400  1
  O  O1884  1  0.712600  0.919200  0.957600  1
  O  O1885  1  0.329500  0.691000  0.610100  1
  O  O1886  1  0.638500  0.309000  0.889900  1
  O  O1887  1  0.670500  0.309000  0.389900  1
  O  O1888  1  0.361500  0.691000  0.110100  1
  O  O1889  1  0.157500  0.565000  0.210600  1
  O  O1890  1  0.592500  0.435000  0.289400  1
  O  O1891  1  0.842500  0.435000  0.789400  1
  O  O1892  1  0.407500  0.565000  0.710600  1
  O  O1893  1  0.428700  0.097400  0.721500  1
  O  O1894  1  0.331300  0.902600  0.778500  1
  O  O1895  1  0.571300  0.902600  0.278500  1
  O  O1896  1  0.668700  0.097400  0.221500  1
  O  O1897  1  0.590500  0.554600  0.488300  1
  O  O1898  1  0.035900  0.445400  0.011700  1
  O  O1899  1  0.409500  0.445400  0.511700  1
  O  O1900  1  0.964100  0.554600  0.988300  1
  O  O1901  1  0.040700  0.571400  0.191700  1
  O  O1902  1  0.469300  0.428600  0.308300  1
  O  O1903  1  0.959300  0.428600  0.808300  1
  O  O1904  1  0.530700  0.571400  0.691700  1
  O  O1905  1  0.327500  0.138200  0.709200  1
  O  O1906  1  0.189300  0.861800  0.790800  1
  O  O1907  1  0.672500  0.861800  0.290800  1
  O  O1908  1  0.810700  0.138200  0.209200  1
  O  O1909  1  0.286700  0.755400  0.510600  1
  O  O1910  1  0.531300  0.244600  0.989400  1
  O  O1911  1  0.713300  0.244600  0.489400  1
  O  O1912  1  0.468700  0.755400  0.010600  1
  O  O1913  1  0.882800  0.845600  0.308700  1
  O  O1914  1  0.037200  0.154400  0.191300  1
  O  O1915  1  0.117200  0.154400  0.691300  1
  O  O1916  1  0.962800  0.845600  0.808700  1
  O  O1917  1  0.790300  0.818600  0.351600  1
  O  O1918  1  0.971700  0.181400  0.148400  1
  O  O1919  1  0.209700  0.181400  0.648400  1
  O  O1920  1  0.028300  0.818600  0.851600  1
  O  O1921  1  0.462200  0.694400  0.622200  1
  O  O1922  1  0.767800  0.305600  0.877800  1
  O  O1923  1  0.537800  0.305600  0.377800  1
  O  O1924  1  0.232200  0.694400  0.122200  1
  O  O1925  1  0.304600  0.933200  0.489400  1
  O  O1926  1  0.371400  0.066800  0.010600  1
  O  O1927  1  0.695400  0.066800  0.510600  1
  O  O1928  1  0.628600  0.933200  0.989400  1
  O  O1929  1  0.280800  0.945600  0.462400  1
  O  O1930  1  0.335200  0.054400  0.037600  1
  O  O1931  1  0.719200  0.054400  0.537600  1
  O  O1932  1  0.664800  0.945600  0.962400  1
  O  O1933  1  0.388700  0.087400  0.785200  1
  O  O1934  1  0.301300  0.912600  0.714800  1
  O  O1935  1  0.611300  0.912600  0.214800  1
  O  O1936  1  0.698700  0.087400  0.285200  1
  O  O1937  1  0.443800  0.029600  0.780300  1
  O  O1938  1  0.414200  0.970400  0.719700  1
  O  O1939  1  0.556200  0.970400  0.219700  1
  O  O1940  1  0.585800  0.029600  0.280300  1
  Pd  Pd1941  1  0.384967  0.914294  0.567610  1
  Pd  Pd1942  1  0.470673  0.085706  0.932390  1
  Pd  Pd1943  1  0.615033  0.085706  0.432390  1
  Pd  Pd1944  1  0.529327  0.914294  0.067610  1
  Pd  Pd1945  1  0.981727  0.749354  0.611830  1
  Pd  Pd1946  1  0.232373  0.250646  0.888170  1
  Pd  Pd1947  1  0.018273  0.250646  0.388170  1
  Pd  Pd1948  1  0.767627  0.749354  0.111830  1
  Pd  Pd1949  1  0.904991  0.589162  0.305970  1
  Pd  Pd1950  1  0.315829  0.410838  0.194030  1
  Pd  Pd1951  1  0.095009  0.410838  0.694030  1
  Pd  Pd1952  1  0.684171  0.589162  0.805970  1
  Pd  Pd1953  1  0.309180  0.744920  0.259860  1
  Pd  Pd1954  1  0.564260  0.255080  0.240140  1
  Pd  Pd1955  1  0.690820  0.255080  0.740140  1
  Pd  Pd1956  1  0.435740  0.744920  0.759860  1
  Pd  Pd1957  1  0.994512  0.962204  0.392680  1
  Pd  Pd1958  1  0.032308  0.037796  0.107320  1
  Pd  Pd1959  1  0.005488  0.037796  0.607320  1
  Pd  Pd1960  1  0.967692  0.962204  0.892680  1
  Pd  Pd1961  1  0.294327  0.542214  0.491170  1
  Pd  Pd1962  1  0.752113  0.457786  0.008830  1
  Pd  Pd1963  1  0.705673  0.457786  0.508830  1
  Pd  Pd1964  1  0.247887  0.542214  0.991170  1
