# generated using pymatgen
data_Co4B72P12Pt6C162S2N12O13F6
_symmetry_space_group_name_H-M   'P 1'
_cell_length_a   27.97900000
_cell_length_b   31.31600000
_cell_length_c   43.90800000
_cell_angle_alpha   90.00000000
_cell_angle_beta   90.00000000
_cell_angle_gamma   101.58500000
_symmetry_Int_Tables_number   1
_chemical_formula_structural   Co4B72P12Pt6C162S2N12O13F6
_chemical_formula_sum   'Co16 B288 P48 Pt24 C648 S8 N48 O52 F24'
_cell_volume   37688.01421641
_cell_formula_units_Z   4
loop_
 _symmetry_equiv_pos_site_id
 _symmetry_equiv_pos_as_xyz
  1  'x, y, z'
loop_
 _atom_site_type_symbol
 _atom_site_label
 _atom_site_symmetry_multiplicity
 _atom_site_fract_x
 _atom_site_fract_y
 _atom_site_fract_z
 _atom_site_occupancy
  Co  Co1  1  0.781840  0.253880  0.434540  1
  Co  Co2  1  0.218160  0.246120  0.934540  1
  Co  Co3  1  0.218160  0.746120  0.565460  1
  Co  Co4  1  0.781840  0.753880  0.065460  1
  Co  Co5  1  0.907870  0.023660  0.218800  1
  Co  Co6  1  0.092130  0.476340  0.718800  1
  Co  Co7  1  0.092130  0.976340  0.781200  1
  Co  Co8  1  0.907870  0.523660  0.281200  1
  Co  Co9  1  0.986610  0.945800  0.431370  1
  Co  Co10  1  0.013390  0.554200  0.931370  1
  Co  Co11  1  0.013390  0.054200  0.568630  1
  Co  Co12  1  0.986610  0.445800  0.068630  1
  Co  Co13  1  0.514970  0.035410  0.425990  1
  Co  Co14  1  0.485030  0.464590  0.925990  1
  Co  Co15  1  0.485030  0.964590  0.574010  1
  Co  Co16  1  0.514970  0.535410  0.074010  1
  B  B17  1  0.663600  0.194800  0.396600  1
  B  B18  1  0.336400  0.305200  0.896600  1
  B  B19  1  0.336400  0.805200  0.603400  1
  B  B20  1  0.663600  0.694800  0.103400  1
  B  B21  1  0.665940  0.235100  0.417900  1
  B  B22  1  0.334060  0.264900  0.917900  1
  B  B23  1  0.334060  0.764900  0.582100  1
  B  B24  1  0.665940  0.735100  0.082100  1
  B  B25  1  0.691300  0.247300  0.384200  1
  B  B26  1  0.308700  0.252700  0.884200  1
  B  B27  1  0.308700  0.752700  0.615800  1
  B  B28  1  0.691300  0.747300  0.115800  1
  B  B29  1  0.722700  0.202200  0.375490  1
  B  B30  1  0.277300  0.297800  0.875490  1
  B  B31  1  0.277300  0.797800  0.624510  1
  B  B32  1  0.722700  0.702200  0.124510  1
  B  B33  1  0.712900  0.165610  0.408600  1
  B  B34  1  0.287100  0.334390  0.908600  1
  B  B35  1  0.287100  0.834390  0.591400  1
  B  B36  1  0.712900  0.665610  0.091400  1
  B  B37  1  0.672000  0.189000  0.437800  1
  B  B38  1  0.328000  0.311000  0.937800  1
  B  B39  1  0.328000  0.811000  0.562200  1
  B  B40  1  0.672000  0.689000  0.062200  1
  B  B41  1  0.738900  0.190710  0.440630  1
  B  B42  1  0.261100  0.309290  0.940630  1
  B  B43  1  0.261100  0.809290  0.559370  1
  B  B44  1  0.738900  0.690710  0.059370  1
  B  B45  1  0.767000  0.197370  0.405300  1
  B  B46  1  0.233000  0.302630  0.905300  1
  B  B47  1  0.233000  0.802630  0.594700  1
  B  B48  1  0.767000  0.697370  0.094700  1
  B  B49  1  0.758200  0.252500  0.388950  1
  B  B50  1  0.241800  0.247500  0.888950  1
  B  B51  1  0.241800  0.747500  0.611050  1
  B  B52  1  0.758200  0.752500  0.111050  1
  B  B53  1  0.902300  0.313500  0.474000  1
  B  B54  1  0.097700  0.186500  0.974000  1
  B  B55  1  0.097700  0.686500  0.526000  1
  B  B56  1  0.902300  0.813500  0.026000  1
  B  B57  1  0.873100  0.263700  0.488600  1
  B  B58  1  0.126900  0.236300  0.988600  1
  B  B59  1  0.126900  0.736300  0.511400  1
  B  B60  1  0.873100  0.763700  0.011400  1
  B  B61  1  0.846900  0.307700  0.493470  1
  B  B62  1  0.153100  0.192300  0.993470  1
  B  B63  1  0.153100  0.692300  0.506530  1
  B  B64  1  0.846900  0.807700  0.006530  1
  B  B65  1  0.847600  0.344240  0.461600  1
  B  B66  1  0.152400  0.155760  0.961600  1
  B  B67  1  0.152400  0.655760  0.538400  1
  B  B68  1  0.847600  0.844240  0.038400  1
  B  B69  1  0.887100  0.318000  0.435300  1
  B  B70  1  0.112900  0.182000  0.935300  1
  B  B71  1  0.112900  0.682000  0.564700  1
  B  B72  1  0.887100  0.818000  0.064700  1
  B  B73  1  0.903050  0.269800  0.450200  1
  B  B74  1  0.096950  0.230200  0.950200  1
  B  B75  1  0.096950  0.730200  0.549800  1
  B  B76  1  0.903050  0.769800  0.049800  1
  B  B77  1  0.842700  0.232300  0.452300  1
  B  B78  1  0.157300  0.267700  0.952300  1
  B  B79  1  0.157300  0.767700  0.547700  1
  B  B80  1  0.842700  0.732300  0.047700  1
  B  B81  1  0.808100  0.257400  0.479920  1
  B  B82  1  0.191900  0.242600  0.979920  1
  B  B83  1  0.191900  0.742600  0.520080  1
  B  B84  1  0.808100  0.757400  0.020080  1
  B  B85  1  0.798100  0.306700  0.462880  1
  B  B86  1  0.201900  0.193300  0.962880  1
  B  B87  1  0.201900  0.693300  0.537120  1
  B  B88  1  0.798100  0.806700  0.037120  1
  B  B89  1  0.794200  0.960700  0.262500  1
  B  B90  1  0.205800  0.539300  0.762500  1
  B  B91  1  0.205800  0.039300  0.737500  1
  B  B92  1  0.794200  0.460700  0.237500  1
  B  B93  1  0.807500  0.025500  0.263900  1
  B  B94  1  0.192500  0.474500  0.763900  1
  B  B95  1  0.192500  0.974500  0.736100  1
  B  B96  1  0.807500  0.525500  0.236100  1
  B  B97  1  0.842500  0.984500  0.280600  1
  B  B98  1  0.157500  0.515500  0.780600  1
  B  B99  1  0.157500  0.015500  0.719400  1
  B  B100  1  0.842500  0.484500  0.219400  1
  B  B101  1  0.845600  0.940000  0.259600  1
  B  B102  1  0.154400  0.560000  0.759600  1
  B  B103  1  0.154400  0.060000  0.740400  1
  B  B104  1  0.845600  0.440000  0.240400  1
  B  B105  1  0.813100  0.941800  0.235300  1
  B  B106  1  0.186900  0.558200  0.735300  1
  B  B107  1  0.186900  0.058200  0.764700  1
  B  B108  1  0.813100  0.441800  0.264700  1
  B  B109  1  0.790000  0.990200  0.235000  1
  B  B110  1  0.210000  0.509800  0.735000  1
  B  B111  1  0.210000  0.009800  0.765000  1
  B  B112  1  0.790000  0.490200  0.265000  1
  B  B113  1  0.897400  0.984000  0.257300  1
  B  B114  1  0.102600  0.516000  0.757300  1
  B  B115  1  0.102600  0.016000  0.742700  1
  B  B116  1  0.897400  0.484000  0.242700  1
  B  B117  1  0.873600  0.961330  0.227700  1
  B  B118  1  0.126400  0.538670  0.727700  1
  B  B119  1  0.126400  0.038670  0.772300  1
  B  B120  1  0.873600  0.461330  0.272300  1
  B  B121  1  0.842300  0.986700  0.212800  1
  B  B122  1  0.157700  0.513300  0.712800  1
  B  B123  1  0.157700  0.013300  0.787200  1
  B  B124  1  0.842300  0.486700  0.287200  1
  B  B125  1  0.016800  0.076600  0.172900  1
  B  B126  1  0.983200  0.423400  0.672900  1
  B  B127  1  0.983200  0.923400  0.827100  1
  B  B128  1  0.016800  0.576600  0.327100  1
  B  B129  1  0.960700  0.057800  0.152500  1
  B  B130  1  0.039300  0.442200  0.652500  1
  B  B131  1  0.039300  0.942200  0.847500  1
  B  B132  1  0.960700  0.557800  0.347500  1
  B  B133  1  0.966700  0.101800  0.175300  1
  B  B134  1  0.033300  0.398200  0.675300  1
  B  B135  1  0.033300  0.898200  0.824700  1
  B  B136  1  0.966700  0.601800  0.324700  1
  B  B137  1  0.001900  0.107000  0.207100  1
  B  B138  1  0.998100  0.393000  0.707100  1
  B  B139  1  0.998100  0.893000  0.792900  1
  B  B140  1  0.001900  0.607000  0.292900  1
  B  B141  1  0.023100  0.051700  0.201700  1
  B  B142  1  0.976900  0.448300  0.701700  1
  B  B143  1  0.976900  0.948300  0.798300  1
  B  B144  1  0.023100  0.551700  0.298300  1
  B  B145  1  0.994800  0.022800  0.171600  1
  B  B146  1  0.005200  0.477200  0.671600  1
  B  B147  1  0.005200  0.977200  0.828400  1
  B  B148  1  0.994800  0.522800  0.328400  1
  B  B149  1  0.939900  0.090270  0.211700  1
  B  B150  1  0.060100  0.409730  0.711700  1
  B  B151  1  0.060100  0.909730  0.788300  1
  B  B152  1  0.939900  0.590270  0.288300  1
  B  B153  1  0.914800  0.059300  0.179600  1
  B  B154  1  0.085200  0.440700  0.679600  1
  B  B155  1  0.085200  0.940700  0.820400  1
  B  B156  1  0.914800  0.559300  0.320400  1
  B  B157  1  0.937600  0.012600  0.179600  1
  B  B158  1  0.062400  0.487400  0.679600  1
  B  B159  1  0.062400  0.987400  0.820400  1
  B  B160  1  0.937600  0.512600  0.320400  1
  B  B161  1  0.051300  0.858900  0.470100  1
  B  B162  1  0.948700  0.641100  0.970100  1
  B  B163  1  0.948700  0.141100  0.529900  1
  B  B164  1  0.051300  0.358900  0.029900  1
  B  B165  1  0.051500  0.861200  0.431200  1
  B  B166  1  0.948500  0.638800  0.931200  1
  B  B167  1  0.948500  0.138800  0.568800  1
  B  B168  1  0.051500  0.361200  0.068800  1
  B  B169  1  0.084200  0.908800  0.459000  1
  B  B170  1  0.915800  0.591200  0.959000  1
  B  B171  1  0.915800  0.091200  0.541000  1
  B  B172  1  0.084200  0.408800  0.041000  1
  B  B173  1  0.051500  0.905500  0.486400  1
  B  B174  1  0.948500  0.594500  0.986400  1
  B  B175  1  0.948500  0.094500  0.513600  1
  B  B176  1  0.051500  0.405500  0.013600  1
  B  B177  1  0.002500  0.878400  0.487300  1
  B  B178  1  0.997500  0.621600  0.987300  1
  B  B179  1  0.997500  0.121600  0.512700  1
  B  B180  1  0.002500  0.378400  0.012700  1
  B  B181  1  0.000300  0.840430  0.448500  1
  B  B182  1  0.999700  0.659570  0.948500  1
  B  B183  1  0.999700  0.159570  0.551500  1
  B  B184  1  0.000300  0.340430  0.051500  1
  B  B185  1  0.992700  0.883600  0.414500  1
  B  B186  1  0.007300  0.616400  0.914500  1
  B  B187  1  0.007300  0.116400  0.585500  1
  B  B188  1  0.992700  0.383600  0.085500  1
  B  B189  1  0.053600  0.927900  0.424800  1
  B  B190  1  0.946400  0.572100  0.924800  1
  B  B191  1  0.946400  0.072100  0.575200  1
  B  B192  1  0.053600  0.427900  0.075200  1
  B  B193  1  0.053500  0.949400  0.461100  1
  B  B194  1  0.946500  0.550600  0.961100  1
  B  B195  1  0.946500  0.050600  0.538900  1
  B  B196  1  0.053500  0.449400  0.038900  1
  B  B197  1  0.929600  0.034600  0.396100  1
  B  B198  1  0.070400  0.465400  0.896100  1
  B  B199  1  0.070400  0.965400  0.603900  1
  B  B200  1  0.929600  0.534600  0.103900  1
  B  B201  1  0.978800  0.049370  0.416400  1
  B  B202  1  0.021200  0.450630  0.916400  1
  B  B203  1  0.021200  0.950630  0.583600  1
  B  B204  1  0.978800  0.549370  0.083600  1
  B  B205  1  0.925500  0.028700  0.435600  1
  B  B206  1  0.074500  0.471300  0.935600  1
  B  B207  1  0.074500  0.971300  0.564400  1
  B  B208  1  0.925500  0.528700  0.064400  1
  B  B209  1  0.895800  0.991800  0.411700  1
  B  B210  1  0.104200  0.508200  0.911700  1
  B  B211  1  0.104200  0.008200  0.588300  1
  B  B212  1  0.895800  0.491800  0.088300  1
  B  B213  1  0.925500  0.988700  0.380100  1
  B  B214  1  0.074500  0.511300  0.880100  1
  B  B215  1  0.074500  0.011300  0.619900  1
  B  B216  1  0.925500  0.488700  0.119900  1
  B  B217  1  0.989000  0.027200  0.382600  1
  B  B218  1  0.011000  0.472800  0.882600  1
  B  B219  1  0.011000  0.972800  0.617400  1
  B  B220  1  0.989000  0.527200  0.117400  1
  B  B221  1  0.927600  0.951500  0.404700  1
  B  B222  1  0.072400  0.548500  0.904700  1
  B  B223  1  0.072400  0.048500  0.595300  1
  B  B224  1  0.927600  0.451500  0.095300  1
  B  B225  1  0.982100  0.965300  0.387500  1
  B  B226  1  0.017900  0.534700  0.887500  1
  B  B227  1  0.017900  0.034700  0.612500  1
  B  B228  1  0.982100  0.465300  0.112500  1
  B  B229  1  0.013100  0.007200  0.414500  1
  B  B230  1  0.986900  0.492800  0.914500  1
  B  B231  1  0.986900  0.992800  0.585500  1
  B  B232  1  0.013100  0.507200  0.085500  1
  B  B233  1  0.461000  0.138900  0.460500  1
  B  B234  1  0.539000  0.361100  0.960500  1
  B  B235  1  0.539000  0.861100  0.539500  1
  B  B236  1  0.461000  0.638900  0.039500  1
  B  B237  1  0.462100  0.081700  0.482000  1
  B  B238  1  0.537900  0.418300  0.982000  1
  B  B239  1  0.537900  0.918300  0.518000  1
  B  B240  1  0.462100  0.581700  0.018000  1
  B  B241  1  0.512500  0.118700  0.479100  1
  B  B242  1  0.487500  0.381300  0.979100  1
  B  B243  1  0.487500  0.881300  0.520900  1
  B  B244  1  0.512500  0.618700  0.020900  1
  B  B245  1  0.505800  0.141880  0.442300  1
  B  B246  1  0.494200  0.358120  0.942300  1
  B  B247  1  0.494200  0.858120  0.557700  1
  B  B248  1  0.505800  0.641880  0.057700  1
  B  B249  1  0.449300  0.112900  0.423300  1
  B  B250  1  0.550700  0.387100  0.923300  1
  B  B251  1  0.550700  0.887100  0.576700  1
  B  B252  1  0.449300  0.612900  0.076700  1
  B  B253  1  0.424600  0.087200  0.452300  1
  B  B254  1  0.575400  0.412800  0.952300  1
  B  B255  1  0.575400  0.912800  0.547700  1
  B  B256  1  0.424600  0.587200  0.047700  1
  B  B257  1  0.449000  0.060100  0.416400  1
  B  B258  1  0.551000  0.439900  0.916400  1
  B  B259  1  0.551000  0.939900  0.583600  1
  B  B260  1  0.449000  0.560100  0.083600  1
  B  B261  1  0.453800  0.033700  0.452900  1
  B  B262  1  0.546200  0.466300  0.952900  1
  B  B263  1  0.546200  0.966300  0.547100  1
  B  B264  1  0.453800  0.533700  0.047100  1
  B  B265  1  0.501600  0.056500  0.471180  1
  B  B266  1  0.498400  0.443500  0.971180  1
  B  B267  1  0.498400  0.943500  0.528820  1
  B  B268  1  0.501600  0.556500  0.028820  1
  B  B269  1  0.573100  0.946300  0.384400  1
  B  B270  1  0.426900  0.553700  0.884400  1
  B  B271  1  0.426900  0.053700  0.615600  1
  B  B272  1  0.573100  0.446300  0.115600  1
  B  B273  1  0.564800  0.948800  0.423900  1
  B  B274  1  0.435200  0.551200  0.923900  1
  B  B275  1  0.435200  0.051200  0.576100  1
  B  B276  1  0.564800  0.448800  0.076100  1
  B  B277  1  0.611400  0.994300  0.405300  1
  B  B278  1  0.388600  0.505700  0.905300  1
  B  B279  1  0.388600  0.005700  0.594700  1
  B  B280  1  0.611400  0.494300  0.094700  1
  B  B281  1  0.579800  0.000700  0.372000  1
  B  B282  1  0.420200  0.499300  0.872000  1
  B  B283  1  0.420200  0.999300  0.628000  1
  B  B284  1  0.579800  0.500700  0.128000  1
  B  B285  1  0.528200  0.963900  0.371400  1
  B  B286  1  0.471800  0.536100  0.871400  1
  B  B287  1  0.471800  0.036100  0.628600  1
  B  B288  1  0.528200  0.463900  0.128600  1
  B  B289  1  0.520100  0.937910  0.405000  1
  B  B290  1  0.479900  0.562090  0.905000  1
  B  B291  1  0.479900  0.062090  0.595000  1
  B  B292  1  0.520100  0.437910  0.095000  1
  B  B293  1  0.580300  0.037000  0.403900  1
  B  B294  1  0.419700  0.463000  0.903900  1
  B  B295  1  0.419700  0.963000  0.596100  1
  B  B296  1  0.580300  0.537000  0.096100  1
  B  B297  1  0.576300  0.006500  0.437900  1
  B  B298  1  0.423700  0.493500  0.937900  1
  B  B299  1  0.423700  0.993500  0.562100  1
  B  B300  1  0.576300  0.506500  0.062100  1
  B  B301  1  0.518800  0.968810  0.432600  1
  B  B302  1  0.481200  0.531190  0.932600  1
  B  B303  1  0.481200  0.031190  0.567400  1
  B  B304  1  0.518800  0.468810  0.067400  1
  P  P305  1  0.730500  0.434000  0.053520  1
  P  P306  1  0.269500  0.066000  0.553520  1
  P  P307  1  0.269500  0.566000  0.946480  1
  P  P308  1  0.730500  0.934000  0.446480  1
  P  P309  1  0.767300  0.542500  0.049810  1
  P  P310  1  0.232700  0.957500  0.549810  1
  P  P311  1  0.232700  0.457500  0.950190  1
  P  P312  1  0.767300  0.042500  0.450190  1
  P  P313  1  0.502200  0.811200  0.324400  1
  P  P314  1  0.497800  0.688800  0.824400  1
  P  P315  1  0.497800  0.188800  0.675600  1
  P  P316  1  0.502200  0.311200  0.175600  1
  P  P317  1  0.416300  0.744300  0.363200  1
  P  P318  1  0.583700  0.755700  0.863200  1
  P  P319  1  0.583700  0.255700  0.636800  1
  P  P320  1  0.416300  0.244300  0.136800  1
  P  P321  1  0.825200  0.464900  0.667500  1
  P  P322  1  0.174800  0.035100  0.167500  1
  P  P323  1  0.174800  0.535100  0.332500  1
  P  P324  1  0.825200  0.964900  0.832500  1
  P  P325  1  0.702100  0.447300  0.677250  1
  P  P326  1  0.297900  0.052700  0.177250  1
  P  P327  1  0.297900  0.552700  0.322750  1
  P  P328  1  0.702100  0.947300  0.822750  1
  P  P329  1  0.094800  0.212000  0.364200  1
  P  P330  1  0.905200  0.288000  0.864200  1
  P  P331  1  0.905200  0.788000  0.635800  1
  P  P332  1  0.094800  0.712000  0.135800  1
  P  P333  1  0.010800  0.165900  0.314300  1
  P  P334  1  0.989200  0.334100  0.814300  1
  P  P335  1  0.989200  0.834100  0.685700  1
  P  P336  1  0.010800  0.665900  0.185700  1
  P  P337  1  0.146000  0.857950  0.356670  1
  P  P338  1  0.854000  0.642050  0.856670  1
  P  P339  1  0.854000  0.142050  0.643330  1
  P  P340  1  0.146000  0.357950  0.143330  1
  P  P341  1  0.186800  0.805600  0.414600  1
  P  P342  1  0.813200  0.694400  0.914600  1
  P  P343  1  0.813200  0.194400  0.585400  1
  P  P344  1  0.186800  0.305600  0.085400  1
  P  P345  1  0.314800  0.178800  0.399800  1
  P  P346  1  0.685200  0.321200  0.899800  1
  P  P347  1  0.685200  0.821200  0.600200  1
  P  P348  1  0.314800  0.678800  0.100200  1
  P  P349  1  0.367600  0.124000  0.347420  1
  P  P350  1  0.632400  0.376000  0.847420  1
  P  P351  1  0.632400  0.876000  0.652580  1
  P  P352  1  0.367600  0.624000  0.152580  1
  Pt  Pt353  1  0.751880  0.490300  0.086180  1
  Pt  Pt354  1  0.248120  0.009700  0.586180  1
  Pt  Pt355  1  0.248120  0.509700  0.913820  1
  Pt  Pt356  1  0.751880  0.990300  0.413820  1
  Pt  Pt357  1  0.494490  0.747480  0.349940  1
  Pt  Pt358  1  0.505510  0.752520  0.849940  1
  Pt  Pt359  1  0.505510  0.252520  0.650060  1
  Pt  Pt360  1  0.494490  0.247480  0.150060  1
  Pt  Pt361  1  0.758220  0.456930  0.638060  1
  Pt  Pt362  1  0.241780  0.043070  0.138060  1
  Pt  Pt363  1  0.241780  0.543070  0.361940  1
  Pt  Pt364  1  0.758220  0.956930  0.861940  1
  Pt  Pt365  1  0.028420  0.228060  0.341700  1
  Pt  Pt366  1  0.971580  0.271940  0.841700  1
  Pt  Pt367  1  0.971580  0.771940  0.658300  1
  Pt  Pt368  1  0.028420  0.728060  0.158300  1
  Pt  Pt369  1  0.121300  0.795370  0.383050  1
  Pt  Pt370  1  0.878700  0.704630  0.883050  1
  Pt  Pt371  1  0.878700  0.204630  0.616950  1
  Pt  Pt372  1  0.121300  0.295370  0.116950  1
  Pt  Pt373  1  0.387270  0.187300  0.374280  1
  Pt  Pt374  1  0.612730  0.312700  0.874280  1
  Pt  Pt375  1  0.612730  0.812700  0.625720  1
  Pt  Pt376  1  0.387270  0.687300  0.125720  1
  C  C377  1  0.695400  0.443000  0.021200  1
  C  C378  1  0.304600  0.057000  0.521200  1
  C  C379  1  0.304600  0.557000  0.978800  1
  C  C380  1  0.695400  0.943000  0.478800  1
  C  C381  1  0.773500  0.415500  0.037900  1
  C  C382  1  0.226500  0.084500  0.537900  1
  C  C383  1  0.226500  0.584500  0.962100  1
  C  C384  1  0.773500  0.915500  0.462100  1
  C  C385  1  0.693700  0.390000  0.070900  1
  C  C386  1  0.306300  0.110000  0.570900  1
  C  C387  1  0.306300  0.610000  0.929100  1
  C  C388  1  0.693700  0.890000  0.429100  1
  C  C389  1  0.802400  0.526700  0.016400  1
  C  C390  1  0.197600  0.973300  0.516400  1
  C  C391  1  0.197600  0.473300  0.983600  1
  C  C392  1  0.802400  0.026700  0.483600  1
  C  C393  1  0.808300  0.589400  0.064100  1
  C  C394  1  0.191700  0.910600  0.564100  1
  C  C395  1  0.191700  0.410600  0.935900  1
  C  C396  1  0.808300  0.089400  0.435900  1
  C  C397  1  0.714100  0.555700  0.035400  1
  C  C398  1  0.285900  0.944300  0.535400  1
  C  C399  1  0.285900  0.444300  0.964600  1
  C  C400  1  0.714100  0.055700  0.464600  1
  C  C401  1  0.569000  0.843700  0.333333  1
  C  C402  1  0.431000  0.656300  0.833333  1
  C  C403  1  0.431000  0.156300  0.666667  1
  C  C404  1  0.569000  0.343700  0.166667  1
  C  C405  1  0.468300  0.847500  0.337900  1
  C  C406  1  0.531700  0.652500  0.837900  1
  C  C407  1  0.531700  0.152500  0.662100  1
  C  C408  1  0.468300  0.347500  0.162100  1
  C  C409  1  0.486700  0.806900  0.286500  1
  C  C410  1  0.513300  0.693100  0.786500  1
  C  C411  1  0.513300  0.193100  0.713500  1
  C  C412  1  0.486700  0.306900  0.213500  1
  C  C413  1  0.371500  0.747000  0.332700  1
  C  C414  1  0.628500  0.753000  0.832700  1
  C  C415  1  0.628500  0.253000  0.667300  1
  C  C416  1  0.371500  0.247000  0.167300  1
  C  C417  1  0.387000  0.692200  0.380500  1
  C  C418  1  0.613000  0.807800  0.880500  1
  C  C419  1  0.613000  0.307800  0.619500  1
  C  C420  1  0.387000  0.192200  0.119500  1
  C  C421  1  0.403300  0.780300  0.391100  1
  C  C422  1  0.596700  0.719700  0.891100  1
  C  C423  1  0.596700  0.219700  0.608900  1
  C  C424  1  0.403300  0.280300  0.108900  1
  C  C425  1  0.842600  0.420400  0.682100  1
  C  C426  1  0.157400  0.079600  0.182100  1
  C  C427  1  0.157400  0.579600  0.317900  1
  C  C428  1  0.842600  0.920400  0.817900  1
  C  C429  1  0.872800  0.498400  0.648800  1
  C  C430  1  0.127200  0.001600  0.148800  1
  C  C431  1  0.127200  0.501600  0.351200  1
  C  C432  1  0.872800  0.998400  0.851200  1
  C  C433  1  0.828200  0.497700  0.702200  1
  C  C434  1  0.171800  0.002300  0.202200  1
  C  C435  1  0.171800  0.502300  0.297800  1
  C  C436  1  0.828200  0.997700  0.797800  1
  C  C437  1  0.638800  0.422400  0.667100  1
  C  C438  1  0.361200  0.077600  0.167100  1
  C  C439  1  0.361200  0.577600  0.332900  1
  C  C440  1  0.638800  0.922400  0.832900  1
  C  C441  1  0.692600  0.493500  0.697900  1
  C  C442  1  0.307400  0.006500  0.197900  1
  C  C443  1  0.307400  0.506500  0.302100  1
  C  C444  1  0.692600  0.993500  0.802100  1
  C  C445  1  0.710300  0.403500  0.706000  1
  C  C446  1  0.289700  0.096500  0.206000  1
  C  C447  1  0.289700  0.596500  0.294000  1
  C  C448  1  0.710300  0.903500  0.794000  1
  C  C449  1  0.105700  0.244600  0.399100  1
  C  C450  1  0.894300  0.255400  0.899100  1
  C  C451  1  0.894300  0.755400  0.600900  1
  C  C452  1  0.105700  0.744600  0.100900  1
  C  C453  1  0.079600  0.152000  0.383200  1
  C  C454  1  0.920400  0.348000  0.883200  1
  C  C455  1  0.920400  0.848000  0.616800  1
  C  C456  1  0.079600  0.652000  0.116800  1
  C  C457  1  0.144700  0.200500  0.340800  1
  C  C458  1  0.855300  0.299500  0.840800  1
  C  C459  1  0.855300  0.799500  0.659200  1
  C  C460  1  0.144700  0.700500  0.159200  1
  C  C461  1  0.979200  0.175400  0.276000  1
  C  C462  1  0.020800  0.324600  0.776000  1
  C  C463  1  0.020800  0.824600  0.724000  1
  C  C464  1  0.979200  0.675400  0.224000  1
  C  C465  1  0.962400  0.126100  0.332000  1
  C  C466  1  0.037600  0.373900  0.832000  1
  C  C467  1  0.037600  0.873900  0.668000  1
  C  C468  1  0.962400  0.626100  0.168000  1
  C  C469  1  0.066200  0.144700  0.300200  1
  C  C470  1  0.933800  0.355300  0.800200  1
  C  C471  1  0.933800  0.855300  0.699800  1
  C  C472  1  0.066200  0.644700  0.199800  1
  C  C473  1  0.190300  0.852800  0.328300  1
  C  C474  1  0.809700  0.647200  0.828300  1
  C  C475  1  0.809700  0.147200  0.671700  1
  C  C476  1  0.190300  0.352800  0.171700  1
  C  C477  1  0.171800  0.906700  0.381100  1
  C  C478  1  0.828200  0.593300  0.881100  1
  C  C479  1  0.828200  0.093300  0.618900  1
  C  C480  1  0.171800  0.406700  0.118900  1
  C  C481  1  0.095200  0.877100  0.336300  1
  C  C482  1  0.904800  0.622900  0.836300  1
  C  C483  1  0.904800  0.122900  0.663700  1
  C  C484  1  0.095200  0.377100  0.163700  1
  C  C485  1  0.246800  0.823500  0.396600  1
  C  C486  1  0.753200  0.676500  0.896600  1
  C  C487  1  0.753200  0.176500  0.603400  1
  C  C488  1  0.246800  0.323500  0.103400  1
  C  C489  1  0.193600  0.754200  0.433400  1
  C  C490  1  0.806400  0.745800  0.933400  1
  C  C491  1  0.806400  0.245800  0.566600  1
  C  C492  1  0.193600  0.254200  0.066600  1
  C  C493  1  0.183000  0.840600  0.445800  1
  C  C494  1  0.817000  0.659400  0.945800  1
  C  C495  1  0.817000  0.159400  0.554200  1
  C  C496  1  0.183000  0.340600  0.054200  1
  C  C497  1  0.311500  0.144700  0.432600  1
  C  C498  1  0.688500  0.355300  0.932600  1
  C  C499  1  0.688500  0.855300  0.567400  1
  C  C500  1  0.311500  0.644700  0.067400  1
  C  C501  1  0.259400  0.162300  0.377400  1
  C  C502  1  0.740600  0.337700  0.877400  1
  C  C503  1  0.740600  0.837700  0.622600  1
  C  C504  1  0.259400  0.662300  0.122600  1
  C  C505  1  0.299700  0.222700  0.414600  1
  C  C506  1  0.700300  0.277300  0.914600  1
  C  C507  1  0.700300  0.777300  0.585400  1
  C  C508  1  0.299700  0.722700  0.085400  1
  C  C509  1  0.421600  0.102700  0.336500  1
  C  C510  1  0.578400  0.397300  0.836500  1
  C  C511  1  0.578400  0.897300  0.663500  1
  C  C512  1  0.421600  0.602700  0.163500  1
  C  C513  1  0.329900  0.127500  0.315800  1
  C  C514  1  0.670100  0.372500  0.815800  1
  C  C515  1  0.670100  0.872500  0.684200  1
  C  C516  1  0.329900  0.627500  0.184200  1
  C  C517  1  0.335400  0.075200  0.367300  1
  C  C518  1  0.664600  0.424800  0.867300  1
  C  C519  1  0.664600  0.924800  0.632700  1
  C  C520  1  0.335400  0.575200  0.132700  1
  C  C521  1  0.766660  0.702390  0.275840  1
  C  C522  1  0.233340  0.797610  0.775840  1
  C  C523  1  0.233340  0.297610  0.724160  1
  C  C524  1  0.766660  0.202390  0.224160  1
  C  C525  1  0.810580  0.717900  0.292030  1
  C  C526  1  0.189420  0.782100  0.792030  1
  C  C527  1  0.189420  0.282100  0.707970  1
  C  C528  1  0.810580  0.217900  0.207970  1
  C  C529  1  0.853510  0.708270  0.282010  1
  C  C530  1  0.146490  0.791730  0.782010  1
  C  C531  1  0.146490  0.291730  0.717990  1
  C  C532  1  0.853510  0.208270  0.217990  1
  C  C533  1  0.853830  0.680570  0.258190  1
  C  C534  1  0.146170  0.819430  0.758190  1
  C  C535  1  0.146170  0.319430  0.741810  1
  C  C536  1  0.853830  0.180570  0.241810  1
  C  C537  1  0.809040  0.665240  0.241530  1
  C  C538  1  0.190960  0.834760  0.741530  1
  C  C539  1  0.190960  0.334760  0.758470  1
  C  C540  1  0.809040  0.165240  0.258470  1
  C  C541  1  0.769470  0.676040  0.250240  1
  C  C542  1  0.230530  0.823960  0.750240  1
  C  C543  1  0.230530  0.323960  0.749760  1
  C  C544  1  0.769470  0.176040  0.249760  1
  C  C545  1  0.715820  0.711110  0.284200  1
  C  C546  1  0.284180  0.788890  0.784200  1
  C  C547  1  0.284180  0.288890  0.715800  1
  C  C548  1  0.715820  0.211110  0.215800  1
  C  C549  1  0.708680  0.731230  0.310870  1
  C  C550  1  0.291320  0.768770  0.810870  1
  C  C551  1  0.291320  0.268770  0.689130  1
  C  C552  1  0.708680  0.231230  0.189130  1
  C  C553  1  0.658130  0.734330  0.318540  1
  C  C554  1  0.341870  0.765670  0.818540  1
  C  C555  1  0.341870  0.265670  0.681460  1
  C  C556  1  0.658130  0.234330  0.181460  1
  C  C557  1  0.618170  0.720090  0.299820  1
  C  C558  1  0.381830  0.779910  0.799820  1
  C  C559  1  0.381830  0.279910  0.700180  1
  C  C560  1  0.618170  0.220090  0.200180  1
  C  C561  1  0.567820  0.721880  0.309190  1
  C  C562  1  0.432180  0.778120  0.809190  1
  C  C563  1  0.432180  0.278120  0.690810  1
  C  C564  1  0.567820  0.221880  0.190810  1
  C  C565  1  0.606280  0.760140  0.355110  1
  C  C566  1  0.393720  0.739860  0.855110  1
  C  C567  1  0.393720  0.239860  0.644890  1
  C  C568  1  0.606280  0.260140  0.144890  1
  C  C569  1  0.653080  0.755700  0.344230  1
  C  C570  1  0.346920  0.744300  0.844230  1
  C  C571  1  0.346920  0.244300  0.655770  1
  C  C572  1  0.653080  0.255700  0.155770  1
  C  C573  1  0.895170  0.728740  0.303080  1
  C  C574  1  0.104830  0.771260  0.803080  1
  C  C575  1  0.104830  0.271260  0.696920  1
  C  C576  1  0.895170  0.228740  0.196920  1
  C  C577  1  0.937890  0.722290  0.294740  1
  C  C578  1  0.062110  0.777710  0.794740  1
  C  C579  1  0.062110  0.277710  0.705260  1
  C  C580  1  0.937890  0.222290  0.205260  1
  C  C581  1  0.982690  0.744660  0.316860  1
  C  C582  1  0.017310  0.755340  0.816860  1
  C  C583  1  0.017310  0.255340  0.683140  1
  C  C584  1  0.982690  0.244660  0.183140  1
  C  C585  1  0.974910  0.763700  0.345480  1
  C  C586  1  0.025090  0.736300  0.845480  1
  C  C587  1  0.025090  0.236300  0.654520  1
  C  C588  1  0.974910  0.263700  0.154520  1
  C  C589  1  0.018500  0.782830  0.363790  1
  C  C590  1  0.981500  0.717170  0.863790  1
  C  C591  1  0.981500  0.217170  0.636210  1
  C  C592  1  0.018500  0.282830  0.136210  1
  C  C593  1  0.066260  0.754200  0.330380  1
  C  C594  1  0.933740  0.745800  0.830380  1
  C  C595  1  0.933740  0.245800  0.669620  1
  C  C596  1  0.066260  0.254200  0.169620  1
  C  C597  1  0.027220  0.744780  0.310450  1
  C  C598  1  0.972780  0.755220  0.810450  1
  C  C599  1  0.972780  0.255220  0.689550  1
  C  C600  1  0.027220  0.244780  0.189550  1
  C  C601  1  0.814220  0.637170  0.215740  1
  C  C602  1  0.185780  0.862830  0.715740  1
  C  C603  1  0.185780  0.362830  0.784260  1
  C  C604  1  0.814220  0.137170  0.284260  1
  C  C605  1  0.777970  0.630760  0.193460  1
  C  C606  1  0.222030  0.869240  0.693460  1
  C  C607  1  0.222030  0.369240  0.806540  1
  C  C608  1  0.777970  0.130760  0.306540  1
  C  C609  1  0.775700  0.599220  0.167260  1
  C  C610  1  0.224300  0.900780  0.667260  1
  C  C611  1  0.224300  0.400780  0.832740  1
  C  C612  1  0.775700  0.099220  0.332740  1
  C  C613  1  0.813690  0.576340  0.158860  1
  C  C614  1  0.186310  0.923660  0.658860  1
  C  C615  1  0.186310  0.423660  0.841140  1
  C  C616  1  0.813690  0.076340  0.341140  1
  C  C617  1  0.804590  0.545680  0.135140  1
  C  C618  1  0.195410  0.954320  0.635140  1
  C  C619  1  0.195410  0.454320  0.864860  1
  C  C620  1  0.804590  0.045680  0.364860  1
  C  C621  1  0.732020  0.559000  0.126650  1
  C  C622  1  0.267980  0.941000  0.626650  1
  C  C623  1  0.267980  0.441000  0.873350  1
  C  C624  1  0.732020  0.059000  0.373350  1
  C  C625  1  0.732430  0.591170  0.149850  1
  C  C626  1  0.267570  0.908830  0.649850  1
  C  C627  1  0.267570  0.408830  0.850150  1
  C  C628  1  0.732430  0.091170  0.350150  1
  C  C629  1  0.509590  0.440730  0.453040  1
  C  C630  1  0.490410  0.059270  0.953040  1
  C  C631  1  0.490410  0.559270  0.546960  1
  C  C632  1  0.509590  0.940730  0.046960  1
  C  C633  1  0.534950  0.437780  0.479180  1
  C  C634  1  0.465050  0.062220  0.979180  1
  C  C635  1  0.465050  0.562220  0.520820  1
  C  C636  1  0.534950  0.937780  0.020820  1
  C  C637  1  0.557820  0.476450  0.491790  1
  C  C638  1  0.442180  0.023550  0.991790  1
  C  C639  1  0.442180  0.523550  0.508210  1
  C  C640  1  0.557820  0.976450  0.008210  1
  C  C641  1  0.556380  0.518370  0.478550  1
  C  C642  1  0.443620  0.981630  0.978550  1
  C  C643  1  0.443620  0.481630  0.521450  1
  C  C644  1  0.556380  0.018370  0.021450  1
  C  C645  1  0.524690  0.516140  0.451240  1
  C  C646  1  0.475310  0.983860  0.951240  1
  C  C647  1  0.475310  0.483860  0.548760  1
  C  C648  1  0.524690  0.016140  0.048760  1
  C  C649  1  0.501600  0.478450  0.438850  1
  C  C650  1  0.498400  0.021550  0.938850  1
  C  C651  1  0.498400  0.521550  0.561150  1
  C  C652  1  0.501600  0.978450  0.061150  1
  C  C653  1  0.479140  0.400960  0.436980  1
  C  C654  1  0.520860  0.099040  0.936980  1
  C  C655  1  0.520860  0.599040  0.563020  1
  C  C656  1  0.479140  0.900960  0.063020  1
  C  C657  1  0.478960  0.360390  0.447130  1
  C  C658  1  0.521040  0.139610  0.947130  1
  C  C659  1  0.521040  0.639610  0.552870  1
  C  C660  1  0.478960  0.860390  0.052870  1
  C  C661  1  0.453760  0.319930  0.428330  1
  C  C662  1  0.546240  0.180070  0.928330  1
  C  C663  1  0.546240  0.680070  0.571670  1
  C  C664  1  0.453760  0.819930  0.071670  1
  C  C665  1  0.435250  0.323760  0.399960  1
  C  C666  1  0.564750  0.176240  0.899960  1
  C  C667  1  0.564750  0.676240  0.600040  1
  C  C668  1  0.435250  0.823760  0.100040  1
  C  C669  1  0.417360  0.283510  0.385520  1
  C  C670  1  0.582640  0.216490  0.885520  1
  C  C671  1  0.582640  0.716490  0.614480  1
  C  C672  1  0.417360  0.783510  0.114480  1
  C  C673  1  0.431100  0.241330  0.425600  1
  C  C674  1  0.568900  0.258670  0.925600  1
  C  C675  1  0.568900  0.758670  0.574400  1
  C  C676  1  0.431100  0.741330  0.074400  1
  C  C677  1  0.452780  0.281930  0.443580  1
  C  C678  1  0.547220  0.218070  0.943580  1
  C  C679  1  0.547220  0.718070  0.556420  1
  C  C680  1  0.452780  0.781930  0.056420  1
  C  C681  1  0.589870  0.483700  0.516990  1
  C  C682  1  0.410130  0.016300  0.016990  1
  C  C683  1  0.410130  0.516300  0.483010  1
  C  C684  1  0.589870  0.983700  0.983010  1
  C  C685  1  0.598170  0.446250  0.532290  1
  C  C686  1  0.401830  0.053750  0.032290  1
  C  C687  1  0.401830  0.553750  0.467710  1
  C  C688  1  0.598170  0.946250  0.967710  1
  C  C689  1  0.632100  0.448210  0.560960  1
  C  C690  1  0.367900  0.051790  0.060960  1
  C  C691  1  0.367900  0.551790  0.439040  1
  C  C692  1  0.632100  0.948210  0.939040  1
  C  C693  1  0.647880  0.410630  0.571160  1
  C  C694  1  0.352120  0.089370  0.071160  1
  C  C695  1  0.352120  0.589370  0.428840  1
  C  C696  1  0.647880  0.910630  0.928840  1
  C  C697  1  0.679020  0.411900  0.593360  1
  C  C698  1  0.320980  0.088100  0.093360  1
  C  C699  1  0.320980  0.588100  0.406640  1
  C  C700  1  0.679020  0.911900  0.906640  1
  C  C701  1  0.683290  0.488860  0.600050  1
  C  C702  1  0.316710  0.011140  0.100050  1
  C  C703  1  0.316710  0.511140  0.399950  1
  C  C704  1  0.683290  0.988860  0.899950  1
  C  C705  1  0.647060  0.488630  0.574990  1
  C  C706  1  0.352940  0.011370  0.074990  1
  C  C707  1  0.352940  0.511370  0.425010  1
  C  C708  1  0.647060  0.988630  0.925010  1
  C  C709  1  0.518400  0.559320  0.438950  1
  C  C710  1  0.481600  0.940680  0.938950  1
  C  C711  1  0.481600  0.440680  0.561050  1
  C  C712  1  0.518400  0.059320  0.061050  1
  C  C713  1  0.500950  0.562420  0.412210  1
  C  C714  1  0.499050  0.937580  0.912210  1
  C  C715  1  0.499050  0.437580  0.587790  1
  C  C716  1  0.500950  0.062420  0.087790  1
  C  C717  1  0.501670  0.609620  0.400460  1
  C  C718  1  0.498330  0.890380  0.900460  1
  C  C719  1  0.498330  0.390380  0.599540  1
  C  C720  1  0.501670  0.109620  0.099540  1
  C  C721  1  0.510930  0.650290  0.417400  1
  C  C722  1  0.489070  0.849710  0.917400  1
  C  C723  1  0.489070  0.349710  0.582600  1
  C  C724  1  0.510930  0.150290  0.082600  1
  C  C725  1  0.508630  0.690040  0.401040  1
  C  C726  1  0.491370  0.809960  0.901040  1
  C  C727  1  0.491370  0.309960  0.598960  1
  C  C728  1  0.508630  0.190040  0.098960  1
  C  C729  1  0.484430  0.652680  0.355460  1
  C  C730  1  0.515570  0.847320  0.855460  1
  C  C731  1  0.515570  0.347320  0.644540  1
  C  C732  1  0.484430  0.152680  0.144540  1
  C  C733  1  0.487610  0.610720  0.367330  1
  C  C734  1  0.512390  0.889280  0.867330  1
  C  C735  1  0.512390  0.389280  0.632670  1
  C  C736  1  0.487610  0.110720  0.132670  1
  C  C737  1  0.997920  0.529490  0.442140  1
  C  C738  1  0.002080  0.970510  0.942140  1
  C  C739  1  0.002080  0.470510  0.557860  1
  C  C740  1  0.997920  0.029490  0.057860  1
  C  C741  1  0.966550  0.532650  0.466630  1
  C  C742  1  0.033450  0.967350  0.966630  1
  C  C743  1  0.033450  0.467350  0.533370  1
  C  C744  1  0.966550  0.032650  0.033370  1
  C  C745  1  0.943550  0.488040  0.478980  1
  C  C746  1  0.056450  0.011960  0.978980  1
  C  C747  1  0.056450  0.511960  0.521020  1
  C  C748  1  0.943550  0.988040  0.021020  1
  C  C749  1  0.960980  0.451430  0.466030  1
  C  C750  1  0.039020  0.048570  0.966030  1
  C  C751  1  0.039020  0.548570  0.533970  1
  C  C752  1  0.960980  0.951430  0.033970  1
  C  C753  1  0.992660  0.454760  0.442410  1
  C  C754  1  0.007340  0.045240  0.942410  1
  C  C755  1  0.007340  0.545240  0.557590  1
  C  C756  1  0.992660  0.954760  0.057590  1
  C  C757  1  0.011560  0.495450  0.430950  1
  C  C758  1  0.988440  0.004550  0.930950  1
  C  C759  1  0.988440  0.504550  0.569050  1
  C  C760  1  0.011560  0.995450  0.069050  1
  C  C761  1  0.024400  0.574980  0.428000  1
  C  C762  1  0.975600  0.925020  0.928000  1
  C  C763  1  0.975600  0.425020  0.572000  1
  C  C764  1  0.024400  0.074980  0.072000  1
  C  C765  1  0.023830  0.612530  0.442840  1
  C  C766  1  0.976170  0.887470  0.942840  1
  C  C767  1  0.976170  0.387470  0.557160  1
  C  C768  1  0.023830  0.112530  0.057160  1
  C  C769  1  0.050390  0.656950  0.428200  1
  C  C770  1  0.949610  0.843050  0.928200  1
  C  C771  1  0.949610  0.343050  0.571800  1
  C  C772  1  0.050390  0.156950  0.071800  1
  C  C773  1  0.078410  0.659970  0.402450  1
  C  C774  1  0.921590  0.840030  0.902450  1
  C  C775  1  0.921590  0.340030  0.597550  1
  C  C776  1  0.078410  0.159970  0.097550  1
  C  C777  1  0.101860  0.699190  0.391940  1
  C  C778  1  0.898140  0.800810  0.891940  1
  C  C779  1  0.898140  0.300810  0.608060  1
  C  C780  1  0.101860  0.199190  0.108060  1
  C  C781  1  0.065190  0.737050  0.426220  1
  C  C782  1  0.934810  0.762950  0.926220  1
  C  C783  1  0.934810  0.262950  0.573780  1
  C  C784  1  0.065190  0.237050  0.073780  1
  C  C785  1  0.041830  0.692540  0.442130  1
  C  C786  1  0.958170  0.807460  0.942130  1
  C  C787  1  0.958170  0.307460  0.557870  1
  C  C788  1  0.041830  0.192540  0.057870  1
  C  C789  1  0.914330  0.495850  0.506230  1
  C  C790  1  0.085670  0.004150  0.006230  1
  C  C791  1  0.085670  0.504150  0.493770  1
  C  C792  1  0.914330  0.995850  0.993770  1
  C  C793  1  0.898280  0.462930  0.515210  1
  C  C794  1  0.101720  0.037070  0.015210  1
  C  C795  1  0.101720  0.537070  0.484790  1
  C  C796  1  0.898280  0.962930  0.984790  1
  C  C797  1  0.856000  0.462160  0.548630  1
  C  C798  1  0.144000  0.037840  0.048630  1
  C  C799  1  0.144000  0.537840  0.451370  1
  C  C800  1  0.856000  0.962160  0.951370  1
  C  C801  1  0.847410  0.499080  0.556020  1
  C  C802  1  0.152590  0.000920  0.056020  1
  C  C803  1  0.152590  0.500920  0.443980  1
  C  C804  1  0.847410  0.999080  0.943980  1
  C  C805  1  0.821400  0.500930  0.584090  1
  C  C806  1  0.178600  0.999070  0.084090  1
  C  C807  1  0.178600  0.499070  0.415910  1
  C  C808  1  0.821400  0.000930  0.915910  1
  C  C809  1  0.813170  0.424470  0.590050  1
  C  C810  1  0.186830  0.075530  0.090050  1
  C  C811  1  0.186830  0.575530  0.409950  1
  C  C812  1  0.813170  0.924470  0.909950  1
  C  C813  1  0.837280  0.415440  0.562910  1
  C  C814  1  0.162720  0.084560  0.062910  1
  C  C815  1  0.162720  0.584560  0.437090  1
  C  C816  1  0.837280  0.915440  0.937090  1
  C  C817  1  0.001740  0.414850  0.431490  1
  C  C818  1  0.998260  0.085150  0.931490  1
  C  C819  1  0.998260  0.585150  0.568510  1
  C  C820  1  0.001740  0.914850  0.068510  1
  C  C821  1  0.026610  0.409570  0.404820  1
  C  C822  1  0.973390  0.090430  0.904820  1
  C  C823  1  0.973390  0.590430  0.595180  1
  C  C824  1  0.026610  0.909570  0.095180  1
  C  C825  1  0.030030  0.366470  0.391290  1
  C  C826  1  0.969970  0.133530  0.891290  1
  C  C827  1  0.969970  0.633530  0.608710  1
  C  C828  1  0.030030  0.866470  0.108710  1
  C  C829  1  0.013430  0.326560  0.407970  1
  C  C830  1  0.986570  0.173440  0.907970  1
  C  C831  1  0.986570  0.673440  0.592030  1
  C  C832  1  0.013430  0.826560  0.092030  1
  C  C833  1  0.013650  0.289800  0.393030  1
  C  C834  1  0.986350  0.210200  0.893030  1
  C  C835  1  0.986350  0.710200  0.606970  1
  C  C836  1  0.013650  0.789800  0.106970  1
  C  C837  1  0.055310  0.323650  0.347300  1
  C  C838  1  0.944690  0.176350  0.847300  1
  C  C839  1  0.944690  0.676350  0.652700  1
  C  C840  1  0.055310  0.823650  0.152700  1
  C  C841  1  0.049380  0.364830  0.363620  1
  C  C842  1  0.950620  0.135170  0.863620  1
  C  C843  1  0.950620  0.635170  0.636380  1
  C  C844  1  0.049380  0.864830  0.136380  1
  C  C845  1  0.711240  0.317450  0.244080  1
  C  C846  1  0.288760  0.182550  0.744080  1
  C  C847  1  0.288760  0.682550  0.755920  1
  C  C848  1  0.711240  0.817450  0.255920  1
  C  C849  1  0.664400  0.299530  0.256510  1
  C  C850  1  0.335600  0.200470  0.756510  1
  C  C851  1  0.335600  0.700470  0.743490  1
  C  C852  1  0.664400  0.799530  0.243490  1
  C  C853  1  0.663930  0.271750  0.280890  1
  C  C854  1  0.336070  0.228250  0.780890  1
  C  C855  1  0.336070  0.728250  0.719110  1
  C  C856  1  0.663930  0.771750  0.219110  1
  C  C857  1  0.705630  0.263680  0.294630  1
  C  C858  1  0.294370  0.236320  0.794630  1
  C  C859  1  0.294370  0.736320  0.705370  1
  C  C860  1  0.705630  0.763680  0.205370  1
  C  C861  1  0.750840  0.281830  0.281370  1
  C  C862  1  0.249160  0.218170  0.781370  1
  C  C863  1  0.249160  0.718170  0.718630  1
  C  C864  1  0.750840  0.781830  0.218630  1
  C  C865  1  0.756350  0.308790  0.254960  1
  C  C866  1  0.243650  0.191210  0.754960  1
  C  C867  1  0.243650  0.691210  0.745040  1
  C  C868  1  0.756350  0.808790  0.245040  1
  C  C869  1  0.713060  0.346910  0.215400  1
  C  C870  1  0.286940  0.153090  0.715400  1
  C  C871  1  0.286940  0.653090  0.784600  1
  C  C872  1  0.713060  0.846910  0.284600  1
  C  C873  1  0.753430  0.351790  0.199380  1
  C  C874  1  0.246570  0.148210  0.699380  1
  C  C875  1  0.246570  0.648210  0.800620  1
  C  C876  1  0.753430  0.851790  0.300620  1
  C  C877  1  0.742220  0.390630  0.167910  1
  C  C878  1  0.257780  0.109370  0.667910  1
  C  C879  1  0.257780  0.609370  0.832090  1
  C  C880  1  0.742220  0.890630  0.332090  1
  C  C881  1  0.784340  0.394980  0.151590  1
  C  C882  1  0.215660  0.105020  0.651590  1
  C  C883  1  0.215660  0.605020  0.848410  1
  C  C884  1  0.784340  0.894980  0.348410  1
  C  C885  1  0.782580  0.429040  0.125300  1
  C  C886  1  0.217420  0.070960  0.625300  1
  C  C887  1  0.217420  0.570960  0.874700  1
  C  C888  1  0.782580  0.929040  0.374700  1
  C  C889  1  0.701500  0.447050  0.141210  1
  C  C890  1  0.298500  0.052950  0.641210  1
  C  C891  1  0.298500  0.552950  0.858790  1
  C  C892  1  0.701500  0.947050  0.358790  1
  C  C893  1  0.698870  0.409560  0.168040  1
  C  C894  1  0.301130  0.090440  0.668040  1
  C  C895  1  0.301130  0.590440  0.831960  1
  C  C896  1  0.698870  0.909560  0.331960  1
  C  C897  1  0.610030  0.259670  0.288710  1
  C  C898  1  0.389970  0.240330  0.788710  1
  C  C899  1  0.389970  0.740330  0.711290  1
  C  C900  1  0.610030  0.759670  0.211290  1
  C  C901  1  0.609370  0.248480  0.311260  1
  C  C902  1  0.390630  0.251520  0.811260  1
  C  C903  1  0.390630  0.751520  0.688740  1
  C  C904  1  0.609370  0.748480  0.188740  1
  C  C905  1  0.543230  0.227690  0.327840  1
  C  C906  1  0.456770  0.272310  0.827840  1
  C  C907  1  0.456770  0.772310  0.672160  1
  C  C908  1  0.543230  0.727690  0.172160  1
  C  C909  1  0.507670  0.230790  0.308620  1
  C  C910  1  0.492330  0.269210  0.808620  1
  C  C911  1  0.492330  0.769210  0.691380  1
  C  C912  1  0.507670  0.730790  0.191380  1
  C  C913  1  0.457260  0.218010  0.323370  1
  C  C914  1  0.542740  0.281990  0.823370  1
  C  C915  1  0.542740  0.781990  0.676630  1
  C  C916  1  0.457260  0.718010  0.176630  1
  C  C917  1  0.496490  0.199170  0.368600  1
  C  C918  1  0.503510  0.300830  0.868600  1
  C  C919  1  0.503510  0.800830  0.631400  1
  C  C920  1  0.496490  0.699170  0.131400  1
  C  C921  1  0.541990  0.216690  0.353220  1
  C  C922  1  0.458010  0.283310  0.853220  1
  C  C923  1  0.458010  0.783310  0.646780  1
  C  C924  1  0.541990  0.716690  0.146780  1
  C  C925  1  0.793400  0.268070  0.295820  1
  C  C926  1  0.206600  0.231930  0.795820  1
  C  C927  1  0.206600  0.731930  0.704180  1
  C  C928  1  0.793400  0.768070  0.204180  1
  C  C929  1  0.836560  0.278940  0.284390  1
  C  C930  1  0.163440  0.221060  0.784390  1
  C  C931  1  0.163440  0.721060  0.715610  1
  C  C932  1  0.836560  0.778940  0.215610  1
  C  C933  1  0.882220  0.266570  0.299020  1
  C  C934  1  0.117780  0.233430  0.799020  1
  C  C935  1  0.117780  0.733430  0.700980  1
  C  C936  1  0.882220  0.766570  0.200980  1
  C  C937  1  0.878930  0.242730  0.325360  1
  C  C938  1  0.121070  0.257270  0.825360  1
  C  C939  1  0.121070  0.757270  0.674640  1
  C  C940  1  0.878930  0.742730  0.174640  1
  C  C941  1  0.924120  0.232720  0.339240  1
  C  C942  1  0.075880  0.267280  0.839240  1
  C  C943  1  0.075880  0.767280  0.660760  1
  C  C944  1  0.924120  0.732720  0.160760  1
  C  C945  1  0.971050  0.266860  0.295990  1
  C  C946  1  0.028950  0.233140  0.795990  1
  C  C947  1  0.028950  0.733140  0.704010  1
  C  C948  1  0.971050  0.766860  0.204010  1
  C  C949  1  0.925880  0.278620  0.283590  1
  C  C950  1  0.074120  0.221380  0.783590  1
  C  C951  1  0.074120  0.721380  0.716410  1
  C  C952  1  0.925880  0.778620  0.216410  1
  C  C953  1  0.722000  0.271270  0.417120  1
  C  C954  1  0.278000  0.228730  0.917120  1
  C  C955  1  0.278000  0.728730  0.582880  1
  C  C956  1  0.722000  0.771270  0.082880  1
  C  C957  1  0.709320  0.237200  0.444460  1
  C  C958  1  0.290680  0.262800  0.944460  1
  C  C959  1  0.290680  0.762800  0.555540  1
  C  C960  1  0.709320  0.737200  0.055540  1
  C  C961  1  0.823200  0.315140  0.429630  1
  C  C962  1  0.176800  0.184860  0.929630  1
  C  C963  1  0.176800  0.684860  0.570370  1
  C  C964  1  0.823200  0.815140  0.070370  1
  C  C965  1  0.858550  0.268600  0.418220  1
  C  C966  1  0.141450  0.231400  0.918220  1
  C  C967  1  0.141450  0.731400  0.581780  1
  C  C968  1  0.858550  0.768600  0.081780  1
  C  C969  1  0.976400  0.059700  0.232300  1
  C  C970  1  0.023600  0.440300  0.732300  1
  C  C971  1  0.023600  0.940300  0.767700  1
  C  C972  1  0.976400  0.559700  0.267700  1
  C  C973  1  0.971700  0.010500  0.207200  1
  C  C974  1  0.028300  0.489500  0.707200  1
  C  C975  1  0.028300  0.989500  0.792800  1
  C  C976  1  0.971700  0.510500  0.292800  1
  C  C977  1  0.838400  0.037400  0.231000  1
  C  C978  1  0.161600  0.462600  0.731000  1
  C  C979  1  0.161600  0.962600  0.769000  1
  C  C980  1  0.838400  0.537400  0.269000  1
  C  C981  1  0.878400  0.035900  0.260900  1
  C  C982  1  0.121600  0.464100  0.760900  1
  C  C983  1  0.121600  0.964100  0.739100  1
  C  C984  1  0.878400  0.535900  0.239100  1
  C  C985  1  0.780100  0.789000  0.833300  1
  C  C986  1  0.219900  0.711000  0.333300  1
  C  C987  1  0.219900  0.211000  0.166700  1
  C  C988  1  0.780100  0.289000  0.666700  1
  C  C989  1  0.438100  0.098100  0.242300  1
  C  C990  1  0.561900  0.401900  0.742300  1
  C  C991  1  0.561900  0.901900  0.757700  1
  C  C992  1  0.438100  0.598100  0.257700  1
  C  C993  1  0.999000  0.919200  0.479190  1
  C  C994  1  0.001000  0.580800  0.979190  1
  C  C995  1  0.001000  0.080800  0.520810  1
  C  C996  1  0.999000  0.419200  0.020810  1
  C  C997  1  0.952500  0.885800  0.453300  1
  C  C998  1  0.047500  0.614200  0.953300  1
  C  C999  1  0.047500  0.114200  0.546700  1
  C  C1000  1  0.952500  0.385800  0.046700  1
  C  C1001  1  0.920900  0.973100  0.441200  1
  C  C1002  1  0.079100  0.526900  0.941200  1
  C  C1003  1  0.079100  0.026900  0.558800  1
  C  C1004  1  0.920900  0.473100  0.058800  1
  C  C1005  1  0.972600  0.007900  0.446800  1
  C  C1006  1  0.027400  0.492100  0.946800  1
  C  C1007  1  0.027400  0.992100  0.553200  1
  C  C1008  1  0.972600  0.507900  0.053200  1
  C  C1009  1  0.511500  0.102600  0.414800  1
  C  C1010  1  0.488500  0.397400  0.914800  1
  C  C1011  1  0.488500  0.897400  0.585200  1
  C  C1012  1  0.511500  0.602600  0.085200  1
  C  C1013  1  0.538200  0.095700  0.449000  1
  C  C1014  1  0.461800  0.404300  0.949000  1
  C  C1015  1  0.461800  0.904300  0.551000  1
  C  C1016  1  0.538200  0.595700  0.051000  1
  C  C1017  1  0.494300  0.979700  0.401600  1
  C  C1018  1  0.505700  0.520300  0.901600  1
  C  C1019  1  0.505700  0.020300  0.598400  1
  C  C1020  1  0.494300  0.479700  0.098400  1
  C  C1021  1  0.526100  0.021000  0.378900  1
  C  C1022  1  0.473900  0.479000  0.878900  1
  C  C1023  1  0.473900  0.979000  0.621100  1
  C  C1024  1  0.526100  0.521000  0.121100  1
  S  S1025  1  0.757500  0.810900  0.863590  1
  S  S1026  1  0.242500  0.689100  0.363590  1
  S  S1027  1  0.242500  0.189100  0.136410  1
  S  S1028  1  0.757500  0.310900  0.636410  1
  S  S1029  1  0.442100  0.169700  0.234200  1
  S  S1030  1  0.557900  0.330300  0.734200  1
  S  S1031  1  0.557900  0.830300  0.765800  1
  S  S1032  1  0.442100  0.669700  0.265800  1
  N  N1033  1  0.565680  0.743420  0.336330  1
  N  N1034  1  0.434320  0.756580  0.836330  1
  N  N1035  1  0.434320  0.256580  0.663670  1
  N  N1036  1  0.565680  0.243420  0.163670  1
  N  N1037  1  0.058310  0.777850  0.353540  1
  N  N1038  1  0.941690  0.722150  0.853540  1
  N  N1039  1  0.941690  0.222150  0.646460  1
  N  N1040  1  0.058310  0.277850  0.146460  1
  N  N1041  1  0.764040  0.538270  0.120290  1
  N  N1042  1  0.235960  0.961730  0.620290  1
  N  N1043  1  0.235960  0.461730  0.879710  1
  N  N1044  1  0.764040  0.038270  0.379710  1
  N  N1045  1  0.412580  0.244410  0.398820  1
  N  N1046  1  0.587420  0.255590  0.898820  1
  N  N1047  1  0.587420  0.755590  0.601180  1
  N  N1048  1  0.412580  0.744410  0.101180  1
  N  N1049  1  0.699320  0.451670  0.607010  1
  N  N1050  1  0.300680  0.048330  0.107010  1
  N  N1051  1  0.300680  0.548330  0.392990  1
  N  N1052  1  0.699320  0.951670  0.892990  1
  N  N1053  1  0.494730  0.689610  0.372250  1
  N  N1054  1  0.505270  0.810390  0.872250  1
  N  N1055  1  0.505270  0.310390  0.627750  1
  N  N1056  1  0.494730  0.189610  0.127750  1
  N  N1057  1  0.091780  0.734700  0.404160  1
  N  N1058  1  0.908220  0.765300  0.904160  1
  N  N1059  1  0.908220  0.265300  0.595840  1
  N  N1060  1  0.091780  0.234700  0.095840  1
  N  N1061  1  0.803670  0.459620  0.598810  1
  N  N1062  1  0.196330  0.040380  0.098810  1
  N  N1063  1  0.196330  0.540380  0.401190  1
  N  N1064  1  0.803670  0.959620  0.901190  1
  N  N1065  1  0.034070  0.284770  0.364120  1
  N  N1066  1  0.965930  0.215230  0.864120  1
  N  N1067  1  0.965930  0.715230  0.635880  1
  N  N1068  1  0.034070  0.784770  0.135880  1
  N  N1069  1  0.742740  0.445730  0.124880  1
  N  N1070  1  0.257260  0.054270  0.624880  1
  N  N1071  1  0.257260  0.554270  0.875120  1
  N  N1072  1  0.742740  0.945730  0.375120  1
  N  N1073  1  0.455660  0.205290  0.352090  1
  N  N1074  1  0.544340  0.294710  0.852090  1
  N  N1075  1  0.544340  0.794710  0.647910  1
  N  N1076  1  0.455660  0.705290  0.147910  1
  N  N1077  1  0.965740  0.243760  0.324490  1
  N  N1078  1  0.034260  0.256240  0.824490  1
  N  N1079  1  0.034260  0.756240  0.675510  1
  N  N1080  1  0.965740  0.743760  0.175510  1
  O  O1081  1  0.806600  0.830100  0.877200  1
  O  O1082  1  0.193400  0.669900  0.377200  1
  O  O1083  1  0.193400  0.169900  0.122800  1
  O  O1084  1  0.806600  0.330100  0.622800  1
  O  O1085  1  0.728000  0.773300  0.876600  1
  O  O1086  1  0.272000  0.726700  0.376600  1
  O  O1087  1  0.272000  0.226700  0.123400  1
  O  O1088  1  0.728000  0.273300  0.623400  1
  O  O1089  1  0.731800  0.843600  0.849500  1
  O  O1090  1  0.268200  0.656400  0.349500  1
  O  O1091  1  0.268200  0.156400  0.150500  1
  O  O1092  1  0.731800  0.343600  0.650500  1
  O  O1093  1  0.486000  0.206600  0.242100  1
  O  O1094  1  0.514000  0.293400  0.742100  1
  O  O1095  1  0.514000  0.793400  0.757900  1
  O  O1096  1  0.486000  0.706600  0.257900  1
  O  O1097  1  0.407300  0.178200  0.255200  1
  O  O1098  1  0.592700  0.321800  0.755200  1
  O  O1099  1  0.592700  0.821800  0.744800  1
  O  O1100  1  0.407300  0.678200  0.244800  1
  O  O1101  1  0.426500  0.167900  0.199800  1
  O  O1102  1  0.573500  0.332100  0.699800  1
  O  O1103  1  0.573500  0.832100  0.800200  1
  O  O1104  1  0.426500  0.667900  0.300200  1
  O  O1105  1  0.554800  0.814400  0.424500  1
  O  O1106  1  0.445200  0.685600  0.924500  1
  O  O1107  1  0.445200  0.185600  0.575500  1
  O  O1108  1  0.554800  0.314400  0.075500  1
  O  O1109  1  0.109200  0.787400  0.238800  1
  O  O1110  1  0.890800  0.712600  0.738800  1
  O  O1111  1  0.890800  0.212600  0.761200  1
  O  O1112  1  0.109200  0.287400  0.261200  1
  O  O1113  1  0.740600  0.235200  0.059200  1
  O  O1114  1  0.259400  0.264800  0.559200  1
  O  O1115  1  0.259400  0.764800  0.940800  1
  O  O1116  1  0.740600  0.735200  0.440800  1
  O  O1117  1  0.839500  0.220000  0.043200  1
  O  O1118  1  0.160500  0.280000  0.543200  1
  O  O1119  1  0.160500  0.780000  0.956800  1
  O  O1120  1  0.839500  0.720000  0.456800  1
  O  O1121  1  0.711700  0.654000  0.681300  1
  O  O1122  1  0.288300  0.846000  0.181300  1
  O  O1123  1  0.288300  0.346000  0.318700  1
  O  O1124  1  0.711700  0.154000  0.818700  1
  O  O1125  1  0.449500  0.699500  0.478100  1
  O  O1126  1  0.550500  0.800500  0.978100  1
  O  O1127  1  0.550500  0.300500  0.521900  1
  O  O1128  1  0.449500  0.199500  0.021900  1
  O  O1129  1  0.957400  0.177500  0.409400  1
  O  O1130  1  0.042600  0.322500  0.909400  1
  O  O1131  1  0.042600  0.822500  0.590600  1
  O  O1132  1  0.957400  0.677500  0.090600  1
  F  F1133  1  0.736500  0.766900  0.815800  1
  F  F1134  1  0.263500  0.733100  0.315800  1
  F  F1135  1  0.263500  0.233100  0.184200  1
  F  F1136  1  0.736500  0.266900  0.684200  1
  F  F1137  1  0.808200  0.817400  0.814700  1
  F  F1138  1  0.191800  0.682600  0.314700  1
  F  F1139  1  0.191800  0.182600  0.185300  1
  F  F1140  1  0.808200  0.317400  0.685300  1
  F  F1141  1  0.802400  0.761500  0.836200  1
  F  F1142  1  0.197600  0.738500  0.336200  1
  F  F1143  1  0.197600  0.238500  0.163800  1
  F  F1144  1  0.802400  0.261500  0.663800  1
  F  F1145  1  0.473600  0.092800  0.260800  1
  F  F1146  1  0.526400  0.407200  0.760800  1
  F  F1147  1  0.526400  0.907200  0.739200  1
  F  F1148  1  0.473600  0.592800  0.239200  1
  F  F1149  1  0.442600  0.078500  0.216100  1
  F  F1150  1  0.557400  0.421500  0.716100  1
  F  F1151  1  0.557400  0.921500  0.783900  1
  F  F1152  1  0.442600  0.578500  0.283900  1
  F  F1153  1  0.395600  0.080800  0.254700  1
  F  F1154  1  0.604400  0.419200  0.754700  1
  F  F1155  1  0.604400  0.919200  0.745300  1
  F  F1156  1  0.395600  0.580800  0.245300  1
