
#######################################################################
#
#                 Cambridge Crystallographic Data Centre
#                                CCDC 
#
#######################################################################
#
# If this CIF has been generated from an entry in the Cambridge 
# Structural Database, then it will include bibliographic, chemical, 
# crystal, experimental, refinement or atomic coordinate data resulting 
# from the CCDC's data processing and validation procedures.
#
#######################################################################

data_PAPHIY
_chemical_formula_moiety         
'C144 H192 N12 P12 Pt6 6+,4(C4 H22 B18 Co1 1-),2(C1 F3 O3 S1 1-),7(H2 O1)'
_chemical_name_systematic        
"tetrakis(1,3,5-tris(4-Pyridylethenyl)benzene)-dodecakis(trimethylphosphine)-hexa-platinum(ii) tetrakis(3,3'-commo-bis(3-cobalta-1,2-dicarba-closo-dodecaborate(11))) bis(trifluoromethanesulfonate) heptahydrate"
_symmetry_cell_setting           monoclinic
_symmetry_space_group_name_H-M   'P 21/c'
_symmetry_Int_Tables_number      14
_space_group_name_Hall           '-P 2ybc'
loop_
_symmetry_equiv_pos_site_id
_symmetry_equiv_pos_as_xyz
1 x,y,z
2 -x,1/2+y,1/2-z
3 -x,-y,-z
4 x,1/2-y,1/2+z
_cell_length_a                   27.979(4)
_cell_length_b                   43.908(6)
_cell_length_c                   31.316(5)
_cell_angle_alpha                90
_cell_angle_beta                 101.585(3)
_cell_angle_gamma                90
_cell_volume                     37688
_exptl_crystal_colour            brown
_exptl_crystal_description       block
_cell_formula_units_Z            4
_exptl_crystal_recrystallization_method 'diethyl ether'
loop_
_atom_site_label
_atom_site_type_symbol
_atom_site_fract_x
_atom_site_fract_y
_atom_site_fract_z
Pt1 Pt 0.24812(4) 0.91382(2) -0.49030(3)
Pt2 Pt 0.50551(4) 0.65006(3) -0.74748(3)
Pt3 Pt 0.24178(5) 0.36194(3) -0.45693(4)
Pt4 Pt -0.02842(4) 0.65830(3) -0.22806(4)
Pt5 Pt -0.12130(4) 0.61695(2) -0.79537(3)
Pt6 Pt 0.61273(4) 0.62572(3) -0.18730(3)
P1 P 0.2695(3) 0.94648(17) -0.4340(2)
C1 C 0.3046(6) 0.9788(3) -0.4430(7)
C2 C 0.2265(5) 0.9621(4) -0.4155(6)
C3 C 0.3063(6) 0.9291(4) -0.3900(5)
P2 P 0.2327(3) 0.95019(15) -0.5425(2)
C4 C 0.1976(6) 0.9836(3) -0.5267(7)
C5 C 0.1917(6) 0.9359(5) -0.5894(5)
C6 C 0.2859(4) 0.9646(4) -0.5557(6)
P3 P 0.4978(3) 0.6756(2) -0.8112(2)
C7 C 0.4310(4) 0.6667(6) -0.8437(8)
C8 C 0.5317(7) 0.6621(5) -0.8475(7)
C9 C 0.5133(8) 0.7135(2) -0.8069(8)
P4 P 0.5837(3) 0.6368(2) -0.7443(3)
C10 C 0.6285(8) 0.6673(4) -0.7470(8)
C11 C 0.6130(10) 0.6195(5) -0.6922(4)
C12 C 0.5967(9) 0.6089(4) -0.7803(6)
P5 P 0.1748(4) 0.3325(3) -0.4649(3)
C13 C 0.1574(10) 0.3179(6) -0.4204(5)
C14 C 0.1272(8) 0.3512(6) -0.4984(7)
C15 C 0.1718(12) 0.2978(4) -0.4977(7)
P6 P 0.2979(3) 0.32275(19) -0.4473(3)
C16 C 0.3612(5) 0.3329(7) -0.4224(8)
C17 C 0.3074(10) 0.3021(6) -0.4935(6)
C18 C 0.2897(11) 0.2940(5) -0.4035(7)
P7 P -0.0948(4) 0.6358(2) -0.2120(4)
C19 C -0.1057(13) 0.6009(5) -0.2446(9)
C20 C -0.0796(15) 0.6168(7) -0.1520(6)
C21 C -0.1447(9) 0.6592(7) -0.2005(10)
P8 P -0.0108(3) 0.6857(2) -0.1659(2)
C22 C 0.0208(11) 0.7240(4) -0.1754(12)
C23 C 0.0376(8) 0.6680(7) -0.1261(8)
C24 C -0.0662(8) 0.6998(7) -0.1447(11)
P9 P -0.1460(3) 0.64333(17) -0.85795(19)
C25 C -0.1903(5) 0.6717(4) -0.8528(7)
C26 C -0.1718(7) 0.6189(4) -0.9067(5)
C27 C -0.0952(5) 0.6637(4) -0.8771(6)
P10 P -0.1868(3) 0.58540(17) -0.8056(2)
C28 C -0.2468(5) 0.6034(4) -0.8235(6)
C29 C -0.1936(8) 0.5666(4) -0.7542(4)
C30 C -0.1830(8) 0.5542(3) -0.8406(5)
P11 P 0.6852(3) 0.6002(2) -0.1788(3)
C31 C 0.6885(9) 0.5674(4) -0.1447(6)
C32 C 0.7406(6) 0.6226(5) -0.1623(7)
C33 C 0.7003(9) 0.5854(5) -0.2227(5)
P12 P 0.6324(3) 0.65258(18) -0.1240(2)
C34 C 0.5784(5) 0.6635(5) -0.1027(7)
C35 C 0.6701(7) 0.6842(4) -0.1275(7)
C36 C 0.6646(7) 0.6327(5) -0.0752(5)
C37 C 0.23334(12) 0.72416(8) -0.70239(9)
C38 C 0.18942(12) 0.70797(8) -0.71790(8)
C39 C 0.14649(12) 0.71799(8) -0.70827(8)
C40 C 0.14617(12) 0.74181(7) -0.68057(9)
C41 C 0.19096(12) 0.75847(7) -0.66524(9)
C42 C 0.23053(12) 0.74976(7) -0.67604(9)
C43 C 0.28418(13) 0.71580(8) -0.71111(9)
C44 C 0.29132(13) 0.68913(9) -0.73123(8)
C45 C 0.34187(13) 0.68146(9) -0.73433(9)
C46 C 0.38183(13) 0.70018(9) -0.72009(10)
C47 C 0.43218(13) 0.69081(10) -0.72188(11)
N1 N 0.43432(14) 0.66367(10) -0.74342(11)
C48 C 0.39372(14) 0.64489(10) -0.76014(10)
C49 C 0.34692(14) 0.65577(9) -0.75570(9)
C50 C 0.10483(12) 0.69692(8) -0.72874(8)
C51 C 0.06211(12) 0.70526(8) -0.72229(9)
C52 C 0.01731(12) 0.68314(9) -0.74466(9)
C53 C 0.02509(12) 0.65452(9) -0.76370(9)
C54 C -0.01850(13) 0.63621(10) -0.78283(9)
N2 N -0.05831(12) 0.64646(10) -0.77785(10)
C55 C -0.06626(12) 0.66962(10) -0.75420(11)
C56 C -0.02722(12) 0.68955(9) -0.74478(10)
C57 C 0.18578(13) 0.78426(7) -0.63717(10)
C58 C 0.22203(13) 0.80654(7) -0.63076(11)
C59 C 0.22430(14) 0.83274(6) -0.59922(12)
C60 C 0.18631(14) 0.84114(6) -0.57634(12)
C61 C 0.19541(15) 0.86486(6) -0.54568(13)
N3 N 0.23596(16) 0.87971(6) -0.53827(14)
C62 C 0.26798(16) 0.87335(6) -0.55900(14)
C63 C 0.26757(15) 0.85015(6) -0.59117(13)
C64 C 0.49041(10) 0.54696(8) -0.44073(11)
C65 C 0.46505(11) 0.52082(8) -0.43778(12)
C66 C 0.44218(12) 0.50821(7) -0.47645(12)
C67 C 0.44362(12) 0.52145(8) -0.51837(11)
C68 C 0.47531(11) 0.54876(8) -0.51614(11)
C69 C 0.49840(10) 0.56115(8) -0.47845(11)
C70 C 0.52086(10) 0.56302(9) -0.40096(12)
C71 C 0.52104(11) 0.55287(9) -0.36039(12)
C72 C 0.54624(11) 0.57167(9) -0.31993(12)
C73 C 0.56475(10) 0.60004(10) -0.32376(12)
C74 C 0.58264(11) 0.61448(10) -0.28351(12)
N4 N 0.58742(11) 0.60118(11) -0.24441(12)
C75 C 0.56890(12) 0.57440(10) -0.24133(12)
C76 C 0.54722(12) 0.55642(10) -0.28193(12)
C77 C 0.41013(13) 0.48301(7) -0.48370(12)
C78 C 0.40183(13) 0.46771(7) -0.44625(12)
C79 C 0.36790(15) 0.43904(7) -0.44821(13)
C80 C 0.35212(15) 0.42884(7) -0.41063(13)
C81 C 0.32098(16) 0.40664(6) -0.41190(14)
N5 N 0.30068(17) 0.39299(6) -0.45167(15)
C82 C 0.31671(16) 0.39995(6) -0.48886(14)
C83 C 0.35294(15) 0.42501(6) -0.48863(14)
C84 C 0.48160(11) 0.56105(8) -0.55932(11)
C85 C 0.49905(10) 0.58779(9) -0.56242(11)
C86 C 0.49833(11) 0.59954(9) -0.60962(12)
C87 C 0.48907(12) 0.58260(10) -0.65029(12)
C88 C 0.49137(13) 0.59896(10) -0.69004(12)
N6 N 0.50527(13) 0.62775(10) -0.68961(12)
C89 C 0.51557(12) 0.64454(10) -0.65268(12)
C90 C 0.51239(11) 0.63267(9) -0.61072(12)
C91 C 0.00208(10) 0.55786(8) -0.52949(11)
C92 C 0.03345(11) 0.53337(7) -0.53265(11)
C93 C 0.05645(11) 0.52102(7) -0.48804(11)
C94 C 0.03902(11) 0.53397(8) -0.45143(11)
C95 C 0.00734(11) 0.55759(8) -0.45476(11)
C96 C -0.01156(10) 0.56905(8) -0.49545(11)
C97 C -0.02440(10) 0.57200(8) -0.57498(11)
C98 C -0.02383(11) 0.55716(8) -0.61253(11)
C99 C -0.05039(11) 0.57180(9) -0.65695(11)
C100 C -0.07841(10) 0.59755(9) -0.65997(11)
C101 C -0.10186(11) 0.60806(10) -0.69919(12)
N7 N -0.09178(12) 0.59584(10) -0.73470(11)
C102 C -0.06519(12) 0.57378(10) -0.73705(11)
C103 C -0.04183(12) 0.55787(9) -0.69254(11)
C104 C 0.08567(12) 0.49377(7) -0.49585(11)
C105 C 0.10172(13) 0.48479(7) -0.46293(12)
C106 C 0.14400(14) 0.45137(6) -0.46216(12)
C107 C 0.15259(14) 0.44398(6) -0.49908(13)
C108 C 0.17860(16) 0.41591(6) -0.50093(14)
N8 N 0.19633(16) 0.40119(6) -0.45962(14)
C109 C 0.18683(16) 0.40995(6) -0.42447(14)
C110 C 0.16272(15) 0.43709(7) -0.41544(13)
C111 C -0.00174(11) 0.56851(8) -0.41485(11)
C112 C -0.02661(10) 0.59518(9) -0.40957(12)
C113 C -0.03003(11) 0.60871(9) -0.36647(12)
C114 C -0.01343(12) 0.59203(10) -0.32656(12)
C115 C -0.01365(13) 0.60697(10) -0.28980(12)
N9 N -0.03407(13) 0.63588(11) -0.28477(12)
C116 C -0.05531(12) 0.65270(10) -0.32365(12)
C117 C -0.04938(11) 0.63638(10) -0.36483(12)
C118 C 0.28876(12) 0.75592(7) -0.31745(9)
C119 C 0.33560(12) 0.74349(8) -0.29953(9)
C120 C 0.33607(12) 0.71911(8) -0.27175(8)
C121 C 0.29437(13) 0.70537(8) -0.26368(8)
C122 C 0.24916(13) 0.71863(8) -0.28183(8)
C123 C 0.24365(13) 0.74504(7) -0.30879(9)
C124 C 0.28694(13) 0.78460(7) -0.34691(10)
C125 C 0.24657(13) 0.80062(7) -0.35179(11)
C126 C 0.25778(14) 0.83209(6) -0.39063(12)
C127 C 0.21566(15) 0.84841(6) -0.39498(13)
C128 C 0.21742(16) 0.87470(6) -0.42904(14)
N10 N 0.25726(16) 0.87512(6) -0.44573(14)
C129 C 0.29850(15) 0.85879(6) -0.44705(13)
C130 C 0.30113(14) 0.83196(6) -0.40956(12)
C131 C 0.38997(12) 0.71129(8) -0.25967(9)
C132 C 0.39063(12) 0.68874(9) -0.24848(8)
C133 C 0.45677(12) 0.67216(9) -0.22769(9)
C134 C 0.49233(12) 0.69138(10) -0.23079(10)
C135 C 0.54274(12) 0.67663(10) -0.21801(11)
N11 N 0.54434(12) 0.64791(10) -0.20529(10)
C136 C 0.50351(13) 0.63140(10) -0.19917(10)
C137 C 0.45801(12) 0.64678(10) -0.21669(9)
C138 C 0.20660(13) 0.70418(8) -0.26807(8)
C139 C 0.16344(13) 0.71561(8) -0.27894(9)
C140 C 0.11778(13) 0.70098(9) -0.26657(9)
C141 C 0.12107(14) 0.67464(9) -0.24273(9)
C142 C 0.07588(14) 0.66076(10) -0.23272(10)
N12 N 0.03426(14) 0.67551(10) -0.24376(11)
C143 C 0.02895(14) 0.70401(10) -0.26686(11)
C144 C 0.07412(13) 0.71641(9) -0.27862(10)
Co1 Co 0.21816(12) 0.56546(7) -0.25388(9)
B1 B 0.3364(2) 0.6034(2) -0.1948(3)
B2 B 0.33406(15) 0.5821(2) -0.2351(3)
B3 B 0.3087(3) 0.6158(2) -0.2473(3)
B4 B 0.2773(3) 0.62451(16) -0.2022(3)
B5 B 0.2871(3) 0.5914(2) -0.16561(18)
B6 B 0.3280(2) 0.5622(2) -0.1890(3)
B7 B 0.2611(2) 0.55937(18) -0.19071(14)
B8 B 0.2330(3) 0.59470(18) -0.19737(19)
B9 B 0.2418(3) 0.61105(8) -0.2525(3)
B10 B 0.0977(2) 0.5260(2) -0.3135(3)
B11 B 0.1269(3) 0.5114(2) -0.2637(3)
B12 B 0.1531(3) 0.50653(17) -0.3077(3)
B13 B 0.1524(3) 0.5384(3) -0.34424(18)
B14 B 0.1129(2) 0.5647(2) -0.3180(3)
B15 B 0.09695(15) 0.5498(3) -0.2698(3)
B16 B 0.1573(2) 0.5477(2) -0.2323(2)
B17 B 0.1919(3) 0.52008(9) -0.2574(3)
B18 B 0.2019(2) 0.53712(17) -0.30670(19)
C145 C 0.2780(2) 0.58288(19) -0.27127(19)
C146 C 0.29068(13) 0.55554(16) -0.2372(3)
C147 C 0.1768(2) 0.57037(18) -0.31514(13)
C148 C 0.14145(15) 0.58178(17) -0.2686(3)
Co2 Co 0.09213(19) 0.78120(11) -0.02366(14)
B19 B 0.2058(5) 0.7375(4) 0.0393(5)
B20 B 0.1925(6) 0.7361(5) -0.0255(5)
B21 B 0.1575(6) 0.7194(2) 0.0155(6)
B22 B 0.1544(6) 0.7404(5) 0.0600(4)
B23 B 0.1869(5) 0.7647(4) 0.0582(4)
B24 B 0.2100(2) 0.7650(4) 0.0098(6)
B25 B 0.1026(4) 0.7427(3) 0.0160(5)
B26 B 0.1264(5) 0.7723(4) 0.03867(17)
B27 B 0.1577(3) 0.7872(2) 0.0133(5)
B28 B -0.0168(5) 0.8271(4) -0.0766(5)
B29 B 0.0393(6) 0.8475(2) -0.0578(7)
B30 B 0.0333(6) 0.8247(4) -0.1018(4)
B31 B -0.0019(6) 0.7929(4) -0.1070(5)
B32 B -0.0231(2) 0.7983(4) -0.0517(6)
B33 B 0.0052(6) 0.8284(4) -0.0228(5)
B34 B 0.0601(5) 0.7883(4) -0.09027(17)
B35 B 0.0852(4) 0.8204(2) -0.0593(5)
B36 B 0.0624(5) 0.8204(2) -0.0126(4)
C149 C 0.0236(3) 0.7677(3) -0.0597(6)
C150 C 0.0283(3) 0.7928(4) -0.0105(4)
C151 C 0.1616(3) 0.7690(4) -0.0374(4)
C152 C 0.1216(5) 0.7391(2) -0.0359(4)
S1 S 0.2425(3) 1.13641(17) 0.1891(3)
O1 O 0.1934(4) 1.1228(3) 0.1699(5)
O2 O 0.2720(5) 1.1234(3) 0.2267(4)
O3 O 0.2682(6) 1.1505(3) 0.1564(4)
C153 C 0.2199(5) 1.1667(2) 0.2110(4)
F1 F 0.2635(7) 1.1842(3) 0.2331(6)
F2 F 0.1918(6) 1.1853(3) 0.1826(6)
F3 F 0.1976(6) 1.1638(4) 0.2385(5)
S2 S 0.5579(5) 0.7658(3) -0.1697(4)
O4 O 0.5140(8) 0.7579(7) -0.2066(6)
O5 O 0.5927(9) 0.7448(6) -0.1782(7)
O6 O 0.5735(13) 0.8002(3) -0.1679(8)
C154 C 0.5619(10) 0.7577(6) -0.0981(5)
F4 F 0.5264(13) 0.7392(9) -0.0928(8)
F5 F 0.5574(15) 0.7839(8) -0.0785(6)
F6 F 0.6044(12) 0.7453(9) -0.0808(6)
O7 O 0.4452(10) 0.5755(6) -0.8144(9)
O8 O -0.1092(8) 0.7612(5) -0.7874(6)
O9 O 0.2594(7) 0.9408(5) -0.2352(6)
O10 O 0.1605(5) 0.9568(3) -0.2200(4)
O11 O 0.2883(5) 0.3187(3) -0.6540(4)
O12 O 0.5505(4) 0.5219(2) -0.6995(3)
O13 O 0.0426(11) 0.5906(7) -0.1775(10)
Co3? Co 0.01339(14) 0.56863(8) -0.94580(11)
B37? B -0.0513(5) 0.5299(3) -0.8589(3)
B38? B -0.0515(5) 0.5688(3) -0.8612(3)
B39? B -0.0842(3) 0.5410(3) -0.9088(4)
B40? B -0.0515(5) 0.5136(2) -0.9055(4)
B41? B -0.0025(5) 0.5127(2) -0.8784(4)
B42? B -0.0003(5) 0.5515(3) -0.84043(18)
B43? B 0.0073(4) 0.5855(2) -0.8836(2)
B44? B -0.0536(2) 0.5752(2) -0.9279(3)
B45? B -0.0535(3) 0.5389(3) -0.9494(3)
B46? B 0.0704(5) 0.6039(3) -1.0346(3)
B47? B 0.0212(5) 0.5836(3) -1.04937(16)
B48? B 0.0745(5) 0.5644(3) -1.0287(3)
B49? B 0.1042(3) 0.5883(3) -0.9918(4)
B50? B 0.0745(5) 0.6199(2) -0.9887(4)
B51? B 0.0110(5) 0.6174(3) -1.0272(3)
B52? B 0.0724(3) 0.5953(2) -0.9515(3)
B53? B 0.0179(4) 0.61250(10) -0.9653(3)
B54? B -0.0131(3) 0.5855(3) -1.00720(18)
C155? C 0.0010(5) 0.52081(11) -0.9192(3)
C156? C 0.0475(3) 0.5467(3) -0.8858(2)
C157? C 0.0791(3) 0.5588(2) -0.9731(3)
C158? C 0.0274(4) 0.5532(2) -1.0079(2)
Co4? Co 0.48503(13) 0.57401(8) -0.03541(11)
B55? B 0.5390(5) 0.5395(3) -0.1389(3)
B56? B 0.5379(5) 0.5180(2) -0.0817(4)
B57? B 0.4875(5) 0.5209(3) -0.1187(4)
B58? B 0.4942(5) 0.5577(3) -0.14188(18)
B59? B 0.5507(5) 0.5767(3) -0.1129(4)
B60? B 0.5754(3) 0.5477(3) -0.0872(4)
B61? B 0.5510(3) 0.5836(2) -0.0601(3)
B62? B 0.5462(3) 0.5471(2) -0.0337(3)
B63? B 0.4984(4) 0.52882(10) -0.0565(3)
B64? B 0.4269(5) 0.6156(3) 0.0537(3)
B65? B 0.4352(5) 0.5761(3) 0.0512(3)
B66? B 0.3886(3) 0.5947(3) 0.0057(4)
B67? B 0.4202(5) 0.6280(2) -0.0007(4)
B68? B 0.4718(5) 0.6286(2) 0.0361(4)
B69? B 0.4799(5) 0.5950(3) 0.06209(18)
B70? B 0.4197(2) 0.5961(2) -0.0370(3)
B71? B 0.4237(3) 0.5621(2) -0.0065(3)
B72? B 0.4812(4) 0.5674(2) 0.03119(15)
C159? C 0.4885(4) 0.5852(2) -0.10260(17)
C160? C 0.4618(3) 0.5510(2) -0.0957(2)
C161? C 0.5057(3) 0.5984(2) 0.0203(2)
C162? C 0.4739(4) 0.62110(9) -0.0210(3)
loop_
_geom_bond_atom_site_label_1
_geom_bond_atom_site_label_2
_geom_bond_site_symmetry_1
_geom_bond_site_symmetry_2
Pt1 P1 1_555 1_555
Pt2 P3 1_555 1_555
Pt3 P5 1_555 1_555
Pt4 P7 1_555 1_555
Pt5 P9 1_555 1_555
Pt6 P11 1_555 1_555
P1 C1 1_555 1_555
C2 P1 1_555 1_555
C3 P1 1_555 1_555
P2 Pt1 1_555 1_555
C4 P2 1_555 1_555
C5 P2 1_555 1_555
C6 P2 1_555 1_555
P3 C7 1_555 1_555
C8 P3 1_555 1_555
C9 P3 1_555 1_555
P4 Pt2 1_555 1_555
C10 P4 1_555 1_555
C11 P4 1_555 1_555
C12 P4 1_555 1_555
P5 C13 1_555 1_555
C14 P5 1_555 1_555
C15 P5 1_555 1_555
P6 Pt3 1_555 1_555
C16 P6 1_555 1_555
C17 P6 1_555 1_555
C18 P6 1_555 1_555
P7 C19 1_555 1_555
C20 P7 1_555 1_555
C21 P7 1_555 1_555
P8 Pt4 1_555 1_555
C22 P8 1_555 1_555
C23 P8 1_555 1_555
C24 P8 1_555 1_555
P9 C25 1_555 1_555
C26 P9 1_555 1_555
C27 P9 1_555 1_555
P10 Pt5 1_555 1_555
C28 P10 1_555 1_555
C29 P10 1_555 1_555
C30 P10 1_555 1_555
P11 C31 1_555 1_555
C32 P11 1_555 1_555
C33 P11 1_555 1_555
P12 Pt6 1_555 1_555
C34 P12 1_555 1_555
C35 P12 1_555 1_555
C36 P12 1_555 1_555
C37 C38 1_555 1_555
C38 C39 1_555 1_555
C39 C40 1_555 1_555
C40 C41 1_555 1_555
C41 C42 1_555 1_555
C42 C37 1_555 1_555
C43 C37 1_555 1_555
C44 C43 1_555 1_555
C45 C44 1_555 1_555
C46 C45 1_555 1_555
C47 C46 1_555 1_555
N1 Pt2 1_555 1_555
C48 N1 1_555 1_555
C49 C45 1_555 1_555
C50 C39 1_555 1_555
C51 C50 1_555 1_555
C52 C51 1_555 1_555
C53 C52 1_555 1_555
C54 C53 1_555 1_555
N2 Pt5 1_555 1_555
C55 N2 1_555 1_555
C56 C52 1_555 1_555
C57 C41 1_555 1_555
C58 C57 1_555 1_555
C59 C58 1_555 1_555
C60 C59 1_555 1_555
C61 C60 1_555 1_555
N3 Pt1 1_555 1_555
C62 N3 1_555 1_555
C63 C59 1_555 1_555
C64 C65 1_555 1_555
C65 C66 1_555 1_555
C66 C67 1_555 1_555
C67 C68 1_555 1_555
C68 C69 1_555 1_555
C69 C64 1_555 1_555
C70 C64 1_555 1_555
C71 C70 1_555 1_555
C72 C71 1_555 1_555
C73 C72 1_555 1_555
C74 C73 1_555 1_555
N4 Pt6 1_555 1_555
C75 N4 1_555 1_555
C76 C72 1_555 1_555
C77 C66 1_555 1_555
C78 C77 1_555 1_555
C79 C78 1_555 1_555
C80 C79 1_555 1_555
C81 C80 1_555 1_555
N5 Pt3 1_555 1_555
C82 N5 1_555 1_555
C83 C79 1_555 1_555
C84 C68 1_555 1_555
C85 C84 1_555 1_555
C86 C85 1_555 1_555
C87 C86 1_555 1_555
C88 C87 1_555 1_555
N6 Pt2 1_555 1_555
C89 N6 1_555 1_555
C90 C86 1_555 1_555
C91 C92 1_555 1_555
C92 C93 1_555 1_555
C93 C94 1_555 1_555
C94 C95 1_555 1_555
C95 C96 1_555 1_555
C96 C91 1_555 1_555
C97 C91 1_555 1_555
C98 C97 1_555 1_555
C99 C98 1_555 1_555
C100 C99 1_555 1_555
C101 C100 1_555 1_555
N7 Pt5 1_555 1_555
C102 N7 1_555 1_555
C103 C99 1_555 1_555
C104 C93 1_555 1_555
C105 C104 1_555 1_555
C106 C105 1_555 1_555
C107 C106 1_555 1_555
C108 C107 1_555 1_555
N8 Pt3 1_555 1_555
C109 N8 1_555 1_555
C110 C106 1_555 1_555
C111 C95 1_555 1_555
C112 C111 1_555 1_555
C113 C112 1_555 1_555
C114 C113 1_555 1_555
C115 C114 1_555 1_555
N9 Pt4 1_555 1_555
C116 N9 1_555 1_555
C117 C113 1_555 1_555
C118 C119 1_555 1_555
C119 C120 1_555 1_555
C120 C121 1_555 1_555
C121 C122 1_555 1_555
C122 C123 1_555 1_555
C123 C118 1_555 1_555
C124 C118 1_555 1_555
C125 C124 1_555 1_555
C126 C125 1_555 1_555
C127 C126 1_555 1_555
C128 C127 1_555 1_555
N10 Pt1 1_555 1_555
C129 N10 1_555 1_555
C130 C126 1_555 1_555
C131 C120 1_555 1_555
C132 C131 1_555 1_555
C133 C132 1_555 1_555
C134 C133 1_555 1_555
C135 C134 1_555 1_555
N11 Pt6 1_555 1_555
C136 N11 1_555 1_555
C137 C133 1_555 1_555
C138 C122 1_555 1_555
C139 C138 1_555 1_555
C140 C139 1_555 1_555
C141 C140 1_555 1_555
C142 C141 1_555 1_555
N12 Pt4 1_555 1_555
C143 N12 1_555 1_555
C144 C140 1_555 1_555
Co1 B7 1_555 1_555
B1 B2 1_555 1_555
B2 B3 1_555 1_555
B3 B1 1_555 1_555
B4 B1 1_555 1_555
B5 B1 1_555 1_555
B6 B1 1_555 1_555
B7 B5 1_555 1_555
B8 Co1 1_555 1_555
B9 Co1 1_555 1_555
B10 B11 1_555 1_555
B11 B12 1_555 1_555
B12 B10 1_555 1_555
B13 B10 1_555 1_555
B14 B10 1_555 1_555
B15 B10 1_555 1_555
B16 Co1 1_555 1_555
B17 Co1 1_555 1_555
B18 Co1 1_555 1_555
C145 Co1 1_555 1_555
C146 Co1 1_555 1_555
C147 Co1 1_555 1_555
C148 Co1 1_555 1_555
Co2 B25 1_555 1_555
B19 B20 1_555 1_555
B20 B21 1_555 1_555
B21 B19 1_555 1_555
B22 B19 1_555 1_555
B23 B19 1_555 1_555
B24 B19 1_555 1_555
B25 B21 1_555 1_555
B26 Co2 1_555 1_555
B27 Co2 1_555 1_555
B28 B29 1_555 1_555
B29 B30 1_555 1_555
B30 B28 1_555 1_555
B31 B28 1_555 1_555
B32 B28 1_555 1_555
B33 B28 1_555 1_555
B34 Co2 1_555 1_555
B35 Co2 1_555 1_555
B36 Co2 1_555 1_555
C149 Co2 1_555 1_555
C150 Co2 1_555 1_555
C151 Co2 1_555 1_555
C152 Co2 1_555 1_555
S1 O1 1_555 1_555
O2 S1 1_555 1_555
O3 S1 1_555 1_555
C153 S1 1_555 1_555
F1 C153 1_555 1_555
F2 C153 1_555 1_555
F3 C153 1_555 1_555
S2 O4 1_555 1_555
O5 S2 1_555 1_555
O6 S2 1_555 1_555
C154 S2 1_555 1_555
F4 C154 1_555 1_555
F5 C154 1_555 1_555
F6 C154 1_555 1_555
C47 N1 1_555 1_555
C48 C49 1_555 1_555
C54 N2 1_555 1_555
C55 C56 1_555 1_555
C61 N3 1_555 1_555
C62 C63 1_555 1_555
C74 N4 1_555 1_555
C75 C76 1_555 1_555
C81 N5 1_555 1_555
C82 C83 1_555 1_555
C88 N6 1_555 1_555
C89 C90 1_555 1_555
C101 N7 1_555 1_555
C102 C103 1_555 1_555
C108 N8 1_555 1_555
C109 C110 1_555 1_555
C115 N9 1_555 1_555
C116 C117 1_555 1_555
C128 N10 1_555 1_555
C129 C130 1_555 1_555
C135 N11 1_555 1_555
C136 C137 1_555 1_555
C142 N12 1_555 1_555
C143 C144 1_555 1_555
B2 B6 1_555 1_555
B2 C145 1_555 1_555
B2 C146 1_555 1_555
B3 B4 1_555 1_555
B3 B9 1_555 1_555
B3 C145 1_555 1_555
B4 B5 1_555 1_555
B4 B8 1_555 1_555
B4 B9 1_555 1_555
B5 B6 1_555 1_555
B5 B8 1_555 1_555
B6 B7 1_555 1_555
B6 C146 1_555 1_555
B7 B8 1_555 1_555
B7 C146 1_555 1_555
B8 B9 1_555 1_555
B9 C145 1_555 1_555
B11 B15 1_555 1_555
B11 B16 1_555 1_555
B11 B17 1_555 1_555
B12 B13 1_555 1_555
B12 B17 1_555 1_555
B12 B18 1_555 1_555
B13 B14 1_555 1_555
B13 B18 1_555 1_555
B13 C147 1_555 1_555
B14 B15 1_555 1_555
B14 C147 1_555 1_555
B14 C148 1_555 1_555
B15 B16 1_555 1_555
B15 C148 1_555 1_555
B16 B17 1_555 1_555
B16 C148 1_555 1_555
B17 B18 1_555 1_555
B18 C147 1_555 1_555
C145 C146 1_555 1_555
C147 C148 1_555 1_555
B20 B24 1_555 1_555
B20 C151 1_555 1_555
B20 C152 1_555 1_555
B21 B22 1_555 1_555
B21 C152 1_555 1_555
B22 B23 1_555 1_555
B22 B25 1_555 1_555
B22 B26 1_555 1_555
B23 B24 1_555 1_555
B23 B26 1_555 1_555
B23 B27 1_555 1_555
B24 B27 1_555 1_555
B24 C151 1_555 1_555
B25 B26 1_555 1_555
B25 C152 1_555 1_555
B26 B27 1_555 1_555
B27 C151 1_555 1_555
B29 B33 1_555 1_555
B29 B35 1_555 1_555
B29 B36 1_555 1_555
B30 B31 1_555 1_555
B30 B34 1_555 1_555
B30 B35 1_555 1_555
B31 B32 1_555 1_555
B31 B34 1_555 1_555
B31 C149 1_555 1_555
B32 B33 1_555 1_555
B32 C149 1_555 1_555
B32 C150 1_555 1_555
B33 B36 1_555 1_555
B33 C150 1_555 1_555
B34 B35 1_555 1_555
B34 C149 1_555 1_555
B35 B36 1_555 1_555
B36 C150 1_555 1_555
C149 C150 1_555 1_555
C151 C152 1_555 1_555

#END
