# generated using pymatgen
data_Co6B108P12Pt6C172S4N12(O7F4)3
_symmetry_space_group_name_H-M   'P 1'
_cell_length_a   28.26318675
_cell_length_b   28.26318675
_cell_length_c   54.15973893
_cell_angle_alpha   96.18754408
_cell_angle_beta   104.99833644
_cell_angle_gamma   107.31032087
_symmetry_Int_Tables_number   1
_chemical_formula_structural   Co6B108P12Pt6C172S4N12(O7F4)3
_chemical_formula_sum   'Co24 B432 P48 Pt24 C688 S16 N48 O84 F48'
_cell_volume   39087.46663949
_cell_formula_units_Z   4
loop_
 _symmetry_equiv_pos_site_id
 _symmetry_equiv_pos_as_xyz
  1  'x, y, z'
loop_
 _atom_site_type_symbol
 _atom_site_label
 _atom_site_symmetry_multiplicity
 _atom_site_fract_x
 _atom_site_fract_y
 _atom_site_fract_z
 _atom_site_occupancy
  B  B1  1  0.756090  0.069180  0.852830  1
  B  B2  1  0.716350  0.903260  0.647170  1
  B  B3  1  0.243910  0.930820  0.147170  1
  B  B4  1  0.283650  0.096740  0.352830  1
  B  B5  1  0.732200  0.062870  0.817430  1
  B  B6  1  0.745440  0.914770  0.682570  1
  B  B7  1  0.267800  0.937130  0.182570  1
  B  B8  1  0.254560  0.085230  0.317430  1
  B  B9  1  0.726450  0.111720  0.838470  1
  B  B10  1  0.773250  0.887980  0.661530  1
  B  B11  1  0.273550  0.888280  0.161530  1
  B  B12  1  0.226750  0.112020  0.338470  1
  B  B13  1  0.777810  0.134600  0.865370  1
  B  B14  1  0.769230  0.912440  0.634630  1
  B  B15  1  0.222190  0.865400  0.134630  1
  B  B16  1  0.230770  0.087560  0.365370  1
  B  B17  1  0.820220  0.099400  0.863120  1
  B  B18  1  0.736280  0.957100  0.636880  1
  B  B19  1  0.179780  0.900600  0.136880  1
  B  B20  1  0.263720  0.042900  0.363120  1
  B  B21  1  0.791960  0.051940  0.832640  1
  B  B22  1  0.719300  0.959320  0.667360  1
  B  B23  1  0.208040  0.948060  0.167360  1
  B  B24  1  0.280700  0.040680  0.332640  1
  B  B25  1  0.845090  0.112240  0.835410  1
  B  B26  1  0.776830  0.009680  0.664590  1
  B  B27  1  0.154910  0.887760  0.164590  1
  B  B28  1  0.223170  0.990320  0.335410  1
  B  B29  1  0.837270  0.164410  0.857060  1
  B  B30  1  0.807350  0.980210  0.642940  1
  B  B31  1  0.162730  0.835590  0.142940  1
  B  B32  1  0.192650  0.019790  0.357060  1
  B  B33  1  0.774100  0.170110  0.840270  1
  B  B34  1  0.829840  0.933830  0.659730  1
  B  B35  1  0.225900  0.829890  0.159730  1
  B  B36  1  0.170160  0.066170  0.340270  1
  B  B37  1  0.891120  0.265660  0.778620  1
  B  B38  1  0.987040  0.112500  0.721380  1
  B  B39  1  0.108880  0.734340  0.221380  1
  B  B40  1  0.012960  0.887500  0.278620  1
  B  B41  1  0.916090  0.275030  0.814320  1
  B  B42  1  0.960710  0.101770  0.685680  1
  B  B43  1  0.083910  0.724970  0.185680  1
  B  B44  1  0.039290  0.898230  0.314320  1
  B  B45  1  0.851290  0.280870  0.797760  1
  B  B46  1  0.983110  0.053530  0.702240  1
  B  B47  1  0.148710  0.719130  0.202240  1
  B  B48  1  0.016890  0.946470  0.297760  1
  B  B49  1  0.821880  0.233950  0.768270  1
  B  B50  1  0.965680  0.053610  0.731730  1
  B  B51  1  0.178120  0.766050  0.231730  1
  B  B52  1  0.034320  0.946390  0.268270  1
  B  B53  1  0.867080  0.202960  0.766780  1
  B  B54  1  0.936180  0.100300  0.733220  1
  B  B55  1  0.132920  0.797040  0.233220  1
  B  B56  1  0.063820  0.899700  0.266780  1
  B  B57  1  0.920100  0.222470  0.793470  1
  B  B58  1  0.929000  0.126630  0.706530  1
  B  B59  1  0.079900  0.777530  0.206530  1
  B  B60  1  0.071000  0.873370  0.293470  1
  B  B61  1  0.902700  0.213560  0.824440  1
  B  B62  1  0.889120  0.078260  0.675560  1
  B  B63  1  0.097300  0.786440  0.175560  1
  B  B64  1  0.110880  0.921740  0.324440  1
  B  B65  1  0.860040  0.248750  0.827050  1
  B  B66  1  0.921700  0.032990  0.672950  1
  B  B67  1  0.139960  0.751250  0.172950  1
  B  B68  1  0.078300  0.967010  0.327050  1
  B  B69  1  0.802740  0.223560  0.796520  1
  B  B70  1  0.927040  0.006220  0.703480  1
  B  B71  1  0.197260  0.776440  0.203480  1
  B  B72  1  0.072960  0.993780  0.296520  1
  B  B73  1  0.529280  0.219900  0.400180  1
  B  B74  1  0.319720  0.129100  0.099820  1
  B  B75  1  0.470720  0.780100  0.599820  1
  B  B76  1  0.680280  0.870900  0.900180  1
  B  B77  1  0.463950  0.190500  0.386650  1
  B  B78  1  0.303850  0.077300  0.113350  1
  B  B79  1  0.536050  0.809500  0.613350  1
  B  B80  1  0.696150  0.922700  0.886650  1
  B  B81  1  0.500270  0.172300  0.369770  1
  B  B82  1  0.302530  0.130500  0.130230  1
  B  B83  1  0.499730  0.827700  0.630230  1
  B  B84  1  0.697470  0.869500  0.869770  1
  B  B85  1  0.540330  0.232700  0.369230  1
  B  B86  1  0.363470  0.171100  0.130770  1
  B  B87  1  0.459670  0.767300  0.630770  1
  B  B88  1  0.636530  0.828900  0.869230  1
  B  B89  1  0.537120  0.284300  0.389820  1
  B  B90  1  0.394480  0.147300  0.110180  1
  B  B91  1  0.462880  0.715700  0.610180  1
  B  B92  1  0.605520  0.852700  0.889820  1
  B  B93  1  0.485930  0.255100  0.401230  1
  B  B94  1  0.353870  0.084700  0.098770  1
  B  B95  1  0.514070  0.744900  0.598770  1
  B  B96  1  0.646130  0.915300  0.901230  1
  B  B97  1  0.512600  0.273670  0.354130  1
  B  B98  1  0.419540  0.158470  0.145870  1
  B  B99  1  0.487400  0.726330  0.645870  1
  B  B100  1  0.580460  0.841530  0.854130  1
  B  B101  1  0.490510  0.207300  0.341410  1
  B  B102  1  0.365890  0.149100  0.158590  1
  B  B103  1  0.509490  0.792700  0.658590  1
  B  B104  1  0.634110  0.850900  0.841410  1
  B  B105  1  0.440960  0.181080  0.352900  1
  B  B106  1  0.328180  0.088060  0.147100  1
  B  B107  1  0.559040  0.818920  0.647100  1
  B  B108  1  0.671820  0.911940  0.852900  1
  B  B109  1  0.342207  0.264367  0.273240  1
  B  B110  1  0.491127  0.068967  0.226760  1
  B  B111  1  0.657793  0.735633  0.726760  1
  B  B112  1  0.508873  0.931033  0.773240  1
  B  B113  1  0.322840  0.256700  0.302740  1
  B  B114  1  0.453960  0.020100  0.197260  1
  B  B115  1  0.677160  0.743300  0.697260  1
  B  B116  1  0.546040  0.979900  0.802740  1
  B  B117  1  0.332970  0.204100  0.282670  1
  B  B118  1  0.421430  0.050300  0.217330  1
  B  B119  1  0.667030  0.795900  0.717330  1
  B  B120  1  0.578570  0.949700  0.782670  1
  B  B121  1  0.388210  0.230900  0.271510  1
  B  B122  1  0.459390  0.116700  0.228490  1
  B  B123  1  0.611790  0.769100  0.728490  1
  B  B124  1  0.540610  0.883300  0.771510  1
  B  B125  1  0.409660  0.294600  0.281660  1
  B  B126  1  0.512940  0.128000  0.218340  1
  B  B127  1  0.590340  0.705400  0.718340  1
  B  B128  1  0.487060  0.872000  0.781660  1
  B  B129  1  0.374140  0.312900  0.302840  1
  B  B130  1  0.510060  0.071300  0.197160  1
  B  B131  1  0.625860  0.687100  0.697160  1
  B  B132  1  0.489940  0.928700  0.802840  1
  B  B133  1  0.383330  0.283710  0.332440  1
  B  B134  1  0.451270  0.050890  0.167560  1
  B  B135  1  0.616670  0.716290  0.667560  1
  B  B136  1  0.548730  0.949110  0.832440  1
  B  B137  1  0.438640  0.308340  0.319300  1
  B  B138  1  0.489040  0.119340  0.180700  1
  B  B139  1  0.561360  0.691660  0.680700  1
  B  B140  1  0.510960  0.880660  0.819300  1
  B  B141  1  0.445730  0.257120  0.300450  1
  B  B142  1  0.456670  0.145280  0.199550  1
  B  B143  1  0.554270  0.742880  0.699550  1
  B  B144  1  0.543330  0.854720  0.800450  1
  B  B145  1  0.884770  0.747430  0.964400  1
  B  B146  1  0.283030  0.920370  0.535600  1
  B  B147  1  0.115230  0.252570  0.035600  1
  B  B148  1  0.716970  0.079630  0.464400  1
  B  B149  1  0.899580  0.768920  0.998900  1
  B  B150  1  0.270020  0.900680  0.501100  1
  B  B151  1  0.100420  0.231080  0.001100  1
  B  B152  1  0.729980  0.099320  0.498900  1
  B  B153  1  0.919110  0.813190  0.978900  1
  B  B154  1  0.334290  0.940210  0.521100  1
  B  B155  1  0.080890  0.186810  0.021100  1
  B  B156  1  0.665710  0.059790  0.478900  1
  B  B157  1  0.872520  0.795080  0.946800  1
  B  B158  1  0.348280  0.925720  0.553200  1
  B  B159  1  0.127480  0.204920  0.053200  1
  B  B160  1  0.651720  0.074280  0.446800  1
  B  B161  1  0.819230  0.745870  0.950900  1
  B  B162  1  0.294970  0.868330  0.549100  1
  B  B163  1  0.180770  0.254130  0.049100  1
  B  B164  1  0.705030  0.131670  0.450900  1
  B  B165  1  0.837270  0.723130  0.980400  1
  B  B166  1  0.242730  0.856870  0.519600  1
  B  B167  1  0.162730  0.276870  0.019600  1
  B  B168  1  0.757270  0.143130  0.480400  1
  B  B169  1  0.838610  0.778370  0.005580  1
  B  B170  1  0.272790  0.833030  0.494420  1
  B  B171  1  0.161390  0.221630  0.994420  1
  B  B172  1  0.727210  0.166970  0.505580  1
  B  B173  1  0.792210  0.761090  0.974900  1
  B  B174  1  0.286190  0.817310  0.525100  1
  B  B175  1  0.207790  0.238910  0.025100  1
  B  B176  1  0.713810  0.182690  0.474900  1
  B  B177  1  0.811170  0.809070  0.954840  1
  B  B178  1  0.354230  0.856330  0.545160  1
  B  B179  1  0.188830  0.190930  0.045160  1
  B  B180  1  0.645770  0.143670  0.454840  1
  B  B181  1  0.771470  0.934430  0.029300  1
  B  B182  1  0.405130  0.742170  0.470700  1
  B  B183  1  0.228530  0.065570  0.970700  1
  B  B184  1  0.594870  0.257830  0.529300  1
  B  B185  1  0.760840  0.918060  0.994900  1
  B  B186  1  0.423160  0.765940  0.505100  1
  B  B187  1  0.239160  0.081940  0.005100  1
  B  B188  1  0.576840  0.234060  0.494900  1
  B  B189  1  0.825370  0.952030  0.016600  1
  B  B190  1  0.435430  0.808770  0.483400  1
  B  B191  1  0.174630  0.047970  0.983400  1
  B  B192  1  0.564570  0.191230  0.516600  1
  B  B193  1  0.834800  0.936400  0.048200  1
  B  B194  1  0.388200  0.786600  0.451800  1
  B  B195  1  0.165200  0.063600  0.951800  1
  B  B196  1  0.611800  0.213400  0.548200  1
  B  B197  1  0.779580  0.879120  0.040700  1
  B  B198  1  0.338420  0.738880  0.459300  1
  B  B199  1  0.220420  0.120880  0.959300  1
  B  B200  1  0.661580  0.261120  0.540700  1
  B  B201  1  0.728770  0.872530  0.011300  1
  B  B202  1  0.361230  0.717470  0.488700  1
  B  B203  1  0.271230  0.127470  0.988700  1
  B  B204  1  0.638770  0.282530  0.511300  1
  B  B205  1  0.748730  0.838920  0.982050  1
  B  B206  1  0.356870  0.766680  0.517950  1
  B  B207  1  0.251270  0.161080  0.017950  1
  B  B208  1  0.643130  0.233320  0.482050  1
  B  B209  1  0.805430  0.901260  0.987690  1
  B  B210  1  0.413570  0.817740  0.512310  1
  B  B211  1  0.194570  0.098740  0.012310  1
  B  B212  1  0.586430  0.182260  0.487690  1
  B  B213  1  0.852160  0.907940  0.014100  1
  B  B214  1  0.393840  0.838060  0.485900  1
  B  B215  1  0.147840  0.092060  0.985900  1
  B  B216  1  0.606160  0.161940  0.514100  1
  B  B217  1  0.864150  0.789100  0.711250  1
  B  B218  1  0.577850  0.152900  0.788750  1
  B  B219  1  0.135850  0.210900  0.288750  1
  B  B220  1  0.422150  0.847100  0.211250  1
  B  B221  1  0.934860  0.816200  0.722860  1
  B  B222  1  0.593340  0.212000  0.777140  1
  B  B223  1  0.065140  0.183800  0.277140  1
  B  B224  1  0.406660  0.788000  0.222860  1
  B  B225  1  0.897490  0.766500  0.738590  1
  B  B226  1  0.527910  0.158900  0.761410  1
  B  B227  1  0.102510  0.233500  0.261410  1
  B  B228  1  0.472090  0.841100  0.238590  1
  B  B229  1  0.835530  0.771300  0.738230  1
  B  B230  1  0.533070  0.097300  0.761770  1
  B  B231  1  0.164470  0.228700  0.261770  1
  B  B232  1  0.466930  0.902700  0.238230  1
  B  B233  1  0.844360  0.830500  0.727260  1
  B  B234  1  0.603240  0.117100  0.772740  1
  B  B235  1  0.155640  0.169500  0.272740  1
  B  B236  1  0.396760  0.882900  0.227260  1
  B  B237  1  0.897450  0.857600  0.717050  1
  B  B238  1  0.640550  0.180400  0.782950  1
  B  B239  1  0.102550  0.142400  0.282950  1
  B  B240  1  0.359450  0.819600  0.217050  1
  B  B241  1  0.890020  0.883200  0.747220  1
  B  B242  1  0.635980  0.142800  0.752780  1
  B  B243  1  0.109980  0.116800  0.252780  1
  B  B244  1  0.364020  0.857200  0.247220  1
  B  B245  1  0.954180  0.878000  0.745580  1
  B  B246  1  0.632420  0.208600  0.754420  1
  B  B247  1  0.045820  0.122000  0.254420  1
  B  B248  1  0.367580  0.791400  0.245580  1
  B  B249  1  0.954150  0.824170  0.759720  1
  B  B250  1  0.564450  0.194430  0.740280  1
  B  B251  1  0.045850  0.175830  0.240280  1
  B  B252  1  0.435550  0.805570  0.259720  1
  B  B253  1  0.010590  0.960200  0.851790  1
  B  B254  1  0.608410  0.158800  0.648210  1
  B  B255  1  0.989410  0.039800  0.148210  1
  B  B256  1  0.391590  0.841200  0.351790  1
  B  B257  1  0.971060  0.979030  0.825890  1
  B  B258  1  0.653140  0.145170  0.674110  1
  B  B259  1  0.028940  0.020970  0.174110  1
  B  B260  1  0.346860  0.854830  0.325890  1
  B  B261  1  0.035820  0.979100  0.823520  1
  B  B262  1  0.655580  0.212300  0.676480  1
  B  B263  1  0.964180  0.020900  0.176480  1
  B  B264  1  0.344420  0.787700  0.323520  1
  B  B265  1  0.041810  0.927100  0.836710  1
  B  B266  1  0.590390  0.205100  0.663290  1
  B  B267  1  0.958190  0.072900  0.163290  1
  B  B268  1  0.409610  0.794900  0.336710  1
  B  B269  1  0.985840  0.893000  0.842240  1
  B  B270  1  0.550760  0.143600  0.657760  1
  B  B271  1  0.014160  0.107000  0.157760  1
  B  B272  1  0.449240  0.856400  0.342240  1
  B  B273  1  0.939830  0.930100  0.838730  1
  B  B274  1  0.591370  0.101100  0.661270  1
  B  B275  1  0.060170  0.069900  0.161270  1
  B  B276  1  0.408630  0.898900  0.338730  1
  B  B277  1  0.923370  0.866700  0.818470  1
  B  B278  1  0.548230  0.104900  0.681530  1
  B  B279  1  0.076630  0.133300  0.181530  1
  B  B280  1  0.451770  0.895100  0.318470  1
  B  B281  1  0.910010  0.919540  0.802550  1
  B  B282  1  0.616990  0.107460  0.697450  1
  B  B283  1  0.089990  0.080460  0.197450  1
  B  B284  1  0.383010  0.892540  0.302550  1
  B  B285  1  0.975120  0.954400  0.794120  1
  B  B286  1  0.660280  0.181000  0.705880  1
  B  B287  1  0.024880  0.045600  0.205880  1
  B  B288  1  0.339720  0.819000  0.294120  1
  B  B289  1  0.203640  0.646340  0.089500  1
  B  B290  1  0.056840  0.114140  0.410500  1
  B  B291  1  0.796360  0.353660  0.910500  1
  B  B292  1  0.943160  0.885860  0.589500  1
  B  B293  1  0.195950  0.703750  0.090800  1
  B  B294  1  0.112950  0.105150  0.409200  1
  B  B295  1  0.804050  0.296250  0.909200  1
  B  B296  1  0.887050  0.894850  0.590800  1
  B  B297  1  0.230950  0.688350  0.119400  1
  B  B298  1  0.068950  0.111550  0.380600  1
  B  B299  1  0.769050  0.311650  0.880600  1
  B  B300  1  0.931050  0.888450  0.619400  1
  B  B301  1  0.271440  0.649340  0.110700  1
  B  B302  1  0.038640  0.160740  0.389300  1
  B  B303  1  0.728560  0.350660  0.889300  1
  B  B304  1  0.961360  0.839260  0.610700  1
  B  B305  1  0.246030  0.642830  0.070000  1
  B  B306  1  0.072830  0.176030  0.430000  1
  B  B307  1  0.753970  0.357170  0.930000  1
  B  B308  1  0.927170  0.823970  0.570000  1
  B  B309  1  0.209360  0.676280  0.063880  1
  B  B310  1  0.112400  0.145480  0.436120  1
  B  B311  1  0.790640  0.323720  0.936120  1
  B  B312  1  0.887600  0.854520  0.563880  1
  B  B313  1  0.244590  0.736470  0.079120  1
  B  B314  1  0.157350  0.165470  0.420880  1
  B  B315  1  0.755410  0.263530  0.920880  1
  B  B316  1  0.842650  0.834530  0.579120  1
  B  B317  1  0.276040  0.708790  0.067050  1
  B  B318  1  0.141740  0.208990  0.432950  1
  B  B319  1  0.723960  0.291210  0.932950  1
  B  B320  1  0.858260  0.791010  0.567050  1
  B  B321  1  0.316020  0.689360  0.093700  1
  B  B322  1  0.095660  0.222320  0.406300  1
  B  B323  1  0.683980  0.310640  0.906300  1
  B  B324  1  0.904340  0.777680  0.593700  1
  B  B325  1  0.439410  0.897810  0.110200  1
  B  B326  1  0.287610  0.329210  0.389800  1
  B  B327  1  0.560590  0.102190  0.889800  1
  B  B328  1  0.712390  0.670790  0.610200  1
  B  B329  1  0.389010  0.896010  0.125400  1
  B  B330  1  0.270610  0.263610  0.374600  1
  B  B331  1  0.610990  0.103990  0.874600  1
  B  B332  1  0.729390  0.736390  0.625400  1
  B  B333  1  0.376230  0.885430  0.090000  1
  B  B334  1  0.295430  0.286230  0.410000  1
  B  B335  1  0.623770  0.114570  0.910000  1
  B  B336  1  0.704570  0.713770  0.590000  1
  B  B337  1  0.413200  0.849700  0.079100  1
  B  B338  1  0.270600  0.334100  0.420900  1
  B  B339  1  0.586800  0.150300  0.920900  1
  B  B340  1  0.729400  0.665900  0.579100  1
  B  B341  1  0.451700  0.838200  0.114700  1
  B  B342  1  0.223500  0.337000  0.385300  1
  B  B343  1  0.548300  0.161800  0.885300  1
  B  B344  1  0.776500  0.663000  0.614700  1
  B  B345  1  0.426640  0.865890  0.136950  1
  B  B346  1  0.228940  0.289690  0.363050  1
  B  B347  1  0.573360  0.134110  0.863050  1
  B  B348  1  0.771060  0.710310  0.636950  1
  B  B349  1  0.392520  0.784480  0.086700  1
  B  B350  1  0.197780  0.305820  0.413300  1
  B  B351  1  0.607480  0.215520  0.913300  1
  B  B352  1  0.802220  0.694180  0.586700  1
  B  B353  1  0.401430  0.798180  0.124050  1
  B  B354  1  0.174130  0.277380  0.375950  1
  B  B355  1  0.598570  0.201820  0.875950  1
  B  B356  1  0.825870  0.722620  0.624050  1
  B  B357  1  0.363280  0.830010  0.129270  1
  B  B358  1  0.200740  0.234010  0.370730  1
  B  B359  1  0.636720  0.169990  0.870730  1
  B  B360  1  0.799260  0.765990  0.629270  1
  B  B361  1  0.496050  0.360300  0.188350  1.0
  B  B362  1  0.671950  0.307700  0.311650  1.0
  B  B363  1  0.503950  0.639700  0.811650  1.0
  B  B364  1  0.328050  0.692300  0.688350  1.0
  B  B365  1  0.528900  0.408200  0.216300  1.0
  B  B366  1  0.691900  0.312600  0.283700  1.0
  B  B367  1  0.471100  0.591800  0.783700  1.0
  B  B368  1  0.308100  0.687400  0.716300  1.0
  B  B369  1  0.569180  0.387800  0.198780  1.0
  B  B370  1  0.689020  0.370400  0.301220  1.0
  B  B371  1  0.430820  0.612200  0.801220  1.0
  B  B372  1  0.310980  0.629600  0.698780  1.0
  B  B373  1  0.530550  0.321200  0.186950  1.0
  B  B374  1  0.634250  0.343600  0.313050  1.0
  B  B375  1  0.469450  0.678800  0.813050  1.0
  B  B376  1  0.365750  0.656400  0.686950  1.0
  B  B377  1  0.472990  0.300600  0.196390  1.0
  B  B378  1  0.604210  0.276600  0.303610  1.0
  B  B379  1  0.527010  0.699400  0.803610  1.0
  B  B380  1  0.395790  0.723400  0.696390  1.0
  B  B381  1  0.476300  0.355000  0.216700  1.0
  B  B382  1  0.638300  0.259600  0.283300  1.0
  B  B383  1  0.523700  0.645000  0.783300  1.0
  B  B384  1  0.361700  0.740400  0.716700  1.0
  B  B385  1  0.535930  0.377520  0.244650  1.0
  B  B386  1  0.632870  0.291280  0.255350  1.0
  B  B387  1  0.464070  0.622480  0.755350  1.0
  B  B388  1  0.367130  0.708720  0.744650  1.0
  B  B389  1  0.592650  0.397800  0.233250  1.0
  B  B390  1  0.664550  0.359400  0.266750  1.0
  B  B391  1  0.407350  0.602200  0.766750  1.0
  B  B392  1  0.335450  0.640600  0.733250  1.0
  B  B393  1  0.593430  0.343600  0.214630  1.0
  B  B394  1  0.628970  0.378800  0.285370  1.0
  B  B395  1  0.406570  0.656400  0.785370  1.0
  B  B396  1  0.371030  0.621200  0.714630  1.0
  B  B397  1  0.024260  0.665200  0.312460  1.0
  B  B398  1  0.852740  0.711800  0.187540  1.0
  B  B399  1  0.975740  0.334800  0.687540  1.0
  B  B400  1  0.147260  0.288200  0.812460  1.0
  B  B401  1  0.037190  0.718400  0.304190  1.0
  B  B402  1  0.914210  0.733000  0.195810  1.0
  B  B403  1  0.962810  0.281600  0.695810  1.0
  B  B404  1  0.085790  0.267000  0.804190  1.0
  B  B405  1  0.044600  0.669700  0.286500  1.0
  B  B406  1  0.883200  0.758100  0.213500  1.0
  B  B407  1  0.955400  0.330300  0.713500  1.0
  B  B408  1  0.116800  0.241900  0.786500  1.0
  B  B409  1  0.990160  0.615800  0.285160  1.0
  B  B410  1  0.830640  0.705000  0.214840  1.0
  B  B411  1  0.009840  0.384200  0.714840  1.0
  B  B412  1  0.169360  0.295000  0.785160  1.0
  B  B413  1  0.953130  0.637400  0.303930  1.0
  B  B414  1  0.833470  0.649200  0.196070  1.0
  B  B415  1  0.046870  0.362600  0.696070  1.0
  B  B416  1  0.166530  0.350800  0.803930  1.0
  B  B417  1  0.982960  0.705900  0.314660  1.0
  B  B418  1  0.891240  0.668300  0.185340  1.0
  B  B419  1  0.017040  0.294100  0.685340  1.0
  B  B420  1  0.108760  0.331700  0.814660  1.0
  B  B421  1  0.979870  0.730400  0.286470  1.0
  B  B422  1  0.943930  0.693400  0.213530  1.0
  B  B423  1  0.020130  0.269600  0.713530  1.0
  B  B424  1  0.056070  0.306600  0.786470  1.0
  B  B425  1  0.922640  0.680150  0.286590  1.0
  B  B426  1  0.893560  0.636050  0.213410  1.0
  B  B427  1  0.077360  0.319850  0.713410  1.0
  B  B428  1  0.106440  0.363950  0.786590  1.0
  B  B429  1  0.928200  0.621110  0.268090  1.0
  B  B430  1  0.853020  0.660110  0.231910  1.0
  B  B431  1  0.071800  0.378890  0.731910  1.0
  B  B432  1  0.146980  0.339890  0.768090  1.0
  C  C433  1  0.445690  0.661890  0.306600  1
  C  C434  1  0.855290  0.139090  0.193400  1
  C  C435  1  0.554310  0.338110  0.693400  1
  C  C436  1  0.144710  0.860910  0.806600  1
  C  C437  1  0.908230  0.637300  0.802530  1
  C  C438  1  0.334770  0.105700  0.697470  1
  C  C439  1  0.091770  0.362700  0.197470  1
  C  C440  1  0.665230  0.894300  0.302530  1
  C  C441  1  0.113600  0.516800  0.310000  1
  C  C442  1  0.706800  0.803600  0.190000  1
  C  C443  1  0.886400  0.483200  0.690000  1
  C  C444  1  0.293200  0.196400  0.810000  1
  C  C445  1  0.408200  0.507800  0.194800  1
  C  C446  1  0.813000  0.213400  0.305200  1
  C  C447  1  0.591800  0.492200  0.805200  1
  C  C448  1  0.187000  0.786600  0.694800  1
  C  C449  1  0.156900  0.307300  0.121800  1
  C  C450  1  0.685500  0.035100  0.378200  1
  C  C451  1  0.843100  0.692700  0.878200  1
  C  C452  1  0.314500  0.964900  0.621800  1
  C  C453  1  0.177000  0.406600  0.137800  1
  C  C454  1  0.768800  0.039200  0.362200  1
  C  C455  1  0.823000  0.593400  0.862200  1
  C  C456  1  0.231200  0.960800  0.637800  1
  C  C457  1  0.244500  0.367800  0.170100  1
  C  C458  1  0.697700  0.074400  0.329900  1
  C  C459  1  0.755500  0.632200  0.829900  1
  C  C460  1  0.302300  0.925600  0.670100  1
  C  C461  1  0.253900  0.254800  0.122700  1
  C  C462  1  0.632100  0.131200  0.377300  1
  C  C463  1  0.746100  0.745200  0.877300  1
  C  C464  1  0.367900  0.868800  0.622700  1
  C  C465  1  0.325900  0.293100  0.098800  1
  C  C466  1  0.694300  0.227100  0.401200  1
  C  C467  1  0.674100  0.706900  0.901200  1
  C  C468  1  0.305700  0.772900  0.598800  1
  C  C469  1  0.353900  0.337300  0.146800  1
  C  C470  1  0.690500  0.207100  0.353200  1
  C  C471  1  0.646100  0.662700  0.853200  1
  C  C472  1  0.309500  0.792900  0.646800  1
  C  C473  1  0.486500  0.229300  0.814000  1
  C  C474  1  0.915300  0.672500  0.686000  1
  C  C475  1  0.513500  0.770700  0.186000  1
  C  C476  1  0.084700  0.327500  0.314000  1
  C  C477  1  0.501500  0.294300  0.859800  1
  C  C478  1  0.934500  0.641700  0.640200  1
  C  C479  1  0.498500  0.705700  0.140200  1
  C  C480  1  0.065500  0.358300  0.359800  1
  C  C481  1  0.572200  0.326300  0.831700  1
  C  C482  1  0.994600  0.740500  0.668300  1
  C  C483  1  0.427800  0.673700  0.168300  1
  C  C484  1  0.005400  0.259500  0.331700  1
  C  C485  1  0.393100  0.246800  0.755700  1
  C  C486  1  0.991100  0.637400  0.744300  1
  C  C487  1  0.606900  0.753200  0.244300  1
  C  C488  1  0.008900  0.362600  0.255700  1
  C  C489  1  0.428900  0.346100  0.745400  1
  C  C490  1  0.100700  0.683500  0.754600  1
  C  C491  1  0.571100  0.653900  0.254600  1
  C  C492  1  0.899300  0.316500  0.245400  1
  C  C493  1  0.508100  0.305600  0.765100  1
  C  C494  1  0.040500  0.743000  0.734900  1
  C  C495  1  0.491900  0.694400  0.234900  1
  C  C496  1  0.959500  0.257000  0.265100  1
  C  C497  1  0.453200  0.064500  0.807100  1
  C  C498  1  0.757400  0.646100  0.692900  1
  C  C499  1  0.546800  0.935500  0.192900  1
  C  C500  1  0.242600  0.353900  0.307100  1
  C  C501  1  0.398870  0.061000  0.845270  1
  C  C502  1  0.715730  0.553600  0.654730  1
  C  C503  1  0.601130  0.939000  0.154730  1
  C  C504  1  0.284270  0.446400  0.345270  1
  C  C505  1  0.337700  0.055200  0.792900  1
  C  C506  1  0.762300  0.544800  0.707100  1
  C  C507  1  0.662300  0.944800  0.207100  1
  C  C508  1  0.237700  0.455200  0.292900  1
  C  C509  1  0.345900  0.871900  0.746400  1
  C  C510  1  0.625500  0.599500  0.753600  1
  C  C511  1  0.654100  0.128100  0.253600  1
  C  C512  1  0.374500  0.400500  0.246400  1
  C  C513  1  0.388100  0.979100  0.748000  1
  C  C514  1  0.731100  0.640100  0.752000  1
  C  C515  1  0.611900  0.020900  0.252000  1
  C  C516  1  0.268900  0.359900  0.248000  1
  C  C517  1  0.276700  0.935400  0.745700  1
  C  C518  1  0.689700  0.531000  0.754300  1
  C  C519  1  0.723300  0.064600  0.254300  1
  C  C520  1  0.310300  0.469000  0.245700  1
  C  C521  1  0.154800  0.051400  0.067600  1
  C  C522  1  0.483800  0.087200  0.432400  1
  C  C523  1  0.845200  0.948600  0.932400  1
  C  C524  1  0.516200  0.912800  0.567600  1
  C  C525  1  0.069400  0.039000  0.086200  1
  C  C526  1  0.452800  0.983200  0.413800  1
  C  C527  1  0.930600  0.961000  0.913800  1
  C  C528  1  0.547200  0.016800  0.586200  1
  C  C529  1  0.163830  0.031900  0.122530  1
  C  C530  1  0.409370  0.041300  0.377470  1
  C  C531  1  0.836170  0.968100  0.877470  1
  C  C532  1  0.590630  0.958700  0.622530  1
  C  C533  1  0.004900  0.833700  0.089800  1
  C  C534  1  0.243900  0.915100  0.410200  1
  C  C535  1  0.995100  0.166300  0.910200  1
  C  C536  1  0.756100  0.084900  0.589800  1
  C  C537  1  0.039200  0.932900  0.121700  1
  C  C538  1  0.311200  0.917500  0.378300  1
  C  C539  1  0.960800  0.067100  0.878300  1
  C  C540  1  0.688800  0.082500  0.621700  1
  C  C541  1  0.970400  0.914600  0.068400  1
  C  C542  1  0.346200  0.902000  0.431600  1
  C  C543  1  0.029600  0.085400  0.931600  1
  C  C544  1  0.653800  0.098000  0.568400  1
  C  C545  1  0.786500  0.771500  0.080600  1
  C  C546  1  0.190900  0.705900  0.419400  1
  C  C547  1  0.213500  0.228500  0.919400  1
  C  C548  1  0.809100  0.294100  0.580600  1
  C  C549  1  0.805800  0.800900  0.137700  1
  C  C550  1  0.163200  0.668100  0.362300  1
  C  C551  1  0.194200  0.199100  0.862300  1
  C  C552  1  0.836800  0.331900  0.637700  1
  C  C553  1  0.857000  0.863700  0.107900  1
  C  C554  1  0.255800  0.749100  0.392100  1
  C  C555  1  0.143000  0.136300  0.892100  1
  C  C556  1  0.744200  0.250900  0.607900  1
  C  C557  1  0.813900  0.925300  0.160400  1
  C  C558  1  0.264900  0.653500  0.339600  1
  C  C559  1  0.186100  0.074700  0.839600  1
  C  C560  1  0.735100  0.346500  0.660400  1
  C  C561  1  0.821000  0.978400  0.114600  1
  C  C562  1  0.363800  0.706400  0.385400  1
  C  C563  1  0.179000  0.021600  0.885400  1
  C  C564  1  0.636200  0.293600  0.614600  1
  C  C565  1  0.736980  0.967020  0.136400  1
  C  C566  1  0.330620  0.600580  0.363600  1
  C  C567  1  0.263020  0.032980  0.863600  1
  C  C568  1  0.669380  0.399420  0.636400  1
  C  C569  1  0.845560  0.367740  0.740300  1
  C  C570  1  0.127440  0.105260  0.759700  1
  C  C571  1  0.154440  0.632260  0.259700  1
  C  C572  1  0.872560  0.894740  0.240300  1
  C  C573  1  0.778400  0.431800  0.736200  1
  C  C574  1  0.195600  0.042200  0.763800  1
  C  C575  1  0.221600  0.568200  0.263800  1
  C  C576  1  0.804400  0.957800  0.236200  1
  C  C577  1  0.741640  0.328740  0.743500  1
  C  C578  1  0.085240  0.998140  0.756500  1
  C  C579  1  0.258360  0.671260  0.256500  1
  C  C580  1  0.914760  0.001860  0.243500  1
  C  C581  1  0.721300  0.336700  0.806600  1
  C  C582  1  0.030100  0.914700  0.693400  1
  C  C583  1  0.278700  0.663300  0.193400  1
  C  C584  1  0.969900  0.085300  0.306600  1
  C  C585  1  0.764890  0.438000  0.838690  1
  C  C586  1  0.099310  0.926200  0.661310  1
  C  C587  1  0.235110  0.562000  0.161310  1
  C  C588  1  0.900690  0.073800  0.338690  1
  C  C589  1  0.712200  0.425800  0.784000  1
  C  C590  1  0.141800  0.928200  0.716000  1
  C  C591  1  0.287800  0.574200  0.216000  1
  C  C592  1  0.858200  0.071800  0.284000  1
  C  C593  1  0.451710  0.504110  0.960460  1
  C  C594  1  0.043650  0.491250  0.539540  1
  C  C595  1  0.548290  0.495890  0.039540  1
  C  C596  1  0.956350  0.508750  0.460460  1
  C  C597  1  0.489040  0.555740  0.968800  1
  C  C598  1  0.086940  0.520240  0.531200  1
  C  C599  1  0.510960  0.444260  0.031200  1
  C  C600  1  0.913060  0.479760  0.468800  1
  C  C601  1  0.488880  0.574760  0.998520  1
  C  C602  1  0.076240  0.490360  0.501480  1
  C  C603  1  0.511120  0.425240  0.001480  1
  C  C604  1  0.923760  0.509640  0.498520  1
  C  C605  1  0.456630  0.549990  0.010640  1
  C  C606  1  0.039350  0.445990  0.489360  1
  C  C607  1  0.543370  0.450010  0.989360  1
  C  C608  1  0.960650  0.554010  0.510640  1
  C  C609  1  0.424260  0.504440  0.001060  1
  C  C610  1  0.003380  0.423200  0.498940  1
  C  C611  1  0.575740  0.495560  0.998940  1
  C  C612  1  0.996620  0.576800  0.501060  1
  C  C613  1  0.418440  0.477000  0.972780  1
  C  C614  1  0.004220  0.445660  0.527220  1
  C  C615  1  0.581560  0.523000  0.027220  1
  C  C616  1  0.995780  0.554340  0.472780  1
  C  C617  1  0.448860  0.475850  0.936270  1
  C  C618  1  0.039580  0.512590  0.563730  1
  C  C619  1  0.551140  0.524150  0.063730  1
  C  C620  1  0.960420  0.487410  0.436270  1
  C  C621  1  0.449670  0.455220  0.913950  1
  C  C622  1  0.041270  0.535720  0.586050  1
  C  C623  1  0.550330  0.544780  0.086050  1
  C  C624  1  0.958730  0.464280  0.413950  1
  C  C625  1  0.452590  0.427550  0.892300  1
  C  C626  1  0.035250  0.560290  0.607700  1
  C  C627  1  0.547410  0.572450  0.107700  1
  C  C628  1  0.964750  0.439710  0.392300  1
  C  C629  1  0.414120  0.380920  0.880060  1
  C  C630  1  0.000860  0.534060  0.619940  1
  C  C631  1  0.585880  0.619080  0.119940  1
  C  C632  1  0.999140  0.465940  0.380060  1
  C  C633  1  0.415530  0.352020  0.856670  1
  C  C634  1  0.995350  0.558860  0.643330  1
  C  C635  1  0.584470  0.647980  0.143330  1
  C  C636  1  0.004650  0.441140  0.356670  1
  C  C637  1  0.490030  0.419010  0.855180  1
  C  C638  1  0.063830  0.634850  0.644820  1
  C  C639  1  0.509970  0.580990  0.144820  1
  C  C640  1  0.936170  0.365150  0.355180  1
  C  C641  1  0.486910  0.446900  0.881470  1
  C  C642  1  0.065430  0.605440  0.618530  1
  C  C643  1  0.513090  0.553100  0.118530  1
  C  C644  1  0.934570  0.394560  0.381470  1
  C  C645  1  0.532230  0.623070  0.009080  1
  C  C646  1  0.113990  0.523150  0.490920  1
  C  C647  1  0.467770  0.376930  0.990920  1
  C  C648  1  0.886010  0.476850  0.509080  1
  C  C649  1  0.563130  0.658910  0.024540  1
  C  C650  1  0.134370  0.538590  0.475460  1
  C  C651  1  0.436870  0.341090  0.975460  1
  C  C652  1  0.865630  0.461410  0.524540  1
  C  C653  1  0.605720  0.709470  0.038050  1
  C  C654  1  0.171420  0.567670  0.461950  1
  C  C655  1  0.394280  0.290530  0.961950  1
  C  C656  1  0.828580  0.432330  0.538050  1
  C  C657  1  0.631810  0.742890  0.030480  1
  C  C658  1  0.212410  0.601330  0.469520  1
  C  C659  1  0.368190  0.257110  0.969520  1
  C  C660  1  0.787590  0.398670  0.530480  1
  C  C661  1  0.667680  0.786890  0.046530  1
  C  C662  1  0.240360  0.621150  0.453470  1
  C  C663  1  0.332320  0.213110  0.953470  1
  C  C664  1  0.759640  0.378850  0.546530  1
  C  C665  1  0.650760  0.757040  0.082160  1
  C  C666  1  0.174880  0.568600  0.417840  1
  C  C667  1  0.349240  0.242960  0.917840  1
  C  C668  1  0.825120  0.431400  0.582160  1
  C  C669  1  0.609140  0.711210  0.066390  1
  C  C670  1  0.144820  0.542750  0.433610  1
  C  C671  1  0.390860  0.288790  0.933610  1
  C  C672  1  0.855180  0.457250  0.566390  1
  C  C673  1  0.395870  0.475000  0.014010  1
  C  C674  1  0.960990  0.381860  0.485990  1
  C  C675  1  0.604130  0.525000  0.985990  1
  C  C676  1  0.039010  0.618140  0.514010  1
  C  C677  1  0.371710  0.451050  0.027700  1
  C  C678  1  0.923350  0.344010  0.472300  1
  C  C679  1  0.628290  0.548950  0.972300  1
  C  C680  1  0.076650  0.655990  0.527700  1
  C  C681  1  0.342940  0.429220  0.045380  1
  C  C682  1  0.883840  0.297560  0.454620  1
  C  C683  1  0.657060  0.570780  0.954620  1
  C  C684  1  0.116160  0.702440  0.545380  1
  C  C685  1  0.370010  0.462500  0.076750  1
  C  C686  1  0.885750  0.293260  0.423250  1
  C  C687  1  0.629990  0.537500  0.923250  1
  C  C688  1  0.114250  0.706740  0.576750  1
  C  C689  1  0.340370  0.433000  0.090130  1
  C  C690  1  0.842870  0.250240  0.409870  1
  C  C691  1  0.659630  0.567000  0.909870  1
  C  C692  1  0.157130  0.749760  0.590130  1
  C  C693  1  0.277000  0.365600  0.058280  1
  C  C694  1  0.807320  0.218720  0.441720  1
  C  C695  1  0.723000  0.634400  0.941720  1
  C  C696  1  0.192680  0.781280  0.558280  1
  C  C697  1  0.307280  0.388690  0.040730  1
  C  C698  1  0.847960  0.266550  0.459270  1
  C  C699  1  0.692720  0.611310  0.959270  1
  C  C700  1  0.152040  0.733450  0.540730  1
  C  C701  1  0.159380  0.533600  0.784860  1
  C  C702  1  0.248740  0.374520  0.715140  1
  C  C703  1  0.840620  0.466400  0.215140  1
  C  C704  1  0.751260  0.625480  0.284860  1
  C  C705  1  0.177480  0.585370  0.785290  1
  C  C706  1  0.300080  0.392190  0.714710  1
  C  C707  1  0.822520  0.414630  0.214710  1
  C  C708  1  0.699920  0.607810  0.285290  1
  C  C709  1  0.232570  0.607120  0.786230  1
  C  C710  1  0.320890  0.446340  0.713770  1
  C  C711  1  0.767430  0.392880  0.213770  1
  C  C712  1  0.679110  0.553660  0.286230  1
  C  C713  1  0.265080  0.577060  0.785420  1
  C  C714  1  0.291640  0.479660  0.714580  1
  C  C715  1  0.734920  0.422940  0.214580  1
  C  C716  1  0.708360  0.520340  0.285420  1
  C  C717  1  0.241490  0.524710  0.784640  1
  C  C718  1  0.240070  0.456850  0.715360  1
  C  C719  1  0.758510  0.475290  0.215360  1
  C  C720  1  0.759930  0.543150  0.284640  1
  C  C721  1  0.188590  0.501220  0.784290  1
  C  C722  1  0.216930  0.404300  0.715710  1
  C  C723  1  0.811410  0.498780  0.215710  1
  C  C724  1  0.783070  0.595700  0.284290  1
  C  C725  1  0.104950  0.511760  0.786030  1
  C  C726  1  0.225730  0.318920  0.713970  1
  C  C727  1  0.895050  0.488240  0.213970  1
  C  C728  1  0.774270  0.681080  0.286030  1
  C  C729  1  0.062080  0.492410  0.787370  1
  C  C730  1  0.205040  0.274710  0.712630  1
  C  C731  1  0.937920  0.507590  0.212630  1
  C  C732  1  0.794960  0.725290  0.287370  1
  C  C733  1  0.011550  0.474940  0.789150  1
  C  C734  1  0.185790  0.222400  0.710850  1
  C  C735  1  0.988450  0.525060  0.210850  1
  C  C736  1  0.814210  0.777600  0.289150  1
  C  C737  1  0.997540  0.431170  0.798950  1
  C  C738  1  0.132220  0.198590  0.701050  1
  C  C739  1  0.002460  0.568830  0.201050  1
  C  C740  1  0.867780  0.801410  0.298950  1
  C  C741  1  0.944850  0.412450  0.801580  1
  C  C742  1  0.110870  0.143270  0.698420  1
  C  C743  1  0.055150  0.587550  0.198420  1
  C  C744  1  0.889130  0.856730  0.301580  1
  C  C745  1  0.925600  0.482700  0.783760  1
  C  C746  1  0.198940  0.141840  0.716240  1
  C  C747  1  0.074400  0.517300  0.216240  1
  C  C748  1  0.801060  0.858160  0.283760  1
  C  C749  1  0.974860  0.500520  0.781320  1
  C  C750  1  0.219200  0.193540  0.718680  1
  C  C751  1  0.025140  0.499480  0.218680  1
  C  C752  1  0.780800  0.806460  0.281320  1
  C  C753  1  0.252160  0.659410  0.787230  1
  C  C754  1  0.372180  0.464930  0.712770  1
  C  C755  1  0.747840  0.340590  0.212770  1
  C  C756  1  0.627820  0.535070  0.287230  1
  C  C757  1  0.270280  0.706360  0.791020  1
  C  C758  1  0.415340  0.479260  0.708980  1
  C  C759  1  0.729720  0.293640  0.208980  1
  C  C760  1  0.584660  0.520740  0.291020  1
  C  C761  1  0.292090  0.759260  0.794870  1
  C  C762  1  0.464390  0.497220  0.705130  1
  C  C763  1  0.707910  0.240740  0.205130  1
  C  C764  1  0.535610  0.502780  0.294870  1
  C  C765  1  0.257330  0.788560  0.789730  1
  C  C766  1  0.498830  0.467600  0.710270  1
  C  C767  1  0.742670  0.211440  0.210270  1
  C  C768  1  0.501170  0.532400  0.289730  1
  C  C769  1  0.281010  0.844610  0.793980  1
  C  C770  1  0.550630  0.487030  0.706020  1
  C  C771  1  0.718990  0.155390  0.206020  1
  C  C772  1  0.449370  0.512970  0.293980  1
  C  C773  1  0.365580  0.838500  0.806620  1
  C  C774  1  0.531880  0.558960  0.693380  1
  C  C775  1  0.634420  0.161500  0.193380  1
  C  C776  1  0.468120  0.441040  0.306620  1
  C  C777  1  0.344650  0.784300  0.802410  1
  C  C778  1  0.481890  0.542240  0.697590  1
  C  C779  1  0.655350  0.215700  0.197590  1
  C  C780  1  0.518110  0.457760  0.302410  1
  C  C781  1  0.275110  0.495350  0.785140  1
  C  C782  1  0.210210  0.489970  0.714860  1
  C  C783  1  0.724890  0.504650  0.214860  1
  C  C784  1  0.789790  0.510030  0.285140  1
  C  C785  1  0.301220  0.469570  0.785150  1
  C  C786  1  0.184420  0.516070  0.714850  1
  C  C787  1  0.698780  0.530430  0.214850  1
  C  C788  1  0.815580  0.483930  0.285150  1
  C  C789  1  0.334630  0.436520  0.788070  1
  C  C790  1  0.148450  0.546560  0.711930  1
  C  C791  1  0.665370  0.563480  0.211930  1
  C  C792  1  0.851550  0.453440  0.288070  1
  C  C793  1  0.387180  0.457740  0.789640  1
  C  C794  1  0.168100  0.597540  0.710360  1
  C  C795  1  0.612820  0.542260  0.210360  1
  C  C796  1  0.831900  0.402460  0.289640  1
  C  C797  1  0.419090  0.428850  0.794620  1
  C  C798  1  0.134230  0.624470  0.705380  1
  C  C799  1  0.580910  0.571150  0.205380  1
  C  C800  1  0.865770  0.375530  0.294620  1
  C  C801  1  0.345090  0.355340  0.794030  1
  C  C802  1  0.061310  0.551060  0.705970  1
  C  C803  1  0.654910  0.644660  0.205970  1
  C  C804  1  0.938690  0.448940  0.294030  1
  C  C805  1  0.314030  0.383500  0.788350  1
  C  C806  1  0.095150  0.525680  0.711650  1
  C  C807  1  0.685970  0.616500  0.211650  1
  C  C808  1  0.904850  0.474320  0.288350  1
  C  C809  1  0.451720  0.936060  0.018280  1
  C  C810  1  0.417780  0.433440  0.481720  1
  C  C811  1  0.548280  0.063940  0.981720  1
  C  C812  1  0.582220  0.566560  0.518280  1
  C  C813  1  0.452290  0.940440  0.992130  1
  C  C814  1  0.448310  0.460160  0.507870  1
  C  C815  1  0.547710  0.059560  0.007870  1
  C  C816  1  0.551690  0.539840  0.492130  1
  C  C817  1  0.404860  0.946600  0.975780  1
  C  C818  1  0.470820  0.429080  0.524220  1
  C  C819  1  0.595140  0.053400  0.024220  1
  C  C820  1  0.529180  0.570920  0.475780  1
  C  C821  1  0.362070  0.949840  0.984790  1
  C  C822  1  0.465050  0.377280  0.515210  1
  C  C823  1  0.637930  0.050160  0.015210  1
  C  C824  1  0.534950  0.622720  0.484790  1
  C  C825  1  0.366580  0.945780  0.010240  1
  C  C826  1  0.435540  0.356340  0.489760  1
  C  C827  1  0.633420  0.054220  0.989760  1
  C  C828  1  0.564460  0.643660  0.510240  1
  C  C829  1  0.413270  0.941300  0.028570  1
  C  C830  1  0.412730  0.384700  0.471430  1
  C  C831  1  0.586730  0.058700  0.971430  1
  C  C832  1  0.587270  0.615300  0.528570  1
  C  C833  1  0.500610  0.929990  0.035420  1
  C  C834  1  0.394570  0.465190  0.464580  1
  C  C835  1  0.499390  0.070010  0.964580  1
  C  C836  1  0.605430  0.534810  0.535420  1
  C  C837  1  0.536630  0.920770  0.049540  1
  C  C838  1  0.371230  0.487090  0.450460  1
  C  C839  1  0.463370  0.079230  0.950460  1
  C  C840  1  0.628770  0.512910  0.549540  1
  C  C841  1  0.581240  0.912410  0.062650  1
  C  C842  1  0.349760  0.518590  0.437350  1
  C  C843  1  0.418760  0.087590  0.937350  1
  C  C844  1  0.650240  0.481410  0.562650  1
  C  C845  1  0.581870  0.887100  0.082790  1
  C  C846  1  0.304310  0.499080  0.417210  1
  C  C847  1  0.418130  0.112900  0.917210  1
  C  C848  1  0.695690  0.500920  0.582790  1
  C  C849  1  0.626590  0.873540  0.094950  1
  C  C850  1  0.278590  0.531640  0.405050  1
  C  C851  1  0.373410  0.126460  0.905050  1
  C  C852  1  0.721410  0.468360  0.594950  1
  C  C853  1  0.670790  0.913940  0.067710  1
  C  C854  1  0.346230  0.603080  0.432290  1
  C  C855  1  0.329210  0.086060  0.932290  1
  C  C856  1  0.653770  0.396920  0.567710  1
  C  C857  1  0.626350  0.926510  0.054260  1
  C  C858  1  0.372250  0.572090  0.445740  1
  C  C859  1  0.373650  0.073490  0.945740  1
  C  C860  1  0.627750  0.427910  0.554260  1
  C  C861  1  0.400120  0.944840  0.948040  1
  C  C862  1  0.496800  0.452080  0.551960  1
  C  C863  1  0.599880  0.055160  0.051960  1
  C  C864  1  0.503200  0.547920  0.448040  1
  C  C865  1  0.398360  0.947890  0.925510  1
  C  C866  1  0.522380  0.472850  0.574490  1
  C  C867  1  0.601640  0.052110  0.074490  1
  C  C868  1  0.477620  0.527150  0.425510  1
  C  C869  1  0.390980  0.947660  0.898420  1
  C  C870  1  0.549240  0.492560  0.601580  1
  C  C871  1  0.609020  0.052340  0.101580  1
  C  C872  1  0.450760  0.507440  0.398420  1
  C  C873  1  0.433560  0.953930  0.888590  1
  C  C874  1  0.565340  0.544970  0.611410  1
  C  C875  1  0.566440  0.046070  0.111410  1
  C  C876  1  0.434660  0.455030  0.388590  1
  C  C877  1  0.425440  0.955090  0.861730  1
  C  C878  1  0.593360  0.563710  0.638270  1
  C  C879  1  0.574560  0.044910  0.138270  1
  C  C880  1  0.406640  0.436290  0.361730  1
  C  C881  1  0.334630  0.942880  0.855630  1
  C  C882  1  0.587250  0.479000  0.644370  1
  C  C883  1  0.665370  0.057120  0.144370  1
  C  C884  1  0.412750  0.521000  0.355630  1
  C  C885  1  0.340360  0.940410  0.882430  1
  C  C886  1  0.557980  0.457930  0.617570  1
  C  C887  1  0.659640  0.059590  0.117570  1
  C  C888  1  0.442020  0.542070  0.382430  1
  C  C889  1  0.325070  0.948940  0.020330  1
  C  C890  1  0.428610  0.304740  0.479670  1
  C  C891  1  0.674930  0.051060  0.979670  1
  C  C892  1  0.571390  0.695260  0.520330  1
  C  C893  1  0.290400  0.948570  0.029690  1
  C  C894  1  0.418880  0.260710  0.470310  1
  C  C895  1  0.709600  0.051430  0.970310  1
  C  C896  1  0.581120  0.739290  0.529690  1
  C  C897  1  0.247050  0.945650  0.039520  1
  C  C898  1  0.406130  0.207530  0.460480  1
  C  C899  1  0.752950  0.054350  0.960480  1
  C  C900  1  0.593870  0.792470  0.539520  1
  C  C901  1  0.199670  0.945530  0.022680  1
  C  C902  1  0.422850  0.176990  0.477320  1
  C  C903  1  0.800330  0.054470  0.977320  1
  C  C904  1  0.577150  0.823010  0.522680  1
  C  C905  1  0.158110  0.942610  0.033500  1
  C  C906  1  0.409110  0.124610  0.466500  1
  C  C907  1  0.841890  0.057390  0.966500  1
  C  C908  1  0.590890  0.875390  0.533500  1
  C  C909  1  0.209920  0.942320  0.074880  1
  C  C910  1  0.367440  0.135040  0.425120  1
  C  C911  1  0.790080  0.057680  0.925120  1
  C  C912  1  0.632560  0.864960  0.574880  1
  C  C913  1  0.252340  0.943060  0.066220  1
  C  C914  1  0.376840  0.186120  0.433780  1
  C  C915  1  0.747660  0.056940  0.933780  1
  C  C916  1  0.623160  0.813880  0.566220  1
  C  C917  1  0.077600  0.535470  0.009550  1
  C  C918  1  0.025920  0.068050  0.490450  1
  C  C919  1  0.922400  0.464530  0.990450  1
  C  C920  1  0.974080  0.931950  0.509550  1
  C  C921  1  0.048430  0.509840  0.983510  1
  C  C922  1  0.026330  0.064920  0.516490  1
  C  C923  1  0.951570  0.490160  0.016490  1
  C  C924  1  0.973670  0.935080  0.483510  1
  C  C925  1  0.021390  0.536130  0.968400  1
  C  C926  1  0.067730  0.052990  0.531600  1
  C  C927  1  0.978610  0.463870  0.031600  1
  C  C928  1  0.932270  0.947010  0.468400  1
  C  C929  1  0.019240  0.583470  0.976310  1
  C  C930  1  0.107160  0.042930  0.523690  1
  C  C931  1  0.980760  0.416530  0.023690  1
  C  C932  1  0.892840  0.957070  0.476310  1
  C  C933  1  0.053150  0.607430  0.002260  1
  C  C934  1  0.105170  0.050890  0.497740  1
  C  C935  1  0.946850  0.392570  0.997740  1
  C  C936  1  0.894830  0.949110  0.502260  1
  C  C937  1  0.078760  0.584200  0.018260  1
  C  C938  1  0.065940  0.060500  0.481740  1
  C  C939  1  0.921240  0.415800  0.981740  1
  C  C940  1  0.934060  0.939500  0.518260  1
  C  C941  1  0.104570  0.509080  0.026310  1
  C  C942  1  0.982770  0.078260  0.473690  1
  C  C943  1  0.895430  0.490920  0.973690  1
  C  C944  1  0.017230  0.921740  0.526310  1
  C  C945  1  0.126250  0.490060  0.041210  1
  C  C946  1  0.948850  0.085040  0.458790  1
  C  C947  1  0.873750  0.509940  0.958790  1
  C  C948  1  0.051150  0.914960  0.541210  1
  C  C949  1  0.156670  0.465750  0.057540  1
  C  C950  1  0.908210  0.099130  0.442460  1
  C  C951  1  0.843330  0.534250  0.942460  1
  C  C952  1  0.091790  0.900870  0.557540  1
  C  C953  1  0.203000  0.492920  0.079520  1
  C  C954  1  0.913400  0.123480  0.420480  1
  C  C955  1  0.797000  0.507080  0.920480  1
  C  C956  1  0.086600  0.876520  0.579520  1
  C  C957  1  0.230560  0.463790  0.095250  1
  C  C958  1  0.868540  0.135310  0.404750  1
  C  C959  1  0.769440  0.536210  0.904750  1
  C  C960  1  0.131460  0.864690  0.595250  1
  C  C961  1  0.171040  0.385720  0.070760  1
  C  C962  1  0.814960  0.100280  0.429240  1
  C  C963  1  0.828960  0.614280  0.929240  1
  C  C964  1  0.185040  0.899720  0.570760  1
  C  C965  1  0.139300  0.414420  0.054160  1
  C  C966  1  0.860260  0.085140  0.445840  1
  C  C967  1  0.860700  0.585580  0.945840  1
  C  C968  1  0.139740  0.914860  0.554160  1
  C  C969  1  0.989320  0.511760  0.940880  1
  C  C970  1  0.070880  0.048440  0.559120  1
  C  C971  1  0.010680  0.488240  0.059120  1
  C  C972  1  0.929120  0.951560  0.440880  1
  C  C973  1  0.962730  0.492870  0.919080  1
  C  C974  1  0.073790  0.043650  0.580920  1
  C  C975  1  0.037270  0.507130  0.080920  1
  C  C976  1  0.926210  0.956350  0.419080  1
  C  C977  1  0.929900  0.474100  0.890540  1
  C  C978  1  0.083560  0.039360  0.609460  1
  C  C979  1  0.070100  0.525900  0.109460  1
  C  C980  1  0.916440  0.960640  0.390540  1
  C  C981  1  0.910770  0.422510  0.881660  1
  C  C982  1  0.040850  0.029110  0.618340  1
  C  C983  1  0.089230  0.577490  0.118340  1
  C  C984  1  0.959150  0.970890  0.381660  1
  C  C985  1  0.880980  0.406180  0.853960  1
  C  C986  1  0.052220  0.027020  0.646040  1
  C  C987  1  0.119020  0.593820  0.146040  1
  C  C988  1  0.947780  0.972980  0.353960  1
  C  C989  1  0.896520  0.489800  0.848280  1
  C  C990  1  0.141520  0.048240  0.651720  1
  C  C991  1  0.103480  0.510200  0.151720  1
  C  C992  1  0.858480  0.951760  0.348280  1
  C  C993  1  0.924490  0.509090  0.875880  1
  C  C994  1  0.133210  0.048610  0.624120  1
  C  C995  1  0.075510  0.490910  0.124120  1
  C  C996  1  0.866790  0.951390  0.375880  1
  C  C997  1  0.055430  0.658670  0.012060  1
  C  C998  1  0.146610  0.043370  0.487940  1
  C  C999  1  0.944570  0.341330  0.987940  1
  C  C1000  1  0.853390  0.956630  0.512060  1
  C  C1001  1  0.059760  0.702840  0.021000  1
  C  C1002  1  0.181840  0.038760  0.479000  1
  C  C1003  1  0.940240  0.297160  0.979000  1
  C  C1004  1  0.818160  0.961240  0.521000  1
  C  C1005  1  0.065530  0.753430  0.031400  1
  C  C1006  1  0.222030  0.034130  0.468600  1
  C  C1007  1  0.934470  0.246570  0.968600  1
  C  C1008  1  0.777970  0.965870  0.531400  1
  C  C1009  1  0.040710  0.781260  0.018270  1
  C  C1010  1  0.262990  0.022440  0.481730  1
  C  C1011  1  0.959290  0.218740  0.981730  1
  C  C1012  1  0.737010  0.977560  0.518270  1
  C  C1013  1  0.050480  0.832970  0.028850  1
  C  C1014  1  0.304120  0.021630  0.471150  1
  C  C1015  1  0.949520  0.167030  0.971150  1
  C  C1016  1  0.695880  0.978370  0.528850  1
  C  C1017  1  0.109390  0.824730  0.068340  1
  C  C1018  1  0.256390  0.041050  0.431660  1
  C  C1019  1  0.890610  0.175270  0.931660  1
  C  C1020  1  0.743610  0.958950  0.568340  1
  C  C1021  1  0.102320  0.773490  0.056370  1
  C  C1022  1  0.217120  0.045950  0.443630  1
  C  C1023  1  0.897680  0.226510  0.943630  1
  C  C1024  1  0.782880  0.954050  0.556370  1
  C  C1025  1  0.789550  0.091470  0.809540  1
  C  C1026  1  0.781930  0.980010  0.690460  1
  C  C1027  1  0.210450  0.908530  0.190460  1
  C  C1028  1  0.218070  0.019990  0.309540  1
  C  C1029  1  0.748070  0.123850  0.812140  1
  C  C1030  1  0.811710  0.935930  0.687860  1
  C  C1031  1  0.251930  0.876150  0.187860  1
  C  C1032  1  0.188290  0.064070  0.312140  1
  C  C1033  1  0.812590  0.177210  0.778140  1
  C  C1034  1  0.899070  0.034450  0.721860  1
  C  C1035  1  0.187410  0.822790  0.221860  1
  C  C1036  1  0.100930  0.965550  0.278140  1
  C  C1037  1  0.870320  0.169750  0.793610  1
  C  C1038  1  0.876140  0.076710  0.706390  1
  C  C1039  1  0.129680  0.830250  0.206390  1
  C  C1040  1  0.123860  0.923290  0.293610  1
  C  C1041  1  0.429790  0.231580  0.372570  1
  C  C1042  1  0.359010  0.057220  0.127430  1
  C  C1043  1  0.570210  0.768420  0.627430  1
  C  C1044  1  0.640990  0.942780  0.872570  1
  C  C1045  1  0.474320  0.288240  0.371960  1
  C  C1046  1  0.416280  0.102360  0.128040  1
  C  C1047  1  0.525680  0.711760  0.628040  1
  C  C1048  1  0.583720  0.897640  0.871960  1
  C  C1049  1  0.393220  0.201860  0.299880  1
  C  C1050  1  0.401980  0.093340  0.200120  1
  C  C1051  1  0.606780  0.798140  0.700120  1
  C  C1052  1  0.598020  0.906660  0.799880  1
  C  C1053  1  0.359810  0.218410  0.317400  1
  C  C1054  1  0.401010  0.042410  0.182600  1
  C  C1055  1  0.640190  0.781590  0.682600  1
  C  C1056  1  0.598990  0.957590  0.817400  1
  C  C1057  1  0.878490  0.846710  0.972800  1
  C  C1058  1  0.373910  0.905690  0.527200  1
  C  C1059  1  0.121510  0.153290  0.027200  1
  C  C1060  1  0.626090  0.094310  0.472800  1
  C  C1061  1  0.889660  0.826250  0.001910  1
  C  C1062  1  0.324340  0.887750  0.498090  1
  C  C1063  1  0.110340  0.173750  0.998090  1
  C  C1064  1  0.675660  0.112250  0.501910  1
  C  C1065  1  0.833260  0.865540  0.031400  1
  C  C1066  1  0.334140  0.801860  0.468600  1
  C  C1067  1  0.166740  0.134460  0.968600  1
  C  C1068  1  0.665860  0.198140  0.531400  1
  C  C1069  1  0.768930  0.821870  0.013600  1
  C  C1070  1  0.308270  0.755330  0.486400  1
  C  C1071  1  0.231070  0.178130  0.986400  1
  C  C1072  1  0.691730  0.244670  0.513600  1
  C  C1073  1  0.900910  0.801490  0.769020  1
  C  C1074  1  0.532470  0.131890  0.730980  1
  C  C1075  1  0.099090  0.198510  0.230980  1
  C  C1076  1  0.467530  0.868110  0.269020  1
  C  C1077  1  0.864140  0.835640  0.764640  1
  C  C1078  1  0.571000  0.099500  0.735360  1
  C  C1079  1  0.135860  0.164360  0.235360  1
  C  C1080  1  0.429000  0.900500  0.264640  1
  C  C1081  1  0.014320  0.915870  0.802390  1
  C  C1082  1  0.613480  0.211930  0.697610  1
  C  C1083  1  0.985680  0.084130  0.197610  1
  C  C1084  1  0.386520  0.788070  0.302390  1
  C  C1085  1  0.986660  0.867690  0.816150  1
  C  C1086  1  0.551540  0.170510  0.683850  1
  C  C1087  1  0.013340  0.132310  0.183850  1
  C  C1088  1  0.448460  0.829490  0.316150  1
  C  C1089  1  0.300530  0.722380  0.124550  1
  C  C1090  1  0.097830  0.175980  0.375450  1
  C  C1091  1  0.699470  0.277620  0.875450  1
  C  C1092  1  0.902170  0.824020  0.624550  1
  C  C1093  1  0.255080  0.745820  0.111240  1
  C  C1094  1  0.134580  0.143840  0.388760  1
  C  C1095  1  0.744920  0.254180  0.888760  1
  C  C1096  1  0.865420  0.856160  0.611240  1
  C  C1097  1  0.332750  0.842420  0.102770  1
  C  C1098  1  0.239650  0.229980  0.397230  1
  C  C1099  1  0.667250  0.157580  0.897230  1
  C  C1100  1  0.760350  0.770020  0.602770  1
  C  C1101  1  0.342910  0.816370  0.072940  1
  C  C1102  1  0.243430  0.269970  0.427060  1
  C  C1103  1  0.657090  0.183630  0.927060  1
  C  C1104  1  0.756570  0.730030  0.572940  1
  C  C1105  1  0.535380  0.294590  0.212570  1.0
  C  C1106  1  0.582020  0.322810  0.287430  1.0
  C  C1107  1  0.464620  0.705410  0.787430  1.0
  C  C1108  1  0.417980  0.677190  0.712570  1.0
  C  C1109  1  0.504410  0.314680  0.231530  1.0
  C  C1110  1  0.583150  0.272880  0.268470  1.0
  C  C1111  1  0.495590  0.685320  0.768470  1.0
  C  C1112  1  0.416850  0.727120  0.731530  1.0
  C  C1113  1  0.986720  0.644130  0.258650  1.0
  C  C1114  1  0.885480  0.728070  0.241350  1.0
  C  C1115  1  0.013280  0.355870  0.741350  1.0
  C  C1116  1  0.114520  0.271930  0.758650  1.0
  C  C1117  1  0.012480  0.708480  0.269800  1.0
  C  C1118  1  0.938680  0.742680  0.230200  1.0
  C  C1119  1  0.987520  0.291520  0.730200  1.0
  C  C1120  1  0.061320  0.257320  0.769800  1.0
  Co  Co1121  1  0.583430  0.333430  0.250000  1
  Co  Co1122  1  0.416570  0.666570  0.750000  1
  Co  Co1123  1  0.822850  0.168420  0.816550  1
  Co  Co1124  1  0.851870  0.006300  0.683450  1
  Co  Co1125  1  0.177150  0.831580  0.183450  1
  Co  Co1126  1  0.148130  0.993700  0.316550  1
  Co  Co1127  1  0.436880  0.245360  0.336300  1
  Co  Co1128  1  0.409060  0.100580  0.163700  1
  Co  Co1129  1  0.563120  0.754640  0.663700  1
  Co  Co1130  1  0.590940  0.899420  0.836300  1
  Co  Co1131  1  0.935220  0.685220  0.250000  1
  Co  Co1132  1  0.064780  0.314780  0.750000  1
  Co  Co1133  1  0.822620  0.836580  0.993260  1
  Co  Co1134  1  0.343320  0.829360  0.506740  1
  Co  Co1135  1  0.177380  0.163420  0.006740  1
  Co  Co1136  1  0.656680  0.170640  0.493260  1
  Co  Co1137  1  0.937870  0.875310  0.782540  1
  Co  Co1138  1  0.592770  0.155330  0.717460  1
  Co  Co1139  1  0.062130  0.124690  0.217460  1
  Co  Co1140  1  0.407230  0.844670  0.282540  1
  Co  Co1141  1  0.322790  0.767210  0.099320  1
  Co  Co1142  1  0.167890  0.223470  0.400680  1
  Co  Co1143  1  0.677210  0.232790  0.900680  1
  Co  Co1144  1  0.832110  0.776530  0.599320  1
  F  F1145  1  0.446380  0.701980  0.296000  1
  F  F1146  1  0.905980  0.150380  0.204000  1
  F  F1147  1  0.553620  0.298020  0.704000  1
  F  F1148  1  0.094020  0.849620  0.796000  1
  F  F1149  1  0.473500  0.638300  0.297600  1
  F  F1150  1  0.840700  0.175900  0.202400  1
  F  F1151  1  0.526500  0.361700  0.702400  1
  F  F1152  1  0.159300  0.824100  0.797600  1
  F  F1153  1  0.465600  0.676400  0.332200  1
  F  F1154  1  0.844200  0.133400  0.167800  1
  F  F1155  1  0.534400  0.323600  0.667800  1
  F  F1156  1  0.155800  0.866600  0.832200  1
  F  F1157  1  0.923000  0.659100  0.784100  1
  F  F1158  1  0.375000  0.138900  0.715900  1
  F  F1159  1  0.077000  0.340900  0.215900  1
  F  F1160  1  0.625000  0.861100  0.284100  1
  F  F1161  1  0.946700  0.625500  0.817000  1
  F  F1162  1  0.308500  0.129700  0.683000  1
  F  F1163  1  0.053300  0.374500  0.183000  1
  F  F1164  1  0.691500  0.870300  0.317000  1
  F  F1165  1  0.895800  0.668900  0.817300  1
  F  F1166  1  0.351600  0.078500  0.682700  1
  F  F1167  1  0.104200  0.331100  0.182700  1
  F  F1168  1  0.648400  0.921500  0.317300  1
  F  F1169  1  0.120600  0.565400  0.307200  1
  F  F1170  1  0.758200  0.813400  0.192800  1
  F  F1171  1  0.879400  0.434600  0.692800  1
  F  F1172  1  0.241800  0.186600  0.807200  1
  F  F1173  1  0.060800  0.500500  0.301700  1
  F  F1174  1  0.698800  0.759100  0.198300  1
  F  F1175  1  0.939200  0.499500  0.698300  1
  F  F1176  1  0.301200  0.240900  0.801700  1
  F  F1177  1  0.123120  0.500300  0.287820  1
  F  F1178  1  0.712480  0.835300  0.212180  1
  F  F1179  1  0.876880  0.499700  0.712180  1
  F  F1180  1  0.287520  0.164700  0.787820  1
  F  F1181  1  0.452100  0.534300  0.203200  1
  F  F1182  1  0.831100  0.248900  0.296800  1
  F  F1183  1  0.547900  0.465700  0.796800  1
  F  F1184  1  0.168900  0.751100  0.703200  1
  F  F1185  1  0.411300  0.465000  0.191700  1
  F  F1186  1  0.773300  0.219600  0.308300  1
  F  F1187  1  0.588700  0.535000  0.808300  1
  F  F1188  1  0.226700  0.780400  0.691700  1
  F  F1189  1  0.395150  0.514100  0.215250  1
  F  F1190  1  0.798850  0.179900  0.284750  1
  F  F1191  1  0.604850  0.485900  0.784750  1
  F  F1192  1  0.201150  0.820100  0.715250  1
  N  N1193  1  0.454140  0.372820  0.845700  1
  N  N1194  1  0.027120  0.608440  0.654300  1
  N  N1195  1  0.545860  0.627180  0.154300  1
  N  N1196  1  0.972880  0.391560  0.345700  1
  N  N1197  1  0.677470  0.789660  0.073070  1
  N  N1198  1  0.216590  0.604400  0.426930  1
  N  N1199  1  0.322530  0.210340  0.926930  1
  N  N1200  1  0.783410  0.395600  0.573070  1
  N  N1201  1  0.300570  0.393750  0.082920  1
  N  N1202  1  0.810830  0.217650  0.417080  1
  N  N1203  1  0.699430  0.606250  0.917080  1
  N  N1204  1  0.189170  0.782350  0.582920  1
  N  N1205  1  0.909810  0.437610  0.792560  1
  N  N1206  1  0.145050  0.117250  0.707440  1
  N  N1207  1  0.090190  0.562390  0.207440  1
  N  N1208  1  0.854950  0.882750  0.292560  1
  N  N1209  1  0.333140  0.866720  0.801140  1
  N  N1210  1  0.565580  0.532000  0.698860  1
  N  N1211  1  0.666860  0.133280  0.198860  1
  N  N1212  1  0.434420  0.468000  0.301140  1
  N  N1213  1  0.398170  0.378330  0.796040  1
  N  N1214  1  0.082290  0.602130  0.703960  1
  N  N1215  1  0.601830  0.621670  0.203960  1
  N  N1216  1  0.917710  0.397870  0.296040  1
  N  N1217  1  0.667920  0.886200  0.086580  1
  N  N1218  1  0.299620  0.581340  0.413420  1
  N  N1219  1  0.332080  0.113800  0.913420  1
  N  N1220  1  0.700380  0.418660  0.586580  1
  N  N1221  1  0.377610  0.947820  0.845630  1
  N  N1222  1  0.602190  0.531980  0.654370  1
  N  N1223  1  0.622390  0.052180  0.154370  1
  N  N1224  1  0.397810  0.468020  0.345630  1
  N  N1225  1  0.163430  0.939990  0.057980  1
  N  N1226  1  0.382010  0.105450  0.442020  1
  N  N1227  1  0.836570  0.060010  0.942020  1
  N  N1228  1  0.617990  0.894550  0.557980  1
  N  N1229  1  0.213840  0.416620  0.090160  1
  N  N1230  1  0.826460  0.123680  0.409840  1
  N  N1231  1  0.786160  0.583380  0.909840  1
  N  N1232  1  0.173540  0.876320  0.590160  1
  N  N1233  1  0.876320  0.440430  0.839010  1
  N  N1234  1  0.101420  0.037310  0.660990  1
  N  N1235  1  0.123680  0.559570  0.160990  1
  N  N1236  1  0.898580  0.962690  0.339010  1
  N  N1237  1  0.082770  0.852650  0.054600  1
  N  N1238  1  0.298050  0.028170  0.445400  1
  N  N1239  1  0.917230  0.147350  0.945400  1
  N  N1240  1  0.701950  0.971830  0.554600  1
  O  O1241  1  0.975100  0.655300  0.918400  1
  O  O1242  1  0.236900  0.056700  0.581600  1
  O  O1243  1  0.024900  0.344700  0.081600  1
  O  O1244  1  0.763100  0.943300  0.418400  1
  O  O1245  1  0.240200  0.933800  0.920000  1
  O  O1246  1  0.513800  0.320200  0.580000  1
  O  O1247  1  0.759800  0.066200  0.080000  1
  O  O1248  1  0.486200  0.679800  0.420000  1
  O  O1249  1  0.104000  0.789100  0.920300  1
  O  O1250  1  0.368800  0.183700  0.579700  1
  O  O1251  1  0.896000  0.210900  0.079700  1
  O  O1252  1  0.631200  0.816300  0.420300  1
  O  O1253  1  0.193000  0.805200  0.017400  1
  O  O1254  1  0.287800  0.175600  0.482600  1
  O  O1255  1  0.807000  0.194800  0.982600  1
  O  O1256  1  0.712200  0.824400  0.517400  1
  O  O1257  1  0.718000  0.646200  0.034000  1
  O  O1258  1  0.112200  0.684000  0.466000  1
  O  O1259  1  0.282000  0.353800  0.966000  1
  O  O1260  1  0.887800  0.316000  0.534000  1
  O  O1261  1  0.909600  0.727500  0.112700  1
  O  O1262  1  0.114800  0.796900  0.387300  1
  O  O1263  1  0.090400  0.272500  0.887300  1
  O  O1264  1  0.885200  0.203100  0.612700  1
  O  O1265  1  0.070600  0.690800  0.884200  1
  O  O1266  1  0.306600  0.186400  0.615800  1
  O  O1267  1  0.929400  0.309200  0.115800  1
  O  O1268  1  0.693400  0.813600  0.384200  1
  O  O1269  1  0.012200  0.968000  0.000600  1
  O  O1270  1  0.467400  0.011600  0.499400  1
  O  O1271  1  0.987800  0.032000  0.999400  1
  O  O1272  1  0.532600  0.988400  0.500600  1
  O  O1273  1  0.948600  0.868900  0.168300  1
  O  O1274  1  0.200600  0.780300  0.331700  1
  O  O1275  1  0.051400  0.131100  0.831700  1
  O  O1276  1  0.799400  0.219700  0.668300  1
  O  O1277  1  0.354500  0.575600  0.278300  1
  O  O1278  1  0.797300  0.076200  0.221700  1
  O  O1279  1  0.645500  0.424400  0.721700  1
  O  O1280  1  0.202700  0.923800  0.778300  1
  O  O1281  1  0.396240  0.603000  0.322640  1
  O  O1282  1  0.780360  0.073600  0.177360  1
  O  O1283  1  0.603760  0.397000  0.677360  1
  O  O1284  1  0.219640  0.926400  0.822640  1
  O  O1285  1  0.340010  0.639990  0.301200  1
  O  O1286  1  0.838790  0.038810  0.198800  1
  O  O1287  1  0.659990  0.360010  0.698800  1
  O  O1288  1  0.161210  0.961190  0.801200  1
  O  O1289  1  0.872750  0.564000  0.766950  1
  O  O1290  1  0.297050  0.105800  0.733050  1
  O  O1291  1  0.127250  0.436000  0.233050  1
  O  O1292  1  0.702950  0.894200  0.266950  1
  O  O1293  1  0.809200  0.582100  0.788300  1
  O  O1294  1  0.293800  0.020900  0.711700  1
  O  O1295  1  0.190800  0.417900  0.211700  1
  O  O1296  1  0.706200  0.979100  0.288300  1
  O  O1297  1  0.871890  0.558600  0.810490  1
  O  O1298  1  0.248110  0.061400  0.689510  1
  O  O1299  1  0.128110  0.441400  0.189510  1
  O  O1300  1  0.751890  0.938600  0.310490  1
  O  O1301  1  0.123610  0.516100  0.354310  1
  O  O1302  1  0.661790  0.769300  0.145690  1
  O  O1303  1  0.876390  0.483900  0.645690  1
  O  O1304  1  0.338210  0.230700  0.854310  1
  O  O1305  1  0.191300  0.530400  0.340900  1
  O  O1306  1  0.689500  0.850400  0.159100  1
  O  O1307  1  0.808700  0.469600  0.659100  1
  O  O1308  1  0.310500  0.149600  0.840900  1
  O  O1309  1  0.141900  0.452800  0.328700  1
  O  O1310  1  0.624100  0.813200  0.171300  1
  O  O1311  1  0.858100  0.547200  0.671300  1
  O  O1312  1  0.375900  0.186800  0.828700  1
  O  O1313  1  0.398770  0.518000  0.149170  1
  O  O1314  1  0.868830  0.249600  0.350830  1
  O  O1315  1  0.601230  0.482000  0.850830  1
  O  O1316  1  0.131170  0.750400  0.649170  1
  O  O1317  1  0.325900  0.484400  0.160100  1
  O  O1318  1  0.824300  0.165800  0.339900  1
  O  O1319  1  0.674100  0.515600  0.839900  1
  O  O1320  1  0.175700  0.834200  0.660100  1
  O  O1321  1  0.365500  0.566000  0.174100  1
  O  O1322  1  0.891900  0.191400  0.325900  1
  O  O1323  1  0.634500  0.434000  0.825900  1
  O  O1324  1  0.108100  0.808600  0.674100  1
  P  P1325  1  0.209220  0.360200  0.136220  1
  P  P1326  1  0.723980  0.073000  0.363780  1
  P  P1327  1  0.790780  0.639800  0.863780  1
  P  P1328  1  0.276020  0.927000  0.636220  1
  P  P1329  1  0.298170  0.316900  0.122070  1
  P  P1330  1  0.694830  0.176100  0.377930  1
  P  P1331  1  0.701830  0.683100  0.877930  1
  P  P1332  1  0.305170  0.823900  0.622070  1
  P  P1333  1  0.504760  0.297070  0.829030  1
  P  P1334  1  0.968040  0.675730  0.670970  1
  P  P1335  1  0.495240  0.702930  0.170970  1
  P  P1336  1  0.031960  0.324270  0.329030  1
  P  P1337  1  0.443320  0.306920  0.768840  1
  P  P1338  1  0.038080  0.674480  0.731160  1
  P  P1339  1  0.556680  0.693080  0.231160  1
  P  P1340  1  0.961920  0.325520  0.268840  1
  P  P1341  1  0.387040  0.031210  0.811950  1
  P  P1342  1  0.719260  0.575090  0.688050  1
  P  P1343  1  0.612960  0.968790  0.188050  1
  P  P1344  1  0.280740  0.424910  0.311950  1
  P  P1345  1  0.343380  0.935070  0.760930  1
  P  P1346  1  0.674140  0.582450  0.739070  1
  P  P1347  1  0.656620  0.064930  0.239070  1
  P  P1348  1  0.325860  0.417550  0.260930  1
  P  P1349  1  0.120720  0.012900  0.087840  1
  P  P1350  1  0.425060  0.032880  0.412160  1
  P  P1351  1  0.879280  0.987100  0.912160  1
  P  P1352  1  0.574940  0.967120  0.587840  1
  P  P1353  1  0.028860  0.905300  0.087760  1
  P  P1354  1  0.317540  0.941100  0.412240  1
  P  P1355  1  0.971140  0.094700  0.912240  1
  P  P1356  1  0.682460  0.058900  0.587760  1
  P  P1357  1  0.794380  0.823520  0.107500  1
  P  P1358  1  0.216020  0.686880  0.392500  1
  P  P1359  1  0.205620  0.176480  0.892500  1
  P  P1360  1  0.783980  0.313120  0.607500  1
  P  P1361  1  0.778750  0.932530  0.127760  1
  P  P1362  1  0.304770  0.650990  0.372240  1
  P  P1363  1  0.221250  0.067470  0.872240  1
  P  P1364  1  0.695230  0.349010  0.627760  1
  P  P1365  1  0.799260  0.386460  0.754260  1
  P  P1366  1  0.132200  0.045000  0.745740  1
  P  P1367  1  0.200740  0.613540  0.245740  1
  P  P1368  1  0.867800  0.955000  0.254260  1
  P  P1369  1  0.758350  0.401260  0.806610  1
  P  P1370  1  0.094650  0.951740  0.693390  1
  P  P1371  1  0.241650  0.598740  0.193390  1
  P  P1372  1  0.905350  0.048260  0.306610  1
  Pt  Pt1373  1  0.255590  0.371240  0.108610  1
  Pt  Pt1374  1  0.762630  0.146980  0.391390  1
  Pt  Pt1375  1  0.744410  0.628760  0.891390  1
  Pt  Pt1376  1  0.237370  0.853020  0.608610  1
  Pt  Pt1377  1  0.451160  0.338270  0.809770  1
  Pt  Pt1378  1  0.028500  0.641390  0.690230  1
  Pt  Pt1379  1  0.548840  0.661730  0.190230  1
  Pt  Pt1380  1  0.971500  0.358610  0.309770  1
  Pt  Pt1381  1  0.361500  0.945538  0.805058  1
  Pt  Pt1382  1  0.640480  0.556442  0.694942  1
  Pt  Pt1383  1  0.638500  0.054462  0.194942  1
  Pt  Pt1384  1  0.359520  0.443558  0.305058  1
  Pt  Pt1385  1  0.098283  0.928430  0.072153  1
  Pt  Pt1386  1  0.356277  0.026130  0.427847  1
  Pt  Pt1387  1  0.901717  0.071570  0.927847  1
  Pt  Pt1388  1  0.643723  0.973870  0.572153  1
  Pt  Pt1389  1  0.730328  0.858710  0.099458  1
  Pt  Pt1390  1  0.259252  0.630870  0.400542  1
  Pt  Pt1391  1  0.269672  0.141290  0.900542  1
  Pt  Pt1392  1  0.740748  0.369130  0.599458  1
  Pt  Pt1393  1  0.835595  0.415273  0.798348  1
  Pt  Pt1394  1  0.116925  0.037247  0.701652  1
  Pt  Pt1395  1  0.164405  0.584727  0.201652  1
  Pt  Pt1396  1  0.883075  0.962753  0.298348  1
  S  S1397  1  0.380760  0.620630  0.298630  1
  S  S1398  1  0.822000  0.082130  0.201370  1
  S  S1399  1  0.619240  0.379370  0.701370  1
  S  S1400  1  0.178000  0.917870  0.798630  1
  S  S1401  1  0.857300  0.585680  0.789000  1
  S  S1402  1  0.296680  0.068300  0.711000  1
  S  S1403  1  0.142700  0.414320  0.211000  1
  S  S1404  1  0.703320  0.931700  0.289000  1
  S  S1405  1  0.143580  0.499570  0.336690  1
  S  S1406  1  0.662880  0.806890  0.163310  1
  S  S1407  1  0.856420  0.500430  0.663310  1
  S  S1408  1  0.337120  0.193110  0.836690  1
  S  S1409  1  0.371170  0.517750  0.166320  1
  S  S1410  1  0.851430  0.204850  0.333680  1
  S  S1411  1  0.628830  0.482250  0.833680  1
  S  S1412  1  0.148570  0.795150  0.666320  1
