
#######################################################################
#
#                 Cambridge Crystallographic Data Centre
#                                CCDC 
#
#######################################################################
#
# If this CIF has been generated from an entry in the Cambridge 
# Structural Database, then it will include bibliographic, chemical, 
# crystal, experimental, refinement or atomic coordinate data resulting 
# from the CCDC's data processing and validation procedures.
#
#######################################################################

data_PAPHEU
_chemical_formula_moiety         
'C144 H168 N12 P12 Pt6 10+,6(C4 H22 B18 Co1 1-),4(C1 F3 O3 S1 1-),9(H2 O1)'
_chemical_name_systematic        
"tetrakis(1,3,5-tris(4-Pyridylethynyl)benzene)-dodecakis(trimethylphosphine)-hexa-platinum(ii) hexakis(3,3'-commo-bis(3-cobalta-1,2-dicarba-closo-dodecaborate(11))) tetrakis(trifluoromethanesulfonate) nonahydrate"
_symmetry_cell_setting           monoclinic
_symmetry_space_group_name_H-M   'C 2/c'
_symmetry_Int_Tables_number      15
_space_group_name_Hall           '-C 2yn'
loop_
_symmetry_equiv_pos_site_id
_symmetry_equiv_pos_as_xyz
1 x,y,z
2 1/2+x,1/2+y,z
3 -x,y,1/2-z
4 1/2-x,1/2+y,1/2-z
5 -x,-y,-z
6 1/2-x,1/2-y,-z
7 x,-y,1/2+z
8 1/2+x,1/2-y,1/2+z
_cell_length_a                   45.53(4)
_cell_length_b                   33.50(4)
_cell_length_c                   54.22(5)
_cell_angle_alpha                90
_cell_angle_beta                 109.04(6)
_cell_angle_gamma                90
_cell_volume                     78174.9
_exptl_crystal_colour            brown
_exptl_crystal_description       block
_cell_formula_units_Z            8
_exptl_crystal_recrystallization_method 'diethyl ether'
loop_
_atom_site_label
_atom_site_type_symbol
_atom_site_fract_x
_atom_site_fract_y
_atom_site_fract_z
O1 O 0.2993(9) 0.6440(11) -0.0816(8)
O2 O 0.3068(12) 0.3730(14) -0.0800(10)
O3 O 0.3027(5) 0.5136(6) -0.0797(4)
O4 O 0.3148(11) 0.5096(13) 0.0174(10)
O5 O -0.0189(11) 0.3349(14) 0.0340(10)
O6 O -0.0347(10) 0.2378(12) 0.1127(9)
O7 O 0.2522(11) 0.5614(14) -0.1158(10)
O8 O 0.4782(5) 0.5102(6) 0.0006(4)
O9 O 0.0443(6) 0.1754(7) 0.1683(5)
S1 S 0.76925(14) 0.14862(17) 0.29863(12)
O10 O 0.7497(2) 0.1741(3) 0.27830(19)
O11 O 0.7647(3) 0.1617(3) 0.32264(16)
O12 O 0.80059(17) 0.1606(3) 0.3012(2)
C1 C 0.7614(2) 0.09951(19) 0.3066(2)
F1 F 0.7758(4) 0.07382(19) 0.2960(3)
F2 F 0.7312(3) 0.0929(3) 0.2976(3)
F3 F 0.7715(3) 0.0951(3) 0.3322(2)
S2 S 0.25869(14) 0.67301(18) -0.21100(13)
O13 O 0.2291(2) 0.6651(3) -0.23305(17)
O14 O 0.2806(2) 0.6985(3) -0.2117(2)
O15 O 0.2486(3) 0.6900(3) -0.18951(19)
C2 C 0.2658(2) 0.6285(2) -0.19747(19)
F4 F 0.2601(4) 0.6010(2) -0.2159(3)
F5 F 0.2479(3) 0.6224(3) -0.1830(2)
F6 F 0.2952(3) 0.6263(4) -0.1827(3)
S3 S 0.84634(15) 0.34677(19) 0.33669(12)
O16 O 0.8734(2) 0.3573(4) 0.35431(15)
O17 O 0.8400(3) 0.3096(2) 0.3409(2)
O18 O 0.8198(2) 0.3670(3) 0.3287(2)
C3 C 0.8566(2) 0.3398(3) 0.31000(14)
F7 F 0.8760(3) 0.3106(4) 0.3072(3)
F8 F 0.8707(3) 0.3702(4) 0.3017(2)
F9 F 0.8325(3) 0.3322(5) 0.28782(12)
S4 S 1.15645(16) 0.6387(2) 0.16632(13)
O19 O 1.1342(2) 0.6162(4) 0.14917(17)
O20 O 1.1593(3) 0.6749(2) 0.1601(2)
O21 O 1.1873(2) 0.6213(4) 0.1741(2)
C4 C 1.1472(2) 0.6394(3) 0.19480(15)
F10 F 1.1427(3) 0.6084(4) 0.2032(2)
F11 F 1.1227(3) 0.6577(4) 0.1917(2)
F12 F 1.1671(3) 0.6530(5) 0.21525(14)
Pt1 Pt 0.11213(3) 0.74089(4) 0.10861(2)
Pt2 Pt -0.15156(2) 0.51017(3) -0.19023(2)
Pt3 Pt 0.194548(16) 0.24901(2) -0.194942(14)
Pt4 Pt 0.451150(19) 0.52272(3) 0.072153(16)
Pt5 Pt 0.11392(2) 0.25521(3) 0.099458(17)
Pt6 Pt 0.189013(17) 0.77374(2) -0.201652(14)
P1 P 0.14360(17) 0.7834(3) 0.13622(15)
C5 C 0.1361(6) 0.8288(5) 0.1218(4)
C6 C 0.1837(3) 0.7771(8) 0.1378(5)
C7 C 0.1467(6) 0.7789(8) 0.1701(2)
P2 P 0.07040(19) 0.7535(4) 0.12207(18)
C8 C 0.0618(6) 0.8070(3) 0.1227(5)
C9 C 0.0330(4) 0.7399(7) 0.0988(4)
C10 C 0.0651(6) 0.7278(6) 0.1468(3)
P3 P -0.18933(17) 0.5136(2) -0.17097(17)
C11 C -0.2216(4) 0.5491(6) -0.1860(5)
C12 C -0.1737(6) 0.5320(6) -0.1402(2)
C13 C -0.2071(5) 0.4666(4) -0.1683(5)
P4 P -0.18378(16) 0.5093(3) -0.23116(18)
C14 C -0.1953(6) 0.5579(4) -0.2443(5)
C15 C -0.1687(6) 0.4852(6) -0.2546(5)
C16 C -0.2187(4) 0.4757(6) -0.2349(6)
P5 P 0.22806(11) 0.19685(15) -0.18805(10)
C17 C 0.2092(3) 0.1447(3) -0.1929(3)
C18 C 0.2537(3) 0.1927(5) -0.15473(12)
C19 C 0.2552(3) 0.2000(4) -0.2071(3)
P6 P 0.17631(12) 0.24124(16) -0.23907(9)
C20 C 0.13620(17) 0.2643(4) -0.2536(3)
C21 C 0.1695(3) 0.1904(2) -0.2520(3)
C22 C 0.2022(3) 0.2668(4) -0.2543(3)
P7 P 0.49001(13) 0.47711(19) 0.08784(12)
C23 C 0.4821(5) 0.4307(4) 0.0676(3)
C24 C 0.5279(2) 0.4889(6) 0.0862(4)
C25 C 0.4953(5) 0.4634(6) 0.12253(16)
P8 P 0.48210(16) 0.5768(2) 0.08776(14)
C26 C 0.4593(4) 0.6256(4) 0.0898(4)
C27 C 0.5077(4) 0.5748(6) 0.12170(17)
C28 C 0.5063(4) 0.5917(6) 0.0684(3)
P9 P 0.06832(15) 0.2448(2) 0.10750(14)
C29 C 0.0328(3) 0.2613(5) 0.0806(3)
C30 C 0.0664(5) 0.2655(5) 0.1377(2)
C31 C 0.0573(4) 0.1936(2) 0.1079(3)
P10 P 0.14077(14) 0.20824(17) 0.12776(12)
C32 C 0.1359(4) 0.2106(5) 0.1604(2)
C33 C 0.1360(4) 0.1576(3) 0.1146(3)
C34 C 0.18322(17) 0.2162(6) 0.1364(4)
P11 P 0.17073(11) 0.78427(15) -0.24574(8)
C35 C 0.13124(16) 0.7635(4) -0.2597(3)
C36 C 0.1948(3) 0.7630(4) -0.2638(3)
C37 C 0.1653(3) 0.83656(18) -0.2565(3)
P12 P 0.22476(12) 0.82350(16) -0.19339(10)
C38 C 0.2110(3) 0.8743(2) -0.1934(3)
C39 C 0.2559(3) 0.8179(4) -0.16131(15)
C40 C 0.2488(3) 0.8230(4) -0.2160(2)
C41 C 0.00643(5) 0.50232(8) -0.03954(5)
C42 C 0.01775(5) 0.46201(8) -0.03120(5)
C43 C 0.04220(6) 0.46744(8) -0.00148(5)
C44 C 0.05200(6) 0.50201(8) 0.01064(5)
C45 C 0.04062(6) 0.53618(8) 0.00106(5)
C46 C 0.01567(5) 0.53867(8) -0.02722(5)
C47 C -0.01837(5) 0.50578(9) -0.06373(6)
C48 C -0.04025(5) 0.50453(9) -0.08605(6)
C49 C -0.06637(5) 0.50608(9) -0.10770(6)
C50 C -0.07657(5) 0.54251(9) -0.11994(6)
C51 C -0.10342(5) 0.54456(10) -0.14333(7)
N1 N -0.11781(4) 0.50937(10) -0.15430(7)
C52 C -0.10792(5) 0.47307(10) -0.14482(7)
C53 C -0.07927(5) 0.47383(10) -0.11853(6)
C54 C 0.04996(6) 0.42689(8) 0.00908(5)
C55 C 0.06016(6) 0.40125(9) 0.02454(5)
C56 C 0.07090(7) 0.36143(9) 0.03805(5)
C57 C 0.07078(7) 0.32789(9) 0.03048(6)
C58 C 0.08287(7) 0.29598(9) 0.04653(6)
N2 N 0.09263(8) 0.30297(9) 0.07307(6)
C59 C 0.09422(8) 0.33718(10) 0.08216(6)
C60 C 0.08423(7) 0.37302(9) 0.06639(5)
C61 C 0.04657(6) 0.57157(9) 0.01401(5)
C62 C 0.05352(6) 0.60247(9) 0.02770(5)
C63 C 0.06583(7) 0.63661(9) 0.04538(5)
C64 C 0.08462(7) 0.62212(10) 0.07675(5)
C65 C 0.09138(8) 0.65838(10) 0.09013(6)
N3 N 0.08805(8) 0.69430(10) 0.08292(6)
C66 C 0.07344(8) 0.70784(9) 0.05828(6)
C67 C 0.06107(7) 0.67238(9) 0.04073(6)
C68 C 0.07954(6) 0.54594(8) -0.21514(4)
C69 C 0.09659(6) 0.51122(8) -0.21471(4)
C70 C 0.08039(6) 0.47327(8) -0.21377(4)
C71 C 0.04870(6) 0.47164(8) -0.21458(4)
C72 C 0.03393(6) 0.50922(8) -0.21536(4)
C73 C 0.04846(6) 0.54724(8) -0.21571(4)
C74 C 0.09642(6) 0.58466(8) -0.21397(4)
C75 C 0.10885(6) 0.61644(8) -0.21263(4)
C76 C 0.12627(7) 0.65133(8) -0.21085(5)
C77 C 0.11629(7) 0.68512(8) -0.20105(5)
C78 C 0.13459(7) 0.72214(8) -0.19842(5)
N4 N 0.16018(7) 0.72257(8) -0.20744(6)
C79 C 0.17043(7) 0.68773(8) -0.21624(5)
C80 C 0.15349(7) 0.65297(8) -0.21868(5)
C81 C 0.09724(6) 0.43783(8) -0.21277(4)
C82 C 0.11355(6) 0.40719(8) -0.20898(4)
C83 C 0.13102(7) 0.37176(8) -0.20513(5)
C84 C 0.16048(7) 0.37192(8) -0.21027(5)
C85 C 0.17879(7) 0.33418(8) -0.20602(5)
N5 N 0.16736(7) 0.30064(8) -0.19886(5)
C86 C 0.13977(7) 0.30127(7) -0.19338(5)
C87 C 0.12103(7) 0.33673(7) -0.19759(5)
C88 C 0.00269(6) 0.50734(8) -0.21486(5)
C89 C -0.02325(5) 0.50718(9) -0.21485(5)
C90 C -0.05502(5) 0.50846(9) -0.21193(5)
C91 C -0.06990(5) 0.47236(9) -0.21036(6)
C92 C -0.09781(5) 0.47334(10) -0.20538(6)
N6 N -0.11190(5) 0.50977(10) -0.20396(6)
C93 C -0.09786(5) 0.54680(10) -0.20597(6)
C94 C -0.07109(5) 0.54541(9) -0.21165(6)
C95 C 0.25131(6) 0.31525(7) 0.01828(5)
C96 C 0.24014(6) 0.29970(6) -0.00787(5)
C97 C 0.25876(6) 0.31216(6) -0.02422(5)
C98 C 0.28628(5) 0.33644(7) -0.01521(5)
C99 C 0.29472(5) 0.34894(7) 0.01024(5)
C100 C 0.27830(6) 0.33700(7) 0.02857(5)
C101 C 0.23240(6) 0.30241(7) 0.03542(5)
C102 C 0.21684(7) 0.29607(7) 0.04954(5)
C103 C 0.19691(7) 0.28450(8) 0.06265(5)
C104 C 0.19401(7) 0.30691(8) 0.08279(5)
C105 C 0.17095(8) 0.29741(9) 0.09495(5)
N7 N 0.15243(8) 0.26623(9) 0.08658(6)
C106 C 0.15543(8) 0.24149(8) 0.06771(6)
C107 C 0.17721(8) 0.25070(8) 0.05426(6)
C108 C 0.24638(6) 0.30154(6) -0.05196(5)
C109 C 0.23752(6) 0.28963(6) -0.07449(6)
C110 C 0.22755(6) 0.27989(6) -0.10158(6)
C111 C 0.20448(7) 0.25055(6) -0.11141(6)
C112 C 0.19569(7) 0.24060(7) -0.13827(6)
N8 N 0.20792(7) 0.26010(7) -0.15437(6)
C113 C 0.23194(7) 0.28906(7) -0.14437(6)
C114 C 0.24124(6) 0.30083(7) -0.11757(6)
C115 C 0.32210(5) 0.37316(8) 0.02033(5)
C116 C 0.34393(5) 0.39536(8) 0.02969(5)
C117 C 0.36906(5) 0.42341(9) 0.03952(6)
C118 C 0.38427(5) 0.43874(9) 0.02268(6)
C119 C 0.40900(5) 0.46639(9) 0.03350(6)
N9 N 0.41727(5) 0.47728(10) 0.05798(6)
C120 C 0.40364(5) 0.46132(10) 0.07488(6)
C121 C 0.37847(5) 0.43541(9) 0.06622(6)
C122 C 0.23371(6) 0.69824(6) 0.00955(5)
C123 C 0.22246(6) 0.71262(6) -0.01649(5)
C124 C 0.24157(6) 0.70544(6) -0.03160(5)
C125 C 0.27027(6) 0.68680(6) -0.02369(5)
C126 C 0.27827(6) 0.67084(7) 0.00226(5)
C127 C 0.26185(6) 0.67765(7) 0.01826(5)
C128 C 0.21541(7) 0.70633(7) 0.02631(5)
C129 C 0.20251(7) 0.71245(7) 0.04121(5)
C130 C 0.18331(7) 0.71756(8) 0.05754(5)
C131 C 0.18472(7) 0.69180(8) 0.07952(5)
C132 C 0.16424(8) 0.70045(9) 0.09525(5)
N10 N 0.14647(8) 0.72985(9) 0.09016(6)
C133 C 0.14272(8) 0.75700(8) 0.07076(6)
C134 C 0.16464(8) 0.75022(8) 0.05416(6)
C135 C 0.23166(6) 0.71990(6) -0.05912(6)
C136 C 0.22461(6) 0.73174(6) -0.08092(6)
C137 C 0.21737(7) 0.74327(6) -0.10946(6)
C138 C 0.19670(7) 0.77419(6) -0.11834(6)
C139 C 0.18958(7) 0.78340(7) -0.14604(6)
N11 N 0.20156(7) 0.76113(7) -0.16099(6)
C140 C 0.22078(7) 0.73098(7) -0.15172(6)
C141 C 0.23024(6) 0.72115(7) -0.12412(6)
C142 C 0.30765(6) 0.64898(7) 0.01206(5)
C143 C 0.33204(5) 0.62920(8) 0.02100(5)
C144 C 0.35965(5) 0.60622(8) 0.03140(6)
C145 C 0.37941(5) 0.59815(9) 0.01827(6)
C146 C 0.40567(5) 0.57270(9) 0.02885(6)
N12 N 0.41224(5) 0.55959(10) 0.05460(6)
C147 C 0.39184(5) 0.56711(9) 0.06834(6)
C148 C 0.36377(5) 0.59028(9) 0.05637(6)
Co1 Co 0.5000 0.16657(10) 0.2500
B1 B 0.5263(3) 0.1660(4) 0.18835(16)
B2 B 0.5478(3) 0.1396(4) 0.2163(2)
B3 B 0.5087(3) 0.1209(3) 0.19878(18)
B4 B 0.4888(3) 0.1676(4) 0.18695(4)
B5 B 0.5120(3) 0.2114(3) 0.19639(18)
B6 B 0.5477(2) 0.1927(4) 0.2167(2)
B7 B 0.54312(8) 0.1656(3) 0.24465(14)
B8 B 0.5192(3) 0.12140(17) 0.23325(17)
B9 B 0.4824(2) 0.1388(3) 0.21463(9)
C149 C 0.48589(19) 0.1913(3) 0.21257(8)
C150 C 0.5209(2) 0.20622(18) 0.23153(15)
B1B B 0.4737(3) 0.1660(4) 0.31165(16)
B2B B 0.4522(3) 0.1396(4) 0.2837(2)
B3B B 0.4913(3) 0.1209(3) 0.30122(18)
B4B B 0.5112(3) 0.1676(4) 0.31305(4)
B5B B 0.4880(3) 0.2114(3) 0.30361(18)
B6B B 0.4523(2) 0.1927(4) 0.2833(2)
B7B B 0.45688(8) 0.1656(3) 0.25535(14)
B8B B 0.4808(3) 0.12140(17) 0.26675(17)
B9B B 0.5176(2) 0.1388(3) 0.28537(9)
C149B C 0.51411(19) 0.1913(3) 0.28743(8)
C150B C 0.4791(2) 0.20622(18) 0.26847(15)
Co2 Co 0.58106(5) 0.41264(6) -0.18345(4)
B10 B 0.58296(18) 0.51378(13) -0.14717(14)
B11 B 0.57405(18) 0.51118(7) -0.18257(13)
B12 B 0.61187(15) 0.50015(12) -0.16153(15)
B13 B 0.61108(16) 0.47648(17) -0.13463(10)
B14 B 0.57115(18) 0.47175(17) -0.13688(11)
B15 B 0.54631(15) 0.49437(15) -0.16736(15)
B16 B 0.55128(11) 0.43904(14) -0.16459(11)
B17 B 0.59210(15) 0.42769(14) -0.14294(5)
B18 B 0.61814(8) 0.44803(14) -0.15973(11)
C151 C 0.55573(11) 0.46426(10) -0.19046(10)
C152 C 0.59396(13) 0.47011(8) -0.18786(10)
B19 B 0.57658(18) 0.31092(13) -0.22138(14)
B20 B 0.58663(19) 0.31160(7) -0.18568(14)
B21 B 0.61367(14) 0.33280(15) -0.20224(15)
B22 B 0.59017(19) 0.35622(17) -0.23173(11)
B23 B 0.55133(16) 0.34837(17) -0.23322(10)
B24 B 0.54792(15) 0.32545(13) -0.20653(15)
B25 B 0.56765(15) 0.35409(8) -0.17556(10)
B26 B 0.60788(12) 0.35913(10) -0.17295(10)
B27 B 0.60867(11) 0.38511(14) -0.20348(11)
C153 C 0.57138(14) 0.39417(13) -0.22186(5)
C154 C 0.54652(8) 0.37677(13) -0.20639(10)
Co3 Co 0.57239(6) 0.32703(8) 0.33630(6)
B28 B 0.5454(3) 0.3255(3) 0.40018(14)
B29 B 0.5566(3) 0.3661(3) 0.38665(15)
B30 B 0.5209(2) 0.3486(3) 0.36977(18)
B31 B 0.5308(2) 0.2981(3) 0.36923(16)
B32 B 0.5685(3) 0.2842(3) 0.38982(14)
B33 B 0.5852(2) 0.3301(4) 0.40123(7)
B34 B 0.5576(2) 0.28393(14) 0.35413(13)
B35 B 0.52910(9) 0.3218(3) 0.34141(13)
B36 B 0.54651(19) 0.36543(19) 0.35290(14)
C155 C 0.58718(18) 0.3556(2) 0.37257(9)
C156 C 0.59294(15) 0.3047(3) 0.37196(8)
B37 B 0.5977(3) 0.3333(3) 0.27324(14)
B38 B 0.6183(2) 0.3616(3) 0.30274(18)
B39 B 0.5769(3) 0.3728(3) 0.28267(14)
B40 B 0.5571(2) 0.3262(4) 0.27151(6)
B41 B 0.5833(3) 0.2887(3) 0.28166(14)
B42 B 0.6208(2) 0.3079(3) 0.30284(17)
B43 B 0.61641(9) 0.3327(3) 0.33244(13)
B44 B 0.5945(2) 0.28616(17) 0.31930(14)
B45 B 0.55592(18) 0.2988(2) 0.30045(9)
C157 C 0.55426(16) 0.3524(2) 0.29988(9)
C158 C 0.5880(2) 0.36959(14) 0.31740(13)
Co4 Co 1.0000 0.31478(10) 0.2500
B46 B 0.9767(3) 0.3115(4) 0.31246(15)
B47 B 0.9927(3) 0.2743(3) 0.30419(15)
B48 B 0.9558(2) 0.2861(4) 0.2865(2)
B49 B 0.9554(2) 0.3396(4) 0.28516(19)
B50 B 0.9941(3) 0.3567(3) 0.30393(15)
B51 B 1.0188(3) 0.3129(4) 0.31466(2)
B52 B 1.01850(18) 0.2881(3) 0.28647(8)
B53 B 1.02205(18) 0.3419(3) 0.28659(8)
B54 B 0.9805(2) 0.35939(18) 0.26809(16)
C159 C 0.95803(9) 0.3139(3) 0.25865(14)
C160 C 0.9829(2) 0.27442(17) 0.26980(14)
B46B B 1.0233(3) 0.3115(4) 0.18754(15)
B47B B 1.0073(3) 0.2743(3) 0.19581(15)
B48B B 1.0442(2) 0.2861(4) 0.2135(2)
B49B B 1.0446(2) 0.3396(4) 0.21484(19)
B50B B 1.0059(3) 0.3567(3) 0.19607(15)
B51B B 0.9812(3) 0.3129(4) 0.18534(2)
B52B B 0.98150(18) 0.2881(3) 0.21353(8)
B53B B 0.97795(18) 0.3419(3) 0.21341(8)
B54B B 1.0195(2) 0.35939(18) 0.23191(16)
C159B C 1.04197(9) 0.3139(3) 0.24135(14)
C160B C 1.0171(2) 0.27442(17) 0.23020(14)
Co5 Co 0.50361(10) 0.66703(12) -0.00674(7)
B55 B 0.41353(10) 0.6661(4) -0.0356(3)
B56 B 0.43412(15) 0.6652(5) -0.0011(3)
B57 B 0.43649(15) 0.6233(3) -0.0211(3)
B58 B 0.43468(18) 0.6396(4) -0.0532(2)
B59 B 0.43877(17) 0.6929(4) -0.0491(2)
B60 B 0.43313(15) 0.7100(4) -0.0196(3)
B61 B 0.47267(16) 0.6943(3) 0.00558(18)
B62 B 0.47189(16) 0.7108(2) -0.0251(2)
B63 B 0.47637(18) 0.6673(4) -0.04516(9)
C161 C 0.47051(16) 0.6238(2) -0.0272(2)
C162 C 0.46925(14) 0.6430(3) 0.00191(18)
B64 B 0.59613(11) 0.6617(4) 0.0293(3)
B65 B 0.57606(13) 0.6580(4) -0.0051(3)
B66 B 0.57163(16) 0.6196(3) 0.0166(3)
B67 B 0.5749(2) 0.6385(5) 0.0482(2)
B68 B 0.57012(18) 0.6910(4) 0.0407(2)
B69 B 0.57753(14) 0.7050(4) 0.0113(3)
B70 B 0.53612(16) 0.6972(3) -0.01795(19)
B71 B 0.54176(14) 0.6405(3) -0.01231(19)
B72 B 0.53494(15) 0.6270(2) 0.0141(2)
C163 C 0.53184(17) 0.6663(4) 0.03140(9)
C164 C 0.53327(16) 0.7114(2) 0.0136(2)
Co6 Co 0.85999(8) 0.98468(10) -0.21746(7)
B73 B 0.8181(3) 1.0290(4) -0.28875(12)
B74 B 0.8021(2) 0.9859(4) -0.27714(13)
B75 B 0.8038(2) 1.0373(3) -0.26141(17)
B76 B 0.8370(3) 1.0657(2) -0.26177(18)
B77 B 0.8567(3) 1.0262(3) -0.27274(13)
B78 B 0.8386(3) 0.9810(3) -0.28295(7)
B79 B 0.87020(19) 0.9870(3) -0.25278(11)
B80 B 0.8347(2) 0.9567(2) -0.25442(10)
B81 B 0.81487(9) 0.9907(3) -0.24028(14)
C165 C 0.8348(2) 1.03331(18) -0.23098(13)
C166 C 0.86807(19) 1.03243(18) -0.23536(14)
B82 B 0.9007(3) 0.9405(4) -0.14821(12)
B83 B 0.91693(19) 0.9379(3) -0.17411(17)
B84 B 0.8834(3) 0.9043(2) -0.17648(18)
B85 B 0.8610(3) 0.9339(3) -0.16329(15)
B86 B 0.8747(3) 0.9817(3) -0.15776(7)
B87 B 0.9145(2) 0.9844(3) -0.16127(13)
B88 B 0.8809(2) 1.0142(2) -0.18153(10)
B89 B 0.90604(9) 0.9865(3) -0.19745(15)
B90 B 0.8867(2) 0.93230(19) -0.20588(14)
C167 C 0.85197(19) 0.9361(2) -0.19761(14)
C168 C 0.84859(19) 0.9809(3) -0.18385(11)
loop_
_geom_bond_atom_site_label_1
_geom_bond_atom_site_label_2
_geom_bond_site_symmetry_1
_geom_bond_site_symmetry_2
S1 O10 1_555 1_555
O11 S1 1_555 1_555
O12 S1 1_555 1_555
C1 S1 1_555 1_555
F1 C1 1_555 1_555
F2 C1 1_555 1_555
F3 C1 1_555 1_555
S2 O13 1_555 1_555
O14 S2 1_555 1_555
O15 S2 1_555 1_555
C2 S2 1_555 1_555
F4 C2 1_555 1_555
F5 C2 1_555 1_555
F6 C2 1_555 1_555
S3 O16 1_555 1_555
O17 S3 1_555 1_555
O18 S3 1_555 1_555
C3 S3 1_555 1_555
F7 C3 1_555 1_555
F8 C3 1_555 1_555
F9 C3 1_555 1_555
S4 O19 1_555 1_555
O20 S4 1_555 1_555
O21 S4 1_555 1_555
C4 S4 1_555 1_555
F10 C4 1_555 1_555
F11 C4 1_555 1_555
F12 C4 1_555 1_555
Pt1 P1 1_555 1_555
Pt2 P3 1_555 1_555
Pt3 P5 1_555 1_555
Pt4 P7 1_555 1_555
Pt5 P9 1_555 1_555
Pt6 P11 1_555 1_555
P1 C5 1_555 1_555
C6 P1 1_555 1_555
C7 P1 1_555 1_555
P2 Pt1 1_555 1_555
C8 P2 1_555 1_555
C9 P2 1_555 1_555
C10 P2 1_555 1_555
P3 C11 1_555 1_555
C12 P3 1_555 1_555
C13 P3 1_555 1_555
P4 Pt2 1_555 1_555
C14 P4 1_555 1_555
C15 P4 1_555 1_555
C16 P4 1_555 1_555
P5 C17 1_555 1_555
C18 P5 1_555 1_555
C19 P5 1_555 1_555
P6 Pt3 1_555 1_555
C20 P6 1_555 1_555
C21 P6 1_555 1_555
C22 P6 1_555 1_555
P7 C23 1_555 1_555
C24 P7 1_555 1_555
C25 P7 1_555 1_555
P8 Pt4 1_555 1_555
C26 P8 1_555 1_555
C27 P8 1_555 1_555
C28 P8 1_555 1_555
P9 C29 1_555 1_555
C30 P9 1_555 1_555
C31 P9 1_555 1_555
P10 Pt5 1_555 1_555
C32 P10 1_555 1_555
C33 P10 1_555 1_555
C34 P10 1_555 1_555
P11 C35 1_555 1_555
C36 P11 1_555 1_555
C37 P11 1_555 1_555
P12 Pt6 1_555 1_555
C38 P12 1_555 1_555
C39 P12 1_555 1_555
C40 P12 1_555 1_555
C41 C42 1_555 1_555
C42 C43 1_555 1_555
C43 C44 1_555 1_555
C44 C45 1_555 1_555
C45 C46 1_555 1_555
C46 C41 1_555 1_555
C47 C41 1_555 1_555
C48 C47 1_555 1_555
C49 C48 1_555 1_555
C50 C49 1_555 1_555
C51 C50 1_555 1_555
N1 Pt2 1_555 1_555
C52 N1 1_555 1_555
C53 C49 1_555 1_555
C54 C43 1_555 1_555
C55 C54 1_555 1_555
C56 C55 1_555 1_555
C57 C56 1_555 1_555
C58 C57 1_555 1_555
N2 Pt5 1_555 1_555
C59 N2 1_555 1_555
C60 C56 1_555 1_555
C61 C45 1_555 1_555
C62 C61 1_555 1_555
C63 C62 1_555 1_555
C64 C63 1_555 1_555
C65 C64 1_555 1_555
N3 Pt1 1_555 1_555
C66 N3 1_555 1_555
C67 C63 1_555 1_555
C68 C69 1_555 1_555
C69 C70 1_555 1_555
C70 C71 1_555 1_555
C71 C72 1_555 1_555
C72 C73 1_555 1_555
C73 C68 1_555 1_555
C74 C68 1_555 1_555
C75 C74 1_555 1_555
C76 C75 1_555 1_555
C77 C76 1_555 1_555
C78 C77 1_555 1_555
N4 Pt6 1_555 1_555
C79 N4 1_555 1_555
C80 C76 1_555 1_555
C81 C70 1_555 1_555
C82 C81 1_555 1_555
C83 C82 1_555 1_555
C84 C83 1_555 1_555
C85 C84 1_555 1_555
N5 Pt3 1_555 1_555
C86 N5 1_555 1_555
C87 C83 1_555 1_555
C88 C72 1_555 1_555
C89 C88 1_555 1_555
C90 C89 1_555 1_555
C91 C90 1_555 1_555
C92 C91 1_555 1_555
N6 Pt2 1_555 1_555
C93 N6 1_555 1_555
C94 C90 1_555 1_555
C95 C96 1_555 1_555
C96 C97 1_555 1_555
C97 C98 1_555 1_555
C98 C99 1_555 1_555
C99 C100 1_555 1_555
C100 C95 1_555 1_555
C101 C95 1_555 1_555
C102 C101 1_555 1_555
C103 C102 1_555 1_555
C104 C103 1_555 1_555
C105 C104 1_555 1_555
N7 Pt5 1_555 1_555
C106 N7 1_555 1_555
C107 C103 1_555 1_555
C108 C97 1_555 1_555
C109 C108 1_555 1_555
C110 C109 1_555 1_555
C111 C110 1_555 1_555
C112 C111 1_555 1_555
N8 Pt3 1_555 1_555
C113 N8 1_555 1_555
C114 C110 1_555 1_555
C115 C99 1_555 1_555
C116 C115 1_555 1_555
C117 C116 1_555 1_555
C118 C117 1_555 1_555
C119 C118 1_555 1_555
N9 Pt4 1_555 1_555
C120 N9 1_555 1_555
C121 C117 1_555 1_555
C122 C123 1_555 1_555
C123 C124 1_555 1_555
C124 C125 1_555 1_555
C125 C126 1_555 1_555
C126 C127 1_555 1_555
C127 C122 1_555 1_555
C128 C122 1_555 1_555
C129 C128 1_555 1_555
C130 C129 1_555 1_555
C131 C130 1_555 1_555
C132 C131 1_555 1_555
N10 Pt1 1_555 1_555
C133 N10 1_555 1_555
C134 C130 1_555 1_555
C135 C124 1_555 1_555
C136 C135 1_555 1_555
C137 C136 1_555 1_555
C138 C137 1_555 1_555
C139 C138 1_555 1_555
N11 Pt6 1_555 1_555
C140 N11 1_555 1_555
C141 C137 1_555 1_555
C142 C126 1_555 1_555
C143 C142 1_555 1_555
C144 C143 1_555 1_555
C145 C144 1_555 1_555
C146 C145 1_555 1_555
N12 Pt4 1_555 1_555
C147 N12 1_555 1_555
C148 C144 1_555 1_555
Co1 B7 1_555 1_555
B1 B2 1_555 1_555
B2 B3 1_555 1_555
B3 B1 1_555 1_555
B4 B1 1_555 1_555
B5 B1 1_555 1_555
B6 B1 1_555 1_555
B7 B2 1_555 1_555
B8 Co1 1_555 1_555
B9 Co1 1_555 1_555
C149 Co1 1_555 1_555
C150 Co1 1_555 1_555
Co2 B16 1_555 1_555
B10 B11 1_555 1_555
B11 B12 1_555 1_555
B12 B10 1_555 1_555
B13 B10 1_555 1_555
B14 B10 1_555 1_555
B15 B10 1_555 1_555
B16 B14 1_555 1_555
B17 Co2 1_555 1_555
B18 Co2 1_555 1_555
C151 Co2 1_555 1_555
C152 Co2 1_555 1_555
B19 B20 1_555 1_555
B20 B21 1_555 1_555
B21 B19 1_555 1_555
B22 B19 1_555 1_555
B23 B19 1_555 1_555
B24 B19 1_555 1_555
B25 Co2 1_555 1_555
B26 Co2 1_555 1_555
B27 Co2 1_555 1_555
C153 Co2 1_555 1_555
C154 Co2 1_555 1_555
Co3 B34 1_555 1_555
B28 B29 1_555 1_555
B29 B30 1_555 1_555
B30 B28 1_555 1_555
B31 B28 1_555 1_555
B32 B28 1_555 1_555
B33 B28 1_555 1_555
B34 B31 1_555 1_555
B35 Co3 1_555 1_555
B36 Co3 1_555 1_555
C155 Co3 1_555 1_555
C156 Co3 1_555 1_555
B37 B38 1_555 1_555
B38 B39 1_555 1_555
B39 B37 1_555 1_555
B40 B37 1_555 1_555
B41 B37 1_555 1_555
B42 B37 1_555 1_555
B43 Co3 1_555 1_555
B44 Co3 1_555 1_555
B45 Co3 1_555 1_555
C157 Co3 1_555 1_555
C158 Co3 1_555 1_555
Co4 B52 1_555 1_555
B46 B47 1_555 1_555
B47 B48 1_555 1_555
B48 B46 1_555 1_555
B49 B46 1_555 1_555
B50 B46 1_555 1_555
B51 B46 1_555 1_555
B52 B47 1_555 1_555
B53 Co4 1_555 1_555
B54 Co4 1_555 1_555
C159 Co4 1_555 1_555
C160 Co4 1_555 1_555
Co5 B61 1_555 1_555
B55 B56 1_555 1_555
B56 B57 1_555 1_555
B57 B55 1_555 1_555
B58 B55 1_555 1_555
B59 B55 1_555 1_555
B60 B55 1_555 1_555
B61 B56 1_555 1_555
B62 Co5 1_555 1_555
B63 Co5 1_555 1_555
C161 Co5 1_555 1_555
C162 Co5 1_555 1_555
B64 B65 1_555 1_555
B65 B66 1_555 1_555
B66 B64 1_555 1_555
B67 B64 1_555 1_555
B68 B64 1_555 1_555
B69 B64 1_555 1_555
B70 Co5 1_555 1_555
B71 Co5 1_555 1_555
B72 Co5 1_555 1_555
C163 Co5 1_555 1_555
C164 Co5 1_555 1_555
Co6 B79 1_555 1_555
B73 B74 1_555 1_555
B74 B75 1_555 1_555
B75 B73 1_555 1_555
B76 B73 1_555 1_555
B77 B73 1_555 1_555
B78 B73 1_555 1_555
B79 B77 1_555 1_555
B80 Co6 1_555 1_555
B81 Co6 1_555 1_555
C165 Co6 1_555 1_555
C166 Co6 1_555 1_555
B82 B83 1_555 1_555
B83 B84 1_555 1_555
B84 B82 1_555 1_555
B85 B82 1_555 1_555
B86 B82 1_555 1_555
B87 B82 1_555 1_555
B88 Co6 1_555 1_555
B89 Co6 1_555 1_555
B90 Co6 1_555 1_555
C167 Co6 1_555 1_555
C168 Co6 1_555 1_555
B1B B2B 1_555 1_555
B2B B3B 1_555 1_555
B3B B1B 1_555 1_555
B4B B1B 1_555 1_555
B5B B1B 1_555 1_555
B6B B1B 1_555 1_555
B7B Co1 1_555 1_555
B8B Co1 1_555 1_555
B9B Co1 1_555 1_555
C149B Co1 1_555 1_555
C150B Co1 1_555 1_555
B46B B47B 1_555 1_555
B47B B48B 1_555 1_555
B48B B46B 1_555 1_555
B49B B46B 1_555 1_555
B50B B46B 1_555 1_555
B51B B46B 1_555 1_555
B52B Co4 1_555 1_555
B53B Co4 1_555 1_555
B54B Co4 1_555 1_555
C159B Co4 1_555 1_555
C160B Co4 1_555 1_555
C51 N1 1_555 1_555
C52 C53 1_555 1_555
C58 N2 1_555 1_555
C59 C60 1_555 1_555
C65 N3 1_555 1_555
C66 C67 1_555 1_555
C78 N4 1_555 1_555
C79 C80 1_555 1_555
C85 N5 1_555 1_555
C86 C87 1_555 1_555
C92 N6 1_555 1_555
C93 C94 1_555 1_555
C105 N7 1_555 1_555
C106 C107 1_555 1_555
C112 N8 1_555 1_555
C113 C114 1_555 1_555
C119 N9 1_555 1_555
C120 C121 1_555 1_555
C132 N10 1_555 1_555
C133 C134 1_555 1_555
C139 N11 1_555 1_555
C140 C141 1_555 1_555
C146 N12 1_555 1_555
C147 C148 1_555 1_555
B2 B6 1_555 1_555
B2 B8 1_555 1_555
B3 B4 1_555 1_555
B3 B8 1_555 1_555
B3 B9 1_555 1_555
B4 B5 1_555 1_555
B4 B9 1_555 1_555
B4 C149 1_555 1_555
B5 B6 1_555 1_555
B5 C149 1_555 1_555
B5 C150 1_555 1_555
B6 B7 1_555 1_555
B6 C150 1_555 1_555
B7 B8 1_555 1_555
B7 C150 1_555 1_555
B8 B9 1_555 1_555
B9 C149 1_555 1_555
C149 C150 1_555 1_555
B11 B15 1_555 1_555
B11 C151 1_555 1_555
B11 C152 1_555 1_555
B12 B13 1_555 1_555
B12 B18 1_555 1_555
B12 C152 1_555 1_555
B13 B14 1_555 1_555
B13 B17 1_555 1_555
B13 B18 1_555 1_555
B14 B15 1_555 1_555
B14 B17 1_555 1_555
B15 B16 1_555 1_555
B15 C151 1_555 1_555
B16 B17 1_555 1_555
B16 C151 1_555 1_555
B17 B18 1_555 1_555
B18 C152 1_555 1_555
C151 C152 1_555 1_555
B20 B24 1_555 1_555
B20 B25 1_555 1_555
B20 B26 1_555 1_555
B21 B22 1_555 1_555
B21 B26 1_555 1_555
B21 B27 1_555 1_555
B22 B23 1_555 1_555
B22 B27 1_555 1_555
B22 C153 1_555 1_555
B23 B24 1_555 1_555
B23 C153 1_555 1_555
B23 C154 1_555 1_555
B24 B25 1_555 1_555
B24 C154 1_555 1_555
B25 B26 1_555 1_555
B25 C154 1_555 1_555
B26 B27 1_555 1_555
B27 C153 1_555 1_555
C153 C154 1_555 1_555
B29 B33 1_555 1_555
B29 B36 1_555 1_555
B29 C155 1_555 1_555
B30 B31 1_555 1_555
B30 B35 1_555 1_555
B30 B36 1_555 1_555
B31 B32 1_555 1_555
B31 B35 1_555 1_555
B32 B33 1_555 1_555
B32 B34 1_555 1_555
B32 C156 1_555 1_555
B33 C155 1_555 1_555
B33 C156 1_555 1_555
B34 B35 1_555 1_555
B34 C156 1_555 1_555
B35 B36 1_555 1_555
B36 C155 1_555 1_555
C155 C156 1_555 1_555
B38 B42 1_555 1_555
B38 B43 1_555 1_555
B38 C158 1_555 1_555
B39 B40 1_555 1_555
B39 C157 1_555 1_555
B39 C158 1_555 1_555
B40 B41 1_555 1_555
B40 B45 1_555 1_555
B40 C157 1_555 1_555
B41 B42 1_555 1_555
B41 B44 1_555 1_555
B41 B45 1_555 1_555
B42 B43 1_555 1_555
B42 B44 1_555 1_555
B43 B44 1_555 1_555
B43 C158 1_555 1_555
B44 B45 1_555 1_555
B45 C157 1_555 1_555
C157 C158 1_555 1_555
B47 B51 1_555 1_555
B47 C160 1_555 1_555
B48 B49 1_555 1_555
B48 C159 1_555 1_555
B48 C160 1_555 1_555
B49 B50 1_555 1_555
B49 B54 1_555 1_555
B49 C159 1_555 1_555
B50 B51 1_555 1_555
B50 B53 1_555 1_555
B50 B54 1_555 1_555
B51 B52 1_555 1_555
B51 B53 1_555 1_555
B52 B53 1_555 1_555
B52 C160 1_555 1_555
B53 B54 1_555 1_555
B54 C159 1_555 1_555
C159 C160 1_555 1_555
B56 B60 1_555 1_555
B56 C162 1_555 1_555
B57 B58 1_555 1_555
B57 C161 1_555 1_555
B57 C162 1_555 1_555
B58 B59 1_555 1_555
B58 B63 1_555 1_555
B58 C161 1_555 1_555
B59 B60 1_555 1_555
B59 B62 1_555 1_555
B59 B63 1_555 1_555
B60 B61 1_555 1_555
B60 B62 1_555 1_555
B61 B62 1_555 1_555
B61 C162 1_555 1_555
B62 B63 1_555 1_555
B63 C161 1_555 1_555
C161 C162 1_555 1_555
B65 B69 1_555 1_555
B65 B70 1_555 1_555
B65 B71 1_555 1_555
B66 B67 1_555 1_555
B66 B71 1_555 1_555
B66 B72 1_555 1_555
B67 B68 1_555 1_555
B67 B72 1_555 1_555
B67 C163 1_555 1_555
B68 B69 1_555 1_555
B68 C163 1_555 1_555
B68 C164 1_555 1_555
B69 B70 1_555 1_555
B69 C164 1_555 1_555
B70 B71 1_555 1_555
B70 C164 1_555 1_555
B71 B72 1_555 1_555
B72 C163 1_555 1_555
C163 C164 1_555 1_555
B74 B78 1_555 1_555
B74 B80 1_555 1_555
B74 B81 1_555 1_555
B75 B76 1_555 1_555
B75 B81 1_555 1_555
B75 C165 1_555 1_555
B76 B77 1_555 1_555
B76 C165 1_555 1_555
B76 C166 1_555 1_555
B77 B78 1_555 1_555
B77 C166 1_555 1_555
B78 B79 1_555 1_555
B78 B80 1_555 1_555
B79 B80 1_555 1_555
B79 C166 1_555 1_555
B80 B81 1_555 1_555
B81 C165 1_555 1_555
C165 C166 1_555 1_555
B83 B87 1_555 1_555
B83 B89 1_555 1_555
B83 B90 1_555 1_555
B84 B85 1_555 1_555
B84 B90 1_555 1_555
B84 C167 1_555 1_555
B85 B86 1_555 1_555
B85 C167 1_555 1_555
B85 C168 1_555 1_555
B86 B87 1_555 1_555
B86 B88 1_555 1_555
B86 C168 1_555 1_555
B87 B88 1_555 1_555
B87 B89 1_555 1_555
B88 B89 1_555 1_555
B88 C168 1_555 1_555
B89 B90 1_555 1_555
B90 C167 1_555 1_555
C167 C168 1_555 1_555
B2B B6B 1_555 1_555
B2B B7B 1_555 1_555
B2B B8B 1_555 1_555
B3B B4B 1_555 1_555
B3B B8B 1_555 1_555
B3B B9B 1_555 1_555
B4B B5B 1_555 1_555
B4B B9B 1_555 1_555
B4B C149B 1_555 1_555
B5B B6B 1_555 1_555
B5B C149B 1_555 1_555
B5B C150B 1_555 1_555
B6B B7B 1_555 1_555
B6B C150B 1_555 1_555
B7B B8B 1_555 1_555
B7B C150B 1_555 1_555
B8B B9B 1_555 1_555
B9B C149B 1_555 1_555
C149B C150B 1_555 1_555
B47B B51B 1_555 1_555
B47B B52B 1_555 1_555
B47B C160B 1_555 1_555
B48B B49B 1_555 1_555
B48B C159B 1_555 1_555
B48B C160B 1_555 1_555
B49B B50B 1_555 1_555
B49B B54B 1_555 1_555
B49B C159B 1_555 1_555
B50B B51B 1_555 1_555
B50B B53B 1_555 1_555
B50B B54B 1_555 1_555
B51B B52B 1_555 1_555
B51B B53B 1_555 1_555
B52B B53B 1_555 1_555
B52B C160B 1_555 1_555
B53B B54B 1_555 1_555
B54B C159B 1_555 1_555
C159B C160B 1_555 1_555

#END
