# generated using pymatgen
data_B4H128Pd5C154S2N20(O11F8)2
_symmetry_space_group_name_H-M   'P 1'
_cell_length_a   18.50560000
_cell_length_b   29.20700000
_cell_length_c   57.54200000
_cell_angle_alpha   90.00000000
_cell_angle_beta   90.00000000
_cell_angle_gamma   90.00000000
_symmetry_Int_Tables_number   1
_chemical_formula_structural   B4H128Pd5C154S2N20(O11F8)2
_chemical_formula_sum   'B16 H512 Pd20 C616 S8 N80 O88 F64'
_cell_volume   31101.05161249
_cell_formula_units_Z   4
loop_
 _symmetry_equiv_pos_site_id
 _symmetry_equiv_pos_as_xyz
  1  'x, y, z'
loop_
 _atom_site_type_symbol
 _atom_site_label
 _atom_site_symmetry_multiplicity
 _atom_site_fract_x
 _atom_site_fract_y
 _atom_site_fract_z
 _atom_site_occupancy
  B  B1  1  0.689300  0.819400  0.334500  1
  B  B2  1  0.810700  0.319400  0.665500  1
  B  B3  1  0.310700  0.180600  0.834500  1
  B  B4  1  0.189300  0.680600  0.165500  1
  B  B5  1  0.310700  0.180600  0.665500  1
  B  B6  1  0.189300  0.680600  0.334500  1
  B  B7  1  0.689300  0.819400  0.165500  1
  B  B8  1  0.810700  0.319400  0.834500  1
  B  B9  1  0.978200  0.833200  0.412600  1
  B  B10  1  0.521800  0.333200  0.587400  1
  B  B11  1  0.021800  0.166800  0.912600  1
  B  B12  1  0.478200  0.666800  0.087400  1
  B  B13  1  0.021800  0.166800  0.587400  1
  B  B14  1  0.478200  0.666800  0.412600  1
  B  B15  1  0.978200  0.833200  0.087400  1
  B  B16  1  0.521800  0.333200  0.912600  1
  H  H17  1  0.134300  0.772900  0.428300  1
  H  H18  1  0.365700  0.272900  0.571700  1
  H  H19  1  0.865700  0.227100  0.928300  1
  H  H20  1  0.634300  0.727100  0.071700  1
  H  H21  1  0.865700  0.227100  0.571700  1
  H  H22  1  0.634300  0.727100  0.428300  1
  H  H23  1  0.134300  0.772900  0.071700  1
  H  H24  1  0.365700  0.272900  0.928300  1
  H  H25  1  0.171300  0.730600  0.440200  1
  H  H26  1  0.328700  0.230600  0.559800  1
  H  H27  1  0.828700  0.269400  0.940200  1
  H  H28  1  0.671300  0.769400  0.059800  1
  H  H29  1  0.828700  0.269400  0.559800  1
  H  H30  1  0.671300  0.769400  0.440200  1
  H  H31  1  0.171300  0.730600  0.059800  1
  H  H32  1  0.328700  0.230600  0.940200  1
  H  H33  1  0.087000  0.732400  0.437600  1
  H  H34  1  0.413000  0.232400  0.562400  1
  H  H35  1  0.913000  0.267600  0.937600  1
  H  H36  1  0.587000  0.767600  0.062400  1
  H  H37  1  0.913000  0.267600  0.562400  1
  H  H38  1  0.587000  0.767600  0.437600  1
  H  H39  1  0.087000  0.732400  0.062400  1
  H  H40  1  0.413000  0.232400  0.937600  1
  H  H41  1  0.192900  0.642900  0.411800  1
  H  H42  1  0.307100  0.142900  0.588200  1
  H  H43  1  0.807100  0.357100  0.911800  1
  H  H44  1  0.692900  0.857100  0.088200  1
  H  H45  1  0.807100  0.357100  0.588200  1
  H  H46  1  0.692900  0.857100  0.411800  1
  H  H47  1  0.192900  0.642900  0.088200  1
  H  H48  1  0.307100  0.142900  0.911800  1
  H  H49  1  0.199100  0.887300  0.271000  1.0
  H  H50  1  0.300900  0.387300  0.729000  1.0
  H  H51  1  0.800900  0.112700  0.771000  1.0
  H  H52  1  0.699100  0.612700  0.229000  1.0
  H  H53  1  0.800900  0.112700  0.729000  1.0
  H  H54  1  0.699100  0.612700  0.271000  1.0
  H  H55  1  0.199100  0.887300  0.229000  1.0
  H  H56  1  0.300900  0.387300  0.771000  1.0
  H  H57  1  0.028400  0.961000  0.270800  1.0
  H  H58  1  0.471600  0.461000  0.729200  1.0
  H  H59  1  0.971600  0.039000  0.770800  1.0
  H  H60  1  0.528400  0.539000  0.229200  1.0
  H  H61  1  0.971600  0.039000  0.729200  1.0
  H  H62  1  0.528400  0.539000  0.270800  1.0
  H  H63  1  0.028400  0.961000  0.229200  1.0
  H  H64  1  0.471600  0.461000  0.770800  1.0
  H  H65  1  0.102600  0.955100  0.305600  1.0
  H  H66  1  0.397400  0.455100  0.694400  1.0
  H  H67  1  0.897400  0.044900  0.805600  1.0
  H  H68  1  0.602600  0.544900  0.194400  1.0
  H  H69  1  0.897400  0.044900  0.694400  1.0
  H  H70  1  0.602600  0.544900  0.305600  1.0
  H  H71  1  0.102600  0.955100  0.194400  1.0
  H  H72  1  0.397400  0.455100  0.805600  1.0
  H  H73  1  0.163000  0.917400  0.306100  1.0
  H  H74  1  0.337000  0.417400  0.693900  1.0
  H  H75  1  0.837000  0.082600  0.806100  1.0
  H  H76  1  0.663000  0.582600  0.193900  1.0
  H  H77  1  0.837000  0.082600  0.693900  1.0
  H  H78  1  0.663000  0.582600  0.306100  1.0
  H  H79  1  0.163000  0.917400  0.193900  1.0
  H  H80  1  0.337000  0.417400  0.806100  1.0
  H  H81  1  0.856100  0.807800  0.337600  1.0
  H  H82  1  0.643900  0.307800  0.662400  1.0
  H  H83  1  0.143900  0.192200  0.837600  1.0
  H  H84  1  0.356100  0.692200  0.162400  1.0
  H  H85  1  0.143900  0.192200  0.662400  1.0
  H  H86  1  0.356100  0.692200  0.337600  1.0
  H  H87  1  0.856100  0.807800  0.162400  1.0
  H  H88  1  0.643900  0.307800  0.837600  1.0
  H  H89  1  0.936600  0.858800  0.324200  1.0
  H  H90  1  0.563400  0.358800  0.675800  1.0
  H  H91  1  0.063400  0.141200  0.824200  1.0
  H  H92  1  0.436600  0.641200  0.175800  1.0
  H  H93  1  0.063400  0.141200  0.675800  1.0
  H  H94  1  0.436600  0.641200  0.324200  1.0
  H  H95  1  0.936600  0.858800  0.175800  1.0
  H  H96  1  0.563400  0.358800  0.824200  1.0
  H  H97  1  0.090600  0.762500  0.327700  1.0
  H  H98  1  0.409400  0.262500  0.672300  1.0
  H  H99  1  0.909400  0.237500  0.827700  1.0
  H  H100  1  0.590600  0.737500  0.172300  1.0
  H  H101  1  0.909400  0.237500  0.672300  1.0
  H  H102  1  0.590600  0.737500  0.327700  1.0
  H  H103  1  0.090600  0.762500  0.172300  1.0
  H  H104  1  0.409400  0.262500  0.827700  1.0
  H  H105  1  0.004900  0.712300  0.341400  1.0
  H  H106  1  0.495100  0.212300  0.658600  1.0
  H  H107  1  0.995100  0.287700  0.841400  1.0
  H  H108  1  0.504900  0.787700  0.158600  1.0
  H  H109  1  0.995100  0.287700  0.658600  1.0
  H  H110  1  0.504900  0.787700  0.341400  1.0
  H  H111  1  0.004900  0.712300  0.158600  1.0
  H  H112  1  0.495100  0.212300  0.841400  1.0
  H  H113  1  0.917800  0.660200  0.307400  1.0
  H  H114  1  0.582200  0.160200  0.692600  1.0
  H  H115  1  0.082200  0.339800  0.807400  1.0
  H  H116  1  0.417800  0.839800  0.192600  1.0
  H  H117  1  0.082200  0.339800  0.692600  1.0
  H  H118  1  0.417800  0.839800  0.307400  1.0
  H  H119  1  0.917800  0.660200  0.192600  1.0
  H  H120  1  0.582200  0.160200  0.807400  1.0
  H  H121  1  0.911500  0.651200  0.268000  1.0
  H  H122  1  0.588500  0.151200  0.732000  1.0
  H  H123  1  0.088500  0.348800  0.768000  1.0
  H  H124  1  0.411500  0.848800  0.232000  1.0
  H  H125  1  0.088500  0.348800  0.732000  1.0
  H  H126  1  0.411500  0.848800  0.268000  1.0
  H  H127  1  0.911500  0.651200  0.232000  1.0
  H  H128  1  0.588500  0.151200  0.768000  1.0
  H  H129  1  0.738400  0.728200  0.268600  1.0
  H  H130  1  0.761600  0.228200  0.731400  1.0
  H  H131  1  0.261600  0.271800  0.768600  1.0
  H  H132  1  0.238400  0.771800  0.231400  1.0
  H  H133  1  0.261600  0.271800  0.731400  1.0
  H  H134  1  0.238400  0.771800  0.268600  1.0
  H  H135  1  0.738400  0.728200  0.231400  1.0
  H  H136  1  0.761600  0.228200  0.768600  1.0
  H  H137  1  0.750900  0.736600  0.306700  1.0
  H  H138  1  0.749100  0.236600  0.693300  1.0
  H  H139  1  0.249100  0.263400  0.806700  1.0
  H  H140  1  0.250900  0.763400  0.193300  1.0
  H  H141  1  0.249100  0.263400  0.693300  1.0
  H  H142  1  0.250900  0.763400  0.306700  1.0
  H  H143  1  0.750900  0.736600  0.193300  1.0
  H  H144  1  0.749100  0.236600  0.806700  1.0
  H  H145  1  0.812600  0.607600  0.338000  1.0
  H  H146  1  0.687400  0.107600  0.662000  1.0
  H  H147  1  0.187400  0.392400  0.838000  1.0
  H  H148  1  0.312600  0.892400  0.162000  1.0
  H  H149  1  0.187400  0.392400  0.662000  1.0
  H  H150  1  0.312600  0.892400  0.338000  1.0
  H  H151  1  0.812600  0.607600  0.162000  1.0
  H  H152  1  0.687400  0.107600  0.838000  1.0
  H  H153  1  0.724700  0.557000  0.345500  1.0
  H  H154  1  0.775300  0.057000  0.654500  1.0
  H  H155  1  0.275300  0.443000  0.845500  1.0
  H  H156  1  0.224700  0.943000  0.154500  1.0
  H  H157  1  0.275300  0.443000  0.654500  1.0
  H  H158  1  0.224700  0.943000  0.345500  1.0
  H  H159  1  0.724700  0.557000  0.154500  1.0
  H  H160  1  0.775300  0.057000  0.845500  1.0
  H  H161  1  0.609200  0.653300  0.374700  1.0
  H  H162  1  0.890800  0.153300  0.625300  1.0
  H  H163  1  0.390800  0.346700  0.874700  1.0
  H  H164  1  0.109200  0.846700  0.125300  1.0
  H  H165  1  0.390800  0.346700  0.625300  1.0
  H  H166  1  0.109200  0.846700  0.374700  1.0
  H  H167  1  0.609200  0.653300  0.125300  1.0
  H  H168  1  0.890800  0.153300  0.874700  1.0
  H  H169  1  0.697100  0.706500  0.365800  1.0
  H  H170  1  0.802900  0.206500  0.634200  1.0
  H  H171  1  0.302900  0.293500  0.865800  1.0
  H  H172  1  0.197100  0.793500  0.134200  1.0
  H  H173  1  0.302900  0.293500  0.634200  1.0
  H  H174  1  0.197100  0.793500  0.365800  1.0
  H  H175  1  0.697100  0.706500  0.134200  1.0
  H  H176  1  0.802900  0.206500  0.865800  1.0
  H  H177  1  0.580300  0.460600  0.382000  1.0
  H  H178  1  0.919700  0.960600  0.618000  1.0
  H  H179  1  0.419700  0.539400  0.882000  1.0
  H  H180  1  0.080300  0.039400  0.118000  1.0
  H  H181  1  0.419700  0.539400  0.618000  1.0
  H  H182  1  0.080300  0.039400  0.382000  1.0
  H  H183  1  0.580300  0.460600  0.118000  1.0
  H  H184  1  0.919700  0.960600  0.882000  1.0
  H  H185  1  0.662100  0.506900  0.366700  1.0
  H  H186  1  0.837900  0.006900  0.633300  1.0
  H  H187  1  0.337900  0.493100  0.866700  1.0
  H  H188  1  0.162100  0.993100  0.133300  1.0
  H  H189  1  0.337900  0.493100  0.633300  1.0
  H  H190  1  0.162100  0.993100  0.366700  1.0
  H  H191  1  0.662100  0.506900  0.133300  1.0
  H  H192  1  0.837900  0.006900  0.866700  1.0
  H  H193  1  0.517100  0.608100  0.368300  1.0
  H  H194  1  0.982900  0.108100  0.631700  1.0
  H  H195  1  0.482900  0.391900  0.868300  1.0
  H  H196  1  0.017100  0.891900  0.131700  1.0
  H  H197  1  0.482900  0.391900  0.631700  1.0
  H  H198  1  0.017100  0.891900  0.368300  1.0
  H  H199  1  0.517100  0.608100  0.131700  1.0
  H  H200  1  0.982900  0.108100  0.868300  1.0
  H  H201  1  0.433000  0.559300  0.381600  1.0
  H  H202  1  0.067000  0.059300  0.618400  1.0
  H  H203  1  0.567000  0.440700  0.881600  1.0
  H  H204  1  0.933000  0.940700  0.118400  1.0
  H  H205  1  0.567000  0.440700  0.618400  1.0
  H  H206  1  0.933000  0.940700  0.381600  1.0
  H  H207  1  0.433000  0.559300  0.118400  1.0
  H  H208  1  0.067000  0.059300  0.881600  1.0
  H  H209  1  0.820000  0.777300  0.382500  1.0
  H  H210  1  0.680000  0.277300  0.617500  1.0
  H  H211  1  0.180000  0.222700  0.882500  1.0
  H  H212  1  0.320000  0.722700  0.117500  1.0
  H  H213  1  0.180000  0.222700  0.617500  1.0
  H  H214  1  0.320000  0.722700  0.382500  1.0
  H  H215  1  0.820000  0.777300  0.117500  1.0
  H  H216  1  0.680000  0.277300  0.882500  1.0
  H  H217  1  0.805800  0.780900  0.422600  1.0
  H  H218  1  0.694200  0.280900  0.577400  1.0
  H  H219  1  0.194200  0.219100  0.922600  1.0
  H  H220  1  0.305800  0.719100  0.077400  1.0
  H  H221  1  0.194200  0.219100  0.577400  1.0
  H  H222  1  0.305800  0.719100  0.422600  1.0
  H  H223  1  0.805800  0.780900  0.077400  1.0
  H  H224  1  0.694200  0.280900  0.922600  1.0
  H  H225  1  0.878100  0.654000  0.426000  1.0
  H  H226  1  0.621900  0.154000  0.574000  1.0
  H  H227  1  0.121900  0.346000  0.926000  1.0
  H  H228  1  0.378100  0.846000  0.074000  1.0
  H  H229  1  0.121900  0.346000  0.574000  1.0
  H  H230  1  0.378100  0.846000  0.426000  1.0
  H  H231  1  0.878100  0.654000  0.074000  1.0
  H  H232  1  0.621900  0.154000  0.926000  1.0
  H  H233  1  0.891500  0.652800  0.385700  1.0
  H  H234  1  0.608500  0.152800  0.614300  1.0
  H  H235  1  0.108500  0.347200  0.885700  1.0
  H  H236  1  0.391500  0.847200  0.114300  1.0
  H  H237  1  0.108500  0.347200  0.614300  1.0
  H  H238  1  0.391500  0.847200  0.385700  1.0
  H  H239  1  0.891500  0.652800  0.114300  1.0
  H  H240  1  0.608500  0.152800  0.885700  1.0
  H  H241  1  0.905400  0.680600  0.500500  1.0
  H  H242  1  0.594600  0.180600  0.499500  1.0
  H  H243  1  0.094600  0.319400  0.000500  1.0
  H  H244  1  0.405400  0.819400  0.999500  1.0
  H  H245  1  0.094600  0.319400  0.499500  1.0
  H  H246  1  0.405400  0.819400  0.500500  1.0
  H  H247  1  0.905400  0.680600  0.999500  1.0
  H  H248  1  0.594600  0.180600  0.000500  1.0
  H  H249  1  0.842600  0.716700  0.499200  1.0
  H  H250  1  0.657400  0.216700  0.500800  1.0
  H  H251  1  0.157400  0.283300  0.999200  1.0
  H  H252  1  0.342600  0.783300  0.000800  1.0
  H  H253  1  0.157400  0.283300  0.500800  1.0
  H  H254  1  0.342600  0.783300  0.499200  1.0
  H  H255  1  0.842600  0.716700  0.000800  1.0
  H  H256  1  0.657400  0.216700  0.999200  1.0
  H  H257  1  0.726100  0.696900  0.504800  1.0
  H  H258  1  0.773900  0.196900  0.495200  1.0
  H  H259  1  0.273900  0.303100  0.004800  1.0
  H  H260  1  0.226100  0.803100  0.995200  1.0
  H  H261  1  0.273900  0.303100  0.495200  1.0
  H  H262  1  0.226100  0.803100  0.504800  1.0
  H  H263  1  0.726100  0.696900  0.995200  1.0
  H  H264  1  0.773900  0.196900  0.004800  1.0
  H  H265  1  0.640500  0.643000  0.515700  1.0
  H  H266  1  0.859500  0.143000  0.484300  1.0
  H  H267  1  0.359500  0.357000  0.015700  1.0
  H  H268  1  0.140500  0.857000  0.984300  1.0
  H  H269  1  0.359500  0.357000  0.484300  1.0
  H  H270  1  0.140500  0.857000  0.515700  1.0
  H  H271  1  0.640500  0.643000  0.984300  1.0
  H  H272  1  0.859500  0.143000  0.015700  1.0
  H  H273  1  0.786400  0.542700  0.506500  1.0
  H  H274  1  0.713600  0.042700  0.493500  1.0
  H  H275  1  0.213600  0.457300  0.006500  1.0
  H  H276  1  0.286400  0.957300  0.993500  1.0
  H  H277  1  0.213600  0.457300  0.493500  1.0
  H  H278  1  0.286400  0.957300  0.506500  1.0
  H  H279  1  0.786400  0.542700  0.993500  1.0
  H  H280  1  0.713600  0.042700  0.006500  1.0
  H  H281  1  0.872000  0.596600  0.495500  1.0
  H  H282  1  0.628000  0.096600  0.504500  1.0
  H  H283  1  0.128000  0.403400  0.995500  1.0
  H  H284  1  0.372000  0.903400  0.004500  1.0
  H  H285  1  0.128000  0.403400  0.504500  1.0
  H  H286  1  0.372000  0.903400  0.495500  1.0
  H  H287  1  0.872000  0.596600  0.004500  1.0
  H  H288  1  0.628000  0.096600  0.995500  1.0
  H  H289  1  0.615300  0.565600  0.529600  1.0
  H  H290  1  0.884700  0.065600  0.470400  1.0
  H  H291  1  0.384700  0.434400  0.029600  1.0
  H  H292  1  0.115300  0.934400  0.970400  1.0
  H  H293  1  0.384700  0.434400  0.470400  1.0
  H  H294  1  0.115300  0.934400  0.529600  1.0
  H  H295  1  0.615300  0.565600  0.970400  1.0
  H  H296  1  0.884700  0.065600  0.029600  1.0
  H  H297  1  0.676700  0.528600  0.528900  1.0
  H  H298  1  0.823300  0.028600  0.471100  1.0
  H  H299  1  0.323300  0.471400  0.028900  1.0
  H  H300  1  0.176700  0.971400  0.971100  1.0
  H  H301  1  0.323300  0.471400  0.471100  1.0
  H  H302  1  0.176700  0.971400  0.528900  1.0
  H  H303  1  0.676700  0.528600  0.971100  1.0
  H  H304  1  0.823300  0.028600  0.028900  1.0
  H  H305  1  0.530500  0.437900  0.434500  1.0
  H  H306  1  0.969500  0.937900  0.565500  1.0
  H  H307  1  0.469500  0.562100  0.934500  1.0
  H  H308  1  0.030500  0.062100  0.065500  1.0
  H  H309  1  0.469500  0.562100  0.565500  1.0
  H  H310  1  0.030500  0.062100  0.434500  1.0
  H  H311  1  0.530500  0.437900  0.065500  1.0
  H  H312  1  0.969500  0.937900  0.934500  1.0
  H  H313  1  0.582200  0.468000  0.467700  1.0
  H  H314  1  0.917800  0.968000  0.532300  1.0
  H  H315  1  0.417800  0.532000  0.967700  1.0
  H  H316  1  0.082200  0.032000  0.032300  1.0
  H  H317  1  0.417800  0.532000  0.532300  1.0
  H  H318  1  0.082200  0.032000  0.467700  1.0
  H  H319  1  0.582200  0.468000  0.032300  1.0
  H  H320  1  0.917800  0.968000  0.967700  1.0
  H  H321  1  0.451200  0.575000  0.463000  1.0
  H  H322  1  0.048800  0.075000  0.537000  1.0
  H  H323  1  0.548800  0.425000  0.963000  1.0
  H  H324  1  0.951200  0.925000  0.037000  1.0
  H  H325  1  0.548800  0.425000  0.537000  1.0
  H  H326  1  0.951200  0.925000  0.463000  1.0
  H  H327  1  0.451200  0.575000  0.037000  1.0
  H  H328  1  0.048800  0.075000  0.963000  1.0
  H  H329  1  0.405900  0.545300  0.428600  1.0
  H  H330  1  0.094100  0.045300  0.571400  1.0
  H  H331  1  0.594100  0.454700  0.928600  1.0
  H  H332  1  0.905900  0.954700  0.071400  1.0
  H  H333  1  0.594100  0.454700  0.571400  1.0
  H  H334  1  0.905900  0.954700  0.428600  1.0
  H  H335  1  0.405900  0.545300  0.071400  1.0
  H  H336  1  0.094100  0.045300  0.928600  1.0
  H  H337  1  0.466800  0.394800  0.361200  1.0
  H  H338  1  0.033200  0.894800  0.638800  1.0
  H  H339  1  0.533200  0.605200  0.861200  1.0
  H  H340  1  0.966800  0.105200  0.138800  1.0
  H  H341  1  0.533200  0.605200  0.638800  1.0
  H  H342  1  0.966800  0.105200  0.361200  1.0
  H  H343  1  0.466800  0.394800  0.138800  1.0
  H  H344  1  0.033200  0.894800  0.861200  1.0
  H  H345  1  0.414000  0.361800  0.328700  1.0
  H  H346  1  0.086000  0.861800  0.671300  1.0
  H  H347  1  0.586000  0.638200  0.828700  1.0
  H  H348  1  0.914000  0.138200  0.171300  1.0
  H  H349  1  0.586000  0.638200  0.671300  1.0
  H  H350  1  0.914000  0.138200  0.328700  1.0
  H  H351  1  0.414000  0.361800  0.171300  1.0
  H  H352  1  0.086000  0.861800  0.828700  1.0
  H  H353  1  0.238800  0.441300  0.337300  1.0
  H  H354  1  0.261200  0.941300  0.662700  1.0
  H  H355  1  0.761200  0.558700  0.837300  1.0
  H  H356  1  0.738800  0.058700  0.162700  1.0
  H  H357  1  0.761200  0.558700  0.662700  1.0
  H  H358  1  0.738800  0.058700  0.337300  1.0
  H  H359  1  0.238800  0.441300  0.162700  1.0
  H  H360  1  0.261200  0.941300  0.837300  1.0
  H  H361  1  0.291600  0.474300  0.369800  1.0
  H  H362  1  0.208400  0.974300  0.630200  1.0
  H  H363  1  0.708400  0.525700  0.869800  1.0
  H  H364  1  0.791600  0.025700  0.130200  1.0
  H  H365  1  0.708400  0.525700  0.630200  1.0
  H  H366  1  0.791600  0.025700  0.369800  1.0
  H  H367  1  0.291600  0.474300  0.130200  1.0
  H  H368  1  0.208400  0.974300  0.869800  1.0
  H  H369  1  0.296600  0.284000  0.277700  1.0
  H  H370  1  0.203400  0.784000  0.722300  1.0
  H  H371  1  0.703400  0.716000  0.777700  1.0
  H  H372  1  0.796600  0.216000  0.222300  1.0
  H  H373  1  0.703400  0.716000  0.722300  1.0
  H  H374  1  0.796600  0.216000  0.277700  1.0
  H  H375  1  0.296600  0.284000  0.222300  1.0
  H  H376  1  0.203400  0.784000  0.777700  1.0
  H  H377  1  0.358100  0.323100  0.306700  1.0
  H  H378  1  0.141900  0.823100  0.693300  1.0
  H  H379  1  0.641900  0.676900  0.806700  1.0
  H  H380  1  0.858100  0.176900  0.193300  1.0
  H  H381  1  0.641900  0.676900  0.693300  1.0
  H  H382  1  0.858100  0.176900  0.306700  1.0
  H  H383  1  0.358100  0.323100  0.193300  1.0
  H  H384  1  0.141900  0.823100  0.806700  1.0
  H  H385  1  0.206600  0.421700  0.305600  1.0
  H  H386  1  0.293400  0.921700  0.694400  1.0
  H  H387  1  0.793400  0.578300  0.805600  1.0
  H  H388  1  0.706600  0.078300  0.194400  1.0
  H  H389  1  0.793400  0.578300  0.694400  1.0
  H  H390  1  0.706600  0.078300  0.305600  1.0
  H  H391  1  0.206600  0.421700  0.194400  1.0
  H  H392  1  0.293400  0.921700  0.805600  1.0
  H  H393  1  0.145200  0.382500  0.276600  1.0
  H  H394  1  0.354800  0.882500  0.723400  1.0
  H  H395  1  0.854800  0.617500  0.776600  1.0
  H  H396  1  0.645200  0.117500  0.223400  1.0
  H  H397  1  0.854800  0.617500  0.723400  1.0
  H  H398  1  0.645200  0.117500  0.276600  1.0
  H  H399  1  0.145200  0.382500  0.223400  1.0
  H  H400  1  0.354800  0.882500  0.776600  1.0
  H  H401  1  0.181200  0.218600  0.215600  1.0
  H  H402  1  0.318800  0.718600  0.784400  1.0
  H  H403  1  0.818800  0.781400  0.715600  1.0
  H  H404  1  0.681200  0.281400  0.284400  1.0
  H  H405  1  0.818800  0.781400  0.784400  1.0
  H  H406  1  0.681200  0.281400  0.215600  1.0
  H  H407  1  0.181200  0.218600  0.284400  1.0
  H  H408  1  0.318800  0.718600  0.715600  1.0
  H  H409  1  0.125200  0.192100  0.182100  1.0
  H  H410  1  0.374800  0.692100  0.817900  1.0
  H  H411  1  0.874800  0.807900  0.682100  1.0
  H  H412  1  0.625200  0.307900  0.317900  1.0
  H  H413  1  0.874800  0.807900  0.817900  1.0
  H  H414  1  0.625200  0.307900  0.182100  1.0
  H  H415  1  0.125200  0.192100  0.317900  1.0
  H  H416  1  0.374800  0.692100  0.682100  1.0
  H  H417  1  0.958600  0.277400  0.193500  1.0
  H  H418  1  0.541400  0.777400  0.806500  1.0
  H  H419  1  0.041400  0.722600  0.693500  1.0
  H  H420  1  0.458600  0.222600  0.306500  1.0
  H  H421  1  0.041400  0.722600  0.806500  1.0
  H  H422  1  0.458600  0.222600  0.193500  1.0
  H  H423  1  0.958600  0.277400  0.306500  1.0
  H  H424  1  0.541400  0.777400  0.693500  1.0
  H  H425  1  0.014600  0.304000  0.227000  1.0
  H  H426  1  0.485400  0.804000  0.773000  1.0
  H  H427  1  0.985400  0.696000  0.727000  1.0
  H  H428  1  0.514600  0.196000  0.273000  1.0
  H  H429  1  0.985400  0.696000  0.773000  1.0
  H  H430  1  0.514600  0.196000  0.227000  1.0
  H  H431  1  0.014600  0.304000  0.273000  1.0
  H  H432  1  0.485400  0.804000  0.727000  1.0
  H  H433  1  0.873800  0.237900  0.129000  1.0
  H  H434  1  0.626200  0.737900  0.871000  1.0
  H  H435  1  0.126200  0.762100  0.629000  1.0
  H  H436  1  0.373800  0.262100  0.371000  1.0
  H  H437  1  0.126200  0.762100  0.871000  1.0
  H  H438  1  0.373800  0.262100  0.129000  1.0
  H  H439  1  0.873800  0.237900  0.371000  1.0
  H  H440  1  0.626200  0.737900  0.629000  1.0
  H  H441  1  0.922900  0.194100  0.127300  1.0
  H  H442  1  0.577100  0.694100  0.872700  1.0
  H  H443  1  0.077100  0.805900  0.627300  1.0
  H  H444  1  0.422900  0.305900  0.372700  1.0
  H  H445  1  0.077100  0.805900  0.872700  1.0
  H  H446  1  0.422900  0.305900  0.127300  1.0
  H  H447  1  0.922900  0.194100  0.372700  1.0
  H  H448  1  0.577100  0.694100  0.627300  1.0
  H  H449  1  0.969100  0.314700  0.123100  1.0
  H  H450  1  0.530900  0.814700  0.876900  1.0
  H  H451  1  0.030900  0.685300  0.623100  1.0
  H  H452  1  0.469100  0.185300  0.376900  1.0
  H  H453  1  0.030900  0.685300  0.876900  1.0
  H  H454  1  0.469100  0.185300  0.123100  1.0
  H  H455  1  0.969100  0.314700  0.376900  1.0
  H  H456  1  0.530900  0.814700  0.623100  1.0
  H  H457  1  0.024800  0.348600  0.091400  1.0
  H  H458  1  0.475200  0.848600  0.908600  1.0
  H  H459  1  0.975200  0.651400  0.591400  1.0
  H  H460  1  0.524800  0.151400  0.408600  1.0
  H  H461  1  0.975200  0.651400  0.908600  1.0
  H  H462  1  0.524800  0.151400  0.091400  1.0
  H  H463  1  0.024800  0.348600  0.408600  1.0
  H  H464  1  0.475200  0.848600  0.591400  1.0
  H  H465  1  0.034500  0.226300  0.059500  1.0
  H  H466  1  0.465500  0.726300  0.940500  1.0
  H  H467  1  0.965500  0.773700  0.559500  1.0
  H  H468  1  0.534500  0.273700  0.440500  1.0
  H  H469  1  0.965500  0.773700  0.940500  1.0
  H  H470  1  0.534500  0.273700  0.059500  1.0
  H  H471  1  0.034500  0.226300  0.440500  1.0
  H  H472  1  0.465500  0.726300  0.559500  1.0
  H  H473  1  0.978700  0.192400  0.091200  1.0
  H  H474  1  0.521300  0.692400  0.908800  1.0
  H  H475  1  0.021300  0.807600  0.591200  1.0
  H  H476  1  0.478700  0.307600  0.408800  1.0
  H  H477  1  0.021300  0.807600  0.908800  1.0
  H  H478  1  0.478700  0.307600  0.091200  1.0
  H  H479  1  0.978700  0.192400  0.408800  1.0
  H  H480  1  0.521300  0.692400  0.591200  1.0
  H  H481  1  0.090500  0.287600  0.040500  1.0
  H  H482  1  0.409500  0.787600  0.959500  1.0
  H  H483  1  0.909500  0.712400  0.540500  1.0
  H  H484  1  0.590500  0.212400  0.459500  1.0
  H  H485  1  0.909500  0.712400  0.959500  1.0
  H  H486  1  0.590500  0.212400  0.040500  1.0
  H  H487  1  0.090500  0.287600  0.459500  1.0
  H  H488  1  0.409500  0.787600  0.540500  1.0
  H  H489  1  0.034800  0.328300  0.041200  1.0
  H  H490  1  0.465200  0.828300  0.958800  1.0
  H  H491  1  0.965200  0.671700  0.541200  1.0
  H  H492  1  0.534800  0.171700  0.458800  1.0
  H  H493  1  0.965200  0.671700  0.958800  1.0
  H  H494  1  0.534800  0.171700  0.041200  1.0
  H  H495  1  0.034800  0.328300  0.458800  1.0
  H  H496  1  0.465200  0.828300  0.541200  1.0
  H  H497  1  0.273000  0.470500  0.082800  1.0
  H  H498  1  0.227000  0.970500  0.917200  1.0
  H  H499  1  0.727000  0.529500  0.582800  1.0
  H  H500  1  0.773000  0.029500  0.417200  1.0
  H  H501  1  0.727000  0.529500  0.917200  1.0
  H  H502  1  0.773000  0.029500  0.082800  1.0
  H  H503  1  0.273000  0.470500  0.417200  1.0
  H  H504  1  0.227000  0.970500  0.582800  1.0
  H  H505  1  0.183800  0.420700  0.070000  1.0
  H  H506  1  0.316200  0.920700  0.930000  1.0
  H  H507  1  0.816200  0.579300  0.570000  1.0
  H  H508  1  0.683800  0.079300  0.430000  1.0
  H  H509  1  0.816200  0.579300  0.930000  1.0
  H  H510  1  0.683800  0.079300  0.070000  1.0
  H  H511  1  0.183800  0.420700  0.430000  1.0
  H  H512  1  0.316200  0.920700  0.570000  1.0
  H  H513  1  0.327500  0.317500  0.070000  1.0
  H  H514  1  0.172500  0.817500  0.930000  1.0
  H  H515  1  0.672500  0.682500  0.570000  1.0
  H  H516  1  0.827500  0.182500  0.430000  1.0
  H  H517  1  0.672500  0.682500  0.930000  1.0
  H  H518  1  0.827500  0.182500  0.070000  1.0
  H  H519  1  0.327500  0.317500  0.430000  1.0
  H  H520  1  0.172500  0.817500  0.570000  1.0
  H  H521  1  0.416700  0.367400  0.082800  1.0
  H  H522  1  0.083300  0.867400  0.917200  1.0
  H  H523  1  0.583300  0.632600  0.582800  1.0
  H  H524  1  0.916700  0.132600  0.417200  1.0
  H  H525  1  0.583300  0.632600  0.917200  1.0
  H  H526  1  0.916700  0.132600  0.082800  1.0
  H  H527  1  0.416700  0.367400  0.417200  1.0
  H  H528  1  0.083300  0.867400  0.582800  1.0
  Pd  Pd529  1  0.160840  0.295360  0.250000  1
  Pd  Pd530  1  0.339160  0.795360  0.750000  1
  Pd  Pd531  1  0.839160  0.704640  0.750000  1
  Pd  Pd532  1  0.660840  0.204640  0.250000  1
  Pd  Pd533  1  0.844520  0.707300  0.345670  1.0
  Pd  Pd534  1  0.655480  0.207300  0.654330  1.0
  Pd  Pd535  1  0.155480  0.292700  0.845670  1.0
  Pd  Pd536  1  0.344520  0.792700  0.154330  1.0
  Pd  Pd537  1  0.155480  0.292700  0.654330  1.0
  Pd  Pd538  1  0.344520  0.792700  0.345670  1.0
  Pd  Pd539  1  0.844520  0.707300  0.154330  1.0
  Pd  Pd540  1  0.655480  0.207300  0.845670  1.0
  Pd  Pd541  1  0.423930  0.463630  0.398660  1.0
  Pd  Pd542  1  0.076070  0.963630  0.601340  1.0
  Pd  Pd543  1  0.576070  0.536370  0.898660  1.0
  Pd  Pd544  1  0.923930  0.036370  0.101340  1.0
  Pd  Pd545  1  0.576070  0.536370  0.601340  1.0
  Pd  Pd546  1  0.923930  0.036370  0.398660  1.0
  Pd  Pd547  1  0.423930  0.463630  0.101340  1.0
  Pd  Pd548  1  0.076070  0.963630  0.898660  1.0
  C  C549  1  0.132000  0.740300  0.430400  1
  C  C550  1  0.368000  0.240300  0.569600  1
  C  C551  1  0.868000  0.259700  0.930400  1
  C  C552  1  0.632000  0.759700  0.069600  1
  C  C553  1  0.868000  0.259700  0.569600  1
  C  C554  1  0.632000  0.759700  0.430400  1
  C  C555  1  0.132000  0.740300  0.069600  1
  C  C556  1  0.368000  0.240300  0.930400  1
  C  C557  1  0.171200  0.671000  0.408800  1
  C  C558  1  0.328800  0.171000  0.591200  1
  C  C559  1  0.828800  0.329000  0.908800  1
  C  C560  1  0.671200  0.829000  0.091200  1
  C  C561  1  0.828800  0.329000  0.591200  1
  C  C562  1  0.671200  0.829000  0.408800  1
  C  C563  1  0.171200  0.671000  0.091200  1
  C  C564  1  0.328800  0.171000  0.908800  1
  C  C565  1  0.162500  0.902700  0.263230  1.0
  C  C566  1  0.337500  0.402700  0.736770  1.0
  C  C567  1  0.837500  0.097300  0.763230  1.0
  C  C568  1  0.662500  0.597300  0.236770  1.0
  C  C569  1  0.837500  0.097300  0.736770  1.0
  C  C570  1  0.662500  0.597300  0.263230  1.0
  C  C571  1  0.162500  0.902700  0.236770  1.0
  C  C572  1  0.337500  0.402700  0.763230  1.0
  C  C573  1  0.114600  0.922800  0.274900  1.0
  C  C574  1  0.385400  0.422800  0.725100  1.0
  C  C575  1  0.885400  0.077200  0.774900  1.0
  C  C576  1  0.614600  0.577200  0.225100  1.0
  C  C577  1  0.885400  0.077200  0.725100  1.0
  C  C578  1  0.614600  0.577200  0.274900  1.0
  C  C579  1  0.114600  0.922800  0.225100  1.0
  C  C580  1  0.385400  0.422800  0.774900  1.0
  C  C581  1  0.064300  0.945100  0.262900  1.0
  C  C582  1  0.435700  0.445100  0.737100  1.0
  C  C583  1  0.935700  0.054900  0.762900  1.0
  C  C584  1  0.564300  0.554900  0.237100  1.0
  C  C585  1  0.935700  0.054900  0.737100  1.0
  C  C586  1  0.564300  0.554900  0.262900  1.0
  C  C587  1  0.064300  0.945100  0.237100  1.0
  C  C588  1  0.435700  0.445100  0.762900  1.0
  C  C589  1  0.114800  0.924400  0.300480  1.0
  C  C590  1  0.385200  0.424400  0.699520  1.0
  C  C591  1  0.885200  0.075600  0.800480  1.0
  C  C592  1  0.614800  0.575600  0.199520  1.0
  C  C593  1  0.885200  0.075600  0.699520  1.0
  C  C594  1  0.614800  0.575600  0.300480  1.0
  C  C595  1  0.114800  0.924400  0.199520  1.0
  C  C596  1  0.385200  0.424400  0.800480  1.0
  C  C597  1  0.083300  0.848800  0.313800  1.0
  C  C598  1  0.416700  0.348800  0.686200  1.0
  C  C599  1  0.916700  0.151200  0.813800  1.0
  C  C600  1  0.583300  0.651200  0.186200  1.0
  C  C601  1  0.916700  0.151200  0.686200  1.0
  C  C602  1  0.583300  0.651200  0.313800  1.0
  C  C603  1  0.083300  0.848800  0.186200  1.0
  C  C604  1  0.416700  0.348800  0.813800  1.0
  C  C605  1  0.903400  0.798500  0.334930  1.0
  C  C606  1  0.596600  0.298500  0.665070  1.0
  C  C607  1  0.096600  0.201500  0.834930  1.0
  C  C608  1  0.403400  0.701500  0.165070  1.0
  C  C609  1  0.096600  0.201500  0.665070  1.0
  C  C610  1  0.403400  0.701500  0.334930  1.0
  C  C611  1  0.903400  0.798500  0.165070  1.0
  C  C612  1  0.596600  0.298500  0.834930  1.0
  C  C613  1  0.951100  0.829000  0.327390  1.0
  C  C614  1  0.548900  0.329000  0.672610  1.0
  C  C615  1  0.048900  0.171000  0.827390  1.0
  C  C616  1  0.451100  0.671000  0.172610  1.0
  C  C617  1  0.048900  0.171000  0.672610  1.0
  C  C618  1  0.451100  0.671000  0.327390  1.0
  C  C619  1  0.951100  0.829000  0.172610  1.0
  C  C620  1  0.548900  0.329000  0.827390  1.0
  C  C621  1  0.024400  0.815900  0.324270  1.0
  C  C622  1  0.475600  0.315900  0.675730  1.0
  C  C623  1  0.975600  0.184100  0.824270  1.0
  C  C624  1  0.524400  0.684100  0.175730  1.0
  C  C625  1  0.975600  0.184100  0.675730  1.0
  C  C626  1  0.524400  0.684100  0.324270  1.0
  C  C627  1  0.024400  0.815900  0.175730  1.0
  C  C628  1  0.475600  0.315900  0.824270  1.0
  C  C629  1  0.043000  0.772100  0.329420  1.0
  C  C630  1  0.457000  0.272100  0.670580  1.0
  C  C631  1  0.957000  0.227900  0.829420  1.0
  C  C632  1  0.543000  0.727900  0.170580  1.0
  C  C633  1  0.957000  0.227900  0.670580  1.0
  C  C634  1  0.543000  0.727900  0.329420  1.0
  C  C635  1  0.043000  0.772100  0.170580  1.0
  C  C636  1  0.457000  0.272100  0.829420  1.0
  C  C637  1  0.991400  0.741800  0.337220  1.0
  C  C638  1  0.508600  0.241800  0.662780  1.0
  C  C639  1  0.008600  0.258200  0.837220  1.0
  C  C640  1  0.491400  0.758200  0.162780  1.0
  C  C641  1  0.008600  0.258200  0.662780  1.0
  C  C642  1  0.491400  0.758200  0.337220  1.0
  C  C643  1  0.991400  0.741800  0.162780  1.0
  C  C644  1  0.508600  0.241800  0.837220  1.0
  C  C645  1  0.880900  0.674900  0.299320  1.0
  C  C646  1  0.619100  0.174900  0.700680  1.0
  C  C647  1  0.119100  0.325100  0.799320  1.0
  C  C648  1  0.380900  0.825100  0.200680  1.0
  C  C649  1  0.119100  0.325100  0.700680  1.0
  C  C650  1  0.380900  0.825100  0.299320  1.0
  C  C651  1  0.880900  0.674900  0.200680  1.0
  C  C652  1  0.619100  0.174900  0.799320  1.0
  C  C653  1  0.878700  0.670200  0.275540  1.0
  C  C654  1  0.621300  0.170200  0.724460  1.0
  C  C655  1  0.121300  0.329800  0.775540  1.0
  C  C656  1  0.378700  0.829800  0.224460  1.0
  C  C657  1  0.121300  0.329800  0.724460  1.0
  C  C658  1  0.378700  0.829800  0.275540  1.0
  C  C659  1  0.878700  0.670200  0.224460  1.0
  C  C660  1  0.621300  0.170200  0.775540  1.0
  C  C661  1  0.827600  0.694000  0.262810  1.0
  C  C662  1  0.672400  0.194000  0.737190  1.0
  C  C663  1  0.172400  0.306000  0.762810  1.0
  C  C664  1  0.327600  0.806000  0.237190  1.0
  C  C665  1  0.172400  0.306000  0.737190  1.0
  C  C666  1  0.327600  0.806000  0.262810  1.0
  C  C667  1  0.827600  0.694000  0.237190  1.0
  C  C668  1  0.672400  0.194000  0.762810  1.0
  C  C669  1  0.778500  0.715300  0.275850  1.0
  C  C670  1  0.721500  0.215300  0.724150  1.0
  C  C671  1  0.221500  0.284700  0.775850  1.0
  C  C672  1  0.278500  0.784700  0.224150  1.0
  C  C673  1  0.221500  0.284700  0.724150  1.0
  C  C674  1  0.278500  0.784700  0.275850  1.0
  C  C675  1  0.778500  0.715300  0.224150  1.0
  C  C676  1  0.721500  0.215300  0.775850  1.0
  C  C677  1  0.784500  0.718700  0.298860  1.0
  C  C678  1  0.715500  0.218700  0.701140  1.0
  C  C679  1  0.215500  0.281300  0.798860  1.0
  C  C680  1  0.284500  0.781300  0.201140  1.0
  C  C681  1  0.215500  0.281300  0.701140  1.0
  C  C682  1  0.284500  0.781300  0.298860  1.0
  C  C683  1  0.784500  0.718700  0.201140  1.0
  C  C684  1  0.715500  0.218700  0.798860  1.0
  C  C685  1  0.770900  0.617500  0.345480  1.0
  C  C686  1  0.729100  0.117500  0.654520  1.0
  C  C687  1  0.229100  0.382500  0.845480  1.0
  C  C688  1  0.270900  0.882500  0.154520  1.0
  C  C689  1  0.229100  0.382500  0.654520  1.0
  C  C690  1  0.270900  0.882500  0.345480  1.0
  C  C691  1  0.770900  0.617500  0.154520  1.0
  C  C692  1  0.729100  0.117500  0.845480  1.0
  C  C693  1  0.718800  0.587300  0.350040  1.0
  C  C694  1  0.781200  0.087300  0.649960  1.0
  C  C695  1  0.281200  0.412700  0.850040  1.0
  C  C696  1  0.218800  0.912700  0.149960  1.0
  C  C697  1  0.281200  0.412700  0.649960  1.0
  C  C698  1  0.218800  0.912700  0.350040  1.0
  C  C699  1  0.718800  0.587300  0.149960  1.0
  C  C700  1  0.781200  0.087300  0.850040  1.0
  C  C701  1  0.656700  0.600000  0.361320  1.0
  C  C702  1  0.843300  0.100000  0.638680  1.0
  C  C703  1  0.343300  0.400000  0.861320  1.0
  C  C704  1  0.156700  0.900000  0.138680  1.0
  C  C705  1  0.343300  0.400000  0.638680  1.0
  C  C706  1  0.156700  0.900000  0.361320  1.0
  C  C707  1  0.656700  0.600000  0.138680  1.0
  C  C708  1  0.843300  0.100000  0.861320  1.0
  C  C709  1  0.650700  0.643700  0.366970  1.0
  C  C710  1  0.849300  0.143700  0.633030  1.0
  C  C711  1  0.349300  0.356300  0.866970  1.0
  C  C712  1  0.150700  0.856300  0.133030  1.0
  C  C713  1  0.349300  0.356300  0.633030  1.0
  C  C714  1  0.150700  0.856300  0.366970  1.0
  C  C715  1  0.650700  0.643700  0.133030  1.0
  C  C716  1  0.849300  0.143700  0.866970  1.0
  C  C717  1  0.703800  0.675900  0.361920  1.0
  C  C718  1  0.796200  0.175900  0.638080  1.0
  C  C719  1  0.296200  0.324100  0.861920  1.0
  C  C720  1  0.203800  0.824100  0.138080  1.0
  C  C721  1  0.296200  0.324100  0.638080  1.0
  C  C722  1  0.203800  0.824100  0.361920  1.0
  C  C723  1  0.703800  0.675900  0.138080  1.0
  C  C724  1  0.796200  0.175900  0.861920  1.0
  C  C725  1  0.567700  0.490600  0.378570  1.0
  C  C726  1  0.932300  0.990600  0.621430  1.0
  C  C727  1  0.432300  0.509400  0.878570  1.0
  C  C728  1  0.067700  0.009400  0.121430  1.0
  C  C729  1  0.432300  0.509400  0.621430  1.0
  C  C730  1  0.067700  0.009400  0.378570  1.0
  C  C731  1  0.567700  0.490600  0.121430  1.0
  C  C732  1  0.932300  0.990600  0.878570  1.0
  C  C733  1  0.616400  0.518000  0.370450  1.0
  C  C734  1  0.883600  0.018000  0.629550  1.0
  C  C735  1  0.383600  0.482000  0.870450  1.0
  C  C736  1  0.116400  0.982000  0.129550  1.0
  C  C737  1  0.383600  0.482000  0.629550  1.0
  C  C738  1  0.116400  0.982000  0.370450  1.0
  C  C739  1  0.616400  0.518000  0.129550  1.0
  C  C740  1  0.883600  0.018000  0.870450  1.0
  C  C741  1  0.599300  0.565700  0.367220  1.0
  C  C742  1  0.900700  0.065700  0.632780  1.0
  C  C743  1  0.400700  0.434300  0.867220  1.0
  C  C744  1  0.099300  0.934300  0.132780  1.0
  C  C745  1  0.400700  0.434300  0.632780  1.0
  C  C746  1  0.099300  0.934300  0.367220  1.0
  C  C747  1  0.599300  0.565700  0.132780  1.0
  C  C748  1  0.900700  0.065700  0.867220  1.0
  C  C749  1  0.530400  0.577900  0.371090  1.0
  C  C750  1  0.969600  0.077900  0.628910  1.0
  C  C751  1  0.469600  0.422100  0.871090  1.0
  C  C752  1  0.030400  0.922100  0.128910  1.0
  C  C753  1  0.469600  0.422100  0.628910  1.0
  C  C754  1  0.030400  0.922100  0.371090  1.0
  C  C755  1  0.530400  0.577900  0.128910  1.0
  C  C756  1  0.969600  0.077900  0.871090  1.0
  C  C757  1  0.479500  0.548600  0.378800  1.0
  C  C758  1  0.020500  0.048600  0.621200  1.0
  C  C759  1  0.520500  0.451400  0.878800  1.0
  C  C760  1  0.979500  0.951400  0.121200  1.0
  C  C761  1  0.520500  0.451400  0.621200  1.0
  C  C762  1  0.979500  0.951400  0.378800  1.0
  C  C763  1  0.479500  0.548600  0.121200  1.0
  C  C764  1  0.020500  0.048600  0.878800  1.0
  C  C765  1  0.830800  0.751600  0.391390  1.0
  C  C766  1  0.669200  0.251600  0.608610  1.0
  C  C767  1  0.169200  0.248400  0.891390  1.0
  C  C768  1  0.330800  0.748400  0.108610  1.0
  C  C769  1  0.169200  0.248400  0.608610  1.0
  C  C770  1  0.330800  0.748400  0.391390  1.0
  C  C771  1  0.830800  0.751600  0.108610  1.0
  C  C772  1  0.669200  0.251600  0.891390  1.0
  C  C773  1  0.823800  0.754700  0.415340  1.0
  C  C774  1  0.676200  0.254700  0.584660  1.0
  C  C775  1  0.176200  0.245300  0.915340  1.0
  C  C776  1  0.323800  0.745300  0.084660  1.0
  C  C777  1  0.176200  0.245300  0.584660  1.0
  C  C778  1  0.323800  0.745300  0.415340  1.0
  C  C779  1  0.823800  0.754700  0.084660  1.0
  C  C780  1  0.676200  0.254700  0.915340  1.0
  C  C781  1  0.845600  0.715900  0.428010  1.0
  C  C782  1  0.654400  0.215900  0.571990  1.0
  C  C783  1  0.154400  0.284100  0.928010  1.0
  C  C784  1  0.345600  0.784100  0.071990  1.0
  C  C785  1  0.154400  0.284100  0.571990  1.0
  C  C786  1  0.345600  0.784100  0.428010  1.0
  C  C787  1  0.845600  0.715900  0.071990  1.0
  C  C788  1  0.654400  0.215900  0.928010  1.0
  C  C789  1  0.866600  0.680000  0.417390  1.0
  C  C790  1  0.633400  0.180000  0.582610  1.0
  C  C791  1  0.133400  0.320000  0.917390  1.0
  C  C792  1  0.366600  0.820000  0.082610  1.0
  C  C793  1  0.133400  0.320000  0.582610  1.0
  C  C794  1  0.366600  0.820000  0.417390  1.0
  C  C795  1  0.866600  0.680000  0.082610  1.0
  C  C796  1  0.633400  0.180000  0.917390  1.0
  C  C797  1  0.872900  0.678600  0.393070  1.0
  C  C798  1  0.627100  0.178600  0.606930  1.0
  C  C799  1  0.127100  0.321400  0.893070  1.0
  C  C800  1  0.372900  0.821400  0.106930  1.0
  C  C801  1  0.127100  0.321400  0.606930  1.0
  C  C802  1  0.372900  0.821400  0.393070  1.0
  C  C803  1  0.872900  0.678600  0.106930  1.0
  C  C804  1  0.627100  0.178600  0.893070  1.0
  C  C805  1  0.832500  0.718900  0.453990  1.0
  C  C806  1  0.667500  0.218900  0.546010  1.0
  C  C807  1  0.167500  0.281100  0.953990  1.0
  C  C808  1  0.332500  0.781100  0.046010  1.0
  C  C809  1  0.167500  0.281100  0.546010  1.0
  C  C810  1  0.332500  0.781100  0.453990  1.0
  C  C811  1  0.832500  0.718900  0.046010  1.0
  C  C812  1  0.667500  0.218900  0.953990  1.0
  C  C813  1  0.859300  0.687500  0.493210  1.0
  C  C814  1  0.640700  0.187500  0.506790  1.0
  C  C815  1  0.140700  0.312500  0.993210  1.0
  C  C816  1  0.359300  0.812500  0.006790  1.0
  C  C817  1  0.140700  0.312500  0.506790  1.0
  C  C818  1  0.359300  0.812500  0.493210  1.0
  C  C819  1  0.859300  0.687500  0.006790  1.0
  C  C820  1  0.640700  0.187500  0.993210  1.0
  C  C821  1  0.807500  0.652100  0.499060  1.0
  C  C822  1  0.692500  0.152100  0.500940  1.0
  C  C823  1  0.192500  0.347900  0.999060  1.0
  C  C824  1  0.307500  0.847900  0.000940  1.0
  C  C825  1  0.192500  0.347900  0.500940  1.0
  C  C826  1  0.307500  0.847900  0.499060  1.0
  C  C827  1  0.807500  0.652100  0.000940  1.0
  C  C828  1  0.692500  0.152100  0.999060  1.0
  C  C829  1  0.738100  0.666000  0.505090  1.0
  C  C830  1  0.761900  0.166000  0.494910  1.0
  C  C831  1  0.261900  0.334000  0.005090  1.0
  C  C832  1  0.238100  0.834000  0.994910  1.0
  C  C833  1  0.261900  0.334000  0.494910  1.0
  C  C834  1  0.238100  0.834000  0.505090  1.0
  C  C835  1  0.738100  0.666000  0.994910  1.0
  C  C836  1  0.761900  0.166000  0.005090  1.0
  C  C837  1  0.686900  0.633700  0.511630  1.0
  C  C838  1  0.813100  0.133700  0.488370  1.0
  C  C839  1  0.313100  0.366300  0.011630  1.0
  C  C840  1  0.186900  0.866300  0.988370  1.0
  C  C841  1  0.313100  0.366300  0.488370  1.0
  C  C842  1  0.186900  0.866300  0.511630  1.0
  C  C843  1  0.686900  0.633700  0.988370  1.0
  C  C844  1  0.813100  0.133700  0.011630  1.0
  C  C845  1  0.704900  0.587500  0.512140  1.0
  C  C846  1  0.795100  0.087500  0.487860  1.0
  C  C847  1  0.295100  0.412500  0.012140  1.0
  C  C848  1  0.204900  0.912500  0.987860  1.0
  C  C849  1  0.295100  0.412500  0.487860  1.0
  C  C850  1  0.204900  0.912500  0.512140  1.0
  C  C851  1  0.704900  0.587500  0.987860  1.0
  C  C852  1  0.795100  0.087500  0.012140  1.0
  C  C853  1  0.774300  0.573630  0.506110  1.0
  C  C854  1  0.725700  0.073630  0.493890  1.0
  C  C855  1  0.225700  0.426370  0.006110  1.0
  C  C856  1  0.274300  0.926370  0.993890  1.0
  C  C857  1  0.225700  0.426370  0.493890  1.0
  C  C858  1  0.274300  0.926370  0.506110  1.0
  C  C859  1  0.774300  0.573630  0.993890  1.0
  C  C860  1  0.725700  0.073630  0.006110  1.0
  C  C861  1  0.825600  0.605900  0.499570  1.0
  C  C862  1  0.674400  0.105900  0.500430  1.0
  C  C863  1  0.174400  0.394100  0.999570  1.0
  C  C864  1  0.325600  0.894100  0.000430  1.0
  C  C865  1  0.174400  0.394100  0.500430  1.0
  C  C866  1  0.325600  0.894100  0.499570  1.0
  C  C867  1  0.825600  0.605900  0.000430  1.0
  C  C868  1  0.674400  0.105900  0.999570  1.0
  C  C869  1  0.651700  0.551500  0.519730  1.0
  C  C870  1  0.848300  0.051500  0.480270  1.0
  C  C871  1  0.348300  0.448500  0.019730  1.0
  C  C872  1  0.151700  0.948500  0.980270  1.0
  C  C873  1  0.348300  0.448500  0.480270  1.0
  C  C874  1  0.151700  0.948500  0.519730  1.0
  C  C875  1  0.651700  0.551500  0.980270  1.0
  C  C876  1  0.848300  0.051500  0.019730  1.0
  C  C877  1  0.555700  0.549200  0.489720  1.0
  C  C878  1  0.944300  0.049200  0.510280  1.0
  C  C879  1  0.444300  0.450800  0.989720  1.0
  C  C880  1  0.055700  0.950800  0.010280  1.0
  C  C881  1  0.444300  0.450800  0.510280  1.0
  C  C882  1  0.055700  0.950800  0.489720  1.0
  C  C883  1  0.555700  0.549200  0.010280  1.0
  C  C884  1  0.944300  0.049200  0.989720  1.0
  C  C885  1  0.515100  0.466200  0.440140  1.0
  C  C886  1  0.984900  0.966200  0.559860  1.0
  C  C887  1  0.484900  0.533800  0.940140  1.0
  C  C888  1  0.015100  0.033800  0.059860  1.0
  C  C889  1  0.484900  0.533800  0.559860  1.0
  C  C890  1  0.015100  0.033800  0.440140  1.0
  C  C891  1  0.515100  0.466200  0.059860  1.0
  C  C892  1  0.984900  0.966200  0.940140  1.0
  C  C893  1  0.545900  0.483900  0.459990  1.0
  C  C894  1  0.954100  0.983900  0.540010  1.0
  C  C895  1  0.454100  0.516100  0.959990  1.0
  C  C896  1  0.045900  0.016100  0.040010  1.0
  C  C897  1  0.454100  0.516100  0.540010  1.0
  C  C898  1  0.045900  0.016100  0.459990  1.0
  C  C899  1  0.545900  0.483900  0.040010  1.0
  C  C900  1  0.954100  0.983900  0.959990  1.0
  C  C901  1  0.522600  0.525200  0.468160  1.0
  C  C902  1  0.977400  0.025200  0.531840  1.0
  C  C903  1  0.477400  0.474800  0.968160  1.0
  C  C904  1  0.022600  0.974800  0.031840  1.0
  C  C905  1  0.477400  0.474800  0.531840  1.0
  C  C906  1  0.022600  0.974800  0.468160  1.0
  C  C907  1  0.522600  0.525200  0.031840  1.0
  C  C908  1  0.977400  0.025200  0.968160  1.0
  C  C909  1  0.469100  0.547600  0.457100  1.0
  C  C910  1  0.030900  0.047600  0.542900  1.0
  C  C911  1  0.530900  0.452400  0.957100  1.0
  C  C912  1  0.969100  0.952400  0.042900  1.0
  C  C913  1  0.530900  0.452400  0.542900  1.0
  C  C914  1  0.969100  0.952400  0.457100  1.0
  C  C915  1  0.469100  0.547600  0.042900  1.0
  C  C916  1  0.030900  0.047600  0.957100  1.0
  C  C917  1  0.440900  0.529200  0.436760  1.0
  C  C918  1  0.059100  0.029200  0.563240  1.0
  C  C919  1  0.559100  0.470800  0.936760  1.0
  C  C920  1  0.940900  0.970800  0.063240  1.0
  C  C921  1  0.559100  0.470800  0.563240  1.0
  C  C922  1  0.940900  0.970800  0.436760  1.0
  C  C923  1  0.440900  0.529200  0.063240  1.0
  C  C924  1  0.059100  0.029200  0.936760  1.0
  C  C925  1  0.421100  0.404130  0.356440  1.0
  C  C926  1  0.078900  0.904130  0.643560  1.0
  C  C927  1  0.578900  0.595870  0.856440  1.0
  C  C928  1  0.921100  0.095870  0.143560  1.0
  C  C929  1  0.578900  0.595870  0.643560  1.0
  C  C930  1  0.921100  0.095870  0.356440  1.0
  C  C931  1  0.421100  0.404130  0.143560  1.0
  C  C932  1  0.078900  0.904130  0.856440  1.0
  C  C933  1  0.389500  0.384350  0.336970  1.0
  C  C934  1  0.110500  0.884350  0.663030  1.0
  C  C935  1  0.610500  0.615650  0.836970  1.0
  C  C936  1  0.889500  0.115650  0.163030  1.0
  C  C937  1  0.610500  0.615650  0.663030  1.0
  C  C938  1  0.889500  0.115650  0.336970  1.0
  C  C939  1  0.389500  0.384350  0.163030  1.0
  C  C940  1  0.110500  0.884350  0.836970  1.0
  C  C941  1  0.321200  0.398300  0.329800  1.0
  C  C942  1  0.178800  0.898300  0.670200  1.0
  C  C943  1  0.678800  0.601700  0.829800  1.0
  C  C944  1  0.821200  0.101700  0.170200  1.0
  C  C945  1  0.678800  0.601700  0.670200  1.0
  C  C946  1  0.821200  0.101700  0.329800  1.0
  C  C947  1  0.321200  0.398300  0.170200  1.0
  C  C948  1  0.178800  0.898300  0.829800  1.0
  C  C949  1  0.284500  0.432000  0.342110  1.0
  C  C950  1  0.215500  0.932000  0.657890  1.0
  C  C951  1  0.715500  0.568000  0.842110  1.0
  C  C952  1  0.784500  0.068000  0.157890  1.0
  C  C953  1  0.715500  0.568000  0.657890  1.0
  C  C954  1  0.784500  0.068000  0.342110  1.0
  C  C955  1  0.284500  0.432000  0.157890  1.0
  C  C956  1  0.215500  0.932000  0.842110  1.0
  C  C957  1  0.316100  0.451780  0.361590  1.0
  C  C958  1  0.183900  0.951780  0.638410  1.0
  C  C959  1  0.683900  0.548220  0.861590  1.0
  C  C960  1  0.816100  0.048220  0.138410  1.0
  C  C961  1  0.683900  0.548220  0.638410  1.0
  C  C962  1  0.816100  0.048220  0.361590  1.0
  C  C963  1  0.316100  0.451780  0.138410  1.0
  C  C964  1  0.183900  0.951780  0.861590  1.0
  C  C965  1  0.278600  0.311570  0.283310  1.0
  C  C966  1  0.221400  0.811570  0.716690  1.0
  C  C967  1  0.721400  0.688430  0.783310  1.0
  C  C968  1  0.778600  0.188430  0.216690  1.0
  C  C969  1  0.721400  0.688430  0.716690  1.0
  C  C970  1  0.778600  0.188430  0.283310  1.0
  C  C971  1  0.278600  0.311570  0.216690  1.0
  C  C972  1  0.221400  0.811570  0.783310  1.0
  C  C973  1  0.315400  0.335000  0.300670  1.0
  C  C974  1  0.184600  0.835000  0.699330  1.0
  C  C975  1  0.684600  0.665000  0.800670  1.0
  C  C976  1  0.815400  0.165000  0.199330  1.0
  C  C977  1  0.684600  0.665000  0.699330  1.0
  C  C978  1  0.815400  0.165000  0.300670  1.0
  C  C979  1  0.315400  0.335000  0.199330  1.0
  C  C980  1  0.184600  0.835000  0.800670  1.0
  C  C981  1  0.288500  0.376300  0.309030  1.0
  C  C982  1  0.211500  0.876300  0.690970  1.0
  C  C983  1  0.711500  0.623700  0.809030  1.0
  C  C984  1  0.788500  0.123700  0.190970  1.0
  C  C985  1  0.711500  0.623700  0.690970  1.0
  C  C986  1  0.788500  0.123700  0.309030  1.0
  C  C987  1  0.288500  0.376300  0.190970  1.0
  C  C988  1  0.211500  0.876300  0.809030  1.0
  C  C989  1  0.224700  0.394080  0.300030  1.0
  C  C990  1  0.275300  0.894080  0.699970  1.0
  C  C991  1  0.775300  0.605920  0.800030  1.0
  C  C992  1  0.724700  0.105920  0.199970  1.0
  C  C993  1  0.775300  0.605920  0.699970  1.0
  C  C994  1  0.724700  0.105920  0.300030  1.0
  C  C995  1  0.224700  0.394080  0.199970  1.0
  C  C996  1  0.275300  0.894080  0.800030  1.0
  C  C997  1  0.187800  0.370600  0.282670  1.0
  C  C998  1  0.312200  0.870600  0.717330  1.0
  C  C999  1  0.812200  0.629400  0.782670  1.0
  C  C1000  1  0.687800  0.129400  0.217330  1.0
  C  C1001  1  0.812200  0.629400  0.717330  1.0
  C  C1002  1  0.687800  0.129400  0.282670  1.0
  C  C1003  1  0.187800  0.370600  0.217330  1.0
  C  C1004  1  0.312200  0.870600  0.782670  1.0
  C  C1005  1  0.136600  0.230400  0.211170  1.0
  C  C1006  1  0.363400  0.730400  0.788830  1.0
  C  C1007  1  0.863400  0.769600  0.711170  1.0
  C  C1008  1  0.636600  0.269600  0.288830  1.0
  C  C1009  1  0.863400  0.769600  0.788830  1.0
  C  C1010  1  0.636600  0.269600  0.211170  1.0
  C  C1011  1  0.136600  0.230400  0.288830  1.0
  C  C1012  1  0.363400  0.730400  0.711170  1.0
  C  C1013  1  0.103000  0.214500  0.191110  1.0
  C  C1014  1  0.397000  0.714500  0.808890  1.0
  C  C1015  1  0.897000  0.785500  0.691110  1.0
  C  C1016  1  0.603000  0.285500  0.308890  1.0
  C  C1017  1  0.897000  0.785500  0.808890  1.0
  C  C1018  1  0.603000  0.285500  0.191110  1.0
  C  C1019  1  0.103000  0.214500  0.308890  1.0
  C  C1020  1  0.397000  0.714500  0.691110  1.0
  C  C1021  1  0.036400  0.232100  0.184490  1.0
  C  C1022  1  0.463600  0.732100  0.815510  1.0
  C  C1023  1  0.963600  0.767900  0.684490  1.0
  C  C1024  1  0.536400  0.267900  0.315510  1.0
  C  C1025  1  0.963600  0.767900  0.815510  1.0
  C  C1026  1  0.536400  0.267900  0.184490  1.0
  C  C1027  1  0.036400  0.232100  0.315510  1.0
  C  C1028  1  0.463600  0.732100  0.684490  1.0
  C  C1029  1  0.003200  0.265600  0.197930  1.0
  C  C1030  1  0.496800  0.765600  0.802070  1.0
  C  C1031  1  0.996800  0.734400  0.697930  1.0
  C  C1032  1  0.503200  0.234400  0.302070  1.0
  C  C1033  1  0.996800  0.734400  0.802070  1.0
  C  C1034  1  0.503200  0.234400  0.197930  1.0
  C  C1035  1  0.003200  0.265600  0.302070  1.0
  C  C1036  1  0.496800  0.765600  0.697930  1.0
  C  C1037  1  0.036700  0.281500  0.217990  1.0
  C  C1038  1  0.463300  0.781500  0.782010  1.0
  C  C1039  1  0.963300  0.718500  0.717990  1.0
  C  C1040  1  0.536700  0.218500  0.282010  1.0
  C  C1041  1  0.963300  0.718500  0.782010  1.0
  C  C1042  1  0.536700  0.218500  0.217990  1.0
  C  C1043  1  0.036700  0.281500  0.282010  1.0
  C  C1044  1  0.463300  0.781500  0.717990  1.0
  C  C1045  1  0.013000  0.213100  0.160300  1.0
  C  C1046  1  0.487000  0.713100  0.839700  1.0
  C  C1047  1  0.987000  0.786900  0.660300  1.0
  C  C1048  1  0.513000  0.286900  0.339700  1.0
  C  C1049  1  0.987000  0.786900  0.839700  1.0
  C  C1050  1  0.513000  0.286900  0.160300  1.0
  C  C1051  1  0.013000  0.213100  0.339700  1.0
  C  C1052  1  0.487000  0.713100  0.660300  1.0
  C  C1053  1  0.923300  0.227000  0.129670  1.0
  C  C1054  1  0.576700  0.727000  0.870330  1.0
  C  C1055  1  0.076700  0.773000  0.629670  1.0
  C  C1056  1  0.423300  0.273000  0.370330  1.0
  C  C1057  1  0.076700  0.773000  0.870330  1.0
  C  C1058  1  0.423300  0.273000  0.129670  1.0
  C  C1059  1  0.923300  0.227000  0.370330  1.0
  C  C1060  1  0.576700  0.727000  0.629670  1.0
  C  C1061  1  0.968400  0.250200  0.110320  1.0
  C  C1062  1  0.531600  0.750200  0.889680  1.0
  C  C1063  1  0.031600  0.749800  0.610320  1.0
  C  C1064  1  0.468400  0.249800  0.389680  1.0
  C  C1065  1  0.031600  0.749800  0.889680  1.0
  C  C1066  1  0.468400  0.249800  0.110320  1.0
  C  C1067  1  0.968400  0.250200  0.389680  1.0
  C  C1068  1  0.531600  0.750200  0.610320  1.0
  C  C1069  1  0.982200  0.297000  0.110360  1.0
  C  C1070  1  0.517800  0.797000  0.889640  1.0
  C  C1071  1  0.017800  0.703000  0.610360  1.0
  C  C1072  1  0.482200  0.203000  0.389640  1.0
  C  C1073  1  0.017800  0.703000  0.889640  1.0
  C  C1074  1  0.482200  0.203000  0.110360  1.0
  C  C1075  1  0.982200  0.297000  0.389640  1.0
  C  C1076  1  0.517800  0.797000  0.610360  1.0
  C  C1077  1  0.015600  0.317300  0.091340  1.0
  C  C1078  1  0.484400  0.817300  0.908660  1.0
  C  C1079  1  0.984400  0.682700  0.591340  1.0
  C  C1080  1  0.515600  0.182700  0.408660  1.0
  C  C1081  1  0.984400  0.682700  0.908660  1.0
  C  C1082  1  0.515600  0.182700  0.091340  1.0
  C  C1083  1  0.015600  0.317300  0.408660  1.0
  C  C1084  1  0.484400  0.817300  0.591340  1.0
  C  C1085  1  0.035200  0.290800  0.072280  1.0
  C  C1086  1  0.464800  0.790800  0.927720  1.0
  C  C1087  1  0.964800  0.709200  0.572280  1.0
  C  C1088  1  0.535200  0.209200  0.427720  1.0
  C  C1089  1  0.964800  0.709200  0.927720  1.0
  C  C1090  1  0.535200  0.209200  0.072280  1.0
  C  C1091  1  0.035200  0.290800  0.427720  1.0
  C  C1092  1  0.464800  0.790800  0.572280  1.0
  C  C1093  1  0.021400  0.244000  0.072240  1.0
  C  C1094  1  0.478600  0.744000  0.927760  1.0
  C  C1095  1  0.978600  0.756000  0.572240  1.0
  C  C1096  1  0.521400  0.256000  0.427760  1.0
  C  C1097  1  0.978600  0.756000  0.927760  1.0
  C  C1098  1  0.521400  0.256000  0.072240  1.0
  C  C1099  1  0.021400  0.244000  0.427760  1.0
  C  C1100  1  0.478600  0.744000  0.572240  1.0
  C  C1101  1  0.988000  0.223700  0.091260  1.0
  C  C1102  1  0.512000  0.723700  0.908740  1.0
  C  C1103  1  0.012000  0.776300  0.591260  1.0
  C  C1104  1  0.488000  0.276300  0.408740  1.0
  C  C1105  1  0.012000  0.776300  0.908740  1.0
  C  C1106  1  0.488000  0.276300  0.091260  1.0
  C  C1107  1  0.988000  0.223700  0.408740  1.0
  C  C1108  1  0.512000  0.723700  0.591260  1.0
  C  C1109  1  0.070700  0.311800  0.050200  1.0
  C  C1110  1  0.429300  0.811800  0.949800  1.0
  C  C1111  1  0.929300  0.688200  0.550200  1.0
  C  C1112  1  0.570700  0.188200  0.449800  1.0
  C  C1113  1  0.929300  0.688200  0.949800  1.0
  C  C1114  1  0.570700  0.188200  0.050200  1.0
  C  C1115  1  0.070700  0.311800  0.449800  1.0
  C  C1116  1  0.429300  0.811800  0.550200  1.0
  C  C1117  1  0.193600  0.327200  0.061920  1.0
  C  C1118  1  0.306400  0.827200  0.938080  1.0
  C  C1119  1  0.806400  0.672800  0.561920  1.0
  C  C1120  1  0.693600  0.172800  0.438080  1.0
  C  C1121  1  0.806400  0.672800  0.938080  1.0
  C  C1122  1  0.693600  0.172800  0.061920  1.0
  C  C1123  1  0.193600  0.327200  0.438080  1.0
  C  C1124  1  0.306400  0.827200  0.561920  1.0
  C  C1125  1  0.283900  0.439880  0.080270  1.0
  C  C1126  1  0.216100  0.939880  0.919730  1.0
  C  C1127  1  0.716100  0.560120  0.580270  1.0
  C  C1128  1  0.783900  0.060120  0.419730  1.0
  C  C1129  1  0.716100  0.560120  0.919730  1.0
  C  C1130  1  0.783900  0.060120  0.080270  1.0
  C  C1131  1  0.283900  0.439880  0.419730  1.0
  C  C1132  1  0.216100  0.939880  0.580270  1.0
  C  C1133  1  0.230500  0.410000  0.072600  1.0
  C  C1134  1  0.269500  0.910000  0.927400  1.0
  C  C1135  1  0.769500  0.590000  0.572600  1.0
  C  C1136  1  0.730500  0.090000  0.427400  1.0
  C  C1137  1  0.769500  0.590000  0.927400  1.0
  C  C1138  1  0.730500  0.090000  0.072600  1.0
  C  C1139  1  0.230500  0.410000  0.427400  1.0
  C  C1140  1  0.269500  0.910000  0.572600  1.0
  C  C1141  1  0.246900  0.364200  0.068770  1.0
  C  C1142  1  0.253100  0.864200  0.931230  1.0
  C  C1143  1  0.753100  0.635800  0.568770  1.0
  C  C1144  1  0.746900  0.135800  0.431230  1.0
  C  C1145  1  0.753100  0.635800  0.931230  1.0
  C  C1146  1  0.746900  0.135800  0.068770  1.0
  C  C1147  1  0.246900  0.364200  0.431230  1.0
  C  C1148  1  0.253100  0.864200  0.568770  1.0
  C  C1149  1  0.316600  0.348210  0.072610  1.0
  C  C1150  1  0.183400  0.848210  0.927390  1.0
  C  C1151  1  0.683400  0.651790  0.572610  1.0
  C  C1152  1  0.816600  0.151790  0.427390  1.0
  C  C1153  1  0.683400  0.651790  0.927390  1.0
  C  C1154  1  0.816600  0.151790  0.072610  1.0
  C  C1155  1  0.316600  0.348210  0.427390  1.0
  C  C1156  1  0.183400  0.848210  0.572610  1.0
  C  C1157  1  0.370000  0.378080  0.080280  1.0
  C  C1158  1  0.130000  0.878080  0.919720  1.0
  C  C1159  1  0.630000  0.621920  0.580280  1.0
  C  C1160  1  0.870000  0.121920  0.419720  1.0
  C  C1161  1  0.630000  0.621920  0.919720  1.0
  C  C1162  1  0.870000  0.121920  0.080280  1.0
  C  C1163  1  0.370000  0.378080  0.419720  1.0
  C  C1164  1  0.130000  0.878080  0.580280  1.0
  S  S1165  1  0.138200  0.713920  0.404220  1
  S  S1166  1  0.361800  0.213920  0.595780  1
  S  S1167  1  0.861800  0.286080  0.904220  1
  S  S1168  1  0.638200  0.786080  0.095780  1
  S  S1169  1  0.861800  0.286080  0.595780  1
  S  S1170  1  0.638200  0.786080  0.404220  1
  S  S1171  1  0.138200  0.713920  0.095780  1
  S  S1172  1  0.361800  0.213920  0.904220  1
  N  N1173  1  0.921100  0.754600  0.338890  1.0
  N  N1174  1  0.578900  0.254600  0.661110  1.0
  N  N1175  1  0.078900  0.245400  0.838890  1.0
  N  N1176  1  0.421100  0.745400  0.161110  1.0
  N  N1177  1  0.078900  0.245400  0.661110  1.0
  N  N1178  1  0.421100  0.745400  0.338890  1.0
  N  N1179  1  0.921100  0.754600  0.161110  1.0
  N  N1180  1  0.578900  0.254600  0.838890  1.0
  N  N1181  1  0.835100  0.698340  0.311040  1.0
  N  N1182  1  0.664900  0.198340  0.688960  1.0
  N  N1183  1  0.164900  0.301660  0.811040  1.0
  N  N1184  1  0.335100  0.801660  0.188960  1.0
  N  N1185  1  0.164900  0.301660  0.688960  1.0
  N  N1186  1  0.335100  0.801660  0.311040  1.0
  N  N1187  1  0.835100  0.698340  0.188960  1.0
  N  N1188  1  0.664900  0.198340  0.811040  1.0
  N  N1189  1  0.764800  0.662300  0.351410  1.0
  N  N1190  1  0.735200  0.162300  0.648590  1.0
  N  N1191  1  0.235200  0.337700  0.851410  1.0
  N  N1192  1  0.264800  0.837700  0.148590  1.0
  N  N1193  1  0.235200  0.337700  0.648590  1.0
  N  N1194  1  0.264800  0.837700  0.351410  1.0
  N  N1195  1  0.764800  0.662300  0.148590  1.0
  N  N1196  1  0.735200  0.162300  0.851410  1.0
  N  N1197  1  0.494300  0.505300  0.382500  1.0
  N  N1198  1  0.005700  0.005300  0.617500  1.0
  N  N1199  1  0.505700  0.494700  0.882500  1.0
  N  N1200  1  0.994300  0.994700  0.117500  1.0
  N  N1201  1  0.505700  0.494700  0.617500  1.0
  N  N1202  1  0.994300  0.994700  0.382500  1.0
  N  N1203  1  0.494300  0.505300  0.117500  1.0
  N  N1204  1  0.005700  0.005300  0.882500  1.0
  N  N1205  1  0.851900  0.714600  0.380660  1.0
  N  N1206  1  0.648100  0.214600  0.619340  1.0
  N  N1207  1  0.148100  0.285400  0.880660  1.0
  N  N1208  1  0.351900  0.785400  0.119340  1.0
  N  N1209  1  0.148100  0.285400  0.619340  1.0
  N  N1210  1  0.351900  0.785400  0.380660  1.0
  N  N1211  1  0.851900  0.714600  0.119340  1.0
  N  N1212  1  0.648100  0.214600  0.880660  1.0
  N  N1213  1  0.463100  0.489100  0.428810  1.0
  N  N1214  1  0.036900  0.989100  0.571190  1.0
  N  N1215  1  0.536900  0.510900  0.928810  1.0
  N  N1216  1  0.963100  0.010900  0.071190  1.0
  N  N1217  1  0.536900  0.510900  0.571190  1.0
  N  N1218  1  0.963100  0.010900  0.428810  1.0
  N  N1219  1  0.463100  0.489100  0.071190  1.0
  N  N1220  1  0.036900  0.989100  0.928810  1.0
  N  N1221  1  0.384400  0.437850  0.368750  1.0
  N  N1222  1  0.115600  0.937850  0.631250  1.0
  N  N1223  1  0.615600  0.562150  0.868750  1.0
  N  N1224  1  0.884400  0.062150  0.131250  1.0
  N  N1225  1  0.615600  0.562150  0.631250  1.0
  N  N1226  1  0.884400  0.062150  0.368750  1.0
  N  N1227  1  0.384400  0.437850  0.131250  1.0
  N  N1228  1  0.115600  0.937850  0.868750  1.0
  N  N1229  1  0.214800  0.329370  0.274310  1.0
  N  N1230  1  0.285200  0.829370  0.725690  1.0
  N  N1231  1  0.785200  0.670630  0.774310  1.0
  N  N1232  1  0.714800  0.170630  0.225690  1.0
  N  N1233  1  0.785200  0.670630  0.725690  1.0
  N  N1234  1  0.714800  0.170630  0.274310  1.0
  N  N1235  1  0.214800  0.329370  0.225690  1.0
  N  N1236  1  0.285200  0.829370  0.774310  1.0
  N  N1237  1  0.103400  0.263900  0.224610  1.0
  N  N1238  1  0.396600  0.763900  0.775390  1.0
  N  N1239  1  0.896600  0.736100  0.724610  1.0
  N  N1240  1  0.603400  0.236100  0.275390  1.0
  N  N1241  1  0.896600  0.736100  0.775390  1.0
  N  N1242  1  0.603400  0.236100  0.224610  1.0
  N  N1243  1  0.103400  0.263900  0.275390  1.0
  N  N1244  1  0.396600  0.763900  0.724610  1.0
  N  N1245  1  0.353600  0.423910  0.084110  1.0
  N  N1246  1  0.146400  0.923910  0.915890  1.0
  N  N1247  1  0.646400  0.576090  0.584110  1.0
  N  N1248  1  0.853600  0.076090  0.415890  1.0
  N  N1249  1  0.646400  0.576090  0.915890  1.0
  N  N1250  1  0.853600  0.076090  0.084110  1.0
  N  N1251  1  0.353600  0.423910  0.415890  1.0
  N  N1252  1  0.146400  0.923910  0.584110  1.0
  O  O1253  1  0.053700  0.707100  0.394500  1
  O  O1254  1  0.446300  0.207100  0.605500  1
  O  O1255  1  0.946300  0.292900  0.894500  1
  O  O1256  1  0.553700  0.792900  0.105500  1
  O  O1257  1  0.946300  0.292900  0.605500  1
  O  O1258  1  0.553700  0.792900  0.394500  1
  O  O1259  1  0.053700  0.707100  0.105500  1
  O  O1260  1  0.446300  0.207100  0.894500  1
  O  O1261  1  0.062900  0.891600  0.310680  1.0
  O  O1262  1  0.437100  0.391600  0.689320  1.0
  O  O1263  1  0.937100  0.108400  0.810680  1.0
  O  O1264  1  0.562900  0.608400  0.189320  1.0
  O  O1265  1  0.937100  0.108400  0.689320  1.0
  O  O1266  1  0.562900  0.608400  0.310680  1.0
  O  O1267  1  0.062900  0.891600  0.189320  1.0
  O  O1268  1  0.437100  0.391600  0.810680  1.0
  O  O1269  1  0.140800  0.832290  0.309610  1.0
  O  O1270  1  0.359200  0.332290  0.690390  1.0
  O  O1271  1  0.859200  0.167710  0.809610  1.0
  O  O1272  1  0.640800  0.667710  0.190390  1.0
  O  O1273  1  0.859200  0.167710  0.690390  1.0
  O  O1274  1  0.640800  0.667710  0.309610  1.0
  O  O1275  1  0.140800  0.832290  0.190390  1.0
  O  O1276  1  0.359200  0.332290  0.809610  1.0
  O  O1277  1  0.784300  0.746400  0.461600  1.0
  O  O1278  1  0.715700  0.246400  0.538400  1.0
  O  O1279  1  0.215700  0.253600  0.961600  1.0
  O  O1280  1  0.284300  0.753600  0.038400  1.0
  O  O1281  1  0.215700  0.253600  0.538400  1.0
  O  O1282  1  0.284300  0.753600  0.461600  1.0
  O  O1283  1  0.784300  0.746400  0.038400  1.0
  O  O1284  1  0.715700  0.246400  0.961600  1.0
  O  O1285  1  0.869600  0.691300  0.466590  1.0
  O  O1286  1  0.630400  0.191300  0.533410  1.0
  O  O1287  1  0.130400  0.308700  0.966590  1.0
  O  O1288  1  0.369600  0.808700  0.033410  1.0
  O  O1289  1  0.130400  0.308700  0.533410  1.0
  O  O1290  1  0.369600  0.808700  0.466590  1.0
  O  O1291  1  0.869600  0.691300  0.033410  1.0
  O  O1292  1  0.630400  0.191300  0.966590  1.0
  O  O1293  1  0.612700  0.527000  0.498260  1.0
  O  O1294  1  0.887300  0.027000  0.501740  1.0
  O  O1295  1  0.387300  0.473000  0.998260  1.0
  O  O1296  1  0.112700  0.973000  0.001740  1.0
  O  O1297  1  0.387300  0.473000  0.501740  1.0
  O  O1298  1  0.112700  0.973000  0.498260  1.0
  O  O1299  1  0.612700  0.527000  0.001740  1.0
  O  O1300  1  0.887300  0.027000  0.998260  1.0
  O  O1301  1  0.528400  0.581300  0.498550  1.0
  O  O1302  1  0.971600  0.081300  0.501450  1.0
  O  O1303  1  0.471600  0.418700  0.998550  1.0
  O  O1304  1  0.028400  0.918700  0.001450  1.0
  O  O1305  1  0.471600  0.418700  0.501450  1.0
  O  O1306  1  0.028400  0.918700  0.498550  1.0
  O  O1307  1  0.528400  0.581300  0.001450  1.0
  O  O1308  1  0.971600  0.081300  0.998550  1.0
  O  O1309  1  0.034500  0.183000  0.151140  1.0
  O  O1310  1  0.465500  0.683000  0.848860  1.0
  O  O1311  1  0.965500  0.817000  0.651140  1.0
  O  O1312  1  0.534500  0.317000  0.348860  1.0
  O  O1313  1  0.965500  0.817000  0.848860  1.0
  O  O1314  1  0.534500  0.317000  0.151140  1.0
  O  O1315  1  0.034500  0.183000  0.348860  1.0
  O  O1316  1  0.465500  0.683000  0.651140  1.0
  O  O1317  1  0.955200  0.237800  0.153250  1.0
  O  O1318  1  0.544800  0.737800  0.846750  1.0
  O  O1319  1  0.044800  0.762200  0.653250  1.0
  O  O1320  1  0.455200  0.262200  0.346750  1.0
  O  O1321  1  0.044800  0.762200  0.846750  1.0
  O  O1322  1  0.455200  0.262200  0.153250  1.0
  O  O1323  1  0.955200  0.237800  0.346750  1.0
  O  O1324  1  0.544800  0.737800  0.653250  1.0
  O  O1325  1  0.127200  0.342400  0.057370  1.0
  O  O1326  1  0.372800  0.842400  0.942630  1.0
  O  O1327  1  0.872800  0.657600  0.557370  1.0
  O  O1328  1  0.627200  0.157600  0.442630  1.0
  O  O1329  1  0.872800  0.657600  0.942630  1.0
  O  O1330  1  0.627200  0.157600  0.057370  1.0
  O  O1331  1  0.127200  0.342400  0.442630  1.0
  O  O1332  1  0.372800  0.842400  0.557370  1.0
  O  O1333  1  0.209300  0.287000  0.061400  1.0
  O  O1334  1  0.290700  0.787000  0.938600  1.0
  O  O1335  1  0.790700  0.713000  0.561400  1.0
  O  O1336  1  0.709300  0.213000  0.438600  1.0
  O  O1337  1  0.790700  0.713000  0.938600  1.0
  O  O1338  1  0.709300  0.213000  0.061400  1.0
  O  O1339  1  0.209300  0.287000  0.438600  1.0
  O  O1340  1  0.290700  0.787000  0.561400  1.0
  F  F1341  1  0.635300  0.835700  0.347280  1
  F  F1342  1  0.864700  0.335700  0.652720  1
  F  F1343  1  0.364700  0.164300  0.847280  1
  F  F1344  1  0.135300  0.664300  0.152720  1
  F  F1345  1  0.364700  0.164300  0.652720  1
  F  F1346  1  0.135300  0.664300  0.347280  1
  F  F1347  1  0.635300  0.835700  0.152720  1
  F  F1348  1  0.864700  0.335700  0.847280  1
  F  F1349  1  0.725400  0.784970  0.345700  1
  F  F1350  1  0.774600  0.284970  0.654300  1
  F  F1351  1  0.274600  0.215030  0.845700  1
  F  F1352  1  0.225400  0.715030  0.154300  1
  F  F1353  1  0.274600  0.215030  0.654300  1
  F  F1354  1  0.225400  0.715030  0.345700  1
  F  F1355  1  0.725400  0.784970  0.154300  1
  F  F1356  1  0.774600  0.284970  0.845700  1
  F  F1357  1  0.740300  0.849700  0.328500  1
  F  F1358  1  0.759700  0.349700  0.671500  1
  F  F1359  1  0.259700  0.150300  0.828500  1
  F  F1360  1  0.240300  0.650300  0.171500  1
  F  F1361  1  0.259700  0.150300  0.671500  1
  F  F1362  1  0.240300  0.650300  0.328500  1
  F  F1363  1  0.740300  0.849700  0.171500  1
  F  F1364  1  0.759700  0.349700  0.828500  1
  F  F1365  1  0.661100  0.806700  0.312980  1
  F  F1366  1  0.838900  0.306700  0.687020  1
  F  F1367  1  0.338900  0.193300  0.812980  1
  F  F1368  1  0.161100  0.693300  0.187020  1
  F  F1369  1  0.338900  0.193300  0.687020  1
  F  F1370  1  0.161100  0.693300  0.312980  1
  F  F1371  1  0.661100  0.806700  0.187020  1
  F  F1372  1  0.838900  0.306700  0.812980  1
  F  F1373  1  0.973000  0.821110  0.390660  1
  F  F1374  1  0.527000  0.321110  0.609340  1
  F  F1375  1  0.027000  0.178890  0.890660  1
  F  F1376  1  0.473000  0.678890  0.109340  1
  F  F1377  1  0.027000  0.178890  0.609340  1
  F  F1378  1  0.473000  0.678890  0.390660  1
  F  F1379  1  0.973000  0.821110  0.109340  1
  F  F1380  1  0.527000  0.321110  0.890660  1
  F  F1381  1  0.968100  0.796800  0.427730  1
  F  F1382  1  0.531900  0.296800  0.572270  1
  F  F1383  1  0.031900  0.203200  0.927730  1
  F  F1384  1  0.468100  0.703200  0.072270  1
  F  F1385  1  0.031900  0.203200  0.572270  1
  F  F1386  1  0.468100  0.703200  0.427730  1
  F  F1387  1  0.968100  0.796800  0.072270  1
  F  F1388  1  0.531900  0.296800  0.927730  1
  F  F1389  1  0.928600  0.863800  0.417860  1
  F  F1390  1  0.571400  0.363800  0.582140  1
  F  F1391  1  0.071400  0.136200  0.917860  1
  F  F1392  1  0.428600  0.636200  0.082140  1
  F  F1393  1  0.071400  0.136200  0.582140  1
  F  F1394  1  0.428600  0.636200  0.417860  1
  F  F1395  1  0.928600  0.863800  0.082140  1
  F  F1396  1  0.571400  0.363800  0.917860  1
  F  F1397  1  0.049900  0.846800  0.415930  1
  F  F1398  1  0.450100  0.346800  0.584070  1
  F  F1399  1  0.950100  0.153200  0.915930  1
  F  F1400  1  0.549900  0.653200  0.084070  1
  F  F1401  1  0.950100  0.153200  0.584070  1
  F  F1402  1  0.549900  0.653200  0.415930  1
  F  F1403  1  0.049900  0.846800  0.084070  1
  F  F1404  1  0.450100  0.346800  0.915930  1
