# generated using pymatgen
data_HgH116C162S2N8O11F6
_symmetry_space_group_name_H-M   'P 1'
_cell_length_a   48.08180000
_cell_length_b   48.08180000
_cell_length_c   48.08180000
_cell_angle_alpha   90.00000000
_cell_angle_beta   90.00000000
_cell_angle_gamma   90.00000000
_symmetry_Int_Tables_number   1
_chemical_formula_structural   HgH116C162S2N8O11F6
_chemical_formula_sum   'Hg24 H2784 C3888 S48 N192 O264 F144'
_cell_volume   111158.36568590
_cell_formula_units_Z   24
loop_
 _symmetry_equiv_pos_site_id
 _symmetry_equiv_pos_as_xyz
  1  'x, y, z'
loop_
 _atom_site_type_symbol
 _atom_site_label
 _atom_site_symmetry_multiplicity
 _atom_site_fract_x
 _atom_site_fract_y
 _atom_site_fract_z
 _atom_site_occupancy
  Hg  Hg1  1  0.500000  0.500000  0.263800  1.0
  Hg  Hg2  1  0.500000  0.263800  0.500000  1.0
  Hg  Hg3  1  0.263800  0.500000  0.500000  1.0
  Hg  Hg4  1  0.736200  0.500000  0.500000  1.0
  Hg  Hg5  1  0.500000  0.500000  0.736200  1.0
  Hg  Hg6  1  0.500000  0.736200  0.500000  1.0
  Hg  Hg7  1  0.500000  0.000000  0.763800  1.0
  Hg  Hg8  1  0.500000  0.763800  0.000000  1.0
  Hg  Hg9  1  0.263800  0.000000  0.000000  1.0
  Hg  Hg10  1  0.736200  0.000000  0.000000  1.0
  Hg  Hg11  1  0.500000  0.000000  0.236200  1.0
  Hg  Hg12  1  0.500000  0.236200  0.000000  1.0
  Hg  Hg13  1  0.000000  0.500000  0.763800  1.0
  Hg  Hg14  1  0.000000  0.263800  0.000000  1.0
  Hg  Hg15  1  0.763800  0.500000  0.000000  1.0
  Hg  Hg16  1  0.236200  0.500000  0.000000  1.0
  Hg  Hg17  1  0.000000  0.500000  0.236200  1.0
  Hg  Hg18  1  0.000000  0.736200  0.000000  1.0
  Hg  Hg19  1  0.000000  0.000000  0.263800  1.0
  Hg  Hg20  1  0.000000  0.763800  0.500000  1.0
  Hg  Hg21  1  0.763800  0.000000  0.500000  1.0
  Hg  Hg22  1  0.236200  0.000000  0.500000  1.0
  Hg  Hg23  1  0.000000  0.000000  0.736200  1.0
  Hg  Hg24  1  0.000000  0.236200  0.500000  1.0
  H  H25  1  0.444300  0.418400  0.147700  1.0
  H  H26  1  0.418400  0.147700  0.444300  1.0
  H  H27  1  0.147700  0.444300  0.418400  1.0
  H  H28  1  0.581600  0.444300  0.147700  1.0
  H  H29  1  0.852300  0.418400  0.444300  1.0
  H  H30  1  0.555700  0.147700  0.418400  1.0
  H  H31  1  0.555700  0.581600  0.147700  1.0
  H  H32  1  0.852300  0.444300  0.581600  1.0
  H  H33  1  0.555700  0.418400  0.852300  1.0
  H  H34  1  0.581600  0.852300  0.444300  1.0
  H  H35  1  0.852300  0.555700  0.418400  1.0
  H  H36  1  0.418400  0.555700  0.147700  1.0
  H  H37  1  0.147700  0.581600  0.444300  1.0
  H  H38  1  0.444300  0.852300  0.418400  1.0
  H  H39  1  0.581600  0.147700  0.555700  1.0
  H  H40  1  0.852300  0.581600  0.555700  1.0
  H  H41  1  0.555700  0.852300  0.581600  1.0
  H  H42  1  0.581600  0.555700  0.852300  1.0
  H  H43  1  0.418400  0.852300  0.555700  1.0
  H  H44  1  0.418400  0.444300  0.852300  1.0
  H  H45  1  0.147700  0.418400  0.555700  1.0
  H  H46  1  0.444300  0.147700  0.581600  1.0
  H  H47  1  0.444300  0.581600  0.852300  1.0
  H  H48  1  0.147700  0.555700  0.581600  1.0
  H  H49  1  0.444300  0.918400  0.647700  1.0
  H  H50  1  0.418400  0.647700  0.944300  1.0
  H  H51  1  0.147700  0.944300  0.918400  1.0
  H  H52  1  0.581600  0.944300  0.647700  1.0
  H  H53  1  0.852300  0.918400  0.944300  1.0
  H  H54  1  0.555700  0.647700  0.918400  1.0
  H  H55  1  0.555700  0.081600  0.647700  1.0
  H  H56  1  0.852300  0.944300  0.081600  1.0
  H  H57  1  0.555700  0.918400  0.352300  1.0
  H  H58  1  0.581600  0.352300  0.944300  1.0
  H  H59  1  0.852300  0.055700  0.918400  1.0
  H  H60  1  0.418400  0.055700  0.647700  1.0
  H  H61  1  0.147700  0.081600  0.944300  1.0
  H  H62  1  0.444300  0.352300  0.918400  1.0
  H  H63  1  0.581600  0.647700  0.055700  1.0
  H  H64  1  0.852300  0.081600  0.055700  1.0
  H  H65  1  0.555700  0.352300  0.081600  1.0
  H  H66  1  0.581600  0.055700  0.352300  1.0
  H  H67  1  0.418400  0.352300  0.055700  1.0
  H  H68  1  0.418400  0.944300  0.352300  1.0
  H  H69  1  0.147700  0.918400  0.055700  1.0
  H  H70  1  0.444300  0.647700  0.081600  1.0
  H  H71  1  0.444300  0.081600  0.352300  1.0
  H  H72  1  0.147700  0.055700  0.081600  1.0
  H  H73  1  0.944300  0.418400  0.647700  1.0
  H  H74  1  0.918400  0.147700  0.944300  1.0
  H  H75  1  0.647700  0.444300  0.918400  1.0
  H  H76  1  0.081600  0.444300  0.647700  1.0
  H  H77  1  0.352300  0.418400  0.944300  1.0
  H  H78  1  0.055700  0.147700  0.918400  1.0
  H  H79  1  0.055700  0.581600  0.647700  1.0
  H  H80  1  0.352300  0.444300  0.081600  1.0
  H  H81  1  0.055700  0.418400  0.352300  1.0
  H  H82  1  0.081600  0.852300  0.944300  1.0
  H  H83  1  0.352300  0.555700  0.918400  1.0
  H  H84  1  0.918400  0.555700  0.647700  1.0
  H  H85  1  0.647700  0.581600  0.944300  1.0
  H  H86  1  0.944300  0.852300  0.918400  1.0
  H  H87  1  0.081600  0.147700  0.055700  1.0
  H  H88  1  0.352300  0.581600  0.055700  1.0
  H  H89  1  0.055700  0.852300  0.081600  1.0
  H  H90  1  0.081600  0.555700  0.352300  1.0
  H  H91  1  0.918400  0.852300  0.055700  1.0
  H  H92  1  0.918400  0.444300  0.352300  1.0
  H  H93  1  0.647700  0.418400  0.055700  1.0
  H  H94  1  0.944300  0.147700  0.081600  1.0
  H  H95  1  0.944300  0.581600  0.352300  1.0
  H  H96  1  0.647700  0.555700  0.081600  1.0
  H  H97  1  0.944300  0.918400  0.147700  1.0
  H  H98  1  0.918400  0.647700  0.444300  1.0
  H  H99  1  0.647700  0.944300  0.418400  1.0
  H  H100  1  0.081600  0.944300  0.147700  1.0
  H  H101  1  0.352300  0.918400  0.444300  1.0
  H  H102  1  0.055700  0.647700  0.418400  1.0
  H  H103  1  0.055700  0.081600  0.147700  1.0
  H  H104  1  0.352300  0.944300  0.581600  1.0
  H  H105  1  0.055700  0.918400  0.852300  1.0
  H  H106  1  0.081600  0.352300  0.444300  1.0
  H  H107  1  0.352300  0.055700  0.418400  1.0
  H  H108  1  0.918400  0.055700  0.147700  1.0
  H  H109  1  0.647700  0.081600  0.444300  1.0
  H  H110  1  0.944300  0.352300  0.418400  1.0
  H  H111  1  0.081600  0.647700  0.555700  1.0
  H  H112  1  0.352300  0.081600  0.555700  1.0
  H  H113  1  0.055700  0.352300  0.581600  1.0
  H  H114  1  0.081600  0.055700  0.852300  1.0
  H  H115  1  0.918400  0.352300  0.555700  1.0
  H  H116  1  0.918400  0.944300  0.852300  1.0
  H  H117  1  0.647700  0.918400  0.555700  1.0
  H  H118  1  0.944300  0.647700  0.581600  1.0
  H  H119  1  0.944300  0.081600  0.852300  1.0
  H  H120  1  0.647700  0.055700  0.581600  1.0
  H  H121  1  0.470400  0.429100  0.186800  1.0
  H  H122  1  0.429100  0.186800  0.470400  1.0
  H  H123  1  0.186800  0.470400  0.429100  1.0
  H  H124  1  0.570900  0.470400  0.186800  1.0
  H  H125  1  0.813200  0.429100  0.470400  1.0
  H  H126  1  0.529600  0.186800  0.429100  1.0
  H  H127  1  0.529600  0.570900  0.186800  1.0
  H  H128  1  0.813200  0.470400  0.570900  1.0
  H  H129  1  0.529600  0.429100  0.813200  1.0
  H  H130  1  0.570900  0.813200  0.470400  1.0
  H  H131  1  0.813200  0.529600  0.429100  1.0
  H  H132  1  0.429100  0.529600  0.186800  1.0
  H  H133  1  0.186800  0.570900  0.470400  1.0
  H  H134  1  0.470400  0.813200  0.429100  1.0
  H  H135  1  0.570900  0.186800  0.529600  1.0
  H  H136  1  0.813200  0.570900  0.529600  1.0
  H  H137  1  0.529600  0.813200  0.570900  1.0
  H  H138  1  0.570900  0.529600  0.813200  1.0
  H  H139  1  0.429100  0.813200  0.529600  1.0
  H  H140  1  0.429100  0.470400  0.813200  1.0
  H  H141  1  0.186800  0.429100  0.529600  1.0
  H  H142  1  0.470400  0.186800  0.570900  1.0
  H  H143  1  0.470400  0.570900  0.813200  1.0
  H  H144  1  0.186800  0.529600  0.570900  1.0
  H  H145  1  0.470400  0.929100  0.686800  1.0
  H  H146  1  0.429100  0.686800  0.970400  1.0
  H  H147  1  0.186800  0.970400  0.929100  1.0
  H  H148  1  0.570900  0.970400  0.686800  1.0
  H  H149  1  0.813200  0.929100  0.970400  1.0
  H  H150  1  0.529600  0.686800  0.929100  1.0
  H  H151  1  0.529600  0.070900  0.686800  1.0
  H  H152  1  0.813200  0.970400  0.070900  1.0
  H  H153  1  0.529600  0.929100  0.313200  1.0
  H  H154  1  0.570900  0.313200  0.970400  1.0
  H  H155  1  0.813200  0.029600  0.929100  1.0
  H  H156  1  0.429100  0.029600  0.686800  1.0
  H  H157  1  0.186800  0.070900  0.970400  1.0
  H  H158  1  0.470400  0.313200  0.929100  1.0
  H  H159  1  0.570900  0.686800  0.029600  1.0
  H  H160  1  0.813200  0.070900  0.029600  1.0
  H  H161  1  0.529600  0.313200  0.070900  1.0
  H  H162  1  0.570900  0.029600  0.313200  1.0
  H  H163  1  0.429100  0.313200  0.029600  1.0
  H  H164  1  0.429100  0.970400  0.313200  1.0
  H  H165  1  0.186800  0.929100  0.029600  1.0
  H  H166  1  0.470400  0.686800  0.070900  1.0
  H  H167  1  0.470400  0.070900  0.313200  1.0
  H  H168  1  0.186800  0.029600  0.070900  1.0
  H  H169  1  0.970400  0.429100  0.686800  1.0
  H  H170  1  0.929100  0.186800  0.970400  1.0
  H  H171  1  0.686800  0.470400  0.929100  1.0
  H  H172  1  0.070900  0.470400  0.686800  1.0
  H  H173  1  0.313200  0.429100  0.970400  1.0
  H  H174  1  0.029600  0.186800  0.929100  1.0
  H  H175  1  0.029600  0.570900  0.686800  1.0
  H  H176  1  0.313200  0.470400  0.070900  1.0
  H  H177  1  0.029600  0.429100  0.313200  1.0
  H  H178  1  0.070900  0.813200  0.970400  1.0
  H  H179  1  0.313200  0.529600  0.929100  1.0
  H  H180  1  0.929100  0.529600  0.686800  1.0
  H  H181  1  0.686800  0.570900  0.970400  1.0
  H  H182  1  0.970400  0.813200  0.929100  1.0
  H  H183  1  0.070900  0.186800  0.029600  1.0
  H  H184  1  0.313200  0.570900  0.029600  1.0
  H  H185  1  0.029600  0.813200  0.070900  1.0
  H  H186  1  0.070900  0.529600  0.313200  1.0
  H  H187  1  0.929100  0.813200  0.029600  1.0
  H  H188  1  0.929100  0.470400  0.313200  1.0
  H  H189  1  0.686800  0.429100  0.029600  1.0
  H  H190  1  0.970400  0.186800  0.070900  1.0
  H  H191  1  0.970400  0.570900  0.313200  1.0
  H  H192  1  0.686800  0.529600  0.070900  1.0
  H  H193  1  0.970400  0.929100  0.186800  1.0
  H  H194  1  0.929100  0.686800  0.470400  1.0
  H  H195  1  0.686800  0.970400  0.429100  1.0
  H  H196  1  0.070900  0.970400  0.186800  1.0
  H  H197  1  0.313200  0.929100  0.470400  1.0
  H  H198  1  0.029600  0.686800  0.429100  1.0
  H  H199  1  0.029600  0.070900  0.186800  1.0
  H  H200  1  0.313200  0.970400  0.570900  1.0
  H  H201  1  0.029600  0.929100  0.813200  1.0
  H  H202  1  0.070900  0.313200  0.470400  1.0
  H  H203  1  0.313200  0.029600  0.429100  1.0
  H  H204  1  0.929100  0.029600  0.186800  1.0
  H  H205  1  0.686800  0.070900  0.470400  1.0
  H  H206  1  0.970400  0.313200  0.429100  1.0
  H  H207  1  0.070900  0.686800  0.529600  1.0
  H  H208  1  0.313200  0.070900  0.529600  1.0
  H  H209  1  0.029600  0.313200  0.570900  1.0
  H  H210  1  0.070900  0.029600  0.813200  1.0
  H  H211  1  0.929100  0.313200  0.529600  1.0
  H  H212  1  0.929100  0.970400  0.813200  1.0
  H  H213  1  0.686800  0.929100  0.529600  1.0
  H  H214  1  0.970400  0.686800  0.570900  1.0
  H  H215  1  0.970400  0.070900  0.813200  1.0
  H  H216  1  0.686800  0.029600  0.570900  1.0
  H  H217  1  0.418100  0.382400  0.232800  1.0
  H  H218  1  0.382400  0.232800  0.418100  1.0
  H  H219  1  0.232800  0.418100  0.382400  1.0
  H  H220  1  0.617600  0.418100  0.232800  1.0
  H  H221  1  0.767200  0.382400  0.418100  1.0
  H  H222  1  0.581900  0.232800  0.382400  1.0
  H  H223  1  0.581900  0.617600  0.232800  1.0
  H  H224  1  0.767200  0.418100  0.617600  1.0
  H  H225  1  0.581900  0.382400  0.767200  1.0
  H  H226  1  0.617600  0.767200  0.418100  1.0
  H  H227  1  0.767200  0.581900  0.382400  1.0
  H  H228  1  0.382400  0.581900  0.232800  1.0
  H  H229  1  0.232800  0.617600  0.418100  1.0
  H  H230  1  0.418100  0.767200  0.382400  1.0
  H  H231  1  0.617600  0.232800  0.581900  1.0
  H  H232  1  0.767200  0.617600  0.581900  1.0
  H  H233  1  0.581900  0.767200  0.617600  1.0
  H  H234  1  0.617600  0.581900  0.767200  1.0
  H  H235  1  0.382400  0.767200  0.581900  1.0
  H  H236  1  0.382400  0.418100  0.767200  1.0
  H  H237  1  0.232800  0.382400  0.581900  1.0
  H  H238  1  0.418100  0.232800  0.617600  1.0
  H  H239  1  0.418100  0.617600  0.767200  1.0
  H  H240  1  0.232800  0.581900  0.617600  1.0
  H  H241  1  0.418100  0.882400  0.732800  1.0
  H  H242  1  0.382400  0.732800  0.918100  1.0
  H  H243  1  0.232800  0.918100  0.882400  1.0
  H  H244  1  0.617600  0.918100  0.732800  1.0
  H  H245  1  0.767200  0.882400  0.918100  1.0
  H  H246  1  0.581900  0.732800  0.882400  1.0
  H  H247  1  0.581900  0.117600  0.732800  1.0
  H  H248  1  0.767200  0.918100  0.117600  1.0
  H  H249  1  0.581900  0.882400  0.267200  1.0
  H  H250  1  0.617600  0.267200  0.918100  1.0
  H  H251  1  0.767200  0.081900  0.882400  1.0
  H  H252  1  0.382400  0.081900  0.732800  1.0
  H  H253  1  0.232800  0.117600  0.918100  1.0
  H  H254  1  0.418100  0.267200  0.882400  1.0
  H  H255  1  0.617600  0.732800  0.081900  1.0
  H  H256  1  0.767200  0.117600  0.081900  1.0
  H  H257  1  0.581900  0.267200  0.117600  1.0
  H  H258  1  0.617600  0.081900  0.267200  1.0
  H  H259  1  0.382400  0.267200  0.081900  1.0
  H  H260  1  0.382400  0.918100  0.267200  1.0
  H  H261  1  0.232800  0.882400  0.081900  1.0
  H  H262  1  0.418100  0.732800  0.117600  1.0
  H  H263  1  0.418100  0.117600  0.267200  1.0
  H  H264  1  0.232800  0.081900  0.117600  1.0
  H  H265  1  0.918100  0.382400  0.732800  1.0
  H  H266  1  0.882400  0.232800  0.918100  1.0
  H  H267  1  0.732800  0.418100  0.882400  1.0
  H  H268  1  0.117600  0.418100  0.732800  1.0
  H  H269  1  0.267200  0.382400  0.918100  1.0
  H  H270  1  0.081900  0.232800  0.882400  1.0
  H  H271  1  0.081900  0.617600  0.732800  1.0
  H  H272  1  0.267200  0.418100  0.117600  1.0
  H  H273  1  0.081900  0.382400  0.267200  1.0
  H  H274  1  0.117600  0.767200  0.918100  1.0
  H  H275  1  0.267200  0.581900  0.882400  1.0
  H  H276  1  0.882400  0.581900  0.732800  1.0
  H  H277  1  0.732800  0.617600  0.918100  1.0
  H  H278  1  0.918100  0.767200  0.882400  1.0
  H  H279  1  0.117600  0.232800  0.081900  1.0
  H  H280  1  0.267200  0.617600  0.081900  1.0
  H  H281  1  0.081900  0.767200  0.117600  1.0
  H  H282  1  0.117600  0.581900  0.267200  1.0
  H  H283  1  0.882400  0.767200  0.081900  1.0
  H  H284  1  0.882400  0.418100  0.267200  1.0
  H  H285  1  0.732800  0.382400  0.081900  1.0
  H  H286  1  0.918100  0.232800  0.117600  1.0
  H  H287  1  0.918100  0.617600  0.267200  1.0
  H  H288  1  0.732800  0.581900  0.117600  1.0
  H  H289  1  0.918100  0.882400  0.232800  1.0
  H  H290  1  0.882400  0.732800  0.418100  1.0
  H  H291  1  0.732800  0.918100  0.382400  1.0
  H  H292  1  0.117600  0.918100  0.232800  1.0
  H  H293  1  0.267200  0.882400  0.418100  1.0
  H  H294  1  0.081900  0.732800  0.382400  1.0
  H  H295  1  0.081900  0.117600  0.232800  1.0
  H  H296  1  0.267200  0.918100  0.617600  1.0
  H  H297  1  0.081900  0.882400  0.767200  1.0
  H  H298  1  0.117600  0.267200  0.418100  1.0
  H  H299  1  0.267200  0.081900  0.382400  1.0
  H  H300  1  0.882400  0.081900  0.232800  1.0
  H  H301  1  0.732800  0.117600  0.418100  1.0
  H  H302  1  0.918100  0.267200  0.382400  1.0
  H  H303  1  0.117600  0.732800  0.581900  1.0
  H  H304  1  0.267200  0.117600  0.581900  1.0
  H  H305  1  0.081900  0.267200  0.617600  1.0
  H  H306  1  0.117600  0.081900  0.767200  1.0
  H  H307  1  0.882400  0.267200  0.581900  1.0
  H  H308  1  0.882400  0.918100  0.767200  1.0
  H  H309  1  0.732800  0.882400  0.581900  1.0
  H  H310  1  0.918100  0.732800  0.617600  1.0
  H  H311  1  0.918100  0.117600  0.767200  1.0
  H  H312  1  0.732800  0.081900  0.617600  1.0
  H  H313  1  0.394400  0.370200  0.194500  1.0
  H  H314  1  0.370200  0.194500  0.394400  1.0
  H  H315  1  0.194500  0.394400  0.370200  1.0
  H  H316  1  0.629800  0.394400  0.194500  1.0
  H  H317  1  0.805500  0.370200  0.394400  1.0
  H  H318  1  0.605600  0.194500  0.370200  1.0
  H  H319  1  0.605600  0.629800  0.194500  1.0
  H  H320  1  0.805500  0.394400  0.629800  1.0
  H  H321  1  0.605600  0.370200  0.805500  1.0
  H  H322  1  0.629800  0.805500  0.394400  1.0
  H  H323  1  0.805500  0.605600  0.370200  1.0
  H  H324  1  0.370200  0.605600  0.194500  1.0
  H  H325  1  0.194500  0.629800  0.394400  1.0
  H  H326  1  0.394400  0.805500  0.370200  1.0
  H  H327  1  0.629800  0.194500  0.605600  1.0
  H  H328  1  0.805500  0.629800  0.605600  1.0
  H  H329  1  0.605600  0.805500  0.629800  1.0
  H  H330  1  0.629800  0.605600  0.805500  1.0
  H  H331  1  0.370200  0.805500  0.605600  1.0
  H  H332  1  0.370200  0.394400  0.805500  1.0
  H  H333  1  0.194500  0.370200  0.605600  1.0
  H  H334  1  0.394400  0.194500  0.629800  1.0
  H  H335  1  0.394400  0.629800  0.805500  1.0
  H  H336  1  0.194500  0.605600  0.629800  1.0
  H  H337  1  0.394400  0.870200  0.694500  1.0
  H  H338  1  0.370200  0.694500  0.894400  1.0
  H  H339  1  0.194500  0.894400  0.870200  1.0
  H  H340  1  0.629800  0.894400  0.694500  1.0
  H  H341  1  0.805500  0.870200  0.894400  1.0
  H  H342  1  0.605600  0.694500  0.870200  1.0
  H  H343  1  0.605600  0.129800  0.694500  1.0
  H  H344  1  0.805500  0.894400  0.129800  1.0
  H  H345  1  0.605600  0.870200  0.305500  1.0
  H  H346  1  0.629800  0.305500  0.894400  1.0
  H  H347  1  0.805500  0.105600  0.870200  1.0
  H  H348  1  0.370200  0.105600  0.694500  1.0
  H  H349  1  0.194500  0.129800  0.894400  1.0
  H  H350  1  0.394400  0.305500  0.870200  1.0
  H  H351  1  0.629800  0.694500  0.105600  1.0
  H  H352  1  0.805500  0.129800  0.105600  1.0
  H  H353  1  0.605600  0.305500  0.129800  1.0
  H  H354  1  0.629800  0.105600  0.305500  1.0
  H  H355  1  0.370200  0.305500  0.105600  1.0
  H  H356  1  0.370200  0.894400  0.305500  1.0
  H  H357  1  0.194500  0.870200  0.105600  1.0
  H  H358  1  0.394400  0.694500  0.129800  1.0
  H  H359  1  0.394400  0.129800  0.305500  1.0
  H  H360  1  0.194500  0.105600  0.129800  1.0
  H  H361  1  0.894400  0.370200  0.694500  1.0
  H  H362  1  0.870200  0.194500  0.894400  1.0
  H  H363  1  0.694500  0.394400  0.870200  1.0
  H  H364  1  0.129800  0.394400  0.694500  1.0
  H  H365  1  0.305500  0.370200  0.894400  1.0
  H  H366  1  0.105600  0.194500  0.870200  1.0
  H  H367  1  0.105600  0.629800  0.694500  1.0
  H  H368  1  0.305500  0.394400  0.129800  1.0
  H  H369  1  0.105600  0.370200  0.305500  1.0
  H  H370  1  0.129800  0.805500  0.894400  1.0
  H  H371  1  0.305500  0.605600  0.870200  1.0
  H  H372  1  0.870200  0.605600  0.694500  1.0
  H  H373  1  0.694500  0.629800  0.894400  1.0
  H  H374  1  0.894400  0.805500  0.870200  1.0
  H  H375  1  0.129800  0.194500  0.105600  1.0
  H  H376  1  0.305500  0.629800  0.105600  1.0
  H  H377  1  0.105600  0.805500  0.129800  1.0
  H  H378  1  0.129800  0.605600  0.305500  1.0
  H  H379  1  0.870200  0.805500  0.105600  1.0
  H  H380  1  0.870200  0.394400  0.305500  1.0
  H  H381  1  0.694500  0.370200  0.105600  1.0
  H  H382  1  0.894400  0.194500  0.129800  1.0
  H  H383  1  0.894400  0.629800  0.305500  1.0
  H  H384  1  0.694500  0.605600  0.129800  1.0
  H  H385  1  0.894400  0.870200  0.194500  1.0
  H  H386  1  0.870200  0.694500  0.394400  1.0
  H  H387  1  0.694500  0.894400  0.370200  1.0
  H  H388  1  0.129800  0.894400  0.194500  1.0
  H  H389  1  0.305500  0.870200  0.394400  1.0
  H  H390  1  0.105600  0.694500  0.370200  1.0
  H  H391  1  0.105600  0.129800  0.194500  1.0
  H  H392  1  0.305500  0.894400  0.629800  1.0
  H  H393  1  0.105600  0.870200  0.805500  1.0
  H  H394  1  0.129800  0.305500  0.394400  1.0
  H  H395  1  0.305500  0.105600  0.370200  1.0
  H  H396  1  0.870200  0.105600  0.194500  1.0
  H  H397  1  0.694500  0.129800  0.394400  1.0
  H  H398  1  0.894400  0.305500  0.370200  1.0
  H  H399  1  0.129800  0.694500  0.605600  1.0
  H  H400  1  0.305500  0.129800  0.605600  1.0
  H  H401  1  0.105600  0.305500  0.629800  1.0
  H  H402  1  0.129800  0.105600  0.805500  1.0
  H  H403  1  0.870200  0.305500  0.605600  1.0
  H  H404  1  0.870200  0.894400  0.805500  1.0
  H  H405  1  0.694500  0.870200  0.605600  1.0
  H  H406  1  0.894400  0.694500  0.629800  1.0
  H  H407  1  0.894400  0.129800  0.805500  1.0
  H  H408  1  0.694500  0.105600  0.629800  1.0
  H  H409  1  0.495600  0.444700  0.302400  1.0
  H  H410  1  0.444700  0.302400  0.495600  1.0
  H  H411  1  0.302400  0.495600  0.444700  1.0
  H  H412  1  0.555300  0.495600  0.302400  1.0
  H  H413  1  0.697600  0.444700  0.495600  1.0
  H  H414  1  0.504400  0.302400  0.444700  1.0
  H  H415  1  0.504400  0.555300  0.302400  1.0
  H  H416  1  0.697600  0.495600  0.555300  1.0
  H  H417  1  0.504400  0.444700  0.697600  1.0
  H  H418  1  0.555300  0.697600  0.495600  1.0
  H  H419  1  0.697600  0.504400  0.444700  1.0
  H  H420  1  0.444700  0.504400  0.302400  1.0
  H  H421  1  0.302400  0.555300  0.495600  1.0
  H  H422  1  0.495600  0.697600  0.444700  1.0
  H  H423  1  0.555300  0.302400  0.504400  1.0
  H  H424  1  0.697600  0.555300  0.504400  1.0
  H  H425  1  0.504400  0.697600  0.555300  1.0
  H  H426  1  0.555300  0.504400  0.697600  1.0
  H  H427  1  0.444700  0.697600  0.504400  1.0
  H  H428  1  0.444700  0.495600  0.697600  1.0
  H  H429  1  0.302400  0.444700  0.504400  1.0
  H  H430  1  0.495600  0.302400  0.555300  1.0
  H  H431  1  0.495600  0.555300  0.697600  1.0
  H  H432  1  0.302400  0.504400  0.555300  1.0
  H  H433  1  0.495600  0.944700  0.802400  1.0
  H  H434  1  0.444700  0.802400  0.995600  1.0
  H  H435  1  0.302400  0.995600  0.944700  1.0
  H  H436  1  0.555300  0.995600  0.802400  1.0
  H  H437  1  0.697600  0.944700  0.995600  1.0
  H  H438  1  0.504400  0.802400  0.944700  1.0
  H  H439  1  0.504400  0.055300  0.802400  1.0
  H  H440  1  0.697600  0.995600  0.055300  1.0
  H  H441  1  0.504400  0.944700  0.197600  1.0
  H  H442  1  0.555300  0.197600  0.995600  1.0
  H  H443  1  0.697600  0.004400  0.944700  1.0
  H  H444  1  0.444700  0.004400  0.802400  1.0
  H  H445  1  0.302400  0.055300  0.995600  1.0
  H  H446  1  0.495600  0.197600  0.944700  1.0
  H  H447  1  0.555300  0.802400  0.004400  1.0
  H  H448  1  0.697600  0.055300  0.004400  1.0
  H  H449  1  0.504400  0.197600  0.055300  1.0
  H  H450  1  0.555300  0.004400  0.197600  1.0
  H  H451  1  0.444700  0.197600  0.004400  1.0
  H  H452  1  0.444700  0.995600  0.197600  1.0
  H  H453  1  0.302400  0.944700  0.004400  1.0
  H  H454  1  0.495600  0.802400  0.055300  1.0
  H  H455  1  0.495600  0.055300  0.197600  1.0
  H  H456  1  0.302400  0.004400  0.055300  1.0
  H  H457  1  0.995600  0.444700  0.802400  1.0
  H  H458  1  0.944700  0.302400  0.995600  1.0
  H  H459  1  0.802400  0.495600  0.944700  1.0
  H  H460  1  0.055300  0.495600  0.802400  1.0
  H  H461  1  0.197600  0.444700  0.995600  1.0
  H  H462  1  0.004400  0.302400  0.944700  1.0
  H  H463  1  0.004400  0.555300  0.802400  1.0
  H  H464  1  0.197600  0.495600  0.055300  1.0
  H  H465  1  0.004400  0.444700  0.197600  1.0
  H  H466  1  0.055300  0.697600  0.995600  1.0
  H  H467  1  0.197600  0.504400  0.944700  1.0
  H  H468  1  0.944700  0.504400  0.802400  1.0
  H  H469  1  0.802400  0.555300  0.995600  1.0
  H  H470  1  0.995600  0.697600  0.944700  1.0
  H  H471  1  0.055300  0.302400  0.004400  1.0
  H  H472  1  0.197600  0.555300  0.004400  1.0
  H  H473  1  0.004400  0.697600  0.055300  1.0
  H  H474  1  0.055300  0.504400  0.197600  1.0
  H  H475  1  0.944700  0.697600  0.004400  1.0
  H  H476  1  0.944700  0.495600  0.197600  1.0
  H  H477  1  0.802400  0.444700  0.004400  1.0
  H  H478  1  0.995600  0.302400  0.055300  1.0
  H  H479  1  0.995600  0.555300  0.197600  1.0
  H  H480  1  0.802400  0.504400  0.055300  1.0
  H  H481  1  0.995600  0.944700  0.302400  1.0
  H  H482  1  0.944700  0.802400  0.495600  1.0
  H  H483  1  0.802400  0.995600  0.444700  1.0
  H  H484  1  0.055300  0.995600  0.302400  1.0
  H  H485  1  0.197600  0.944700  0.495600  1.0
  H  H486  1  0.004400  0.802400  0.444700  1.0
  H  H487  1  0.004400  0.055300  0.302400  1.0
  H  H488  1  0.197600  0.995600  0.555300  1.0
  H  H489  1  0.004400  0.944700  0.697600  1.0
  H  H490  1  0.055300  0.197600  0.495600  1.0
  H  H491  1  0.197600  0.004400  0.444700  1.0
  H  H492  1  0.944700  0.004400  0.302400  1.0
  H  H493  1  0.802400  0.055300  0.495600  1.0
  H  H494  1  0.995600  0.197600  0.444700  1.0
  H  H495  1  0.055300  0.802400  0.504400  1.0
  H  H496  1  0.197600  0.055300  0.504400  1.0
  H  H497  1  0.004400  0.197600  0.555300  1.0
  H  H498  1  0.055300  0.004400  0.697600  1.0
  H  H499  1  0.944700  0.197600  0.504400  1.0
  H  H500  1  0.944700  0.995600  0.697600  1.0
  H  H501  1  0.802400  0.944700  0.504400  1.0
  H  H502  1  0.995600  0.802400  0.555300  1.0
  H  H503  1  0.995600  0.055300  0.697600  1.0
  H  H504  1  0.802400  0.004400  0.555300  1.0
  H  H505  1  0.478200  0.400900  0.304000  1.0
  H  H506  1  0.400900  0.304000  0.478200  1.0
  H  H507  1  0.304000  0.478200  0.400900  1.0
  H  H508  1  0.599100  0.478200  0.304000  1.0
  H  H509  1  0.696000  0.400900  0.478200  1.0
  H  H510  1  0.521800  0.304000  0.400900  1.0
  H  H511  1  0.521800  0.599100  0.304000  1.0
  H  H512  1  0.696000  0.478200  0.599100  1.0
  H  H513  1  0.521800  0.400900  0.696000  1.0
  H  H514  1  0.599100  0.696000  0.478200  1.0
  H  H515  1  0.696000  0.521800  0.400900  1.0
  H  H516  1  0.400900  0.521800  0.304000  1.0
  H  H517  1  0.304000  0.599100  0.478200  1.0
  H  H518  1  0.478200  0.696000  0.400900  1.0
  H  H519  1  0.599100  0.304000  0.521800  1.0
  H  H520  1  0.696000  0.599100  0.521800  1.0
  H  H521  1  0.521800  0.696000  0.599100  1.0
  H  H522  1  0.599100  0.521800  0.696000  1.0
  H  H523  1  0.400900  0.696000  0.521800  1.0
  H  H524  1  0.400900  0.478200  0.696000  1.0
  H  H525  1  0.304000  0.400900  0.521800  1.0
  H  H526  1  0.478200  0.304000  0.599100  1.0
  H  H527  1  0.478200  0.599100  0.696000  1.0
  H  H528  1  0.304000  0.521800  0.599100  1.0
  H  H529  1  0.478200  0.900900  0.804000  1.0
  H  H530  1  0.400900  0.804000  0.978200  1.0
  H  H531  1  0.304000  0.978200  0.900900  1.0
  H  H532  1  0.599100  0.978200  0.804000  1.0
  H  H533  1  0.696000  0.900900  0.978200  1.0
  H  H534  1  0.521800  0.804000  0.900900  1.0
  H  H535  1  0.521800  0.099100  0.804000  1.0
  H  H536  1  0.696000  0.978200  0.099100  1.0
  H  H537  1  0.521800  0.900900  0.196000  1.0
  H  H538  1  0.599100  0.196000  0.978200  1.0
  H  H539  1  0.696000  0.021800  0.900900  1.0
  H  H540  1  0.400900  0.021800  0.804000  1.0
  H  H541  1  0.304000  0.099100  0.978200  1.0
  H  H542  1  0.478200  0.196000  0.900900  1.0
  H  H543  1  0.599100  0.804000  0.021800  1.0
  H  H544  1  0.696000  0.099100  0.021800  1.0
  H  H545  1  0.521800  0.196000  0.099100  1.0
  H  H546  1  0.599100  0.021800  0.196000  1.0
  H  H547  1  0.400900  0.196000  0.021800  1.0
  H  H548  1  0.400900  0.978200  0.196000  1.0
  H  H549  1  0.304000  0.900900  0.021800  1.0
  H  H550  1  0.478200  0.804000  0.099100  1.0
  H  H551  1  0.478200  0.099100  0.196000  1.0
  H  H552  1  0.304000  0.021800  0.099100  1.0
  H  H553  1  0.978200  0.400900  0.804000  1.0
  H  H554  1  0.900900  0.304000  0.978200  1.0
  H  H555  1  0.804000  0.478200  0.900900  1.0
  H  H556  1  0.099100  0.478200  0.804000  1.0
  H  H557  1  0.196000  0.400900  0.978200  1.0
  H  H558  1  0.021800  0.304000  0.900900  1.0
  H  H559  1  0.021800  0.599100  0.804000  1.0
  H  H560  1  0.196000  0.478200  0.099100  1.0
  H  H561  1  0.021800  0.400900  0.196000  1.0
  H  H562  1  0.099100  0.696000  0.978200  1.0
  H  H563  1  0.196000  0.521800  0.900900  1.0
  H  H564  1  0.900900  0.521800  0.804000  1.0
  H  H565  1  0.804000  0.599100  0.978200  1.0
  H  H566  1  0.978200  0.696000  0.900900  1.0
  H  H567  1  0.099100  0.304000  0.021800  1.0
  H  H568  1  0.196000  0.599100  0.021800  1.0
  H  H569  1  0.021800  0.696000  0.099100  1.0
  H  H570  1  0.099100  0.521800  0.196000  1.0
  H  H571  1  0.900900  0.696000  0.021800  1.0
  H  H572  1  0.900900  0.478200  0.196000  1.0
  H  H573  1  0.804000  0.400900  0.021800  1.0
  H  H574  1  0.978200  0.304000  0.099100  1.0
  H  H575  1  0.978200  0.599100  0.196000  1.0
  H  H576  1  0.804000  0.521800  0.099100  1.0
  H  H577  1  0.978200  0.900900  0.304000  1.0
  H  H578  1  0.900900  0.804000  0.478200  1.0
  H  H579  1  0.804000  0.978200  0.400900  1.0
  H  H580  1  0.099100  0.978200  0.304000  1.0
  H  H581  1  0.196000  0.900900  0.478200  1.0
  H  H582  1  0.021800  0.804000  0.400900  1.0
  H  H583  1  0.021800  0.099100  0.304000  1.0
  H  H584  1  0.196000  0.978200  0.599100  1.0
  H  H585  1  0.021800  0.900900  0.696000  1.0
  H  H586  1  0.099100  0.196000  0.478200  1.0
  H  H587  1  0.196000  0.021800  0.400900  1.0
  H  H588  1  0.900900  0.021800  0.304000  1.0
  H  H589  1  0.804000  0.099100  0.478200  1.0
  H  H590  1  0.978200  0.196000  0.400900  1.0
  H  H591  1  0.099100  0.804000  0.521800  1.0
  H  H592  1  0.196000  0.099100  0.521800  1.0
  H  H593  1  0.021800  0.196000  0.599100  1.0
  H  H594  1  0.099100  0.021800  0.696000  1.0
  H  H595  1  0.900900  0.196000  0.521800  1.0
  H  H596  1  0.900900  0.978200  0.696000  1.0
  H  H597  1  0.804000  0.900900  0.521800  1.0
  H  H598  1  0.978200  0.804000  0.599100  1.0
  H  H599  1  0.978200  0.099100  0.696000  1.0
  H  H600  1  0.804000  0.021800  0.599100  1.0
  H  H601  1  0.456800  0.381900  0.263100  1.0
  H  H602  1  0.381900  0.263100  0.456800  1.0
  H  H603  1  0.263100  0.456800  0.381900  1.0
  H  H604  1  0.618100  0.456800  0.263100  1.0
  H  H605  1  0.736900  0.381900  0.456800  1.0
  H  H606  1  0.543200  0.263100  0.381900  1.0
  H  H607  1  0.543200  0.618100  0.263100  1.0
  H  H608  1  0.736900  0.456800  0.618100  1.0
  H  H609  1  0.543200  0.381900  0.736900  1.0
  H  H610  1  0.618100  0.736900  0.456800  1.0
  H  H611  1  0.736900  0.543200  0.381900  1.0
  H  H612  1  0.381900  0.543200  0.263100  1.0
  H  H613  1  0.263100  0.618100  0.456800  1.0
  H  H614  1  0.456800  0.736900  0.381900  1.0
  H  H615  1  0.618100  0.263100  0.543200  1.0
  H  H616  1  0.736900  0.618100  0.543200  1.0
  H  H617  1  0.543200  0.736900  0.618100  1.0
  H  H618  1  0.618100  0.543200  0.736900  1.0
  H  H619  1  0.381900  0.736900  0.543200  1.0
  H  H620  1  0.381900  0.456800  0.736900  1.0
  H  H621  1  0.263100  0.381900  0.543200  1.0
  H  H622  1  0.456800  0.263100  0.618100  1.0
  H  H623  1  0.456800  0.618100  0.736900  1.0
  H  H624  1  0.263100  0.543200  0.618100  1.0
  H  H625  1  0.456800  0.881900  0.763100  1.0
  H  H626  1  0.381900  0.763100  0.956800  1.0
  H  H627  1  0.263100  0.956800  0.881900  1.0
  H  H628  1  0.618100  0.956800  0.763100  1.0
  H  H629  1  0.736900  0.881900  0.956800  1.0
  H  H630  1  0.543200  0.763100  0.881900  1.0
  H  H631  1  0.543200  0.118100  0.763100  1.0
  H  H632  1  0.736900  0.956800  0.118100  1.0
  H  H633  1  0.543200  0.881900  0.236900  1.0
  H  H634  1  0.618100  0.236900  0.956800  1.0
  H  H635  1  0.736900  0.043200  0.881900  1.0
  H  H636  1  0.381900  0.043200  0.763100  1.0
  H  H637  1  0.263100  0.118100  0.956800  1.0
  H  H638  1  0.456800  0.236900  0.881900  1.0
  H  H639  1  0.618100  0.763100  0.043200  1.0
  H  H640  1  0.736900  0.118100  0.043200  1.0
  H  H641  1  0.543200  0.236900  0.118100  1.0
  H  H642  1  0.618100  0.043200  0.236900  1.0
  H  H643  1  0.381900  0.236900  0.043200  1.0
  H  H644  1  0.381900  0.956800  0.236900  1.0
  H  H645  1  0.263100  0.881900  0.043200  1.0
  H  H646  1  0.456800  0.763100  0.118100  1.0
  H  H647  1  0.456800  0.118100  0.236900  1.0
  H  H648  1  0.263100  0.043200  0.118100  1.0
  H  H649  1  0.956800  0.381900  0.763100  1.0
  H  H650  1  0.881900  0.263100  0.956800  1.0
  H  H651  1  0.763100  0.456800  0.881900  1.0
  H  H652  1  0.118100  0.456800  0.763100  1.0
  H  H653  1  0.236900  0.381900  0.956800  1.0
  H  H654  1  0.043200  0.263100  0.881900  1.0
  H  H655  1  0.043200  0.618100  0.763100  1.0
  H  H656  1  0.236900  0.456800  0.118100  1.0
  H  H657  1  0.043200  0.381900  0.236900  1.0
  H  H658  1  0.118100  0.736900  0.956800  1.0
  H  H659  1  0.236900  0.543200  0.881900  1.0
  H  H660  1  0.881900  0.543200  0.763100  1.0
  H  H661  1  0.763100  0.618100  0.956800  1.0
  H  H662  1  0.956800  0.736900  0.881900  1.0
  H  H663  1  0.118100  0.263100  0.043200  1.0
  H  H664  1  0.236900  0.618100  0.043200  1.0
  H  H665  1  0.043200  0.736900  0.118100  1.0
  H  H666  1  0.118100  0.543200  0.236900  1.0
  H  H667  1  0.881900  0.736900  0.043200  1.0
  H  H668  1  0.881900  0.456800  0.236900  1.0
  H  H669  1  0.763100  0.381900  0.043200  1.0
  H  H670  1  0.956800  0.263100  0.118100  1.0
  H  H671  1  0.956800  0.618100  0.236900  1.0
  H  H672  1  0.763100  0.543200  0.118100  1.0
  H  H673  1  0.956800  0.881900  0.263100  1.0
  H  H674  1  0.881900  0.763100  0.456800  1.0
  H  H675  1  0.763100  0.956800  0.381900  1.0
  H  H676  1  0.118100  0.956800  0.263100  1.0
  H  H677  1  0.236900  0.881900  0.456800  1.0
  H  H678  1  0.043200  0.763100  0.381900  1.0
  H  H679  1  0.043200  0.118100  0.263100  1.0
  H  H680  1  0.236900  0.956800  0.618100  1.0
  H  H681  1  0.043200  0.881900  0.736900  1.0
  H  H682  1  0.118100  0.236900  0.456800  1.0
  H  H683  1  0.236900  0.043200  0.381900  1.0
  H  H684  1  0.881900  0.043200  0.263100  1.0
  H  H685  1  0.763100  0.118100  0.456800  1.0
  H  H686  1  0.956800  0.236900  0.381900  1.0
  H  H687  1  0.118100  0.763100  0.543200  1.0
  H  H688  1  0.236900  0.118100  0.543200  1.0
  H  H689  1  0.043200  0.236900  0.618100  1.0
  H  H690  1  0.118100  0.043200  0.736900  1.0
  H  H691  1  0.881900  0.236900  0.543200  1.0
  H  H692  1  0.881900  0.956800  0.736900  1.0
  H  H693  1  0.763100  0.881900  0.543200  1.0
  H  H694  1  0.956800  0.763100  0.618100  1.0
  H  H695  1  0.956800  0.118100  0.736900  1.0
  H  H696  1  0.763100  0.043200  0.618100  1.0
  H  H697  1  0.468700  0.457200  0.226300  1.0
  H  H698  1  0.457200  0.226300  0.468700  1.0
  H  H699  1  0.226300  0.468700  0.457200  1.0
  H  H700  1  0.542800  0.468700  0.226300  1.0
  H  H701  1  0.773700  0.457200  0.468700  1.0
  H  H702  1  0.531300  0.226300  0.457200  1.0
  H  H703  1  0.531300  0.542800  0.226300  1.0
  H  H704  1  0.773700  0.468700  0.542800  1.0
  H  H705  1  0.531300  0.457200  0.773700  1.0
  H  H706  1  0.542800  0.773700  0.468700  1.0
  H  H707  1  0.773700  0.531300  0.457200  1.0
  H  H708  1  0.457200  0.531300  0.226300  1.0
  H  H709  1  0.226300  0.542800  0.468700  1.0
  H  H710  1  0.468700  0.773700  0.457200  1.0
  H  H711  1  0.542800  0.226300  0.531300  1.0
  H  H712  1  0.773700  0.542800  0.531300  1.0
  H  H713  1  0.531300  0.773700  0.542800  1.0
  H  H714  1  0.542800  0.531300  0.773700  1.0
  H  H715  1  0.457200  0.773700  0.531300  1.0
  H  H716  1  0.457200  0.468700  0.773700  1.0
  H  H717  1  0.226300  0.457200  0.531300  1.0
  H  H718  1  0.468700  0.226300  0.542800  1.0
  H  H719  1  0.468700  0.542800  0.773700  1.0
  H  H720  1  0.226300  0.531300  0.542800  1.0
  H  H721  1  0.468700  0.957200  0.726300  1.0
  H  H722  1  0.457200  0.726300  0.968700  1.0
  H  H723  1  0.226300  0.968700  0.957200  1.0
  H  H724  1  0.542800  0.968700  0.726300  1.0
  H  H725  1  0.773700  0.957200  0.968700  1.0
  H  H726  1  0.531300  0.726300  0.957200  1.0
  H  H727  1  0.531300  0.042800  0.726300  1.0
  H  H728  1  0.773700  0.968700  0.042800  1.0
  H  H729  1  0.531300  0.957200  0.273700  1.0
  H  H730  1  0.542800  0.273700  0.968700  1.0
  H  H731  1  0.773700  0.031300  0.957200  1.0
  H  H732  1  0.457200  0.031300  0.726300  1.0
  H  H733  1  0.226300  0.042800  0.968700  1.0
  H  H734  1  0.468700  0.273700  0.957200  1.0
  H  H735  1  0.542800  0.726300  0.031300  1.0
  H  H736  1  0.773700  0.042800  0.031300  1.0
  H  H737  1  0.531300  0.273700  0.042800  1.0
  H  H738  1  0.542800  0.031300  0.273700  1.0
  H  H739  1  0.457200  0.273700  0.031300  1.0
  H  H740  1  0.457200  0.968700  0.273700  1.0
  H  H741  1  0.226300  0.957200  0.031300  1.0
  H  H742  1  0.468700  0.726300  0.042800  1.0
  H  H743  1  0.468700  0.042800  0.273700  1.0
  H  H744  1  0.226300  0.031300  0.042800  1.0
  H  H745  1  0.968700  0.457200  0.726300  1.0
  H  H746  1  0.957200  0.226300  0.968700  1.0
  H  H747  1  0.726300  0.468700  0.957200  1.0
  H  H748  1  0.042800  0.468700  0.726300  1.0
  H  H749  1  0.273700  0.457200  0.968700  1.0
  H  H750  1  0.031300  0.226300  0.957200  1.0
  H  H751  1  0.031300  0.542800  0.726300  1.0
  H  H752  1  0.273700  0.468700  0.042800  1.0
  H  H753  1  0.031300  0.457200  0.273700  1.0
  H  H754  1  0.042800  0.773700  0.968700  1.0
  H  H755  1  0.273700  0.531300  0.957200  1.0
  H  H756  1  0.957200  0.531300  0.726300  1.0
  H  H757  1  0.726300  0.542800  0.968700  1.0
  H  H758  1  0.968700  0.773700  0.957200  1.0
  H  H759  1  0.042800  0.226300  0.031300  1.0
  H  H760  1  0.273700  0.542800  0.031300  1.0
  H  H761  1  0.031300  0.773700  0.042800  1.0
  H  H762  1  0.042800  0.531300  0.273700  1.0
  H  H763  1  0.957200  0.773700  0.031300  1.0
  H  H764  1  0.957200  0.468700  0.273700  1.0
  H  H765  1  0.726300  0.457200  0.031300  1.0
  H  H766  1  0.968700  0.226300  0.042800  1.0
  H  H767  1  0.968700  0.542800  0.273700  1.0
  H  H768  1  0.726300  0.531300  0.042800  1.0
  H  H769  1  0.968700  0.957200  0.226300  1.0
  H  H770  1  0.957200  0.726300  0.468700  1.0
  H  H771  1  0.726300  0.968700  0.457200  1.0
  H  H772  1  0.042800  0.968700  0.226300  1.0
  H  H773  1  0.273700  0.957200  0.468700  1.0
  H  H774  1  0.031300  0.726300  0.457200  1.0
  H  H775  1  0.031300  0.042800  0.226300  1.0
  H  H776  1  0.273700  0.968700  0.542800  1.0
  H  H777  1  0.031300  0.957200  0.773700  1.0
  H  H778  1  0.042800  0.273700  0.468700  1.0
  H  H779  1  0.273700  0.031300  0.457200  1.0
  H  H780  1  0.957200  0.031300  0.226300  1.0
  H  H781  1  0.726300  0.042800  0.468700  1.0
  H  H782  1  0.968700  0.273700  0.457200  1.0
  H  H783  1  0.042800  0.726300  0.531300  1.0
  H  H784  1  0.273700  0.042800  0.531300  1.0
  H  H785  1  0.031300  0.273700  0.542800  1.0
  H  H786  1  0.042800  0.031300  0.773700  1.0
  H  H787  1  0.957200  0.273700  0.531300  1.0
  H  H788  1  0.957200  0.968700  0.773700  1.0
  H  H789  1  0.726300  0.957200  0.531300  1.0
  H  H790  1  0.968700  0.726300  0.542800  1.0
  H  H791  1  0.968700  0.042800  0.773700  1.0
  H  H792  1  0.726300  0.031300  0.542800  1.0
  H  H793  1  0.412800  0.321800  0.159900  1.0
  H  H794  1  0.321800  0.159900  0.412800  1.0
  H  H795  1  0.159900  0.412800  0.321800  1.0
  H  H796  1  0.678200  0.412800  0.159900  1.0
  H  H797  1  0.840100  0.321800  0.412800  1.0
  H  H798  1  0.587200  0.159900  0.321800  1.0
  H  H799  1  0.587200  0.678200  0.159900  1.0
  H  H800  1  0.840100  0.412800  0.678200  1.0
  H  H801  1  0.587200  0.321800  0.840100  1.0
  H  H802  1  0.678200  0.840100  0.412800  1.0
  H  H803  1  0.840100  0.587200  0.321800  1.0
  H  H804  1  0.321800  0.587200  0.159900  1.0
  H  H805  1  0.159900  0.678200  0.412800  1.0
  H  H806  1  0.412800  0.840100  0.321800  1.0
  H  H807  1  0.678200  0.159900  0.587200  1.0
  H  H808  1  0.840100  0.678200  0.587200  1.0
  H  H809  1  0.587200  0.840100  0.678200  1.0
  H  H810  1  0.678200  0.587200  0.840100  1.0
  H  H811  1  0.321800  0.840100  0.587200  1.0
  H  H812  1  0.321800  0.412800  0.840100  1.0
  H  H813  1  0.159900  0.321800  0.587200  1.0
  H  H814  1  0.412800  0.159900  0.678200  1.0
  H  H815  1  0.412800  0.678200  0.840100  1.0
  H  H816  1  0.159900  0.587200  0.678200  1.0
  H  H817  1  0.412800  0.821800  0.659900  1.0
  H  H818  1  0.321800  0.659900  0.912800  1.0
  H  H819  1  0.159900  0.912800  0.821800  1.0
  H  H820  1  0.678200  0.912800  0.659900  1.0
  H  H821  1  0.840100  0.821800  0.912800  1.0
  H  H822  1  0.587200  0.659900  0.821800  1.0
  H  H823  1  0.587200  0.178200  0.659900  1.0
  H  H824  1  0.840100  0.912800  0.178200  1.0
  H  H825  1  0.587200  0.821800  0.340100  1.0
  H  H826  1  0.678200  0.340100  0.912800  1.0
  H  H827  1  0.840100  0.087200  0.821800  1.0
  H  H828  1  0.321800  0.087200  0.659900  1.0
  H  H829  1  0.159900  0.178200  0.912800  1.0
  H  H830  1  0.412800  0.340100  0.821800  1.0
  H  H831  1  0.678200  0.659900  0.087200  1.0
  H  H832  1  0.840100  0.178200  0.087200  1.0
  H  H833  1  0.587200  0.340100  0.178200  1.0
  H  H834  1  0.678200  0.087200  0.340100  1.0
  H  H835  1  0.321800  0.340100  0.087200  1.0
  H  H836  1  0.321800  0.912800  0.340100  1.0
  H  H837  1  0.159900  0.821800  0.087200  1.0
  H  H838  1  0.412800  0.659900  0.178200  1.0
  H  H839  1  0.412800  0.178200  0.340100  1.0
  H  H840  1  0.159900  0.087200  0.178200  1.0
  H  H841  1  0.912800  0.321800  0.659900  1.0
  H  H842  1  0.821800  0.159900  0.912800  1.0
  H  H843  1  0.659900  0.412800  0.821800  1.0
  H  H844  1  0.178200  0.412800  0.659900  1.0
  H  H845  1  0.340100  0.321800  0.912800  1.0
  H  H846  1  0.087200  0.159900  0.821800  1.0
  H  H847  1  0.087200  0.678200  0.659900  1.0
  H  H848  1  0.340100  0.412800  0.178200  1.0
  H  H849  1  0.087200  0.321800  0.340100  1.0
  H  H850  1  0.178200  0.840100  0.912800  1.0
  H  H851  1  0.340100  0.587200  0.821800  1.0
  H  H852  1  0.821800  0.587200  0.659900  1.0
  H  H853  1  0.659900  0.678200  0.912800  1.0
  H  H854  1  0.912800  0.840100  0.821800  1.0
  H  H855  1  0.178200  0.159900  0.087200  1.0
  H  H856  1  0.340100  0.678200  0.087200  1.0
  H  H857  1  0.087200  0.840100  0.178200  1.0
  H  H858  1  0.178200  0.587200  0.340100  1.0
  H  H859  1  0.821800  0.840100  0.087200  1.0
  H  H860  1  0.821800  0.412800  0.340100  1.0
  H  H861  1  0.659900  0.321800  0.087200  1.0
  H  H862  1  0.912800  0.159900  0.178200  1.0
  H  H863  1  0.912800  0.678200  0.340100  1.0
  H  H864  1  0.659900  0.587200  0.178200  1.0
  H  H865  1  0.912800  0.821800  0.159900  1.0
  H  H866  1  0.821800  0.659900  0.412800  1.0
  H  H867  1  0.659900  0.912800  0.321800  1.0
  H  H868  1  0.178200  0.912800  0.159900  1.0
  H  H869  1  0.340100  0.821800  0.412800  1.0
  H  H870  1  0.087200  0.659900  0.321800  1.0
  H  H871  1  0.087200  0.178200  0.159900  1.0
  H  H872  1  0.340100  0.912800  0.678200  1.0
  H  H873  1  0.087200  0.821800  0.840100  1.0
  H  H874  1  0.178200  0.340100  0.412800  1.0
  H  H875  1  0.340100  0.087200  0.321800  1.0
  H  H876  1  0.821800  0.087200  0.159900  1.0
  H  H877  1  0.659900  0.178200  0.412800  1.0
  H  H878  1  0.912800  0.340100  0.321800  1.0
  H  H879  1  0.178200  0.659900  0.587200  1.0
  H  H880  1  0.340100  0.178200  0.587200  1.0
  H  H881  1  0.087200  0.340100  0.678200  1.0
  H  H882  1  0.178200  0.087200  0.840100  1.0
  H  H883  1  0.821800  0.340100  0.587200  1.0
  H  H884  1  0.821800  0.912800  0.840100  1.0
  H  H885  1  0.659900  0.821800  0.587200  1.0
  H  H886  1  0.912800  0.659900  0.678200  1.0
  H  H887  1  0.912800  0.178200  0.840100  1.0
  H  H888  1  0.659900  0.087200  0.678200  1.0
  H  H889  1  0.453000  0.296500  0.167600  1.0
  H  H890  1  0.296500  0.167600  0.453000  1.0
  H  H891  1  0.167600  0.453000  0.296500  1.0
  H  H892  1  0.703500  0.453000  0.167600  1.0
  H  H893  1  0.832400  0.296500  0.453000  1.0
  H  H894  1  0.547000  0.167600  0.296500  1.0
  H  H895  1  0.547000  0.703500  0.167600  1.0
  H  H896  1  0.832400  0.453000  0.703500  1.0
  H  H897  1  0.547000  0.296500  0.832400  1.0
  H  H898  1  0.703500  0.832400  0.453000  1.0
  H  H899  1  0.832400  0.547000  0.296500  1.0
  H  H900  1  0.296500  0.547000  0.167600  1.0
  H  H901  1  0.167600  0.703500  0.453000  1.0
  H  H902  1  0.453000  0.832400  0.296500  1.0
  H  H903  1  0.703500  0.167600  0.547000  1.0
  H  H904  1  0.832400  0.703500  0.547000  1.0
  H  H905  1  0.547000  0.832400  0.703500  1.0
  H  H906  1  0.703500  0.547000  0.832400  1.0
  H  H907  1  0.296500  0.832400  0.547000  1.0
  H  H908  1  0.296500  0.453000  0.832400  1.0
  H  H909  1  0.167600  0.296500  0.547000  1.0
  H  H910  1  0.453000  0.167600  0.703500  1.0
  H  H911  1  0.453000  0.703500  0.832400  1.0
  H  H912  1  0.167600  0.547000  0.703500  1.0
  H  H913  1  0.453000  0.796500  0.667600  1.0
  H  H914  1  0.296500  0.667600  0.953000  1.0
  H  H915  1  0.167600  0.953000  0.796500  1.0
  H  H916  1  0.703500  0.953000  0.667600  1.0
  H  H917  1  0.832400  0.796500  0.953000  1.0
  H  H918  1  0.547000  0.667600  0.796500  1.0
  H  H919  1  0.547000  0.203500  0.667600  1.0
  H  H920  1  0.832400  0.953000  0.203500  1.0
  H  H921  1  0.547000  0.796500  0.332400  1.0
  H  H922  1  0.703500  0.332400  0.953000  1.0
  H  H923  1  0.832400  0.047000  0.796500  1.0
  H  H924  1  0.296500  0.047000  0.667600  1.0
  H  H925  1  0.167600  0.203500  0.953000  1.0
  H  H926  1  0.453000  0.332400  0.796500  1.0
  H  H927  1  0.703500  0.667600  0.047000  1.0
  H  H928  1  0.832400  0.203500  0.047000  1.0
  H  H929  1  0.547000  0.332400  0.203500  1.0
  H  H930  1  0.703500  0.047000  0.332400  1.0
  H  H931  1  0.296500  0.332400  0.047000  1.0
  H  H932  1  0.296500  0.953000  0.332400  1.0
  H  H933  1  0.167600  0.796500  0.047000  1.0
  H  H934  1  0.453000  0.667600  0.203500  1.0
  H  H935  1  0.453000  0.203500  0.332400  1.0
  H  H936  1  0.167600  0.047000  0.203500  1.0
  H  H937  1  0.953000  0.296500  0.667600  1.0
  H  H938  1  0.796500  0.167600  0.953000  1.0
  H  H939  1  0.667600  0.453000  0.796500  1.0
  H  H940  1  0.203500  0.453000  0.667600  1.0
  H  H941  1  0.332400  0.296500  0.953000  1.0
  H  H942  1  0.047000  0.167600  0.796500  1.0
  H  H943  1  0.047000  0.703500  0.667600  1.0
  H  H944  1  0.332400  0.453000  0.203500  1.0
  H  H945  1  0.047000  0.296500  0.332400  1.0
  H  H946  1  0.203500  0.832400  0.953000  1.0
  H  H947  1  0.332400  0.547000  0.796500  1.0
  H  H948  1  0.796500  0.547000  0.667600  1.0
  H  H949  1  0.667600  0.703500  0.953000  1.0
  H  H950  1  0.953000  0.832400  0.796500  1.0
  H  H951  1  0.203500  0.167600  0.047000  1.0
  H  H952  1  0.332400  0.703500  0.047000  1.0
  H  H953  1  0.047000  0.832400  0.203500  1.0
  H  H954  1  0.203500  0.547000  0.332400  1.0
  H  H955  1  0.796500  0.832400  0.047000  1.0
  H  H956  1  0.796500  0.453000  0.332400  1.0
  H  H957  1  0.667600  0.296500  0.047000  1.0
  H  H958  1  0.953000  0.167600  0.203500  1.0
  H  H959  1  0.953000  0.703500  0.332400  1.0
  H  H960  1  0.667600  0.547000  0.203500  1.0
  H  H961  1  0.953000  0.796500  0.167600  1.0
  H  H962  1  0.796500  0.667600  0.453000  1.0
  H  H963  1  0.667600  0.953000  0.296500  1.0
  H  H964  1  0.203500  0.953000  0.167600  1.0
  H  H965  1  0.332400  0.796500  0.453000  1.0
  H  H966  1  0.047000  0.667600  0.296500  1.0
  H  H967  1  0.047000  0.203500  0.167600  1.0
  H  H968  1  0.332400  0.953000  0.703500  1.0
  H  H969  1  0.047000  0.796500  0.832400  1.0
  H  H970  1  0.203500  0.332400  0.453000  1.0
  H  H971  1  0.332400  0.047000  0.296500  1.0
  H  H972  1  0.796500  0.047000  0.167600  1.0
  H  H973  1  0.667600  0.203500  0.453000  1.0
  H  H974  1  0.953000  0.332400  0.296500  1.0
  H  H975  1  0.203500  0.667600  0.547000  1.0
  H  H976  1  0.332400  0.203500  0.547000  1.0
  H  H977  1  0.047000  0.332400  0.703500  1.0
  H  H978  1  0.203500  0.047000  0.832400  1.0
  H  H979  1  0.796500  0.332400  0.547000  1.0
  H  H980  1  0.796500  0.953000  0.832400  1.0
  H  H981  1  0.667600  0.796500  0.547000  1.0
  H  H982  1  0.953000  0.667600  0.703500  1.0
  H  H983  1  0.953000  0.203500  0.832400  1.0
  H  H984  1  0.667600  0.047000  0.703500  1.0
  H  H985  1  0.494100  0.339300  0.111400  1.0
  H  H986  1  0.339300  0.111400  0.494100  1.0
  H  H987  1  0.111400  0.494100  0.339300  1.0
  H  H988  1  0.660700  0.494100  0.111400  1.0
  H  H989  1  0.888600  0.339300  0.494100  1.0
  H  H990  1  0.505900  0.111400  0.339300  1.0
  H  H991  1  0.505900  0.660700  0.111400  1.0
  H  H992  1  0.888600  0.494100  0.660700  1.0
  H  H993  1  0.505900  0.339300  0.888600  1.0
  H  H994  1  0.660700  0.888600  0.494100  1.0
  H  H995  1  0.888600  0.505900  0.339300  1.0
  H  H996  1  0.339300  0.505900  0.111400  1.0
  H  H997  1  0.111400  0.660700  0.494100  1.0
  H  H998  1  0.494100  0.888600  0.339300  1.0
  H  H999  1  0.660700  0.111400  0.505900  1.0
  H  H1000  1  0.888600  0.660700  0.505900  1.0
  H  H1001  1  0.505900  0.888600  0.660700  1.0
  H  H1002  1  0.660700  0.505900  0.888600  1.0
  H  H1003  1  0.339300  0.888600  0.505900  1.0
  H  H1004  1  0.339300  0.494100  0.888600  1.0
  H  H1005  1  0.111400  0.339300  0.505900  1.0
  H  H1006  1  0.494100  0.111400  0.660700  1.0
  H  H1007  1  0.494100  0.660700  0.888600  1.0
  H  H1008  1  0.111400  0.505900  0.660700  1.0
  H  H1009  1  0.494100  0.839300  0.611400  1.0
  H  H1010  1  0.339300  0.611400  0.994100  1.0
  H  H1011  1  0.111400  0.994100  0.839300  1.0
  H  H1012  1  0.660700  0.994100  0.611400  1.0
  H  H1013  1  0.888600  0.839300  0.994100  1.0
  H  H1014  1  0.505900  0.611400  0.839300  1.0
  H  H1015  1  0.505900  0.160700  0.611400  1.0
  H  H1016  1  0.888600  0.994100  0.160700  1.0
  H  H1017  1  0.505900  0.839300  0.388600  1.0
  H  H1018  1  0.660700  0.388600  0.994100  1.0
  H  H1019  1  0.888600  0.005900  0.839300  1.0
  H  H1020  1  0.339300  0.005900  0.611400  1.0
  H  H1021  1  0.111400  0.160700  0.994100  1.0
  H  H1022  1  0.494100  0.388600  0.839300  1.0
  H  H1023  1  0.660700  0.611400  0.005900  1.0
  H  H1024  1  0.888600  0.160700  0.005900  1.0
  H  H1025  1  0.505900  0.388600  0.160700  1.0
  H  H1026  1  0.660700  0.005900  0.388600  1.0
  H  H1027  1  0.339300  0.388600  0.005900  1.0
  H  H1028  1  0.339300  0.994100  0.388600  1.0
  H  H1029  1  0.111400  0.839300  0.005900  1.0
  H  H1030  1  0.494100  0.611400  0.160700  1.0
  H  H1031  1  0.494100  0.160700  0.388600  1.0
  H  H1032  1  0.111400  0.005900  0.160700  1.0
  H  H1033  1  0.994100  0.339300  0.611400  1.0
  H  H1034  1  0.839300  0.111400  0.994100  1.0
  H  H1035  1  0.611400  0.494100  0.839300  1.0
  H  H1036  1  0.160700  0.494100  0.611400  1.0
  H  H1037  1  0.388600  0.339300  0.994100  1.0
  H  H1038  1  0.005900  0.111400  0.839300  1.0
  H  H1039  1  0.005900  0.660700  0.611400  1.0
  H  H1040  1  0.388600  0.494100  0.160700  1.0
  H  H1041  1  0.005900  0.339300  0.388600  1.0
  H  H1042  1  0.160700  0.888600  0.994100  1.0
  H  H1043  1  0.388600  0.505900  0.839300  1.0
  H  H1044  1  0.839300  0.505900  0.611400  1.0
  H  H1045  1  0.611400  0.660700  0.994100  1.0
  H  H1046  1  0.994100  0.888600  0.839300  1.0
  H  H1047  1  0.160700  0.111400  0.005900  1.0
  H  H1048  1  0.388600  0.660700  0.005900  1.0
  H  H1049  1  0.005900  0.888600  0.160700  1.0
  H  H1050  1  0.160700  0.505900  0.388600  1.0
  H  H1051  1  0.839300  0.888600  0.005900  1.0
  H  H1052  1  0.839300  0.494100  0.388600  1.0
  H  H1053  1  0.611400  0.339300  0.005900  1.0
  H  H1054  1  0.994100  0.111400  0.160700  1.0
  H  H1055  1  0.994100  0.660700  0.388600  1.0
  H  H1056  1  0.611400  0.505900  0.160700  1.0
  H  H1057  1  0.994100  0.839300  0.111400  1.0
  H  H1058  1  0.839300  0.611400  0.494100  1.0
  H  H1059  1  0.611400  0.994100  0.339300  1.0
  H  H1060  1  0.160700  0.994100  0.111400  1.0
  H  H1061  1  0.388600  0.839300  0.494100  1.0
  H  H1062  1  0.005900  0.611400  0.339300  1.0
  H  H1063  1  0.005900  0.160700  0.111400  1.0
  H  H1064  1  0.388600  0.994100  0.660700  1.0
  H  H1065  1  0.005900  0.839300  0.888600  1.0
  H  H1066  1  0.160700  0.388600  0.494100  1.0
  H  H1067  1  0.388600  0.005900  0.339300  1.0
  H  H1068  1  0.839300  0.005900  0.111400  1.0
  H  H1069  1  0.611400  0.160700  0.494100  1.0
  H  H1070  1  0.994100  0.388600  0.339300  1.0
  H  H1071  1  0.160700  0.611400  0.505900  1.0
  H  H1072  1  0.388600  0.160700  0.505900  1.0
  H  H1073  1  0.005900  0.388600  0.660700  1.0
  H  H1074  1  0.160700  0.005900  0.888600  1.0
  H  H1075  1  0.839300  0.388600  0.505900  1.0
  H  H1076  1  0.839300  0.994100  0.888600  1.0
  H  H1077  1  0.611400  0.839300  0.505900  1.0
  H  H1078  1  0.994100  0.611400  0.660700  1.0
  H  H1079  1  0.994100  0.160700  0.888600  1.0
  H  H1080  1  0.611400  0.005900  0.660700  1.0
  H  H1081  1  0.454600  0.366700  0.102600  1.0
  H  H1082  1  0.366700  0.102600  0.454600  1.0
  H  H1083  1  0.102600  0.454600  0.366700  1.0
  H  H1084  1  0.633300  0.454600  0.102600  1.0
  H  H1085  1  0.897400  0.366700  0.454600  1.0
  H  H1086  1  0.545400  0.102600  0.366700  1.0
  H  H1087  1  0.545400  0.633300  0.102600  1.0
  H  H1088  1  0.897400  0.454600  0.633300  1.0
  H  H1089  1  0.545400  0.366700  0.897400  1.0
  H  H1090  1  0.633300  0.897400  0.454600  1.0
  H  H1091  1  0.897400  0.545400  0.366700  1.0
  H  H1092  1  0.366700  0.545400  0.102600  1.0
  H  H1093  1  0.102600  0.633300  0.454600  1.0
  H  H1094  1  0.454600  0.897400  0.366700  1.0
  H  H1095  1  0.633300  0.102600  0.545400  1.0
  H  H1096  1  0.897400  0.633300  0.545400  1.0
  H  H1097  1  0.545400  0.897400  0.633300  1.0
  H  H1098  1  0.633300  0.545400  0.897400  1.0
  H  H1099  1  0.366700  0.897400  0.545400  1.0
  H  H1100  1  0.366700  0.454600  0.897400  1.0
  H  H1101  1  0.102600  0.366700  0.545400  1.0
  H  H1102  1  0.454600  0.102600  0.633300  1.0
  H  H1103  1  0.454600  0.633300  0.897400  1.0
  H  H1104  1  0.102600  0.545400  0.633300  1.0
  H  H1105  1  0.454600  0.866700  0.602600  1.0
  H  H1106  1  0.366700  0.602600  0.954600  1.0
  H  H1107  1  0.102600  0.954600  0.866700  1.0
  H  H1108  1  0.633300  0.954600  0.602600  1.0
  H  H1109  1  0.897400  0.866700  0.954600  1.0
  H  H1110  1  0.545400  0.602600  0.866700  1.0
  H  H1111  1  0.545400  0.133300  0.602600  1.0
  H  H1112  1  0.897400  0.954600  0.133300  1.0
  H  H1113  1  0.545400  0.866700  0.397400  1.0
  H  H1114  1  0.633300  0.397400  0.954600  1.0
  H  H1115  1  0.897400  0.045400  0.866700  1.0
  H  H1116  1  0.366700  0.045400  0.602600  1.0
  H  H1117  1  0.102600  0.133300  0.954600  1.0
  H  H1118  1  0.454600  0.397400  0.866700  1.0
  H  H1119  1  0.633300  0.602600  0.045400  1.0
  H  H1120  1  0.897400  0.133300  0.045400  1.0
  H  H1121  1  0.545400  0.397400  0.133300  1.0
  H  H1122  1  0.633300  0.045400  0.397400  1.0
  H  H1123  1  0.366700  0.397400  0.045400  1.0
  H  H1124  1  0.366700  0.954600  0.397400  1.0
  H  H1125  1  0.102600  0.866700  0.045400  1.0
  H  H1126  1  0.454600  0.602600  0.133300  1.0
  H  H1127  1  0.454600  0.133300  0.397400  1.0
  H  H1128  1  0.102600  0.045400  0.133300  1.0
  H  H1129  1  0.954600  0.366700  0.602600  1.0
  H  H1130  1  0.866700  0.102600  0.954600  1.0
  H  H1131  1  0.602600  0.454600  0.866700  1.0
  H  H1132  1  0.133300  0.454600  0.602600  1.0
  H  H1133  1  0.397400  0.366700  0.954600  1.0
  H  H1134  1  0.045400  0.102600  0.866700  1.0
  H  H1135  1  0.045400  0.633300  0.602600  1.0
  H  H1136  1  0.397400  0.454600  0.133300  1.0
  H  H1137  1  0.045400  0.366700  0.397400  1.0
  H  H1138  1  0.133300  0.897400  0.954600  1.0
  H  H1139  1  0.397400  0.545400  0.866700  1.0
  H  H1140  1  0.866700  0.545400  0.602600  1.0
  H  H1141  1  0.602600  0.633300  0.954600  1.0
  H  H1142  1  0.954600  0.897400  0.866700  1.0
  H  H1143  1  0.133300  0.102600  0.045400  1.0
  H  H1144  1  0.397400  0.633300  0.045400  1.0
  H  H1145  1  0.045400  0.897400  0.133300  1.0
  H  H1146  1  0.133300  0.545400  0.397400  1.0
  H  H1147  1  0.866700  0.897400  0.045400  1.0
  H  H1148  1  0.866700  0.454600  0.397400  1.0
  H  H1149  1  0.602600  0.366700  0.045400  1.0
  H  H1150  1  0.954600  0.102600  0.133300  1.0
  H  H1151  1  0.954600  0.633300  0.397400  1.0
  H  H1152  1  0.602600  0.545400  0.133300  1.0
  H  H1153  1  0.954600  0.866700  0.102600  1.0
  H  H1154  1  0.866700  0.602600  0.454600  1.0
  H  H1155  1  0.602600  0.954600  0.366700  1.0
  H  H1156  1  0.133300  0.954600  0.102600  1.0
  H  H1157  1  0.397400  0.866700  0.454600  1.0
  H  H1158  1  0.045400  0.602600  0.366700  1.0
  H  H1159  1  0.045400  0.133300  0.102600  1.0
  H  H1160  1  0.397400  0.954600  0.633300  1.0
  H  H1161  1  0.045400  0.866700  0.897400  1.0
  H  H1162  1  0.133300  0.397400  0.454600  1.0
  H  H1163  1  0.397400  0.045400  0.366700  1.0
  H  H1164  1  0.866700  0.045400  0.102600  1.0
  H  H1165  1  0.602600  0.133300  0.454600  1.0
  H  H1166  1  0.954600  0.397400  0.366700  1.0
  H  H1167  1  0.133300  0.602600  0.545400  1.0
  H  H1168  1  0.397400  0.133300  0.545400  1.0
  H  H1169  1  0.045400  0.397400  0.633300  1.0
  H  H1170  1  0.133300  0.045400  0.897400  1.0
  H  H1171  1  0.866700  0.397400  0.545400  1.0
  H  H1172  1  0.866700  0.954600  0.897400  1.0
  H  H1173  1  0.602600  0.866700  0.545400  1.0
  H  H1174  1  0.954600  0.602600  0.633300  1.0
  H  H1175  1  0.954600  0.133300  0.897400  1.0
  H  H1176  1  0.602600  0.045400  0.633300  1.0
  H  H1177  1  0.500700  0.286300  0.158800  1.0
  H  H1178  1  0.286300  0.158800  0.500700  1.0
  H  H1179  1  0.158800  0.500700  0.286300  1.0
  H  H1180  1  0.713700  0.500700  0.158800  1.0
  H  H1181  1  0.841200  0.286300  0.500700  1.0
  H  H1182  1  0.499300  0.158800  0.286300  1.0
  H  H1183  1  0.499300  0.713700  0.158800  1.0
  H  H1184  1  0.841200  0.500700  0.713700  1.0
  H  H1185  1  0.499300  0.286300  0.841200  1.0
  H  H1186  1  0.713700  0.841200  0.500700  1.0
  H  H1187  1  0.841200  0.499300  0.286300  1.0
  H  H1188  1  0.286300  0.499300  0.158800  1.0
  H  H1189  1  0.158800  0.713700  0.500700  1.0
  H  H1190  1  0.500700  0.841200  0.286300  1.0
  H  H1191  1  0.713700  0.158800  0.499300  1.0
  H  H1192  1  0.841200  0.713700  0.499300  1.0
  H  H1193  1  0.499300  0.841200  0.713700  1.0
  H  H1194  1  0.713700  0.499300  0.841200  1.0
  H  H1195  1  0.286300  0.841200  0.499300  1.0
  H  H1196  1  0.286300  0.500700  0.841200  1.0
  H  H1197  1  0.158800  0.286300  0.499300  1.0
  H  H1198  1  0.500700  0.158800  0.713700  1.0
  H  H1199  1  0.500700  0.713700  0.841200  1.0
  H  H1200  1  0.158800  0.499300  0.713700  1.0
  H  H1201  1  0.500700  0.786300  0.658800  1.0
  H  H1202  1  0.286300  0.658800  0.000700  1.0
  H  H1203  1  0.158800  0.000700  0.786300  1.0
  H  H1204  1  0.713700  0.000700  0.658800  1.0
  H  H1205  1  0.841200  0.786300  0.000700  1.0
  H  H1206  1  0.499300  0.658800  0.786300  1.0
  H  H1207  1  0.499300  0.213700  0.658800  1.0
  H  H1208  1  0.841200  0.000700  0.213700  1.0
  H  H1209  1  0.499300  0.786300  0.341200  1.0
  H  H1210  1  0.713700  0.341200  0.000700  1.0
  H  H1211  1  0.841200  0.999300  0.786300  1.0
  H  H1212  1  0.286300  0.999300  0.658800  1.0
  H  H1213  1  0.158800  0.213700  0.000700  1.0
  H  H1214  1  0.500700  0.341200  0.786300  1.0
  H  H1215  1  0.713700  0.658800  0.999300  1.0
  H  H1216  1  0.841200  0.213700  0.999300  1.0
  H  H1217  1  0.499300  0.341200  0.213700  1.0
  H  H1218  1  0.713700  0.999300  0.341200  1.0
  H  H1219  1  0.286300  0.341200  0.999300  1.0
  H  H1220  1  0.286300  0.000700  0.341200  1.0
  H  H1221  1  0.158800  0.786300  0.999300  1.0
  H  H1222  1  0.500700  0.658800  0.213700  1.0
  H  H1223  1  0.500700  0.213700  0.341200  1.0
  H  H1224  1  0.158800  0.999300  0.213700  1.0
  H  H1225  1  0.000700  0.286300  0.658800  1.0
  H  H1226  1  0.786300  0.158800  0.000700  1.0
  H  H1227  1  0.658800  0.500700  0.786300  1.0
  H  H1228  1  0.213700  0.500700  0.658800  1.0
  H  H1229  1  0.341200  0.286300  0.000700  1.0
  H  H1230  1  0.999300  0.158800  0.786300  1.0
  H  H1231  1  0.999300  0.713700  0.658800  1.0
  H  H1232  1  0.341200  0.500700  0.213700  1.0
  H  H1233  1  0.999300  0.286300  0.341200  1.0
  H  H1234  1  0.213700  0.841200  0.000700  1.0
  H  H1235  1  0.341200  0.499300  0.786300  1.0
  H  H1236  1  0.786300  0.499300  0.658800  1.0
  H  H1237  1  0.658800  0.713700  0.000700  1.0
  H  H1238  1  0.000700  0.841200  0.786300  1.0
  H  H1239  1  0.213700  0.158800  0.999300  1.0
  H  H1240  1  0.341200  0.713700  0.999300  1.0
  H  H1241  1  0.999300  0.841200  0.213700  1.0
  H  H1242  1  0.213700  0.499300  0.341200  1.0
  H  H1243  1  0.786300  0.841200  0.999300  1.0
  H  H1244  1  0.786300  0.500700  0.341200  1.0
  H  H1245  1  0.658800  0.286300  0.999300  1.0
  H  H1246  1  0.000700  0.158800  0.213700  1.0
  H  H1247  1  0.000700  0.713700  0.341200  1.0
  H  H1248  1  0.658800  0.499300  0.213700  1.0
  H  H1249  1  0.000700  0.786300  0.158800  1.0
  H  H1250  1  0.786300  0.658800  0.500700  1.0
  H  H1251  1  0.658800  0.000700  0.286300  1.0
  H  H1252  1  0.213700  0.000700  0.158800  1.0
  H  H1253  1  0.341200  0.786300  0.500700  1.0
  H  H1254  1  0.999300  0.658800  0.286300  1.0
  H  H1255  1  0.999300  0.213700  0.158800  1.0
  H  H1256  1  0.341200  0.000700  0.713700  1.0
  H  H1257  1  0.999300  0.786300  0.841200  1.0
  H  H1258  1  0.213700  0.341200  0.500700  1.0
  H  H1259  1  0.341200  0.999300  0.286300  1.0
  H  H1260  1  0.786300  0.999300  0.158800  1.0
  H  H1261  1  0.658800  0.213700  0.500700  1.0
  H  H1262  1  0.000700  0.341200  0.286300  1.0
  H  H1263  1  0.213700  0.658800  0.499300  1.0
  H  H1264  1  0.341200  0.213700  0.499300  1.0
  H  H1265  1  0.999300  0.341200  0.713700  1.0
  H  H1266  1  0.213700  0.999300  0.841200  1.0
  H  H1267  1  0.786300  0.341200  0.499300  1.0
  H  H1268  1  0.786300  0.000700  0.841200  1.0
  H  H1269  1  0.658800  0.786300  0.499300  1.0
  H  H1270  1  0.000700  0.658800  0.713700  1.0
  H  H1271  1  0.000700  0.213700  0.841200  1.0
  H  H1272  1  0.658800  0.999300  0.713700  1.0
  H  H1273  1  0.517800  0.312300  0.150500  1.0
  H  H1274  1  0.312300  0.150500  0.517800  1.0
  H  H1275  1  0.150500  0.517800  0.312300  1.0
  H  H1276  1  0.687700  0.517800  0.150500  1.0
  H  H1277  1  0.849500  0.312300  0.517800  1.0
  H  H1278  1  0.482200  0.150500  0.312300  1.0
  H  H1279  1  0.482200  0.687700  0.150500  1.0
  H  H1280  1  0.849500  0.517800  0.687700  1.0
  H  H1281  1  0.482200  0.312300  0.849500  1.0
  H  H1282  1  0.687700  0.849500  0.517800  1.0
  H  H1283  1  0.849500  0.482200  0.312300  1.0
  H  H1284  1  0.312300  0.482200  0.150500  1.0
  H  H1285  1  0.150500  0.687700  0.517800  1.0
  H  H1286  1  0.517800  0.849500  0.312300  1.0
  H  H1287  1  0.687700  0.150500  0.482200  1.0
  H  H1288  1  0.849500  0.687700  0.482200  1.0
  H  H1289  1  0.482200  0.849500  0.687700  1.0
  H  H1290  1  0.687700  0.482200  0.849500  1.0
  H  H1291  1  0.312300  0.849500  0.482200  1.0
  H  H1292  1  0.312300  0.517800  0.849500  1.0
  H  H1293  1  0.150500  0.312300  0.482200  1.0
  H  H1294  1  0.517800  0.150500  0.687700  1.0
  H  H1295  1  0.517800  0.687700  0.849500  1.0
  H  H1296  1  0.150500  0.482200  0.687700  1.0
  H  H1297  1  0.517800  0.812300  0.650500  1.0
  H  H1298  1  0.312300  0.650500  0.017800  1.0
  H  H1299  1  0.150500  0.017800  0.812300  1.0
  H  H1300  1  0.687700  0.017800  0.650500  1.0
  H  H1301  1  0.849500  0.812300  0.017800  1.0
  H  H1302  1  0.482200  0.650500  0.812300  1.0
  H  H1303  1  0.482200  0.187700  0.650500  1.0
  H  H1304  1  0.849500  0.017800  0.187700  1.0
  H  H1305  1  0.482200  0.812300  0.349500  1.0
  H  H1306  1  0.687700  0.349500  0.017800  1.0
  H  H1307  1  0.849500  0.982200  0.812300  1.0
  H  H1308  1  0.312300  0.982200  0.650500  1.0
  H  H1309  1  0.150500  0.187700  0.017800  1.0
  H  H1310  1  0.517800  0.349500  0.812300  1.0
  H  H1311  1  0.687700  0.650500  0.982200  1.0
  H  H1312  1  0.849500  0.187700  0.982200  1.0
  H  H1313  1  0.482200  0.349500  0.187700  1.0
  H  H1314  1  0.687700  0.982200  0.349500  1.0
  H  H1315  1  0.312300  0.349500  0.982200  1.0
  H  H1316  1  0.312300  0.017800  0.349500  1.0
  H  H1317  1  0.150500  0.812300  0.982200  1.0
  H  H1318  1  0.517800  0.650500  0.187700  1.0
  H  H1319  1  0.517800  0.187700  0.349500  1.0
  H  H1320  1  0.150500  0.982200  0.187700  1.0
  H  H1321  1  0.017800  0.312300  0.650500  1.0
  H  H1322  1  0.812300  0.150500  0.017800  1.0
  H  H1323  1  0.650500  0.517800  0.812300  1.0
  H  H1324  1  0.187700  0.517800  0.650500  1.0
  H  H1325  1  0.349500  0.312300  0.017800  1.0
  H  H1326  1  0.982200  0.150500  0.812300  1.0
  H  H1327  1  0.982200  0.687700  0.650500  1.0
  H  H1328  1  0.349500  0.517800  0.187700  1.0
  H  H1329  1  0.982200  0.312300  0.349500  1.0
  H  H1330  1  0.187700  0.849500  0.017800  1.0
  H  H1331  1  0.349500  0.482200  0.812300  1.0
  H  H1332  1  0.812300  0.482200  0.650500  1.0
  H  H1333  1  0.650500  0.687700  0.017800  1.0
  H  H1334  1  0.017800  0.849500  0.812300  1.0
  H  H1335  1  0.187700  0.150500  0.982200  1.0
  H  H1336  1  0.349500  0.687700  0.982200  1.0
  H  H1337  1  0.982200  0.849500  0.187700  1.0
  H  H1338  1  0.187700  0.482200  0.349500  1.0
  H  H1339  1  0.812300  0.849500  0.982200  1.0
  H  H1340  1  0.812300  0.517800  0.349500  1.0
  H  H1341  1  0.650500  0.312300  0.982200  1.0
  H  H1342  1  0.017800  0.150500  0.187700  1.0
  H  H1343  1  0.017800  0.687700  0.349500  1.0
  H  H1344  1  0.650500  0.482200  0.187700  1.0
  H  H1345  1  0.017800  0.812300  0.150500  1.0
  H  H1346  1  0.812300  0.650500  0.517800  1.0
  H  H1347  1  0.650500  0.017800  0.312300  1.0
  H  H1348  1  0.187700  0.017800  0.150500  1.0
  H  H1349  1  0.349500  0.812300  0.517800  1.0
  H  H1350  1  0.982200  0.650500  0.312300  1.0
  H  H1351  1  0.982200  0.187700  0.150500  1.0
  H  H1352  1  0.349500  0.017800  0.687700  1.0
  H  H1353  1  0.982200  0.812300  0.849500  1.0
  H  H1354  1  0.187700  0.349500  0.517800  1.0
  H  H1355  1  0.349500  0.982200  0.312300  1.0
  H  H1356  1  0.812300  0.982200  0.150500  1.0
  H  H1357  1  0.650500  0.187700  0.517800  1.0
  H  H1358  1  0.017800  0.349500  0.312300  1.0
  H  H1359  1  0.187700  0.650500  0.482200  1.0
  H  H1360  1  0.349500  0.187700  0.482200  1.0
  H  H1361  1  0.982200  0.349500  0.687700  1.0
  H  H1362  1  0.187700  0.982200  0.849500  1.0
  H  H1363  1  0.812300  0.349500  0.482200  1.0
  H  H1364  1  0.812300  0.017800  0.849500  1.0
  H  H1365  1  0.650500  0.812300  0.482200  1.0
  H  H1366  1  0.017800  0.650500  0.687700  1.0
  H  H1367  1  0.017800  0.187700  0.849500  1.0
  H  H1368  1  0.650500  0.982200  0.687700  1.0
  H  H1369  1  0.508900  0.291000  0.128000  1.0
  H  H1370  1  0.291000  0.128000  0.508900  1.0
  H  H1371  1  0.128000  0.508900  0.291000  1.0
  H  H1372  1  0.709000  0.508900  0.128000  1.0
  H  H1373  1  0.872000  0.291000  0.508900  1.0
  H  H1374  1  0.491100  0.128000  0.291000  1.0
  H  H1375  1  0.491100  0.709000  0.128000  1.0
  H  H1376  1  0.872000  0.508900  0.709000  1.0
  H  H1377  1  0.491100  0.291000  0.872000  1.0
  H  H1378  1  0.709000  0.872000  0.508900  1.0
  H  H1379  1  0.872000  0.491100  0.291000  1.0
  H  H1380  1  0.291000  0.491100  0.128000  1.0
  H  H1381  1  0.128000  0.709000  0.508900  1.0
  H  H1382  1  0.508900  0.872000  0.291000  1.0
  H  H1383  1  0.709000  0.128000  0.491100  1.0
  H  H1384  1  0.872000  0.709000  0.491100  1.0
  H  H1385  1  0.491100  0.872000  0.709000  1.0
  H  H1386  1  0.709000  0.491100  0.872000  1.0
  H  H1387  1  0.291000  0.872000  0.491100  1.0
  H  H1388  1  0.291000  0.508900  0.872000  1.0
  H  H1389  1  0.128000  0.291000  0.491100  1.0
  H  H1390  1  0.508900  0.128000  0.709000  1.0
  H  H1391  1  0.508900  0.709000  0.872000  1.0
  H  H1392  1  0.128000  0.491100  0.709000  1.0
  H  H1393  1  0.508900  0.791000  0.628000  1.0
  H  H1394  1  0.291000  0.628000  0.008900  1.0
  H  H1395  1  0.128000  0.008900  0.791000  1.0
  H  H1396  1  0.709000  0.008900  0.628000  1.0
  H  H1397  1  0.872000  0.791000  0.008900  1.0
  H  H1398  1  0.491100  0.628000  0.791000  1.0
  H  H1399  1  0.491100  0.209000  0.628000  1.0
  H  H1400  1  0.872000  0.008900  0.209000  1.0
  H  H1401  1  0.491100  0.791000  0.372000  1.0
  H  H1402  1  0.709000  0.372000  0.008900  1.0
  H  H1403  1  0.872000  0.991100  0.791000  1.0
  H  H1404  1  0.291000  0.991100  0.628000  1.0
  H  H1405  1  0.128000  0.209000  0.008900  1.0
  H  H1406  1  0.508900  0.372000  0.791000  1.0
  H  H1407  1  0.709000  0.628000  0.991100  1.0
  H  H1408  1  0.872000  0.209000  0.991100  1.0
  H  H1409  1  0.491100  0.372000  0.209000  1.0
  H  H1410  1  0.709000  0.991100  0.372000  1.0
  H  H1411  1  0.291000  0.372000  0.991100  1.0
  H  H1412  1  0.291000  0.008900  0.372000  1.0
  H  H1413  1  0.128000  0.791000  0.991100  1.0
  H  H1414  1  0.508900  0.628000  0.209000  1.0
  H  H1415  1  0.508900  0.209000  0.372000  1.0
  H  H1416  1  0.128000  0.991100  0.209000  1.0
  H  H1417  1  0.008900  0.291000  0.628000  1.0
  H  H1418  1  0.791000  0.128000  0.008900  1.0
  H  H1419  1  0.628000  0.508900  0.791000  1.0
  H  H1420  1  0.209000  0.508900  0.628000  1.0
  H  H1421  1  0.372000  0.291000  0.008900  1.0
  H  H1422  1  0.991100  0.128000  0.791000  1.0
  H  H1423  1  0.991100  0.709000  0.628000  1.0
  H  H1424  1  0.372000  0.508900  0.209000  1.0
  H  H1425  1  0.991100  0.291000  0.372000  1.0
  H  H1426  1  0.209000  0.872000  0.008900  1.0
  H  H1427  1  0.372000  0.491100  0.791000  1.0
  H  H1428  1  0.791000  0.491100  0.628000  1.0
  H  H1429  1  0.628000  0.709000  0.008900  1.0
  H  H1430  1  0.008900  0.872000  0.791000  1.0
  H  H1431  1  0.209000  0.128000  0.991100  1.0
  H  H1432  1  0.372000  0.709000  0.991100  1.0
  H  H1433  1  0.991100  0.872000  0.209000  1.0
  H  H1434  1  0.209000  0.491100  0.372000  1.0
  H  H1435  1  0.791000  0.872000  0.991100  1.0
  H  H1436  1  0.791000  0.508900  0.372000  1.0
  H  H1437  1  0.628000  0.291000  0.991100  1.0
  H  H1438  1  0.008900  0.128000  0.209000  1.0
  H  H1439  1  0.008900  0.709000  0.372000  1.0
  H  H1440  1  0.628000  0.491100  0.209000  1.0
  H  H1441  1  0.008900  0.791000  0.128000  1.0
  H  H1442  1  0.791000  0.628000  0.508900  1.0
  H  H1443  1  0.628000  0.008900  0.291000  1.0
  H  H1444  1  0.209000  0.008900  0.128000  1.0
  H  H1445  1  0.372000  0.791000  0.508900  1.0
  H  H1446  1  0.991100  0.628000  0.291000  1.0
  H  H1447  1  0.991100  0.209000  0.128000  1.0
  H  H1448  1  0.372000  0.008900  0.709000  1.0
  H  H1449  1  0.991100  0.791000  0.872000  1.0
  H  H1450  1  0.209000  0.372000  0.508900  1.0
  H  H1451  1  0.372000  0.991100  0.291000  1.0
  H  H1452  1  0.791000  0.991100  0.128000  1.0
  H  H1453  1  0.628000  0.209000  0.508900  1.0
  H  H1454  1  0.008900  0.372000  0.291000  1.0
  H  H1455  1  0.209000  0.628000  0.491100  1.0
  H  H1456  1  0.372000  0.209000  0.491100  1.0
  H  H1457  1  0.991100  0.372000  0.709000  1.0
  H  H1458  1  0.209000  0.991100  0.872000  1.0
  H  H1459  1  0.791000  0.372000  0.491100  1.0
  H  H1460  1  0.791000  0.008900  0.872000  1.0
  H  H1461  1  0.628000  0.791000  0.491100  1.0
  H  H1462  1  0.008900  0.628000  0.709000  1.0
  H  H1463  1  0.008900  0.209000  0.872000  1.0
  H  H1464  1  0.628000  0.991100  0.709000  1.0
  H  H1465  1  0.388400  0.332800  0.294100  1.0
  H  H1466  1  0.332800  0.294100  0.388400  1.0
  H  H1467  1  0.294100  0.388400  0.332800  1.0
  H  H1468  1  0.667200  0.388400  0.294100  1.0
  H  H1469  1  0.705900  0.332800  0.388400  1.0
  H  H1470  1  0.611600  0.294100  0.332800  1.0
  H  H1471  1  0.611600  0.667200  0.294100  1.0
  H  H1472  1  0.705900  0.388400  0.667200  1.0
  H  H1473  1  0.611600  0.332800  0.705900  1.0
  H  H1474  1  0.667200  0.705900  0.388400  1.0
  H  H1475  1  0.705900  0.611600  0.332800  1.0
  H  H1476  1  0.332800  0.611600  0.294100  1.0
  H  H1477  1  0.294100  0.667200  0.388400  1.0
  H  H1478  1  0.388400  0.705900  0.332800  1.0
  H  H1479  1  0.667200  0.294100  0.611600  1.0
  H  H1480  1  0.705900  0.667200  0.611600  1.0
  H  H1481  1  0.611600  0.705900  0.667200  1.0
  H  H1482  1  0.667200  0.611600  0.705900  1.0
  H  H1483  1  0.332800  0.705900  0.611600  1.0
  H  H1484  1  0.332800  0.388400  0.705900  1.0
  H  H1485  1  0.294100  0.332800  0.611600  1.0
  H  H1486  1  0.388400  0.294100  0.667200  1.0
  H  H1487  1  0.388400  0.667200  0.705900  1.0
  H  H1488  1  0.294100  0.611600  0.667200  1.0
  H  H1489  1  0.388400  0.832800  0.794100  1.0
  H  H1490  1  0.332800  0.794100  0.888400  1.0
  H  H1491  1  0.294100  0.888400  0.832800  1.0
  H  H1492  1  0.667200  0.888400  0.794100  1.0
  H  H1493  1  0.705900  0.832800  0.888400  1.0
  H  H1494  1  0.611600  0.794100  0.832800  1.0
  H  H1495  1  0.611600  0.167200  0.794100  1.0
  H  H1496  1  0.705900  0.888400  0.167200  1.0
  H  H1497  1  0.611600  0.832800  0.205900  1.0
  H  H1498  1  0.667200  0.205900  0.888400  1.0
  H  H1499  1  0.705900  0.111600  0.832800  1.0
  H  H1500  1  0.332800  0.111600  0.794100  1.0
  H  H1501  1  0.294100  0.167200  0.888400  1.0
  H  H1502  1  0.388400  0.205900  0.832800  1.0
  H  H1503  1  0.667200  0.794100  0.111600  1.0
  H  H1504  1  0.705900  0.167200  0.111600  1.0
  H  H1505  1  0.611600  0.205900  0.167200  1.0
  H  H1506  1  0.667200  0.111600  0.205900  1.0
  H  H1507  1  0.332800  0.205900  0.111600  1.0
  H  H1508  1  0.332800  0.888400  0.205900  1.0
  H  H1509  1  0.294100  0.832800  0.111600  1.0
  H  H1510  1  0.388400  0.794100  0.167200  1.0
  H  H1511  1  0.388400  0.167200  0.205900  1.0
  H  H1512  1  0.294100  0.111600  0.167200  1.0
  H  H1513  1  0.888400  0.332800  0.794100  1.0
  H  H1514  1  0.832800  0.294100  0.888400  1.0
  H  H1515  1  0.794100  0.388400  0.832800  1.0
  H  H1516  1  0.167200  0.388400  0.794100  1.0
  H  H1517  1  0.205900  0.332800  0.888400  1.0
  H  H1518  1  0.111600  0.294100  0.832800  1.0
  H  H1519  1  0.111600  0.667200  0.794100  1.0
  H  H1520  1  0.205900  0.388400  0.167200  1.0
  H  H1521  1  0.111600  0.332800  0.205900  1.0
  H  H1522  1  0.167200  0.705900  0.888400  1.0
  H  H1523  1  0.205900  0.611600  0.832800  1.0
  H  H1524  1  0.832800  0.611600  0.794100  1.0
  H  H1525  1  0.794100  0.667200  0.888400  1.0
  H  H1526  1  0.888400  0.705900  0.832800  1.0
  H  H1527  1  0.167200  0.294100  0.111600  1.0
  H  H1528  1  0.205900  0.667200  0.111600  1.0
  H  H1529  1  0.111600  0.705900  0.167200  1.0
  H  H1530  1  0.167200  0.611600  0.205900  1.0
  H  H1531  1  0.832800  0.705900  0.111600  1.0
  H  H1532  1  0.832800  0.388400  0.205900  1.0
  H  H1533  1  0.794100  0.332800  0.111600  1.0
  H  H1534  1  0.888400  0.294100  0.167200  1.0
  H  H1535  1  0.888400  0.667200  0.205900  1.0
  H  H1536  1  0.794100  0.611600  0.167200  1.0
  H  H1537  1  0.888400  0.832800  0.294100  1.0
  H  H1538  1  0.832800  0.794100  0.388400  1.0
  H  H1539  1  0.794100  0.888400  0.332800  1.0
  H  H1540  1  0.167200  0.888400  0.294100  1.0
  H  H1541  1  0.205900  0.832800  0.388400  1.0
  H  H1542  1  0.111600  0.794100  0.332800  1.0
  H  H1543  1  0.111600  0.167200  0.294100  1.0
  H  H1544  1  0.205900  0.888400  0.667200  1.0
  H  H1545  1  0.111600  0.832800  0.705900  1.0
  H  H1546  1  0.167200  0.205900  0.388400  1.0
  H  H1547  1  0.205900  0.111600  0.332800  1.0
  H  H1548  1  0.832800  0.111600  0.294100  1.0
  H  H1549  1  0.794100  0.167200  0.388400  1.0
  H  H1550  1  0.888400  0.205900  0.332800  1.0
  H  H1551  1  0.167200  0.794100  0.611600  1.0
  H  H1552  1  0.205900  0.167200  0.611600  1.0
  H  H1553  1  0.111600  0.205900  0.667200  1.0
  H  H1554  1  0.167200  0.111600  0.705900  1.0
  H  H1555  1  0.832800  0.205900  0.611600  1.0
  H  H1556  1  0.832800  0.888400  0.705900  1.0
  H  H1557  1  0.794100  0.832800  0.611600  1.0
  H  H1558  1  0.888400  0.794100  0.667200  1.0
  H  H1559  1  0.888400  0.167200  0.705900  1.0
  H  H1560  1  0.794100  0.111600  0.667200  1.0
  H  H1561  1  0.427200  0.321400  0.267500  1.0
  H  H1562  1  0.321400  0.267500  0.427200  1.0
  H  H1563  1  0.267500  0.427200  0.321400  1.0
  H  H1564  1  0.678600  0.427200  0.267500  1.0
  H  H1565  1  0.732500  0.321400  0.427200  1.0
  H  H1566  1  0.572800  0.267500  0.321400  1.0
  H  H1567  1  0.572800  0.678600  0.267500  1.0
  H  H1568  1  0.732500  0.427200  0.678600  1.0
  H  H1569  1  0.572800  0.321400  0.732500  1.0
  H  H1570  1  0.678600  0.732500  0.427200  1.0
  H  H1571  1  0.732500  0.572800  0.321400  1.0
  H  H1572  1  0.321400  0.572800  0.267500  1.0
  H  H1573  1  0.267500  0.678600  0.427200  1.0
  H  H1574  1  0.427200  0.732500  0.321400  1.0
  H  H1575  1  0.678600  0.267500  0.572800  1.0
  H  H1576  1  0.732500  0.678600  0.572800  1.0
  H  H1577  1  0.572800  0.732500  0.678600  1.0
  H  H1578  1  0.678600  0.572800  0.732500  1.0
  H  H1579  1  0.321400  0.732500  0.572800  1.0
  H  H1580  1  0.321400  0.427200  0.732500  1.0
  H  H1581  1  0.267500  0.321400  0.572800  1.0
  H  H1582  1  0.427200  0.267500  0.678600  1.0
  H  H1583  1  0.427200  0.678600  0.732500  1.0
  H  H1584  1  0.267500  0.572800  0.678600  1.0
  H  H1585  1  0.427200  0.821400  0.767500  1.0
  H  H1586  1  0.321400  0.767500  0.927200  1.0
  H  H1587  1  0.267500  0.927200  0.821400  1.0
  H  H1588  1  0.678600  0.927200  0.767500  1.0
  H  H1589  1  0.732500  0.821400  0.927200  1.0
  H  H1590  1  0.572800  0.767500  0.821400  1.0
  H  H1591  1  0.572800  0.178600  0.767500  1.0
  H  H1592  1  0.732500  0.927200  0.178600  1.0
  H  H1593  1  0.572800  0.821400  0.232500  1.0
  H  H1594  1  0.678600  0.232500  0.927200  1.0
  H  H1595  1  0.732500  0.072800  0.821400  1.0
  H  H1596  1  0.321400  0.072800  0.767500  1.0
  H  H1597  1  0.267500  0.178600  0.927200  1.0
  H  H1598  1  0.427200  0.232500  0.821400  1.0
  H  H1599  1  0.678600  0.767500  0.072800  1.0
  H  H1600  1  0.732500  0.178600  0.072800  1.0
  H  H1601  1  0.572800  0.232500  0.178600  1.0
  H  H1602  1  0.678600  0.072800  0.232500  1.0
  H  H1603  1  0.321400  0.232500  0.072800  1.0
  H  H1604  1  0.321400  0.927200  0.232500  1.0
  H  H1605  1  0.267500  0.821400  0.072800  1.0
  H  H1606  1  0.427200  0.767500  0.178600  1.0
  H  H1607  1  0.427200  0.178600  0.232500  1.0
  H  H1608  1  0.267500  0.072800  0.178600  1.0
  H  H1609  1  0.927200  0.321400  0.767500  1.0
  H  H1610  1  0.821400  0.267500  0.927200  1.0
  H  H1611  1  0.767500  0.427200  0.821400  1.0
  H  H1612  1  0.178600  0.427200  0.767500  1.0
  H  H1613  1  0.232500  0.321400  0.927200  1.0
  H  H1614  1  0.072800  0.267500  0.821400  1.0
  H  H1615  1  0.072800  0.678600  0.767500  1.0
  H  H1616  1  0.232500  0.427200  0.178600  1.0
  H  H1617  1  0.072800  0.321400  0.232500  1.0
  H  H1618  1  0.178600  0.732500  0.927200  1.0
  H  H1619  1  0.232500  0.572800  0.821400  1.0
  H  H1620  1  0.821400  0.572800  0.767500  1.0
  H  H1621  1  0.767500  0.678600  0.927200  1.0
  H  H1622  1  0.927200  0.732500  0.821400  1.0
  H  H1623  1  0.178600  0.267500  0.072800  1.0
  H  H1624  1  0.232500  0.678600  0.072800  1.0
  H  H1625  1  0.072800  0.732500  0.178600  1.0
  H  H1626  1  0.178600  0.572800  0.232500  1.0
  H  H1627  1  0.821400  0.732500  0.072800  1.0
  H  H1628  1  0.821400  0.427200  0.232500  1.0
  H  H1629  1  0.767500  0.321400  0.072800  1.0
  H  H1630  1  0.927200  0.267500  0.178600  1.0
  H  H1631  1  0.927200  0.678600  0.232500  1.0
  H  H1632  1  0.767500  0.572800  0.178600  1.0
  H  H1633  1  0.927200  0.821400  0.267500  1.0
  H  H1634  1  0.821400  0.767500  0.427200  1.0
  H  H1635  1  0.767500  0.927200  0.321400  1.0
  H  H1636  1  0.178600  0.927200  0.267500  1.0
  H  H1637  1  0.232500  0.821400  0.427200  1.0
  H  H1638  1  0.072800  0.767500  0.321400  1.0
  H  H1639  1  0.072800  0.178600  0.267500  1.0
  H  H1640  1  0.232500  0.927200  0.678600  1.0
  H  H1641  1  0.072800  0.821400  0.732500  1.0
  H  H1642  1  0.178600  0.232500  0.427200  1.0
  H  H1643  1  0.232500  0.072800  0.321400  1.0
  H  H1644  1  0.821400  0.072800  0.267500  1.0
  H  H1645  1  0.767500  0.178600  0.427200  1.0
  H  H1646  1  0.927200  0.232500  0.321400  1.0
  H  H1647  1  0.178600  0.767500  0.572800  1.0
  H  H1648  1  0.232500  0.178600  0.572800  1.0
  H  H1649  1  0.072800  0.232500  0.678600  1.0
  H  H1650  1  0.178600  0.072800  0.732500  1.0
  H  H1651  1  0.821400  0.232500  0.572800  1.0
  H  H1652  1  0.821400  0.927200  0.732500  1.0
  H  H1653  1  0.767500  0.821400  0.572800  1.0
  H  H1654  1  0.927200  0.767500  0.678600  1.0
  H  H1655  1  0.927200  0.178600  0.732500  1.0
  H  H1656  1  0.767500  0.072800  0.678600  1.0
  H  H1657  1  0.476900  0.350200  0.328000  1.0
  H  H1658  1  0.350200  0.328000  0.476900  1.0
  H  H1659  1  0.328000  0.476900  0.350200  1.0
  H  H1660  1  0.649800  0.476900  0.328000  1.0
  H  H1661  1  0.672000  0.350200  0.476900  1.0
  H  H1662  1  0.523100  0.328000  0.350200  1.0
  H  H1663  1  0.523100  0.649800  0.328000  1.0
  H  H1664  1  0.672000  0.476900  0.649800  1.0
  H  H1665  1  0.523100  0.350200  0.672000  1.0
  H  H1666  1  0.649800  0.672000  0.476900  1.0
  H  H1667  1  0.672000  0.523100  0.350200  1.0
  H  H1668  1  0.350200  0.523100  0.328000  1.0
  H  H1669  1  0.328000  0.649800  0.476900  1.0
  H  H1670  1  0.476900  0.672000  0.350200  1.0
  H  H1671  1  0.649800  0.328000  0.523100  1.0
  H  H1672  1  0.672000  0.649800  0.523100  1.0
  H  H1673  1  0.523100  0.672000  0.649800  1.0
  H  H1674  1  0.649800  0.523100  0.672000  1.0
  H  H1675  1  0.350200  0.672000  0.523100  1.0
  H  H1676  1  0.350200  0.476900  0.672000  1.0
  H  H1677  1  0.328000  0.350200  0.523100  1.0
  H  H1678  1  0.476900  0.328000  0.649800  1.0
  H  H1679  1  0.476900  0.649800  0.672000  1.0
  H  H1680  1  0.328000  0.523100  0.649800  1.0
  H  H1681  1  0.476900  0.850200  0.828000  1.0
  H  H1682  1  0.350200  0.828000  0.976900  1.0
  H  H1683  1  0.328000  0.976900  0.850200  1.0
  H  H1684  1  0.649800  0.976900  0.828000  1.0
  H  H1685  1  0.672000  0.850200  0.976900  1.0
  H  H1686  1  0.523100  0.828000  0.850200  1.0
  H  H1687  1  0.523100  0.149800  0.828000  1.0
  H  H1688  1  0.672000  0.976900  0.149800  1.0
  H  H1689  1  0.523100  0.850200  0.172000  1.0
  H  H1690  1  0.649800  0.172000  0.976900  1.0
  H  H1691  1  0.672000  0.023100  0.850200  1.0
  H  H1692  1  0.350200  0.023100  0.828000  1.0
  H  H1693  1  0.328000  0.149800  0.976900  1.0
  H  H1694  1  0.476900  0.172000  0.850200  1.0
  H  H1695  1  0.649800  0.828000  0.023100  1.0
  H  H1696  1  0.672000  0.149800  0.023100  1.0
  H  H1697  1  0.523100  0.172000  0.149800  1.0
  H  H1698  1  0.649800  0.023100  0.172000  1.0
  H  H1699  1  0.350200  0.172000  0.023100  1.0
  H  H1700  1  0.350200  0.976900  0.172000  1.0
  H  H1701  1  0.328000  0.850200  0.023100  1.0
  H  H1702  1  0.476900  0.828000  0.149800  1.0
  H  H1703  1  0.476900  0.149800  0.172000  1.0
  H  H1704  1  0.328000  0.023100  0.149800  1.0
  H  H1705  1  0.976900  0.350200  0.828000  1.0
  H  H1706  1  0.850200  0.328000  0.976900  1.0
  H  H1707  1  0.828000  0.476900  0.850200  1.0
  H  H1708  1  0.149800  0.476900  0.828000  1.0
  H  H1709  1  0.172000  0.350200  0.976900  1.0
  H  H1710  1  0.023100  0.328000  0.850200  1.0
  H  H1711  1  0.023100  0.649800  0.828000  1.0
  H  H1712  1  0.172000  0.476900  0.149800  1.0
  H  H1713  1  0.023100  0.350200  0.172000  1.0
  H  H1714  1  0.149800  0.672000  0.976900  1.0
  H  H1715  1  0.172000  0.523100  0.850200  1.0
  H  H1716  1  0.850200  0.523100  0.828000  1.0
  H  H1717  1  0.828000  0.649800  0.976900  1.0
  H  H1718  1  0.976900  0.672000  0.850200  1.0
  H  H1719  1  0.149800  0.328000  0.023100  1.0
  H  H1720  1  0.172000  0.649800  0.023100  1.0
  H  H1721  1  0.023100  0.672000  0.149800  1.0
  H  H1722  1  0.149800  0.523100  0.172000  1.0
  H  H1723  1  0.850200  0.672000  0.023100  1.0
  H  H1724  1  0.850200  0.476900  0.172000  1.0
  H  H1725  1  0.828000  0.350200  0.023100  1.0
  H  H1726  1  0.976900  0.328000  0.149800  1.0
  H  H1727  1  0.976900  0.649800  0.172000  1.0
  H  H1728  1  0.828000  0.523100  0.149800  1.0
  H  H1729  1  0.976900  0.850200  0.328000  1.0
  H  H1730  1  0.850200  0.828000  0.476900  1.0
  H  H1731  1  0.828000  0.976900  0.350200  1.0
  H  H1732  1  0.149800  0.976900  0.328000  1.0
  H  H1733  1  0.172000  0.850200  0.476900  1.0
  H  H1734  1  0.023100  0.828000  0.350200  1.0
  H  H1735  1  0.023100  0.149800  0.328000  1.0
  H  H1736  1  0.172000  0.976900  0.649800  1.0
  H  H1737  1  0.023100  0.850200  0.672000  1.0
  H  H1738  1  0.149800  0.172000  0.476900  1.0
  H  H1739  1  0.172000  0.023100  0.350200  1.0
  H  H1740  1  0.850200  0.023100  0.328000  1.0
  H  H1741  1  0.828000  0.149800  0.476900  1.0
  H  H1742  1  0.976900  0.172000  0.350200  1.0
  H  H1743  1  0.149800  0.828000  0.523100  1.0
  H  H1744  1  0.172000  0.149800  0.523100  1.0
  H  H1745  1  0.023100  0.172000  0.649800  1.0
  H  H1746  1  0.149800  0.023100  0.672000  1.0
  H  H1747  1  0.850200  0.172000  0.523100  1.0
  H  H1748  1  0.850200  0.976900  0.672000  1.0
  H  H1749  1  0.828000  0.850200  0.523100  1.0
  H  H1750  1  0.976900  0.828000  0.649800  1.0
  H  H1751  1  0.976900  0.149800  0.672000  1.0
  H  H1752  1  0.828000  0.023100  0.649800  1.0
  H  H1753  1  0.438700  0.359600  0.356400  1.0
  H  H1754  1  0.359600  0.356400  0.438700  1.0
  H  H1755  1  0.356400  0.438700  0.359600  1.0
  H  H1756  1  0.640400  0.438700  0.356400  1.0
  H  H1757  1  0.643600  0.359600  0.438700  1.0
  H  H1758  1  0.561300  0.356400  0.359600  1.0
  H  H1759  1  0.561300  0.640400  0.356400  1.0
  H  H1760  1  0.643600  0.438700  0.640400  1.0
  H  H1761  1  0.561300  0.359600  0.643600  1.0
  H  H1762  1  0.640400  0.643600  0.438700  1.0
  H  H1763  1  0.643600  0.561300  0.359600  1.0
  H  H1764  1  0.359600  0.561300  0.356400  1.0
  H  H1765  1  0.356400  0.640400  0.438700  1.0
  H  H1766  1  0.438700  0.643600  0.359600  1.0
  H  H1767  1  0.640400  0.356400  0.561300  1.0
  H  H1768  1  0.643600  0.640400  0.561300  1.0
  H  H1769  1  0.561300  0.643600  0.640400  1.0
  H  H1770  1  0.640400  0.561300  0.643600  1.0
  H  H1771  1  0.359600  0.643600  0.561300  1.0
  H  H1772  1  0.359600  0.438700  0.643600  1.0
  H  H1773  1  0.356400  0.359600  0.561300  1.0
  H  H1774  1  0.438700  0.356400  0.640400  1.0
  H  H1775  1  0.438700  0.640400  0.643600  1.0
  H  H1776  1  0.356400  0.561300  0.640400  1.0
  H  H1777  1  0.438700  0.859600  0.856400  1.0
  H  H1778  1  0.359600  0.856400  0.938700  1.0
  H  H1779  1  0.356400  0.938700  0.859600  1.0
  H  H1780  1  0.640400  0.938700  0.856400  1.0
  H  H1781  1  0.643600  0.859600  0.938700  1.0
  H  H1782  1  0.561300  0.856400  0.859600  1.0
  H  H1783  1  0.561300  0.140400  0.856400  1.0
  H  H1784  1  0.643600  0.938700  0.140400  1.0
  H  H1785  1  0.561300  0.859600  0.143600  1.0
  H  H1786  1  0.640400  0.143600  0.938700  1.0
  H  H1787  1  0.643600  0.061300  0.859600  1.0
  H  H1788  1  0.359600  0.061300  0.856400  1.0
  H  H1789  1  0.356400  0.140400  0.938700  1.0
  H  H1790  1  0.438700  0.143600  0.859600  1.0
  H  H1791  1  0.640400  0.856400  0.061300  1.0
  H  H1792  1  0.643600  0.140400  0.061300  1.0
  H  H1793  1  0.561300  0.143600  0.140400  1.0
  H  H1794  1  0.640400  0.061300  0.143600  1.0
  H  H1795  1  0.359600  0.143600  0.061300  1.0
  H  H1796  1  0.359600  0.938700  0.143600  1.0
  H  H1797  1  0.356400  0.859600  0.061300  1.0
  H  H1798  1  0.438700  0.856400  0.140400  1.0
  H  H1799  1  0.438700  0.140400  0.143600  1.0
  H  H1800  1  0.356400  0.061300  0.140400  1.0
  H  H1801  1  0.938700  0.359600  0.856400  1.0
  H  H1802  1  0.859600  0.356400  0.938700  1.0
  H  H1803  1  0.856400  0.438700  0.859600  1.0
  H  H1804  1  0.140400  0.438700  0.856400  1.0
  H  H1805  1  0.143600  0.359600  0.938700  1.0
  H  H1806  1  0.061300  0.356400  0.859600  1.0
  H  H1807  1  0.061300  0.640400  0.856400  1.0
  H  H1808  1  0.143600  0.438700  0.140400  1.0
  H  H1809  1  0.061300  0.359600  0.143600  1.0
  H  H1810  1  0.140400  0.643600  0.938700  1.0
  H  H1811  1  0.143600  0.561300  0.859600  1.0
  H  H1812  1  0.859600  0.561300  0.856400  1.0
  H  H1813  1  0.856400  0.640400  0.938700  1.0
  H  H1814  1  0.938700  0.643600  0.859600  1.0
  H  H1815  1  0.140400  0.356400  0.061300  1.0
  H  H1816  1  0.143600  0.640400  0.061300  1.0
  H  H1817  1  0.061300  0.643600  0.140400  1.0
  H  H1818  1  0.140400  0.561300  0.143600  1.0
  H  H1819  1  0.859600  0.643600  0.061300  1.0
  H  H1820  1  0.859600  0.438700  0.143600  1.0
  H  H1821  1  0.856400  0.359600  0.061300  1.0
  H  H1822  1  0.938700  0.356400  0.140400  1.0
  H  H1823  1  0.938700  0.640400  0.143600  1.0
  H  H1824  1  0.856400  0.561300  0.140400  1.0
  H  H1825  1  0.938700  0.859600  0.356400  1.0
  H  H1826  1  0.859600  0.856400  0.438700  1.0
  H  H1827  1  0.856400  0.938700  0.359600  1.0
  H  H1828  1  0.140400  0.938700  0.356400  1.0
  H  H1829  1  0.143600  0.859600  0.438700  1.0
  H  H1830  1  0.061300  0.856400  0.359600  1.0
  H  H1831  1  0.061300  0.140400  0.356400  1.0
  H  H1832  1  0.143600  0.938700  0.640400  1.0
  H  H1833  1  0.061300  0.859600  0.643600  1.0
  H  H1834  1  0.140400  0.143600  0.438700  1.0
  H  H1835  1  0.143600  0.061300  0.359600  1.0
  H  H1836  1  0.859600  0.061300  0.356400  1.0
  H  H1837  1  0.856400  0.140400  0.438700  1.0
  H  H1838  1  0.938700  0.143600  0.359600  1.0
  H  H1839  1  0.140400  0.856400  0.561300  1.0
  H  H1840  1  0.143600  0.140400  0.561300  1.0
  H  H1841  1  0.061300  0.143600  0.640400  1.0
  H  H1842  1  0.140400  0.061300  0.643600  1.0
  H  H1843  1  0.859600  0.143600  0.561300  1.0
  H  H1844  1  0.859600  0.938700  0.643600  1.0
  H  H1845  1  0.856400  0.859600  0.561300  1.0
  H  H1846  1  0.938700  0.856400  0.640400  1.0
  H  H1847  1  0.938700  0.140400  0.643600  1.0
  H  H1848  1  0.856400  0.061300  0.640400  1.0
  H  H1849  1  0.540400  0.295200  0.240800  1.0
  H  H1850  1  0.295200  0.240800  0.540400  1.0
  H  H1851  1  0.240800  0.540400  0.295200  1.0
  H  H1852  1  0.704800  0.540400  0.240800  1.0
  H  H1853  1  0.759200  0.295200  0.540400  1.0
  H  H1854  1  0.459600  0.240800  0.295200  1.0
  H  H1855  1  0.459600  0.704800  0.240800  1.0
  H  H1856  1  0.759200  0.540400  0.704800  1.0
  H  H1857  1  0.459600  0.295200  0.759200  1.0
  H  H1858  1  0.704800  0.759200  0.540400  1.0
  H  H1859  1  0.759200  0.459600  0.295200  1.0
  H  H1860  1  0.295200  0.459600  0.240800  1.0
  H  H1861  1  0.240800  0.704800  0.540400  1.0
  H  H1862  1  0.540400  0.759200  0.295200  1.0
  H  H1863  1  0.704800  0.240800  0.459600  1.0
  H  H1864  1  0.759200  0.704800  0.459600  1.0
  H  H1865  1  0.459600  0.759200  0.704800  1.0
  H  H1866  1  0.704800  0.459600  0.759200  1.0
  H  H1867  1  0.295200  0.759200  0.459600  1.0
  H  H1868  1  0.295200  0.540400  0.759200  1.0
  H  H1869  1  0.240800  0.295200  0.459600  1.0
  H  H1870  1  0.540400  0.240800  0.704800  1.0
  H  H1871  1  0.540400  0.704800  0.759200  1.0
  H  H1872  1  0.240800  0.459600  0.704800  1.0
  H  H1873  1  0.540400  0.795200  0.740800  1.0
  H  H1874  1  0.295200  0.740800  0.040400  1.0
  H  H1875  1  0.240800  0.040400  0.795200  1.0
  H  H1876  1  0.704800  0.040400  0.740800  1.0
  H  H1877  1  0.759200  0.795200  0.040400  1.0
  H  H1878  1  0.459600  0.740800  0.795200  1.0
  H  H1879  1  0.459600  0.204800  0.740800  1.0
  H  H1880  1  0.759200  0.040400  0.204800  1.0
  H  H1881  1  0.459600  0.795200  0.259200  1.0
  H  H1882  1  0.704800  0.259200  0.040400  1.0
  H  H1883  1  0.759200  0.959600  0.795200  1.0
  H  H1884  1  0.295200  0.959600  0.740800  1.0
  H  H1885  1  0.240800  0.204800  0.040400  1.0
  H  H1886  1  0.540400  0.259200  0.795200  1.0
  H  H1887  1  0.704800  0.740800  0.959600  1.0
  H  H1888  1  0.759200  0.204800  0.959600  1.0
  H  H1889  1  0.459600  0.259200  0.204800  1.0
  H  H1890  1  0.704800  0.959600  0.259200  1.0
  H  H1891  1  0.295200  0.259200  0.959600  1.0
  H  H1892  1  0.295200  0.040400  0.259200  1.0
  H  H1893  1  0.240800  0.795200  0.959600  1.0
  H  H1894  1  0.540400  0.740800  0.204800  1.0
  H  H1895  1  0.540400  0.204800  0.259200  1.0
  H  H1896  1  0.240800  0.959600  0.204800  1.0
  H  H1897  1  0.040400  0.295200  0.740800  1.0
  H  H1898  1  0.795200  0.240800  0.040400  1.0
  H  H1899  1  0.740800  0.540400  0.795200  1.0
  H  H1900  1  0.204800  0.540400  0.740800  1.0
  H  H1901  1  0.259200  0.295200  0.040400  1.0
  H  H1902  1  0.959600  0.240800  0.795200  1.0
  H  H1903  1  0.959600  0.704800  0.740800  1.0
  H  H1904  1  0.259200  0.540400  0.204800  1.0
  H  H1905  1  0.959600  0.295200  0.259200  1.0
  H  H1906  1  0.204800  0.759200  0.040400  1.0
  H  H1907  1  0.259200  0.459600  0.795200  1.0
  H  H1908  1  0.795200  0.459600  0.740800  1.0
  H  H1909  1  0.740800  0.704800  0.040400  1.0
  H  H1910  1  0.040400  0.759200  0.795200  1.0
  H  H1911  1  0.204800  0.240800  0.959600  1.0
  H  H1912  1  0.259200  0.704800  0.959600  1.0
  H  H1913  1  0.959600  0.759200  0.204800  1.0
  H  H1914  1  0.204800  0.459600  0.259200  1.0
  H  H1915  1  0.795200  0.759200  0.959600  1.0
  H  H1916  1  0.795200  0.540400  0.259200  1.0
  H  H1917  1  0.740800  0.295200  0.959600  1.0
  H  H1918  1  0.040400  0.240800  0.204800  1.0
  H  H1919  1  0.040400  0.704800  0.259200  1.0
  H  H1920  1  0.740800  0.459600  0.204800  1.0
  H  H1921  1  0.040400  0.795200  0.240800  1.0
  H  H1922  1  0.795200  0.740800  0.540400  1.0
  H  H1923  1  0.740800  0.040400  0.295200  1.0
  H  H1924  1  0.204800  0.040400  0.240800  1.0
  H  H1925  1  0.259200  0.795200  0.540400  1.0
  H  H1926  1  0.959600  0.740800  0.295200  1.0
  H  H1927  1  0.959600  0.204800  0.240800  1.0
  H  H1928  1  0.259200  0.040400  0.704800  1.0
  H  H1929  1  0.959600  0.795200  0.759200  1.0
  H  H1930  1  0.204800  0.259200  0.540400  1.0
  H  H1931  1  0.259200  0.959600  0.295200  1.0
  H  H1932  1  0.795200  0.959600  0.240800  1.0
  H  H1933  1  0.740800  0.204800  0.540400  1.0
  H  H1934  1  0.040400  0.259200  0.295200  1.0
  H  H1935  1  0.204800  0.740800  0.459600  1.0
  H  H1936  1  0.259200  0.204800  0.459600  1.0
  H  H1937  1  0.959600  0.259200  0.704800  1.0
  H  H1938  1  0.204800  0.959600  0.759200  1.0
  H  H1939  1  0.795200  0.259200  0.459600  1.0
  H  H1940  1  0.795200  0.040400  0.759200  1.0
  H  H1941  1  0.740800  0.795200  0.459600  1.0
  H  H1942  1  0.040400  0.740800  0.704800  1.0
  H  H1943  1  0.040400  0.204800  0.759200  1.0
  H  H1944  1  0.740800  0.959600  0.704800  1.0
  H  H1945  1  0.511000  0.351200  0.296600  1.0
  H  H1946  1  0.351200  0.296600  0.511000  1.0
  H  H1947  1  0.296600  0.511000  0.351200  1.0
  H  H1948  1  0.648800  0.511000  0.296600  1.0
  H  H1949  1  0.703400  0.351200  0.511000  1.0
  H  H1950  1  0.489000  0.296600  0.351200  1.0
  H  H1951  1  0.489000  0.648800  0.296600  1.0
  H  H1952  1  0.703400  0.511000  0.648800  1.0
  H  H1953  1  0.489000  0.351200  0.703400  1.0
  H  H1954  1  0.648800  0.703400  0.511000  1.0
  H  H1955  1  0.703400  0.489000  0.351200  1.0
  H  H1956  1  0.351200  0.489000  0.296600  1.0
  H  H1957  1  0.296600  0.648800  0.511000  1.0
  H  H1958  1  0.511000  0.703400  0.351200  1.0
  H  H1959  1  0.648800  0.296600  0.489000  1.0
  H  H1960  1  0.703400  0.648800  0.489000  1.0
  H  H1961  1  0.489000  0.703400  0.648800  1.0
  H  H1962  1  0.648800  0.489000  0.703400  1.0
  H  H1963  1  0.351200  0.703400  0.489000  1.0
  H  H1964  1  0.351200  0.511000  0.703400  1.0
  H  H1965  1  0.296600  0.351200  0.489000  1.0
  H  H1966  1  0.511000  0.296600  0.648800  1.0
  H  H1967  1  0.511000  0.648800  0.703400  1.0
  H  H1968  1  0.296600  0.489000  0.648800  1.0
  H  H1969  1  0.511000  0.851200  0.796600  1.0
  H  H1970  1  0.351200  0.796600  0.011000  1.0
  H  H1971  1  0.296600  0.011000  0.851200  1.0
  H  H1972  1  0.648800  0.011000  0.796600  1.0
  H  H1973  1  0.703400  0.851200  0.011000  1.0
  H  H1974  1  0.489000  0.796600  0.851200  1.0
  H  H1975  1  0.489000  0.148800  0.796600  1.0
  H  H1976  1  0.703400  0.011000  0.148800  1.0
  H  H1977  1  0.489000  0.851200  0.203400  1.0
  H  H1978  1  0.648800  0.203400  0.011000  1.0
  H  H1979  1  0.703400  0.989000  0.851200  1.0
  H  H1980  1  0.351200  0.989000  0.796600  1.0
  H  H1981  1  0.296600  0.148800  0.011000  1.0
  H  H1982  1  0.511000  0.203400  0.851200  1.0
  H  H1983  1  0.648800  0.796600  0.989000  1.0
  H  H1984  1  0.703400  0.148800  0.989000  1.0
  H  H1985  1  0.489000  0.203400  0.148800  1.0
  H  H1986  1  0.648800  0.989000  0.203400  1.0
  H  H1987  1  0.351200  0.203400  0.989000  1.0
  H  H1988  1  0.351200  0.011000  0.203400  1.0
  H  H1989  1  0.296600  0.851200  0.989000  1.0
  H  H1990  1  0.511000  0.796600  0.148800  1.0
  H  H1991  1  0.511000  0.148800  0.203400  1.0
  H  H1992  1  0.296600  0.989000  0.148800  1.0
  H  H1993  1  0.011000  0.351200  0.796600  1.0
  H  H1994  1  0.851200  0.296600  0.011000  1.0
  H  H1995  1  0.796600  0.511000  0.851200  1.0
  H  H1996  1  0.148800  0.511000  0.796600  1.0
  H  H1997  1  0.203400  0.351200  0.011000  1.0
  H  H1998  1  0.989000  0.296600  0.851200  1.0
  H  H1999  1  0.989000  0.648800  0.796600  1.0
  H  H2000  1  0.203400  0.511000  0.148800  1.0
  H  H2001  1  0.989000  0.351200  0.203400  1.0
  H  H2002  1  0.148800  0.703400  0.011000  1.0
  H  H2003  1  0.203400  0.489000  0.851200  1.0
  H  H2004  1  0.851200  0.489000  0.796600  1.0
  H  H2005  1  0.796600  0.648800  0.011000  1.0
  H  H2006  1  0.011000  0.703400  0.851200  1.0
  H  H2007  1  0.148800  0.296600  0.989000  1.0
  H  H2008  1  0.203400  0.648800  0.989000  1.0
  H  H2009  1  0.989000  0.703400  0.148800  1.0
  H  H2010  1  0.148800  0.489000  0.203400  1.0
  H  H2011  1  0.851200  0.703400  0.989000  1.0
  H  H2012  1  0.851200  0.511000  0.203400  1.0
  H  H2013  1  0.796600  0.351200  0.989000  1.0
  H  H2014  1  0.011000  0.296600  0.148800  1.0
  H  H2015  1  0.011000  0.648800  0.203400  1.0
  H  H2016  1  0.796600  0.489000  0.148800  1.0
  H  H2017  1  0.011000  0.851200  0.296600  1.0
  H  H2018  1  0.851200  0.796600  0.511000  1.0
  H  H2019  1  0.796600  0.011000  0.351200  1.0
  H  H2020  1  0.148800  0.011000  0.296600  1.0
  H  H2021  1  0.203400  0.851200  0.511000  1.0
  H  H2022  1  0.989000  0.796600  0.351200  1.0
  H  H2023  1  0.989000  0.148800  0.296600  1.0
  H  H2024  1  0.203400  0.011000  0.648800  1.0
  H  H2025  1  0.989000  0.851200  0.703400  1.0
  H  H2026  1  0.148800  0.203400  0.511000  1.0
  H  H2027  1  0.203400  0.989000  0.351200  1.0
  H  H2028  1  0.851200  0.989000  0.296600  1.0
  H  H2029  1  0.796600  0.148800  0.511000  1.0
  H  H2030  1  0.011000  0.203400  0.351200  1.0
  H  H2031  1  0.148800  0.796600  0.489000  1.0
  H  H2032  1  0.203400  0.148800  0.489000  1.0
  H  H2033  1  0.989000  0.203400  0.648800  1.0
  H  H2034  1  0.148800  0.989000  0.703400  1.0
  H  H2035  1  0.851200  0.203400  0.489000  1.0
  H  H2036  1  0.851200  0.011000  0.703400  1.0
  H  H2037  1  0.796600  0.851200  0.489000  1.0
  H  H2038  1  0.011000  0.796600  0.648800  1.0
  H  H2039  1  0.011000  0.148800  0.703400  1.0
  H  H2040  1  0.796600  0.989000  0.648800  1.0
  H  H2041  1  0.462100  0.298000  0.257300  1.0
  H  H2042  1  0.298000  0.257300  0.462100  1.0
  H  H2043  1  0.257300  0.462100  0.298000  1.0
  H  H2044  1  0.702000  0.462100  0.257300  1.0
  H  H2045  1  0.742700  0.298000  0.462100  1.0
  H  H2046  1  0.537900  0.257300  0.298000  1.0
  H  H2047  1  0.537900  0.702000  0.257300  1.0
  H  H2048  1  0.742700  0.462100  0.702000  1.0
  H  H2049  1  0.537900  0.298000  0.742700  1.0
  H  H2050  1  0.702000  0.742700  0.462100  1.0
  H  H2051  1  0.742700  0.537900  0.298000  1.0
  H  H2052  1  0.298000  0.537900  0.257300  1.0
  H  H2053  1  0.257300  0.702000  0.462100  1.0
  H  H2054  1  0.462100  0.742700  0.298000  1.0
  H  H2055  1  0.702000  0.257300  0.537900  1.0
  H  H2056  1  0.742700  0.702000  0.537900  1.0
  H  H2057  1  0.537900  0.742700  0.702000  1.0
  H  H2058  1  0.702000  0.537900  0.742700  1.0
  H  H2059  1  0.298000  0.742700  0.537900  1.0
  H  H2060  1  0.298000  0.462100  0.742700  1.0
  H  H2061  1  0.257300  0.298000  0.537900  1.0
  H  H2062  1  0.462100  0.257300  0.702000  1.0
  H  H2063  1  0.462100  0.702000  0.742700  1.0
  H  H2064  1  0.257300  0.537900  0.702000  1.0
  H  H2065  1  0.462100  0.798000  0.757300  1.0
  H  H2066  1  0.298000  0.757300  0.962100  1.0
  H  H2067  1  0.257300  0.962100  0.798000  1.0
  H  H2068  1  0.702000  0.962100  0.757300  1.0
  H  H2069  1  0.742700  0.798000  0.962100  1.0
  H  H2070  1  0.537900  0.757300  0.798000  1.0
  H  H2071  1  0.537900  0.202000  0.757300  1.0
  H  H2072  1  0.742700  0.962100  0.202000  1.0
  H  H2073  1  0.537900  0.798000  0.242700  1.0
  H  H2074  1  0.702000  0.242700  0.962100  1.0
  H  H2075  1  0.742700  0.037900  0.798000  1.0
  H  H2076  1  0.298000  0.037900  0.757300  1.0
  H  H2077  1  0.257300  0.202000  0.962100  1.0
  H  H2078  1  0.462100  0.242700  0.798000  1.0
  H  H2079  1  0.702000  0.757300  0.037900  1.0
  H  H2080  1  0.742700  0.202000  0.037900  1.0
  H  H2081  1  0.537900  0.242700  0.202000  1.0
  H  H2082  1  0.702000  0.037900  0.242700  1.0
  H  H2083  1  0.298000  0.242700  0.037900  1.0
  H  H2084  1  0.298000  0.962100  0.242700  1.0
  H  H2085  1  0.257300  0.798000  0.037900  1.0
  H  H2086  1  0.462100  0.757300  0.202000  1.0
  H  H2087  1  0.462100  0.202000  0.242700  1.0
  H  H2088  1  0.257300  0.037900  0.202000  1.0
  H  H2089  1  0.962100  0.298000  0.757300  1.0
  H  H2090  1  0.798000  0.257300  0.962100  1.0
  H  H2091  1  0.757300  0.462100  0.798000  1.0
  H  H2092  1  0.202000  0.462100  0.757300  1.0
  H  H2093  1  0.242700  0.298000  0.962100  1.0
  H  H2094  1  0.037900  0.257300  0.798000  1.0
  H  H2095  1  0.037900  0.702000  0.757300  1.0
  H  H2096  1  0.242700  0.462100  0.202000  1.0
  H  H2097  1  0.037900  0.298000  0.242700  1.0
  H  H2098  1  0.202000  0.742700  0.962100  1.0
  H  H2099  1  0.242700  0.537900  0.798000  1.0
  H  H2100  1  0.798000  0.537900  0.757300  1.0
  H  H2101  1  0.757300  0.702000  0.962100  1.0
  H  H2102  1  0.962100  0.742700  0.798000  1.0
  H  H2103  1  0.202000  0.257300  0.037900  1.0
  H  H2104  1  0.242700  0.702000  0.037900  1.0
  H  H2105  1  0.037900  0.742700  0.202000  1.0
  H  H2106  1  0.202000  0.537900  0.242700  1.0
  H  H2107  1  0.798000  0.742700  0.037900  1.0
  H  H2108  1  0.798000  0.462100  0.242700  1.0
  H  H2109  1  0.757300  0.298000  0.037900  1.0
  H  H2110  1  0.962100  0.257300  0.202000  1.0
  H  H2111  1  0.962100  0.702000  0.242700  1.0
  H  H2112  1  0.757300  0.537900  0.202000  1.0
  H  H2113  1  0.962100  0.798000  0.257300  1.0
  H  H2114  1  0.798000  0.757300  0.462100  1.0
  H  H2115  1  0.757300  0.962100  0.298000  1.0
  H  H2116  1  0.202000  0.962100  0.257300  1.0
  H  H2117  1  0.242700  0.798000  0.462100  1.0
  H  H2118  1  0.037900  0.757300  0.298000  1.0
  H  H2119  1  0.037900  0.202000  0.257300  1.0
  H  H2120  1  0.242700  0.962100  0.702000  1.0
  H  H2121  1  0.037900  0.798000  0.742700  1.0
  H  H2122  1  0.202000  0.242700  0.462100  1.0
  H  H2123  1  0.242700  0.037900  0.298000  1.0
  H  H2124  1  0.798000  0.037900  0.257300  1.0
  H  H2125  1  0.757300  0.202000  0.462100  1.0
  H  H2126  1  0.962100  0.242700  0.298000  1.0
  H  H2127  1  0.202000  0.757300  0.537900  1.0
  H  H2128  1  0.242700  0.202000  0.537900  1.0
  H  H2129  1  0.037900  0.242700  0.702000  1.0
  H  H2130  1  0.202000  0.037900  0.742700  1.0
  H  H2131  1  0.798000  0.242700  0.537900  1.0
  H  H2132  1  0.798000  0.962100  0.742700  1.0
  H  H2133  1  0.757300  0.798000  0.537900  1.0
  H  H2134  1  0.962100  0.757300  0.702000  1.0
  H  H2135  1  0.962100  0.202000  0.742700  1.0
  H  H2136  1  0.757300  0.037900  0.702000  1.0
  H  H2137  1  0.416300  0.449200  0.299400  1.0
  H  H2138  1  0.449200  0.299400  0.416300  1.0
  H  H2139  1  0.299400  0.416300  0.449200  1.0
  H  H2140  1  0.550800  0.416300  0.299400  1.0
  H  H2141  1  0.700600  0.449200  0.416300  1.0
  H  H2142  1  0.583700  0.299400  0.449200  1.0
  H  H2143  1  0.583700  0.550800  0.299400  1.0
  H  H2144  1  0.700600  0.416300  0.550800  1.0
  H  H2145  1  0.583700  0.449200  0.700600  1.0
  H  H2146  1  0.550800  0.700600  0.416300  1.0
  H  H2147  1  0.700600  0.583700  0.449200  1.0
  H  H2148  1  0.449200  0.583700  0.299400  1.0
  H  H2149  1  0.299400  0.550800  0.416300  1.0
  H  H2150  1  0.416300  0.700600  0.449200  1.0
  H  H2151  1  0.550800  0.299400  0.583700  1.0
  H  H2152  1  0.700600  0.550800  0.583700  1.0
  H  H2153  1  0.583700  0.700600  0.550800  1.0
  H  H2154  1  0.550800  0.583700  0.700600  1.0
  H  H2155  1  0.449200  0.700600  0.583700  1.0
  H  H2156  1  0.449200  0.416300  0.700600  1.0
  H  H2157  1  0.299400  0.449200  0.583700  1.0
  H  H2158  1  0.416300  0.299400  0.550800  1.0
  H  H2159  1  0.416300  0.550800  0.700600  1.0
  H  H2160  1  0.299400  0.583700  0.550800  1.0
  H  H2161  1  0.416300  0.949200  0.799400  1.0
  H  H2162  1  0.449200  0.799400  0.916300  1.0
  H  H2163  1  0.299400  0.916300  0.949200  1.0
  H  H2164  1  0.550800  0.916300  0.799400  1.0
  H  H2165  1  0.700600  0.949200  0.916300  1.0
  H  H2166  1  0.583700  0.799400  0.949200  1.0
  H  H2167  1  0.583700  0.050800  0.799400  1.0
  H  H2168  1  0.700600  0.916300  0.050800  1.0
  H  H2169  1  0.583700  0.949200  0.200600  1.0
  H  H2170  1  0.550800  0.200600  0.916300  1.0
  H  H2171  1  0.700600  0.083700  0.949200  1.0
  H  H2172  1  0.449200  0.083700  0.799400  1.0
  H  H2173  1  0.299400  0.050800  0.916300  1.0
  H  H2174  1  0.416300  0.200600  0.949200  1.0
  H  H2175  1  0.550800  0.799400  0.083700  1.0
  H  H2176  1  0.700600  0.050800  0.083700  1.0
  H  H2177  1  0.583700  0.200600  0.050800  1.0
  H  H2178  1  0.550800  0.083700  0.200600  1.0
  H  H2179  1  0.449200  0.200600  0.083700  1.0
  H  H2180  1  0.449200  0.916300  0.200600  1.0
  H  H2181  1  0.299400  0.949200  0.083700  1.0
  H  H2182  1  0.416300  0.799400  0.050800  1.0
  H  H2183  1  0.416300  0.050800  0.200600  1.0
  H  H2184  1  0.299400  0.083700  0.050800  1.0
  H  H2185  1  0.916300  0.449200  0.799400  1.0
  H  H2186  1  0.949200  0.299400  0.916300  1.0
  H  H2187  1  0.799400  0.416300  0.949200  1.0
  H  H2188  1  0.050800  0.416300  0.799400  1.0
  H  H2189  1  0.200600  0.449200  0.916300  1.0
  H  H2190  1  0.083700  0.299400  0.949200  1.0
  H  H2191  1  0.083700  0.550800  0.799400  1.0
  H  H2192  1  0.200600  0.416300  0.050800  1.0
  H  H2193  1  0.083700  0.449200  0.200600  1.0
  H  H2194  1  0.050800  0.700600  0.916300  1.0
  H  H2195  1  0.200600  0.583700  0.949200  1.0
  H  H2196  1  0.949200  0.583700  0.799400  1.0
  H  H2197  1  0.799400  0.550800  0.916300  1.0
  H  H2198  1  0.916300  0.700600  0.949200  1.0
  H  H2199  1  0.050800  0.299400  0.083700  1.0
  H  H2200  1  0.200600  0.550800  0.083700  1.0
  H  H2201  1  0.083700  0.700600  0.050800  1.0
  H  H2202  1  0.050800  0.583700  0.200600  1.0
  H  H2203  1  0.949200  0.700600  0.083700  1.0
  H  H2204  1  0.949200  0.416300  0.200600  1.0
  H  H2205  1  0.799400  0.449200  0.083700  1.0
  H  H2206  1  0.916300  0.299400  0.050800  1.0
  H  H2207  1  0.916300  0.550800  0.200600  1.0
  H  H2208  1  0.799400  0.583700  0.050800  1.0
  H  H2209  1  0.916300  0.949200  0.299400  1.0
  H  H2210  1  0.949200  0.799400  0.416300  1.0
  H  H2211  1  0.799400  0.916300  0.449200  1.0
  H  H2212  1  0.050800  0.916300  0.299400  1.0
  H  H2213  1  0.200600  0.949200  0.416300  1.0
  H  H2214  1  0.083700  0.799400  0.449200  1.0
  H  H2215  1  0.083700  0.050800  0.299400  1.0
  H  H2216  1  0.200600  0.916300  0.550800  1.0
  H  H2217  1  0.083700  0.949200  0.700600  1.0
  H  H2218  1  0.050800  0.200600  0.416300  1.0
  H  H2219  1  0.200600  0.083700  0.449200  1.0
  H  H2220  1  0.949200  0.083700  0.299400  1.0
  H  H2221  1  0.799400  0.050800  0.416300  1.0
  H  H2222  1  0.916300  0.200600  0.449200  1.0
  H  H2223  1  0.050800  0.799400  0.583700  1.0
  H  H2224  1  0.200600  0.050800  0.583700  1.0
  H  H2225  1  0.083700  0.200600  0.550800  1.0
  H  H2226  1  0.050800  0.083700  0.700600  1.0
  H  H2227  1  0.949200  0.200600  0.583700  1.0
  H  H2228  1  0.949200  0.916300  0.700600  1.0
  H  H2229  1  0.799400  0.949200  0.583700  1.0
  H  H2230  1  0.916300  0.799400  0.550800  1.0
  H  H2231  1  0.916300  0.050800  0.700600  1.0
  H  H2232  1  0.799400  0.083700  0.550800  1.0
  H  H2233  1  0.407200  0.417900  0.334000  1.0
  H  H2234  1  0.417900  0.334000  0.407200  1.0
  H  H2235  1  0.334000  0.407200  0.417900  1.0
  H  H2236  1  0.582100  0.407200  0.334000  1.0
  H  H2237  1  0.666000  0.417900  0.407200  1.0
  H  H2238  1  0.592800  0.334000  0.417900  1.0
  H  H2239  1  0.592800  0.582100  0.334000  1.0
  H  H2240  1  0.666000  0.407200  0.582100  1.0
  H  H2241  1  0.592800  0.417900  0.666000  1.0
  H  H2242  1  0.582100  0.666000  0.407200  1.0
  H  H2243  1  0.666000  0.592800  0.417900  1.0
  H  H2244  1  0.417900  0.592800  0.334000  1.0
  H  H2245  1  0.334000  0.582100  0.407200  1.0
  H  H2246  1  0.407200  0.666000  0.417900  1.0
  H  H2247  1  0.582100  0.334000  0.592800  1.0
  H  H2248  1  0.666000  0.582100  0.592800  1.0
  H  H2249  1  0.592800  0.666000  0.582100  1.0
  H  H2250  1  0.582100  0.592800  0.666000  1.0
  H  H2251  1  0.417900  0.666000  0.592800  1.0
  H  H2252  1  0.417900  0.407200  0.666000  1.0
  H  H2253  1  0.334000  0.417900  0.592800  1.0
  H  H2254  1  0.407200  0.334000  0.582100  1.0
  H  H2255  1  0.407200  0.582100  0.666000  1.0
  H  H2256  1  0.334000  0.592800  0.582100  1.0
  H  H2257  1  0.407200  0.917900  0.834000  1.0
  H  H2258  1  0.417900  0.834000  0.907200  1.0
  H  H2259  1  0.334000  0.907200  0.917900  1.0
  H  H2260  1  0.582100  0.907200  0.834000  1.0
  H  H2261  1  0.666000  0.917900  0.907200  1.0
  H  H2262  1  0.592800  0.834000  0.917900  1.0
  H  H2263  1  0.592800  0.082100  0.834000  1.0
  H  H2264  1  0.666000  0.907200  0.082100  1.0
  H  H2265  1  0.592800  0.917900  0.166000  1.0
  H  H2266  1  0.582100  0.166000  0.907200  1.0
  H  H2267  1  0.666000  0.092800  0.917900  1.0
  H  H2268  1  0.417900  0.092800  0.834000  1.0
  H  H2269  1  0.334000  0.082100  0.907200  1.0
  H  H2270  1  0.407200  0.166000  0.917900  1.0
  H  H2271  1  0.582100  0.834000  0.092800  1.0
  H  H2272  1  0.666000  0.082100  0.092800  1.0
  H  H2273  1  0.592800  0.166000  0.082100  1.0
  H  H2274  1  0.582100  0.092800  0.166000  1.0
  H  H2275  1  0.417900  0.166000  0.092800  1.0
  H  H2276  1  0.417900  0.907200  0.166000  1.0
  H  H2277  1  0.334000  0.917900  0.092800  1.0
  H  H2278  1  0.407200  0.834000  0.082100  1.0
  H  H2279  1  0.407200  0.082100  0.166000  1.0
  H  H2280  1  0.334000  0.092800  0.082100  1.0
  H  H2281  1  0.907200  0.417900  0.834000  1.0
  H  H2282  1  0.917900  0.334000  0.907200  1.0
  H  H2283  1  0.834000  0.407200  0.917900  1.0
  H  H2284  1  0.082100  0.407200  0.834000  1.0
  H  H2285  1  0.166000  0.417900  0.907200  1.0
  H  H2286  1  0.092800  0.334000  0.917900  1.0
  H  H2287  1  0.092800  0.582100  0.834000  1.0
  H  H2288  1  0.166000  0.407200  0.082100  1.0
  H  H2289  1  0.092800  0.417900  0.166000  1.0
  H  H2290  1  0.082100  0.666000  0.907200  1.0
  H  H2291  1  0.166000  0.592800  0.917900  1.0
  H  H2292  1  0.917900  0.592800  0.834000  1.0
  H  H2293  1  0.834000  0.582100  0.907200  1.0
  H  H2294  1  0.907200  0.666000  0.917900  1.0
  H  H2295  1  0.082100  0.334000  0.092800  1.0
  H  H2296  1  0.166000  0.582100  0.092800  1.0
  H  H2297  1  0.092800  0.666000  0.082100  1.0
  H  H2298  1  0.082100  0.592800  0.166000  1.0
  H  H2299  1  0.917900  0.666000  0.092800  1.0
  H  H2300  1  0.917900  0.407200  0.166000  1.0
  H  H2301  1  0.834000  0.417900  0.092800  1.0
  H  H2302  1  0.907200  0.334000  0.082100  1.0
  H  H2303  1  0.907200  0.582100  0.166000  1.0
  H  H2304  1  0.834000  0.592800  0.082100  1.0
  H  H2305  1  0.907200  0.917900  0.334000  1.0
  H  H2306  1  0.917900  0.834000  0.407200  1.0
  H  H2307  1  0.834000  0.907200  0.417900  1.0
  H  H2308  1  0.082100  0.907200  0.334000  1.0
  H  H2309  1  0.166000  0.917900  0.407200  1.0
  H  H2310  1  0.092800  0.834000  0.417900  1.0
  H  H2311  1  0.092800  0.082100  0.334000  1.0
  H  H2312  1  0.166000  0.907200  0.582100  1.0
  H  H2313  1  0.092800  0.917900  0.666000  1.0
  H  H2314  1  0.082100  0.166000  0.407200  1.0
  H  H2315  1  0.166000  0.092800  0.417900  1.0
  H  H2316  1  0.917900  0.092800  0.334000  1.0
  H  H2317  1  0.834000  0.082100  0.407200  1.0
  H  H2318  1  0.907200  0.166000  0.417900  1.0
  H  H2319  1  0.082100  0.834000  0.592800  1.0
  H  H2320  1  0.166000  0.082100  0.592800  1.0
  H  H2321  1  0.092800  0.166000  0.582100  1.0
  H  H2322  1  0.082100  0.092800  0.666000  1.0
  H  H2323  1  0.917900  0.166000  0.592800  1.0
  H  H2324  1  0.917900  0.907200  0.666000  1.0
  H  H2325  1  0.834000  0.917900  0.592800  1.0
  H  H2326  1  0.907200  0.834000  0.582100  1.0
  H  H2327  1  0.907200  0.082100  0.666000  1.0
  H  H2328  1  0.834000  0.092800  0.582100  1.0
  H  H2329  1  0.350100  0.379800  0.286500  1.0
  H  H2330  1  0.379800  0.286500  0.350100  1.0
  H  H2331  1  0.286500  0.350100  0.379800  1.0
  H  H2332  1  0.620200  0.350100  0.286500  1.0
  H  H2333  1  0.713500  0.379800  0.350100  1.0
  H  H2334  1  0.649900  0.286500  0.379800  1.0
  H  H2335  1  0.649900  0.620200  0.286500  1.0
  H  H2336  1  0.713500  0.350100  0.620200  1.0
  H  H2337  1  0.649900  0.379800  0.713500  1.0
  H  H2338  1  0.620200  0.713500  0.350100  1.0
  H  H2339  1  0.713500  0.649900  0.379800  1.0
  H  H2340  1  0.379800  0.649900  0.286500  1.0
  H  H2341  1  0.286500  0.620200  0.350100  1.0
  H  H2342  1  0.350100  0.713500  0.379800  1.0
  H  H2343  1  0.620200  0.286500  0.649900  1.0
  H  H2344  1  0.713500  0.620200  0.649900  1.0
  H  H2345  1  0.649900  0.713500  0.620200  1.0
  H  H2346  1  0.620200  0.649900  0.713500  1.0
  H  H2347  1  0.379800  0.713500  0.649900  1.0
  H  H2348  1  0.379800  0.350100  0.713500  1.0
  H  H2349  1  0.286500  0.379800  0.649900  1.0
  H  H2350  1  0.350100  0.286500  0.620200  1.0
  H  H2351  1  0.350100  0.620200  0.713500  1.0
  H  H2352  1  0.286500  0.649900  0.620200  1.0
  H  H2353  1  0.350100  0.879800  0.786500  1.0
  H  H2354  1  0.379800  0.786500  0.850100  1.0
  H  H2355  1  0.286500  0.850100  0.879800  1.0
  H  H2356  1  0.620200  0.850100  0.786500  1.0
  H  H2357  1  0.713500  0.879800  0.850100  1.0
  H  H2358  1  0.649900  0.786500  0.879800  1.0
  H  H2359  1  0.649900  0.120200  0.786500  1.0
  H  H2360  1  0.713500  0.850100  0.120200  1.0
  H  H2361  1  0.649900  0.879800  0.213500  1.0
  H  H2362  1  0.620200  0.213500  0.850100  1.0
  H  H2363  1  0.713500  0.149900  0.879800  1.0
  H  H2364  1  0.379800  0.149900  0.786500  1.0
  H  H2365  1  0.286500  0.120200  0.850100  1.0
  H  H2366  1  0.350100  0.213500  0.879800  1.0
  H  H2367  1  0.620200  0.786500  0.149900  1.0
  H  H2368  1  0.713500  0.120200  0.149900  1.0
  H  H2369  1  0.649900  0.213500  0.120200  1.0
  H  H2370  1  0.620200  0.149900  0.213500  1.0
  H  H2371  1  0.379800  0.213500  0.149900  1.0
  H  H2372  1  0.379800  0.850100  0.213500  1.0
  H  H2373  1  0.286500  0.879800  0.149900  1.0
  H  H2374  1  0.350100  0.786500  0.120200  1.0
  H  H2375  1  0.350100  0.120200  0.213500  1.0
  H  H2376  1  0.286500  0.149900  0.120200  1.0
  H  H2377  1  0.850100  0.379800  0.786500  1.0
  H  H2378  1  0.879800  0.286500  0.850100  1.0
  H  H2379  1  0.786500  0.350100  0.879800  1.0
  H  H2380  1  0.120200  0.350100  0.786500  1.0
  H  H2381  1  0.213500  0.379800  0.850100  1.0
  H  H2382  1  0.149900  0.286500  0.879800  1.0
  H  H2383  1  0.149900  0.620200  0.786500  1.0
  H  H2384  1  0.213500  0.350100  0.120200  1.0
  H  H2385  1  0.149900  0.379800  0.213500  1.0
  H  H2386  1  0.120200  0.713500  0.850100  1.0
  H  H2387  1  0.213500  0.649900  0.879800  1.0
  H  H2388  1  0.879800  0.649900  0.786500  1.0
  H  H2389  1  0.786500  0.620200  0.850100  1.0
  H  H2390  1  0.850100  0.713500  0.879800  1.0
  H  H2391  1  0.120200  0.286500  0.149900  1.0
  H  H2392  1  0.213500  0.620200  0.149900  1.0
  H  H2393  1  0.149900  0.713500  0.120200  1.0
  H  H2394  1  0.120200  0.649900  0.213500  1.0
  H  H2395  1  0.879800  0.713500  0.149900  1.0
  H  H2396  1  0.879800  0.350100  0.213500  1.0
  H  H2397  1  0.786500  0.379800  0.149900  1.0
  H  H2398  1  0.850100  0.286500  0.120200  1.0
  H  H2399  1  0.850100  0.620200  0.213500  1.0
  H  H2400  1  0.786500  0.649900  0.120200  1.0
  H  H2401  1  0.850100  0.879800  0.286500  1.0
  H  H2402  1  0.879800  0.786500  0.350100  1.0
  H  H2403  1  0.786500  0.850100  0.379800  1.0
  H  H2404  1  0.120200  0.850100  0.286500  1.0
  H  H2405  1  0.213500  0.879800  0.350100  1.0
  H  H2406  1  0.149900  0.786500  0.379800  1.0
  H  H2407  1  0.149900  0.120200  0.286500  1.0
  H  H2408  1  0.213500  0.850100  0.620200  1.0
  H  H2409  1  0.149900  0.879800  0.713500  1.0
  H  H2410  1  0.120200  0.213500  0.350100  1.0
  H  H2411  1  0.213500  0.149900  0.379800  1.0
  H  H2412  1  0.879800  0.149900  0.286500  1.0
  H  H2413  1  0.786500  0.120200  0.350100  1.0
  H  H2414  1  0.850100  0.213500  0.379800  1.0
  H  H2415  1  0.120200  0.786500  0.649900  1.0
  H  H2416  1  0.213500  0.120200  0.649900  1.0
  H  H2417  1  0.149900  0.213500  0.620200  1.0
  H  H2418  1  0.120200  0.149900  0.713500  1.0
  H  H2419  1  0.879800  0.213500  0.649900  1.0
  H  H2420  1  0.879800  0.850100  0.713500  1.0
  H  H2421  1  0.786500  0.879800  0.649900  1.0
  H  H2422  1  0.850100  0.786500  0.620200  1.0
  H  H2423  1  0.850100  0.120200  0.713500  1.0
  H  H2424  1  0.786500  0.149900  0.620200  1.0
  H  H2425  1  0.362200  0.408200  0.248700  1.0
  H  H2426  1  0.408200  0.248700  0.362200  1.0
  H  H2427  1  0.248700  0.362200  0.408200  1.0
  H  H2428  1  0.591800  0.362200  0.248700  1.0
  H  H2429  1  0.751300  0.408200  0.362200  1.0
  H  H2430  1  0.637800  0.248700  0.408200  1.0
  H  H2431  1  0.637800  0.591800  0.248700  1.0
  H  H2432  1  0.751300  0.362200  0.591800  1.0
  H  H2433  1  0.637800  0.408200  0.751300  1.0
  H  H2434  1  0.591800  0.751300  0.362200  1.0
  H  H2435  1  0.751300  0.637800  0.408200  1.0
  H  H2436  1  0.408200  0.637800  0.248700  1.0
  H  H2437  1  0.248700  0.591800  0.362200  1.0
  H  H2438  1  0.362200  0.751300  0.408200  1.0
  H  H2439  1  0.591800  0.248700  0.637800  1.0
  H  H2440  1  0.751300  0.591800  0.637800  1.0
  H  H2441  1  0.637800  0.751300  0.591800  1.0
  H  H2442  1  0.591800  0.637800  0.751300  1.0
  H  H2443  1  0.408200  0.751300  0.637800  1.0
  H  H2444  1  0.408200  0.362200  0.751300  1.0
  H  H2445  1  0.248700  0.408200  0.637800  1.0
  H  H2446  1  0.362200  0.248700  0.591800  1.0
  H  H2447  1  0.362200  0.591800  0.751300  1.0
  H  H2448  1  0.248700  0.637800  0.591800  1.0
  H  H2449  1  0.362200  0.908200  0.748700  1.0
  H  H2450  1  0.408200  0.748700  0.862200  1.0
  H  H2451  1  0.248700  0.862200  0.908200  1.0
  H  H2452  1  0.591800  0.862200  0.748700  1.0
  H  H2453  1  0.751300  0.908200  0.862200  1.0
  H  H2454  1  0.637800  0.748700  0.908200  1.0
  H  H2455  1  0.637800  0.091800  0.748700  1.0
  H  H2456  1  0.751300  0.862200  0.091800  1.0
  H  H2457  1  0.637800  0.908200  0.251300  1.0
  H  H2458  1  0.591800  0.251300  0.862200  1.0
  H  H2459  1  0.751300  0.137800  0.908200  1.0
  H  H2460  1  0.408200  0.137800  0.748700  1.0
  H  H2461  1  0.248700  0.091800  0.862200  1.0
  H  H2462  1  0.362200  0.251300  0.908200  1.0
  H  H2463  1  0.591800  0.748700  0.137800  1.0
  H  H2464  1  0.751300  0.091800  0.137800  1.0
  H  H2465  1  0.637800  0.251300  0.091800  1.0
  H  H2466  1  0.591800  0.137800  0.251300  1.0
  H  H2467  1  0.408200  0.251300  0.137800  1.0
  H  H2468  1  0.408200  0.862200  0.251300  1.0
  H  H2469  1  0.248700  0.908200  0.137800  1.0
  H  H2470  1  0.362200  0.748700  0.091800  1.0
  H  H2471  1  0.362200  0.091800  0.251300  1.0
  H  H2472  1  0.248700  0.137800  0.091800  1.0
  H  H2473  1  0.862200  0.408200  0.748700  1.0
  H  H2474  1  0.908200  0.248700  0.862200  1.0
  H  H2475  1  0.748700  0.362200  0.908200  1.0
  H  H2476  1  0.091800  0.362200  0.748700  1.0
  H  H2477  1  0.251300  0.408200  0.862200  1.0
  H  H2478  1  0.137800  0.248700  0.908200  1.0
  H  H2479  1  0.137800  0.591800  0.748700  1.0
  H  H2480  1  0.251300  0.362200  0.091800  1.0
  H  H2481  1  0.137800  0.408200  0.251300  1.0
  H  H2482  1  0.091800  0.751300  0.862200  1.0
  H  H2483  1  0.251300  0.637800  0.908200  1.0
  H  H2484  1  0.908200  0.637800  0.748700  1.0
  H  H2485  1  0.748700  0.591800  0.862200  1.0
  H  H2486  1  0.862200  0.751300  0.908200  1.0
  H  H2487  1  0.091800  0.248700  0.137800  1.0
  H  H2488  1  0.251300  0.591800  0.137800  1.0
  H  H2489  1  0.137800  0.751300  0.091800  1.0
  H  H2490  1  0.091800  0.637800  0.251300  1.0
  H  H2491  1  0.908200  0.751300  0.137800  1.0
  H  H2492  1  0.908200  0.362200  0.251300  1.0
  H  H2493  1  0.748700  0.408200  0.137800  1.0
  H  H2494  1  0.862200  0.248700  0.091800  1.0
  H  H2495  1  0.862200  0.591800  0.251300  1.0
  H  H2496  1  0.748700  0.637800  0.091800  1.0
  H  H2497  1  0.862200  0.908200  0.248700  1.0
  H  H2498  1  0.908200  0.748700  0.362200  1.0
  H  H2499  1  0.748700  0.862200  0.408200  1.0
  H  H2500  1  0.091800  0.862200  0.248700  1.0
  H  H2501  1  0.251300  0.908200  0.362200  1.0
  H  H2502  1  0.137800  0.748700  0.408200  1.0
  H  H2503  1  0.137800  0.091800  0.248700  1.0
  H  H2504  1  0.251300  0.862200  0.591800  1.0
  H  H2505  1  0.137800  0.908200  0.751300  1.0
  H  H2506  1  0.091800  0.251300  0.362200  1.0
  H  H2507  1  0.251300  0.137800  0.408200  1.0
  H  H2508  1  0.908200  0.137800  0.248700  1.0
  H  H2509  1  0.748700  0.091800  0.362200  1.0
  H  H2510  1  0.862200  0.251300  0.408200  1.0
  H  H2511  1  0.091800  0.748700  0.637800  1.0
  H  H2512  1  0.251300  0.091800  0.637800  1.0
  H  H2513  1  0.137800  0.251300  0.591800  1.0
  H  H2514  1  0.091800  0.137800  0.751300  1.0
  H  H2515  1  0.908200  0.251300  0.637800  1.0
  H  H2516  1  0.908200  0.862200  0.751300  1.0
  H  H2517  1  0.748700  0.908200  0.637800  1.0
  H  H2518  1  0.862200  0.748700  0.591800  1.0
  H  H2519  1  0.862200  0.091800  0.751300  1.0
  H  H2520  1  0.748700  0.137800  0.591800  1.0
  H  H2521  1  0.386600  0.449000  0.231200  1.0
  H  H2522  1  0.449000  0.231200  0.386600  1.0
  H  H2523  1  0.231200  0.386600  0.449000  1.0
  H  H2524  1  0.551000  0.386600  0.231200  1.0
  H  H2525  1  0.768800  0.449000  0.386600  1.0
  H  H2526  1  0.613400  0.231200  0.449000  1.0
  H  H2527  1  0.613400  0.551000  0.231200  1.0
  H  H2528  1  0.768800  0.386600  0.551000  1.0
  H  H2529  1  0.613400  0.449000  0.768800  1.0
  H  H2530  1  0.551000  0.768800  0.386600  1.0
  H  H2531  1  0.768800  0.613400  0.449000  1.0
  H  H2532  1  0.449000  0.613400  0.231200  1.0
  H  H2533  1  0.231200  0.551000  0.386600  1.0
  H  H2534  1  0.386600  0.768800  0.449000  1.0
  H  H2535  1  0.551000  0.231200  0.613400  1.0
  H  H2536  1  0.768800  0.551000  0.613400  1.0
  H  H2537  1  0.613400  0.768800  0.551000  1.0
  H  H2538  1  0.551000  0.613400  0.768800  1.0
  H  H2539  1  0.449000  0.768800  0.613400  1.0
  H  H2540  1  0.449000  0.386600  0.768800  1.0
  H  H2541  1  0.231200  0.449000  0.613400  1.0
  H  H2542  1  0.386600  0.231200  0.551000  1.0
  H  H2543  1  0.386600  0.551000  0.768800  1.0
  H  H2544  1  0.231200  0.613400  0.551000  1.0
  H  H2545  1  0.386600  0.949000  0.731200  1.0
  H  H2546  1  0.449000  0.731200  0.886600  1.0
  H  H2547  1  0.231200  0.886600  0.949000  1.0
  H  H2548  1  0.551000  0.886600  0.731200  1.0
  H  H2549  1  0.768800  0.949000  0.886600  1.0
  H  H2550  1  0.613400  0.731200  0.949000  1.0
  H  H2551  1  0.613400  0.051000  0.731200  1.0
  H  H2552  1  0.768800  0.886600  0.051000  1.0
  H  H2553  1  0.613400  0.949000  0.268800  1.0
  H  H2554  1  0.551000  0.268800  0.886600  1.0
  H  H2555  1  0.768800  0.113400  0.949000  1.0
  H  H2556  1  0.449000  0.113400  0.731200  1.0
  H  H2557  1  0.231200  0.051000  0.886600  1.0
  H  H2558  1  0.386600  0.268800  0.949000  1.0
  H  H2559  1  0.551000  0.731200  0.113400  1.0
  H  H2560  1  0.768800  0.051000  0.113400  1.0
  H  H2561  1  0.613400  0.268800  0.051000  1.0
  H  H2562  1  0.551000  0.113400  0.268800  1.0
  H  H2563  1  0.449000  0.268800  0.113400  1.0
  H  H2564  1  0.449000  0.886600  0.268800  1.0
  H  H2565  1  0.231200  0.949000  0.113400  1.0
  H  H2566  1  0.386600  0.731200  0.051000  1.0
  H  H2567  1  0.386600  0.051000  0.268800  1.0
  H  H2568  1  0.231200  0.113400  0.051000  1.0
  H  H2569  1  0.886600  0.449000  0.731200  1.0
  H  H2570  1  0.949000  0.231200  0.886600  1.0
  H  H2571  1  0.731200  0.386600  0.949000  1.0
  H  H2572  1  0.051000  0.386600  0.731200  1.0
  H  H2573  1  0.268800  0.449000  0.886600  1.0
  H  H2574  1  0.113400  0.231200  0.949000  1.0
  H  H2575  1  0.113400  0.551000  0.731200  1.0
  H  H2576  1  0.268800  0.386600  0.051000  1.0
  H  H2577  1  0.113400  0.449000  0.268800  1.0
  H  H2578  1  0.051000  0.768800  0.886600  1.0
  H  H2579  1  0.268800  0.613400  0.949000  1.0
  H  H2580  1  0.949000  0.613400  0.731200  1.0
  H  H2581  1  0.731200  0.551000  0.886600  1.0
  H  H2582  1  0.886600  0.768800  0.949000  1.0
  H  H2583  1  0.051000  0.231200  0.113400  1.0
  H  H2584  1  0.268800  0.551000  0.113400  1.0
  H  H2585  1  0.113400  0.768800  0.051000  1.0
  H  H2586  1  0.051000  0.613400  0.268800  1.0
  H  H2587  1  0.949000  0.768800  0.113400  1.0
  H  H2588  1  0.949000  0.386600  0.268800  1.0
  H  H2589  1  0.731200  0.449000  0.113400  1.0
  H  H2590  1  0.886600  0.231200  0.051000  1.0
  H  H2591  1  0.886600  0.551000  0.268800  1.0
  H  H2592  1  0.731200  0.613400  0.051000  1.0
  H  H2593  1  0.886600  0.949000  0.231200  1.0
  H  H2594  1  0.949000  0.731200  0.386600  1.0
  H  H2595  1  0.731200  0.886600  0.449000  1.0
  H  H2596  1  0.051000  0.886600  0.231200  1.0
  H  H2597  1  0.268800  0.949000  0.386600  1.0
  H  H2598  1  0.113400  0.731200  0.449000  1.0
  H  H2599  1  0.113400  0.051000  0.231200  1.0
  H  H2600  1  0.268800  0.886600  0.551000  1.0
  H  H2601  1  0.113400  0.949000  0.768800  1.0
  H  H2602  1  0.051000  0.268800  0.386600  1.0
  H  H2603  1  0.268800  0.113400  0.449000  1.0
  H  H2604  1  0.949000  0.113400  0.231200  1.0
  H  H2605  1  0.731200  0.051000  0.386600  1.0
  H  H2606  1  0.886600  0.268800  0.449000  1.0
  H  H2607  1  0.051000  0.731200  0.613400  1.0
  H  H2608  1  0.268800  0.051000  0.613400  1.0
  H  H2609  1  0.113400  0.268800  0.551000  1.0
  H  H2610  1  0.051000  0.113400  0.768800  1.0
  H  H2611  1  0.949000  0.268800  0.613400  1.0
  H  H2612  1  0.949000  0.886600  0.768800  1.0
  H  H2613  1  0.731200  0.949000  0.613400  1.0
  H  H2614  1  0.886600  0.731200  0.551000  1.0
  H  H2615  1  0.886600  0.051000  0.768800  1.0
  H  H2616  1  0.731200  0.113400  0.551000  1.0
  H  H2617  1  0.416400  0.452200  0.243300  1.0
  H  H2618  1  0.452200  0.243300  0.416400  1.0
  H  H2619  1  0.243300  0.416400  0.452200  1.0
  H  H2620  1  0.547800  0.416400  0.243300  1.0
  H  H2621  1  0.756700  0.452200  0.416400  1.0
  H  H2622  1  0.583600  0.243300  0.452200  1.0
  H  H2623  1  0.583600  0.547800  0.243300  1.0
  H  H2624  1  0.756700  0.416400  0.547800  1.0
  H  H2625  1  0.583600  0.452200  0.756700  1.0
  H  H2626  1  0.547800  0.756700  0.416400  1.0
  H  H2627  1  0.756700  0.583600  0.452200  1.0
  H  H2628  1  0.452200  0.583600  0.243300  1.0
  H  H2629  1  0.243300  0.547800  0.416400  1.0
  H  H2630  1  0.416400  0.756700  0.452200  1.0
  H  H2631  1  0.547800  0.243300  0.583600  1.0
  H  H2632  1  0.756700  0.547800  0.583600  1.0
  H  H2633  1  0.583600  0.756700  0.547800  1.0
  H  H2634  1  0.547800  0.583600  0.756700  1.0
  H  H2635  1  0.452200  0.756700  0.583600  1.0
  H  H2636  1  0.452200  0.416400  0.756700  1.0
  H  H2637  1  0.243300  0.452200  0.583600  1.0
  H  H2638  1  0.416400  0.243300  0.547800  1.0
  H  H2639  1  0.416400  0.547800  0.756700  1.0
  H  H2640  1  0.243300  0.583600  0.547800  1.0
  H  H2641  1  0.416400  0.952200  0.743300  1.0
  H  H2642  1  0.452200  0.743300  0.916400  1.0
  H  H2643  1  0.243300  0.916400  0.952200  1.0
  H  H2644  1  0.547800  0.916400  0.743300  1.0
  H  H2645  1  0.756700  0.952200  0.916400  1.0
  H  H2646  1  0.583600  0.743300  0.952200  1.0
  H  H2647  1  0.583600  0.047800  0.743300  1.0
  H  H2648  1  0.756700  0.916400  0.047800  1.0
  H  H2649  1  0.583600  0.952200  0.256700  1.0
  H  H2650  1  0.547800  0.256700  0.916400  1.0
  H  H2651  1  0.756700  0.083600  0.952200  1.0
  H  H2652  1  0.452200  0.083600  0.743300  1.0
  H  H2653  1  0.243300  0.047800  0.916400  1.0
  H  H2654  1  0.416400  0.256700  0.952200  1.0
  H  H2655  1  0.547800  0.743300  0.083600  1.0
  H  H2656  1  0.756700  0.047800  0.083600  1.0
  H  H2657  1  0.583600  0.256700  0.047800  1.0
  H  H2658  1  0.547800  0.083600  0.256700  1.0
  H  H2659  1  0.452200  0.256700  0.083600  1.0
  H  H2660  1  0.452200  0.916400  0.256700  1.0
  H  H2661  1  0.243300  0.952200  0.083600  1.0
  H  H2662  1  0.416400  0.743300  0.047800  1.0
  H  H2663  1  0.416400  0.047800  0.256700  1.0
  H  H2664  1  0.243300  0.083600  0.047800  1.0
  H  H2665  1  0.916400  0.452200  0.743300  1.0
  H  H2666  1  0.952200  0.243300  0.916400  1.0
  H  H2667  1  0.743300  0.416400  0.952200  1.0
  H  H2668  1  0.047800  0.416400  0.743300  1.0
  H  H2669  1  0.256700  0.452200  0.916400  1.0
  H  H2670  1  0.083600  0.243300  0.952200  1.0
  H  H2671  1  0.083600  0.547800  0.743300  1.0
  H  H2672  1  0.256700  0.416400  0.047800  1.0
  H  H2673  1  0.083600  0.452200  0.256700  1.0
  H  H2674  1  0.047800  0.756700  0.916400  1.0
  H  H2675  1  0.256700  0.583600  0.952200  1.0
  H  H2676  1  0.952200  0.583600  0.743300  1.0
  H  H2677  1  0.743300  0.547800  0.916400  1.0
  H  H2678  1  0.916400  0.756700  0.952200  1.0
  H  H2679  1  0.047800  0.243300  0.083600  1.0
  H  H2680  1  0.256700  0.547800  0.083600  1.0
  H  H2681  1  0.083600  0.756700  0.047800  1.0
  H  H2682  1  0.047800  0.583600  0.256700  1.0
  H  H2683  1  0.952200  0.756700  0.083600  1.0
  H  H2684  1  0.952200  0.416400  0.256700  1.0
  H  H2685  1  0.743300  0.452200  0.083600  1.0
  H  H2686  1  0.916400  0.243300  0.047800  1.0
  H  H2687  1  0.916400  0.547800  0.256700  1.0
  H  H2688  1  0.743300  0.583600  0.047800  1.0
  H  H2689  1  0.916400  0.952200  0.243300  1.0
  H  H2690  1  0.952200  0.743300  0.416400  1.0
  H  H2691  1  0.743300  0.916400  0.452200  1.0
  H  H2692  1  0.047800  0.916400  0.243300  1.0
  H  H2693  1  0.256700  0.952200  0.416400  1.0
  H  H2694  1  0.083600  0.743300  0.452200  1.0
  H  H2695  1  0.083600  0.047800  0.243300  1.0
  H  H2696  1  0.256700  0.916400  0.547800  1.0
  H  H2697  1  0.083600  0.952200  0.756700  1.0
  H  H2698  1  0.047800  0.256700  0.416400  1.0
  H  H2699  1  0.256700  0.083600  0.452200  1.0
  H  H2700  1  0.952200  0.083600  0.243300  1.0
  H  H2701  1  0.743300  0.047800  0.416400  1.0
  H  H2702  1  0.916400  0.256700  0.452200  1.0
  H  H2703  1  0.047800  0.743300  0.583600  1.0
  H  H2704  1  0.256700  0.047800  0.583600  1.0
  H  H2705  1  0.083600  0.256700  0.547800  1.0
  H  H2706  1  0.047800  0.083600  0.756700  1.0
  H  H2707  1  0.952200  0.256700  0.583600  1.0
  H  H2708  1  0.952200  0.916400  0.756700  1.0
  H  H2709  1  0.743300  0.952200  0.583600  1.0
  H  H2710  1  0.916400  0.743300  0.547800  1.0
  H  H2711  1  0.916400  0.047800  0.756700  1.0
  H  H2712  1  0.743300  0.083600  0.547800  1.0
  H  H2713  1  0.392600  0.471500  0.253600  1.0
  H  H2714  1  0.471500  0.253600  0.392600  1.0
  H  H2715  1  0.253600  0.392600  0.471500  1.0
  H  H2716  1  0.528500  0.392600  0.253600  1.0
  H  H2717  1  0.746400  0.471500  0.392600  1.0
  H  H2718  1  0.607400  0.253600  0.471500  1.0
  H  H2719  1  0.607400  0.528500  0.253600  1.0
  H  H2720  1  0.746400  0.392600  0.528500  1.0
  H  H2721  1  0.607400  0.471500  0.746400  1.0
  H  H2722  1  0.528500  0.746400  0.392600  1.0
  H  H2723  1  0.746400  0.607400  0.471500  1.0
  H  H2724  1  0.471500  0.607400  0.253600  1.0
  H  H2725  1  0.253600  0.528500  0.392600  1.0
  H  H2726  1  0.392600  0.746400  0.471500  1.0
  H  H2727  1  0.528500  0.253600  0.607400  1.0
  H  H2728  1  0.746400  0.528500  0.607400  1.0
  H  H2729  1  0.607400  0.746400  0.528500  1.0
  H  H2730  1  0.528500  0.607400  0.746400  1.0
  H  H2731  1  0.471500  0.746400  0.607400  1.0
  H  H2732  1  0.471500  0.392600  0.746400  1.0
  H  H2733  1  0.253600  0.471500  0.607400  1.0
  H  H2734  1  0.392600  0.253600  0.528500  1.0
  H  H2735  1  0.392600  0.528500  0.746400  1.0
  H  H2736  1  0.253600  0.607400  0.528500  1.0
  H  H2737  1  0.392600  0.971500  0.753600  1.0
  H  H2738  1  0.471500  0.753600  0.892600  1.0
  H  H2739  1  0.253600  0.892600  0.971500  1.0
  H  H2740  1  0.528500  0.892600  0.753600  1.0
  H  H2741  1  0.746400  0.971500  0.892600  1.0
  H  H2742  1  0.607400  0.753600  0.971500  1.0
  H  H2743  1  0.607400  0.028500  0.753600  1.0
  H  H2744  1  0.746400  0.892600  0.028500  1.0
  H  H2745  1  0.607400  0.971500  0.246400  1.0
  H  H2746  1  0.528500  0.246400  0.892600  1.0
  H  H2747  1  0.746400  0.107400  0.971500  1.0
  H  H2748  1  0.471500  0.107400  0.753600  1.0
  H  H2749  1  0.253600  0.028500  0.892600  1.0
  H  H2750  1  0.392600  0.246400  0.971500  1.0
  H  H2751  1  0.528500  0.753600  0.107400  1.0
  H  H2752  1  0.746400  0.028500  0.107400  1.0
  H  H2753  1  0.607400  0.246400  0.028500  1.0
  H  H2754  1  0.528500  0.107400  0.246400  1.0
  H  H2755  1  0.471500  0.246400  0.107400  1.0
  H  H2756  1  0.471500  0.892600  0.246400  1.0
  H  H2757  1  0.253600  0.971500  0.107400  1.0
  H  H2758  1  0.392600  0.753600  0.028500  1.0
  H  H2759  1  0.392600  0.028500  0.246400  1.0
  H  H2760  1  0.253600  0.107400  0.028500  1.0
  H  H2761  1  0.892600  0.471500  0.753600  1.0
  H  H2762  1  0.971500  0.253600  0.892600  1.0
  H  H2763  1  0.753600  0.392600  0.971500  1.0
  H  H2764  1  0.028500  0.392600  0.753600  1.0
  H  H2765  1  0.246400  0.471500  0.892600  1.0
  H  H2766  1  0.107400  0.253600  0.971500  1.0
  H  H2767  1  0.107400  0.528500  0.753600  1.0
  H  H2768  1  0.246400  0.392600  0.028500  1.0
  H  H2769  1  0.107400  0.471500  0.246400  1.0
  H  H2770  1  0.028500  0.746400  0.892600  1.0
  H  H2771  1  0.246400  0.607400  0.971500  1.0
  H  H2772  1  0.971500  0.607400  0.753600  1.0
  H  H2773  1  0.753600  0.528500  0.892600  1.0
  H  H2774  1  0.892600  0.746400  0.971500  1.0
  H  H2775  1  0.028500  0.253600  0.107400  1.0
  H  H2776  1  0.246400  0.528500  0.107400  1.0
  H  H2777  1  0.107400  0.746400  0.028500  1.0
  H  H2778  1  0.028500  0.607400  0.246400  1.0
  H  H2779  1  0.971500  0.746400  0.107400  1.0
  H  H2780  1  0.971500  0.392600  0.246400  1.0
  H  H2781  1  0.753600  0.471500  0.107400  1.0
  H  H2782  1  0.892600  0.253600  0.028500  1.0
  H  H2783  1  0.892600  0.528500  0.246400  1.0
  H  H2784  1  0.753600  0.607400  0.028500  1.0
  H  H2785  1  0.892600  0.971500  0.253600  1.0
  H  H2786  1  0.971500  0.753600  0.392600  1.0
  H  H2787  1  0.753600  0.892600  0.471500  1.0
  H  H2788  1  0.028500  0.892600  0.253600  1.0
  H  H2789  1  0.246400  0.971500  0.392600  1.0
  H  H2790  1  0.107400  0.753600  0.471500  1.0
  H  H2791  1  0.107400  0.028500  0.253600  1.0
  H  H2792  1  0.246400  0.892600  0.528500  1.0
  H  H2793  1  0.107400  0.971500  0.746400  1.0
  H  H2794  1  0.028500  0.246400  0.392600  1.0
  H  H2795  1  0.246400  0.107400  0.471500  1.0
  H  H2796  1  0.971500  0.107400  0.253600  1.0
  H  H2797  1  0.753600  0.028500  0.392600  1.0
  H  H2798  1  0.892600  0.246400  0.471500  1.0
  H  H2799  1  0.028500  0.753600  0.607400  1.0
  H  H2800  1  0.246400  0.028500  0.607400  1.0
  H  H2801  1  0.107400  0.246400  0.528500  1.0
  H  H2802  1  0.028500  0.107400  0.746400  1.0
  H  H2803  1  0.971500  0.246400  0.607400  1.0
  H  H2804  1  0.971500  0.892600  0.746400  1.0
  H  H2805  1  0.753600  0.971500  0.607400  1.0
  H  H2806  1  0.892600  0.753600  0.528500  1.0
  H  H2807  1  0.892600  0.028500  0.746400  1.0
  H  H2808  1  0.753600  0.107400  0.528500  1.0
  C  C2809  1  0.397880  0.387230  0.141500  1.0
  C  C2810  1  0.387230  0.141500  0.397880  1.0
  C  C2811  1  0.141500  0.397880  0.387230  1.0
  C  C2812  1  0.612770  0.397880  0.141500  1.0
  C  C2813  1  0.858500  0.387230  0.397880  1.0
  C  C2814  1  0.602120  0.141500  0.387230  1.0
  C  C2815  1  0.602120  0.612770  0.141500  1.0
  C  C2816  1  0.858500  0.397880  0.612770  1.0
  C  C2817  1  0.602120  0.387230  0.858500  1.0
  C  C2818  1  0.612770  0.858500  0.397880  1.0
  C  C2819  1  0.858500  0.602120  0.387230  1.0
  C  C2820  1  0.387230  0.602120  0.141500  1.0
  C  C2821  1  0.141500  0.612770  0.397880  1.0
  C  C2822  1  0.397880  0.858500  0.387230  1.0
  C  C2823  1  0.612770  0.141500  0.602120  1.0
  C  C2824  1  0.858500  0.612770  0.602120  1.0
  C  C2825  1  0.602120  0.858500  0.612770  1.0
  C  C2826  1  0.612770  0.602120  0.858500  1.0
  C  C2827  1  0.387230  0.858500  0.602120  1.0
  C  C2828  1  0.387230  0.397880  0.858500  1.0
  C  C2829  1  0.141500  0.387230  0.602120  1.0
  C  C2830  1  0.397880  0.141500  0.612770  1.0
  C  C2831  1  0.397880  0.612770  0.858500  1.0
  C  C2832  1  0.141500  0.602120  0.612770  1.0
  C  C2833  1  0.397880  0.887230  0.641500  1.0
  C  C2834  1  0.387230  0.641500  0.897880  1.0
  C  C2835  1  0.141500  0.897880  0.887230  1.0
  C  C2836  1  0.612770  0.897880  0.641500  1.0
  C  C2837  1  0.858500  0.887230  0.897880  1.0
  C  C2838  1  0.602120  0.641500  0.887230  1.0
  C  C2839  1  0.602120  0.112770  0.641500  1.0
  C  C2840  1  0.858500  0.897880  0.112770  1.0
  C  C2841  1  0.602120  0.887230  0.358500  1.0
  C  C2842  1  0.612770  0.358500  0.897880  1.0
  C  C2843  1  0.858500  0.102120  0.887230  1.0
  C  C2844  1  0.387230  0.102120  0.641500  1.0
  C  C2845  1  0.141500  0.112770  0.897880  1.0
  C  C2846  1  0.397880  0.358500  0.887230  1.0
  C  C2847  1  0.612770  0.641500  0.102120  1.0
  C  C2848  1  0.858500  0.112770  0.102120  1.0
  C  C2849  1  0.602120  0.358500  0.112770  1.0
  C  C2850  1  0.612770  0.102120  0.358500  1.0
  C  C2851  1  0.387230  0.358500  0.102120  1.0
  C  C2852  1  0.387230  0.897880  0.358500  1.0
  C  C2853  1  0.141500  0.887230  0.102120  1.0
  C  C2854  1  0.397880  0.641500  0.112770  1.0
  C  C2855  1  0.397880  0.112770  0.358500  1.0
  C  C2856  1  0.141500  0.102120  0.112770  1.0
  C  C2857  1  0.897880  0.387230  0.641500  1.0
  C  C2858  1  0.887230  0.141500  0.897880  1.0
  C  C2859  1  0.641500  0.397880  0.887230  1.0
  C  C2860  1  0.112770  0.397880  0.641500  1.0
  C  C2861  1  0.358500  0.387230  0.897880  1.0
  C  C2862  1  0.102120  0.141500  0.887230  1.0
  C  C2863  1  0.102120  0.612770  0.641500  1.0
  C  C2864  1  0.358500  0.397880  0.112770  1.0
  C  C2865  1  0.102120  0.387230  0.358500  1.0
  C  C2866  1  0.112770  0.858500  0.897880  1.0
  C  C2867  1  0.358500  0.602120  0.887230  1.0
  C  C2868  1  0.887230  0.602120  0.641500  1.0
  C  C2869  1  0.641500  0.612770  0.897880  1.0
  C  C2870  1  0.897880  0.858500  0.887230  1.0
  C  C2871  1  0.112770  0.141500  0.102120  1.0
  C  C2872  1  0.358500  0.612770  0.102120  1.0
  C  C2873  1  0.102120  0.858500  0.112770  1.0
  C  C2874  1  0.112770  0.602120  0.358500  1.0
  C  C2875  1  0.887230  0.858500  0.102120  1.0
  C  C2876  1  0.887230  0.397880  0.358500  1.0
  C  C2877  1  0.641500  0.387230  0.102120  1.0
  C  C2878  1  0.897880  0.141500  0.112770  1.0
  C  C2879  1  0.897880  0.612770  0.358500  1.0
  C  C2880  1  0.641500  0.602120  0.112770  1.0
  C  C2881  1  0.897880  0.887230  0.141500  1.0
  C  C2882  1  0.887230  0.641500  0.397880  1.0
  C  C2883  1  0.641500  0.897880  0.387230  1.0
  C  C2884  1  0.112770  0.897880  0.141500  1.0
  C  C2885  1  0.358500  0.887230  0.397880  1.0
  C  C2886  1  0.102120  0.641500  0.387230  1.0
  C  C2887  1  0.102120  0.112770  0.141500  1.0
  C  C2888  1  0.358500  0.897880  0.612770  1.0
  C  C2889  1  0.102120  0.887230  0.858500  1.0
  C  C2890  1  0.112770  0.358500  0.397880  1.0
  C  C2891  1  0.358500  0.102120  0.387230  1.0
  C  C2892  1  0.887230  0.102120  0.141500  1.0
  C  C2893  1  0.641500  0.112770  0.397880  1.0
  C  C2894  1  0.897880  0.358500  0.387230  1.0
  C  C2895  1  0.112770  0.641500  0.602120  1.0
  C  C2896  1  0.358500  0.112770  0.602120  1.0
  C  C2897  1  0.102120  0.358500  0.612770  1.0
  C  C2898  1  0.112770  0.102120  0.858500  1.0
  C  C2899  1  0.887230  0.358500  0.602120  1.0
  C  C2900  1  0.887230  0.897880  0.858500  1.0
  C  C2901  1  0.641500  0.887230  0.602120  1.0
  C  C2902  1  0.897880  0.641500  0.612770  1.0
  C  C2903  1  0.897880  0.112770  0.858500  1.0
  C  C2904  1  0.641500  0.102120  0.612770  1.0
  C  C2905  1  0.405170  0.364820  0.124410  1.0
  C  C2906  1  0.364820  0.124410  0.405170  1.0
  C  C2907  1  0.124410  0.405170  0.364820  1.0
  C  C2908  1  0.635180  0.405170  0.124410  1.0
  C  C2909  1  0.875590  0.364820  0.405170  1.0
  C  C2910  1  0.594830  0.124410  0.364820  1.0
  C  C2911  1  0.594830  0.635180  0.124410  1.0
  C  C2912  1  0.875590  0.405170  0.635180  1.0
  C  C2913  1  0.594830  0.364820  0.875590  1.0
  C  C2914  1  0.635180  0.875590  0.405170  1.0
  C  C2915  1  0.875590  0.594830  0.364820  1.0
  C  C2916  1  0.364820  0.594830  0.124410  1.0
  C  C2917  1  0.124410  0.635180  0.405170  1.0
  C  C2918  1  0.405170  0.875590  0.364820  1.0
  C  C2919  1  0.635180  0.124410  0.594830  1.0
  C  C2920  1  0.875590  0.635180  0.594830  1.0
  C  C2921  1  0.594830  0.875590  0.635180  1.0
  C  C2922  1  0.635180  0.594830  0.875590  1.0
  C  C2923  1  0.364820  0.875590  0.594830  1.0
  C  C2924  1  0.364820  0.405170  0.875590  1.0
  C  C2925  1  0.124410  0.364820  0.594830  1.0
  C  C2926  1  0.405170  0.124410  0.635180  1.0
  C  C2927  1  0.405170  0.635180  0.875590  1.0
  C  C2928  1  0.124410  0.594830  0.635180  1.0
  C  C2929  1  0.405170  0.864820  0.624410  1.0
  C  C2930  1  0.364820  0.624410  0.905170  1.0
  C  C2931  1  0.124410  0.905170  0.864820  1.0
  C  C2932  1  0.635180  0.905170  0.624410  1.0
  C  C2933  1  0.875590  0.864820  0.905170  1.0
  C  C2934  1  0.594830  0.624410  0.864820  1.0
  C  C2935  1  0.594830  0.135180  0.624410  1.0
  C  C2936  1  0.875590  0.905170  0.135180  1.0
  C  C2937  1  0.594830  0.864820  0.375590  1.0
  C  C2938  1  0.635180  0.375590  0.905170  1.0
  C  C2939  1  0.875590  0.094830  0.864820  1.0
  C  C2940  1  0.364820  0.094830  0.624410  1.0
  C  C2941  1  0.124410  0.135180  0.905170  1.0
  C  C2942  1  0.405170  0.375590  0.864820  1.0
  C  C2943  1  0.635180  0.624410  0.094830  1.0
  C  C2944  1  0.875590  0.135180  0.094830  1.0
  C  C2945  1  0.594830  0.375590  0.135180  1.0
  C  C2946  1  0.635180  0.094830  0.375590  1.0
  C  C2947  1  0.364820  0.375590  0.094830  1.0
  C  C2948  1  0.364820  0.905170  0.375590  1.0
  C  C2949  1  0.124410  0.864820  0.094830  1.0
  C  C2950  1  0.405170  0.624410  0.135180  1.0
  C  C2951  1  0.405170  0.135180  0.375590  1.0
  C  C2952  1  0.124410  0.094830  0.135180  1.0
  C  C2953  1  0.905170  0.364820  0.624410  1.0
  C  C2954  1  0.864820  0.124410  0.905170  1.0
  C  C2955  1  0.624410  0.405170  0.864820  1.0
  C  C2956  1  0.135180  0.405170  0.624410  1.0
  C  C2957  1  0.375590  0.364820  0.905170  1.0
  C  C2958  1  0.094830  0.124410  0.864820  1.0
  C  C2959  1  0.094830  0.635180  0.624410  1.0
  C  C2960  1  0.375590  0.405170  0.135180  1.0
  C  C2961  1  0.094830  0.364820  0.375590  1.0
  C  C2962  1  0.135180  0.875590  0.905170  1.0
  C  C2963  1  0.375590  0.594830  0.864820  1.0
  C  C2964  1  0.864820  0.594830  0.624410  1.0
  C  C2965  1  0.624410  0.635180  0.905170  1.0
  C  C2966  1  0.905170  0.875590  0.864820  1.0
  C  C2967  1  0.135180  0.124410  0.094830  1.0
  C  C2968  1  0.375590  0.635180  0.094830  1.0
  C  C2969  1  0.094830  0.875590  0.135180  1.0
  C  C2970  1  0.135180  0.594830  0.375590  1.0
  C  C2971  1  0.864820  0.875590  0.094830  1.0
  C  C2972  1  0.864820  0.405170  0.375590  1.0
  C  C2973  1  0.624410  0.364820  0.094830  1.0
  C  C2974  1  0.905170  0.124410  0.135180  1.0
  C  C2975  1  0.905170  0.635180  0.375590  1.0
  C  C2976  1  0.624410  0.594830  0.135180  1.0
  C  C2977  1  0.905170  0.864820  0.124410  1.0
  C  C2978  1  0.864820  0.624410  0.405170  1.0
  C  C2979  1  0.624410  0.905170  0.364820  1.0
  C  C2980  1  0.135180  0.905170  0.124410  1.0
  C  C2981  1  0.375590  0.864820  0.405170  1.0
  C  C2982  1  0.094830  0.624410  0.364820  1.0
  C  C2983  1  0.094830  0.135180  0.124410  1.0
  C  C2984  1  0.375590  0.905170  0.635180  1.0
  C  C2985  1  0.094830  0.864820  0.875590  1.0
  C  C2986  1  0.135180  0.375590  0.405170  1.0
  C  C2987  1  0.375590  0.094830  0.364820  1.0
  C  C2988  1  0.864820  0.094830  0.124410  1.0
  C  C2989  1  0.624410  0.135180  0.405170  1.0
  C  C2990  1  0.905170  0.375590  0.364820  1.0
  C  C2991  1  0.135180  0.624410  0.594830  1.0
  C  C2992  1  0.375590  0.135180  0.594830  1.0
  C  C2993  1  0.094830  0.375590  0.635180  1.0
  C  C2994  1  0.135180  0.094830  0.875590  1.0
  C  C2995  1  0.864820  0.375590  0.594830  1.0
  C  C2996  1  0.864820  0.905170  0.875590  1.0
  C  C2997  1  0.624410  0.864820  0.594830  1.0
  C  C2998  1  0.905170  0.624410  0.635180  1.0
  C  C2999  1  0.905170  0.135180  0.875590  1.0
  C  C3000  1  0.624410  0.094830  0.635180  1.0
  C  C3001  1  0.415700  0.394000  0.166400  1.0
  C  C3002  1  0.394000  0.166400  0.415700  1.0
  C  C3003  1  0.166400  0.415700  0.394000  1.0
  C  C3004  1  0.606000  0.415700  0.166400  1.0
  C  C3005  1  0.833600  0.394000  0.415700  1.0
  C  C3006  1  0.584300  0.166400  0.394000  1.0
  C  C3007  1  0.584300  0.606000  0.166400  1.0
  C  C3008  1  0.833600  0.415700  0.606000  1.0
  C  C3009  1  0.584300  0.394000  0.833600  1.0
  C  C3010  1  0.606000  0.833600  0.415700  1.0
  C  C3011  1  0.833600  0.584300  0.394000  1.0
  C  C3012  1  0.394000  0.584300  0.166400  1.0
  C  C3013  1  0.166400  0.606000  0.415700  1.0
  C  C3014  1  0.415700  0.833600  0.394000  1.0
  C  C3015  1  0.606000  0.166400  0.584300  1.0
  C  C3016  1  0.833600  0.606000  0.584300  1.0
  C  C3017  1  0.584300  0.833600  0.606000  1.0
  C  C3018  1  0.606000  0.584300  0.833600  1.0
  C  C3019  1  0.394000  0.833600  0.584300  1.0
  C  C3020  1  0.394000  0.415700  0.833600  1.0
  C  C3021  1  0.166400  0.394000  0.584300  1.0
  C  C3022  1  0.415700  0.166400  0.606000  1.0
  C  C3023  1  0.415700  0.606000  0.833600  1.0
  C  C3024  1  0.166400  0.584300  0.606000  1.0
  C  C3025  1  0.415700  0.894000  0.666400  1.0
  C  C3026  1  0.394000  0.666400  0.915700  1.0
  C  C3027  1  0.166400  0.915700  0.894000  1.0
  C  C3028  1  0.606000  0.915700  0.666400  1.0
  C  C3029  1  0.833600  0.894000  0.915700  1.0
  C  C3030  1  0.584300  0.666400  0.894000  1.0
  C  C3031  1  0.584300  0.106000  0.666400  1.0
  C  C3032  1  0.833600  0.915700  0.106000  1.0
  C  C3033  1  0.584300  0.894000  0.333600  1.0
  C  C3034  1  0.606000  0.333600  0.915700  1.0
  C  C3035  1  0.833600  0.084300  0.894000  1.0
  C  C3036  1  0.394000  0.084300  0.666400  1.0
  C  C3037  1  0.166400  0.106000  0.915700  1.0
  C  C3038  1  0.415700  0.333600  0.894000  1.0
  C  C3039  1  0.606000  0.666400  0.084300  1.0
  C  C3040  1  0.833600  0.106000  0.084300  1.0
  C  C3041  1  0.584300  0.333600  0.106000  1.0
  C  C3042  1  0.606000  0.084300  0.333600  1.0
  C  C3043  1  0.394000  0.333600  0.084300  1.0
  C  C3044  1  0.394000  0.915700  0.333600  1.0
  C  C3045  1  0.166400  0.894000  0.084300  1.0
  C  C3046  1  0.415700  0.666400  0.106000  1.0
  C  C3047  1  0.415700  0.106000  0.333600  1.0
  C  C3048  1  0.166400  0.084300  0.106000  1.0
  C  C3049  1  0.915700  0.394000  0.666400  1.0
  C  C3050  1  0.894000  0.166400  0.915700  1.0
  C  C3051  1  0.666400  0.415700  0.894000  1.0
  C  C3052  1  0.106000  0.415700  0.666400  1.0
  C  C3053  1  0.333600  0.394000  0.915700  1.0
  C  C3054  1  0.084300  0.166400  0.894000  1.0
  C  C3055  1  0.084300  0.606000  0.666400  1.0
  C  C3056  1  0.333600  0.415700  0.106000  1.0
  C  C3057  1  0.084300  0.394000  0.333600  1.0
  C  C3058  1  0.106000  0.833600  0.915700  1.0
  C  C3059  1  0.333600  0.584300  0.894000  1.0
  C  C3060  1  0.894000  0.584300  0.666400  1.0
  C  C3061  1  0.666400  0.606000  0.915700  1.0
  C  C3062  1  0.915700  0.833600  0.894000  1.0
  C  C3063  1  0.106000  0.166400  0.084300  1.0
  C  C3064  1  0.333600  0.606000  0.084300  1.0
  C  C3065  1  0.084300  0.833600  0.106000  1.0
  C  C3066  1  0.106000  0.584300  0.333600  1.0
  C  C3067  1  0.894000  0.833600  0.084300  1.0
  C  C3068  1  0.894000  0.415700  0.333600  1.0
  C  C3069  1  0.666400  0.394000  0.084300  1.0
  C  C3070  1  0.915700  0.166400  0.106000  1.0
  C  C3071  1  0.915700  0.606000  0.333600  1.0
  C  C3072  1  0.666400  0.584300  0.106000  1.0
  C  C3073  1  0.915700  0.894000  0.166400  1.0
  C  C3074  1  0.894000  0.666400  0.415700  1.0
  C  C3075  1  0.666400  0.915700  0.394000  1.0
  C  C3076  1  0.106000  0.915700  0.166400  1.0
  C  C3077  1  0.333600  0.894000  0.415700  1.0
  C  C3078  1  0.084300  0.666400  0.394000  1.0
  C  C3079  1  0.084300  0.106000  0.166400  1.0
  C  C3080  1  0.333600  0.915700  0.606000  1.0
  C  C3081  1  0.084300  0.894000  0.833600  1.0
  C  C3082  1  0.106000  0.333600  0.415700  1.0
  C  C3083  1  0.333600  0.084300  0.394000  1.0
  C  C3084  1  0.894000  0.084300  0.166400  1.0
  C  C3085  1  0.666400  0.106000  0.415700  1.0
  C  C3086  1  0.915700  0.333600  0.394000  1.0
  C  C3087  1  0.106000  0.666400  0.584300  1.0
  C  C3088  1  0.333600  0.106000  0.584300  1.0
  C  C3089  1  0.084300  0.333600  0.606000  1.0
  C  C3090  1  0.106000  0.084300  0.833600  1.0
  C  C3091  1  0.894000  0.333600  0.584300  1.0
  C  C3092  1  0.894000  0.915700  0.833600  1.0
  C  C3093  1  0.666400  0.894000  0.584300  1.0
  C  C3094  1  0.915700  0.666400  0.606000  1.0
  C  C3095  1  0.915700  0.106000  0.833600  1.0
  C  C3096  1  0.666400  0.084300  0.606000  1.0
  C  C3097  1  0.438800  0.411100  0.165200  1.0
  C  C3098  1  0.411100  0.165200  0.438800  1.0
  C  C3099  1  0.165200  0.438800  0.411100  1.0
  C  C3100  1  0.588900  0.438800  0.165200  1.0
  C  C3101  1  0.834800  0.411100  0.438800  1.0
  C  C3102  1  0.561200  0.165200  0.411100  1.0
  C  C3103  1  0.561200  0.588900  0.165200  1.0
  C  C3104  1  0.834800  0.438800  0.588900  1.0
  C  C3105  1  0.561200  0.411100  0.834800  1.0
  C  C3106  1  0.588900  0.834800  0.438800  1.0
  C  C3107  1  0.834800  0.561200  0.411100  1.0
  C  C3108  1  0.411100  0.561200  0.165200  1.0
  C  C3109  1  0.165200  0.588900  0.438800  1.0
  C  C3110  1  0.438800  0.834800  0.411100  1.0
  C  C3111  1  0.588900  0.165200  0.561200  1.0
  C  C3112  1  0.834800  0.588900  0.561200  1.0
  C  C3113  1  0.561200  0.834800  0.588900  1.0
  C  C3114  1  0.588900  0.561200  0.834800  1.0
  C  C3115  1  0.411100  0.834800  0.561200  1.0
  C  C3116  1  0.411100  0.438800  0.834800  1.0
  C  C3117  1  0.165200  0.411100  0.561200  1.0
  C  C3118  1  0.438800  0.165200  0.588900  1.0
  C  C3119  1  0.438800  0.588900  0.834800  1.0
  C  C3120  1  0.165200  0.561200  0.588900  1.0
  C  C3121  1  0.438800  0.911100  0.665200  1.0
  C  C3122  1  0.411100  0.665200  0.938800  1.0
  C  C3123  1  0.165200  0.938800  0.911100  1.0
  C  C3124  1  0.588900  0.938800  0.665200  1.0
  C  C3125  1  0.834800  0.911100  0.938800  1.0
  C  C3126  1  0.561200  0.665200  0.911100  1.0
  C  C3127  1  0.561200  0.088900  0.665200  1.0
  C  C3128  1  0.834800  0.938800  0.088900  1.0
  C  C3129  1  0.561200  0.911100  0.334800  1.0
  C  C3130  1  0.588900  0.334800  0.938800  1.0
  C  C3131  1  0.834800  0.061200  0.911100  1.0
  C  C3132  1  0.411100  0.061200  0.665200  1.0
  C  C3133  1  0.165200  0.088900  0.938800  1.0
  C  C3134  1  0.438800  0.334800  0.911100  1.0
  C  C3135  1  0.588900  0.665200  0.061200  1.0
  C  C3136  1  0.834800  0.088900  0.061200  1.0
  C  C3137  1  0.561200  0.334800  0.088900  1.0
  C  C3138  1  0.588900  0.061200  0.334800  1.0
  C  C3139  1  0.411100  0.334800  0.061200  1.0
  C  C3140  1  0.411100  0.938800  0.334800  1.0
  C  C3141  1  0.165200  0.911100  0.061200  1.0
  C  C3142  1  0.438800  0.665200  0.088900  1.0
  C  C3143  1  0.438800  0.088900  0.334800  1.0
  C  C3144  1  0.165200  0.061200  0.088900  1.0
  C  C3145  1  0.938800  0.411100  0.665200  1.0
  C  C3146  1  0.911100  0.165200  0.938800  1.0
  C  C3147  1  0.665200  0.438800  0.911100  1.0
  C  C3148  1  0.088900  0.438800  0.665200  1.0
  C  C3149  1  0.334800  0.411100  0.938800  1.0
  C  C3150  1  0.061200  0.165200  0.911100  1.0
  C  C3151  1  0.061200  0.588900  0.665200  1.0
  C  C3152  1  0.334800  0.438800  0.088900  1.0
  C  C3153  1  0.061200  0.411100  0.334800  1.0
  C  C3154  1  0.088900  0.834800  0.938800  1.0
  C  C3155  1  0.334800  0.561200  0.911100  1.0
  C  C3156  1  0.911100  0.561200  0.665200  1.0
  C  C3157  1  0.665200  0.588900  0.938800  1.0
  C  C3158  1  0.938800  0.834800  0.911100  1.0
  C  C3159  1  0.088900  0.165200  0.061200  1.0
  C  C3160  1  0.334800  0.588900  0.061200  1.0
  C  C3161  1  0.061200  0.834800  0.088900  1.0
  C  C3162  1  0.088900  0.561200  0.334800  1.0
  C  C3163  1  0.911100  0.834800  0.061200  1.0
  C  C3164  1  0.911100  0.438800  0.334800  1.0
  C  C3165  1  0.665200  0.411100  0.061200  1.0
  C  C3166  1  0.938800  0.165200  0.088900  1.0
  C  C3167  1  0.938800  0.588900  0.334800  1.0
  C  C3168  1  0.665200  0.561200  0.088900  1.0
  C  C3169  1  0.938800  0.911100  0.165200  1.0
  C  C3170  1  0.911100  0.665200  0.438800  1.0
  C  C3171  1  0.665200  0.938800  0.411100  1.0
  C  C3172  1  0.088900  0.938800  0.165200  1.0
  C  C3173  1  0.334800  0.911100  0.438800  1.0
  C  C3174  1  0.061200  0.665200  0.411100  1.0
  C  C3175  1  0.061200  0.088900  0.165200  1.0
  C  C3176  1  0.334800  0.938800  0.588900  1.0
  C  C3177  1  0.061200  0.911100  0.834800  1.0
  C  C3178  1  0.088900  0.334800  0.438800  1.0
  C  C3179  1  0.334800  0.061200  0.411100  1.0
  C  C3180  1  0.911100  0.061200  0.165200  1.0
  C  C3181  1  0.665200  0.088900  0.438800  1.0
  C  C3182  1  0.938800  0.334800  0.411100  1.0
  C  C3183  1  0.088900  0.665200  0.561200  1.0
  C  C3184  1  0.334800  0.088900  0.561200  1.0
  C  C3185  1  0.061200  0.334800  0.588900  1.0
  C  C3186  1  0.088900  0.061200  0.834800  1.0
  C  C3187  1  0.911100  0.334800  0.561200  1.0
  C  C3188  1  0.911100  0.938800  0.834800  1.0
  C  C3189  1  0.665200  0.911100  0.561200  1.0
  C  C3190  1  0.938800  0.665200  0.588900  1.0
  C  C3191  1  0.938800  0.088900  0.834800  1.0
  C  C3192  1  0.665200  0.061200  0.588900  1.0
  C  C3193  1  0.454200  0.417900  0.188500  1.0
  C  C3194  1  0.417900  0.188500  0.454200  1.0
  C  C3195  1  0.188500  0.454200  0.417900  1.0
  C  C3196  1  0.582100  0.454200  0.188500  1.0
  C  C3197  1  0.811500  0.417900  0.454200  1.0
  C  C3198  1  0.545800  0.188500  0.417900  1.0
  C  C3199  1  0.545800  0.582100  0.188500  1.0
  C  C3200  1  0.811500  0.454200  0.582100  1.0
  C  C3201  1  0.545800  0.417900  0.811500  1.0
  C  C3202  1  0.582100  0.811500  0.454200  1.0
  C  C3203  1  0.811500  0.545800  0.417900  1.0
  C  C3204  1  0.417900  0.545800  0.188500  1.0
  C  C3205  1  0.188500  0.582100  0.454200  1.0
  C  C3206  1  0.454200  0.811500  0.417900  1.0
  C  C3207  1  0.582100  0.188500  0.545800  1.0
  C  C3208  1  0.811500  0.582100  0.545800  1.0
  C  C3209  1  0.545800  0.811500  0.582100  1.0
  C  C3210  1  0.582100  0.545800  0.811500  1.0
  C  C3211  1  0.417900  0.811500  0.545800  1.0
  C  C3212  1  0.417900  0.454200  0.811500  1.0
  C  C3213  1  0.188500  0.417900  0.545800  1.0
  C  C3214  1  0.454200  0.188500  0.582100  1.0
  C  C3215  1  0.454200  0.582100  0.811500  1.0
  C  C3216  1  0.188500  0.545800  0.582100  1.0
  C  C3217  1  0.454200  0.917900  0.688500  1.0
  C  C3218  1  0.417900  0.688500  0.954200  1.0
  C  C3219  1  0.188500  0.954200  0.917900  1.0
  C  C3220  1  0.582100  0.954200  0.688500  1.0
  C  C3221  1  0.811500  0.917900  0.954200  1.0
  C  C3222  1  0.545800  0.688500  0.917900  1.0
  C  C3223  1  0.545800  0.082100  0.688500  1.0
  C  C3224  1  0.811500  0.954200  0.082100  1.0
  C  C3225  1  0.545800  0.917900  0.311500  1.0
  C  C3226  1  0.582100  0.311500  0.954200  1.0
  C  C3227  1  0.811500  0.045800  0.917900  1.0
  C  C3228  1  0.417900  0.045800  0.688500  1.0
  C  C3229  1  0.188500  0.082100  0.954200  1.0
  C  C3230  1  0.454200  0.311500  0.917900  1.0
  C  C3231  1  0.582100  0.688500  0.045800  1.0
  C  C3232  1  0.811500  0.082100  0.045800  1.0
  C  C3233  1  0.545800  0.311500  0.082100  1.0
  C  C3234  1  0.582100  0.045800  0.311500  1.0
  C  C3235  1  0.417900  0.311500  0.045800  1.0
  C  C3236  1  0.417900  0.954200  0.311500  1.0
  C  C3237  1  0.188500  0.917900  0.045800  1.0
  C  C3238  1  0.454200  0.688500  0.082100  1.0
  C  C3239  1  0.454200  0.082100  0.311500  1.0
  C  C3240  1  0.188500  0.045800  0.082100  1.0
  C  C3241  1  0.954200  0.417900  0.688500  1.0
  C  C3242  1  0.917900  0.188500  0.954200  1.0
  C  C3243  1  0.688500  0.454200  0.917900  1.0
  C  C3244  1  0.082100  0.454200  0.688500  1.0
  C  C3245  1  0.311500  0.417900  0.954200  1.0
  C  C3246  1  0.045800  0.188500  0.917900  1.0
  C  C3247  1  0.045800  0.582100  0.688500  1.0
  C  C3248  1  0.311500  0.454200  0.082100  1.0
  C  C3249  1  0.045800  0.417900  0.311500  1.0
  C  C3250  1  0.082100  0.811500  0.954200  1.0
  C  C3251  1  0.311500  0.545800  0.917900  1.0
  C  C3252  1  0.917900  0.545800  0.688500  1.0
  C  C3253  1  0.688500  0.582100  0.954200  1.0
  C  C3254  1  0.954200  0.811500  0.917900  1.0
  C  C3255  1  0.082100  0.188500  0.045800  1.0
  C  C3256  1  0.311500  0.582100  0.045800  1.0
  C  C3257  1  0.045800  0.811500  0.082100  1.0
  C  C3258  1  0.082100  0.545800  0.311500  1.0
  C  C3259  1  0.917900  0.811500  0.045800  1.0
  C  C3260  1  0.917900  0.454200  0.311500  1.0
  C  C3261  1  0.688500  0.417900  0.045800  1.0
  C  C3262  1  0.954200  0.188500  0.082100  1.0
  C  C3263  1  0.954200  0.582100  0.311500  1.0
  C  C3264  1  0.688500  0.545800  0.082100  1.0
  C  C3265  1  0.954200  0.917900  0.188500  1.0
  C  C3266  1  0.917900  0.688500  0.454200  1.0
  C  C3267  1  0.688500  0.954200  0.417900  1.0
  C  C3268  1  0.082100  0.954200  0.188500  1.0
  C  C3269  1  0.311500  0.917900  0.454200  1.0
  C  C3270  1  0.045800  0.688500  0.417900  1.0
  C  C3271  1  0.045800  0.082100  0.188500  1.0
  C  C3272  1  0.311500  0.954200  0.582100  1.0
  C  C3273  1  0.045800  0.917900  0.811500  1.0
  C  C3274  1  0.082100  0.311500  0.454200  1.0
  C  C3275  1  0.311500  0.045800  0.417900  1.0
  C  C3276  1  0.917900  0.045800  0.188500  1.0
  C  C3277  1  0.688500  0.082100  0.454200  1.0
  C  C3278  1  0.954200  0.311500  0.417900  1.0
  C  C3279  1  0.082100  0.688500  0.545800  1.0
  C  C3280  1  0.311500  0.082100  0.545800  1.0
  C  C3281  1  0.045800  0.311500  0.582100  1.0
  C  C3282  1  0.082100  0.045800  0.811500  1.0
  C  C3283  1  0.917900  0.311500  0.545800  1.0
  C  C3284  1  0.917900  0.954200  0.811500  1.0
  C  C3285  1  0.688500  0.917900  0.545800  1.0
  C  C3286  1  0.954200  0.688500  0.582100  1.0
  C  C3287  1  0.954200  0.082100  0.811500  1.0
  C  C3288  1  0.688500  0.045800  0.582100  1.0
  C  C3289  1  0.445900  0.408460  0.214100  1.0
  C  C3290  1  0.408460  0.214100  0.445900  1.0
  C  C3291  1  0.214100  0.445900  0.408460  1.0
  C  C3292  1  0.591540  0.445900  0.214100  1.0
  C  C3293  1  0.785900  0.408460  0.445900  1.0
  C  C3294  1  0.554100  0.214100  0.408460  1.0
  C  C3295  1  0.554100  0.591540  0.214100  1.0
  C  C3296  1  0.785900  0.445900  0.591540  1.0
  C  C3297  1  0.554100  0.408460  0.785900  1.0
  C  C3298  1  0.591540  0.785900  0.445900  1.0
  C  C3299  1  0.785900  0.554100  0.408460  1.0
  C  C3300  1  0.408460  0.554100  0.214100  1.0
  C  C3301  1  0.214100  0.591540  0.445900  1.0
  C  C3302  1  0.445900  0.785900  0.408460  1.0
  C  C3303  1  0.591540  0.214100  0.554100  1.0
  C  C3304  1  0.785900  0.591540  0.554100  1.0
  C  C3305  1  0.554100  0.785900  0.591540  1.0
  C  C3306  1  0.591540  0.554100  0.785900  1.0
  C  C3307  1  0.408460  0.785900  0.554100  1.0
  C  C3308  1  0.408460  0.445900  0.785900  1.0
  C  C3309  1  0.214100  0.408460  0.554100  1.0
  C  C3310  1  0.445900  0.214100  0.591540  1.0
  C  C3311  1  0.445900  0.591540  0.785900  1.0
  C  C3312  1  0.214100  0.554100  0.591540  1.0
  C  C3313  1  0.445900  0.908460  0.714100  1.0
  C  C3314  1  0.408460  0.714100  0.945900  1.0
  C  C3315  1  0.214100  0.945900  0.908460  1.0
  C  C3316  1  0.591540  0.945900  0.714100  1.0
  C  C3317  1  0.785900  0.908460  0.945900  1.0
  C  C3318  1  0.554100  0.714100  0.908460  1.0
  C  C3319  1  0.554100  0.091540  0.714100  1.0
  C  C3320  1  0.785900  0.945900  0.091540  1.0
  C  C3321  1  0.554100  0.908460  0.285900  1.0
  C  C3322  1  0.591540  0.285900  0.945900  1.0
  C  C3323  1  0.785900  0.054100  0.908460  1.0
  C  C3324  1  0.408460  0.054100  0.714100  1.0
  C  C3325  1  0.214100  0.091540  0.945900  1.0
  C  C3326  1  0.445900  0.285900  0.908460  1.0
  C  C3327  1  0.591540  0.714100  0.054100  1.0
  C  C3328  1  0.785900  0.091540  0.054100  1.0
  C  C3329  1  0.554100  0.285900  0.091540  1.0
  C  C3330  1  0.591540  0.054100  0.285900  1.0
  C  C3331  1  0.408460  0.285900  0.054100  1.0
  C  C3332  1  0.408460  0.945900  0.285900  1.0
  C  C3333  1  0.214100  0.908460  0.054100  1.0
  C  C3334  1  0.445900  0.714100  0.091540  1.0
  C  C3335  1  0.445900  0.091540  0.285900  1.0
  C  C3336  1  0.214100  0.054100  0.091540  1.0
  C  C3337  1  0.945900  0.408460  0.714100  1.0
  C  C3338  1  0.908460  0.214100  0.945900  1.0
  C  C3339  1  0.714100  0.445900  0.908460  1.0
  C  C3340  1  0.091540  0.445900  0.714100  1.0
  C  C3341  1  0.285900  0.408460  0.945900  1.0
  C  C3342  1  0.054100  0.214100  0.908460  1.0
  C  C3343  1  0.054100  0.591540  0.714100  1.0
  C  C3344  1  0.285900  0.445900  0.091540  1.0
  C  C3345  1  0.054100  0.408460  0.285900  1.0
  C  C3346  1  0.091540  0.785900  0.945900  1.0
  C  C3347  1  0.285900  0.554100  0.908460  1.0
  C  C3348  1  0.908460  0.554100  0.714100  1.0
  C  C3349  1  0.714100  0.591540  0.945900  1.0
  C  C3350  1  0.945900  0.785900  0.908460  1.0
  C  C3351  1  0.091540  0.214100  0.054100  1.0
  C  C3352  1  0.285900  0.591540  0.054100  1.0
  C  C3353  1  0.054100  0.785900  0.091540  1.0
  C  C3354  1  0.091540  0.554100  0.285900  1.0
  C  C3355  1  0.908460  0.785900  0.054100  1.0
  C  C3356  1  0.908460  0.445900  0.285900  1.0
  C  C3357  1  0.714100  0.408460  0.054100  1.0
  C  C3358  1  0.945900  0.214100  0.091540  1.0
  C  C3359  1  0.945900  0.591540  0.285900  1.0
  C  C3360  1  0.714100  0.554100  0.091540  1.0
  C  C3361  1  0.945900  0.908460  0.214100  1.0
  C  C3362  1  0.908460  0.714100  0.445900  1.0
  C  C3363  1  0.714100  0.945900  0.408460  1.0
  C  C3364  1  0.091540  0.945900  0.214100  1.0
  C  C3365  1  0.285900  0.908460  0.445900  1.0
  C  C3366  1  0.054100  0.714100  0.408460  1.0
  C  C3367  1  0.054100  0.091540  0.214100  1.0
  C  C3368  1  0.285900  0.945900  0.591540  1.0
  C  C3369  1  0.054100  0.908460  0.785900  1.0
  C  C3370  1  0.091540  0.285900  0.445900  1.0
  C  C3371  1  0.285900  0.054100  0.408460  1.0
  C  C3372  1  0.908460  0.054100  0.214100  1.0
  C  C3373  1  0.714100  0.091540  0.445900  1.0
  C  C3374  1  0.945900  0.285900  0.408460  1.0
  C  C3375  1  0.091540  0.714100  0.554100  1.0
  C  C3376  1  0.285900  0.091540  0.554100  1.0
  C  C3377  1  0.054100  0.285900  0.591540  1.0
  C  C3378  1  0.091540  0.054100  0.785900  1.0
  C  C3379  1  0.908460  0.285900  0.554100  1.0
  C  C3380  1  0.908460  0.945900  0.785900  1.0
  C  C3381  1  0.714100  0.908460  0.554100  1.0
  C  C3382  1  0.945900  0.714100  0.591540  1.0
  C  C3383  1  0.945900  0.091540  0.785900  1.0
  C  C3384  1  0.714100  0.054100  0.591540  1.0
  C  C3385  1  0.423400  0.390000  0.215400  1.0
  C  C3386  1  0.390000  0.215400  0.423400  1.0
  C  C3387  1  0.215400  0.423400  0.390000  1.0
  C  C3388  1  0.610000  0.423400  0.215400  1.0
  C  C3389  1  0.784600  0.390000  0.423400  1.0
  C  C3390  1  0.576600  0.215400  0.390000  1.0
  C  C3391  1  0.576600  0.610000  0.215400  1.0
  C  C3392  1  0.784600  0.423400  0.610000  1.0
  C  C3393  1  0.576600  0.390000  0.784600  1.0
  C  C3394  1  0.610000  0.784600  0.423400  1.0
  C  C3395  1  0.784600  0.576600  0.390000  1.0
  C  C3396  1  0.390000  0.576600  0.215400  1.0
  C  C3397  1  0.215400  0.610000  0.423400  1.0
  C  C3398  1  0.423400  0.784600  0.390000  1.0
  C  C3399  1  0.610000  0.215400  0.576600  1.0
  C  C3400  1  0.784600  0.610000  0.576600  1.0
  C  C3401  1  0.576600  0.784600  0.610000  1.0
  C  C3402  1  0.610000  0.576600  0.784600  1.0
  C  C3403  1  0.390000  0.784600  0.576600  1.0
  C  C3404  1  0.390000  0.423400  0.784600  1.0
  C  C3405  1  0.215400  0.390000  0.576600  1.0
  C  C3406  1  0.423400  0.215400  0.610000  1.0
  C  C3407  1  0.423400  0.610000  0.784600  1.0
  C  C3408  1  0.215400  0.576600  0.610000  1.0
  C  C3409  1  0.423400  0.890000  0.715400  1.0
  C  C3410  1  0.390000  0.715400  0.923400  1.0
  C  C3411  1  0.215400  0.923400  0.890000  1.0
  C  C3412  1  0.610000  0.923400  0.715400  1.0
  C  C3413  1  0.784600  0.890000  0.923400  1.0
  C  C3414  1  0.576600  0.715400  0.890000  1.0
  C  C3415  1  0.576600  0.110000  0.715400  1.0
  C  C3416  1  0.784600  0.923400  0.110000  1.0
  C  C3417  1  0.576600  0.890000  0.284600  1.0
  C  C3418  1  0.610000  0.284600  0.923400  1.0
  C  C3419  1  0.784600  0.076600  0.890000  1.0
  C  C3420  1  0.390000  0.076600  0.715400  1.0
  C  C3421  1  0.215400  0.110000  0.923400  1.0
  C  C3422  1  0.423400  0.284600  0.890000  1.0
  C  C3423  1  0.610000  0.715400  0.076600  1.0
  C  C3424  1  0.784600  0.110000  0.076600  1.0
  C  C3425  1  0.576600  0.284600  0.110000  1.0
  C  C3426  1  0.610000  0.076600  0.284600  1.0
  C  C3427  1  0.390000  0.284600  0.076600  1.0
  C  C3428  1  0.390000  0.923400  0.284600  1.0
  C  C3429  1  0.215400  0.890000  0.076600  1.0
  C  C3430  1  0.423400  0.715400  0.110000  1.0
  C  C3431  1  0.423400  0.110000  0.284600  1.0
  C  C3432  1  0.215400  0.076600  0.110000  1.0
  C  C3433  1  0.923400  0.390000  0.715400  1.0
  C  C3434  1  0.890000  0.215400  0.923400  1.0
  C  C3435  1  0.715400  0.423400  0.890000  1.0
  C  C3436  1  0.110000  0.423400  0.715400  1.0
  C  C3437  1  0.284600  0.390000  0.923400  1.0
  C  C3438  1  0.076600  0.215400  0.890000  1.0
  C  C3439  1  0.076600  0.610000  0.715400  1.0
  C  C3440  1  0.284600  0.423400  0.110000  1.0
  C  C3441  1  0.076600  0.390000  0.284600  1.0
  C  C3442  1  0.110000  0.784600  0.923400  1.0
  C  C3443  1  0.284600  0.576600  0.890000  1.0
  C  C3444  1  0.890000  0.576600  0.715400  1.0
  C  C3445  1  0.715400  0.610000  0.923400  1.0
  C  C3446  1  0.923400  0.784600  0.890000  1.0
  C  C3447  1  0.110000  0.215400  0.076600  1.0
  C  C3448  1  0.284600  0.610000  0.076600  1.0
  C  C3449  1  0.076600  0.784600  0.110000  1.0
  C  C3450  1  0.110000  0.576600  0.284600  1.0
  C  C3451  1  0.890000  0.784600  0.076600  1.0
  C  C3452  1  0.890000  0.423400  0.284600  1.0
  C  C3453  1  0.715400  0.390000  0.076600  1.0
  C  C3454  1  0.923400  0.215400  0.110000  1.0
  C  C3455  1  0.923400  0.610000  0.284600  1.0
  C  C3456  1  0.715400  0.576600  0.110000  1.0
  C  C3457  1  0.923400  0.890000  0.215400  1.0
  C  C3458  1  0.890000  0.715400  0.423400  1.0
  C  C3459  1  0.715400  0.923400  0.390000  1.0
  C  C3460  1  0.110000  0.923400  0.215400  1.0
  C  C3461  1  0.284600  0.890000  0.423400  1.0
  C  C3462  1  0.076600  0.715400  0.390000  1.0
  C  C3463  1  0.076600  0.110000  0.215400  1.0
  C  C3464  1  0.284600  0.923400  0.610000  1.0
  C  C3465  1  0.076600  0.890000  0.784600  1.0
  C  C3466  1  0.110000  0.284600  0.423400  1.0
  C  C3467  1  0.284600  0.076600  0.390000  1.0
  C  C3468  1  0.890000  0.076600  0.215400  1.0
  C  C3469  1  0.715400  0.110000  0.423400  1.0
  C  C3470  1  0.923400  0.284600  0.390000  1.0
  C  C3471  1  0.110000  0.715400  0.576600  1.0
  C  C3472  1  0.284600  0.110000  0.576600  1.0
  C  C3473  1  0.076600  0.284600  0.610000  1.0
  C  C3474  1  0.110000  0.076600  0.784600  1.0
  C  C3475  1  0.890000  0.284600  0.576600  1.0
  C  C3476  1  0.890000  0.923400  0.784600  1.0
  C  C3477  1  0.715400  0.890000  0.576600  1.0
  C  C3478  1  0.923400  0.715400  0.610000  1.0
  C  C3479  1  0.923400  0.110000  0.784600  1.0
  C  C3480  1  0.715400  0.076600  0.610000  1.0
  C  C3481  1  0.409300  0.383000  0.192800  1.0
  C  C3482  1  0.383000  0.192800  0.409300  1.0
  C  C3483  1  0.192800  0.409300  0.383000  1.0
  C  C3484  1  0.617000  0.409300  0.192800  1.0
  C  C3485  1  0.807200  0.383000  0.409300  1.0
  C  C3486  1  0.590700  0.192800  0.383000  1.0
  C  C3487  1  0.590700  0.617000  0.192800  1.0
  C  C3488  1  0.807200  0.409300  0.617000  1.0
  C  C3489  1  0.590700  0.383000  0.807200  1.0
  C  C3490  1  0.617000  0.807200  0.409300  1.0
  C  C3491  1  0.807200  0.590700  0.383000  1.0
  C  C3492  1  0.383000  0.590700  0.192800  1.0
  C  C3493  1  0.192800  0.617000  0.409300  1.0
  C  C3494  1  0.409300  0.807200  0.383000  1.0
  C  C3495  1  0.617000  0.192800  0.590700  1.0
  C  C3496  1  0.807200  0.617000  0.590700  1.0
  C  C3497  1  0.590700  0.807200  0.617000  1.0
  C  C3498  1  0.617000  0.590700  0.807200  1.0
  C  C3499  1  0.383000  0.807200  0.590700  1.0
  C  C3500  1  0.383000  0.409300  0.807200  1.0
  C  C3501  1  0.192800  0.383000  0.590700  1.0
  C  C3502  1  0.409300  0.192800  0.617000  1.0
  C  C3503  1  0.409300  0.617000  0.807200  1.0
  C  C3504  1  0.192800  0.590700  0.617000  1.0
  C  C3505  1  0.409300  0.883000  0.692800  1.0
  C  C3506  1  0.383000  0.692800  0.909300  1.0
  C  C3507  1  0.192800  0.909300  0.883000  1.0
  C  C3508  1  0.617000  0.909300  0.692800  1.0
  C  C3509  1  0.807200  0.883000  0.909300  1.0
  C  C3510  1  0.590700  0.692800  0.883000  1.0
  C  C3511  1  0.590700  0.117000  0.692800  1.0
  C  C3512  1  0.807200  0.909300  0.117000  1.0
  C  C3513  1  0.590700  0.883000  0.307200  1.0
  C  C3514  1  0.617000  0.307200  0.909300  1.0
  C  C3515  1  0.807200  0.090700  0.883000  1.0
  C  C3516  1  0.383000  0.090700  0.692800  1.0
  C  C3517  1  0.192800  0.117000  0.909300  1.0
  C  C3518  1  0.409300  0.307200  0.883000  1.0
  C  C3519  1  0.617000  0.692800  0.090700  1.0
  C  C3520  1  0.807200  0.117000  0.090700  1.0
  C  C3521  1  0.590700  0.307200  0.117000  1.0
  C  C3522  1  0.617000  0.090700  0.307200  1.0
  C  C3523  1  0.383000  0.307200  0.090700  1.0
  C  C3524  1  0.383000  0.909300  0.307200  1.0
  C  C3525  1  0.192800  0.883000  0.090700  1.0
  C  C3526  1  0.409300  0.692800  0.117000  1.0
  C  C3527  1  0.409300  0.117000  0.307200  1.0
  C  C3528  1  0.192800  0.090700  0.117000  1.0
  C  C3529  1  0.909300  0.383000  0.692800  1.0
  C  C3530  1  0.883000  0.192800  0.909300  1.0
  C  C3531  1  0.692800  0.409300  0.883000  1.0
  C  C3532  1  0.117000  0.409300  0.692800  1.0
  C  C3533  1  0.307200  0.383000  0.909300  1.0
  C  C3534  1  0.090700  0.192800  0.883000  1.0
  C  C3535  1  0.090700  0.617000  0.692800  1.0
  C  C3536  1  0.307200  0.409300  0.117000  1.0
  C  C3537  1  0.090700  0.383000  0.307200  1.0
  C  C3538  1  0.117000  0.807200  0.909300  1.0
  C  C3539  1  0.307200  0.590700  0.883000  1.0
  C  C3540  1  0.883000  0.590700  0.692800  1.0
  C  C3541  1  0.692800  0.617000  0.909300  1.0
  C  C3542  1  0.909300  0.807200  0.883000  1.0
  C  C3543  1  0.117000  0.192800  0.090700  1.0
  C  C3544  1  0.307200  0.617000  0.090700  1.0
  C  C3545  1  0.090700  0.807200  0.117000  1.0
  C  C3546  1  0.117000  0.590700  0.307200  1.0
  C  C3547  1  0.883000  0.807200  0.090700  1.0
  C  C3548  1  0.883000  0.409300  0.307200  1.0
  C  C3549  1  0.692800  0.383000  0.090700  1.0
  C  C3550  1  0.909300  0.192800  0.117000  1.0
  C  C3551  1  0.909300  0.617000  0.307200  1.0
  C  C3552  1  0.692800  0.590700  0.117000  1.0
  C  C3553  1  0.909300  0.883000  0.192800  1.0
  C  C3554  1  0.883000  0.692800  0.409300  1.0
  C  C3555  1  0.692800  0.909300  0.383000  1.0
  C  C3556  1  0.117000  0.909300  0.192800  1.0
  C  C3557  1  0.307200  0.883000  0.409300  1.0
  C  C3558  1  0.090700  0.692800  0.383000  1.0
  C  C3559  1  0.090700  0.117000  0.192800  1.0
  C  C3560  1  0.307200  0.909300  0.617000  1.0
  C  C3561  1  0.090700  0.883000  0.807200  1.0
  C  C3562  1  0.117000  0.307200  0.409300  1.0
  C  C3563  1  0.307200  0.090700  0.383000  1.0
  C  C3564  1  0.883000  0.090700  0.192800  1.0
  C  C3565  1  0.692800  0.117000  0.409300  1.0
  C  C3566  1  0.909300  0.307200  0.383000  1.0
  C  C3567  1  0.117000  0.692800  0.590700  1.0
  C  C3568  1  0.307200  0.117000  0.590700  1.0
  C  C3569  1  0.090700  0.307200  0.617000  1.0
  C  C3570  1  0.117000  0.090700  0.807200  1.0
  C  C3571  1  0.883000  0.307200  0.590700  1.0
  C  C3572  1  0.883000  0.909300  0.807200  1.0
  C  C3573  1  0.692800  0.883000  0.590700  1.0
  C  C3574  1  0.909300  0.692800  0.617000  1.0
  C  C3575  1  0.909300  0.117000  0.807200  1.0
  C  C3576  1  0.692800  0.090700  0.617000  1.0
  C  C3577  1  0.486500  0.437400  0.286400  1.0
  C  C3578  1  0.437400  0.286400  0.486500  1.0
  C  C3579  1  0.286400  0.486500  0.437400  1.0
  C  C3580  1  0.562600  0.486500  0.286400  1.0
  C  C3581  1  0.713600  0.437400  0.486500  1.0
  C  C3582  1  0.513500  0.286400  0.437400  1.0
  C  C3583  1  0.513500  0.562600  0.286400  1.0
  C  C3584  1  0.713600  0.486500  0.562600  1.0
  C  C3585  1  0.513500  0.437400  0.713600  1.0
  C  C3586  1  0.562600  0.713600  0.486500  1.0
  C  C3587  1  0.713600  0.513500  0.437400  1.0
  C  C3588  1  0.437400  0.513500  0.286400  1.0
  C  C3589  1  0.286400  0.562600  0.486500  1.0
  C  C3590  1  0.486500  0.713600  0.437400  1.0
  C  C3591  1  0.562600  0.286400  0.513500  1.0
  C  C3592  1  0.713600  0.562600  0.513500  1.0
  C  C3593  1  0.513500  0.713600  0.562600  1.0
  C  C3594  1  0.562600  0.513500  0.713600  1.0
  C  C3595  1  0.437400  0.713600  0.513500  1.0
  C  C3596  1  0.437400  0.486500  0.713600  1.0
  C  C3597  1  0.286400  0.437400  0.513500  1.0
  C  C3598  1  0.486500  0.286400  0.562600  1.0
  C  C3599  1  0.486500  0.562600  0.713600  1.0
  C  C3600  1  0.286400  0.513500  0.562600  1.0
  C  C3601  1  0.486500  0.937400  0.786400  1.0
  C  C3602  1  0.437400  0.786400  0.986500  1.0
  C  C3603  1  0.286400  0.986500  0.937400  1.0
  C  C3604  1  0.562600  0.986500  0.786400  1.0
  C  C3605  1  0.713600  0.937400  0.986500  1.0
  C  C3606  1  0.513500  0.786400  0.937400  1.0
  C  C3607  1  0.513500  0.062600  0.786400  1.0
  C  C3608  1  0.713600  0.986500  0.062600  1.0
  C  C3609  1  0.513500  0.937400  0.213600  1.0
  C  C3610  1  0.562600  0.213600  0.986500  1.0
  C  C3611  1  0.713600  0.013500  0.937400  1.0
  C  C3612  1  0.437400  0.013500  0.786400  1.0
  C  C3613  1  0.286400  0.062600  0.986500  1.0
  C  C3614  1  0.486500  0.213600  0.937400  1.0
  C  C3615  1  0.562600  0.786400  0.013500  1.0
  C  C3616  1  0.713600  0.062600  0.013500  1.0
  C  C3617  1  0.513500  0.213600  0.062600  1.0
  C  C3618  1  0.562600  0.013500  0.213600  1.0
  C  C3619  1  0.437400  0.213600  0.013500  1.0
  C  C3620  1  0.437400  0.986500  0.213600  1.0
  C  C3621  1  0.286400  0.937400  0.013500  1.0
  C  C3622  1  0.486500  0.786400  0.062600  1.0
  C  C3623  1  0.486500  0.062600  0.213600  1.0
  C  C3624  1  0.286400  0.013500  0.062600  1.0
  C  C3625  1  0.986500  0.437400  0.786400  1.0
  C  C3626  1  0.937400  0.286400  0.986500  1.0
  C  C3627  1  0.786400  0.486500  0.937400  1.0
  C  C3628  1  0.062600  0.486500  0.786400  1.0
  C  C3629  1  0.213600  0.437400  0.986500  1.0
  C  C3630  1  0.013500  0.286400  0.937400  1.0
  C  C3631  1  0.013500  0.562600  0.786400  1.0
  C  C3632  1  0.213600  0.486500  0.062600  1.0
  C  C3633  1  0.013500  0.437400  0.213600  1.0
  C  C3634  1  0.062600  0.713600  0.986500  1.0
  C  C3635  1  0.213600  0.513500  0.937400  1.0
  C  C3636  1  0.937400  0.513500  0.786400  1.0
  C  C3637  1  0.786400  0.562600  0.986500  1.0
  C  C3638  1  0.986500  0.713600  0.937400  1.0
  C  C3639  1  0.062600  0.286400  0.013500  1.0
  C  C3640  1  0.213600  0.562600  0.013500  1.0
  C  C3641  1  0.013500  0.713600  0.062600  1.0
  C  C3642  1  0.062600  0.513500  0.213600  1.0
  C  C3643  1  0.937400  0.713600  0.013500  1.0
  C  C3644  1  0.937400  0.486500  0.213600  1.0
  C  C3645  1  0.786400  0.437400  0.013500  1.0
  C  C3646  1  0.986500  0.286400  0.062600  1.0
  C  C3647  1  0.986500  0.562600  0.213600  1.0
  C  C3648  1  0.786400  0.513500  0.062600  1.0
  C  C3649  1  0.986500  0.937400  0.286400  1.0
  C  C3650  1  0.937400  0.786400  0.486500  1.0
  C  C3651  1  0.786400  0.986500  0.437400  1.0
  C  C3652  1  0.062600  0.986500  0.286400  1.0
  C  C3653  1  0.213600  0.937400  0.486500  1.0
  C  C3654  1  0.013500  0.786400  0.437400  1.0
  C  C3655  1  0.013500  0.062600  0.286400  1.0
  C  C3656  1  0.213600  0.986500  0.562600  1.0
  C  C3657  1  0.013500  0.937400  0.713600  1.0
  C  C3658  1  0.062600  0.213600  0.486500  1.0
  C  C3659  1  0.213600  0.013500  0.437400  1.0
  C  C3660  1  0.937400  0.013500  0.286400  1.0
  C  C3661  1  0.786400  0.062600  0.486500  1.0
  C  C3662  1  0.986500  0.213600  0.437400  1.0
  C  C3663  1  0.062600  0.786400  0.513500  1.0
  C  C3664  1  0.213600  0.062600  0.513500  1.0
  C  C3665  1  0.013500  0.213600  0.562600  1.0
  C  C3666  1  0.062600  0.013500  0.713600  1.0
  C  C3667  1  0.937400  0.213600  0.513500  1.0
  C  C3668  1  0.937400  0.986500  0.713600  1.0
  C  C3669  1  0.786400  0.937400  0.513500  1.0
  C  C3670  1  0.986500  0.786400  0.562600  1.0
  C  C3671  1  0.986500  0.062600  0.713600  1.0
  C  C3672  1  0.786400  0.013500  0.562600  1.0
  C  C3673  1  0.476700  0.411600  0.287500  1.0
  C  C3674  1  0.411600  0.287500  0.476700  1.0
  C  C3675  1  0.287500  0.476700  0.411600  1.0
  C  C3676  1  0.588400  0.476700  0.287500  1.0
  C  C3677  1  0.712500  0.411600  0.476700  1.0
  C  C3678  1  0.523300  0.287500  0.411600  1.0
  C  C3679  1  0.523300  0.588400  0.287500  1.0
  C  C3680  1  0.712500  0.476700  0.588400  1.0
  C  C3681  1  0.523300  0.411600  0.712500  1.0
  C  C3682  1  0.588400  0.712500  0.476700  1.0
  C  C3683  1  0.712500  0.523300  0.411600  1.0
  C  C3684  1  0.411600  0.523300  0.287500  1.0
  C  C3685  1  0.287500  0.588400  0.476700  1.0
  C  C3686  1  0.476700  0.712500  0.411600  1.0
  C  C3687  1  0.588400  0.287500  0.523300  1.0
  C  C3688  1  0.712500  0.588400  0.523300  1.0
  C  C3689  1  0.523300  0.712500  0.588400  1.0
  C  C3690  1  0.588400  0.523300  0.712500  1.0
  C  C3691  1  0.411600  0.712500  0.523300  1.0
  C  C3692  1  0.411600  0.476700  0.712500  1.0
  C  C3693  1  0.287500  0.411600  0.523300  1.0
  C  C3694  1  0.476700  0.287500  0.588400  1.0
  C  C3695  1  0.476700  0.588400  0.712500  1.0
  C  C3696  1  0.287500  0.523300  0.588400  1.0
  C  C3697  1  0.476700  0.911600  0.787500  1.0
  C  C3698  1  0.411600  0.787500  0.976700  1.0
  C  C3699  1  0.287500  0.976700  0.911600  1.0
  C  C3700  1  0.588400  0.976700  0.787500  1.0
  C  C3701  1  0.712500  0.911600  0.976700  1.0
  C  C3702  1  0.523300  0.787500  0.911600  1.0
  C  C3703  1  0.523300  0.088400  0.787500  1.0
  C  C3704  1  0.712500  0.976700  0.088400  1.0
  C  C3705  1  0.523300  0.911600  0.212500  1.0
  C  C3706  1  0.588400  0.212500  0.976700  1.0
  C  C3707  1  0.712500  0.023300  0.911600  1.0
  C  C3708  1  0.411600  0.023300  0.787500  1.0
  C  C3709  1  0.287500  0.088400  0.976700  1.0
  C  C3710  1  0.476700  0.212500  0.911600  1.0
  C  C3711  1  0.588400  0.787500  0.023300  1.0
  C  C3712  1  0.712500  0.088400  0.023300  1.0
  C  C3713  1  0.523300  0.212500  0.088400  1.0
  C  C3714  1  0.588400  0.023300  0.212500  1.0
  C  C3715  1  0.411600  0.212500  0.023300  1.0
  C  C3716  1  0.411600  0.976700  0.212500  1.0
  C  C3717  1  0.287500  0.911600  0.023300  1.0
  C  C3718  1  0.476700  0.787500  0.088400  1.0
  C  C3719  1  0.476700  0.088400  0.212500  1.0
  C  C3720  1  0.287500  0.023300  0.088400  1.0
  C  C3721  1  0.976700  0.411600  0.787500  1.0
  C  C3722  1  0.911600  0.287500  0.976700  1.0
  C  C3723  1  0.787500  0.476700  0.911600  1.0
  C  C3724  1  0.088400  0.476700  0.787500  1.0
  C  C3725  1  0.212500  0.411600  0.976700  1.0
  C  C3726  1  0.023300  0.287500  0.911600  1.0
  C  C3727  1  0.023300  0.588400  0.787500  1.0
  C  C3728  1  0.212500  0.476700  0.088400  1.0
  C  C3729  1  0.023300  0.411600  0.212500  1.0
  C  C3730  1  0.088400  0.712500  0.976700  1.0
  C  C3731  1  0.212500  0.523300  0.911600  1.0
  C  C3732  1  0.911600  0.523300  0.787500  1.0
  C  C3733  1  0.787500  0.588400  0.976700  1.0
  C  C3734  1  0.976700  0.712500  0.911600  1.0
  C  C3735  1  0.088400  0.287500  0.023300  1.0
  C  C3736  1  0.212500  0.588400  0.023300  1.0
  C  C3737  1  0.023300  0.712500  0.088400  1.0
  C  C3738  1  0.088400  0.523300  0.212500  1.0
  C  C3739  1  0.911600  0.712500  0.023300  1.0
  C  C3740  1  0.911600  0.476700  0.212500  1.0
  C  C3741  1  0.787500  0.411600  0.023300  1.0
  C  C3742  1  0.976700  0.287500  0.088400  1.0
  C  C3743  1  0.976700  0.588400  0.212500  1.0
  C  C3744  1  0.787500  0.523300  0.088400  1.0
  C  C3745  1  0.976700  0.911600  0.287500  1.0
  C  C3746  1  0.911600  0.787500  0.476700  1.0
  C  C3747  1  0.787500  0.976700  0.411600  1.0
  C  C3748  1  0.088400  0.976700  0.287500  1.0
  C  C3749  1  0.212500  0.911600  0.476700  1.0
  C  C3750  1  0.023300  0.787500  0.411600  1.0
  C  C3751  1  0.023300  0.088400  0.287500  1.0
  C  C3752  1  0.212500  0.976700  0.588400  1.0
  C  C3753  1  0.023300  0.911600  0.712500  1.0
  C  C3754  1  0.088400  0.212500  0.476700  1.0
  C  C3755  1  0.212500  0.023300  0.411600  1.0
  C  C3756  1  0.911600  0.023300  0.287500  1.0
  C  C3757  1  0.787500  0.088400  0.476700  1.0
  C  C3758  1  0.976700  0.212500  0.411600  1.0
  C  C3759  1  0.088400  0.787500  0.523300  1.0
  C  C3760  1  0.212500  0.088400  0.523300  1.0
  C  C3761  1  0.023300  0.212500  0.588400  1.0
  C  C3762  1  0.088400  0.023300  0.712500  1.0
  C  C3763  1  0.911600  0.212500  0.523300  1.0
  C  C3764  1  0.911600  0.976700  0.712500  1.0
  C  C3765  1  0.787500  0.911600  0.523300  1.0
  C  C3766  1  0.976700  0.787500  0.588400  1.0
  C  C3767  1  0.976700  0.088400  0.712500  1.0
  C  C3768  1  0.787500  0.023300  0.588400  1.0
  C  C3769  1  0.463700  0.400400  0.263100  1.0
  C  C3770  1  0.400400  0.263100  0.463700  1.0
  C  C3771  1  0.263100  0.463700  0.400400  1.0
  C  C3772  1  0.599600  0.463700  0.263100  1.0
  C  C3773  1  0.736900  0.400400  0.463700  1.0
  C  C3774  1  0.536300  0.263100  0.400400  1.0
  C  C3775  1  0.536300  0.599600  0.263100  1.0
  C  C3776  1  0.736900  0.463700  0.599600  1.0
  C  C3777  1  0.536300  0.400400  0.736900  1.0
  C  C3778  1  0.599600  0.736900  0.463700  1.0
  C  C3779  1  0.736900  0.536300  0.400400  1.0
  C  C3780  1  0.400400  0.536300  0.263100  1.0
  C  C3781  1  0.263100  0.599600  0.463700  1.0
  C  C3782  1  0.463700  0.736900  0.400400  1.0
  C  C3783  1  0.599600  0.263100  0.536300  1.0
  C  C3784  1  0.736900  0.599600  0.536300  1.0
  C  C3785  1  0.536300  0.736900  0.599600  1.0
  C  C3786  1  0.599600  0.536300  0.736900  1.0
  C  C3787  1  0.400400  0.736900  0.536300  1.0
  C  C3788  1  0.400400  0.463700  0.736900  1.0
  C  C3789  1  0.263100  0.400400  0.536300  1.0
  C  C3790  1  0.463700  0.263100  0.599600  1.0
  C  C3791  1  0.463700  0.599600  0.736900  1.0
  C  C3792  1  0.263100  0.536300  0.599600  1.0
  C  C3793  1  0.463700  0.900400  0.763100  1.0
  C  C3794  1  0.400400  0.763100  0.963700  1.0
  C  C3795  1  0.263100  0.963700  0.900400  1.0
  C  C3796  1  0.599600  0.963700  0.763100  1.0
  C  C3797  1  0.736900  0.900400  0.963700  1.0
  C  C3798  1  0.536300  0.763100  0.900400  1.0
  C  C3799  1  0.536300  0.099600  0.763100  1.0
  C  C3800  1  0.736900  0.963700  0.099600  1.0
  C  C3801  1  0.536300  0.900400  0.236900  1.0
  C  C3802  1  0.599600  0.236900  0.963700  1.0
  C  C3803  1  0.736900  0.036300  0.900400  1.0
  C  C3804  1  0.400400  0.036300  0.763100  1.0
  C  C3805  1  0.263100  0.099600  0.963700  1.0
  C  C3806  1  0.463700  0.236900  0.900400  1.0
  C  C3807  1  0.599600  0.763100  0.036300  1.0
  C  C3808  1  0.736900  0.099600  0.036300  1.0
  C  C3809  1  0.536300  0.236900  0.099600  1.0
  C  C3810  1  0.599600  0.036300  0.236900  1.0
  C  C3811  1  0.400400  0.236900  0.036300  1.0
  C  C3812  1  0.400400  0.963700  0.236900  1.0
  C  C3813  1  0.263100  0.900400  0.036300  1.0
  C  C3814  1  0.463700  0.763100  0.099600  1.0
  C  C3815  1  0.463700  0.099600  0.236900  1.0
  C  C3816  1  0.263100  0.036300  0.099600  1.0
  C  C3817  1  0.963700  0.400400  0.763100  1.0
  C  C3818  1  0.900400  0.263100  0.963700  1.0
  C  C3819  1  0.763100  0.463700  0.900400  1.0
  C  C3820  1  0.099600  0.463700  0.763100  1.0
  C  C3821  1  0.236900  0.400400  0.963700  1.0
  C  C3822  1  0.036300  0.263100  0.900400  1.0
  C  C3823  1  0.036300  0.599600  0.763100  1.0
  C  C3824  1  0.236900  0.463700  0.099600  1.0
  C  C3825  1  0.036300  0.400400  0.236900  1.0
  C  C3826  1  0.099600  0.736900  0.963700  1.0
  C  C3827  1  0.236900  0.536300  0.900400  1.0
  C  C3828  1  0.900400  0.536300  0.763100  1.0
  C  C3829  1  0.763100  0.599600  0.963700  1.0
  C  C3830  1  0.963700  0.736900  0.900400  1.0
  C  C3831  1  0.099600  0.263100  0.036300  1.0
  C  C3832  1  0.236900  0.599600  0.036300  1.0
  C  C3833  1  0.036300  0.736900  0.099600  1.0
  C  C3834  1  0.099600  0.536300  0.236900  1.0
  C  C3835  1  0.900400  0.736900  0.036300  1.0
  C  C3836  1  0.900400  0.463700  0.236900  1.0
  C  C3837  1  0.763100  0.400400  0.036300  1.0
  C  C3838  1  0.963700  0.263100  0.099600  1.0
  C  C3839  1  0.963700  0.599600  0.236900  1.0
  C  C3840  1  0.763100  0.536300  0.099600  1.0
  C  C3841  1  0.963700  0.900400  0.263100  1.0
  C  C3842  1  0.900400  0.763100  0.463700  1.0
  C  C3843  1  0.763100  0.963700  0.400400  1.0
  C  C3844  1  0.099600  0.963700  0.263100  1.0
  C  C3845  1  0.236900  0.900400  0.463700  1.0
  C  C3846  1  0.036300  0.763100  0.400400  1.0
  C  C3847  1  0.036300  0.099600  0.263100  1.0
  C  C3848  1  0.236900  0.963700  0.599600  1.0
  C  C3849  1  0.036300  0.900400  0.736900  1.0
  C  C3850  1  0.099600  0.236900  0.463700  1.0
  C  C3851  1  0.236900  0.036300  0.400400  1.0
  C  C3852  1  0.900400  0.036300  0.263100  1.0
  C  C3853  1  0.763100  0.099600  0.463700  1.0
  C  C3854  1  0.963700  0.236900  0.400400  1.0
  C  C3855  1  0.099600  0.763100  0.536300  1.0
  C  C3856  1  0.236900  0.099600  0.536300  1.0
  C  C3857  1  0.036300  0.236900  0.599600  1.0
  C  C3858  1  0.099600  0.036300  0.736900  1.0
  C  C3859  1  0.900400  0.236900  0.536300  1.0
  C  C3860  1  0.900400  0.963700  0.736900  1.0
  C  C3861  1  0.763100  0.900400  0.536300  1.0
  C  C3862  1  0.963700  0.763100  0.599600  1.0
  C  C3863  1  0.963700  0.099600  0.736900  1.0
  C  C3864  1  0.763100  0.036300  0.599600  1.0
  C  C3865  1  0.461310  0.416800  0.239700  1.0
  C  C3866  1  0.416800  0.239700  0.461310  1.0
  C  C3867  1  0.239700  0.461310  0.416800  1.0
  C  C3868  1  0.583200  0.461310  0.239700  1.0
  C  C3869  1  0.760300  0.416800  0.461310  1.0
  C  C3870  1  0.538690  0.239700  0.416800  1.0
  C  C3871  1  0.538690  0.583200  0.239700  1.0
  C  C3872  1  0.760300  0.461310  0.583200  1.0
  C  C3873  1  0.538690  0.416800  0.760300  1.0
  C  C3874  1  0.583200  0.760300  0.461310  1.0
  C  C3875  1  0.760300  0.538690  0.416800  1.0
  C  C3876  1  0.416800  0.538690  0.239700  1.0
  C  C3877  1  0.239700  0.583200  0.461310  1.0
  C  C3878  1  0.461310  0.760300  0.416800  1.0
  C  C3879  1  0.583200  0.239700  0.538690  1.0
  C  C3880  1  0.760300  0.583200  0.538690  1.0
  C  C3881  1  0.538690  0.760300  0.583200  1.0
  C  C3882  1  0.583200  0.538690  0.760300  1.0
  C  C3883  1  0.416800  0.760300  0.538690  1.0
  C  C3884  1  0.416800  0.461310  0.760300  1.0
  C  C3885  1  0.239700  0.416800  0.538690  1.0
  C  C3886  1  0.461310  0.239700  0.583200  1.0
  C  C3887  1  0.461310  0.583200  0.760300  1.0
  C  C3888  1  0.239700  0.538690  0.583200  1.0
  C  C3889  1  0.461310  0.916800  0.739700  1.0
  C  C3890  1  0.416800  0.739700  0.961310  1.0
  C  C3891  1  0.239700  0.961310  0.916800  1.0
  C  C3892  1  0.583200  0.961310  0.739700  1.0
  C  C3893  1  0.760300  0.916800  0.961310  1.0
  C  C3894  1  0.538690  0.739700  0.916800  1.0
  C  C3895  1  0.538690  0.083200  0.739700  1.0
  C  C3896  1  0.760300  0.961310  0.083200  1.0
  C  C3897  1  0.538690  0.916800  0.260300  1.0
  C  C3898  1  0.583200  0.260300  0.961310  1.0
  C  C3899  1  0.760300  0.038690  0.916800  1.0
  C  C3900  1  0.416800  0.038690  0.739700  1.0
  C  C3901  1  0.239700  0.083200  0.961310  1.0
  C  C3902  1  0.461310  0.260300  0.916800  1.0
  C  C3903  1  0.583200  0.739700  0.038690  1.0
  C  C3904  1  0.760300  0.083200  0.038690  1.0
  C  C3905  1  0.538690  0.260300  0.083200  1.0
  C  C3906  1  0.583200  0.038690  0.260300  1.0
  C  C3907  1  0.416800  0.260300  0.038690  1.0
  C  C3908  1  0.416800  0.961310  0.260300  1.0
  C  C3909  1  0.239700  0.916800  0.038690  1.0
  C  C3910  1  0.461310  0.739700  0.083200  1.0
  C  C3911  1  0.461310  0.083200  0.260300  1.0
  C  C3912  1  0.239700  0.038690  0.083200  1.0
  C  C3913  1  0.961310  0.416800  0.739700  1.0
  C  C3914  1  0.916800  0.239700  0.961310  1.0
  C  C3915  1  0.739700  0.461310  0.916800  1.0
  C  C3916  1  0.083200  0.461310  0.739700  1.0
  C  C3917  1  0.260300  0.416800  0.961310  1.0
  C  C3918  1  0.038690  0.239700  0.916800  1.0
  C  C3919  1  0.038690  0.583200  0.739700  1.0
  C  C3920  1  0.260300  0.461310  0.083200  1.0
  C  C3921  1  0.038690  0.416800  0.260300  1.0
  C  C3922  1  0.083200  0.760300  0.961310  1.0
  C  C3923  1  0.260300  0.538690  0.916800  1.0
  C  C3924  1  0.916800  0.538690  0.739700  1.0
  C  C3925  1  0.739700  0.583200  0.961310  1.0
  C  C3926  1  0.961310  0.760300  0.916800  1.0
  C  C3927  1  0.083200  0.239700  0.038690  1.0
  C  C3928  1  0.260300  0.583200  0.038690  1.0
  C  C3929  1  0.038690  0.760300  0.083200  1.0
  C  C3930  1  0.083200  0.538690  0.260300  1.0
  C  C3931  1  0.916800  0.760300  0.038690  1.0
  C  C3932  1  0.916800  0.461310  0.260300  1.0
  C  C3933  1  0.739700  0.416800  0.038690  1.0
  C  C3934  1  0.961310  0.239700  0.083200  1.0
  C  C3935  1  0.961310  0.583200  0.260300  1.0
  C  C3936  1  0.739700  0.538690  0.083200  1.0
  C  C3937  1  0.961310  0.916800  0.239700  1.0
  C  C3938  1  0.916800  0.739700  0.461310  1.0
  C  C3939  1  0.739700  0.961310  0.416800  1.0
  C  C3940  1  0.083200  0.961310  0.239700  1.0
  C  C3941  1  0.260300  0.916800  0.461310  1.0
  C  C3942  1  0.038690  0.739700  0.416800  1.0
  C  C3943  1  0.038690  0.083200  0.239700  1.0
  C  C3944  1  0.260300  0.961310  0.583200  1.0
  C  C3945  1  0.038690  0.916800  0.760300  1.0
  C  C3946  1  0.083200  0.260300  0.461310  1.0
  C  C3947  1  0.260300  0.038690  0.416800  1.0
  C  C3948  1  0.916800  0.038690  0.239700  1.0
  C  C3949  1  0.739700  0.083200  0.461310  1.0
  C  C3950  1  0.961310  0.260300  0.416800  1.0
  C  C3951  1  0.083200  0.739700  0.538690  1.0
  C  C3952  1  0.260300  0.083200  0.538690  1.0
  C  C3953  1  0.038690  0.260300  0.583200  1.0
  C  C3954  1  0.083200  0.038690  0.760300  1.0
  C  C3955  1  0.916800  0.260300  0.538690  1.0
  C  C3956  1  0.916800  0.961310  0.760300  1.0
  C  C3957  1  0.739700  0.916800  0.538690  1.0
  C  C3958  1  0.961310  0.739700  0.583200  1.0
  C  C3959  1  0.961310  0.083200  0.760300  1.0
  C  C3960  1  0.739700  0.038690  0.583200  1.0
  C  C3961  1  0.471400  0.444800  0.241500  1.0
  C  C3962  1  0.444800  0.241500  0.471400  1.0
  C  C3963  1  0.241500  0.471400  0.444800  1.0
  C  C3964  1  0.555200  0.471400  0.241500  1.0
  C  C3965  1  0.758500  0.444800  0.471400  1.0
  C  C3966  1  0.528600  0.241500  0.444800  1.0
  C  C3967  1  0.528600  0.555200  0.241500  1.0
  C  C3968  1  0.758500  0.471400  0.555200  1.0
  C  C3969  1  0.528600  0.444800  0.758500  1.0
  C  C3970  1  0.555200  0.758500  0.471400  1.0
  C  C3971  1  0.758500  0.528600  0.444800  1.0
  C  C3972  1  0.444800  0.528600  0.241500  1.0
  C  C3973  1  0.241500  0.555200  0.471400  1.0
  C  C3974  1  0.471400  0.758500  0.444800  1.0
  C  C3975  1  0.555200  0.241500  0.528600  1.0
  C  C3976  1  0.758500  0.555200  0.528600  1.0
  C  C3977  1  0.528600  0.758500  0.555200  1.0
  C  C3978  1  0.555200  0.528600  0.758500  1.0
  C  C3979  1  0.444800  0.758500  0.528600  1.0
  C  C3980  1  0.444800  0.471400  0.758500  1.0
  C  C3981  1  0.241500  0.444800  0.528600  1.0
  C  C3982  1  0.471400  0.241500  0.555200  1.0
  C  C3983  1  0.471400  0.555200  0.758500  1.0
  C  C3984  1  0.241500  0.528600  0.555200  1.0
  C  C3985  1  0.471400  0.944800  0.741500  1.0
  C  C3986  1  0.444800  0.741500  0.971400  1.0
  C  C3987  1  0.241500  0.971400  0.944800  1.0
  C  C3988  1  0.555200  0.971400  0.741500  1.0
  C  C3989  1  0.758500  0.944800  0.971400  1.0
  C  C3990  1  0.528600  0.741500  0.944800  1.0
  C  C3991  1  0.528600  0.055200  0.741500  1.0
  C  C3992  1  0.758500  0.971400  0.055200  1.0
  C  C3993  1  0.528600  0.944800  0.258500  1.0
  C  C3994  1  0.555200  0.258500  0.971400  1.0
  C  C3995  1  0.758500  0.028600  0.944800  1.0
  C  C3996  1  0.444800  0.028600  0.741500  1.0
  C  C3997  1  0.241500  0.055200  0.971400  1.0
  C  C3998  1  0.471400  0.258500  0.944800  1.0
  C  C3999  1  0.555200  0.741500  0.028600  1.0
  C  C4000  1  0.758500  0.055200  0.028600  1.0
  C  C4001  1  0.528600  0.258500  0.055200  1.0
  C  C4002  1  0.555200  0.028600  0.258500  1.0
  C  C4003  1  0.444800  0.258500  0.028600  1.0
  C  C4004  1  0.444800  0.971400  0.258500  1.0
  C  C4005  1  0.241500  0.944800  0.028600  1.0
  C  C4006  1  0.471400  0.741500  0.055200  1.0
  C  C4007  1  0.471400  0.055200  0.258500  1.0
  C  C4008  1  0.241500  0.028600  0.055200  1.0
  C  C4009  1  0.971400  0.444800  0.741500  1.0
  C  C4010  1  0.944800  0.241500  0.971400  1.0
  C  C4011  1  0.741500  0.471400  0.944800  1.0
  C  C4012  1  0.055200  0.471400  0.741500  1.0
  C  C4013  1  0.258500  0.444800  0.971400  1.0
  C  C4014  1  0.028600  0.241500  0.944800  1.0
  C  C4015  1  0.028600  0.555200  0.741500  1.0
  C  C4016  1  0.258500  0.471400  0.055200  1.0
  C  C4017  1  0.028600  0.444800  0.258500  1.0
  C  C4018  1  0.055200  0.758500  0.971400  1.0
  C  C4019  1  0.258500  0.528600  0.944800  1.0
  C  C4020  1  0.944800  0.528600  0.741500  1.0
  C  C4021  1  0.741500  0.555200  0.971400  1.0
  C  C4022  1  0.971400  0.758500  0.944800  1.0
  C  C4023  1  0.055200  0.241500  0.028600  1.0
  C  C4024  1  0.258500  0.555200  0.028600  1.0
  C  C4025  1  0.028600  0.758500  0.055200  1.0
  C  C4026  1  0.055200  0.528600  0.258500  1.0
  C  C4027  1  0.944800  0.758500  0.028600  1.0
  C  C4028  1  0.944800  0.471400  0.258500  1.0
  C  C4029  1  0.741500  0.444800  0.028600  1.0
  C  C4030  1  0.971400  0.241500  0.055200  1.0
  C  C4031  1  0.971400  0.555200  0.258500  1.0
  C  C4032  1  0.741500  0.528600  0.055200  1.0
  C  C4033  1  0.971400  0.944800  0.241500  1.0
  C  C4034  1  0.944800  0.741500  0.471400  1.0
  C  C4035  1  0.741500  0.971400  0.444800  1.0
  C  C4036  1  0.055200  0.971400  0.241500  1.0
  C  C4037  1  0.258500  0.944800  0.471400  1.0
  C  C4038  1  0.028600  0.741500  0.444800  1.0
  C  C4039  1  0.028600  0.055200  0.241500  1.0
  C  C4040  1  0.258500  0.971400  0.555200  1.0
  C  C4041  1  0.028600  0.944800  0.758500  1.0
  C  C4042  1  0.055200  0.258500  0.471400  1.0
  C  C4043  1  0.258500  0.028600  0.444800  1.0
  C  C4044  1  0.944800  0.028600  0.241500  1.0
  C  C4045  1  0.741500  0.055200  0.471400  1.0
  C  C4046  1  0.971400  0.258500  0.444800  1.0
  C  C4047  1  0.055200  0.741500  0.528600  1.0
  C  C4048  1  0.258500  0.055200  0.528600  1.0
  C  C4049  1  0.028600  0.258500  0.555200  1.0
  C  C4050  1  0.055200  0.028600  0.758500  1.0
  C  C4051  1  0.944800  0.258500  0.528600  1.0
  C  C4052  1  0.944800  0.971400  0.758500  1.0
  C  C4053  1  0.741500  0.944800  0.528600  1.0
  C  C4054  1  0.971400  0.741500  0.555200  1.0
  C  C4055  1  0.971400  0.055200  0.758500  1.0
  C  C4056  1  0.741500  0.028600  0.555200  1.0
  C  C4057  1  0.429300  0.347510  0.130600  1.0
  C  C4058  1  0.347510  0.130600  0.429300  1.0
  C  C4059  1  0.130600  0.429300  0.347510  1.0
  C  C4060  1  0.652490  0.429300  0.130600  1.0
  C  C4061  1  0.869400  0.347510  0.429300  1.0
  C  C4062  1  0.570700  0.130600  0.347510  1.0
  C  C4063  1  0.570700  0.652490  0.130600  1.0
  C  C4064  1  0.869400  0.429300  0.652490  1.0
  C  C4065  1  0.570700  0.347510  0.869400  1.0
  C  C4066  1  0.652490  0.869400  0.429300  1.0
  C  C4067  1  0.869400  0.570700  0.347510  1.0
  C  C4068  1  0.347510  0.570700  0.130600  1.0
  C  C4069  1  0.130600  0.652490  0.429300  1.0
  C  C4070  1  0.429300  0.869400  0.347510  1.0
  C  C4071  1  0.652490  0.130600  0.570700  1.0
  C  C4072  1  0.869400  0.652490  0.570700  1.0
  C  C4073  1  0.570700  0.869400  0.652490  1.0
  C  C4074  1  0.652490  0.570700  0.869400  1.0
  C  C4075  1  0.347510  0.869400  0.570700  1.0
  C  C4076  1  0.347510  0.429300  0.869400  1.0
  C  C4077  1  0.130600  0.347510  0.570700  1.0
  C  C4078  1  0.429300  0.130600  0.652490  1.0
  C  C4079  1  0.429300  0.652490  0.869400  1.0
  C  C4080  1  0.130600  0.570700  0.652490  1.0
  C  C4081  1  0.429300  0.847510  0.630600  1.0
  C  C4082  1  0.347510  0.630600  0.929300  1.0
  C  C4083  1  0.130600  0.929300  0.847510  1.0
  C  C4084  1  0.652490  0.929300  0.630600  1.0
  C  C4085  1  0.869400  0.847510  0.929300  1.0
  C  C4086  1  0.570700  0.630600  0.847510  1.0
  C  C4087  1  0.570700  0.152490  0.630600  1.0
  C  C4088  1  0.869400  0.929300  0.152490  1.0
  C  C4089  1  0.570700  0.847510  0.369400  1.0
  C  C4090  1  0.652490  0.369400  0.929300  1.0
  C  C4091  1  0.869400  0.070700  0.847510  1.0
  C  C4092  1  0.347510  0.070700  0.630600  1.0
  C  C4093  1  0.130600  0.152490  0.929300  1.0
  C  C4094  1  0.429300  0.369400  0.847510  1.0
  C  C4095  1  0.652490  0.630600  0.070700  1.0
  C  C4096  1  0.869400  0.152490  0.070700  1.0
  C  C4097  1  0.570700  0.369400  0.152490  1.0
  C  C4098  1  0.652490  0.070700  0.369400  1.0
  C  C4099  1  0.347510  0.369400  0.070700  1.0
  C  C4100  1  0.347510  0.929300  0.369400  1.0
  C  C4101  1  0.130600  0.847510  0.070700  1.0
  C  C4102  1  0.429300  0.630600  0.152490  1.0
  C  C4103  1  0.429300  0.152490  0.369400  1.0
  C  C4104  1  0.130600  0.070700  0.152490  1.0
  C  C4105  1  0.929300  0.347510  0.630600  1.0
  C  C4106  1  0.847510  0.130600  0.929300  1.0
  C  C4107  1  0.630600  0.429300  0.847510  1.0
  C  C4108  1  0.152490  0.429300  0.630600  1.0
  C  C4109  1  0.369400  0.347510  0.929300  1.0
  C  C4110  1  0.070700  0.130600  0.847510  1.0
  C  C4111  1  0.070700  0.652490  0.630600  1.0
  C  C4112  1  0.369400  0.429300  0.152490  1.0
  C  C4113  1  0.070700  0.347510  0.369400  1.0
  C  C4114  1  0.152490  0.869400  0.929300  1.0
  C  C4115  1  0.369400  0.570700  0.847510  1.0
  C  C4116  1  0.847510  0.570700  0.630600  1.0
  C  C4117  1  0.630600  0.652490  0.929300  1.0
  C  C4118  1  0.929300  0.869400  0.847510  1.0
  C  C4119  1  0.152490  0.130600  0.070700  1.0
  C  C4120  1  0.369400  0.652490  0.070700  1.0
  C  C4121  1  0.070700  0.869400  0.152490  1.0
  C  C4122  1  0.152490  0.570700  0.369400  1.0
  C  C4123  1  0.847510  0.869400  0.070700  1.0
  C  C4124  1  0.847510  0.429300  0.369400  1.0
  C  C4125  1  0.630600  0.347510  0.070700  1.0
  C  C4126  1  0.929300  0.130600  0.152490  1.0
  C  C4127  1  0.929300  0.652490  0.369400  1.0
  C  C4128  1  0.630600  0.570700  0.152490  1.0
  C  C4129  1  0.929300  0.847510  0.130600  1.0
  C  C4130  1  0.847510  0.630600  0.429300  1.0
  C  C4131  1  0.630600  0.929300  0.347510  1.0
  C  C4132  1  0.152490  0.929300  0.130600  1.0
  C  C4133  1  0.369400  0.847510  0.429300  1.0
  C  C4134  1  0.070700  0.630600  0.347510  1.0
  C  C4135  1  0.070700  0.152490  0.130600  1.0
  C  C4136  1  0.369400  0.929300  0.652490  1.0
  C  C4137  1  0.070700  0.847510  0.869400  1.0
  C  C4138  1  0.152490  0.369400  0.429300  1.0
  C  C4139  1  0.369400  0.070700  0.347510  1.0
  C  C4140  1  0.847510  0.070700  0.130600  1.0
  C  C4141  1  0.630600  0.152490  0.429300  1.0
  C  C4142  1  0.929300  0.369400  0.347510  1.0
  C  C4143  1  0.152490  0.630600  0.570700  1.0
  C  C4144  1  0.369400  0.152490  0.570700  1.0
  C  C4145  1  0.070700  0.369400  0.652490  1.0
  C  C4146  1  0.152490  0.070700  0.869400  1.0
  C  C4147  1  0.847510  0.369400  0.570700  1.0
  C  C4148  1  0.847510  0.929300  0.869400  1.0
  C  C4149  1  0.630600  0.847510  0.570700  1.0
  C  C4150  1  0.929300  0.630600  0.652490  1.0
  C  C4151  1  0.929300  0.152490  0.869400  1.0
  C  C4152  1  0.630600  0.070700  0.652490  1.0
  C  C4153  1  0.429300  0.326100  0.149800  1.0
  C  C4154  1  0.326100  0.149800  0.429300  1.0
  C  C4155  1  0.149800  0.429300  0.326100  1.0
  C  C4156  1  0.673900  0.429300  0.149800  1.0
  C  C4157  1  0.850200  0.326100  0.429300  1.0
  C  C4158  1  0.570700  0.149800  0.326100  1.0
  C  C4159  1  0.570700  0.673900  0.149800  1.0
  C  C4160  1  0.850200  0.429300  0.673900  1.0
  C  C4161  1  0.570700  0.326100  0.850200  1.0
  C  C4162  1  0.673900  0.850200  0.429300  1.0
  C  C4163  1  0.850200  0.570700  0.326100  1.0
  C  C4164  1  0.326100  0.570700  0.149800  1.0
  C  C4165  1  0.149800  0.673900  0.429300  1.0
  C  C4166  1  0.429300  0.850200  0.326100  1.0
  C  C4167  1  0.673900  0.149800  0.570700  1.0
  C  C4168  1  0.850200  0.673900  0.570700  1.0
  C  C4169  1  0.570700  0.850200  0.673900  1.0
  C  C4170  1  0.673900  0.570700  0.850200  1.0
  C  C4171  1  0.326100  0.850200  0.570700  1.0
  C  C4172  1  0.326100  0.429300  0.850200  1.0
  C  C4173  1  0.149800  0.326100  0.570700  1.0
  C  C4174  1  0.429300  0.149800  0.673900  1.0
  C  C4175  1  0.429300  0.673900  0.850200  1.0
  C  C4176  1  0.149800  0.570700  0.673900  1.0
  C  C4177  1  0.429300  0.826100  0.649800  1.0
  C  C4178  1  0.326100  0.649800  0.929300  1.0
  C  C4179  1  0.149800  0.929300  0.826100  1.0
  C  C4180  1  0.673900  0.929300  0.649800  1.0
  C  C4181  1  0.850200  0.826100  0.929300  1.0
  C  C4182  1  0.570700  0.649800  0.826100  1.0
  C  C4183  1  0.570700  0.173900  0.649800  1.0
  C  C4184  1  0.850200  0.929300  0.173900  1.0
  C  C4185  1  0.570700  0.826100  0.350200  1.0
  C  C4186  1  0.673900  0.350200  0.929300  1.0
  C  C4187  1  0.850200  0.070700  0.826100  1.0
  C  C4188  1  0.326100  0.070700  0.649800  1.0
  C  C4189  1  0.149800  0.173900  0.929300  1.0
  C  C4190  1  0.429300  0.350200  0.826100  1.0
  C  C4191  1  0.673900  0.649800  0.070700  1.0
  C  C4192  1  0.850200  0.173900  0.070700  1.0
  C  C4193  1  0.570700  0.350200  0.173900  1.0
  C  C4194  1  0.673900  0.070700  0.350200  1.0
  C  C4195  1  0.326100  0.350200  0.070700  1.0
  C  C4196  1  0.326100  0.929300  0.350200  1.0
  C  C4197  1  0.149800  0.826100  0.070700  1.0
  C  C4198  1  0.429300  0.649800  0.173900  1.0
  C  C4199  1  0.429300  0.173900  0.350200  1.0
  C  C4200  1  0.149800  0.070700  0.173900  1.0
  C  C4201  1  0.929300  0.326100  0.649800  1.0
  C  C4202  1  0.826100  0.149800  0.929300  1.0
  C  C4203  1  0.649800  0.429300  0.826100  1.0
  C  C4204  1  0.173900  0.429300  0.649800  1.0
  C  C4205  1  0.350200  0.326100  0.929300  1.0
  C  C4206  1  0.070700  0.149800  0.826100  1.0
  C  C4207  1  0.070700  0.673900  0.649800  1.0
  C  C4208  1  0.350200  0.429300  0.173900  1.0
  C  C4209  1  0.070700  0.326100  0.350200  1.0
  C  C4210  1  0.173900  0.850200  0.929300  1.0
  C  C4211  1  0.350200  0.570700  0.826100  1.0
  C  C4212  1  0.826100  0.570700  0.649800  1.0
  C  C4213  1  0.649800  0.673900  0.929300  1.0
  C  C4214  1  0.929300  0.850200  0.826100  1.0
  C  C4215  1  0.173900  0.149800  0.070700  1.0
  C  C4216  1  0.350200  0.673900  0.070700  1.0
  C  C4217  1  0.070700  0.850200  0.173900  1.0
  C  C4218  1  0.173900  0.570700  0.350200  1.0
  C  C4219  1  0.826100  0.850200  0.070700  1.0
  C  C4220  1  0.826100  0.429300  0.350200  1.0
  C  C4221  1  0.649800  0.326100  0.070700  1.0
  C  C4222  1  0.929300  0.149800  0.173900  1.0
  C  C4223  1  0.929300  0.673900  0.350200  1.0
  C  C4224  1  0.649800  0.570700  0.173900  1.0
  C  C4225  1  0.929300  0.826100  0.149800  1.0
  C  C4226  1  0.826100  0.649800  0.429300  1.0
  C  C4227  1  0.649800  0.929300  0.326100  1.0
  C  C4228  1  0.173900  0.929300  0.149800  1.0
  C  C4229  1  0.350200  0.826100  0.429300  1.0
  C  C4230  1  0.070700  0.649800  0.326100  1.0
  C  C4231  1  0.070700  0.173900  0.149800  1.0
  C  C4232  1  0.350200  0.929300  0.673900  1.0
  C  C4233  1  0.070700  0.826100  0.850200  1.0
  C  C4234  1  0.173900  0.350200  0.429300  1.0
  C  C4235  1  0.350200  0.070700  0.326100  1.0
  C  C4236  1  0.826100  0.070700  0.149800  1.0
  C  C4237  1  0.649800  0.173900  0.429300  1.0
  C  C4238  1  0.929300  0.350200  0.326100  1.0
  C  C4239  1  0.173900  0.649800  0.570700  1.0
  C  C4240  1  0.350200  0.173900  0.570700  1.0
  C  C4241  1  0.070700  0.350200  0.673900  1.0
  C  C4242  1  0.173900  0.070700  0.850200  1.0
  C  C4243  1  0.826100  0.350200  0.570700  1.0
  C  C4244  1  0.826100  0.929300  0.850200  1.0
  C  C4245  1  0.649800  0.826100  0.570700  1.0
  C  C4246  1  0.929300  0.649800  0.673900  1.0
  C  C4247  1  0.929300  0.173900  0.850200  1.0
  C  C4248  1  0.649800  0.070700  0.673900  1.0
  C  C4249  1  0.453400  0.310900  0.154100  1.0
  C  C4250  1  0.310900  0.154100  0.453400  1.0
  C  C4251  1  0.154100  0.453400  0.310900  1.0
  C  C4252  1  0.689100  0.453400  0.154100  1.0
  C  C4253  1  0.845900  0.310900  0.453400  1.0
  C  C4254  1  0.546600  0.154100  0.310900  1.0
  C  C4255  1  0.546600  0.689100  0.154100  1.0
  C  C4256  1  0.845900  0.453400  0.689100  1.0
  C  C4257  1  0.546600  0.310900  0.845900  1.0
  C  C4258  1  0.689100  0.845900  0.453400  1.0
  C  C4259  1  0.845900  0.546600  0.310900  1.0
  C  C4260  1  0.310900  0.546600  0.154100  1.0
  C  C4261  1  0.154100  0.689100  0.453400  1.0
  C  C4262  1  0.453400  0.845900  0.310900  1.0
  C  C4263  1  0.689100  0.154100  0.546600  1.0
  C  C4264  1  0.845900  0.689100  0.546600  1.0
  C  C4265  1  0.546600  0.845900  0.689100  1.0
  C  C4266  1  0.689100  0.546600  0.845900  1.0
  C  C4267  1  0.310900  0.845900  0.546600  1.0
  C  C4268  1  0.310900  0.453400  0.845900  1.0
  C  C4269  1  0.154100  0.310900  0.546600  1.0
  C  C4270  1  0.453400  0.154100  0.689100  1.0
  C  C4271  1  0.453400  0.689100  0.845900  1.0
  C  C4272  1  0.154100  0.546600  0.689100  1.0
  C  C4273  1  0.453400  0.810900  0.654100  1.0
  C  C4274  1  0.310900  0.654100  0.953400  1.0
  C  C4275  1  0.154100  0.953400  0.810900  1.0
  C  C4276  1  0.689100  0.953400  0.654100  1.0
  C  C4277  1  0.845900  0.810900  0.953400  1.0
  C  C4278  1  0.546600  0.654100  0.810900  1.0
  C  C4279  1  0.546600  0.189100  0.654100  1.0
  C  C4280  1  0.845900  0.953400  0.189100  1.0
  C  C4281  1  0.546600  0.810900  0.345900  1.0
  C  C4282  1  0.689100  0.345900  0.953400  1.0
  C  C4283  1  0.845900  0.046600  0.810900  1.0
  C  C4284  1  0.310900  0.046600  0.654100  1.0
  C  C4285  1  0.154100  0.189100  0.953400  1.0
  C  C4286  1  0.453400  0.345900  0.810900  1.0
  C  C4287  1  0.689100  0.654100  0.046600  1.0
  C  C4288  1  0.845900  0.189100  0.046600  1.0
  C  C4289  1  0.546600  0.345900  0.189100  1.0
  C  C4290  1  0.689100  0.046600  0.345900  1.0
  C  C4291  1  0.310900  0.345900  0.046600  1.0
  C  C4292  1  0.310900  0.953400  0.345900  1.0
  C  C4293  1  0.154100  0.810900  0.046600  1.0
  C  C4294  1  0.453400  0.654100  0.189100  1.0
  C  C4295  1  0.453400  0.189100  0.345900  1.0
  C  C4296  1  0.154100  0.046600  0.189100  1.0
  C  C4297  1  0.953400  0.310900  0.654100  1.0
  C  C4298  1  0.810900  0.154100  0.953400  1.0
  C  C4299  1  0.654100  0.453400  0.810900  1.0
  C  C4300  1  0.189100  0.453400  0.654100  1.0
  C  C4301  1  0.345900  0.310900  0.953400  1.0
  C  C4302  1  0.046600  0.154100  0.810900  1.0
  C  C4303  1  0.046600  0.689100  0.654100  1.0
  C  C4304  1  0.345900  0.453400  0.189100  1.0
  C  C4305  1  0.046600  0.310900  0.345900  1.0
  C  C4306  1  0.189100  0.845900  0.953400  1.0
  C  C4307  1  0.345900  0.546600  0.810900  1.0
  C  C4308  1  0.810900  0.546600  0.654100  1.0
  C  C4309  1  0.654100  0.689100  0.953400  1.0
  C  C4310  1  0.953400  0.845900  0.810900  1.0
  C  C4311  1  0.189100  0.154100  0.046600  1.0
  C  C4312  1  0.345900  0.689100  0.046600  1.0
  C  C4313  1  0.046600  0.845900  0.189100  1.0
  C  C4314  1  0.189100  0.546600  0.345900  1.0
  C  C4315  1  0.810900  0.845900  0.046600  1.0
  C  C4316  1  0.810900  0.453400  0.345900  1.0
  C  C4317  1  0.654100  0.310900  0.046600  1.0
  C  C4318  1  0.953400  0.154100  0.189100  1.0
  C  C4319  1  0.953400  0.689100  0.345900  1.0
  C  C4320  1  0.654100  0.546600  0.189100  1.0
  C  C4321  1  0.953400  0.810900  0.154100  1.0
  C  C4322  1  0.810900  0.654100  0.453400  1.0
  C  C4323  1  0.654100  0.953400  0.310900  1.0
  C  C4324  1  0.189100  0.953400  0.154100  1.0
  C  C4325  1  0.345900  0.810900  0.453400  1.0
  C  C4326  1  0.046600  0.654100  0.310900  1.0
  C  C4327  1  0.046600  0.189100  0.154100  1.0
  C  C4328  1  0.345900  0.953400  0.689100  1.0
  C  C4329  1  0.046600  0.810900  0.845900  1.0
  C  C4330  1  0.189100  0.345900  0.453400  1.0
  C  C4331  1  0.345900  0.046600  0.310900  1.0
  C  C4332  1  0.810900  0.046600  0.154100  1.0
  C  C4333  1  0.654100  0.189100  0.453400  1.0
  C  C4334  1  0.953400  0.345900  0.310900  1.0
  C  C4335  1  0.189100  0.654100  0.546600  1.0
  C  C4336  1  0.345900  0.189100  0.546600  1.0
  C  C4337  1  0.046600  0.345900  0.689100  1.0
  C  C4338  1  0.189100  0.046600  0.845900  1.0
  C  C4339  1  0.810900  0.345900  0.546600  1.0
  C  C4340  1  0.810900  0.953400  0.845900  1.0
  C  C4341  1  0.654100  0.810900  0.546600  1.0
  C  C4342  1  0.953400  0.654100  0.689100  1.0
  C  C4343  1  0.953400  0.189100  0.845900  1.0
  C  C4344  1  0.654100  0.046600  0.689100  1.0
  C  C4345  1  0.477450  0.315500  0.140190  1.0
  C  C4346  1  0.315500  0.140190  0.477450  1.0
  C  C4347  1  0.140190  0.477450  0.315500  1.0
  C  C4348  1  0.684500  0.477450  0.140190  1.0
  C  C4349  1  0.859810  0.315500  0.477450  1.0
  C  C4350  1  0.522550  0.140190  0.315500  1.0
  C  C4351  1  0.522550  0.684500  0.140190  1.0
  C  C4352  1  0.859810  0.477450  0.684500  1.0
  C  C4353  1  0.522550  0.315500  0.859810  1.0
  C  C4354  1  0.684500  0.859810  0.477450  1.0
  C  C4355  1  0.859810  0.522550  0.315500  1.0
  C  C4356  1  0.315500  0.522550  0.140190  1.0
  C  C4357  1  0.140190  0.684500  0.477450  1.0
  C  C4358  1  0.477450  0.859810  0.315500  1.0
  C  C4359  1  0.684500  0.140190  0.522550  1.0
  C  C4360  1  0.859810  0.684500  0.522550  1.0
  C  C4361  1  0.522550  0.859810  0.684500  1.0
  C  C4362  1  0.684500  0.522550  0.859810  1.0
  C  C4363  1  0.315500  0.859810  0.522550  1.0
  C  C4364  1  0.315500  0.477450  0.859810  1.0
  C  C4365  1  0.140190  0.315500  0.522550  1.0
  C  C4366  1  0.477450  0.140190  0.684500  1.0
  C  C4367  1  0.477450  0.684500  0.859810  1.0
  C  C4368  1  0.140190  0.522550  0.684500  1.0
  C  C4369  1  0.477450  0.815500  0.640190  1.0
  C  C4370  1  0.315500  0.640190  0.977450  1.0
  C  C4371  1  0.140190  0.977450  0.815500  1.0
  C  C4372  1  0.684500  0.977450  0.640190  1.0
  C  C4373  1  0.859810  0.815500  0.977450  1.0
  C  C4374  1  0.522550  0.640190  0.815500  1.0
  C  C4375  1  0.522550  0.184500  0.640190  1.0
  C  C4376  1  0.859810  0.977450  0.184500  1.0
  C  C4377  1  0.522550  0.815500  0.359810  1.0
  C  C4378  1  0.684500  0.359810  0.977450  1.0
  C  C4379  1  0.859810  0.022550  0.815500  1.0
  C  C4380  1  0.315500  0.022550  0.640190  1.0
  C  C4381  1  0.140190  0.184500  0.977450  1.0
  C  C4382  1  0.477450  0.359810  0.815500  1.0
  C  C4383  1  0.684500  0.640190  0.022550  1.0
  C  C4384  1  0.859810  0.184500  0.022550  1.0
  C  C4385  1  0.522550  0.359810  0.184500  1.0
  C  C4386  1  0.684500  0.022550  0.359810  1.0
  C  C4387  1  0.315500  0.359810  0.022550  1.0
  C  C4388  1  0.315500  0.977450  0.359810  1.0
  C  C4389  1  0.140190  0.815500  0.022550  1.0
  C  C4390  1  0.477450  0.640190  0.184500  1.0
  C  C4391  1  0.477450  0.184500  0.359810  1.0
  C  C4392  1  0.140190  0.022550  0.184500  1.0
  C  C4393  1  0.977450  0.315500  0.640190  1.0
  C  C4394  1  0.815500  0.140190  0.977450  1.0
  C  C4395  1  0.640190  0.477450  0.815500  1.0
  C  C4396  1  0.184500  0.477450  0.640190  1.0
  C  C4397  1  0.359810  0.315500  0.977450  1.0
  C  C4398  1  0.022550  0.140190  0.815500  1.0
  C  C4399  1  0.022550  0.684500  0.640190  1.0
  C  C4400  1  0.359810  0.477450  0.184500  1.0
  C  C4401  1  0.022550  0.315500  0.359810  1.0
  C  C4402  1  0.184500  0.859810  0.977450  1.0
  C  C4403  1  0.359810  0.522550  0.815500  1.0
  C  C4404  1  0.815500  0.522550  0.640190  1.0
  C  C4405  1  0.640190  0.684500  0.977450  1.0
  C  C4406  1  0.977450  0.859810  0.815500  1.0
  C  C4407  1  0.184500  0.140190  0.022550  1.0
  C  C4408  1  0.359810  0.684500  0.022550  1.0
  C  C4409  1  0.022550  0.859810  0.184500  1.0
  C  C4410  1  0.184500  0.522550  0.359810  1.0
  C  C4411  1  0.815500  0.859810  0.022550  1.0
  C  C4412  1  0.815500  0.477450  0.359810  1.0
  C  C4413  1  0.640190  0.315500  0.022550  1.0
  C  C4414  1  0.977450  0.140190  0.184500  1.0
  C  C4415  1  0.977450  0.684500  0.359810  1.0
  C  C4416  1  0.640190  0.522550  0.184500  1.0
  C  C4417  1  0.977450  0.815500  0.140190  1.0
  C  C4418  1  0.815500  0.640190  0.477450  1.0
  C  C4419  1  0.640190  0.977450  0.315500  1.0
  C  C4420  1  0.184500  0.977450  0.140190  1.0
  C  C4421  1  0.359810  0.815500  0.477450  1.0
  C  C4422  1  0.022550  0.640190  0.315500  1.0
  C  C4423  1  0.022550  0.184500  0.140190  1.0
  C  C4424  1  0.359810  0.977450  0.684500  1.0
  C  C4425  1  0.022550  0.815500  0.859810  1.0
  C  C4426  1  0.184500  0.359810  0.477450  1.0
  C  C4427  1  0.359810  0.022550  0.315500  1.0
  C  C4428  1  0.815500  0.022550  0.140190  1.0
  C  C4429  1  0.640190  0.184500  0.477450  1.0
  C  C4430  1  0.977450  0.359810  0.315500  1.0
  C  C4431  1  0.184500  0.640190  0.522550  1.0
  C  C4432  1  0.359810  0.184500  0.522550  1.0
  C  C4433  1  0.022550  0.359810  0.684500  1.0
  C  C4434  1  0.184500  0.022550  0.859810  1.0
  C  C4435  1  0.815500  0.359810  0.522550  1.0
  C  C4436  1  0.815500  0.977450  0.859810  1.0
  C  C4437  1  0.640190  0.815500  0.522550  1.0
  C  C4438  1  0.977450  0.640190  0.684500  1.0
  C  C4439  1  0.977450  0.184500  0.859810  1.0
  C  C4440  1  0.640190  0.022550  0.684500  1.0
  C  C4441  1  0.477500  0.335800  0.121500  1.0
  C  C4442  1  0.335800  0.121500  0.477500  1.0
  C  C4443  1  0.121500  0.477500  0.335800  1.0
  C  C4444  1  0.664200  0.477500  0.121500  1.0
  C  C4445  1  0.878500  0.335800  0.477500  1.0
  C  C4446  1  0.522500  0.121500  0.335800  1.0
  C  C4447  1  0.522500  0.664200  0.121500  1.0
  C  C4448  1  0.878500  0.477500  0.664200  1.0
  C  C4449  1  0.522500  0.335800  0.878500  1.0
  C  C4450  1  0.664200  0.878500  0.477500  1.0
  C  C4451  1  0.878500  0.522500  0.335800  1.0
  C  C4452  1  0.335800  0.522500  0.121500  1.0
  C  C4453  1  0.121500  0.664200  0.477500  1.0
  C  C4454  1  0.477500  0.878500  0.335800  1.0
  C  C4455  1  0.664200  0.121500  0.522500  1.0
  C  C4456  1  0.878500  0.664200  0.522500  1.0
  C  C4457  1  0.522500  0.878500  0.664200  1.0
  C  C4458  1  0.664200  0.522500  0.878500  1.0
  C  C4459  1  0.335800  0.878500  0.522500  1.0
  C  C4460  1  0.335800  0.477500  0.878500  1.0
  C  C4461  1  0.121500  0.335800  0.522500  1.0
  C  C4462  1  0.477500  0.121500  0.664200  1.0
  C  C4463  1  0.477500  0.664200  0.878500  1.0
  C  C4464  1  0.121500  0.522500  0.664200  1.0
  C  C4465  1  0.477500  0.835800  0.621500  1.0
  C  C4466  1  0.335800  0.621500  0.977500  1.0
  C  C4467  1  0.121500  0.977500  0.835800  1.0
  C  C4468  1  0.664200  0.977500  0.621500  1.0
  C  C4469  1  0.878500  0.835800  0.977500  1.0
  C  C4470  1  0.522500  0.621500  0.835800  1.0
  C  C4471  1  0.522500  0.164200  0.621500  1.0
  C  C4472  1  0.878500  0.977500  0.164200  1.0
  C  C4473  1  0.522500  0.835800  0.378500  1.0
  C  C4474  1  0.664200  0.378500  0.977500  1.0
  C  C4475  1  0.878500  0.022500  0.835800  1.0
  C  C4476  1  0.335800  0.022500  0.621500  1.0
  C  C4477  1  0.121500  0.164200  0.977500  1.0
  C  C4478  1  0.477500  0.378500  0.835800  1.0
  C  C4479  1  0.664200  0.621500  0.022500  1.0
  C  C4480  1  0.878500  0.164200  0.022500  1.0
  C  C4481  1  0.522500  0.378500  0.164200  1.0
  C  C4482  1  0.664200  0.022500  0.378500  1.0
  C  C4483  1  0.335800  0.378500  0.022500  1.0
  C  C4484  1  0.335800  0.977500  0.378500  1.0
  C  C4485  1  0.121500  0.835800  0.022500  1.0
  C  C4486  1  0.477500  0.621500  0.164200  1.0
  C  C4487  1  0.477500  0.164200  0.378500  1.0
  C  C4488  1  0.121500  0.022500  0.164200  1.0
  C  C4489  1  0.977500  0.335800  0.621500  1.0
  C  C4490  1  0.835800  0.121500  0.977500  1.0
  C  C4491  1  0.621500  0.477500  0.835800  1.0
  C  C4492  1  0.164200  0.477500  0.621500  1.0
  C  C4493  1  0.378500  0.335800  0.977500  1.0
  C  C4494  1  0.022500  0.121500  0.835800  1.0
  C  C4495  1  0.022500  0.664200  0.621500  1.0
  C  C4496  1  0.378500  0.477500  0.164200  1.0
  C  C4497  1  0.022500  0.335800  0.378500  1.0
  C  C4498  1  0.164200  0.878500  0.977500  1.0
  C  C4499  1  0.378500  0.522500  0.835800  1.0
  C  C4500  1  0.835800  0.522500  0.621500  1.0
  C  C4501  1  0.621500  0.664200  0.977500  1.0
  C  C4502  1  0.977500  0.878500  0.835800  1.0
  C  C4503  1  0.164200  0.121500  0.022500  1.0
  C  C4504  1  0.378500  0.664200  0.022500  1.0
  C  C4505  1  0.022500  0.878500  0.164200  1.0
  C  C4506  1  0.164200  0.522500  0.378500  1.0
  C  C4507  1  0.835800  0.878500  0.022500  1.0
  C  C4508  1  0.835800  0.477500  0.378500  1.0
  C  C4509  1  0.621500  0.335800  0.022500  1.0
  C  C4510  1  0.977500  0.121500  0.164200  1.0
  C  C4511  1  0.977500  0.664200  0.378500  1.0
  C  C4512  1  0.621500  0.522500  0.164200  1.0
  C  C4513  1  0.977500  0.835800  0.121500  1.0
  C  C4514  1  0.835800  0.621500  0.477500  1.0
  C  C4515  1  0.621500  0.977500  0.335800  1.0
  C  C4516  1  0.164200  0.977500  0.121500  1.0
  C  C4517  1  0.378500  0.835800  0.477500  1.0
  C  C4518  1  0.022500  0.621500  0.335800  1.0
  C  C4519  1  0.022500  0.164200  0.121500  1.0
  C  C4520  1  0.378500  0.977500  0.664200  1.0
  C  C4521  1  0.022500  0.835800  0.878500  1.0
  C  C4522  1  0.164200  0.378500  0.477500  1.0
  C  C4523  1  0.378500  0.022500  0.335800  1.0
  C  C4524  1  0.835800  0.022500  0.121500  1.0
  C  C4525  1  0.621500  0.164200  0.477500  1.0
  C  C4526  1  0.977500  0.378500  0.335800  1.0
  C  C4527  1  0.164200  0.621500  0.522500  1.0
  C  C4528  1  0.378500  0.164200  0.522500  1.0
  C  C4529  1  0.022500  0.378500  0.664200  1.0
  C  C4530  1  0.164200  0.022500  0.878500  1.0
  C  C4531  1  0.835800  0.378500  0.522500  1.0
  C  C4532  1  0.835800  0.977500  0.878500  1.0
  C  C4533  1  0.621500  0.835800  0.522500  1.0
  C  C4534  1  0.977500  0.621500  0.664200  1.0
  C  C4535  1  0.977500  0.164200  0.878500  1.0
  C  C4536  1  0.621500  0.022500  0.664200  1.0
  C  C4537  1  0.453800  0.352300  0.116100  1.0
  C  C4538  1  0.352300  0.116100  0.453800  1.0
  C  C4539  1  0.116100  0.453800  0.352300  1.0
  C  C4540  1  0.647700  0.453800  0.116100  1.0
  C  C4541  1  0.883900  0.352300  0.453800  1.0
  C  C4542  1  0.546200  0.116100  0.352300  1.0
  C  C4543  1  0.546200  0.647700  0.116100  1.0
  C  C4544  1  0.883900  0.453800  0.647700  1.0
  C  C4545  1  0.546200  0.352300  0.883900  1.0
  C  C4546  1  0.647700  0.883900  0.453800  1.0
  C  C4547  1  0.883900  0.546200  0.352300  1.0
  C  C4548  1  0.352300  0.546200  0.116100  1.0
  C  C4549  1  0.116100  0.647700  0.453800  1.0
  C  C4550  1  0.453800  0.883900  0.352300  1.0
  C  C4551  1  0.647700  0.116100  0.546200  1.0
  C  C4552  1  0.883900  0.647700  0.546200  1.0
  C  C4553  1  0.546200  0.883900  0.647700  1.0
  C  C4554  1  0.647700  0.546200  0.883900  1.0
  C  C4555  1  0.352300  0.883900  0.546200  1.0
  C  C4556  1  0.352300  0.453800  0.883900  1.0
  C  C4557  1  0.116100  0.352300  0.546200  1.0
  C  C4558  1  0.453800  0.116100  0.647700  1.0
  C  C4559  1  0.453800  0.647700  0.883900  1.0
  C  C4560  1  0.116100  0.546200  0.647700  1.0
  C  C4561  1  0.453800  0.852300  0.616100  1.0
  C  C4562  1  0.352300  0.616100  0.953800  1.0
  C  C4563  1  0.116100  0.953800  0.852300  1.0
  C  C4564  1  0.647700  0.953800  0.616100  1.0
  C  C4565  1  0.883900  0.852300  0.953800  1.0
  C  C4566  1  0.546200  0.616100  0.852300  1.0
  C  C4567  1  0.546200  0.147700  0.616100  1.0
  C  C4568  1  0.883900  0.953800  0.147700  1.0
  C  C4569  1  0.546200  0.852300  0.383900  1.0
  C  C4570  1  0.647700  0.383900  0.953800  1.0
  C  C4571  1  0.883900  0.046200  0.852300  1.0
  C  C4572  1  0.352300  0.046200  0.616100  1.0
  C  C4573  1  0.116100  0.147700  0.953800  1.0
  C  C4574  1  0.453800  0.383900  0.852300  1.0
  C  C4575  1  0.647700  0.616100  0.046200  1.0
  C  C4576  1  0.883900  0.147700  0.046200  1.0
  C  C4577  1  0.546200  0.383900  0.147700  1.0
  C  C4578  1  0.647700  0.046200  0.383900  1.0
  C  C4579  1  0.352300  0.383900  0.046200  1.0
  C  C4580  1  0.352300  0.953800  0.383900  1.0
  C  C4581  1  0.116100  0.852300  0.046200  1.0
  C  C4582  1  0.453800  0.616100  0.147700  1.0
  C  C4583  1  0.453800  0.147700  0.383900  1.0
  C  C4584  1  0.116100  0.046200  0.147700  1.0
  C  C4585  1  0.953800  0.352300  0.616100  1.0
  C  C4586  1  0.852300  0.116100  0.953800  1.0
  C  C4587  1  0.616100  0.453800  0.852300  1.0
  C  C4588  1  0.147700  0.453800  0.616100  1.0
  C  C4589  1  0.383900  0.352300  0.953800  1.0
  C  C4590  1  0.046200  0.116100  0.852300  1.0
  C  C4591  1  0.046200  0.647700  0.616100  1.0
  C  C4592  1  0.383900  0.453800  0.147700  1.0
  C  C4593  1  0.046200  0.352300  0.383900  1.0
  C  C4594  1  0.147700  0.883900  0.953800  1.0
  C  C4595  1  0.383900  0.546200  0.852300  1.0
  C  C4596  1  0.852300  0.546200  0.616100  1.0
  C  C4597  1  0.616100  0.647700  0.953800  1.0
  C  C4598  1  0.953800  0.883900  0.852300  1.0
  C  C4599  1  0.147700  0.116100  0.046200  1.0
  C  C4600  1  0.383900  0.647700  0.046200  1.0
  C  C4601  1  0.046200  0.883900  0.147700  1.0
  C  C4602  1  0.147700  0.546200  0.383900  1.0
  C  C4603  1  0.852300  0.883900  0.046200  1.0
  C  C4604  1  0.852300  0.453800  0.383900  1.0
  C  C4605  1  0.616100  0.352300  0.046200  1.0
  C  C4606  1  0.953800  0.116100  0.147700  1.0
  C  C4607  1  0.953800  0.647700  0.383900  1.0
  C  C4608  1  0.616100  0.546200  0.147700  1.0
  C  C4609  1  0.953800  0.852300  0.116100  1.0
  C  C4610  1  0.852300  0.616100  0.453800  1.0
  C  C4611  1  0.616100  0.953800  0.352300  1.0
  C  C4612  1  0.147700  0.953800  0.116100  1.0
  C  C4613  1  0.383900  0.852300  0.453800  1.0
  C  C4614  1  0.046200  0.616100  0.352300  1.0
  C  C4615  1  0.046200  0.147700  0.116100  1.0
  C  C4616  1  0.383900  0.953800  0.647700  1.0
  C  C4617  1  0.046200  0.852300  0.883900  1.0
  C  C4618  1  0.147700  0.383900  0.453800  1.0
  C  C4619  1  0.383900  0.046200  0.352300  1.0
  C  C4620  1  0.852300  0.046200  0.116100  1.0
  C  C4621  1  0.616100  0.147700  0.453800  1.0
  C  C4622  1  0.953800  0.383900  0.352300  1.0
  C  C4623  1  0.147700  0.616100  0.546200  1.0
  C  C4624  1  0.383900  0.147700  0.546200  1.0
  C  C4625  1  0.046200  0.383900  0.647700  1.0
  C  C4626  1  0.147700  0.046200  0.883900  1.0
  C  C4627  1  0.852300  0.383900  0.546200  1.0
  C  C4628  1  0.852300  0.953800  0.883900  1.0
  C  C4629  1  0.616100  0.852300  0.546200  1.0
  C  C4630  1  0.953800  0.616100  0.647700  1.0
  C  C4631  1  0.953800  0.147700  0.883900  1.0
  C  C4632  1  0.616100  0.046200  0.647700  1.0
  C  C4633  1  0.503600  0.299900  0.144800  1.0
  C  C4634  1  0.299900  0.144800  0.503600  1.0
  C  C4635  1  0.144800  0.503600  0.299900  1.0
  C  C4636  1  0.700100  0.503600  0.144800  1.0
  C  C4637  1  0.855200  0.299900  0.503600  1.0
  C  C4638  1  0.496400  0.144800  0.299900  1.0
  C  C4639  1  0.496400  0.700100  0.144800  1.0
  C  C4640  1  0.855200  0.503600  0.700100  1.0
  C  C4641  1  0.496400  0.299900  0.855200  1.0
  C  C4642  1  0.700100  0.855200  0.503600  1.0
  C  C4643  1  0.855200  0.496400  0.299900  1.0
  C  C4644  1  0.299900  0.496400  0.144800  1.0
  C  C4645  1  0.144800  0.700100  0.503600  1.0
  C  C4646  1  0.503600  0.855200  0.299900  1.0
  C  C4647  1  0.700100  0.144800  0.496400  1.0
  C  C4648  1  0.855200  0.700100  0.496400  1.0
  C  C4649  1  0.496400  0.855200  0.700100  1.0
  C  C4650  1  0.700100  0.496400  0.855200  1.0
  C  C4651  1  0.299900  0.855200  0.496400  1.0
  C  C4652  1  0.299900  0.503600  0.855200  1.0
  C  C4653  1  0.144800  0.299900  0.496400  1.0
  C  C4654  1  0.503600  0.144800  0.700100  1.0
  C  C4655  1  0.503600  0.700100  0.855200  1.0
  C  C4656  1  0.144800  0.496400  0.700100  1.0
  C  C4657  1  0.503600  0.799900  0.644800  1.0
  C  C4658  1  0.299900  0.644800  0.003600  1.0
  C  C4659  1  0.144800  0.003600  0.799900  1.0
  C  C4660  1  0.700100  0.003600  0.644800  1.0
  C  C4661  1  0.855200  0.799900  0.003600  1.0
  C  C4662  1  0.496400  0.644800  0.799900  1.0
  C  C4663  1  0.496400  0.200100  0.644800  1.0
  C  C4664  1  0.855200  0.003600  0.200100  1.0
  C  C4665  1  0.496400  0.799900  0.355200  1.0
  C  C4666  1  0.700100  0.355200  0.003600  1.0
  C  C4667  1  0.855200  0.996400  0.799900  1.0
  C  C4668  1  0.299900  0.996400  0.644800  1.0
  C  C4669  1  0.144800  0.200100  0.003600  1.0
  C  C4670  1  0.503600  0.355200  0.799900  1.0
  C  C4671  1  0.700100  0.644800  0.996400  1.0
  C  C4672  1  0.855200  0.200100  0.996400  1.0
  C  C4673  1  0.496400  0.355200  0.200100  1.0
  C  C4674  1  0.700100  0.996400  0.355200  1.0
  C  C4675  1  0.299900  0.355200  0.996400  1.0
  C  C4676  1  0.299900  0.003600  0.355200  1.0
  C  C4677  1  0.144800  0.799900  0.996400  1.0
  C  C4678  1  0.503600  0.644800  0.200100  1.0
  C  C4679  1  0.503600  0.200100  0.355200  1.0
  C  C4680  1  0.144800  0.996400  0.200100  1.0
  C  C4681  1  0.003600  0.299900  0.644800  1.0
  C  C4682  1  0.799900  0.144800  0.003600  1.0
  C  C4683  1  0.644800  0.503600  0.799900  1.0
  C  C4684  1  0.200100  0.503600  0.644800  1.0
  C  C4685  1  0.355200  0.299900  0.003600  1.0
  C  C4686  1  0.996400  0.144800  0.799900  1.0
  C  C4687  1  0.996400  0.700100  0.644800  1.0
  C  C4688  1  0.355200  0.503600  0.200100  1.0
  C  C4689  1  0.996400  0.299900  0.355200  1.0
  C  C4690  1  0.200100  0.855200  0.003600  1.0
  C  C4691  1  0.355200  0.496400  0.799900  1.0
  C  C4692  1  0.799900  0.496400  0.644800  1.0
  C  C4693  1  0.644800  0.700100  0.003600  1.0
  C  C4694  1  0.003600  0.855200  0.799900  1.0
  C  C4695  1  0.200100  0.144800  0.996400  1.0
  C  C4696  1  0.355200  0.700100  0.996400  1.0
  C  C4697  1  0.996400  0.855200  0.200100  1.0
  C  C4698  1  0.200100  0.496400  0.355200  1.0
  C  C4699  1  0.799900  0.855200  0.996400  1.0
  C  C4700  1  0.799900  0.503600  0.355200  1.0
  C  C4701  1  0.644800  0.299900  0.996400  1.0
  C  C4702  1  0.003600  0.144800  0.200100  1.0
  C  C4703  1  0.003600  0.700100  0.355200  1.0
  C  C4704  1  0.644800  0.496400  0.200100  1.0
  C  C4705  1  0.003600  0.799900  0.144800  1.0
  C  C4706  1  0.799900  0.644800  0.503600  1.0
  C  C4707  1  0.644800  0.003600  0.299900  1.0
  C  C4708  1  0.200100  0.003600  0.144800  1.0
  C  C4709  1  0.355200  0.799900  0.503600  1.0
  C  C4710  1  0.996400  0.644800  0.299900  1.0
  C  C4711  1  0.996400  0.200100  0.144800  1.0
  C  C4712  1  0.355200  0.003600  0.700100  1.0
  C  C4713  1  0.996400  0.799900  0.855200  1.0
  C  C4714  1  0.200100  0.355200  0.503600  1.0
  C  C4715  1  0.355200  0.996400  0.299900  1.0
  C  C4716  1  0.799900  0.996400  0.144800  1.0
  C  C4717  1  0.644800  0.200100  0.503600  1.0
  C  C4718  1  0.003600  0.355200  0.299900  1.0
  C  C4719  1  0.200100  0.644800  0.496400  1.0
  C  C4720  1  0.355200  0.200100  0.496400  1.0
  C  C4721  1  0.996400  0.355200  0.700100  1.0
  C  C4722  1  0.200100  0.996400  0.855200  1.0
  C  C4723  1  0.799900  0.355200  0.496400  1.0
  C  C4724  1  0.799900  0.003600  0.855200  1.0
  C  C4725  1  0.644800  0.799900  0.496400  1.0
  C  C4726  1  0.003600  0.644800  0.700100  1.0
  C  C4727  1  0.003600  0.200100  0.855200  1.0
  C  C4728  1  0.644800  0.996400  0.700100  1.0
  C  C4729  1  0.385050  0.355380  0.345670  1.0
  C  C4730  1  0.355380  0.345670  0.385050  1.0
  C  C4731  1  0.345670  0.385050  0.355380  1.0
  C  C4732  1  0.644620  0.385050  0.345670  1.0
  C  C4733  1  0.654330  0.355380  0.385050  1.0
  C  C4734  1  0.614950  0.345670  0.355380  1.0
  C  C4735  1  0.614950  0.644620  0.345670  1.0
  C  C4736  1  0.654330  0.385050  0.644620  1.0
  C  C4737  1  0.614950  0.355380  0.654330  1.0
  C  C4738  1  0.644620  0.654330  0.385050  1.0
  C  C4739  1  0.654330  0.614950  0.355380  1.0
  C  C4740  1  0.355380  0.614950  0.345670  1.0
  C  C4741  1  0.345670  0.644620  0.385050  1.0
  C  C4742  1  0.385050  0.654330  0.355380  1.0
  C  C4743  1  0.644620  0.345670  0.614950  1.0
  C  C4744  1  0.654330  0.644620  0.614950  1.0
  C  C4745  1  0.614950  0.654330  0.644620  1.0
  C  C4746  1  0.644620  0.614950  0.654330  1.0
  C  C4747  1  0.355380  0.654330  0.614950  1.0
  C  C4748  1  0.355380  0.385050  0.654330  1.0
  C  C4749  1  0.345670  0.355380  0.614950  1.0
  C  C4750  1  0.385050  0.345670  0.644620  1.0
  C  C4751  1  0.385050  0.644620  0.654330  1.0
  C  C4752  1  0.345670  0.614950  0.644620  1.0
  C  C4753  1  0.385050  0.855380  0.845670  1.0
  C  C4754  1  0.355380  0.845670  0.885050  1.0
  C  C4755  1  0.345670  0.885050  0.855380  1.0
  C  C4756  1  0.644620  0.885050  0.845670  1.0
  C  C4757  1  0.654330  0.855380  0.885050  1.0
  C  C4758  1  0.614950  0.845670  0.855380  1.0
  C  C4759  1  0.614950  0.144620  0.845670  1.0
  C  C4760  1  0.654330  0.885050  0.144620  1.0
  C  C4761  1  0.614950  0.855380  0.154330  1.0
  C  C4762  1  0.644620  0.154330  0.885050  1.0
  C  C4763  1  0.654330  0.114950  0.855380  1.0
  C  C4764  1  0.355380  0.114950  0.845670  1.0
  C  C4765  1  0.345670  0.144620  0.885050  1.0
  C  C4766  1  0.385050  0.154330  0.855380  1.0
  C  C4767  1  0.644620  0.845670  0.114950  1.0
  C  C4768  1  0.654330  0.144620  0.114950  1.0
  C  C4769  1  0.614950  0.154330  0.144620  1.0
  C  C4770  1  0.644620  0.114950  0.154330  1.0
  C  C4771  1  0.355380  0.154330  0.114950  1.0
  C  C4772  1  0.355380  0.885050  0.154330  1.0
  C  C4773  1  0.345670  0.855380  0.114950  1.0
  C  C4774  1  0.385050  0.845670  0.144620  1.0
  C  C4775  1  0.385050  0.144620  0.154330  1.0
  C  C4776  1  0.345670  0.114950  0.144620  1.0
  C  C4777  1  0.885050  0.355380  0.845670  1.0
  C  C4778  1  0.855380  0.345670  0.885050  1.0
  C  C4779  1  0.845670  0.385050  0.855380  1.0
  C  C4780  1  0.144620  0.385050  0.845670  1.0
  C  C4781  1  0.154330  0.355380  0.885050  1.0
  C  C4782  1  0.114950  0.345670  0.855380  1.0
  C  C4783  1  0.114950  0.644620  0.845670  1.0
  C  C4784  1  0.154330  0.385050  0.144620  1.0
  C  C4785  1  0.114950  0.355380  0.154330  1.0
  C  C4786  1  0.144620  0.654330  0.885050  1.0
  C  C4787  1  0.154330  0.614950  0.855380  1.0
  C  C4788  1  0.855380  0.614950  0.845670  1.0
  C  C4789  1  0.845670  0.644620  0.885050  1.0
  C  C4790  1  0.885050  0.654330  0.855380  1.0
  C  C4791  1  0.144620  0.345670  0.114950  1.0
  C  C4792  1  0.154330  0.644620  0.114950  1.0
  C  C4793  1  0.114950  0.654330  0.144620  1.0
  C  C4794  1  0.144620  0.614950  0.154330  1.0
  C  C4795  1  0.855380  0.654330  0.114950  1.0
  C  C4796  1  0.855380  0.385050  0.154330  1.0
  C  C4797  1  0.845670  0.355380  0.114950  1.0
  C  C4798  1  0.885050  0.345670  0.144620  1.0
  C  C4799  1  0.885050  0.644620  0.154330  1.0
  C  C4800  1  0.845670  0.614950  0.144620  1.0
  C  C4801  1  0.885050  0.855380  0.345670  1.0
  C  C4802  1  0.855380  0.845670  0.385050  1.0
  C  C4803  1  0.845670  0.885050  0.355380  1.0
  C  C4804  1  0.144620  0.885050  0.345670  1.0
  C  C4805  1  0.154330  0.855380  0.385050  1.0
  C  C4806  1  0.114950  0.845670  0.355380  1.0
  C  C4807  1  0.114950  0.144620  0.345670  1.0
  C  C4808  1  0.154330  0.885050  0.644620  1.0
  C  C4809  1  0.114950  0.855380  0.654330  1.0
  C  C4810  1  0.144620  0.154330  0.385050  1.0
  C  C4811  1  0.154330  0.114950  0.355380  1.0
  C  C4812  1  0.855380  0.114950  0.345670  1.0
  C  C4813  1  0.845670  0.144620  0.385050  1.0
  C  C4814  1  0.885050  0.154330  0.355380  1.0
  C  C4815  1  0.144620  0.845670  0.614950  1.0
  C  C4816  1  0.154330  0.144620  0.614950  1.0
  C  C4817  1  0.114950  0.154330  0.644620  1.0
  C  C4818  1  0.144620  0.114950  0.654330  1.0
  C  C4819  1  0.855380  0.154330  0.614950  1.0
  C  C4820  1  0.855380  0.885050  0.654330  1.0
  C  C4821  1  0.845670  0.855380  0.614950  1.0
  C  C4822  1  0.885050  0.845670  0.644620  1.0
  C  C4823  1  0.885050  0.144620  0.654330  1.0
  C  C4824  1  0.845670  0.114950  0.644620  1.0
  C  C4825  1  0.368600  0.378520  0.339210  1.0
  C  C4826  1  0.378520  0.339210  0.368600  1.0
  C  C4827  1  0.339210  0.368600  0.378520  1.0
  C  C4828  1  0.621480  0.368600  0.339210  1.0
  C  C4829  1  0.660790  0.378520  0.368600  1.0
  C  C4830  1  0.631400  0.339210  0.378520  1.0
  C  C4831  1  0.631400  0.621480  0.339210  1.0
  C  C4832  1  0.660790  0.368600  0.621480  1.0
  C  C4833  1  0.631400  0.378520  0.660790  1.0
  C  C4834  1  0.621480  0.660790  0.368600  1.0
  C  C4835  1  0.660790  0.631400  0.378520  1.0
  C  C4836  1  0.378520  0.631400  0.339210  1.0
  C  C4837  1  0.339210  0.621480  0.368600  1.0
  C  C4838  1  0.368600  0.660790  0.378520  1.0
  C  C4839  1  0.621480  0.339210  0.631400  1.0
  C  C4840  1  0.660790  0.621480  0.631400  1.0
  C  C4841  1  0.631400  0.660790  0.621480  1.0
  C  C4842  1  0.621480  0.631400  0.660790  1.0
  C  C4843  1  0.378520  0.660790  0.631400  1.0
  C  C4844  1  0.378520  0.368600  0.660790  1.0
  C  C4845  1  0.339210  0.378520  0.631400  1.0
  C  C4846  1  0.368600  0.339210  0.621480  1.0
  C  C4847  1  0.368600  0.621480  0.660790  1.0
  C  C4848  1  0.339210  0.631400  0.621480  1.0
  C  C4849  1  0.368600  0.878520  0.839210  1.0
  C  C4850  1  0.378520  0.839210  0.868600  1.0
  C  C4851  1  0.339210  0.868600  0.878520  1.0
  C  C4852  1  0.621480  0.868600  0.839210  1.0
  C  C4853  1  0.660790  0.878520  0.868600  1.0
  C  C4854  1  0.631400  0.839210  0.878520  1.0
  C  C4855  1  0.631400  0.121480  0.839210  1.0
  C  C4856  1  0.660790  0.868600  0.121480  1.0
  C  C4857  1  0.631400  0.878520  0.160790  1.0
  C  C4858  1  0.621480  0.160790  0.868600  1.0
  C  C4859  1  0.660790  0.131400  0.878520  1.0
  C  C4860  1  0.378520  0.131400  0.839210  1.0
  C  C4861  1  0.339210  0.121480  0.868600  1.0
  C  C4862  1  0.368600  0.160790  0.878520  1.0
  C  C4863  1  0.621480  0.839210  0.131400  1.0
  C  C4864  1  0.660790  0.121480  0.131400  1.0
  C  C4865  1  0.631400  0.160790  0.121480  1.0
  C  C4866  1  0.621480  0.131400  0.160790  1.0
  C  C4867  1  0.378520  0.160790  0.131400  1.0
  C  C4868  1  0.378520  0.868600  0.160790  1.0
  C  C4869  1  0.339210  0.878520  0.131400  1.0
  C  C4870  1  0.368600  0.839210  0.121480  1.0
  C  C4871  1  0.368600  0.121480  0.160790  1.0
  C  C4872  1  0.339210  0.131400  0.121480  1.0
  C  C4873  1  0.868600  0.378520  0.839210  1.0
  C  C4874  1  0.878520  0.339210  0.868600  1.0
  C  C4875  1  0.839210  0.368600  0.878520  1.0
  C  C4876  1  0.121480  0.368600  0.839210  1.0
  C  C4877  1  0.160790  0.378520  0.868600  1.0
  C  C4878  1  0.131400  0.339210  0.878520  1.0
  C  C4879  1  0.131400  0.621480  0.839210  1.0
  C  C4880  1  0.160790  0.368600  0.121480  1.0
  C  C4881  1  0.131400  0.378520  0.160790  1.0
  C  C4882  1  0.121480  0.660790  0.868600  1.0
  C  C4883  1  0.160790  0.631400  0.878520  1.0
  C  C4884  1  0.878520  0.631400  0.839210  1.0
  C  C4885  1  0.839210  0.621480  0.868600  1.0
  C  C4886  1  0.868600  0.660790  0.878520  1.0
  C  C4887  1  0.121480  0.339210  0.131400  1.0
  C  C4888  1  0.160790  0.621480  0.131400  1.0
  C  C4889  1  0.131400  0.660790  0.121480  1.0
  C  C4890  1  0.121480  0.631400  0.160790  1.0
  C  C4891  1  0.878520  0.660790  0.131400  1.0
  C  C4892  1  0.878520  0.368600  0.160790  1.0
  C  C4893  1  0.839210  0.378520  0.131400  1.0
  C  C4894  1  0.868600  0.339210  0.121480  1.0
  C  C4895  1  0.868600  0.621480  0.160790  1.0
  C  C4896  1  0.839210  0.631400  0.121480  1.0
  C  C4897  1  0.868600  0.878520  0.339210  1.0
  C  C4898  1  0.878520  0.839210  0.368600  1.0
  C  C4899  1  0.839210  0.868600  0.378520  1.0
  C  C4900  1  0.121480  0.868600  0.339210  1.0
  C  C4901  1  0.160790  0.878520  0.368600  1.0
  C  C4902  1  0.131400  0.839210  0.378520  1.0
  C  C4903  1  0.131400  0.121480  0.339210  1.0
  C  C4904  1  0.160790  0.868600  0.621480  1.0
  C  C4905  1  0.131400  0.878520  0.660790  1.0
  C  C4906  1  0.121480  0.160790  0.368600  1.0
  C  C4907  1  0.160790  0.131400  0.378520  1.0
  C  C4908  1  0.878520  0.131400  0.339210  1.0
  C  C4909  1  0.839210  0.121480  0.368600  1.0
  C  C4910  1  0.868600  0.160790  0.378520  1.0
  C  C4911  1  0.121480  0.839210  0.631400  1.0
  C  C4912  1  0.160790  0.121480  0.631400  1.0
  C  C4913  1  0.131400  0.160790  0.621480  1.0
  C  C4914  1  0.121480  0.131400  0.660790  1.0
  C  C4915  1  0.878520  0.160790  0.631400  1.0
  C  C4916  1  0.878520  0.868600  0.660790  1.0
  C  C4917  1  0.839210  0.878520  0.631400  1.0
  C  C4918  1  0.868600  0.839210  0.621480  1.0
  C  C4919  1  0.868600  0.121480  0.660790  1.0
  C  C4920  1  0.839210  0.131400  0.621480  1.0
  C  C4921  1  0.410100  0.348600  0.328000  1.0
  C  C4922  1  0.348600  0.328000  0.410100  1.0
  C  C4923  1  0.328000  0.410100  0.348600  1.0
  C  C4924  1  0.651400  0.410100  0.328000  1.0
  C  C4925  1  0.672000  0.348600  0.410100  1.0
  C  C4926  1  0.589900  0.328000  0.348600  1.0
  C  C4927  1  0.589900  0.651400  0.328000  1.0
  C  C4928  1  0.672000  0.410100  0.651400  1.0
  C  C4929  1  0.589900  0.348600  0.672000  1.0
  C  C4930  1  0.651400  0.672000  0.410100  1.0
  C  C4931  1  0.672000  0.589900  0.348600  1.0
  C  C4932  1  0.348600  0.589900  0.328000  1.0
  C  C4933  1  0.328000  0.651400  0.410100  1.0
  C  C4934  1  0.410100  0.672000  0.348600  1.0
  C  C4935  1  0.651400  0.328000  0.589900  1.0
  C  C4936  1  0.672000  0.651400  0.589900  1.0
  C  C4937  1  0.589900  0.672000  0.651400  1.0
  C  C4938  1  0.651400  0.589900  0.672000  1.0
  C  C4939  1  0.348600  0.672000  0.589900  1.0
  C  C4940  1  0.348600  0.410100  0.672000  1.0
  C  C4941  1  0.328000  0.348600  0.589900  1.0
  C  C4942  1  0.410100  0.328000  0.651400  1.0
  C  C4943  1  0.410100  0.651400  0.672000  1.0
  C  C4944  1  0.328000  0.589900  0.651400  1.0
  C  C4945  1  0.410100  0.848600  0.828000  1.0
  C  C4946  1  0.348600  0.828000  0.910100  1.0
  C  C4947  1  0.328000  0.910100  0.848600  1.0
  C  C4948  1  0.651400  0.910100  0.828000  1.0
  C  C4949  1  0.672000  0.848600  0.910100  1.0
  C  C4950  1  0.589900  0.828000  0.848600  1.0
  C  C4951  1  0.589900  0.151400  0.828000  1.0
  C  C4952  1  0.672000  0.910100  0.151400  1.0
  C  C4953  1  0.589900  0.848600  0.172000  1.0
  C  C4954  1  0.651400  0.172000  0.910100  1.0
  C  C4955  1  0.672000  0.089900  0.848600  1.0
  C  C4956  1  0.348600  0.089900  0.828000  1.0
  C  C4957  1  0.328000  0.151400  0.910100  1.0
  C  C4958  1  0.410100  0.172000  0.848600  1.0
  C  C4959  1  0.651400  0.828000  0.089900  1.0
  C  C4960  1  0.672000  0.151400  0.089900  1.0
  C  C4961  1  0.589900  0.172000  0.151400  1.0
  C  C4962  1  0.651400  0.089900  0.172000  1.0
  C  C4963  1  0.348600  0.172000  0.089900  1.0
  C  C4964  1  0.348600  0.910100  0.172000  1.0
  C  C4965  1  0.328000  0.848600  0.089900  1.0
  C  C4966  1  0.410100  0.828000  0.151400  1.0
  C  C4967  1  0.410100  0.151400  0.172000  1.0
  C  C4968  1  0.328000  0.089900  0.151400  1.0
  C  C4969  1  0.910100  0.348600  0.828000  1.0
  C  C4970  1  0.848600  0.328000  0.910100  1.0
  C  C4971  1  0.828000  0.410100  0.848600  1.0
  C  C4972  1  0.151400  0.410100  0.828000  1.0
  C  C4973  1  0.172000  0.348600  0.910100  1.0
  C  C4974  1  0.089900  0.328000  0.848600  1.0
  C  C4975  1  0.089900  0.651400  0.828000  1.0
  C  C4976  1  0.172000  0.410100  0.151400  1.0
  C  C4977  1  0.089900  0.348600  0.172000  1.0
  C  C4978  1  0.151400  0.672000  0.910100  1.0
  C  C4979  1  0.172000  0.589900  0.848600  1.0
  C  C4980  1  0.848600  0.589900  0.828000  1.0
  C  C4981  1  0.828000  0.651400  0.910100  1.0
  C  C4982  1  0.910100  0.672000  0.848600  1.0
  C  C4983  1  0.151400  0.328000  0.089900  1.0
  C  C4984  1  0.172000  0.651400  0.089900  1.0
  C  C4985  1  0.089900  0.672000  0.151400  1.0
  C  C4986  1  0.151400  0.589900  0.172000  1.0
  C  C4987  1  0.848600  0.672000  0.089900  1.0
  C  C4988  1  0.848600  0.410100  0.172000  1.0
  C  C4989  1  0.828000  0.348600  0.089900  1.0
  C  C4990  1  0.910100  0.328000  0.151400  1.0
  C  C4991  1  0.910100  0.651400  0.172000  1.0
  C  C4992  1  0.828000  0.589900  0.151400  1.0
  C  C4993  1  0.910100  0.848600  0.328000  1.0
  C  C4994  1  0.848600  0.828000  0.410100  1.0
  C  C4995  1  0.828000  0.910100  0.348600  1.0
  C  C4996  1  0.151400  0.910100  0.328000  1.0
  C  C4997  1  0.172000  0.848600  0.410100  1.0
  C  C4998  1  0.089900  0.828000  0.348600  1.0
  C  C4999  1  0.089900  0.151400  0.328000  1.0
  C  C5000  1  0.172000  0.910100  0.651400  1.0
  C  C5001  1  0.089900  0.848600  0.672000  1.0
  C  C5002  1  0.151400  0.172000  0.410100  1.0
  C  C5003  1  0.172000  0.089900  0.348600  1.0
  C  C5004  1  0.848600  0.089900  0.328000  1.0
  C  C5005  1  0.828000  0.151400  0.410100  1.0
  C  C5006  1  0.910100  0.172000  0.348600  1.0
  C  C5007  1  0.151400  0.828000  0.589900  1.0
  C  C5008  1  0.172000  0.151400  0.589900  1.0
  C  C5009  1  0.089900  0.172000  0.651400  1.0
  C  C5010  1  0.151400  0.089900  0.672000  1.0
  C  C5011  1  0.848600  0.172000  0.589900  1.0
  C  C5012  1  0.848600  0.910100  0.672000  1.0
  C  C5013  1  0.828000  0.848600  0.589900  1.0
  C  C5014  1  0.910100  0.828000  0.651400  1.0
  C  C5015  1  0.910100  0.151400  0.672000  1.0
  C  C5016  1  0.828000  0.089900  0.651400  1.0
  C  C5017  1  0.406500  0.336300  0.301200  1.0
  C  C5018  1  0.336300  0.301200  0.406500  1.0
  C  C5019  1  0.301200  0.406500  0.336300  1.0
  C  C5020  1  0.663700  0.406500  0.301200  1.0
  C  C5021  1  0.698800  0.336300  0.406500  1.0
  C  C5022  1  0.593500  0.301200  0.336300  1.0
  C  C5023  1  0.593500  0.663700  0.301200  1.0
  C  C5024  1  0.698800  0.406500  0.663700  1.0
  C  C5025  1  0.593500  0.336300  0.698800  1.0
  C  C5026  1  0.663700  0.698800  0.406500  1.0
  C  C5027  1  0.698800  0.593500  0.336300  1.0
  C  C5028  1  0.336300  0.593500  0.301200  1.0
  C  C5029  1  0.301200  0.663700  0.406500  1.0
  C  C5030  1  0.406500  0.698800  0.336300  1.0
  C  C5031  1  0.663700  0.301200  0.593500  1.0
  C  C5032  1  0.698800  0.663700  0.593500  1.0
  C  C5033  1  0.593500  0.698800  0.663700  1.0
  C  C5034  1  0.663700  0.593500  0.698800  1.0
  C  C5035  1  0.336300  0.698800  0.593500  1.0
  C  C5036  1  0.336300  0.406500  0.698800  1.0
  C  C5037  1  0.301200  0.336300  0.593500  1.0
  C  C5038  1  0.406500  0.301200  0.663700  1.0
  C  C5039  1  0.406500  0.663700  0.698800  1.0
  C  C5040  1  0.301200  0.593500  0.663700  1.0
  C  C5041  1  0.406500  0.836300  0.801200  1.0
  C  C5042  1  0.336300  0.801200  0.906500  1.0
  C  C5043  1  0.301200  0.906500  0.836300  1.0
  C  C5044  1  0.663700  0.906500  0.801200  1.0
  C  C5045  1  0.698800  0.836300  0.906500  1.0
  C  C5046  1  0.593500  0.801200  0.836300  1.0
  C  C5047  1  0.593500  0.163700  0.801200  1.0
  C  C5048  1  0.698800  0.906500  0.163700  1.0
  C  C5049  1  0.593500  0.836300  0.198800  1.0
  C  C5050  1  0.663700  0.198800  0.906500  1.0
  C  C5051  1  0.698800  0.093500  0.836300  1.0
  C  C5052  1  0.336300  0.093500  0.801200  1.0
  C  C5053  1  0.301200  0.163700  0.906500  1.0
  C  C5054  1  0.406500  0.198800  0.836300  1.0
  C  C5055  1  0.663700  0.801200  0.093500  1.0
  C  C5056  1  0.698800  0.163700  0.093500  1.0
  C  C5057  1  0.593500  0.198800  0.163700  1.0
  C  C5058  1  0.663700  0.093500  0.198800  1.0
  C  C5059  1  0.336300  0.198800  0.093500  1.0
  C  C5060  1  0.336300  0.906500  0.198800  1.0
  C  C5061  1  0.301200  0.836300  0.093500  1.0
  C  C5062  1  0.406500  0.801200  0.163700  1.0
  C  C5063  1  0.406500  0.163700  0.198800  1.0
  C  C5064  1  0.301200  0.093500  0.163700  1.0
  C  C5065  1  0.906500  0.336300  0.801200  1.0
  C  C5066  1  0.836300  0.301200  0.906500  1.0
  C  C5067  1  0.801200  0.406500  0.836300  1.0
  C  C5068  1  0.163700  0.406500  0.801200  1.0
  C  C5069  1  0.198800  0.336300  0.906500  1.0
  C  C5070  1  0.093500  0.301200  0.836300  1.0
  C  C5071  1  0.093500  0.663700  0.801200  1.0
  C  C5072  1  0.198800  0.406500  0.163700  1.0
  C  C5073  1  0.093500  0.336300  0.198800  1.0
  C  C5074  1  0.163700  0.698800  0.906500  1.0
  C  C5075  1  0.198800  0.593500  0.836300  1.0
  C  C5076  1  0.836300  0.593500  0.801200  1.0
  C  C5077  1  0.801200  0.663700  0.906500  1.0
  C  C5078  1  0.906500  0.698800  0.836300  1.0
  C  C5079  1  0.163700  0.301200  0.093500  1.0
  C  C5080  1  0.198800  0.663700  0.093500  1.0
  C  C5081  1  0.093500  0.698800  0.163700  1.0
  C  C5082  1  0.163700  0.593500  0.198800  1.0
  C  C5083  1  0.836300  0.698800  0.093500  1.0
  C  C5084  1  0.836300  0.406500  0.198800  1.0
  C  C5085  1  0.801200  0.336300  0.093500  1.0
  C  C5086  1  0.906500  0.301200  0.163700  1.0
  C  C5087  1  0.906500  0.663700  0.198800  1.0
  C  C5088  1  0.801200  0.593500  0.163700  1.0
  C  C5089  1  0.906500  0.836300  0.301200  1.0
  C  C5090  1  0.836300  0.801200  0.406500  1.0
  C  C5091  1  0.801200  0.906500  0.336300  1.0
  C  C5092  1  0.163700  0.906500  0.301200  1.0
  C  C5093  1  0.198800  0.836300  0.406500  1.0
  C  C5094  1  0.093500  0.801200  0.336300  1.0
  C  C5095  1  0.093500  0.163700  0.301200  1.0
  C  C5096  1  0.198800  0.906500  0.663700  1.0
  C  C5097  1  0.093500  0.836300  0.698800  1.0
  C  C5098  1  0.163700  0.198800  0.406500  1.0
  C  C5099  1  0.198800  0.093500  0.336300  1.0
  C  C5100  1  0.836300  0.093500  0.301200  1.0
  C  C5101  1  0.801200  0.163700  0.406500  1.0
  C  C5102  1  0.906500  0.198800  0.336300  1.0
  C  C5103  1  0.163700  0.801200  0.593500  1.0
  C  C5104  1  0.198800  0.163700  0.593500  1.0
  C  C5105  1  0.093500  0.198800  0.663700  1.0
  C  C5106  1  0.163700  0.093500  0.698800  1.0
  C  C5107  1  0.836300  0.198800  0.593500  1.0
  C  C5108  1  0.836300  0.906500  0.698800  1.0
  C  C5109  1  0.801200  0.836300  0.593500  1.0
  C  C5110  1  0.906500  0.801200  0.663700  1.0
  C  C5111  1  0.906500  0.163700  0.698800  1.0
  C  C5112  1  0.801200  0.093500  0.663700  1.0
  C  C5113  1  0.429800  0.329500  0.285400  1.0
  C  C5114  1  0.329500  0.285400  0.429800  1.0
  C  C5115  1  0.285400  0.429800  0.329500  1.0
  C  C5116  1  0.670500  0.429800  0.285400  1.0
  C  C5117  1  0.714600  0.329500  0.429800  1.0
  C  C5118  1  0.570200  0.285400  0.329500  1.0
  C  C5119  1  0.570200  0.670500  0.285400  1.0
  C  C5120  1  0.714600  0.429800  0.670500  1.0
  C  C5121  1  0.570200  0.329500  0.714600  1.0
  C  C5122  1  0.670500  0.714600  0.429800  1.0
  C  C5123  1  0.714600  0.570200  0.329500  1.0
  C  C5124  1  0.329500  0.570200  0.285400  1.0
  C  C5125  1  0.285400  0.670500  0.429800  1.0
  C  C5126  1  0.429800  0.714600  0.329500  1.0
  C  C5127  1  0.670500  0.285400  0.570200  1.0
  C  C5128  1  0.714600  0.670500  0.570200  1.0
  C  C5129  1  0.570200  0.714600  0.670500  1.0
  C  C5130  1  0.670500  0.570200  0.714600  1.0
  C  C5131  1  0.329500  0.714600  0.570200  1.0
  C  C5132  1  0.329500  0.429800  0.714600  1.0
  C  C5133  1  0.285400  0.329500  0.570200  1.0
  C  C5134  1  0.429800  0.285400  0.670500  1.0
  C  C5135  1  0.429800  0.670500  0.714600  1.0
  C  C5136  1  0.285400  0.570200  0.670500  1.0
  C  C5137  1  0.429800  0.829500  0.785400  1.0
  C  C5138  1  0.329500  0.785400  0.929800  1.0
  C  C5139  1  0.285400  0.929800  0.829500  1.0
  C  C5140  1  0.670500  0.929800  0.785400  1.0
  C  C5141  1  0.714600  0.829500  0.929800  1.0
  C  C5142  1  0.570200  0.785400  0.829500  1.0
  C  C5143  1  0.570200  0.170500  0.785400  1.0
  C  C5144  1  0.714600  0.929800  0.170500  1.0
  C  C5145  1  0.570200  0.829500  0.214600  1.0
  C  C5146  1  0.670500  0.214600  0.929800  1.0
  C  C5147  1  0.714600  0.070200  0.829500  1.0
  C  C5148  1  0.329500  0.070200  0.785400  1.0
  C  C5149  1  0.285400  0.170500  0.929800  1.0
  C  C5150  1  0.429800  0.214600  0.829500  1.0
  C  C5151  1  0.670500  0.785400  0.070200  1.0
  C  C5152  1  0.714600  0.170500  0.070200  1.0
  C  C5153  1  0.570200  0.214600  0.170500  1.0
  C  C5154  1  0.670500  0.070200  0.214600  1.0
  C  C5155  1  0.329500  0.214600  0.070200  1.0
  C  C5156  1  0.329500  0.929800  0.214600  1.0
  C  C5157  1  0.285400  0.829500  0.070200  1.0
  C  C5158  1  0.429800  0.785400  0.170500  1.0
  C  C5159  1  0.429800  0.170500  0.214600  1.0
  C  C5160  1  0.285400  0.070200  0.170500  1.0
  C  C5161  1  0.929800  0.329500  0.785400  1.0
  C  C5162  1  0.829500  0.285400  0.929800  1.0
  C  C5163  1  0.785400  0.429800  0.829500  1.0
  C  C5164  1  0.170500  0.429800  0.785400  1.0
  C  C5165  1  0.214600  0.329500  0.929800  1.0
  C  C5166  1  0.070200  0.285400  0.829500  1.0
  C  C5167  1  0.070200  0.670500  0.785400  1.0
  C  C5168  1  0.214600  0.429800  0.170500  1.0
  C  C5169  1  0.070200  0.329500  0.214600  1.0
  C  C5170  1  0.170500  0.714600  0.929800  1.0
  C  C5171  1  0.214600  0.570200  0.829500  1.0
  C  C5172  1  0.829500  0.570200  0.785400  1.0
  C  C5173  1  0.785400  0.670500  0.929800  1.0
  C  C5174  1  0.929800  0.714600  0.829500  1.0
  C  C5175  1  0.170500  0.285400  0.070200  1.0
  C  C5176  1  0.214600  0.670500  0.070200  1.0
  C  C5177  1  0.070200  0.714600  0.170500  1.0
  C  C5178  1  0.170500  0.570200  0.214600  1.0
  C  C5179  1  0.829500  0.714600  0.070200  1.0
  C  C5180  1  0.829500  0.429800  0.214600  1.0
  C  C5181  1  0.785400  0.329500  0.070200  1.0
  C  C5182  1  0.929800  0.285400  0.170500  1.0
  C  C5183  1  0.929800  0.670500  0.214600  1.0
  C  C5184  1  0.785400  0.570200  0.170500  1.0
  C  C5185  1  0.929800  0.829500  0.285400  1.0
  C  C5186  1  0.829500  0.785400  0.429800  1.0
  C  C5187  1  0.785400  0.929800  0.329500  1.0
  C  C5188  1  0.170500  0.929800  0.285400  1.0
  C  C5189  1  0.214600  0.829500  0.429800  1.0
  C  C5190  1  0.070200  0.785400  0.329500  1.0
  C  C5191  1  0.070200  0.170500  0.285400  1.0
  C  C5192  1  0.214600  0.929800  0.670500  1.0
  C  C5193  1  0.070200  0.829500  0.714600  1.0
  C  C5194  1  0.170500  0.214600  0.429800  1.0
  C  C5195  1  0.214600  0.070200  0.329500  1.0
  C  C5196  1  0.829500  0.070200  0.285400  1.0
  C  C5197  1  0.785400  0.170500  0.429800  1.0
  C  C5198  1  0.929800  0.214600  0.329500  1.0
  C  C5199  1  0.170500  0.785400  0.570200  1.0
  C  C5200  1  0.214600  0.170500  0.570200  1.0
  C  C5201  1  0.070200  0.214600  0.670500  1.0
  C  C5202  1  0.170500  0.070200  0.714600  1.0
  C  C5203  1  0.829500  0.214600  0.570200  1.0
  C  C5204  1  0.829500  0.929800  0.714600  1.0
  C  C5205  1  0.785400  0.829500  0.570200  1.0
  C  C5206  1  0.929800  0.785400  0.670500  1.0
  C  C5207  1  0.929800  0.170500  0.714600  1.0
  C  C5208  1  0.785400  0.070200  0.670500  1.0
  C  C5209  1  0.456200  0.334000  0.294700  1.0
  C  C5210  1  0.334000  0.294700  0.456200  1.0
  C  C5211  1  0.294700  0.456200  0.334000  1.0
  C  C5212  1  0.666000  0.456200  0.294700  1.0
  C  C5213  1  0.705300  0.334000  0.456200  1.0
  C  C5214  1  0.543800  0.294700  0.334000  1.0
  C  C5215  1  0.543800  0.666000  0.294700  1.0
  C  C5216  1  0.705300  0.456200  0.666000  1.0
  C  C5217  1  0.543800  0.334000  0.705300  1.0
  C  C5218  1  0.666000  0.705300  0.456200  1.0
  C  C5219  1  0.705300  0.543800  0.334000  1.0
  C  C5220  1  0.334000  0.543800  0.294700  1.0
  C  C5221  1  0.294700  0.666000  0.456200  1.0
  C  C5222  1  0.456200  0.705300  0.334000  1.0
  C  C5223  1  0.666000  0.294700  0.543800  1.0
  C  C5224  1  0.705300  0.666000  0.543800  1.0
  C  C5225  1  0.543800  0.705300  0.666000  1.0
  C  C5226  1  0.666000  0.543800  0.705300  1.0
  C  C5227  1  0.334000  0.705300  0.543800  1.0
  C  C5228  1  0.334000  0.456200  0.705300  1.0
  C  C5229  1  0.294700  0.334000  0.543800  1.0
  C  C5230  1  0.456200  0.294700  0.666000  1.0
  C  C5231  1  0.456200  0.666000  0.705300  1.0
  C  C5232  1  0.294700  0.543800  0.666000  1.0
  C  C5233  1  0.456200  0.834000  0.794700  1.0
  C  C5234  1  0.334000  0.794700  0.956200  1.0
  C  C5235  1  0.294700  0.956200  0.834000  1.0
  C  C5236  1  0.666000  0.956200  0.794700  1.0
  C  C5237  1  0.705300  0.834000  0.956200  1.0
  C  C5238  1  0.543800  0.794700  0.834000  1.0
  C  C5239  1  0.543800  0.166000  0.794700  1.0
  C  C5240  1  0.705300  0.956200  0.166000  1.0
  C  C5241  1  0.543800  0.834000  0.205300  1.0
  C  C5242  1  0.666000  0.205300  0.956200  1.0
  C  C5243  1  0.705300  0.043800  0.834000  1.0
  C  C5244  1  0.334000  0.043800  0.794700  1.0
  C  C5245  1  0.294700  0.166000  0.956200  1.0
  C  C5246  1  0.456200  0.205300  0.834000  1.0
  C  C5247  1  0.666000  0.794700  0.043800  1.0
  C  C5248  1  0.705300  0.166000  0.043800  1.0
  C  C5249  1  0.543800  0.205300  0.166000  1.0
  C  C5250  1  0.666000  0.043800  0.205300  1.0
  C  C5251  1  0.334000  0.205300  0.043800  1.0
  C  C5252  1  0.334000  0.956200  0.205300  1.0
  C  C5253  1  0.294700  0.834000  0.043800  1.0
  C  C5254  1  0.456200  0.794700  0.166000  1.0
  C  C5255  1  0.456200  0.166000  0.205300  1.0
  C  C5256  1  0.294700  0.043800  0.166000  1.0
  C  C5257  1  0.956200  0.334000  0.794700  1.0
  C  C5258  1  0.834000  0.294700  0.956200  1.0
  C  C5259  1  0.794700  0.456200  0.834000  1.0
  C  C5260  1  0.166000  0.456200  0.794700  1.0
  C  C5261  1  0.205300  0.334000  0.956200  1.0
  C  C5262  1  0.043800  0.294700  0.834000  1.0
  C  C5263  1  0.043800  0.666000  0.794700  1.0
  C  C5264  1  0.205300  0.456200  0.166000  1.0
  C  C5265  1  0.043800  0.334000  0.205300  1.0
  C  C5266  1  0.166000  0.705300  0.956200  1.0
  C  C5267  1  0.205300  0.543800  0.834000  1.0
  C  C5268  1  0.834000  0.543800  0.794700  1.0
  C  C5269  1  0.794700  0.666000  0.956200  1.0
  C  C5270  1  0.956200  0.705300  0.834000  1.0
  C  C5271  1  0.166000  0.294700  0.043800  1.0
  C  C5272  1  0.205300  0.666000  0.043800  1.0
  C  C5273  1  0.043800  0.705300  0.166000  1.0
  C  C5274  1  0.166000  0.543800  0.205300  1.0
  C  C5275  1  0.834000  0.705300  0.043800  1.0
  C  C5276  1  0.834000  0.456200  0.205300  1.0
  C  C5277  1  0.794700  0.334000  0.043800  1.0
  C  C5278  1  0.956200  0.294700  0.166000  1.0
  C  C5279  1  0.956200  0.666000  0.205300  1.0
  C  C5280  1  0.794700  0.543800  0.166000  1.0
  C  C5281  1  0.956200  0.834000  0.294700  1.0
  C  C5282  1  0.834000  0.794700  0.456200  1.0
  C  C5283  1  0.794700  0.956200  0.334000  1.0
  C  C5284  1  0.166000  0.956200  0.294700  1.0
  C  C5285  1  0.205300  0.834000  0.456200  1.0
  C  C5286  1  0.043800  0.794700  0.334000  1.0
  C  C5287  1  0.043800  0.166000  0.294700  1.0
  C  C5288  1  0.205300  0.956200  0.666000  1.0
  C  C5289  1  0.043800  0.834000  0.705300  1.0
  C  C5290  1  0.166000  0.205300  0.456200  1.0
  C  C5291  1  0.205300  0.043800  0.334000  1.0
  C  C5292  1  0.834000  0.043800  0.294700  1.0
  C  C5293  1  0.794700  0.166000  0.456200  1.0
  C  C5294  1  0.956200  0.205300  0.334000  1.0
  C  C5295  1  0.166000  0.794700  0.543800  1.0
  C  C5296  1  0.205300  0.166000  0.543800  1.0
  C  C5297  1  0.043800  0.205300  0.666000  1.0
  C  C5298  1  0.166000  0.043800  0.705300  1.0
  C  C5299  1  0.834000  0.205300  0.543800  1.0
  C  C5300  1  0.834000  0.956200  0.705300  1.0
  C  C5301  1  0.794700  0.834000  0.543800  1.0
  C  C5302  1  0.956200  0.794700  0.666000  1.0
  C  C5303  1  0.956200  0.166000  0.705300  1.0
  C  C5304  1  0.794700  0.043800  0.666000  1.0
  C  C5305  1  0.458800  0.346200  0.321200  1.0
  C  C5306  1  0.346200  0.321200  0.458800  1.0
  C  C5307  1  0.321200  0.458800  0.346200  1.0
  C  C5308  1  0.653800  0.458800  0.321200  1.0
  C  C5309  1  0.678800  0.346200  0.458800  1.0
  C  C5310  1  0.541200  0.321200  0.346200  1.0
  C  C5311  1  0.541200  0.653800  0.321200  1.0
  C  C5312  1  0.678800  0.458800  0.653800  1.0
  C  C5313  1  0.541200  0.346200  0.678800  1.0
  C  C5314  1  0.653800  0.678800  0.458800  1.0
  C  C5315  1  0.678800  0.541200  0.346200  1.0
  C  C5316  1  0.346200  0.541200  0.321200  1.0
  C  C5317  1  0.321200  0.653800  0.458800  1.0
  C  C5318  1  0.458800  0.678800  0.346200  1.0
  C  C5319  1  0.653800  0.321200  0.541200  1.0
  C  C5320  1  0.678800  0.653800  0.541200  1.0
  C  C5321  1  0.541200  0.678800  0.653800  1.0
  C  C5322  1  0.653800  0.541200  0.678800  1.0
  C  C5323  1  0.346200  0.678800  0.541200  1.0
  C  C5324  1  0.346200  0.458800  0.678800  1.0
  C  C5325  1  0.321200  0.346200  0.541200  1.0
  C  C5326  1  0.458800  0.321200  0.653800  1.0
  C  C5327  1  0.458800  0.653800  0.678800  1.0
  C  C5328  1  0.321200  0.541200  0.653800  1.0
  C  C5329  1  0.458800  0.846200  0.821200  1.0
  C  C5330  1  0.346200  0.821200  0.958800  1.0
  C  C5331  1  0.321200  0.958800  0.846200  1.0
  C  C5332  1  0.653800  0.958800  0.821200  1.0
  C  C5333  1  0.678800  0.846200  0.958800  1.0
  C  C5334  1  0.541200  0.821200  0.846200  1.0
  C  C5335  1  0.541200  0.153800  0.821200  1.0
  C  C5336  1  0.678800  0.958800  0.153800  1.0
  C  C5337  1  0.541200  0.846200  0.178800  1.0
  C  C5338  1  0.653800  0.178800  0.958800  1.0
  C  C5339  1  0.678800  0.041200  0.846200  1.0
  C  C5340  1  0.346200  0.041200  0.821200  1.0
  C  C5341  1  0.321200  0.153800  0.958800  1.0
  C  C5342  1  0.458800  0.178800  0.846200  1.0
  C  C5343  1  0.653800  0.821200  0.041200  1.0
  C  C5344  1  0.678800  0.153800  0.041200  1.0
  C  C5345  1  0.541200  0.178800  0.153800  1.0
  C  C5346  1  0.653800  0.041200  0.178800  1.0
  C  C5347  1  0.346200  0.178800  0.041200  1.0
  C  C5348  1  0.346200  0.958800  0.178800  1.0
  C  C5349  1  0.321200  0.846200  0.041200  1.0
  C  C5350  1  0.458800  0.821200  0.153800  1.0
  C  C5351  1  0.458800  0.153800  0.178800  1.0
  C  C5352  1  0.321200  0.041200  0.153800  1.0
  C  C5353  1  0.958800  0.346200  0.821200  1.0
  C  C5354  1  0.846200  0.321200  0.958800  1.0
  C  C5355  1  0.821200  0.458800  0.846200  1.0
  C  C5356  1  0.153800  0.458800  0.821200  1.0
  C  C5357  1  0.178800  0.346200  0.958800  1.0
  C  C5358  1  0.041200  0.321200  0.846200  1.0
  C  C5359  1  0.041200  0.653800  0.821200  1.0
  C  C5360  1  0.178800  0.458800  0.153800  1.0
  C  C5361  1  0.041200  0.346200  0.178800  1.0
  C  C5362  1  0.153800  0.678800  0.958800  1.0
  C  C5363  1  0.178800  0.541200  0.846200  1.0
  C  C5364  1  0.846200  0.541200  0.821200  1.0
  C  C5365  1  0.821200  0.653800  0.958800  1.0
  C  C5366  1  0.958800  0.678800  0.846200  1.0
  C  C5367  1  0.153800  0.321200  0.041200  1.0
  C  C5368  1  0.178800  0.653800  0.041200  1.0
  C  C5369  1  0.041200  0.678800  0.153800  1.0
  C  C5370  1  0.153800  0.541200  0.178800  1.0
  C  C5371  1  0.846200  0.678800  0.041200  1.0
  C  C5372  1  0.846200  0.458800  0.178800  1.0
  C  C5373  1  0.821200  0.346200  0.041200  1.0
  C  C5374  1  0.958800  0.321200  0.153800  1.0
  C  C5375  1  0.958800  0.653800  0.178800  1.0
  C  C5376  1  0.821200  0.541200  0.153800  1.0
  C  C5377  1  0.958800  0.846200  0.321200  1.0
  C  C5378  1  0.846200  0.821200  0.458800  1.0
  C  C5379  1  0.821200  0.958800  0.346200  1.0
  C  C5380  1  0.153800  0.958800  0.321200  1.0
  C  C5381  1  0.178800  0.846200  0.458800  1.0
  C  C5382  1  0.041200  0.821200  0.346200  1.0
  C  C5383  1  0.041200  0.153800  0.321200  1.0
  C  C5384  1  0.178800  0.958800  0.653800  1.0
  C  C5385  1  0.041200  0.846200  0.678800  1.0
  C  C5386  1  0.153800  0.178800  0.458800  1.0
  C  C5387  1  0.178800  0.041200  0.346200  1.0
  C  C5388  1  0.846200  0.041200  0.321200  1.0
  C  C5389  1  0.821200  0.153800  0.458800  1.0
  C  C5390  1  0.958800  0.178800  0.346200  1.0
  C  C5391  1  0.153800  0.821200  0.541200  1.0
  C  C5392  1  0.178800  0.153800  0.541200  1.0
  C  C5393  1  0.041200  0.178800  0.653800  1.0
  C  C5394  1  0.153800  0.041200  0.678800  1.0
  C  C5395  1  0.846200  0.178800  0.541200  1.0
  C  C5396  1  0.846200  0.958800  0.678800  1.0
  C  C5397  1  0.821200  0.846200  0.541200  1.0
  C  C5398  1  0.958800  0.821200  0.653800  1.0
  C  C5399  1  0.958800  0.153800  0.678800  1.0
  C  C5400  1  0.821200  0.041200  0.653800  1.0
  C  C5401  1  0.436000  0.352600  0.338100  1.0
  C  C5402  1  0.352600  0.338100  0.436000  1.0
  C  C5403  1  0.338100  0.436000  0.352600  1.0
  C  C5404  1  0.647400  0.436000  0.338100  1.0
  C  C5405  1  0.661900  0.352600  0.436000  1.0
  C  C5406  1  0.564000  0.338100  0.352600  1.0
  C  C5407  1  0.564000  0.647400  0.338100  1.0
  C  C5408  1  0.661900  0.436000  0.647400  1.0
  C  C5409  1  0.564000  0.352600  0.661900  1.0
  C  C5410  1  0.647400  0.661900  0.436000  1.0
  C  C5411  1  0.661900  0.564000  0.352600  1.0
  C  C5412  1  0.352600  0.564000  0.338100  1.0
  C  C5413  1  0.338100  0.647400  0.436000  1.0
  C  C5414  1  0.436000  0.661900  0.352600  1.0
  C  C5415  1  0.647400  0.338100  0.564000  1.0
  C  C5416  1  0.661900  0.647400  0.564000  1.0
  C  C5417  1  0.564000  0.661900  0.647400  1.0
  C  C5418  1  0.647400  0.564000  0.661900  1.0
  C  C5419  1  0.352600  0.661900  0.564000  1.0
  C  C5420  1  0.352600  0.436000  0.661900  1.0
  C  C5421  1  0.338100  0.352600  0.564000  1.0
  C  C5422  1  0.436000  0.338100  0.647400  1.0
  C  C5423  1  0.436000  0.647400  0.661900  1.0
  C  C5424  1  0.338100  0.564000  0.647400  1.0
  C  C5425  1  0.436000  0.852600  0.838100  1.0
  C  C5426  1  0.352600  0.838100  0.936000  1.0
  C  C5427  1  0.338100  0.936000  0.852600  1.0
  C  C5428  1  0.647400  0.936000  0.838100  1.0
  C  C5429  1  0.661900  0.852600  0.936000  1.0
  C  C5430  1  0.564000  0.838100  0.852600  1.0
  C  C5431  1  0.564000  0.147400  0.838100  1.0
  C  C5432  1  0.661900  0.936000  0.147400  1.0
  C  C5433  1  0.564000  0.852600  0.161900  1.0
  C  C5434  1  0.647400  0.161900  0.936000  1.0
  C  C5435  1  0.661900  0.064000  0.852600  1.0
  C  C5436  1  0.352600  0.064000  0.838100  1.0
  C  C5437  1  0.338100  0.147400  0.936000  1.0
  C  C5438  1  0.436000  0.161900  0.852600  1.0
  C  C5439  1  0.647400  0.838100  0.064000  1.0
  C  C5440  1  0.661900  0.147400  0.064000  1.0
  C  C5441  1  0.564000  0.161900  0.147400  1.0
  C  C5442  1  0.647400  0.064000  0.161900  1.0
  C  C5443  1  0.352600  0.161900  0.064000  1.0
  C  C5444  1  0.352600  0.936000  0.161900  1.0
  C  C5445  1  0.338100  0.852600  0.064000  1.0
  C  C5446  1  0.436000  0.838100  0.147400  1.0
  C  C5447  1  0.436000  0.147400  0.161900  1.0
  C  C5448  1  0.338100  0.064000  0.147400  1.0
  C  C5449  1  0.936000  0.352600  0.838100  1.0
  C  C5450  1  0.852600  0.338100  0.936000  1.0
  C  C5451  1  0.838100  0.436000  0.852600  1.0
  C  C5452  1  0.147400  0.436000  0.838100  1.0
  C  C5453  1  0.161900  0.352600  0.936000  1.0
  C  C5454  1  0.064000  0.338100  0.852600  1.0
  C  C5455  1  0.064000  0.647400  0.838100  1.0
  C  C5456  1  0.161900  0.436000  0.147400  1.0
  C  C5457  1  0.064000  0.352600  0.161900  1.0
  C  C5458  1  0.147400  0.661900  0.936000  1.0
  C  C5459  1  0.161900  0.564000  0.852600  1.0
  C  C5460  1  0.852600  0.564000  0.838100  1.0
  C  C5461  1  0.838100  0.647400  0.936000  1.0
  C  C5462  1  0.936000  0.661900  0.852600  1.0
  C  C5463  1  0.147400  0.338100  0.064000  1.0
  C  C5464  1  0.161900  0.647400  0.064000  1.0
  C  C5465  1  0.064000  0.661900  0.147400  1.0
  C  C5466  1  0.147400  0.564000  0.161900  1.0
  C  C5467  1  0.852600  0.661900  0.064000  1.0
  C  C5468  1  0.852600  0.436000  0.161900  1.0
  C  C5469  1  0.838100  0.352600  0.064000  1.0
  C  C5470  1  0.936000  0.338100  0.147400  1.0
  C  C5471  1  0.936000  0.647400  0.161900  1.0
  C  C5472  1  0.838100  0.564000  0.147400  1.0
  C  C5473  1  0.936000  0.852600  0.338100  1.0
  C  C5474  1  0.852600  0.838100  0.436000  1.0
  C  C5475  1  0.838100  0.936000  0.352600  1.0
  C  C5476  1  0.147400  0.936000  0.338100  1.0
  C  C5477  1  0.161900  0.852600  0.436000  1.0
  C  C5478  1  0.064000  0.838100  0.352600  1.0
  C  C5479  1  0.064000  0.147400  0.338100  1.0
  C  C5480  1  0.161900  0.936000  0.647400  1.0
  C  C5481  1  0.064000  0.852600  0.661900  1.0
  C  C5482  1  0.147400  0.161900  0.436000  1.0
  C  C5483  1  0.161900  0.064000  0.352600  1.0
  C  C5484  1  0.852600  0.064000  0.338100  1.0
  C  C5485  1  0.838100  0.147400  0.436000  1.0
  C  C5486  1  0.936000  0.161900  0.352600  1.0
  C  C5487  1  0.147400  0.838100  0.564000  1.0
  C  C5488  1  0.161900  0.147400  0.564000  1.0
  C  C5489  1  0.064000  0.161900  0.647400  1.0
  C  C5490  1  0.147400  0.064000  0.661900  1.0
  C  C5491  1  0.852600  0.161900  0.564000  1.0
  C  C5492  1  0.852600  0.936000  0.661900  1.0
  C  C5493  1  0.838100  0.852600  0.564000  1.0
  C  C5494  1  0.936000  0.838100  0.647400  1.0
  C  C5495  1  0.936000  0.147400  0.661900  1.0
  C  C5496  1  0.838100  0.064000  0.647400  1.0
  C  C5497  1  0.525200  0.302800  0.250400  1.0
  C  C5498  1  0.302800  0.250400  0.525200  1.0
  C  C5499  1  0.250400  0.525200  0.302800  1.0
  C  C5500  1  0.697200  0.525200  0.250400  1.0
  C  C5501  1  0.749600  0.302800  0.525200  1.0
  C  C5502  1  0.474800  0.250400  0.302800  1.0
  C  C5503  1  0.474800  0.697200  0.250400  1.0
  C  C5504  1  0.749600  0.525200  0.697200  1.0
  C  C5505  1  0.474800  0.302800  0.749600  1.0
  C  C5506  1  0.697200  0.749600  0.525200  1.0
  C  C5507  1  0.749600  0.474800  0.302800  1.0
  C  C5508  1  0.302800  0.474800  0.250400  1.0
  C  C5509  1  0.250400  0.697200  0.525200  1.0
  C  C5510  1  0.525200  0.749600  0.302800  1.0
  C  C5511  1  0.697200  0.250400  0.474800  1.0
  C  C5512  1  0.749600  0.697200  0.474800  1.0
  C  C5513  1  0.474800  0.749600  0.697200  1.0
  C  C5514  1  0.697200  0.474800  0.749600  1.0
  C  C5515  1  0.302800  0.749600  0.474800  1.0
  C  C5516  1  0.302800  0.525200  0.749600  1.0
  C  C5517  1  0.250400  0.302800  0.474800  1.0
  C  C5518  1  0.525200  0.250400  0.697200  1.0
  C  C5519  1  0.525200  0.697200  0.749600  1.0
  C  C5520  1  0.250400  0.474800  0.697200  1.0
  C  C5521  1  0.525200  0.802800  0.750400  1.0
  C  C5522  1  0.302800  0.750400  0.025200  1.0
  C  C5523  1  0.250400  0.025200  0.802800  1.0
  C  C5524  1  0.697200  0.025200  0.750400  1.0
  C  C5525  1  0.749600  0.802800  0.025200  1.0
  C  C5526  1  0.474800  0.750400  0.802800  1.0
  C  C5527  1  0.474800  0.197200  0.750400  1.0
  C  C5528  1  0.749600  0.025200  0.197200  1.0
  C  C5529  1  0.474800  0.802800  0.249600  1.0
  C  C5530  1  0.697200  0.249600  0.025200  1.0
  C  C5531  1  0.749600  0.974800  0.802800  1.0
  C  C5532  1  0.302800  0.974800  0.750400  1.0
  C  C5533  1  0.250400  0.197200  0.025200  1.0
  C  C5534  1  0.525200  0.249600  0.802800  1.0
  C  C5535  1  0.697200  0.750400  0.974800  1.0
  C  C5536  1  0.749600  0.197200  0.974800  1.0
  C  C5537  1  0.474800  0.249600  0.197200  1.0
  C  C5538  1  0.697200  0.974800  0.249600  1.0
  C  C5539  1  0.302800  0.249600  0.974800  1.0
  C  C5540  1  0.302800  0.025200  0.249600  1.0
  C  C5541  1  0.250400  0.802800  0.974800  1.0
  C  C5542  1  0.525200  0.750400  0.197200  1.0
  C  C5543  1  0.525200  0.197200  0.249600  1.0
  C  C5544  1  0.250400  0.974800  0.197200  1.0
  C  C5545  1  0.025200  0.302800  0.750400  1.0
  C  C5546  1  0.802800  0.250400  0.025200  1.0
  C  C5547  1  0.750400  0.525200  0.802800  1.0
  C  C5548  1  0.197200  0.525200  0.750400  1.0
  C  C5549  1  0.249600  0.302800  0.025200  1.0
  C  C5550  1  0.974800  0.250400  0.802800  1.0
  C  C5551  1  0.974800  0.697200  0.750400  1.0
  C  C5552  1  0.249600  0.525200  0.197200  1.0
  C  C5553  1  0.974800  0.302800  0.249600  1.0
  C  C5554  1  0.197200  0.749600  0.025200  1.0
  C  C5555  1  0.249600  0.474800  0.802800  1.0
  C  C5556  1  0.802800  0.474800  0.750400  1.0
  C  C5557  1  0.750400  0.697200  0.025200  1.0
  C  C5558  1  0.025200  0.749600  0.802800  1.0
  C  C5559  1  0.197200  0.250400  0.974800  1.0
  C  C5560  1  0.249600  0.697200  0.974800  1.0
  C  C5561  1  0.974800  0.749600  0.197200  1.0
  C  C5562  1  0.197200  0.474800  0.249600  1.0
  C  C5563  1  0.802800  0.749600  0.974800  1.0
  C  C5564  1  0.802800  0.525200  0.249600  1.0
  C  C5565  1  0.750400  0.302800  0.974800  1.0
  C  C5566  1  0.025200  0.250400  0.197200  1.0
  C  C5567  1  0.025200  0.697200  0.249600  1.0
  C  C5568  1  0.750400  0.474800  0.197200  1.0
  C  C5569  1  0.025200  0.802800  0.250400  1.0
  C  C5570  1  0.802800  0.750400  0.525200  1.0
  C  C5571  1  0.750400  0.025200  0.302800  1.0
  C  C5572  1  0.197200  0.025200  0.250400  1.0
  C  C5573  1  0.249600  0.802800  0.525200  1.0
  C  C5574  1  0.974800  0.750400  0.302800  1.0
  C  C5575  1  0.974800  0.197200  0.250400  1.0
  C  C5576  1  0.249600  0.025200  0.697200  1.0
  C  C5577  1  0.974800  0.802800  0.749600  1.0
  C  C5578  1  0.197200  0.249600  0.525200  1.0
  C  C5579  1  0.249600  0.974800  0.302800  1.0
  C  C5580  1  0.802800  0.974800  0.250400  1.0
  C  C5581  1  0.750400  0.197200  0.525200  1.0
  C  C5582  1  0.025200  0.249600  0.302800  1.0
  C  C5583  1  0.197200  0.750400  0.474800  1.0
  C  C5584  1  0.249600  0.197200  0.474800  1.0
  C  C5585  1  0.974800  0.249600  0.697200  1.0
  C  C5586  1  0.197200  0.974800  0.749600  1.0
  C  C5587  1  0.802800  0.249600  0.474800  1.0
  C  C5588  1  0.802800  0.025200  0.749600  1.0
  C  C5589  1  0.750400  0.802800  0.474800  1.0
  C  C5590  1  0.025200  0.750400  0.697200  1.0
  C  C5591  1  0.025200  0.197200  0.749600  1.0
  C  C5592  1  0.750400  0.974800  0.697200  1.0
  C  C5593  1  0.508000  0.336600  0.284000  1.0
  C  C5594  1  0.336600  0.284000  0.508000  1.0
  C  C5595  1  0.284000  0.508000  0.336600  1.0
  C  C5596  1  0.663400  0.508000  0.284000  1.0
  C  C5597  1  0.716000  0.336600  0.508000  1.0
  C  C5598  1  0.492000  0.284000  0.336600  1.0
  C  C5599  1  0.492000  0.663400  0.284000  1.0
  C  C5600  1  0.716000  0.508000  0.663400  1.0
  C  C5601  1  0.492000  0.336600  0.716000  1.0
  C  C5602  1  0.663400  0.716000  0.508000  1.0
  C  C5603  1  0.716000  0.492000  0.336600  1.0
  C  C5604  1  0.336600  0.492000  0.284000  1.0
  C  C5605  1  0.284000  0.663400  0.508000  1.0
  C  C5606  1  0.508000  0.716000  0.336600  1.0
  C  C5607  1  0.663400  0.284000  0.492000  1.0
  C  C5608  1  0.716000  0.663400  0.492000  1.0
  C  C5609  1  0.492000  0.716000  0.663400  1.0
  C  C5610  1  0.663400  0.492000  0.716000  1.0
  C  C5611  1  0.336600  0.716000  0.492000  1.0
  C  C5612  1  0.336600  0.508000  0.716000  1.0
  C  C5613  1  0.284000  0.336600  0.492000  1.0
  C  C5614  1  0.508000  0.284000  0.663400  1.0
  C  C5615  1  0.508000  0.663400  0.716000  1.0
  C  C5616  1  0.284000  0.492000  0.663400  1.0
  C  C5617  1  0.508000  0.836600  0.784000  1.0
  C  C5618  1  0.336600  0.784000  0.008000  1.0
  C  C5619  1  0.284000  0.008000  0.836600  1.0
  C  C5620  1  0.663400  0.008000  0.784000  1.0
  C  C5621  1  0.716000  0.836600  0.008000  1.0
  C  C5622  1  0.492000  0.784000  0.836600  1.0
  C  C5623  1  0.492000  0.163400  0.784000  1.0
  C  C5624  1  0.716000  0.008000  0.163400  1.0
  C  C5625  1  0.492000  0.836600  0.216000  1.0
  C  C5626  1  0.663400  0.216000  0.008000  1.0
  C  C5627  1  0.716000  0.992000  0.836600  1.0
  C  C5628  1  0.336600  0.992000  0.784000  1.0
  C  C5629  1  0.284000  0.163400  0.008000  1.0
  C  C5630  1  0.508000  0.216000  0.836600  1.0
  C  C5631  1  0.663400  0.784000  0.992000  1.0
  C  C5632  1  0.716000  0.163400  0.992000  1.0
  C  C5633  1  0.492000  0.216000  0.163400  1.0
  C  C5634  1  0.663400  0.992000  0.216000  1.0
  C  C5635  1  0.336600  0.216000  0.992000  1.0
  C  C5636  1  0.336600  0.008000  0.216000  1.0
  C  C5637  1  0.284000  0.836600  0.992000  1.0
  C  C5638  1  0.508000  0.784000  0.163400  1.0
  C  C5639  1  0.508000  0.163400  0.216000  1.0
  C  C5640  1  0.284000  0.992000  0.163400  1.0
  C  C5641  1  0.008000  0.336600  0.784000  1.0
  C  C5642  1  0.836600  0.284000  0.008000  1.0
  C  C5643  1  0.784000  0.508000  0.836600  1.0
  C  C5644  1  0.163400  0.508000  0.784000  1.0
  C  C5645  1  0.216000  0.336600  0.008000  1.0
  C  C5646  1  0.992000  0.284000  0.836600  1.0
  C  C5647  1  0.992000  0.663400  0.784000  1.0
  C  C5648  1  0.216000  0.508000  0.163400  1.0
  C  C5649  1  0.992000  0.336600  0.216000  1.0
  C  C5650  1  0.163400  0.716000  0.008000  1.0
  C  C5651  1  0.216000  0.492000  0.836600  1.0
  C  C5652  1  0.836600  0.492000  0.784000  1.0
  C  C5653  1  0.784000  0.663400  0.008000  1.0
  C  C5654  1  0.008000  0.716000  0.836600  1.0
  C  C5655  1  0.163400  0.284000  0.992000  1.0
  C  C5656  1  0.216000  0.663400  0.992000  1.0
  C  C5657  1  0.992000  0.716000  0.163400  1.0
  C  C5658  1  0.163400  0.492000  0.216000  1.0
  C  C5659  1  0.836600  0.716000  0.992000  1.0
  C  C5660  1  0.836600  0.508000  0.216000  1.0
  C  C5661  1  0.784000  0.336600  0.992000  1.0
  C  C5662  1  0.008000  0.284000  0.163400  1.0
  C  C5663  1  0.008000  0.663400  0.216000  1.0
  C  C5664  1  0.784000  0.492000  0.163400  1.0
  C  C5665  1  0.008000  0.836600  0.284000  1.0
  C  C5666  1  0.836600  0.784000  0.508000  1.0
  C  C5667  1  0.784000  0.008000  0.336600  1.0
  C  C5668  1  0.163400  0.008000  0.284000  1.0
  C  C5669  1  0.216000  0.836600  0.508000  1.0
  C  C5670  1  0.992000  0.784000  0.336600  1.0
  C  C5671  1  0.992000  0.163400  0.284000  1.0
  C  C5672  1  0.216000  0.008000  0.663400  1.0
  C  C5673  1  0.992000  0.836600  0.716000  1.0
  C  C5674  1  0.163400  0.216000  0.508000  1.0
  C  C5675  1  0.216000  0.992000  0.336600  1.0
  C  C5676  1  0.836600  0.992000  0.284000  1.0
  C  C5677  1  0.784000  0.163400  0.508000  1.0
  C  C5678  1  0.008000  0.216000  0.336600  1.0
  C  C5679  1  0.163400  0.784000  0.492000  1.0
  C  C5680  1  0.216000  0.163400  0.492000  1.0
  C  C5681  1  0.992000  0.216000  0.663400  1.0
  C  C5682  1  0.163400  0.992000  0.716000  1.0
  C  C5683  1  0.836600  0.216000  0.492000  1.0
  C  C5684  1  0.836600  0.008000  0.716000  1.0
  C  C5685  1  0.784000  0.836600  0.492000  1.0
  C  C5686  1  0.008000  0.784000  0.663400  1.0
  C  C5687  1  0.008000  0.163400  0.716000  1.0
  C  C5688  1  0.784000  0.992000  0.663400  1.0
  C  C5689  1  0.481200  0.325500  0.279500  1.0
  C  C5690  1  0.325500  0.279500  0.481200  1.0
  C  C5691  1  0.279500  0.481200  0.325500  1.0
  C  C5692  1  0.674500  0.481200  0.279500  1.0
  C  C5693  1  0.720500  0.325500  0.481200  1.0
  C  C5694  1  0.518800  0.279500  0.325500  1.0
  C  C5695  1  0.518800  0.674500  0.279500  1.0
  C  C5696  1  0.720500  0.481200  0.674500  1.0
  C  C5697  1  0.518800  0.325500  0.720500  1.0
  C  C5698  1  0.674500  0.720500  0.481200  1.0
  C  C5699  1  0.720500  0.518800  0.325500  1.0
  C  C5700  1  0.325500  0.518800  0.279500  1.0
  C  C5701  1  0.279500  0.674500  0.481200  1.0
  C  C5702  1  0.481200  0.720500  0.325500  1.0
  C  C5703  1  0.674500  0.279500  0.518800  1.0
  C  C5704  1  0.720500  0.674500  0.518800  1.0
  C  C5705  1  0.518800  0.720500  0.674500  1.0
  C  C5706  1  0.674500  0.518800  0.720500  1.0
  C  C5707  1  0.325500  0.720500  0.518800  1.0
  C  C5708  1  0.325500  0.481200  0.720500  1.0
  C  C5709  1  0.279500  0.325500  0.518800  1.0
  C  C5710  1  0.481200  0.279500  0.674500  1.0
  C  C5711  1  0.481200  0.674500  0.720500  1.0
  C  C5712  1  0.279500  0.518800  0.674500  1.0
  C  C5713  1  0.481200  0.825500  0.779500  1.0
  C  C5714  1  0.325500  0.779500  0.981200  1.0
  C  C5715  1  0.279500  0.981200  0.825500  1.0
  C  C5716  1  0.674500  0.981200  0.779500  1.0
  C  C5717  1  0.720500  0.825500  0.981200  1.0
  C  C5718  1  0.518800  0.779500  0.825500  1.0
  C  C5719  1  0.518800  0.174500  0.779500  1.0
  C  C5720  1  0.720500  0.981200  0.174500  1.0
  C  C5721  1  0.518800  0.825500  0.220500  1.0
  C  C5722  1  0.674500  0.220500  0.981200  1.0
  C  C5723  1  0.720500  0.018800  0.825500  1.0
  C  C5724  1  0.325500  0.018800  0.779500  1.0
  C  C5725  1  0.279500  0.174500  0.981200  1.0
  C  C5726  1  0.481200  0.220500  0.825500  1.0
  C  C5727  1  0.674500  0.779500  0.018800  1.0
  C  C5728  1  0.720500  0.174500  0.018800  1.0
  C  C5729  1  0.518800  0.220500  0.174500  1.0
  C  C5730  1  0.674500  0.018800  0.220500  1.0
  C  C5731  1  0.325500  0.220500  0.018800  1.0
  C  C5732  1  0.325500  0.981200  0.220500  1.0
  C  C5733  1  0.279500  0.825500  0.018800  1.0
  C  C5734  1  0.481200  0.779500  0.174500  1.0
  C  C5735  1  0.481200  0.174500  0.220500  1.0
  C  C5736  1  0.279500  0.018800  0.174500  1.0
  C  C5737  1  0.981200  0.325500  0.779500  1.0
  C  C5738  1  0.825500  0.279500  0.981200  1.0
  C  C5739  1  0.779500  0.481200  0.825500  1.0
  C  C5740  1  0.174500  0.481200  0.779500  1.0
  C  C5741  1  0.220500  0.325500  0.981200  1.0
  C  C5742  1  0.018800  0.279500  0.825500  1.0
  C  C5743  1  0.018800  0.674500  0.779500  1.0
  C  C5744  1  0.220500  0.481200  0.174500  1.0
  C  C5745  1  0.018800  0.325500  0.220500  1.0
  C  C5746  1  0.174500  0.720500  0.981200  1.0
  C  C5747  1  0.220500  0.518800  0.825500  1.0
  C  C5748  1  0.825500  0.518800  0.779500  1.0
  C  C5749  1  0.779500  0.674500  0.981200  1.0
  C  C5750  1  0.981200  0.720500  0.825500  1.0
  C  C5751  1  0.174500  0.279500  0.018800  1.0
  C  C5752  1  0.220500  0.674500  0.018800  1.0
  C  C5753  1  0.018800  0.720500  0.174500  1.0
  C  C5754  1  0.174500  0.518800  0.220500  1.0
  C  C5755  1  0.825500  0.720500  0.018800  1.0
  C  C5756  1  0.825500  0.481200  0.220500  1.0
  C  C5757  1  0.779500  0.325500  0.018800  1.0
  C  C5758  1  0.981200  0.279500  0.174500  1.0
  C  C5759  1  0.981200  0.674500  0.220500  1.0
  C  C5760  1  0.779500  0.518800  0.174500  1.0
  C  C5761  1  0.981200  0.825500  0.279500  1.0
  C  C5762  1  0.825500  0.779500  0.481200  1.0
  C  C5763  1  0.779500  0.981200  0.325500  1.0
  C  C5764  1  0.174500  0.981200  0.279500  1.0
  C  C5765  1  0.220500  0.825500  0.481200  1.0
  C  C5766  1  0.018800  0.779500  0.325500  1.0
  C  C5767  1  0.018800  0.174500  0.279500  1.0
  C  C5768  1  0.220500  0.981200  0.674500  1.0
  C  C5769  1  0.018800  0.825500  0.720500  1.0
  C  C5770  1  0.174500  0.220500  0.481200  1.0
  C  C5771  1  0.220500  0.018800  0.325500  1.0
  C  C5772  1  0.825500  0.018800  0.279500  1.0
  C  C5773  1  0.779500  0.174500  0.481200  1.0
  C  C5774  1  0.981200  0.220500  0.325500  1.0
  C  C5775  1  0.174500  0.779500  0.518800  1.0
  C  C5776  1  0.220500  0.174500  0.518800  1.0
  C  C5777  1  0.018800  0.220500  0.674500  1.0
  C  C5778  1  0.174500  0.018800  0.720500  1.0
  C  C5779  1  0.825500  0.220500  0.518800  1.0
  C  C5780  1  0.825500  0.981200  0.720500  1.0
  C  C5781  1  0.779500  0.825500  0.518800  1.0
  C  C5782  1  0.981200  0.779500  0.674500  1.0
  C  C5783  1  0.981200  0.174500  0.720500  1.0
  C  C5784  1  0.779500  0.018800  0.674500  1.0
  C  C5785  1  0.480100  0.304900  0.260800  1.0
  C  C5786  1  0.304900  0.260800  0.480100  1.0
  C  C5787  1  0.260800  0.480100  0.304900  1.0
  C  C5788  1  0.695100  0.480100  0.260800  1.0
  C  C5789  1  0.739200  0.304900  0.480100  1.0
  C  C5790  1  0.519900  0.260800  0.304900  1.0
  C  C5791  1  0.519900  0.695100  0.260800  1.0
  C  C5792  1  0.739200  0.480100  0.695100  1.0
  C  C5793  1  0.519900  0.304900  0.739200  1.0
  C  C5794  1  0.695100  0.739200  0.480100  1.0
  C  C5795  1  0.739200  0.519900  0.304900  1.0
  C  C5796  1  0.304900  0.519900  0.260800  1.0
  C  C5797  1  0.260800  0.695100  0.480100  1.0
  C  C5798  1  0.480100  0.739200  0.304900  1.0
  C  C5799  1  0.695100  0.260800  0.519900  1.0
  C  C5800  1  0.739200  0.695100  0.519900  1.0
  C  C5801  1  0.519900  0.739200  0.695100  1.0
  C  C5802  1  0.695100  0.519900  0.739200  1.0
  C  C5803  1  0.304900  0.739200  0.519900  1.0
  C  C5804  1  0.304900  0.480100  0.739200  1.0
  C  C5805  1  0.260800  0.304900  0.519900  1.0
  C  C5806  1  0.480100  0.260800  0.695100  1.0
  C  C5807  1  0.480100  0.695100  0.739200  1.0
  C  C5808  1  0.260800  0.519900  0.695100  1.0
  C  C5809  1  0.480100  0.804900  0.760800  1.0
  C  C5810  1  0.304900  0.760800  0.980100  1.0
  C  C5811  1  0.260800  0.980100  0.804900  1.0
  C  C5812  1  0.695100  0.980100  0.760800  1.0
  C  C5813  1  0.739200  0.804900  0.980100  1.0
  C  C5814  1  0.519900  0.760800  0.804900  1.0
  C  C5815  1  0.519900  0.195100  0.760800  1.0
  C  C5816  1  0.739200  0.980100  0.195100  1.0
  C  C5817  1  0.519900  0.804900  0.239200  1.0
  C  C5818  1  0.695100  0.239200  0.980100  1.0
  C  C5819  1  0.739200  0.019900  0.804900  1.0
  C  C5820  1  0.304900  0.019900  0.760800  1.0
  C  C5821  1  0.260800  0.195100  0.980100  1.0
  C  C5822  1  0.480100  0.239200  0.804900  1.0
  C  C5823  1  0.695100  0.760800  0.019900  1.0
  C  C5824  1  0.739200  0.195100  0.019900  1.0
  C  C5825  1  0.519900  0.239200  0.195100  1.0
  C  C5826  1  0.695100  0.019900  0.239200  1.0
  C  C5827  1  0.304900  0.239200  0.019900  1.0
  C  C5828  1  0.304900  0.980100  0.239200  1.0
  C  C5829  1  0.260800  0.804900  0.019900  1.0
  C  C5830  1  0.480100  0.760800  0.195100  1.0
  C  C5831  1  0.480100  0.195100  0.239200  1.0
  C  C5832  1  0.260800  0.019900  0.195100  1.0
  C  C5833  1  0.980100  0.304900  0.760800  1.0
  C  C5834  1  0.804900  0.260800  0.980100  1.0
  C  C5835  1  0.760800  0.480100  0.804900  1.0
  C  C5836  1  0.195100  0.480100  0.760800  1.0
  C  C5837  1  0.239200  0.304900  0.980100  1.0
  C  C5838  1  0.019900  0.260800  0.804900  1.0
  C  C5839  1  0.019900  0.695100  0.760800  1.0
  C  C5840  1  0.239200  0.480100  0.195100  1.0
  C  C5841  1  0.019900  0.304900  0.239200  1.0
  C  C5842  1  0.195100  0.739200  0.980100  1.0
  C  C5843  1  0.239200  0.519900  0.804900  1.0
  C  C5844  1  0.804900  0.519900  0.760800  1.0
  C  C5845  1  0.760800  0.695100  0.980100  1.0
  C  C5846  1  0.980100  0.739200  0.804900  1.0
  C  C5847  1  0.195100  0.260800  0.019900  1.0
  C  C5848  1  0.239200  0.695100  0.019900  1.0
  C  C5849  1  0.019900  0.739200  0.195100  1.0
  C  C5850  1  0.195100  0.519900  0.239200  1.0
  C  C5851  1  0.804900  0.739200  0.019900  1.0
  C  C5852  1  0.804900  0.480100  0.239200  1.0
  C  C5853  1  0.760800  0.304900  0.019900  1.0
  C  C5854  1  0.980100  0.260800  0.195100  1.0
  C  C5855  1  0.980100  0.695100  0.239200  1.0
  C  C5856  1  0.760800  0.519900  0.195100  1.0
  C  C5857  1  0.980100  0.804900  0.260800  1.0
  C  C5858  1  0.804900  0.760800  0.480100  1.0
  C  C5859  1  0.760800  0.980100  0.304900  1.0
  C  C5860  1  0.195100  0.980100  0.260800  1.0
  C  C5861  1  0.239200  0.804900  0.480100  1.0
  C  C5862  1  0.019900  0.760800  0.304900  1.0
  C  C5863  1  0.019900  0.195100  0.260800  1.0
  C  C5864  1  0.239200  0.980100  0.695100  1.0
  C  C5865  1  0.019900  0.804900  0.739200  1.0
  C  C5866  1  0.195100  0.239200  0.480100  1.0
  C  C5867  1  0.239200  0.019900  0.304900  1.0
  C  C5868  1  0.804900  0.019900  0.260800  1.0
  C  C5869  1  0.760800  0.195100  0.480100  1.0
  C  C5870  1  0.980100  0.239200  0.304900  1.0
  C  C5871  1  0.195100  0.760800  0.519900  1.0
  C  C5872  1  0.239200  0.195100  0.519900  1.0
  C  C5873  1  0.019900  0.239200  0.695100  1.0
  C  C5874  1  0.195100  0.019900  0.739200  1.0
  C  C5875  1  0.804900  0.239200  0.519900  1.0
  C  C5876  1  0.804900  0.980100  0.739200  1.0
  C  C5877  1  0.760800  0.804900  0.519900  1.0
  C  C5878  1  0.980100  0.760800  0.695100  1.0
  C  C5879  1  0.980100  0.195100  0.739200  1.0
  C  C5880  1  0.760800  0.019900  0.695100  1.0
  C  C5881  1  0.390100  0.432600  0.270200  1.0
  C  C5882  1  0.432600  0.270200  0.390100  1.0
  C  C5883  1  0.270200  0.390100  0.432600  1.0
  C  C5884  1  0.567400  0.390100  0.270200  1.0
  C  C5885  1  0.729800  0.432600  0.390100  1.0
  C  C5886  1  0.609900  0.270200  0.432600  1.0
  C  C5887  1  0.609900  0.567400  0.270200  1.0
  C  C5888  1  0.729800  0.390100  0.567400  1.0
  C  C5889  1  0.609900  0.432600  0.729800  1.0
  C  C5890  1  0.567400  0.729800  0.390100  1.0
  C  C5891  1  0.729800  0.609900  0.432600  1.0
  C  C5892  1  0.432600  0.609900  0.270200  1.0
  C  C5893  1  0.270200  0.567400  0.390100  1.0
  C  C5894  1  0.390100  0.729800  0.432600  1.0
  C  C5895  1  0.567400  0.270200  0.609900  1.0
  C  C5896  1  0.729800  0.567400  0.609900  1.0
  C  C5897  1  0.609900  0.729800  0.567400  1.0
  C  C5898  1  0.567400  0.609900  0.729800  1.0
  C  C5899  1  0.432600  0.729800  0.609900  1.0
  C  C5900  1  0.432600  0.390100  0.729800  1.0
  C  C5901  1  0.270200  0.432600  0.609900  1.0
  C  C5902  1  0.390100  0.270200  0.567400  1.0
  C  C5903  1  0.390100  0.567400  0.729800  1.0
  C  C5904  1  0.270200  0.609900  0.567400  1.0
  C  C5905  1  0.390100  0.932600  0.770200  1.0
  C  C5906  1  0.432600  0.770200  0.890100  1.0
  C  C5907  1  0.270200  0.890100  0.932600  1.0
  C  C5908  1  0.567400  0.890100  0.770200  1.0
  C  C5909  1  0.729800  0.932600  0.890100  1.0
  C  C5910  1  0.609900  0.770200  0.932600  1.0
  C  C5911  1  0.609900  0.067400  0.770200  1.0
  C  C5912  1  0.729800  0.890100  0.067400  1.0
  C  C5913  1  0.609900  0.932600  0.229800  1.0
  C  C5914  1  0.567400  0.229800  0.890100  1.0
  C  C5915  1  0.729800  0.109900  0.932600  1.0
  C  C5916  1  0.432600  0.109900  0.770200  1.0
  C  C5917  1  0.270200  0.067400  0.890100  1.0
  C  C5918  1  0.390100  0.229800  0.932600  1.0
  C  C5919  1  0.567400  0.770200  0.109900  1.0
  C  C5920  1  0.729800  0.067400  0.109900  1.0
  C  C5921  1  0.609900  0.229800  0.067400  1.0
  C  C5922  1  0.567400  0.109900  0.229800  1.0
  C  C5923  1  0.432600  0.229800  0.109900  1.0
  C  C5924  1  0.432600  0.890100  0.229800  1.0
  C  C5925  1  0.270200  0.932600  0.109900  1.0
  C  C5926  1  0.390100  0.770200  0.067400  1.0
  C  C5927  1  0.390100  0.067400  0.229800  1.0
  C  C5928  1  0.270200  0.109900  0.067400  1.0
  C  C5929  1  0.890100  0.432600  0.770200  1.0
  C  C5930  1  0.932600  0.270200  0.890100  1.0
  C  C5931  1  0.770200  0.390100  0.932600  1.0
  C  C5932  1  0.067400  0.390100  0.770200  1.0
  C  C5933  1  0.229800  0.432600  0.890100  1.0
  C  C5934  1  0.109900  0.270200  0.932600  1.0
  C  C5935  1  0.109900  0.567400  0.770200  1.0
  C  C5936  1  0.229800  0.390100  0.067400  1.0
  C  C5937  1  0.109900  0.432600  0.229800  1.0
  C  C5938  1  0.067400  0.729800  0.890100  1.0
  C  C5939  1  0.229800  0.609900  0.932600  1.0
  C  C5940  1  0.932600  0.609900  0.770200  1.0
  C  C5941  1  0.770200  0.567400  0.890100  1.0
  C  C5942  1  0.890100  0.729800  0.932600  1.0
  C  C5943  1  0.067400  0.270200  0.109900  1.0
  C  C5944  1  0.229800  0.567400  0.109900  1.0
  C  C5945  1  0.109900  0.729800  0.067400  1.0
  C  C5946  1  0.067400  0.609900  0.229800  1.0
  C  C5947  1  0.932600  0.729800  0.109900  1.0
  C  C5948  1  0.932600  0.390100  0.229800  1.0
  C  C5949  1  0.770200  0.432600  0.109900  1.0
  C  C5950  1  0.890100  0.270200  0.067400  1.0
  C  C5951  1  0.890100  0.567400  0.229800  1.0
  C  C5952  1  0.770200  0.609900  0.067400  1.0
  C  C5953  1  0.890100  0.932600  0.270200  1.0
  C  C5954  1  0.932600  0.770200  0.390100  1.0
  C  C5955  1  0.770200  0.890100  0.432600  1.0
  C  C5956  1  0.067400  0.890100  0.270200  1.0
  C  C5957  1  0.229800  0.932600  0.390100  1.0
  C  C5958  1  0.109900  0.770200  0.432600  1.0
  C  C5959  1  0.109900  0.067400  0.270200  1.0
  C  C5960  1  0.229800  0.890100  0.567400  1.0
  C  C5961  1  0.109900  0.932600  0.729800  1.0
  C  C5962  1  0.067400  0.229800  0.390100  1.0
  C  C5963  1  0.229800  0.109900  0.432600  1.0
  C  C5964  1  0.932600  0.109900  0.270200  1.0
  C  C5965  1  0.770200  0.067400  0.390100  1.0
  C  C5966  1  0.890100  0.229800  0.432600  1.0
  C  C5967  1  0.067400  0.770200  0.609900  1.0
  C  C5968  1  0.229800  0.067400  0.609900  1.0
  C  C5969  1  0.109900  0.229800  0.567400  1.0
  C  C5970  1  0.067400  0.109900  0.729800  1.0
  C  C5971  1  0.932600  0.229800  0.609900  1.0
  C  C5972  1  0.932600  0.890100  0.729800  1.0
  C  C5973  1  0.770200  0.932600  0.609900  1.0
  C  C5974  1  0.890100  0.770200  0.567400  1.0
  C  C5975  1  0.890100  0.067400  0.729800  1.0
  C  C5976  1  0.770200  0.109900  0.567400  1.0
  C  C5977  1  0.403100  0.434900  0.296300  1.0
  C  C5978  1  0.434900  0.296300  0.403100  1.0
  C  C5979  1  0.296300  0.403100  0.434900  1.0
  C  C5980  1  0.565100  0.403100  0.296300  1.0
  C  C5981  1  0.703700  0.434900  0.403100  1.0
  C  C5982  1  0.596900  0.296300  0.434900  1.0
  C  C5983  1  0.596900  0.565100  0.296300  1.0
  C  C5984  1  0.703700  0.403100  0.565100  1.0
  C  C5985  1  0.596900  0.434900  0.703700  1.0
  C  C5986  1  0.565100  0.703700  0.403100  1.0
  C  C5987  1  0.703700  0.596900  0.434900  1.0
  C  C5988  1  0.434900  0.596900  0.296300  1.0
  C  C5989  1  0.296300  0.565100  0.403100  1.0
  C  C5990  1  0.403100  0.703700  0.434900  1.0
  C  C5991  1  0.565100  0.296300  0.596900  1.0
  C  C5992  1  0.703700  0.565100  0.596900  1.0
  C  C5993  1  0.596900  0.703700  0.565100  1.0
  C  C5994  1  0.565100  0.596900  0.703700  1.0
  C  C5995  1  0.434900  0.703700  0.596900  1.0
  C  C5996  1  0.434900  0.403100  0.703700  1.0
  C  C5997  1  0.296300  0.434900  0.596900  1.0
  C  C5998  1  0.403100  0.296300  0.565100  1.0
  C  C5999  1  0.403100  0.565100  0.703700  1.0
  C  C6000  1  0.296300  0.596900  0.565100  1.0
  C  C6001  1  0.403100  0.934900  0.796300  1.0
  C  C6002  1  0.434900  0.796300  0.903100  1.0
  C  C6003  1  0.296300  0.903100  0.934900  1.0
  C  C6004  1  0.565100  0.903100  0.796300  1.0
  C  C6005  1  0.703700  0.934900  0.903100  1.0
  C  C6006  1  0.596900  0.796300  0.934900  1.0
  C  C6007  1  0.596900  0.065100  0.796300  1.0
  C  C6008  1  0.703700  0.903100  0.065100  1.0
  C  C6009  1  0.596900  0.934900  0.203700  1.0
  C  C6010  1  0.565100  0.203700  0.903100  1.0
  C  C6011  1  0.703700  0.096900  0.934900  1.0
  C  C6012  1  0.434900  0.096900  0.796300  1.0
  C  C6013  1  0.296300  0.065100  0.903100  1.0
  C  C6014  1  0.403100  0.203700  0.934900  1.0
  C  C6015  1  0.565100  0.796300  0.096900  1.0
  C  C6016  1  0.703700  0.065100  0.096900  1.0
  C  C6017  1  0.596900  0.203700  0.065100  1.0
  C  C6018  1  0.565100  0.096900  0.203700  1.0
  C  C6019  1  0.434900  0.203700  0.096900  1.0
  C  C6020  1  0.434900  0.903100  0.203700  1.0
  C  C6021  1  0.296300  0.934900  0.096900  1.0
  C  C6022  1  0.403100  0.796300  0.065100  1.0
  C  C6023  1  0.403100  0.065100  0.203700  1.0
  C  C6024  1  0.296300  0.096900  0.065100  1.0
  C  C6025  1  0.903100  0.434900  0.796300  1.0
  C  C6026  1  0.934900  0.296300  0.903100  1.0
  C  C6027  1  0.796300  0.403100  0.934900  1.0
  C  C6028  1  0.065100  0.403100  0.796300  1.0
  C  C6029  1  0.203700  0.434900  0.903100  1.0
  C  C6030  1  0.096900  0.296300  0.934900  1.0
  C  C6031  1  0.096900  0.565100  0.796300  1.0
  C  C6032  1  0.203700  0.403100  0.065100  1.0
  C  C6033  1  0.096900  0.434900  0.203700  1.0
  C  C6034  1  0.065100  0.703700  0.903100  1.0
  C  C6035  1  0.203700  0.596900  0.934900  1.0
  C  C6036  1  0.934900  0.596900  0.796300  1.0
  C  C6037  1  0.796300  0.565100  0.903100  1.0
  C  C6038  1  0.903100  0.703700  0.934900  1.0
  C  C6039  1  0.065100  0.296300  0.096900  1.0
  C  C6040  1  0.203700  0.565100  0.096900  1.0
  C  C6041  1  0.096900  0.703700  0.065100  1.0
  C  C6042  1  0.065100  0.596900  0.203700  1.0
  C  C6043  1  0.934900  0.703700  0.096900  1.0
  C  C6044  1  0.934900  0.403100  0.203700  1.0
  C  C6045  1  0.796300  0.434900  0.096900  1.0
  C  C6046  1  0.903100  0.296300  0.065100  1.0
  C  C6047  1  0.903100  0.565100  0.203700  1.0
  C  C6048  1  0.796300  0.596900  0.065100  1.0
  C  C6049  1  0.903100  0.934900  0.296300  1.0
  C  C6050  1  0.934900  0.796300  0.403100  1.0
  C  C6051  1  0.796300  0.903100  0.434900  1.0
  C  C6052  1  0.065100  0.903100  0.296300  1.0
  C  C6053  1  0.203700  0.934900  0.403100  1.0
  C  C6054  1  0.096900  0.796300  0.434900  1.0
  C  C6055  1  0.096900  0.065100  0.296300  1.0
  C  C6056  1  0.203700  0.903100  0.565100  1.0
  C  C6057  1  0.096900  0.934900  0.703700  1.0
  C  C6058  1  0.065100  0.203700  0.403100  1.0
  C  C6059  1  0.203700  0.096900  0.434900  1.0
  C  C6060  1  0.934900  0.096900  0.296300  1.0
  C  C6061  1  0.796300  0.065100  0.403100  1.0
  C  C6062  1  0.903100  0.203700  0.434900  1.0
  C  C6063  1  0.065100  0.796300  0.596900  1.0
  C  C6064  1  0.203700  0.065100  0.596900  1.0
  C  C6065  1  0.096900  0.203700  0.565100  1.0
  C  C6066  1  0.065100  0.096900  0.703700  1.0
  C  C6067  1  0.934900  0.203700  0.596900  1.0
  C  C6068  1  0.934900  0.903100  0.703700  1.0
  C  C6069  1  0.796300  0.934900  0.596900  1.0
  C  C6070  1  0.903100  0.796300  0.565100  1.0
  C  C6071  1  0.903100  0.065100  0.703700  1.0
  C  C6072  1  0.796300  0.096900  0.565100  1.0
  C  C6073  1  0.396900  0.416900  0.317200  1.0
  C  C6074  1  0.416900  0.317200  0.396900  1.0
  C  C6075  1  0.317200  0.396900  0.416900  1.0
  C  C6076  1  0.583100  0.396900  0.317200  1.0
  C  C6077  1  0.682800  0.416900  0.396900  1.0
  C  C6078  1  0.603100  0.317200  0.416900  1.0
  C  C6079  1  0.603100  0.583100  0.317200  1.0
  C  C6080  1  0.682800  0.396900  0.583100  1.0
  C  C6081  1  0.603100  0.416900  0.682800  1.0
  C  C6082  1  0.583100  0.682800  0.396900  1.0
  C  C6083  1  0.682800  0.603100  0.416900  1.0
  C  C6084  1  0.416900  0.603100  0.317200  1.0
  C  C6085  1  0.317200  0.583100  0.396900  1.0
  C  C6086  1  0.396900  0.682800  0.416900  1.0
  C  C6087  1  0.583100  0.317200  0.603100  1.0
  C  C6088  1  0.682800  0.583100  0.603100  1.0
  C  C6089  1  0.603100  0.682800  0.583100  1.0
  C  C6090  1  0.583100  0.603100  0.682800  1.0
  C  C6091  1  0.416900  0.682800  0.603100  1.0
  C  C6092  1  0.416900  0.396900  0.682800  1.0
  C  C6093  1  0.317200  0.416900  0.603100  1.0
  C  C6094  1  0.396900  0.317200  0.583100  1.0
  C  C6095  1  0.396900  0.583100  0.682800  1.0
  C  C6096  1  0.317200  0.603100  0.583100  1.0
  C  C6097  1  0.396900  0.916900  0.817200  1.0
  C  C6098  1  0.416900  0.817200  0.896900  1.0
  C  C6099  1  0.317200  0.896900  0.916900  1.0
  C  C6100  1  0.583100  0.896900  0.817200  1.0
  C  C6101  1  0.682800  0.916900  0.896900  1.0
  C  C6102  1  0.603100  0.817200  0.916900  1.0
  C  C6103  1  0.603100  0.083100  0.817200  1.0
  C  C6104  1  0.682800  0.896900  0.083100  1.0
  C  C6105  1  0.603100  0.916900  0.182800  1.0
  C  C6106  1  0.583100  0.182800  0.896900  1.0
  C  C6107  1  0.682800  0.103100  0.916900  1.0
  C  C6108  1  0.416900  0.103100  0.817200  1.0
  C  C6109  1  0.317200  0.083100  0.896900  1.0
  C  C6110  1  0.396900  0.182800  0.916900  1.0
  C  C6111  1  0.583100  0.817200  0.103100  1.0
  C  C6112  1  0.682800  0.083100  0.103100  1.0
  C  C6113  1  0.603100  0.182800  0.083100  1.0
  C  C6114  1  0.583100  0.103100  0.182800  1.0
  C  C6115  1  0.416900  0.182800  0.103100  1.0
  C  C6116  1  0.416900  0.896900  0.182800  1.0
  C  C6117  1  0.317200  0.916900  0.103100  1.0
  C  C6118  1  0.396900  0.817200  0.083100  1.0
  C  C6119  1  0.396900  0.083100  0.182800  1.0
  C  C6120  1  0.317200  0.103100  0.083100  1.0
  C  C6121  1  0.896900  0.416900  0.817200  1.0
  C  C6122  1  0.916900  0.317200  0.896900  1.0
  C  C6123  1  0.817200  0.396900  0.916900  1.0
  C  C6124  1  0.083100  0.396900  0.817200  1.0
  C  C6125  1  0.182800  0.416900  0.896900  1.0
  C  C6126  1  0.103100  0.317200  0.916900  1.0
  C  C6127  1  0.103100  0.583100  0.817200  1.0
  C  C6128  1  0.182800  0.396900  0.083100  1.0
  C  C6129  1  0.103100  0.416900  0.182800  1.0
  C  C6130  1  0.083100  0.682800  0.896900  1.0
  C  C6131  1  0.182800  0.603100  0.916900  1.0
  C  C6132  1  0.916900  0.603100  0.817200  1.0
  C  C6133  1  0.817200  0.583100  0.896900  1.0
  C  C6134  1  0.896900  0.682800  0.916900  1.0
  C  C6135  1  0.083100  0.317200  0.103100  1.0
  C  C6136  1  0.182800  0.583100  0.103100  1.0
  C  C6137  1  0.103100  0.682800  0.083100  1.0
  C  C6138  1  0.083100  0.603100  0.182800  1.0
  C  C6139  1  0.916900  0.682800  0.103100  1.0
  C  C6140  1  0.916900  0.396900  0.182800  1.0
  C  C6141  1  0.817200  0.416900  0.103100  1.0
  C  C6142  1  0.896900  0.317200  0.083100  1.0
  C  C6143  1  0.896900  0.583100  0.182800  1.0
  C  C6144  1  0.817200  0.603100  0.083100  1.0
  C  C6145  1  0.896900  0.916900  0.317200  1.0
  C  C6146  1  0.916900  0.817200  0.396900  1.0
  C  C6147  1  0.817200  0.896900  0.416900  1.0
  C  C6148  1  0.083100  0.896900  0.317200  1.0
  C  C6149  1  0.182800  0.916900  0.396900  1.0
  C  C6150  1  0.103100  0.817200  0.416900  1.0
  C  C6151  1  0.103100  0.083100  0.317200  1.0
  C  C6152  1  0.182800  0.896900  0.583100  1.0
  C  C6153  1  0.103100  0.916900  0.682800  1.0
  C  C6154  1  0.083100  0.182800  0.396900  1.0
  C  C6155  1  0.182800  0.103100  0.416900  1.0
  C  C6156  1  0.916900  0.103100  0.317200  1.0
  C  C6157  1  0.817200  0.083100  0.396900  1.0
  C  C6158  1  0.896900  0.182800  0.416900  1.0
  C  C6159  1  0.083100  0.817200  0.603100  1.0
  C  C6160  1  0.182800  0.083100  0.603100  1.0
  C  C6161  1  0.103100  0.182800  0.583100  1.0
  C  C6162  1  0.083100  0.103100  0.682800  1.0
  C  C6163  1  0.916900  0.182800  0.603100  1.0
  C  C6164  1  0.916900  0.896900  0.682800  1.0
  C  C6165  1  0.817200  0.916900  0.603100  1.0
  C  C6166  1  0.896900  0.817200  0.583100  1.0
  C  C6167  1  0.896900  0.083100  0.682800  1.0
  C  C6168  1  0.817200  0.103100  0.583100  1.0
  C  C6169  1  0.375800  0.396740  0.314700  1.0
  C  C6170  1  0.396740  0.314700  0.375800  1.0
  C  C6171  1  0.314700  0.375800  0.396740  1.0
  C  C6172  1  0.603260  0.375800  0.314700  1.0
  C  C6173  1  0.685300  0.396740  0.375800  1.0
  C  C6174  1  0.624200  0.314700  0.396740  1.0
  C  C6175  1  0.624200  0.603260  0.314700  1.0
  C  C6176  1  0.685300  0.375800  0.603260  1.0
  C  C6177  1  0.624200  0.396740  0.685300  1.0
  C  C6178  1  0.603260  0.685300  0.375800  1.0
  C  C6179  1  0.685300  0.624200  0.396740  1.0
  C  C6180  1  0.396740  0.624200  0.314700  1.0
  C  C6181  1  0.314700  0.603260  0.375800  1.0
  C  C6182  1  0.375800  0.685300  0.396740  1.0
  C  C6183  1  0.603260  0.314700  0.624200  1.0
  C  C6184  1  0.685300  0.603260  0.624200  1.0
  C  C6185  1  0.624200  0.685300  0.603260  1.0
  C  C6186  1  0.603260  0.624200  0.685300  1.0
  C  C6187  1  0.396740  0.685300  0.624200  1.0
  C  C6188  1  0.396740  0.375800  0.685300  1.0
  C  C6189  1  0.314700  0.396740  0.624200  1.0
  C  C6190  1  0.375800  0.314700  0.603260  1.0
  C  C6191  1  0.375800  0.603260  0.685300  1.0
  C  C6192  1  0.314700  0.624200  0.603260  1.0
  C  C6193  1  0.375800  0.896740  0.814700  1.0
  C  C6194  1  0.396740  0.814700  0.875800  1.0
  C  C6195  1  0.314700  0.875800  0.896740  1.0
  C  C6196  1  0.603260  0.875800  0.814700  1.0
  C  C6197  1  0.685300  0.896740  0.875800  1.0
  C  C6198  1  0.624200  0.814700  0.896740  1.0
  C  C6199  1  0.624200  0.103260  0.814700  1.0
  C  C6200  1  0.685300  0.875800  0.103260  1.0
  C  C6201  1  0.624200  0.896740  0.185300  1.0
  C  C6202  1  0.603260  0.185300  0.875800  1.0
  C  C6203  1  0.685300  0.124200  0.896740  1.0
  C  C6204  1  0.396740  0.124200  0.814700  1.0
  C  C6205  1  0.314700  0.103260  0.875800  1.0
  C  C6206  1  0.375800  0.185300  0.896740  1.0
  C  C6207  1  0.603260  0.814700  0.124200  1.0
  C  C6208  1  0.685300  0.103260  0.124200  1.0
  C  C6209  1  0.624200  0.185300  0.103260  1.0
  C  C6210  1  0.603260  0.124200  0.185300  1.0
  C  C6211  1  0.396740  0.185300  0.124200  1.0
  C  C6212  1  0.396740  0.875800  0.185300  1.0
  C  C6213  1  0.314700  0.896740  0.124200  1.0
  C  C6214  1  0.375800  0.814700  0.103260  1.0
  C  C6215  1  0.375800  0.103260  0.185300  1.0
  C  C6216  1  0.314700  0.124200  0.103260  1.0
  C  C6217  1  0.875800  0.396740  0.814700  1.0
  C  C6218  1  0.896740  0.314700  0.875800  1.0
  C  C6219  1  0.814700  0.375800  0.896740  1.0
  C  C6220  1  0.103260  0.375800  0.814700  1.0
  C  C6221  1  0.185300  0.396740  0.875800  1.0
  C  C6222  1  0.124200  0.314700  0.896740  1.0
  C  C6223  1  0.124200  0.603260  0.814700  1.0
  C  C6224  1  0.185300  0.375800  0.103260  1.0
  C  C6225  1  0.124200  0.396740  0.185300  1.0
  C  C6226  1  0.103260  0.685300  0.875800  1.0
  C  C6227  1  0.185300  0.624200  0.896740  1.0
  C  C6228  1  0.896740  0.624200  0.814700  1.0
  C  C6229  1  0.814700  0.603260  0.875800  1.0
  C  C6230  1  0.875800  0.685300  0.896740  1.0
  C  C6231  1  0.103260  0.314700  0.124200  1.0
  C  C6232  1  0.185300  0.603260  0.124200  1.0
  C  C6233  1  0.124200  0.685300  0.103260  1.0
  C  C6234  1  0.103260  0.624200  0.185300  1.0
  C  C6235  1  0.896740  0.685300  0.124200  1.0
  C  C6236  1  0.896740  0.375800  0.185300  1.0
  C  C6237  1  0.814700  0.396740  0.124200  1.0
  C  C6238  1  0.875800  0.314700  0.103260  1.0
  C  C6239  1  0.875800  0.603260  0.185300  1.0
  C  C6240  1  0.814700  0.624200  0.103260  1.0
  C  C6241  1  0.875800  0.896740  0.314700  1.0
  C  C6242  1  0.896740  0.814700  0.375800  1.0
  C  C6243  1  0.814700  0.875800  0.396740  1.0
  C  C6244  1  0.103260  0.875800  0.314700  1.0
  C  C6245  1  0.185300  0.896740  0.375800  1.0
  C  C6246  1  0.124200  0.814700  0.396740  1.0
  C  C6247  1  0.124200  0.103260  0.314700  1.0
  C  C6248  1  0.185300  0.875800  0.603260  1.0
  C  C6249  1  0.124200  0.896740  0.685300  1.0
  C  C6250  1  0.103260  0.185300  0.375800  1.0
  C  C6251  1  0.185300  0.124200  0.396740  1.0
  C  C6252  1  0.896740  0.124200  0.314700  1.0
  C  C6253  1  0.814700  0.103260  0.375800  1.0
  C  C6254  1  0.875800  0.185300  0.396740  1.0
  C  C6255  1  0.103260  0.814700  0.624200  1.0
  C  C6256  1  0.185300  0.103260  0.624200  1.0
  C  C6257  1  0.124200  0.185300  0.603260  1.0
  C  C6258  1  0.103260  0.124200  0.685300  1.0
  C  C6259  1  0.896740  0.185300  0.624200  1.0
  C  C6260  1  0.896740  0.875800  0.685300  1.0
  C  C6261  1  0.814700  0.896740  0.624200  1.0
  C  C6262  1  0.875800  0.814700  0.603260  1.0
  C  C6263  1  0.875800  0.103260  0.685300  1.0
  C  C6264  1  0.814700  0.124200  0.603260  1.0
  C  C6265  1  0.363700  0.393900  0.289100  1.0
  C  C6266  1  0.393900  0.289100  0.363700  1.0
  C  C6267  1  0.289100  0.363700  0.393900  1.0
  C  C6268  1  0.606100  0.363700  0.289100  1.0
  C  C6269  1  0.710900  0.393900  0.363700  1.0
  C  C6270  1  0.636300  0.289100  0.393900  1.0
  C  C6271  1  0.636300  0.606100  0.289100  1.0
  C  C6272  1  0.710900  0.363700  0.606100  1.0
  C  C6273  1  0.636300  0.393900  0.710900  1.0
  C  C6274  1  0.606100  0.710900  0.363700  1.0
  C  C6275  1  0.710900  0.636300  0.393900  1.0
  C  C6276  1  0.393900  0.636300  0.289100  1.0
  C  C6277  1  0.289100  0.606100  0.363700  1.0
  C  C6278  1  0.363700  0.710900  0.393900  1.0
  C  C6279  1  0.606100  0.289100  0.636300  1.0
  C  C6280  1  0.710900  0.606100  0.636300  1.0
  C  C6281  1  0.636300  0.710900  0.606100  1.0
  C  C6282  1  0.606100  0.636300  0.710900  1.0
  C  C6283  1  0.393900  0.710900  0.636300  1.0
  C  C6284  1  0.393900  0.363700  0.710900  1.0
  C  C6285  1  0.289100  0.393900  0.636300  1.0
  C  C6286  1  0.363700  0.289100  0.606100  1.0
  C  C6287  1  0.363700  0.606100  0.710900  1.0
  C  C6288  1  0.289100  0.636300  0.606100  1.0
  C  C6289  1  0.363700  0.893900  0.789100  1.0
  C  C6290  1  0.393900  0.789100  0.863700  1.0
  C  C6291  1  0.289100  0.863700  0.893900  1.0
  C  C6292  1  0.606100  0.863700  0.789100  1.0
  C  C6293  1  0.710900  0.893900  0.863700  1.0
  C  C6294  1  0.636300  0.789100  0.893900  1.0
  C  C6295  1  0.636300  0.106100  0.789100  1.0
  C  C6296  1  0.710900  0.863700  0.106100  1.0
  C  C6297  1  0.636300  0.893900  0.210900  1.0
  C  C6298  1  0.606100  0.210900  0.863700  1.0
  C  C6299  1  0.710900  0.136300  0.893900  1.0
  C  C6300  1  0.393900  0.136300  0.789100  1.0
  C  C6301  1  0.289100  0.106100  0.863700  1.0
  C  C6302  1  0.363700  0.210900  0.893900  1.0
  C  C6303  1  0.606100  0.789100  0.136300  1.0
  C  C6304  1  0.710900  0.106100  0.136300  1.0
  C  C6305  1  0.636300  0.210900  0.106100  1.0
  C  C6306  1  0.606100  0.136300  0.210900  1.0
  C  C6307  1  0.393900  0.210900  0.136300  1.0
  C  C6308  1  0.393900  0.863700  0.210900  1.0
  C  C6309  1  0.289100  0.893900  0.136300  1.0
  C  C6310  1  0.363700  0.789100  0.106100  1.0
  C  C6311  1  0.363700  0.106100  0.210900  1.0
  C  C6312  1  0.289100  0.136300  0.106100  1.0
  C  C6313  1  0.863700  0.393900  0.789100  1.0
  C  C6314  1  0.893900  0.289100  0.863700  1.0
  C  C6315  1  0.789100  0.363700  0.893900  1.0
  C  C6316  1  0.106100  0.363700  0.789100  1.0
  C  C6317  1  0.210900  0.393900  0.863700  1.0
  C  C6318  1  0.136300  0.289100  0.893900  1.0
  C  C6319  1  0.136300  0.606100  0.789100  1.0
  C  C6320  1  0.210900  0.363700  0.106100  1.0
  C  C6321  1  0.136300  0.393900  0.210900  1.0
  C  C6322  1  0.106100  0.710900  0.863700  1.0
  C  C6323  1  0.210900  0.636300  0.893900  1.0
  C  C6324  1  0.893900  0.636300  0.789100  1.0
  C  C6325  1  0.789100  0.606100  0.863700  1.0
  C  C6326  1  0.863700  0.710900  0.893900  1.0
  C  C6327  1  0.106100  0.289100  0.136300  1.0
  C  C6328  1  0.210900  0.606100  0.136300  1.0
  C  C6329  1  0.136300  0.710900  0.106100  1.0
  C  C6330  1  0.106100  0.636300  0.210900  1.0
  C  C6331  1  0.893900  0.710900  0.136300  1.0
  C  C6332  1  0.893900  0.363700  0.210900  1.0
  C  C6333  1  0.789100  0.393900  0.136300  1.0
  C  C6334  1  0.863700  0.289100  0.106100  1.0
  C  C6335  1  0.863700  0.606100  0.210900  1.0
  C  C6336  1  0.789100  0.636300  0.106100  1.0
  C  C6337  1  0.863700  0.893900  0.289100  1.0
  C  C6338  1  0.893900  0.789100  0.363700  1.0
  C  C6339  1  0.789100  0.863700  0.393900  1.0
  C  C6340  1  0.106100  0.863700  0.289100  1.0
  C  C6341  1  0.210900  0.893900  0.363700  1.0
  C  C6342  1  0.136300  0.789100  0.393900  1.0
  C  C6343  1  0.136300  0.106100  0.289100  1.0
  C  C6344  1  0.210900  0.863700  0.606100  1.0
  C  C6345  1  0.136300  0.893900  0.710900  1.0
  C  C6346  1  0.106100  0.210900  0.363700  1.0
  C  C6347  1  0.210900  0.136300  0.393900  1.0
  C  C6348  1  0.893900  0.136300  0.289100  1.0
  C  C6349  1  0.789100  0.106100  0.363700  1.0
  C  C6350  1  0.863700  0.210900  0.393900  1.0
  C  C6351  1  0.106100  0.789100  0.636300  1.0
  C  C6352  1  0.210900  0.106100  0.636300  1.0
  C  C6353  1  0.136300  0.210900  0.606100  1.0
  C  C6354  1  0.106100  0.136300  0.710900  1.0
  C  C6355  1  0.893900  0.210900  0.636300  1.0
  C  C6356  1  0.893900  0.863700  0.710900  1.0
  C  C6357  1  0.789100  0.893900  0.636300  1.0
  C  C6358  1  0.863700  0.789100  0.606100  1.0
  C  C6359  1  0.863700  0.106100  0.710900  1.0
  C  C6360  1  0.789100  0.136300  0.606100  1.0
  C  C6361  1  0.370600  0.411100  0.266400  1.0
  C  C6362  1  0.411100  0.266400  0.370600  1.0
  C  C6363  1  0.266400  0.370600  0.411100  1.0
  C  C6364  1  0.588900  0.370600  0.266400  1.0
  C  C6365  1  0.733600  0.411100  0.370600  1.0
  C  C6366  1  0.629400  0.266400  0.411100  1.0
  C  C6367  1  0.629400  0.588900  0.266400  1.0
  C  C6368  1  0.733600  0.370600  0.588900  1.0
  C  C6369  1  0.629400  0.411100  0.733600  1.0
  C  C6370  1  0.588900  0.733600  0.370600  1.0
  C  C6371  1  0.733600  0.629400  0.411100  1.0
  C  C6372  1  0.411100  0.629400  0.266400  1.0
  C  C6373  1  0.266400  0.588900  0.370600  1.0
  C  C6374  1  0.370600  0.733600  0.411100  1.0
  C  C6375  1  0.588900  0.266400  0.629400  1.0
  C  C6376  1  0.733600  0.588900  0.629400  1.0
  C  C6377  1  0.629400  0.733600  0.588900  1.0
  C  C6378  1  0.588900  0.629400  0.733600  1.0
  C  C6379  1  0.411100  0.733600  0.629400  1.0
  C  C6380  1  0.411100  0.370600  0.733600  1.0
  C  C6381  1  0.266400  0.411100  0.629400  1.0
  C  C6382  1  0.370600  0.266400  0.588900  1.0
  C  C6383  1  0.370600  0.588900  0.733600  1.0
  C  C6384  1  0.266400  0.629400  0.588900  1.0
  C  C6385  1  0.370600  0.911100  0.766400  1.0
  C  C6386  1  0.411100  0.766400  0.870600  1.0
  C  C6387  1  0.266400  0.870600  0.911100  1.0
  C  C6388  1  0.588900  0.870600  0.766400  1.0
  C  C6389  1  0.733600  0.911100  0.870600  1.0
  C  C6390  1  0.629400  0.766400  0.911100  1.0
  C  C6391  1  0.629400  0.088900  0.766400  1.0
  C  C6392  1  0.733600  0.870600  0.088900  1.0
  C  C6393  1  0.629400  0.911100  0.233600  1.0
  C  C6394  1  0.588900  0.233600  0.870600  1.0
  C  C6395  1  0.733600  0.129400  0.911100  1.0
  C  C6396  1  0.411100  0.129400  0.766400  1.0
  C  C6397  1  0.266400  0.088900  0.870600  1.0
  C  C6398  1  0.370600  0.233600  0.911100  1.0
  C  C6399  1  0.588900  0.766400  0.129400  1.0
  C  C6400  1  0.733600  0.088900  0.129400  1.0
  C  C6401  1  0.629400  0.233600  0.088900  1.0
  C  C6402  1  0.588900  0.129400  0.233600  1.0
  C  C6403  1  0.411100  0.233600  0.129400  1.0
  C  C6404  1  0.411100  0.870600  0.233600  1.0
  C  C6405  1  0.266400  0.911100  0.129400  1.0
  C  C6406  1  0.370600  0.766400  0.088900  1.0
  C  C6407  1  0.370600  0.088900  0.233600  1.0
  C  C6408  1  0.266400  0.129400  0.088900  1.0
  C  C6409  1  0.870600  0.411100  0.766400  1.0
  C  C6410  1  0.911100  0.266400  0.870600  1.0
  C  C6411  1  0.766400  0.370600  0.911100  1.0
  C  C6412  1  0.088900  0.370600  0.766400  1.0
  C  C6413  1  0.233600  0.411100  0.870600  1.0
  C  C6414  1  0.129400  0.266400  0.911100  1.0
  C  C6415  1  0.129400  0.588900  0.766400  1.0
  C  C6416  1  0.233600  0.370600  0.088900  1.0
  C  C6417  1  0.129400  0.411100  0.233600  1.0
  C  C6418  1  0.088900  0.733600  0.870600  1.0
  C  C6419  1  0.233600  0.629400  0.911100  1.0
  C  C6420  1  0.911100  0.629400  0.766400  1.0
  C  C6421  1  0.766400  0.588900  0.870600  1.0
  C  C6422  1  0.870600  0.733600  0.911100  1.0
  C  C6423  1  0.088900  0.266400  0.129400  1.0
  C  C6424  1  0.233600  0.588900  0.129400  1.0
  C  C6425  1  0.129400  0.733600  0.088900  1.0
  C  C6426  1  0.088900  0.629400  0.233600  1.0
  C  C6427  1  0.911100  0.733600  0.129400  1.0
  C  C6428  1  0.911100  0.370600  0.233600  1.0
  C  C6429  1  0.766400  0.411100  0.129400  1.0
  C  C6430  1  0.870600  0.266400  0.088900  1.0
  C  C6431  1  0.870600  0.588900  0.233600  1.0
  C  C6432  1  0.766400  0.629400  0.088900  1.0
  C  C6433  1  0.870600  0.911100  0.266400  1.0
  C  C6434  1  0.911100  0.766400  0.370600  1.0
  C  C6435  1  0.766400  0.870600  0.411100  1.0
  C  C6436  1  0.088900  0.870600  0.266400  1.0
  C  C6437  1  0.233600  0.911100  0.370600  1.0
  C  C6438  1  0.129400  0.766400  0.411100  1.0
  C  C6439  1  0.129400  0.088900  0.266400  1.0
  C  C6440  1  0.233600  0.870600  0.588900  1.0
  C  C6441  1  0.129400  0.911100  0.733600  1.0
  C  C6442  1  0.088900  0.233600  0.370600  1.0
  C  C6443  1  0.233600  0.129400  0.411100  1.0
  C  C6444  1  0.911100  0.129400  0.266400  1.0
  C  C6445  1  0.766400  0.088900  0.370600  1.0
  C  C6446  1  0.870600  0.233600  0.411100  1.0
  C  C6447  1  0.088900  0.766400  0.629400  1.0
  C  C6448  1  0.233600  0.088900  0.629400  1.0
  C  C6449  1  0.129400  0.233600  0.588900  1.0
  C  C6450  1  0.088900  0.129400  0.733600  1.0
  C  C6451  1  0.911100  0.233600  0.629400  1.0
  C  C6452  1  0.911100  0.870600  0.733600  1.0
  C  C6453  1  0.766400  0.911100  0.629400  1.0
  C  C6454  1  0.870600  0.766400  0.588900  1.0
  C  C6455  1  0.870600  0.088900  0.733600  1.0
  C  C6456  1  0.766400  0.129400  0.588900  1.0
  C  C6457  1  0.397100  0.453300  0.247400  1.0
  C  C6458  1  0.453300  0.247400  0.397100  1.0
  C  C6459  1  0.247400  0.397100  0.453300  1.0
  C  C6460  1  0.546700  0.397100  0.247400  1.0
  C  C6461  1  0.752600  0.453300  0.397100  1.0
  C  C6462  1  0.602900  0.247400  0.453300  1.0
  C  C6463  1  0.602900  0.546700  0.247400  1.0
  C  C6464  1  0.752600  0.397100  0.546700  1.0
  C  C6465  1  0.602900  0.453300  0.752600  1.0
  C  C6466  1  0.546700  0.752600  0.397100  1.0
  C  C6467  1  0.752600  0.602900  0.453300  1.0
  C  C6468  1  0.453300  0.602900  0.247400  1.0
  C  C6469  1  0.247400  0.546700  0.397100  1.0
  C  C6470  1  0.397100  0.752600  0.453300  1.0
  C  C6471  1  0.546700  0.247400  0.602900  1.0
  C  C6472  1  0.752600  0.546700  0.602900  1.0
  C  C6473  1  0.602900  0.752600  0.546700  1.0
  C  C6474  1  0.546700  0.602900  0.752600  1.0
  C  C6475  1  0.453300  0.752600  0.602900  1.0
  C  C6476  1  0.453300  0.397100  0.752600  1.0
  C  C6477  1  0.247400  0.453300  0.602900  1.0
  C  C6478  1  0.397100  0.247400  0.546700  1.0
  C  C6479  1  0.397100  0.546700  0.752600  1.0
  C  C6480  1  0.247400  0.602900  0.546700  1.0
  C  C6481  1  0.397100  0.953300  0.747400  1.0
  C  C6482  1  0.453300  0.747400  0.897100  1.0
  C  C6483  1  0.247400  0.897100  0.953300  1.0
  C  C6484  1  0.546700  0.897100  0.747400  1.0
  C  C6485  1  0.752600  0.953300  0.897100  1.0
  C  C6486  1  0.602900  0.747400  0.953300  1.0
  C  C6487  1  0.602900  0.046700  0.747400  1.0
  C  C6488  1  0.752600  0.897100  0.046700  1.0
  C  C6489  1  0.602900  0.953300  0.252600  1.0
  C  C6490  1  0.546700  0.252600  0.897100  1.0
  C  C6491  1  0.752600  0.102900  0.953300  1.0
  C  C6492  1  0.453300  0.102900  0.747400  1.0
  C  C6493  1  0.247400  0.046700  0.897100  1.0
  C  C6494  1  0.397100  0.252600  0.953300  1.0
  C  C6495  1  0.546700  0.747400  0.102900  1.0
  C  C6496  1  0.752600  0.046700  0.102900  1.0
  C  C6497  1  0.602900  0.252600  0.046700  1.0
  C  C6498  1  0.546700  0.102900  0.252600  1.0
  C  C6499  1  0.453300  0.252600  0.102900  1.0
  C  C6500  1  0.453300  0.897100  0.252600  1.0
  C  C6501  1  0.247400  0.953300  0.102900  1.0
  C  C6502  1  0.397100  0.747400  0.046700  1.0
  C  C6503  1  0.397100  0.046700  0.252600  1.0
  C  C6504  1  0.247400  0.102900  0.046700  1.0
  C  C6505  1  0.897100  0.453300  0.747400  1.0
  C  C6506  1  0.953300  0.247400  0.897100  1.0
  C  C6507  1  0.747400  0.397100  0.953300  1.0
  C  C6508  1  0.046700  0.397100  0.747400  1.0
  C  C6509  1  0.252600  0.453300  0.897100  1.0
  C  C6510  1  0.102900  0.247400  0.953300  1.0
  C  C6511  1  0.102900  0.546700  0.747400  1.0
  C  C6512  1  0.252600  0.397100  0.046700  1.0
  C  C6513  1  0.102900  0.453300  0.252600  1.0
  C  C6514  1  0.046700  0.752600  0.897100  1.0
  C  C6515  1  0.252600  0.602900  0.953300  1.0
  C  C6516  1  0.953300  0.602900  0.747400  1.0
  C  C6517  1  0.747400  0.546700  0.897100  1.0
  C  C6518  1  0.897100  0.752600  0.953300  1.0
  C  C6519  1  0.046700  0.247400  0.102900  1.0
  C  C6520  1  0.252600  0.546700  0.102900  1.0
  C  C6521  1  0.102900  0.752600  0.046700  1.0
  C  C6522  1  0.046700  0.602900  0.252600  1.0
  C  C6523  1  0.953300  0.752600  0.102900  1.0
  C  C6524  1  0.953300  0.397100  0.252600  1.0
  C  C6525  1  0.747400  0.453300  0.102900  1.0
  C  C6526  1  0.897100  0.247400  0.046700  1.0
  C  C6527  1  0.897100  0.546700  0.252600  1.0
  C  C6528  1  0.747400  0.602900  0.046700  1.0
  C  C6529  1  0.897100  0.953300  0.247400  1.0
  C  C6530  1  0.953300  0.747400  0.397100  1.0
  C  C6531  1  0.747400  0.897100  0.453300  1.0
  C  C6532  1  0.046700  0.897100  0.247400  1.0
  C  C6533  1  0.252600  0.953300  0.397100  1.0
  C  C6534  1  0.102900  0.747400  0.453300  1.0
  C  C6535  1  0.102900  0.046700  0.247400  1.0
  C  C6536  1  0.252600  0.897100  0.546700  1.0
  C  C6537  1  0.102900  0.953300  0.752600  1.0
  C  C6538  1  0.046700  0.252600  0.397100  1.0
  C  C6539  1  0.252600  0.102900  0.453300  1.0
  C  C6540  1  0.953300  0.102900  0.247400  1.0
  C  C6541  1  0.747400  0.046700  0.397100  1.0
  C  C6542  1  0.897100  0.252600  0.453300  1.0
  C  C6543  1  0.046700  0.747400  0.602900  1.0
  C  C6544  1  0.252600  0.046700  0.602900  1.0
  C  C6545  1  0.102900  0.252600  0.546700  1.0
  C  C6546  1  0.046700  0.102900  0.752600  1.0
  C  C6547  1  0.953300  0.252600  0.602900  1.0
  C  C6548  1  0.953300  0.897100  0.752600  1.0
  C  C6549  1  0.747400  0.953300  0.602900  1.0
  C  C6550  1  0.897100  0.747400  0.546700  1.0
  C  C6551  1  0.897100  0.046700  0.752600  1.0
  C  C6552  1  0.747400  0.102900  0.546700  1.0
  C  C6553  1  0.483250  0.501990  0.157830  0.25
  C  C6554  1  0.501990  0.157830  0.483250  0.25
  C  C6555  1  0.157830  0.483250  0.501990  0.25
  C  C6556  1  0.498010  0.483250  0.157830  0.25
  C  C6557  1  0.842170  0.501990  0.483250  0.25
  C  C6558  1  0.516750  0.157830  0.501990  0.25
  C  C6559  1  0.516750  0.498010  0.157830  0.25
  C  C6560  1  0.842170  0.483250  0.498010  0.25
  C  C6561  1  0.516750  0.501990  0.842170  0.25
  C  C6562  1  0.498010  0.842170  0.483250  0.25
  C  C6563  1  0.842170  0.516750  0.501990  0.25
  C  C6564  1  0.501990  0.516750  0.157830  0.25
  C  C6565  1  0.157830  0.498010  0.483250  0.25
  C  C6566  1  0.483250  0.842170  0.501990  0.25
  C  C6567  1  0.498010  0.157830  0.516750  0.25
  C  C6568  1  0.842170  0.498010  0.516750  0.25
  C  C6569  1  0.516750  0.842170  0.498010  0.25
  C  C6570  1  0.498010  0.516750  0.842170  0.25
  C  C6571  1  0.501990  0.842170  0.516750  0.25
  C  C6572  1  0.501990  0.483250  0.842170  0.25
  C  C6573  1  0.157830  0.501990  0.516750  0.25
  C  C6574  1  0.483250  0.157830  0.498010  0.25
  C  C6575  1  0.483250  0.498010  0.842170  0.25
  C  C6576  1  0.157830  0.516750  0.498010  0.25
  C  C6577  1  0.483250  0.001990  0.657830  0.25
  C  C6578  1  0.501990  0.657830  0.983250  0.25
  C  C6579  1  0.157830  0.983250  0.001990  0.25
  C  C6580  1  0.498010  0.983250  0.657830  0.25
  C  C6581  1  0.842170  0.001990  0.983250  0.25
  C  C6582  1  0.516750  0.657830  0.001990  0.25
  C  C6583  1  0.516750  0.998010  0.657830  0.25
  C  C6584  1  0.842170  0.983250  0.998010  0.25
  C  C6585  1  0.516750  0.001990  0.342170  0.25
  C  C6586  1  0.498010  0.342170  0.983250  0.25
  C  C6587  1  0.842170  0.016750  0.001990  0.25
  C  C6588  1  0.501990  0.016750  0.657830  0.25
  C  C6589  1  0.157830  0.998010  0.983250  0.25
  C  C6590  1  0.483250  0.342170  0.001990  0.25
  C  C6591  1  0.498010  0.657830  0.016750  0.25
  C  C6592  1  0.842170  0.998010  0.016750  0.25
  C  C6593  1  0.516750  0.342170  0.998010  0.25
  C  C6594  1  0.498010  0.016750  0.342170  0.25
  C  C6595  1  0.501990  0.342170  0.016750  0.25
  C  C6596  1  0.501990  0.983250  0.342170  0.25
  C  C6597  1  0.157830  0.001990  0.016750  0.25
  C  C6598  1  0.483250  0.657830  0.998010  0.25
  C  C6599  1  0.483250  0.998010  0.342170  0.25
  C  C6600  1  0.157830  0.016750  0.998010  0.25
  C  C6601  1  0.983250  0.501990  0.657830  0.25
  C  C6602  1  0.001990  0.157830  0.983250  0.25
  C  C6603  1  0.657830  0.483250  0.001990  0.25
  C  C6604  1  0.998010  0.483250  0.657830  0.25
  C  C6605  1  0.342170  0.501990  0.983250  0.25
  C  C6606  1  0.016750  0.157830  0.001990  0.25
  C  C6607  1  0.016750  0.498010  0.657830  0.25
  C  C6608  1  0.342170  0.483250  0.998010  0.25
  C  C6609  1  0.016750  0.501990  0.342170  0.25
  C  C6610  1  0.998010  0.842170  0.983250  0.25
  C  C6611  1  0.342170  0.516750  0.001990  0.25
  C  C6612  1  0.001990  0.516750  0.657830  0.25
  C  C6613  1  0.657830  0.498010  0.983250  0.25
  C  C6614  1  0.983250  0.842170  0.001990  0.25
  C  C6615  1  0.998010  0.157830  0.016750  0.25
  C  C6616  1  0.342170  0.498010  0.016750  0.25
  C  C6617  1  0.016750  0.842170  0.998010  0.25
  C  C6618  1  0.998010  0.516750  0.342170  0.25
  C  C6619  1  0.001990  0.842170  0.016750  0.25
  C  C6620  1  0.001990  0.483250  0.342170  0.25
  C  C6621  1  0.657830  0.501990  0.016750  0.25
  C  C6622  1  0.983250  0.157830  0.998010  0.25
  C  C6623  1  0.983250  0.498010  0.342170  0.25
  C  C6624  1  0.657830  0.516750  0.998010  0.25
  C  C6625  1  0.983250  0.001990  0.157830  0.25
  C  C6626  1  0.001990  0.657830  0.483250  0.25
  C  C6627  1  0.657830  0.983250  0.501990  0.25
  C  C6628  1  0.998010  0.983250  0.157830  0.25
  C  C6629  1  0.342170  0.001990  0.483250  0.25
  C  C6630  1  0.016750  0.657830  0.501990  0.25
  C  C6631  1  0.016750  0.998010  0.157830  0.25
  C  C6632  1  0.342170  0.983250  0.498010  0.25
  C  C6633  1  0.016750  0.001990  0.842170  0.25
  C  C6634  1  0.998010  0.342170  0.483250  0.25
  C  C6635  1  0.342170  0.016750  0.501990  0.25
  C  C6636  1  0.001990  0.016750  0.157830  0.25
  C  C6637  1  0.657830  0.998010  0.483250  0.25
  C  C6638  1  0.983250  0.342170  0.501990  0.25
  C  C6639  1  0.998010  0.657830  0.516750  0.25
  C  C6640  1  0.342170  0.998010  0.516750  0.25
  C  C6641  1  0.016750  0.342170  0.498010  0.25
  C  C6642  1  0.998010  0.016750  0.842170  0.25
  C  C6643  1  0.001990  0.342170  0.516750  0.25
  C  C6644  1  0.001990  0.983250  0.842170  0.25
  C  C6645  1  0.657830  0.001990  0.516750  0.25
  C  C6646  1  0.983250  0.657830  0.498010  0.25
  C  C6647  1  0.983250  0.998010  0.842170  0.25
  C  C6648  1  0.657830  0.016750  0.498010  0.25
  C  C6649  1  0.490500  0.526200  0.360900  0.25
  C  C6650  1  0.526200  0.360900  0.490500  0.25
  C  C6651  1  0.360900  0.490500  0.526200  0.25
  C  C6652  1  0.473800  0.490500  0.360900  0.25
  C  C6653  1  0.639100  0.526200  0.490500  0.25
  C  C6654  1  0.509500  0.360900  0.526200  0.25
  C  C6655  1  0.509500  0.473800  0.360900  0.25
  C  C6656  1  0.639100  0.490500  0.473800  0.25
  C  C6657  1  0.509500  0.526200  0.639100  0.25
  C  C6658  1  0.473800  0.639100  0.490500  0.25
  C  C6659  1  0.639100  0.509500  0.526200  0.25
  C  C6660  1  0.526200  0.509500  0.360900  0.25
  C  C6661  1  0.360900  0.473800  0.490500  0.25
  C  C6662  1  0.490500  0.639100  0.526200  0.25
  C  C6663  1  0.473800  0.360900  0.509500  0.25
  C  C6664  1  0.639100  0.473800  0.509500  0.25
  C  C6665  1  0.509500  0.639100  0.473800  0.25
  C  C6666  1  0.473800  0.509500  0.639100  0.25
  C  C6667  1  0.526200  0.639100  0.509500  0.25
  C  C6668  1  0.526200  0.490500  0.639100  0.25
  C  C6669  1  0.360900  0.526200  0.509500  0.25
  C  C6670  1  0.490500  0.360900  0.473800  0.25
  C  C6671  1  0.490500  0.473800  0.639100  0.25
  C  C6672  1  0.360900  0.509500  0.473800  0.25
  C  C6673  1  0.490500  0.026200  0.860900  0.25
  C  C6674  1  0.526200  0.860900  0.990500  0.25
  C  C6675  1  0.360900  0.990500  0.026200  0.25
  C  C6676  1  0.473800  0.990500  0.860900  0.25
  C  C6677  1  0.639100  0.026200  0.990500  0.25
  C  C6678  1  0.509500  0.860900  0.026200  0.25
  C  C6679  1  0.509500  0.973800  0.860900  0.25
  C  C6680  1  0.639100  0.990500  0.973800  0.25
  C  C6681  1  0.509500  0.026200  0.139100  0.25
  C  C6682  1  0.473800  0.139100  0.990500  0.25
  C  C6683  1  0.639100  0.009500  0.026200  0.25
  C  C6684  1  0.526200  0.009500  0.860900  0.25
  C  C6685  1  0.360900  0.973800  0.990500  0.25
  C  C6686  1  0.490500  0.139100  0.026200  0.25
  C  C6687  1  0.473800  0.860900  0.009500  0.25
  C  C6688  1  0.639100  0.973800  0.009500  0.25
  C  C6689  1  0.509500  0.139100  0.973800  0.25
  C  C6690  1  0.473800  0.009500  0.139100  0.25
  C  C6691  1  0.526200  0.139100  0.009500  0.25
  C  C6692  1  0.526200  0.990500  0.139100  0.25
  C  C6693  1  0.360900  0.026200  0.009500  0.25
  C  C6694  1  0.490500  0.860900  0.973800  0.25
  C  C6695  1  0.490500  0.973800  0.139100  0.25
  C  C6696  1  0.360900  0.009500  0.973800  0.25
  C  C6697  1  0.990500  0.526200  0.860900  0.25
  C  C6698  1  0.026200  0.360900  0.990500  0.25
  C  C6699  1  0.860900  0.490500  0.026200  0.25
  C  C6700  1  0.973800  0.490500  0.860900  0.25
  C  C6701  1  0.139100  0.526200  0.990500  0.25
  C  C6702  1  0.009500  0.360900  0.026200  0.25
  C  C6703  1  0.009500  0.473800  0.860900  0.25
  C  C6704  1  0.139100  0.490500  0.973800  0.25
  C  C6705  1  0.009500  0.526200  0.139100  0.25
  C  C6706  1  0.973800  0.639100  0.990500  0.25
  C  C6707  1  0.139100  0.509500  0.026200  0.25
  C  C6708  1  0.026200  0.509500  0.860900  0.25
  C  C6709  1  0.860900  0.473800  0.990500  0.25
  C  C6710  1  0.990500  0.639100  0.026200  0.25
  C  C6711  1  0.973800  0.360900  0.009500  0.25
  C  C6712  1  0.139100  0.473800  0.009500  0.25
  C  C6713  1  0.009500  0.639100  0.973800  0.25
  C  C6714  1  0.973800  0.509500  0.139100  0.25
  C  C6715  1  0.026200  0.639100  0.009500  0.25
  C  C6716  1  0.026200  0.490500  0.139100  0.25
  C  C6717  1  0.860900  0.526200  0.009500  0.25
  C  C6718  1  0.990500  0.360900  0.973800  0.25
  C  C6719  1  0.990500  0.473800  0.139100  0.25
  C  C6720  1  0.860900  0.509500  0.973800  0.25
  C  C6721  1  0.990500  0.026200  0.360900  0.25
  C  C6722  1  0.026200  0.860900  0.490500  0.25
  C  C6723  1  0.860900  0.990500  0.526200  0.25
  C  C6724  1  0.973800  0.990500  0.360900  0.25
  C  C6725  1  0.139100  0.026200  0.490500  0.25
  C  C6726  1  0.009500  0.860900  0.526200  0.25
  C  C6727  1  0.009500  0.973800  0.360900  0.25
  C  C6728  1  0.139100  0.990500  0.473800  0.25
  C  C6729  1  0.009500  0.026200  0.639100  0.25
  C  C6730  1  0.973800  0.139100  0.490500  0.25
  C  C6731  1  0.139100  0.009500  0.526200  0.25
  C  C6732  1  0.026200  0.009500  0.360900  0.25
  C  C6733  1  0.860900  0.973800  0.490500  0.25
  C  C6734  1  0.990500  0.139100  0.526200  0.25
  C  C6735  1  0.973800  0.860900  0.509500  0.25
  C  C6736  1  0.139100  0.973800  0.509500  0.25
  C  C6737  1  0.009500  0.139100  0.473800  0.25
  C  C6738  1  0.973800  0.009500  0.639100  0.25
  C  C6739  1  0.026200  0.139100  0.509500  0.25
  C  C6740  1  0.026200  0.990500  0.639100  0.25
  C  C6741  1  0.860900  0.026200  0.509500  0.25
  C  C6742  1  0.990500  0.860900  0.473800  0.25
  C  C6743  1  0.990500  0.973800  0.639100  0.25
  C  C6744  1  0.860900  0.009500  0.473800  0.25
  S  S6745  1  0.507070  0.494700  0.185320  0.25
  S  S6746  1  0.494700  0.185320  0.507070  0.25
  S  S6747  1  0.185320  0.507070  0.494700  0.25
  S  S6748  1  0.505300  0.507070  0.185320  0.25
  S  S6749  1  0.814680  0.494700  0.507070  0.25
  S  S6750  1  0.492930  0.185320  0.494700  0.25
  S  S6751  1  0.492930  0.505300  0.185320  0.25
  S  S6752  1  0.814680  0.507070  0.505300  0.25
  S  S6753  1  0.492930  0.494700  0.814680  0.25
  S  S6754  1  0.505300  0.814680  0.507070  0.25
  S  S6755  1  0.814680  0.492930  0.494700  0.25
  S  S6756  1  0.494700  0.492930  0.185320  0.25
  S  S6757  1  0.185320  0.505300  0.507070  0.25
  S  S6758  1  0.507070  0.814680  0.494700  0.25
  S  S6759  1  0.505300  0.185320  0.492930  0.25
  S  S6760  1  0.814680  0.505300  0.492930  0.25
  S  S6761  1  0.492930  0.814680  0.505300  0.25
  S  S6762  1  0.505300  0.492930  0.814680  0.25
  S  S6763  1  0.494700  0.814680  0.492930  0.25
  S  S6764  1  0.494700  0.507070  0.814680  0.25
  S  S6765  1  0.185320  0.494700  0.492930  0.25
  S  S6766  1  0.507070  0.185320  0.505300  0.25
  S  S6767  1  0.507070  0.505300  0.814680  0.25
  S  S6768  1  0.185320  0.492930  0.505300  0.25
  S  S6769  1  0.507070  0.994700  0.685320  0.25
  S  S6770  1  0.494700  0.685320  0.007070  0.25
  S  S6771  1  0.185320  0.007070  0.994700  0.25
  S  S6772  1  0.505300  0.007070  0.685320  0.25
  S  S6773  1  0.814680  0.994700  0.007070  0.25
  S  S6774  1  0.492930  0.685320  0.994700  0.25
  S  S6775  1  0.492930  0.005300  0.685320  0.25
  S  S6776  1  0.814680  0.007070  0.005300  0.25
  S  S6777  1  0.492930  0.994700  0.314680  0.25
  S  S6778  1  0.505300  0.314680  0.007070  0.25
  S  S6779  1  0.814680  0.992930  0.994700  0.25
  S  S6780  1  0.494700  0.992930  0.685320  0.25
  S  S6781  1  0.185320  0.005300  0.007070  0.25
  S  S6782  1  0.507070  0.314680  0.994700  0.25
  S  S6783  1  0.505300  0.685320  0.992930  0.25
  S  S6784  1  0.814680  0.005300  0.992930  0.25
  S  S6785  1  0.492930  0.314680  0.005300  0.25
  S  S6786  1  0.505300  0.992930  0.314680  0.25
  S  S6787  1  0.494700  0.314680  0.992930  0.25
  S  S6788  1  0.494700  0.007070  0.314680  0.25
  S  S6789  1  0.185320  0.994700  0.992930  0.25
  S  S6790  1  0.507070  0.685320  0.005300  0.25
  S  S6791  1  0.507070  0.005300  0.314680  0.25
  S  S6792  1  0.185320  0.992930  0.005300  0.25
  S  S6793  1  0.007070  0.494700  0.685320  0.25
  S  S6794  1  0.994700  0.185320  0.007070  0.25
  S  S6795  1  0.685320  0.507070  0.994700  0.25
  S  S6796  1  0.005300  0.507070  0.685320  0.25
  S  S6797  1  0.314680  0.494700  0.007070  0.25
  S  S6798  1  0.992930  0.185320  0.994700  0.25
  S  S6799  1  0.992930  0.505300  0.685320  0.25
  S  S6800  1  0.314680  0.507070  0.005300  0.25
  S  S6801  1  0.992930  0.494700  0.314680  0.25
  S  S6802  1  0.005300  0.814680  0.007070  0.25
  S  S6803  1  0.314680  0.492930  0.994700  0.25
  S  S6804  1  0.994700  0.492930  0.685320  0.25
  S  S6805  1  0.685320  0.505300  0.007070  0.25
  S  S6806  1  0.007070  0.814680  0.994700  0.25
  S  S6807  1  0.005300  0.185320  0.992930  0.25
  S  S6808  1  0.314680  0.505300  0.992930  0.25
  S  S6809  1  0.992930  0.814680  0.005300  0.25
  S  S6810  1  0.005300  0.492930  0.314680  0.25
  S  S6811  1  0.994700  0.814680  0.992930  0.25
  S  S6812  1  0.994700  0.507070  0.314680  0.25
  S  S6813  1  0.685320  0.494700  0.992930  0.25
  S  S6814  1  0.007070  0.185320  0.005300  0.25
  S  S6815  1  0.007070  0.505300  0.314680  0.25
  S  S6816  1  0.685320  0.492930  0.005300  0.25
  S  S6817  1  0.007070  0.994700  0.185320  0.25
  S  S6818  1  0.994700  0.685320  0.507070  0.25
  S  S6819  1  0.685320  0.007070  0.494700  0.25
  S  S6820  1  0.005300  0.007070  0.185320  0.25
  S  S6821  1  0.314680  0.994700  0.507070  0.25
  S  S6822  1  0.992930  0.685320  0.494700  0.25
  S  S6823  1  0.992930  0.005300  0.185320  0.25
  S  S6824  1  0.314680  0.007070  0.505300  0.25
  S  S6825  1  0.992930  0.994700  0.814680  0.25
  S  S6826  1  0.005300  0.314680  0.507070  0.25
  S  S6827  1  0.314680  0.992930  0.494700  0.25
  S  S6828  1  0.994700  0.992930  0.185320  0.25
  S  S6829  1  0.685320  0.005300  0.507070  0.25
  S  S6830  1  0.007070  0.314680  0.494700  0.25
  S  S6831  1  0.005300  0.685320  0.492930  0.25
  S  S6832  1  0.314680  0.005300  0.492930  0.25
  S  S6833  1  0.992930  0.314680  0.505300  0.25
  S  S6834  1  0.005300  0.992930  0.814680  0.25
  S  S6835  1  0.994700  0.314680  0.492930  0.25
  S  S6836  1  0.994700  0.007070  0.814680  0.25
  S  S6837  1  0.685320  0.994700  0.492930  0.25
  S  S6838  1  0.007070  0.685320  0.505300  0.25
  S  S6839  1  0.007070  0.005300  0.814680  0.25
  S  S6840  1  0.685320  0.992930  0.505300  0.25
  S  S6841  1  0.491300  0.493100  0.344000  0.25
  S  S6842  1  0.493100  0.344000  0.491300  0.25
  S  S6843  1  0.344000  0.491300  0.493100  0.25
  S  S6844  1  0.506900  0.491300  0.344000  0.25
  S  S6845  1  0.656000  0.493100  0.491300  0.25
  S  S6846  1  0.508700  0.344000  0.493100  0.25
  S  S6847  1  0.508700  0.506900  0.344000  0.25
  S  S6848  1  0.656000  0.491300  0.506900  0.25
  S  S6849  1  0.508700  0.493100  0.656000  0.25
  S  S6850  1  0.506900  0.656000  0.491300  0.25
  S  S6851  1  0.656000  0.508700  0.493100  0.25
  S  S6852  1  0.493100  0.508700  0.344000  0.25
  S  S6853  1  0.344000  0.506900  0.491300  0.25
  S  S6854  1  0.491300  0.656000  0.493100  0.25
  S  S6855  1  0.506900  0.344000  0.508700  0.25
  S  S6856  1  0.656000  0.506900  0.508700  0.25
  S  S6857  1  0.508700  0.656000  0.506900  0.25
  S  S6858  1  0.506900  0.508700  0.656000  0.25
  S  S6859  1  0.493100  0.656000  0.508700  0.25
  S  S6860  1  0.493100  0.491300  0.656000  0.25
  S  S6861  1  0.344000  0.493100  0.508700  0.25
  S  S6862  1  0.491300  0.344000  0.506900  0.25
  S  S6863  1  0.491300  0.506900  0.656000  0.25
  S  S6864  1  0.344000  0.508700  0.506900  0.25
  S  S6865  1  0.491300  0.993100  0.844000  0.25
  S  S6866  1  0.493100  0.844000  0.991300  0.25
  S  S6867  1  0.344000  0.991300  0.993100  0.25
  S  S6868  1  0.506900  0.991300  0.844000  0.25
  S  S6869  1  0.656000  0.993100  0.991300  0.25
  S  S6870  1  0.508700  0.844000  0.993100  0.25
  S  S6871  1  0.508700  0.006900  0.844000  0.25
  S  S6872  1  0.656000  0.991300  0.006900  0.25
  S  S6873  1  0.508700  0.993100  0.156000  0.25
  S  S6874  1  0.506900  0.156000  0.991300  0.25
  S  S6875  1  0.656000  0.008700  0.993100  0.25
  S  S6876  1  0.493100  0.008700  0.844000  0.25
  S  S6877  1  0.344000  0.006900  0.991300  0.25
  S  S6878  1  0.491300  0.156000  0.993100  0.25
  S  S6879  1  0.506900  0.844000  0.008700  0.25
  S  S6880  1  0.656000  0.006900  0.008700  0.25
  S  S6881  1  0.508700  0.156000  0.006900  0.25
  S  S6882  1  0.506900  0.008700  0.156000  0.25
  S  S6883  1  0.493100  0.156000  0.008700  0.25
  S  S6884  1  0.493100  0.991300  0.156000  0.25
  S  S6885  1  0.344000  0.993100  0.008700  0.25
  S  S6886  1  0.491300  0.844000  0.006900  0.25
  S  S6887  1  0.491300  0.006900  0.156000  0.25
  S  S6888  1  0.344000  0.008700  0.006900  0.25
  S  S6889  1  0.991300  0.493100  0.844000  0.25
  S  S6890  1  0.993100  0.344000  0.991300  0.25
  S  S6891  1  0.844000  0.491300  0.993100  0.25
  S  S6892  1  0.006900  0.491300  0.844000  0.25
  S  S6893  1  0.156000  0.493100  0.991300  0.25
  S  S6894  1  0.008700  0.344000  0.993100  0.25
  S  S6895  1  0.008700  0.506900  0.844000  0.25
  S  S6896  1  0.156000  0.491300  0.006900  0.25
  S  S6897  1  0.008700  0.493100  0.156000  0.25
  S  S6898  1  0.006900  0.656000  0.991300  0.25
  S  S6899  1  0.156000  0.508700  0.993100  0.25
  S  S6900  1  0.993100  0.508700  0.844000  0.25
  S  S6901  1  0.844000  0.506900  0.991300  0.25
  S  S6902  1  0.991300  0.656000  0.993100  0.25
  S  S6903  1  0.006900  0.344000  0.008700  0.25
  S  S6904  1  0.156000  0.506900  0.008700  0.25
  S  S6905  1  0.008700  0.656000  0.006900  0.25
  S  S6906  1  0.006900  0.508700  0.156000  0.25
  S  S6907  1  0.993100  0.656000  0.008700  0.25
  S  S6908  1  0.993100  0.491300  0.156000  0.25
  S  S6909  1  0.844000  0.493100  0.008700  0.25
  S  S6910  1  0.991300  0.344000  0.006900  0.25
  S  S6911  1  0.991300  0.506900  0.156000  0.25
  S  S6912  1  0.844000  0.508700  0.006900  0.25
  S  S6913  1  0.991300  0.993100  0.344000  0.25
  S  S6914  1  0.993100  0.844000  0.491300  0.25
  S  S6915  1  0.844000  0.991300  0.493100  0.25
  S  S6916  1  0.006900  0.991300  0.344000  0.25
  S  S6917  1  0.156000  0.993100  0.491300  0.25
  S  S6918  1  0.008700  0.844000  0.493100  0.25
  S  S6919  1  0.008700  0.006900  0.344000  0.25
  S  S6920  1  0.156000  0.991300  0.506900  0.25
  S  S6921  1  0.008700  0.993100  0.656000  0.25
  S  S6922  1  0.006900  0.156000  0.491300  0.25
  S  S6923  1  0.156000  0.008700  0.493100  0.25
  S  S6924  1  0.993100  0.008700  0.344000  0.25
  S  S6925  1  0.844000  0.006900  0.491300  0.25
  S  S6926  1  0.991300  0.156000  0.493100  0.25
  S  S6927  1  0.006900  0.844000  0.508700  0.25
  S  S6928  1  0.156000  0.006900  0.508700  0.25
  S  S6929  1  0.008700  0.156000  0.506900  0.25
  S  S6930  1  0.006900  0.008700  0.656000  0.25
  S  S6931  1  0.993100  0.156000  0.508700  0.25
  S  S6932  1  0.993100  0.991300  0.656000  0.25
  S  S6933  1  0.844000  0.993100  0.508700  0.25
  S  S6934  1  0.991300  0.844000  0.506900  0.25
  S  S6935  1  0.991300  0.006900  0.656000  0.25
  S  S6936  1  0.844000  0.008700  0.506900  0.25
  C  C6937  1  0.500800  0.292200  0.245800  0.5
  N  N6938  1  0.500800  0.292200  0.245800  0.5
  C  C6939  1  0.292200  0.245800  0.500800  0.5
  N  N6940  1  0.292200  0.245800  0.500800  0.5
  C  C6941  1  0.245800  0.500800  0.292200  0.5
  N  N6942  1  0.245800  0.500800  0.292200  0.5
  C  C6943  1  0.707800  0.500800  0.245800  0.5
  N  N6944  1  0.707800  0.500800  0.245800  0.5
  C  C6945  1  0.754200  0.292200  0.500800  0.5
  N  N6946  1  0.754200  0.292200  0.500800  0.5
  C  C6947  1  0.499200  0.245800  0.292200  0.5
  N  N6948  1  0.499200  0.245800  0.292200  0.5
  C  C6949  1  0.499200  0.707800  0.245800  0.5
  N  N6950  1  0.499200  0.707800  0.245800  0.5
  C  C6951  1  0.754200  0.500800  0.707800  0.5
  N  N6952  1  0.754200  0.500800  0.707800  0.5
  C  C6953  1  0.499200  0.292200  0.754200  0.5
  N  N6954  1  0.499200  0.292200  0.754200  0.5
  C  C6955  1  0.707800  0.754200  0.500800  0.5
  N  N6956  1  0.707800  0.754200  0.500800  0.5
  C  C6957  1  0.754200  0.499200  0.292200  0.5
  N  N6958  1  0.754200  0.499200  0.292200  0.5
  C  C6959  1  0.292200  0.499200  0.245800  0.5
  N  N6960  1  0.292200  0.499200  0.245800  0.5
  C  C6961  1  0.245800  0.707800  0.500800  0.5
  N  N6962  1  0.245800  0.707800  0.500800  0.5
  C  C6963  1  0.500800  0.754200  0.292200  0.5
  N  N6964  1  0.500800  0.754200  0.292200  0.5
  C  C6965  1  0.707800  0.245800  0.499200  0.5
  N  N6966  1  0.707800  0.245800  0.499200  0.5
  C  C6967  1  0.754200  0.707800  0.499200  0.5
  N  N6968  1  0.754200  0.707800  0.499200  0.5
  C  C6969  1  0.499200  0.754200  0.707800  0.5
  N  N6970  1  0.499200  0.754200  0.707800  0.5
  C  C6971  1  0.707800  0.499200  0.754200  0.5
  N  N6972  1  0.707800  0.499200  0.754200  0.5
  C  C6973  1  0.292200  0.754200  0.499200  0.5
  N  N6974  1  0.292200  0.754200  0.499200  0.5
  C  C6975  1  0.292200  0.500800  0.754200  0.5
  N  N6976  1  0.292200  0.500800  0.754200  0.5
  C  C6977  1  0.245800  0.292200  0.499200  0.5
  N  N6978  1  0.245800  0.292200  0.499200  0.5
  C  C6979  1  0.500800  0.245800  0.707800  0.5
  N  N6980  1  0.500800  0.245800  0.707800  0.5
  C  C6981  1  0.500800  0.707800  0.754200  0.5
  N  N6982  1  0.500800  0.707800  0.754200  0.5
  C  C6983  1  0.245800  0.499200  0.707800  0.5
  N  N6984  1  0.245800  0.499200  0.707800  0.5
  C  C6985  1  0.500800  0.792200  0.745800  0.5
  N  N6986  1  0.500800  0.792200  0.745800  0.5
  C  C6987  1  0.292200  0.745800  0.000800  0.5
  N  N6988  1  0.292200  0.745800  0.000800  0.5
  C  C6989  1  0.245800  0.000800  0.792200  0.5
  N  N6990  1  0.245800  0.000800  0.792200  0.5
  C  C6991  1  0.707800  0.000800  0.745800  0.5
  N  N6992  1  0.707800  0.000800  0.745800  0.5
  C  C6993  1  0.754200  0.792200  0.000800  0.5
  N  N6994  1  0.754200  0.792200  0.000800  0.5
  C  C6995  1  0.499200  0.745800  0.792200  0.5
  N  N6996  1  0.499200  0.745800  0.792200  0.5
  C  C6997  1  0.499200  0.207800  0.745800  0.5
  N  N6998  1  0.499200  0.207800  0.745800  0.5
  C  C6999  1  0.754200  0.000800  0.207800  0.5
  N  N7000  1  0.754200  0.000800  0.207800  0.5
  C  C7001  1  0.499200  0.792200  0.254200  0.5
  N  N7002  1  0.499200  0.792200  0.254200  0.5
  C  C7003  1  0.707800  0.254200  0.000800  0.5
  N  N7004  1  0.707800  0.254200  0.000800  0.5
  C  C7005  1  0.754200  0.999200  0.792200  0.5
  N  N7006  1  0.754200  0.999200  0.792200  0.5
  C  C7007  1  0.292200  0.999200  0.745800  0.5
  N  N7008  1  0.292200  0.999200  0.745800  0.5
  C  C7009  1  0.245800  0.207800  0.000800  0.5
  N  N7010  1  0.245800  0.207800  0.000800  0.5
  C  C7011  1  0.500800  0.254200  0.792200  0.5
  N  N7012  1  0.500800  0.254200  0.792200  0.5
  C  C7013  1  0.707800  0.745800  0.999200  0.5
  N  N7014  1  0.707800  0.745800  0.999200  0.5
  C  C7015  1  0.754200  0.207800  0.999200  0.5
  N  N7016  1  0.754200  0.207800  0.999200  0.5
  C  C7017  1  0.499200  0.254200  0.207800  0.5
  N  N7018  1  0.499200  0.254200  0.207800  0.5
  C  C7019  1  0.707800  0.999200  0.254200  0.5
  N  N7020  1  0.707800  0.999200  0.254200  0.5
  C  C7021  1  0.292200  0.254200  0.999200  0.5
  N  N7022  1  0.292200  0.254200  0.999200  0.5
  C  C7023  1  0.292200  0.000800  0.254200  0.5
  N  N7024  1  0.292200  0.000800  0.254200  0.5
  C  C7025  1  0.245800  0.792200  0.999200  0.5
  N  N7026  1  0.245800  0.792200  0.999200  0.5
  C  C7027  1  0.500800  0.745800  0.207800  0.5
  N  N7028  1  0.500800  0.745800  0.207800  0.5
  C  C7029  1  0.500800  0.207800  0.254200  0.5
  N  N7030  1  0.500800  0.207800  0.254200  0.5
  C  C7031  1  0.245800  0.999200  0.207800  0.5
  N  N7032  1  0.245800  0.999200  0.207800  0.5
  C  C7033  1  0.000800  0.292200  0.745800  0.5
  N  N7034  1  0.000800  0.292200  0.745800  0.5
  C  C7035  1  0.792200  0.245800  0.000800  0.5
  N  N7036  1  0.792200  0.245800  0.000800  0.5
  C  C7037  1  0.745800  0.500800  0.792200  0.5
  N  N7038  1  0.745800  0.500800  0.792200  0.5
  C  C7039  1  0.207800  0.500800  0.745800  0.5
  N  N7040  1  0.207800  0.500800  0.745800  0.5
  C  C7041  1  0.254200  0.292200  0.000800  0.5
  N  N7042  1  0.254200  0.292200  0.000800  0.5
  C  C7043  1  0.999200  0.245800  0.792200  0.5
  N  N7044  1  0.999200  0.245800  0.792200  0.5
  C  C7045  1  0.999200  0.707800  0.745800  0.5
  N  N7046  1  0.999200  0.707800  0.745800  0.5
  C  C7047  1  0.254200  0.500800  0.207800  0.5
  N  N7048  1  0.254200  0.500800  0.207800  0.5
  C  C7049  1  0.999200  0.292200  0.254200  0.5
  N  N7050  1  0.999200  0.292200  0.254200  0.5
  C  C7051  1  0.207800  0.754200  0.000800  0.5
  N  N7052  1  0.207800  0.754200  0.000800  0.5
  C  C7053  1  0.254200  0.499200  0.792200  0.5
  N  N7054  1  0.254200  0.499200  0.792200  0.5
  C  C7055  1  0.792200  0.499200  0.745800  0.5
  N  N7056  1  0.792200  0.499200  0.745800  0.5
  C  C7057  1  0.745800  0.707800  0.000800  0.5
  N  N7058  1  0.745800  0.707800  0.000800  0.5
  C  C7059  1  0.000800  0.754200  0.792200  0.5
  N  N7060  1  0.000800  0.754200  0.792200  0.5
  C  C7061  1  0.207800  0.245800  0.999200  0.5
  N  N7062  1  0.207800  0.245800  0.999200  0.5
  C  C7063  1  0.254200  0.707800  0.999200  0.5
  N  N7064  1  0.254200  0.707800  0.999200  0.5
  C  C7065  1  0.999200  0.754200  0.207800  0.5
  N  N7066  1  0.999200  0.754200  0.207800  0.5
  C  C7067  1  0.207800  0.499200  0.254200  0.5
  N  N7068  1  0.207800  0.499200  0.254200  0.5
  C  C7069  1  0.792200  0.754200  0.999200  0.5
  N  N7070  1  0.792200  0.754200  0.999200  0.5
  C  C7071  1  0.792200  0.500800  0.254200  0.5
  N  N7072  1  0.792200  0.500800  0.254200  0.5
  C  C7073  1  0.745800  0.292200  0.999200  0.5
  N  N7074  1  0.745800  0.292200  0.999200  0.5
  C  C7075  1  0.000800  0.245800  0.207800  0.5
  N  N7076  1  0.000800  0.245800  0.207800  0.5
  C  C7077  1  0.000800  0.707800  0.254200  0.5
  N  N7078  1  0.000800  0.707800  0.254200  0.5
  C  C7079  1  0.745800  0.499200  0.207800  0.5
  N  N7080  1  0.745800  0.499200  0.207800  0.5
  C  C7081  1  0.000800  0.792200  0.245800  0.5
  N  N7082  1  0.000800  0.792200  0.245800  0.5
  C  C7083  1  0.792200  0.745800  0.500800  0.5
  N  N7084  1  0.792200  0.745800  0.500800  0.5
  C  C7085  1  0.745800  0.000800  0.292200  0.5
  N  N7086  1  0.745800  0.000800  0.292200  0.5
  C  C7087  1  0.207800  0.000800  0.245800  0.5
  N  N7088  1  0.207800  0.000800  0.245800  0.5
  C  C7089  1  0.254200  0.792200  0.500800  0.5
  N  N7090  1  0.254200  0.792200  0.500800  0.5
  C  C7091  1  0.999200  0.745800  0.292200  0.5
  N  N7092  1  0.999200  0.745800  0.292200  0.5
  C  C7093  1  0.999200  0.207800  0.245800  0.5
  N  N7094  1  0.999200  0.207800  0.245800  0.5
  C  C7095  1  0.254200  0.000800  0.707800  0.5
  N  N7096  1  0.254200  0.000800  0.707800  0.5
  C  C7097  1  0.999200  0.792200  0.754200  0.5
  N  N7098  1  0.999200  0.792200  0.754200  0.5
  C  C7099  1  0.207800  0.254200  0.500800  0.5
  N  N7100  1  0.207800  0.254200  0.500800  0.5
  C  C7101  1  0.254200  0.999200  0.292200  0.5
  N  N7102  1  0.254200  0.999200  0.292200  0.5
  C  C7103  1  0.792200  0.999200  0.245800  0.5
  N  N7104  1  0.792200  0.999200  0.245800  0.5
  C  C7105  1  0.745800  0.207800  0.500800  0.5
  N  N7106  1  0.745800  0.207800  0.500800  0.5
  C  C7107  1  0.000800  0.254200  0.292200  0.5
  N  N7108  1  0.000800  0.254200  0.292200  0.5
  C  C7109  1  0.207800  0.745800  0.499200  0.5
  N  N7110  1  0.207800  0.745800  0.499200  0.5
  C  C7111  1  0.254200  0.207800  0.499200  0.5
  N  N7112  1  0.254200  0.207800  0.499200  0.5
  C  C7113  1  0.999200  0.254200  0.707800  0.5
  N  N7114  1  0.999200  0.254200  0.707800  0.5
  C  C7115  1  0.207800  0.999200  0.754200  0.5
  N  N7116  1  0.207800  0.999200  0.754200  0.5
  C  C7117  1  0.792200  0.254200  0.499200  0.5
  N  N7118  1  0.792200  0.254200  0.499200  0.5
  C  C7119  1  0.792200  0.000800  0.754200  0.5
  N  N7120  1  0.792200  0.000800  0.754200  0.5
  C  C7121  1  0.745800  0.792200  0.499200  0.5
  N  N7122  1  0.745800  0.792200  0.499200  0.5
  C  C7123  1  0.000800  0.745800  0.707800  0.5
  N  N7124  1  0.000800  0.745800  0.707800  0.5
  C  C7125  1  0.000800  0.207800  0.754200  0.5
  N  N7126  1  0.000800  0.207800  0.754200  0.5
  C  C7127  1  0.745800  0.999200  0.707800  0.5
  N  N7128  1  0.745800  0.999200  0.707800  0.5
  C  C7129  1  0.530300  0.324600  0.268500  0.5
  N  N7130  1  0.530300  0.324600  0.268500  0.5
  C  C7131  1  0.324600  0.268500  0.530300  0.5
  N  N7132  1  0.324600  0.268500  0.530300  0.5
  C  C7133  1  0.268500  0.530300  0.324600  0.5
  N  N7134  1  0.268500  0.530300  0.324600  0.5
  C  C7135  1  0.675400  0.530300  0.268500  0.5
  N  N7136  1  0.675400  0.530300  0.268500  0.5
  C  C7137  1  0.731500  0.324600  0.530300  0.5
  N  N7138  1  0.731500  0.324600  0.530300  0.5
  C  C7139  1  0.469700  0.268500  0.324600  0.5
  N  N7140  1  0.469700  0.268500  0.324600  0.5
  C  C7141  1  0.469700  0.675400  0.268500  0.5
  N  N7142  1  0.469700  0.675400  0.268500  0.5
  C  C7143  1  0.731500  0.530300  0.675400  0.5
  N  N7144  1  0.731500  0.530300  0.675400  0.5
  C  C7145  1  0.469700  0.324600  0.731500  0.5
  N  N7146  1  0.469700  0.324600  0.731500  0.5
  C  C7147  1  0.675400  0.731500  0.530300  0.5
  N  N7148  1  0.675400  0.731500  0.530300  0.5
  C  C7149  1  0.731500  0.469700  0.324600  0.5
  N  N7150  1  0.731500  0.469700  0.324600  0.5
  C  C7151  1  0.324600  0.469700  0.268500  0.5
  N  N7152  1  0.324600  0.469700  0.268500  0.5
  C  C7153  1  0.268500  0.675400  0.530300  0.5
  N  N7154  1  0.268500  0.675400  0.530300  0.5
  C  C7155  1  0.530300  0.731500  0.324600  0.5
  N  N7156  1  0.530300  0.731500  0.324600  0.5
  C  C7157  1  0.675400  0.268500  0.469700  0.5
  N  N7158  1  0.675400  0.268500  0.469700  0.5
  C  C7159  1  0.731500  0.675400  0.469700  0.5
  N  N7160  1  0.731500  0.675400  0.469700  0.5
  C  C7161  1  0.469700  0.731500  0.675400  0.5
  N  N7162  1  0.469700  0.731500  0.675400  0.5
  C  C7163  1  0.675400  0.469700  0.731500  0.5
  N  N7164  1  0.675400  0.469700  0.731500  0.5
  C  C7165  1  0.324600  0.731500  0.469700  0.5
  N  N7166  1  0.324600  0.731500  0.469700  0.5
  C  C7167  1  0.324600  0.530300  0.731500  0.5
  N  N7168  1  0.324600  0.530300  0.731500  0.5
  C  C7169  1  0.268500  0.324600  0.469700  0.5
  N  N7170  1  0.268500  0.324600  0.469700  0.5
  C  C7171  1  0.530300  0.268500  0.675400  0.5
  N  N7172  1  0.530300  0.268500  0.675400  0.5
  C  C7173  1  0.530300  0.675400  0.731500  0.5
  N  N7174  1  0.530300  0.675400  0.731500  0.5
  C  C7175  1  0.268500  0.469700  0.675400  0.5
  N  N7176  1  0.268500  0.469700  0.675400  0.5
  C  C7177  1  0.530300  0.824600  0.768500  0.5
  N  N7178  1  0.530300  0.824600  0.768500  0.5
  C  C7179  1  0.324600  0.768500  0.030300  0.5
  N  N7180  1  0.324600  0.768500  0.030300  0.5
  C  C7181  1  0.268500  0.030300  0.824600  0.5
  N  N7182  1  0.268500  0.030300  0.824600  0.5
  C  C7183  1  0.675400  0.030300  0.768500  0.5
  N  N7184  1  0.675400  0.030300  0.768500  0.5
  C  C7185  1  0.731500  0.824600  0.030300  0.5
  N  N7186  1  0.731500  0.824600  0.030300  0.5
  C  C7187  1  0.469700  0.768500  0.824600  0.5
  N  N7188  1  0.469700  0.768500  0.824600  0.5
  C  C7189  1  0.469700  0.175400  0.768500  0.5
  N  N7190  1  0.469700  0.175400  0.768500  0.5
  C  C7191  1  0.731500  0.030300  0.175400  0.5
  N  N7192  1  0.731500  0.030300  0.175400  0.5
  C  C7193  1  0.469700  0.824600  0.231500  0.5
  N  N7194  1  0.469700  0.824600  0.231500  0.5
  C  C7195  1  0.675400  0.231500  0.030300  0.5
  N  N7196  1  0.675400  0.231500  0.030300  0.5
  C  C7197  1  0.731500  0.969700  0.824600  0.5
  N  N7198  1  0.731500  0.969700  0.824600  0.5
  C  C7199  1  0.324600  0.969700  0.768500  0.5
  N  N7200  1  0.324600  0.969700  0.768500  0.5
  C  C7201  1  0.268500  0.175400  0.030300  0.5
  N  N7202  1  0.268500  0.175400  0.030300  0.5
  C  C7203  1  0.530300  0.231500  0.824600  0.5
  N  N7204  1  0.530300  0.231500  0.824600  0.5
  C  C7205  1  0.675400  0.768500  0.969700  0.5
  N  N7206  1  0.675400  0.768500  0.969700  0.5
  C  C7207  1  0.731500  0.175400  0.969700  0.5
  N  N7208  1  0.731500  0.175400  0.969700  0.5
  C  C7209  1  0.469700  0.231500  0.175400  0.5
  N  N7210  1  0.469700  0.231500  0.175400  0.5
  C  C7211  1  0.675400  0.969700  0.231500  0.5
  N  N7212  1  0.675400  0.969700  0.231500  0.5
  C  C7213  1  0.324600  0.231500  0.969700  0.5
  N  N7214  1  0.324600  0.231500  0.969700  0.5
  C  C7215  1  0.324600  0.030300  0.231500  0.5
  N  N7216  1  0.324600  0.030300  0.231500  0.5
  C  C7217  1  0.268500  0.824600  0.969700  0.5
  N  N7218  1  0.268500  0.824600  0.969700  0.5
  C  C7219  1  0.530300  0.768500  0.175400  0.5
  N  N7220  1  0.530300  0.768500  0.175400  0.5
  C  C7221  1  0.530300  0.175400  0.231500  0.5
  N  N7222  1  0.530300  0.175400  0.231500  0.5
  C  C7223  1  0.268500  0.969700  0.175400  0.5
  N  N7224  1  0.268500  0.969700  0.175400  0.5
  C  C7225  1  0.030300  0.324600  0.768500  0.5
  N  N7226  1  0.030300  0.324600  0.768500  0.5
  C  C7227  1  0.824600  0.268500  0.030300  0.5
  N  N7228  1  0.824600  0.268500  0.030300  0.5
  C  C7229  1  0.768500  0.530300  0.824600  0.5
  N  N7230  1  0.768500  0.530300  0.824600  0.5
  C  C7231  1  0.175400  0.530300  0.768500  0.5
  N  N7232  1  0.175400  0.530300  0.768500  0.5
  C  C7233  1  0.231500  0.324600  0.030300  0.5
  N  N7234  1  0.231500  0.324600  0.030300  0.5
  C  C7235  1  0.969700  0.268500  0.824600  0.5
  N  N7236  1  0.969700  0.268500  0.824600  0.5
  C  C7237  1  0.969700  0.675400  0.768500  0.5
  N  N7238  1  0.969700  0.675400  0.768500  0.5
  C  C7239  1  0.231500  0.530300  0.175400  0.5
  N  N7240  1  0.231500  0.530300  0.175400  0.5
  C  C7241  1  0.969700  0.324600  0.231500  0.5
  N  N7242  1  0.969700  0.324600  0.231500  0.5
  C  C7243  1  0.175400  0.731500  0.030300  0.5
  N  N7244  1  0.175400  0.731500  0.030300  0.5
  C  C7245  1  0.231500  0.469700  0.824600  0.5
  N  N7246  1  0.231500  0.469700  0.824600  0.5
  C  C7247  1  0.824600  0.469700  0.768500  0.5
  N  N7248  1  0.824600  0.469700  0.768500  0.5
  C  C7249  1  0.768500  0.675400  0.030300  0.5
  N  N7250  1  0.768500  0.675400  0.030300  0.5
  C  C7251  1  0.030300  0.731500  0.824600  0.5
  N  N7252  1  0.030300  0.731500  0.824600  0.5
  C  C7253  1  0.175400  0.268500  0.969700  0.5
  N  N7254  1  0.175400  0.268500  0.969700  0.5
  C  C7255  1  0.231500  0.675400  0.969700  0.5
  N  N7256  1  0.231500  0.675400  0.969700  0.5
  C  C7257  1  0.969700  0.731500  0.175400  0.5
  N  N7258  1  0.969700  0.731500  0.175400  0.5
  C  C7259  1  0.175400  0.469700  0.231500  0.5
  N  N7260  1  0.175400  0.469700  0.231500  0.5
  C  C7261  1  0.824600  0.731500  0.969700  0.5
  N  N7262  1  0.824600  0.731500  0.969700  0.5
  C  C7263  1  0.824600  0.530300  0.231500  0.5
  N  N7264  1  0.824600  0.530300  0.231500  0.5
  C  C7265  1  0.768500  0.324600  0.969700  0.5
  N  N7266  1  0.768500  0.324600  0.969700  0.5
  C  C7267  1  0.030300  0.268500  0.175400  0.5
  N  N7268  1  0.030300  0.268500  0.175400  0.5
  C  C7269  1  0.030300  0.675400  0.231500  0.5
  N  N7270  1  0.030300  0.675400  0.231500  0.5
  C  C7271  1  0.768500  0.469700  0.175400  0.5
  N  N7272  1  0.768500  0.469700  0.175400  0.5
  C  C7273  1  0.030300  0.824600  0.268500  0.5
  N  N7274  1  0.030300  0.824600  0.268500  0.5
  C  C7275  1  0.824600  0.768500  0.530300  0.5
  N  N7276  1  0.824600  0.768500  0.530300  0.5
  C  C7277  1  0.768500  0.030300  0.324600  0.5
  N  N7278  1  0.768500  0.030300  0.324600  0.5
  C  C7279  1  0.175400  0.030300  0.268500  0.5
  N  N7280  1  0.175400  0.030300  0.268500  0.5
  C  C7281  1  0.231500  0.824600  0.530300  0.5
  N  N7282  1  0.231500  0.824600  0.530300  0.5
  C  C7283  1  0.969700  0.768500  0.324600  0.5
  N  N7284  1  0.969700  0.768500  0.324600  0.5
  C  C7285  1  0.969700  0.175400  0.268500  0.5
  N  N7286  1  0.969700  0.175400  0.268500  0.5
  C  C7287  1  0.231500  0.030300  0.675400  0.5
  N  N7288  1  0.231500  0.030300  0.675400  0.5
  C  C7289  1  0.969700  0.824600  0.731500  0.5
  N  N7290  1  0.969700  0.824600  0.731500  0.5
  C  C7291  1  0.175400  0.231500  0.530300  0.5
  N  N7292  1  0.175400  0.231500  0.530300  0.5
  C  C7293  1  0.231500  0.969700  0.324600  0.5
  N  N7294  1  0.231500  0.969700  0.324600  0.5
  C  C7295  1  0.824600  0.969700  0.268500  0.5
  N  N7296  1  0.824600  0.969700  0.268500  0.5
  C  C7297  1  0.768500  0.175400  0.530300  0.5
  N  N7298  1  0.768500  0.175400  0.530300  0.5
  C  C7299  1  0.030300  0.231500  0.324600  0.5
  N  N7300  1  0.030300  0.231500  0.324600  0.5
  C  C7301  1  0.175400  0.768500  0.469700  0.5
  N  N7302  1  0.175400  0.768500  0.469700  0.5
  C  C7303  1  0.231500  0.175400  0.469700  0.5
  N  N7304  1  0.231500  0.175400  0.469700  0.5
  C  C7305  1  0.969700  0.231500  0.675400  0.5
  N  N7306  1  0.969700  0.231500  0.675400  0.5
  C  C7307  1  0.175400  0.969700  0.731500  0.5
  N  N7308  1  0.175400  0.969700  0.731500  0.5
  C  C7309  1  0.824600  0.231500  0.469700  0.5
  N  N7310  1  0.824600  0.231500  0.469700  0.5
  C  C7311  1  0.824600  0.030300  0.731500  0.5
  N  N7312  1  0.824600  0.030300  0.731500  0.5
  C  C7313  1  0.768500  0.824600  0.469700  0.5
  N  N7314  1  0.768500  0.824600  0.469700  0.5
  C  C7315  1  0.030300  0.768500  0.675400  0.5
  N  N7316  1  0.030300  0.768500  0.675400  0.5
  C  C7317  1  0.030300  0.175400  0.731500  0.5
  N  N7318  1  0.030300  0.175400  0.731500  0.5
  C  C7319  1  0.768500  0.969700  0.675400  0.5
  N  N7320  1  0.768500  0.969700  0.675400  0.5
  N  N7321  1  0.484340  0.453500  0.263750  1.0
  N  N7322  1  0.453500  0.263750  0.484340  1.0
  N  N7323  1  0.263750  0.484340  0.453500  1.0
  N  N7324  1  0.546500  0.484340  0.263750  1.0
  N  N7325  1  0.736250  0.453500  0.484340  1.0
  N  N7326  1  0.515660  0.263750  0.453500  1.0
  N  N7327  1  0.515660  0.546500  0.263750  1.0
  N  N7328  1  0.736250  0.484340  0.546500  1.0
  N  N7329  1  0.515660  0.453500  0.736250  1.0
  N  N7330  1  0.546500  0.736250  0.484340  1.0
  N  N7331  1  0.736250  0.515660  0.453500  1.0
  N  N7332  1  0.453500  0.515660  0.263750  1.0
  N  N7333  1  0.263750  0.546500  0.484340  1.0
  N  N7334  1  0.484340  0.736250  0.453500  1.0
  N  N7335  1  0.546500  0.263750  0.515660  1.0
  N  N7336  1  0.736250  0.546500  0.515660  1.0
  N  N7337  1  0.515660  0.736250  0.546500  1.0
  N  N7338  1  0.546500  0.515660  0.736250  1.0
  N  N7339  1  0.453500  0.736250  0.515660  1.0
  N  N7340  1  0.453500  0.484340  0.736250  1.0
  N  N7341  1  0.263750  0.453500  0.515660  1.0
  N  N7342  1  0.484340  0.263750  0.546500  1.0
  N  N7343  1  0.484340  0.546500  0.736250  1.0
  N  N7344  1  0.263750  0.515660  0.546500  1.0
  N  N7345  1  0.484340  0.953500  0.763750  1.0
  N  N7346  1  0.453500  0.763750  0.984340  1.0
  N  N7347  1  0.263750  0.984340  0.953500  1.0
  N  N7348  1  0.546500  0.984340  0.763750  1.0
  N  N7349  1  0.736250  0.953500  0.984340  1.0
  N  N7350  1  0.515660  0.763750  0.953500  1.0
  N  N7351  1  0.515660  0.046500  0.763750  1.0
  N  N7352  1  0.736250  0.984340  0.046500  1.0
  N  N7353  1  0.515660  0.953500  0.236250  1.0
  N  N7354  1  0.546500  0.236250  0.984340  1.0
  N  N7355  1  0.736250  0.015660  0.953500  1.0
  N  N7356  1  0.453500  0.015660  0.763750  1.0
  N  N7357  1  0.263750  0.046500  0.984340  1.0
  N  N7358  1  0.484340  0.236250  0.953500  1.0
  N  N7359  1  0.546500  0.763750  0.015660  1.0
  N  N7360  1  0.736250  0.046500  0.015660  1.0
  N  N7361  1  0.515660  0.236250  0.046500  1.0
  N  N7362  1  0.546500  0.015660  0.236250  1.0
  N  N7363  1  0.453500  0.236250  0.015660  1.0
  N  N7364  1  0.453500  0.984340  0.236250  1.0
  N  N7365  1  0.263750  0.953500  0.015660  1.0
  N  N7366  1  0.484340  0.763750  0.046500  1.0
  N  N7367  1  0.484340  0.046500  0.236250  1.0
  N  N7368  1  0.263750  0.015660  0.046500  1.0
  N  N7369  1  0.984340  0.453500  0.763750  1.0
  N  N7370  1  0.953500  0.263750  0.984340  1.0
  N  N7371  1  0.763750  0.484340  0.953500  1.0
  N  N7372  1  0.046500  0.484340  0.763750  1.0
  N  N7373  1  0.236250  0.453500  0.984340  1.0
  N  N7374  1  0.015660  0.263750  0.953500  1.0
  N  N7375  1  0.015660  0.546500  0.763750  1.0
  N  N7376  1  0.236250  0.484340  0.046500  1.0
  N  N7377  1  0.015660  0.453500  0.236250  1.0
  N  N7378  1  0.046500  0.736250  0.984340  1.0
  N  N7379  1  0.236250  0.515660  0.953500  1.0
  N  N7380  1  0.953500  0.515660  0.763750  1.0
  N  N7381  1  0.763750  0.546500  0.984340  1.0
  N  N7382  1  0.984340  0.736250  0.953500  1.0
  N  N7383  1  0.046500  0.263750  0.015660  1.0
  N  N7384  1  0.236250  0.546500  0.015660  1.0
  N  N7385  1  0.015660  0.736250  0.046500  1.0
  N  N7386  1  0.046500  0.515660  0.236250  1.0
  N  N7387  1  0.953500  0.736250  0.015660  1.0
  N  N7388  1  0.953500  0.484340  0.236250  1.0
  N  N7389  1  0.763750  0.453500  0.015660  1.0
  N  N7390  1  0.984340  0.263750  0.046500  1.0
  N  N7391  1  0.984340  0.546500  0.236250  1.0
  N  N7392  1  0.763750  0.515660  0.046500  1.0
  N  N7393  1  0.984340  0.953500  0.263750  1.0
  N  N7394  1  0.953500  0.763750  0.484340  1.0
  N  N7395  1  0.763750  0.984340  0.453500  1.0
  N  N7396  1  0.046500  0.984340  0.263750  1.0
  N  N7397  1  0.236250  0.953500  0.484340  1.0
  N  N7398  1  0.015660  0.763750  0.453500  1.0
  N  N7399  1  0.015660  0.046500  0.263750  1.0
  N  N7400  1  0.236250  0.984340  0.546500  1.0
  N  N7401  1  0.015660  0.953500  0.736250  1.0
  N  N7402  1  0.046500  0.236250  0.484340  1.0
  N  N7403  1  0.236250  0.015660  0.453500  1.0
  N  N7404  1  0.953500  0.015660  0.263750  1.0
  N  N7405  1  0.763750  0.046500  0.484340  1.0
  N  N7406  1  0.984340  0.236250  0.453500  1.0
  N  N7407  1  0.046500  0.763750  0.515660  1.0
  N  N7408  1  0.236250  0.046500  0.515660  1.0
  N  N7409  1  0.015660  0.236250  0.546500  1.0
  N  N7410  1  0.046500  0.015660  0.736250  1.0
  N  N7411  1  0.953500  0.236250  0.515660  1.0
  N  N7412  1  0.953500  0.984340  0.736250  1.0
  N  N7413  1  0.763750  0.953500  0.515660  1.0
  N  N7414  1  0.984340  0.763750  0.546500  1.0
  N  N7415  1  0.984340  0.046500  0.736250  1.0
  N  N7416  1  0.763750  0.015660  0.546500  1.0
  O  O7417  1  0.500700  0.499000  0.317100  1.0
  O  O7418  1  0.499000  0.317100  0.500700  1.0
  O  O7419  1  0.317100  0.500700  0.499000  1.0
  O  O7420  1  0.501000  0.500700  0.317100  1.0
  O  O7421  1  0.682900  0.499000  0.500700  1.0
  O  O7422  1  0.499300  0.317100  0.499000  1.0
  O  O7423  1  0.499300  0.501000  0.317100  1.0
  O  O7424  1  0.682900  0.500700  0.501000  1.0
  O  O7425  1  0.499300  0.499000  0.682900  1.0
  O  O7426  1  0.501000  0.682900  0.500700  1.0
  O  O7427  1  0.682900  0.499300  0.499000  1.0
  O  O7428  1  0.499000  0.499300  0.317100  1.0
  O  O7429  1  0.317100  0.501000  0.500700  1.0
  O  O7430  1  0.500700  0.682900  0.499000  1.0
  O  O7431  1  0.501000  0.317100  0.499300  1.0
  O  O7432  1  0.682900  0.501000  0.499300  1.0
  O  O7433  1  0.499300  0.682900  0.501000  1.0
  O  O7434  1  0.501000  0.499300  0.682900  1.0
  O  O7435  1  0.499000  0.682900  0.499300  1.0
  O  O7436  1  0.499000  0.500700  0.682900  1.0
  O  O7437  1  0.317100  0.499000  0.499300  1.0
  O  O7438  1  0.500700  0.317100  0.501000  1.0
  O  O7439  1  0.500700  0.501000  0.682900  1.0
  O  O7440  1  0.317100  0.499300  0.501000  1.0
  O  O7441  1  0.500700  0.999000  0.817100  1.0
  O  O7442  1  0.499000  0.817100  0.000700  1.0
  O  O7443  1  0.317100  0.000700  0.999000  1.0
  O  O7444  1  0.501000  0.000700  0.817100  1.0
  O  O7445  1  0.682900  0.999000  0.000700  1.0
  O  O7446  1  0.499300  0.817100  0.999000  1.0
  O  O7447  1  0.499300  0.001000  0.817100  1.0
  O  O7448  1  0.682900  0.000700  0.001000  1.0
  O  O7449  1  0.499300  0.999000  0.182900  1.0
  O  O7450  1  0.501000  0.182900  0.000700  1.0
  O  O7451  1  0.682900  0.999300  0.999000  1.0
  O  O7452  1  0.499000  0.999300  0.817100  1.0
  O  O7453  1  0.317100  0.001000  0.000700  1.0
  O  O7454  1  0.500700  0.182900  0.999000  1.0
  O  O7455  1  0.501000  0.817100  0.999300  1.0
  O  O7456  1  0.682900  0.001000  0.999300  1.0
  O  O7457  1  0.499300  0.182900  0.001000  1.0
  O  O7458  1  0.501000  0.999300  0.182900  1.0
  O  O7459  1  0.499000  0.182900  0.999300  1.0
  O  O7460  1  0.499000  0.000700  0.182900  1.0
  O  O7461  1  0.317100  0.999000  0.999300  1.0
  O  O7462  1  0.500700  0.817100  0.001000  1.0
  O  O7463  1  0.500700  0.001000  0.182900  1.0
  O  O7464  1  0.317100  0.999300  0.001000  1.0
  O  O7465  1  0.000700  0.499000  0.817100  1.0
  O  O7466  1  0.999000  0.317100  0.000700  1.0
  O  O7467  1  0.817100  0.500700  0.999000  1.0
  O  O7468  1  0.001000  0.500700  0.817100  1.0
  O  O7469  1  0.182900  0.499000  0.000700  1.0
  O  O7470  1  0.999300  0.317100  0.999000  1.0
  O  O7471  1  0.999300  0.501000  0.817100  1.0
  O  O7472  1  0.182900  0.500700  0.001000  1.0
  O  O7473  1  0.999300  0.499000  0.182900  1.0
  O  O7474  1  0.001000  0.682900  0.000700  1.0
  O  O7475  1  0.182900  0.499300  0.999000  1.0
  O  O7476  1  0.999000  0.499300  0.817100  1.0
  O  O7477  1  0.817100  0.501000  0.000700  1.0
  O  O7478  1  0.000700  0.682900  0.999000  1.0
  O  O7479  1  0.001000  0.317100  0.999300  1.0
  O  O7480  1  0.182900  0.501000  0.999300  1.0
  O  O7481  1  0.999300  0.682900  0.001000  1.0
  O  O7482  1  0.001000  0.499300  0.182900  1.0
  O  O7483  1  0.999000  0.682900  0.999300  1.0
  O  O7484  1  0.999000  0.500700  0.182900  1.0
  O  O7485  1  0.817100  0.499000  0.999300  1.0
  O  O7486  1  0.000700  0.317100  0.001000  1.0
  O  O7487  1  0.000700  0.501000  0.182900  1.0
  O  O7488  1  0.817100  0.499300  0.001000  1.0
  O  O7489  1  0.000700  0.999000  0.317100  1.0
  O  O7490  1  0.999000  0.817100  0.500700  1.0
  O  O7491  1  0.817100  0.000700  0.499000  1.0
  O  O7492  1  0.001000  0.000700  0.317100  1.0
  O  O7493  1  0.182900  0.999000  0.500700  1.0
  O  O7494  1  0.999300  0.817100  0.499000  1.0
  O  O7495  1  0.999300  0.001000  0.317100  1.0
  O  O7496  1  0.182900  0.000700  0.501000  1.0
  O  O7497  1  0.999300  0.999000  0.682900  1.0
  O  O7498  1  0.001000  0.182900  0.500700  1.0
  O  O7499  1  0.182900  0.999300  0.499000  1.0
  O  O7500  1  0.999000  0.999300  0.317100  1.0
  O  O7501  1  0.817100  0.001000  0.500700  1.0
  O  O7502  1  0.000700  0.182900  0.499000  1.0
  O  O7503  1  0.001000  0.817100  0.499300  1.0
  O  O7504  1  0.182900  0.001000  0.499300  1.0
  O  O7505  1  0.999300  0.182900  0.501000  1.0
  O  O7506  1  0.001000  0.999300  0.682900  1.0
  O  O7507  1  0.999000  0.182900  0.499300  1.0
  O  O7508  1  0.999000  0.000700  0.682900  1.0
  O  O7509  1  0.817100  0.999000  0.499300  1.0
  O  O7510  1  0.000700  0.817100  0.501000  1.0
  O  O7511  1  0.000700  0.001000  0.682900  1.0
  O  O7512  1  0.817100  0.999300  0.501000  1.0
  O  O7513  1  0.584900  0.259000  0.233500  0.22
  O  O7514  1  0.259000  0.233500  0.584900  0.22
  O  O7515  1  0.233500  0.584900  0.259000  0.22
  O  O7516  1  0.741000  0.584900  0.233500  0.22
  O  O7517  1  0.766500  0.259000  0.584900  0.22
  O  O7518  1  0.415100  0.233500  0.259000  0.22
  O  O7519  1  0.415100  0.741000  0.233500  0.22
  O  O7520  1  0.766500  0.584900  0.741000  0.22
  O  O7521  1  0.415100  0.259000  0.766500  0.22
  O  O7522  1  0.741000  0.766500  0.584900  0.22
  O  O7523  1  0.766500  0.415100  0.259000  0.22
  O  O7524  1  0.259000  0.415100  0.233500  0.22
  O  O7525  1  0.233500  0.741000  0.584900  0.22
  O  O7526  1  0.584900  0.766500  0.259000  0.22
  O  O7527  1  0.741000  0.233500  0.415100  0.22
  O  O7528  1  0.766500  0.741000  0.415100  0.22
  O  O7529  1  0.415100  0.766500  0.741000  0.22
  O  O7530  1  0.741000  0.415100  0.766500  0.22
  O  O7531  1  0.259000  0.766500  0.415100  0.22
  O  O7532  1  0.259000  0.584900  0.766500  0.22
  O  O7533  1  0.233500  0.259000  0.415100  0.22
  O  O7534  1  0.584900  0.233500  0.741000  0.22
  O  O7535  1  0.584900  0.741000  0.766500  0.22
  O  O7536  1  0.233500  0.415100  0.741000  0.22
  O  O7537  1  0.584900  0.759000  0.733500  0.22
  O  O7538  1  0.259000  0.733500  0.084900  0.22
  O  O7539  1  0.233500  0.084900  0.759000  0.22
  O  O7540  1  0.741000  0.084900  0.733500  0.22
  O  O7541  1  0.766500  0.759000  0.084900  0.22
  O  O7542  1  0.415100  0.733500  0.759000  0.22
  O  O7543  1  0.415100  0.241000  0.733500  0.22
  O  O7544  1  0.766500  0.084900  0.241000  0.22
  O  O7545  1  0.415100  0.759000  0.266500  0.22
  O  O7546  1  0.741000  0.266500  0.084900  0.22
  O  O7547  1  0.766500  0.915100  0.759000  0.22
  O  O7548  1  0.259000  0.915100  0.733500  0.22
  O  O7549  1  0.233500  0.241000  0.084900  0.22
  O  O7550  1  0.584900  0.266500  0.759000  0.22
  O  O7551  1  0.741000  0.733500  0.915100  0.22
  O  O7552  1  0.766500  0.241000  0.915100  0.22
  O  O7553  1  0.415100  0.266500  0.241000  0.22
  O  O7554  1  0.741000  0.915100  0.266500  0.22
  O  O7555  1  0.259000  0.266500  0.915100  0.22
  O  O7556  1  0.259000  0.084900  0.266500  0.22
  O  O7557  1  0.233500  0.759000  0.915100  0.22
  O  O7558  1  0.584900  0.733500  0.241000  0.22
  O  O7559  1  0.584900  0.241000  0.266500  0.22
  O  O7560  1  0.233500  0.915100  0.241000  0.22
  O  O7561  1  0.084900  0.259000  0.733500  0.22
  O  O7562  1  0.759000  0.233500  0.084900  0.22
  O  O7563  1  0.733500  0.584900  0.759000  0.22
  O  O7564  1  0.241000  0.584900  0.733500  0.22
  O  O7565  1  0.266500  0.259000  0.084900  0.22
  O  O7566  1  0.915100  0.233500  0.759000  0.22
  O  O7567  1  0.915100  0.741000  0.733500  0.22
  O  O7568  1  0.266500  0.584900  0.241000  0.22
  O  O7569  1  0.915100  0.259000  0.266500  0.22
  O  O7570  1  0.241000  0.766500  0.084900  0.22
  O  O7571  1  0.266500  0.415100  0.759000  0.22
  O  O7572  1  0.759000  0.415100  0.733500  0.22
  O  O7573  1  0.733500  0.741000  0.084900  0.22
  O  O7574  1  0.084900  0.766500  0.759000  0.22
  O  O7575  1  0.241000  0.233500  0.915100  0.22
  O  O7576  1  0.266500  0.741000  0.915100  0.22
  O  O7577  1  0.915100  0.766500  0.241000  0.22
  O  O7578  1  0.241000  0.415100  0.266500  0.22
  O  O7579  1  0.759000  0.766500  0.915100  0.22
  O  O7580  1  0.759000  0.584900  0.266500  0.22
  O  O7581  1  0.733500  0.259000  0.915100  0.22
  O  O7582  1  0.084900  0.233500  0.241000  0.22
  O  O7583  1  0.084900  0.741000  0.266500  0.22
  O  O7584  1  0.733500  0.415100  0.241000  0.22
  O  O7585  1  0.084900  0.759000  0.233500  0.22
  O  O7586  1  0.759000  0.733500  0.584900  0.22
  O  O7587  1  0.733500  0.084900  0.259000  0.22
  O  O7588  1  0.241000  0.084900  0.233500  0.22
  O  O7589  1  0.266500  0.759000  0.584900  0.22
  O  O7590  1  0.915100  0.733500  0.259000  0.22
  O  O7591  1  0.915100  0.241000  0.233500  0.22
  O  O7592  1  0.266500  0.084900  0.741000  0.22
  O  O7593  1  0.915100  0.759000  0.766500  0.22
  O  O7594  1  0.241000  0.266500  0.584900  0.22
  O  O7595  1  0.266500  0.915100  0.259000  0.22
  O  O7596  1  0.759000  0.915100  0.233500  0.22
  O  O7597  1  0.733500  0.241000  0.584900  0.22
  O  O7598  1  0.084900  0.266500  0.259000  0.22
  O  O7599  1  0.241000  0.733500  0.415100  0.22
  O  O7600  1  0.266500  0.241000  0.415100  0.22
  O  O7601  1  0.915100  0.266500  0.741000  0.22
  O  O7602  1  0.241000  0.915100  0.766500  0.22
  O  O7603  1  0.759000  0.266500  0.415100  0.22
  O  O7604  1  0.759000  0.084900  0.766500  0.22
  O  O7605  1  0.733500  0.759000  0.415100  0.22
  O  O7606  1  0.084900  0.733500  0.741000  0.22
  O  O7607  1  0.084900  0.241000  0.766500  0.22
  O  O7608  1  0.733500  0.915100  0.741000  0.22
  O  O7609  1  0.493400  0.506200  0.209360  0.25
  O  O7610  1  0.506200  0.209360  0.493400  0.25
  O  O7611  1  0.209360  0.493400  0.506200  0.25
  O  O7612  1  0.493800  0.493400  0.209360  0.25
  O  O7613  1  0.790640  0.506200  0.493400  0.25
  O  O7614  1  0.506600  0.209360  0.506200  0.25
  O  O7615  1  0.506600  0.493800  0.209360  0.25
  O  O7616  1  0.790640  0.493400  0.493800  0.25
  O  O7617  1  0.506600  0.506200  0.790640  0.25
  O  O7618  1  0.493800  0.790640  0.493400  0.25
  O  O7619  1  0.790640  0.506600  0.506200  0.25
  O  O7620  1  0.506200  0.506600  0.209360  0.25
  O  O7621  1  0.209360  0.493800  0.493400  0.25
  O  O7622  1  0.493400  0.790640  0.506200  0.25
  O  O7623  1  0.493800  0.209360  0.506600  0.25
  O  O7624  1  0.790640  0.493800  0.506600  0.25
  O  O7625  1  0.506600  0.790640  0.493800  0.25
  O  O7626  1  0.493800  0.506600  0.790640  0.25
  O  O7627  1  0.506200  0.790640  0.506600  0.25
  O  O7628  1  0.506200  0.493400  0.790640  0.25
  O  O7629  1  0.209360  0.506200  0.506600  0.25
  O  O7630  1  0.493400  0.209360  0.493800  0.25
  O  O7631  1  0.493400  0.493800  0.790640  0.25
  O  O7632  1  0.209360  0.506600  0.493800  0.25
  O  O7633  1  0.493400  0.006200  0.709360  0.25
  O  O7634  1  0.506200  0.709360  0.993400  0.25
  O  O7635  1  0.209360  0.993400  0.006200  0.25
  O  O7636  1  0.493800  0.993400  0.709360  0.25
  O  O7637  1  0.790640  0.006200  0.993400  0.25
  O  O7638  1  0.506600  0.709360  0.006200  0.25
  O  O7639  1  0.506600  0.993800  0.709360  0.25
  O  O7640  1  0.790640  0.993400  0.993800  0.25
  O  O7641  1  0.506600  0.006200  0.290640  0.25
  O  O7642  1  0.493800  0.290640  0.993400  0.25
  O  O7643  1  0.790640  0.006600  0.006200  0.25
  O  O7644  1  0.506200  0.006600  0.709360  0.25
  O  O7645  1  0.209360  0.993800  0.993400  0.25
  O  O7646  1  0.493400  0.290640  0.006200  0.25
  O  O7647  1  0.493800  0.709360  0.006600  0.25
  O  O7648  1  0.790640  0.993800  0.006600  0.25
  O  O7649  1  0.506600  0.290640  0.993800  0.25
  O  O7650  1  0.493800  0.006600  0.290640  0.25
  O  O7651  1  0.506200  0.290640  0.006600  0.25
  O  O7652  1  0.506200  0.993400  0.290640  0.25
  O  O7653  1  0.209360  0.006200  0.006600  0.25
  O  O7654  1  0.493400  0.709360  0.993800  0.25
  O  O7655  1  0.493400  0.993800  0.290640  0.25
  O  O7656  1  0.209360  0.006600  0.993800  0.25
  O  O7657  1  0.993400  0.506200  0.709360  0.25
  O  O7658  1  0.006200  0.209360  0.993400  0.25
  O  O7659  1  0.709360  0.493400  0.006200  0.25
  O  O7660  1  0.993800  0.493400  0.709360  0.25
  O  O7661  1  0.290640  0.506200  0.993400  0.25
  O  O7662  1  0.006600  0.209360  0.006200  0.25
  O  O7663  1  0.006600  0.493800  0.709360  0.25
  O  O7664  1  0.290640  0.493400  0.993800  0.25
  O  O7665  1  0.006600  0.506200  0.290640  0.25
  O  O7666  1  0.993800  0.790640  0.993400  0.25
  O  O7667  1  0.290640  0.506600  0.006200  0.25
  O  O7668  1  0.006200  0.506600  0.709360  0.25
  O  O7669  1  0.709360  0.493800  0.993400  0.25
  O  O7670  1  0.993400  0.790640  0.006200  0.25
  O  O7671  1  0.993800  0.209360  0.006600  0.25
  O  O7672  1  0.290640  0.493800  0.006600  0.25
  O  O7673  1  0.006600  0.790640  0.993800  0.25
  O  O7674  1  0.993800  0.506600  0.290640  0.25
  O  O7675  1  0.006200  0.790640  0.006600  0.25
  O  O7676  1  0.006200  0.493400  0.290640  0.25
  O  O7677  1  0.709360  0.506200  0.006600  0.25
  O  O7678  1  0.993400  0.209360  0.993800  0.25
  O  O7679  1  0.993400  0.493800  0.290640  0.25
  O  O7680  1  0.709360  0.506600  0.993800  0.25
  O  O7681  1  0.993400  0.006200  0.209360  0.25
  O  O7682  1  0.006200  0.709360  0.493400  0.25
  O  O7683  1  0.709360  0.993400  0.506200  0.25
  O  O7684  1  0.993800  0.993400  0.209360  0.25
  O  O7685  1  0.290640  0.006200  0.493400  0.25
  O  O7686  1  0.006600  0.709360  0.506200  0.25
  O  O7687  1  0.006600  0.993800  0.209360  0.25
  O  O7688  1  0.290640  0.993400  0.493800  0.25
  O  O7689  1  0.006600  0.006200  0.790640  0.25
  O  O7690  1  0.993800  0.290640  0.493400  0.25
  O  O7691  1  0.290640  0.006600  0.506200  0.25
  O  O7692  1  0.006200  0.006600  0.209360  0.25
  O  O7693  1  0.709360  0.993800  0.493400  0.25
  O  O7694  1  0.993400  0.290640  0.506200  0.25
  O  O7695  1  0.993800  0.709360  0.506600  0.25
  O  O7696  1  0.290640  0.993800  0.506600  0.25
  O  O7697  1  0.006600  0.290640  0.493800  0.25
  O  O7698  1  0.993800  0.006600  0.790640  0.25
  O  O7699  1  0.006200  0.290640  0.506600  0.25
  O  O7700  1  0.006200  0.993400  0.790640  0.25
  O  O7701  1  0.709360  0.006200  0.506600  0.25
  O  O7702  1  0.993400  0.709360  0.493800  0.25
  O  O7703  1  0.993400  0.993800  0.790640  0.25
  O  O7704  1  0.709360  0.006600  0.493800  0.25
  O  O7705  1  0.508800  0.464800  0.184800  0.25
  O  O7706  1  0.464800  0.184800  0.508800  0.25
  O  O7707  1  0.184800  0.508800  0.464800  0.25
  O  O7708  1  0.535200  0.508800  0.184800  0.25
  O  O7709  1  0.815200  0.464800  0.508800  0.25
  O  O7710  1  0.491200  0.184800  0.464800  0.25
  O  O7711  1  0.491200  0.535200  0.184800  0.25
  O  O7712  1  0.815200  0.508800  0.535200  0.25
  O  O7713  1  0.491200  0.464800  0.815200  0.25
  O  O7714  1  0.535200  0.815200  0.508800  0.25
  O  O7715  1  0.815200  0.491200  0.464800  0.25
  O  O7716  1  0.464800  0.491200  0.184800  0.25
  O  O7717  1  0.184800  0.535200  0.508800  0.25
  O  O7718  1  0.508800  0.815200  0.464800  0.25
  O  O7719  1  0.535200  0.184800  0.491200  0.25
  O  O7720  1  0.815200  0.535200  0.491200  0.25
  O  O7721  1  0.491200  0.815200  0.535200  0.25
  O  O7722  1  0.535200  0.491200  0.815200  0.25
  O  O7723  1  0.464800  0.815200  0.491200  0.25
  O  O7724  1  0.464800  0.508800  0.815200  0.25
  O  O7725  1  0.184800  0.464800  0.491200  0.25
  O  O7726  1  0.508800  0.184800  0.535200  0.25
  O  O7727  1  0.508800  0.535200  0.815200  0.25
  O  O7728  1  0.184800  0.491200  0.535200  0.25
  O  O7729  1  0.508800  0.964800  0.684800  0.25
  O  O7730  1  0.464800  0.684800  0.008800  0.25
  O  O7731  1  0.184800  0.008800  0.964800  0.25
  O  O7732  1  0.535200  0.008800  0.684800  0.25
  O  O7733  1  0.815200  0.964800  0.008800  0.25
  O  O7734  1  0.491200  0.684800  0.964800  0.25
  O  O7735  1  0.491200  0.035200  0.684800  0.25
  O  O7736  1  0.815200  0.008800  0.035200  0.25
  O  O7737  1  0.491200  0.964800  0.315200  0.25
  O  O7738  1  0.535200  0.315200  0.008800  0.25
  O  O7739  1  0.815200  0.991200  0.964800  0.25
  O  O7740  1  0.464800  0.991200  0.684800  0.25
  O  O7741  1  0.184800  0.035200  0.008800  0.25
  O  O7742  1  0.508800  0.315200  0.964800  0.25
  O  O7743  1  0.535200  0.684800  0.991200  0.25
  O  O7744  1  0.815200  0.035200  0.991200  0.25
  O  O7745  1  0.491200  0.315200  0.035200  0.25
  O  O7746  1  0.535200  0.991200  0.315200  0.25
  O  O7747  1  0.464800  0.315200  0.991200  0.25
  O  O7748  1  0.464800  0.008800  0.315200  0.25
  O  O7749  1  0.184800  0.964800  0.991200  0.25
  O  O7750  1  0.508800  0.684800  0.035200  0.25
  O  O7751  1  0.508800  0.035200  0.315200  0.25
  O  O7752  1  0.184800  0.991200  0.035200  0.25
  O  O7753  1  0.008800  0.464800  0.684800  0.25
  O  O7754  1  0.964800  0.184800  0.008800  0.25
  O  O7755  1  0.684800  0.508800  0.964800  0.25
  O  O7756  1  0.035200  0.508800  0.684800  0.25
  O  O7757  1  0.315200  0.464800  0.008800  0.25
  O  O7758  1  0.991200  0.184800  0.964800  0.25
  O  O7759  1  0.991200  0.535200  0.684800  0.25
  O  O7760  1  0.315200  0.508800  0.035200  0.25
  O  O7761  1  0.991200  0.464800  0.315200  0.25
  O  O7762  1  0.035200  0.815200  0.008800  0.25
  O  O7763  1  0.315200  0.491200  0.964800  0.25
  O  O7764  1  0.964800  0.491200  0.684800  0.25
  O  O7765  1  0.684800  0.535200  0.008800  0.25
  O  O7766  1  0.008800  0.815200  0.964800  0.25
  O  O7767  1  0.035200  0.184800  0.991200  0.25
  O  O7768  1  0.315200  0.535200  0.991200  0.25
  O  O7769  1  0.991200  0.815200  0.035200  0.25
  O  O7770  1  0.035200  0.491200  0.315200  0.25
  O  O7771  1  0.964800  0.815200  0.991200  0.25
  O  O7772  1  0.964800  0.508800  0.315200  0.25
  O  O7773  1  0.684800  0.464800  0.991200  0.25
  O  O7774  1  0.008800  0.184800  0.035200  0.25
  O  O7775  1  0.008800  0.535200  0.315200  0.25
  O  O7776  1  0.684800  0.491200  0.035200  0.25
  O  O7777  1  0.008800  0.964800  0.184800  0.25
  O  O7778  1  0.964800  0.684800  0.508800  0.25
  O  O7779  1  0.684800  0.008800  0.464800  0.25
  O  O7780  1  0.035200  0.008800  0.184800  0.25
  O  O7781  1  0.315200  0.964800  0.508800  0.25
  O  O7782  1  0.991200  0.684800  0.464800  0.25
  O  O7783  1  0.991200  0.035200  0.184800  0.25
  O  O7784  1  0.315200  0.008800  0.535200  0.25
  O  O7785  1  0.991200  0.964800  0.815200  0.25
  O  O7786  1  0.035200  0.315200  0.508800  0.25
  O  O7787  1  0.315200  0.991200  0.464800  0.25
  O  O7788  1  0.964800  0.991200  0.184800  0.25
  O  O7789  1  0.684800  0.035200  0.508800  0.25
  O  O7790  1  0.008800  0.315200  0.464800  0.25
  O  O7791  1  0.035200  0.684800  0.491200  0.25
  O  O7792  1  0.315200  0.035200  0.491200  0.25
  O  O7793  1  0.991200  0.315200  0.535200  0.25
  O  O7794  1  0.035200  0.991200  0.815200  0.25
  O  O7795  1  0.964800  0.315200  0.491200  0.25
  O  O7796  1  0.964800  0.008800  0.815200  0.25
  O  O7797  1  0.684800  0.964800  0.491200  0.25
  O  O7798  1  0.008800  0.684800  0.535200  0.25
  O  O7799  1  0.008800  0.035200  0.815200  0.25
  O  O7800  1  0.684800  0.991200  0.535200  0.25
  O  O7801  1  0.531940  0.509100  0.176900  0.25
  O  O7802  1  0.509100  0.176900  0.531940  0.25
  O  O7803  1  0.176900  0.531940  0.509100  0.25
  O  O7804  1  0.490900  0.531940  0.176900  0.25
  O  O7805  1  0.823100  0.509100  0.531940  0.25
  O  O7806  1  0.468060  0.176900  0.509100  0.25
  O  O7807  1  0.468060  0.490900  0.176900  0.25
  O  O7808  1  0.823100  0.531940  0.490900  0.25
  O  O7809  1  0.468060  0.509100  0.823100  0.25
  O  O7810  1  0.490900  0.823100  0.531940  0.25
  O  O7811  1  0.823100  0.468060  0.509100  0.25
  O  O7812  1  0.509100  0.468060  0.176900  0.25
  O  O7813  1  0.176900  0.490900  0.531940  0.25
  O  O7814  1  0.531940  0.823100  0.509100  0.25
  O  O7815  1  0.490900  0.176900  0.468060  0.25
  O  O7816  1  0.823100  0.490900  0.468060  0.25
  O  O7817  1  0.468060  0.823100  0.490900  0.25
  O  O7818  1  0.490900  0.468060  0.823100  0.25
  O  O7819  1  0.509100  0.823100  0.468060  0.25
  O  O7820  1  0.509100  0.531940  0.823100  0.25
  O  O7821  1  0.176900  0.509100  0.468060  0.25
  O  O7822  1  0.531940  0.176900  0.490900  0.25
  O  O7823  1  0.531940  0.490900  0.823100  0.25
  O  O7824  1  0.176900  0.468060  0.490900  0.25
  O  O7825  1  0.531940  0.009100  0.676900  0.25
  O  O7826  1  0.509100  0.676900  0.031940  0.25
  O  O7827  1  0.176900  0.031940  0.009100  0.25
  O  O7828  1  0.490900  0.031940  0.676900  0.25
  O  O7829  1  0.823100  0.009100  0.031940  0.25
  O  O7830  1  0.468060  0.676900  0.009100  0.25
  O  O7831  1  0.468060  0.990900  0.676900  0.25
  O  O7832  1  0.823100  0.031940  0.990900  0.25
  O  O7833  1  0.468060  0.009100  0.323100  0.25
  O  O7834  1  0.490900  0.323100  0.031940  0.25
  O  O7835  1  0.823100  0.968060  0.009100  0.25
  O  O7836  1  0.509100  0.968060  0.676900  0.25
  O  O7837  1  0.176900  0.990900  0.031940  0.25
  O  O7838  1  0.531940  0.323100  0.009100  0.25
  O  O7839  1  0.490900  0.676900  0.968060  0.25
  O  O7840  1  0.823100  0.990900  0.968060  0.25
  O  O7841  1  0.468060  0.323100  0.990900  0.25
  O  O7842  1  0.490900  0.968060  0.323100  0.25
  O  O7843  1  0.509100  0.323100  0.968060  0.25
  O  O7844  1  0.509100  0.031940  0.323100  0.25
  O  O7845  1  0.176900  0.009100  0.968060  0.25
  O  O7846  1  0.531940  0.676900  0.990900  0.25
  O  O7847  1  0.531940  0.990900  0.323100  0.25
  O  O7848  1  0.176900  0.968060  0.990900  0.25
  O  O7849  1  0.031940  0.509100  0.676900  0.25
  O  O7850  1  0.009100  0.176900  0.031940  0.25
  O  O7851  1  0.676900  0.531940  0.009100  0.25
  O  O7852  1  0.990900  0.531940  0.676900  0.25
  O  O7853  1  0.323100  0.509100  0.031940  0.25
  O  O7854  1  0.968060  0.176900  0.009100  0.25
  O  O7855  1  0.968060  0.490900  0.676900  0.25
  O  O7856  1  0.323100  0.531940  0.990900  0.25
  O  O7857  1  0.968060  0.509100  0.323100  0.25
  O  O7858  1  0.990900  0.823100  0.031940  0.25
  O  O7859  1  0.323100  0.468060  0.009100  0.25
  O  O7860  1  0.009100  0.468060  0.676900  0.25
  O  O7861  1  0.676900  0.490900  0.031940  0.25
  O  O7862  1  0.031940  0.823100  0.009100  0.25
  O  O7863  1  0.990900  0.176900  0.968060  0.25
  O  O7864  1  0.323100  0.490900  0.968060  0.25
  O  O7865  1  0.968060  0.823100  0.990900  0.25
  O  O7866  1  0.990900  0.468060  0.323100  0.25
  O  O7867  1  0.009100  0.823100  0.968060  0.25
  O  O7868  1  0.009100  0.531940  0.323100  0.25
  O  O7869  1  0.676900  0.509100  0.968060  0.25
  O  O7870  1  0.031940  0.176900  0.990900  0.25
  O  O7871  1  0.031940  0.490900  0.323100  0.25
  O  O7872  1  0.676900  0.468060  0.990900  0.25
  O  O7873  1  0.031940  0.009100  0.176900  0.25
  O  O7874  1  0.009100  0.676900  0.531940  0.25
  O  O7875  1  0.676900  0.031940  0.509100  0.25
  O  O7876  1  0.990900  0.031940  0.176900  0.25
  O  O7877  1  0.323100  0.009100  0.531940  0.25
  O  O7878  1  0.968060  0.676900  0.509100  0.25
  O  O7879  1  0.968060  0.990900  0.176900  0.25
  O  O7880  1  0.323100  0.031940  0.490900  0.25
  O  O7881  1  0.968060  0.009100  0.823100  0.25
  O  O7882  1  0.990900  0.323100  0.531940  0.25
  O  O7883  1  0.323100  0.968060  0.509100  0.25
  O  O7884  1  0.009100  0.968060  0.176900  0.25
  O  O7885  1  0.676900  0.990900  0.531940  0.25
  O  O7886  1  0.031940  0.323100  0.509100  0.25
  O  O7887  1  0.990900  0.676900  0.468060  0.25
  O  O7888  1  0.323100  0.990900  0.468060  0.25
  O  O7889  1  0.968060  0.323100  0.490900  0.25
  O  O7890  1  0.990900  0.968060  0.823100  0.25
  O  O7891  1  0.009100  0.323100  0.468060  0.25
  O  O7892  1  0.009100  0.031940  0.823100  0.25
  O  O7893  1  0.676900  0.009100  0.468060  0.25
  O  O7894  1  0.031940  0.676900  0.490900  0.25
  O  O7895  1  0.031940  0.990900  0.823100  0.25
  O  O7896  1  0.676900  0.968060  0.490900  0.25
  O  O7897  1  0.509100  0.476900  0.361800  0.25
  O  O7898  1  0.476900  0.361800  0.509100  0.25
  O  O7899  1  0.361800  0.509100  0.476900  0.25
  O  O7900  1  0.523100  0.509100  0.361800  0.25
  O  O7901  1  0.638200  0.476900  0.509100  0.25
  O  O7902  1  0.490900  0.361800  0.476900  0.25
  O  O7903  1  0.490900  0.523100  0.361800  0.25
  O  O7904  1  0.638200  0.509100  0.523100  0.25
  O  O7905  1  0.490900  0.476900  0.638200  0.25
  O  O7906  1  0.523100  0.638200  0.509100  0.25
  O  O7907  1  0.638200  0.490900  0.476900  0.25
  O  O7908  1  0.476900  0.490900  0.361800  0.25
  O  O7909  1  0.361800  0.523100  0.509100  0.25
  O  O7910  1  0.509100  0.638200  0.476900  0.25
  O  O7911  1  0.523100  0.361800  0.490900  0.25
  O  O7912  1  0.638200  0.523100  0.490900  0.25
  O  O7913  1  0.490900  0.638200  0.523100  0.25
  O  O7914  1  0.523100  0.490900  0.638200  0.25
  O  O7915  1  0.476900  0.638200  0.490900  0.25
  O  O7916  1  0.476900  0.509100  0.638200  0.25
  O  O7917  1  0.361800  0.476900  0.490900  0.25
  O  O7918  1  0.509100  0.361800  0.523100  0.25
  O  O7919  1  0.509100  0.523100  0.638200  0.25
  O  O7920  1  0.361800  0.490900  0.523100  0.25
  O  O7921  1  0.509100  0.976900  0.861800  0.25
  O  O7922  1  0.476900  0.861800  0.009100  0.25
  O  O7923  1  0.361800  0.009100  0.976900  0.25
  O  O7924  1  0.523100  0.009100  0.861800  0.25
  O  O7925  1  0.638200  0.976900  0.009100  0.25
  O  O7926  1  0.490900  0.861800  0.976900  0.25
  O  O7927  1  0.490900  0.023100  0.861800  0.25
  O  O7928  1  0.638200  0.009100  0.023100  0.25
  O  O7929  1  0.490900  0.976900  0.138200  0.25
  O  O7930  1  0.523100  0.138200  0.009100  0.25
  O  O7931  1  0.638200  0.990900  0.976900  0.25
  O  O7932  1  0.476900  0.990900  0.861800  0.25
  O  O7933  1  0.361800  0.023100  0.009100  0.25
  O  O7934  1  0.509100  0.138200  0.976900  0.25
  O  O7935  1  0.523100  0.861800  0.990900  0.25
  O  O7936  1  0.638200  0.023100  0.990900  0.25
  O  O7937  1  0.490900  0.138200  0.023100  0.25
  O  O7938  1  0.523100  0.990900  0.138200  0.25
  O  O7939  1  0.476900  0.138200  0.990900  0.25
  O  O7940  1  0.476900  0.009100  0.138200  0.25
  O  O7941  1  0.361800  0.976900  0.990900  0.25
  O  O7942  1  0.509100  0.861800  0.023100  0.25
  O  O7943  1  0.509100  0.023100  0.138200  0.25
  O  O7944  1  0.361800  0.990900  0.023100  0.25
  O  O7945  1  0.009100  0.476900  0.861800  0.25
  O  O7946  1  0.976900  0.361800  0.009100  0.25
  O  O7947  1  0.861800  0.509100  0.976900  0.25
  O  O7948  1  0.023100  0.509100  0.861800  0.25
  O  O7949  1  0.138200  0.476900  0.009100  0.25
  O  O7950  1  0.990900  0.361800  0.976900  0.25
  O  O7951  1  0.990900  0.523100  0.861800  0.25
  O  O7952  1  0.138200  0.509100  0.023100  0.25
  O  O7953  1  0.990900  0.476900  0.138200  0.25
  O  O7954  1  0.023100  0.638200  0.009100  0.25
  O  O7955  1  0.138200  0.490900  0.976900  0.25
  O  O7956  1  0.976900  0.490900  0.861800  0.25
  O  O7957  1  0.861800  0.523100  0.009100  0.25
  O  O7958  1  0.009100  0.638200  0.976900  0.25
  O  O7959  1  0.023100  0.361800  0.990900  0.25
  O  O7960  1  0.138200  0.523100  0.990900  0.25
  O  O7961  1  0.990900  0.638200  0.023100  0.25
  O  O7962  1  0.023100  0.490900  0.138200  0.25
  O  O7963  1  0.976900  0.638200  0.990900  0.25
  O  O7964  1  0.976900  0.509100  0.138200  0.25
  O  O7965  1  0.861800  0.476900  0.990900  0.25
  O  O7966  1  0.009100  0.361800  0.023100  0.25
  O  O7967  1  0.009100  0.523100  0.138200  0.25
  O  O7968  1  0.861800  0.490900  0.023100  0.25
  O  O7969  1  0.009100  0.976900  0.361800  0.25
  O  O7970  1  0.976900  0.861800  0.509100  0.25
  O  O7971  1  0.861800  0.009100  0.476900  0.25
  O  O7972  1  0.023100  0.009100  0.361800  0.25
  O  O7973  1  0.138200  0.976900  0.509100  0.25
  O  O7974  1  0.990900  0.861800  0.476900  0.25
  O  O7975  1  0.990900  0.023100  0.361800  0.25
  O  O7976  1  0.138200  0.009100  0.523100  0.25
  O  O7977  1  0.990900  0.976900  0.638200  0.25
  O  O7978  1  0.023100  0.138200  0.509100  0.25
  O  O7979  1  0.138200  0.990900  0.476900  0.25
  O  O7980  1  0.976900  0.990900  0.361800  0.25
  O  O7981  1  0.861800  0.023100  0.509100  0.25
  O  O7982  1  0.009100  0.138200  0.476900  0.25
  O  O7983  1  0.023100  0.861800  0.490900  0.25
  O  O7984  1  0.138200  0.023100  0.490900  0.25
  O  O7985  1  0.990900  0.138200  0.523100  0.25
  O  O7986  1  0.023100  0.990900  0.638200  0.25
  O  O7987  1  0.976900  0.138200  0.490900  0.25
  O  O7988  1  0.976900  0.009100  0.638200  0.25
  O  O7989  1  0.861800  0.976900  0.490900  0.25
  O  O7990  1  0.009100  0.861800  0.523100  0.25
  O  O7991  1  0.009100  0.023100  0.638200  0.25
  O  O7992  1  0.861800  0.990900  0.523100  0.25
  O  O7993  1  0.462500  0.484900  0.344200  0.25
  O  O7994  1  0.484900  0.344200  0.462500  0.25
  O  O7995  1  0.344200  0.462500  0.484900  0.25
  O  O7996  1  0.515100  0.462500  0.344200  0.25
  O  O7997  1  0.655800  0.484900  0.462500  0.25
  O  O7998  1  0.537500  0.344200  0.484900  0.25
  O  O7999  1  0.537500  0.515100  0.344200  0.25
  O  O8000  1  0.655800  0.462500  0.515100  0.25
  O  O8001  1  0.537500  0.484900  0.655800  0.25
  O  O8002  1  0.515100  0.655800  0.462500  0.25
  O  O8003  1  0.655800  0.537500  0.484900  0.25
  O  O8004  1  0.484900  0.537500  0.344200  0.25
  O  O8005  1  0.344200  0.515100  0.462500  0.25
  O  O8006  1  0.462500  0.655800  0.484900  0.25
  O  O8007  1  0.515100  0.344200  0.537500  0.25
  O  O8008  1  0.655800  0.515100  0.537500  0.25
  O  O8009  1  0.537500  0.655800  0.515100  0.25
  O  O8010  1  0.515100  0.537500  0.655800  0.25
  O  O8011  1  0.484900  0.655800  0.537500  0.25
  O  O8012  1  0.484900  0.462500  0.655800  0.25
  O  O8013  1  0.344200  0.484900  0.537500  0.25
  O  O8014  1  0.462500  0.344200  0.515100  0.25
  O  O8015  1  0.462500  0.515100  0.655800  0.25
  O  O8016  1  0.344200  0.537500  0.515100  0.25
  O  O8017  1  0.462500  0.984900  0.844200  0.25
  O  O8018  1  0.484900  0.844200  0.962500  0.25
  O  O8019  1  0.344200  0.962500  0.984900  0.25
  O  O8020  1  0.515100  0.962500  0.844200  0.25
  O  O8021  1  0.655800  0.984900  0.962500  0.25
  O  O8022  1  0.537500  0.844200  0.984900  0.25
  O  O8023  1  0.537500  0.015100  0.844200  0.25
  O  O8024  1  0.655800  0.962500  0.015100  0.25
  O  O8025  1  0.537500  0.984900  0.155800  0.25
  O  O8026  1  0.515100  0.155800  0.962500  0.25
  O  O8027  1  0.655800  0.037500  0.984900  0.25
  O  O8028  1  0.484900  0.037500  0.844200  0.25
  O  O8029  1  0.344200  0.015100  0.962500  0.25
  O  O8030  1  0.462500  0.155800  0.984900  0.25
  O  O8031  1  0.515100  0.844200  0.037500  0.25
  O  O8032  1  0.655800  0.015100  0.037500  0.25
  O  O8033  1  0.537500  0.155800  0.015100  0.25
  O  O8034  1  0.515100  0.037500  0.155800  0.25
  O  O8035  1  0.484900  0.155800  0.037500  0.25
  O  O8036  1  0.484900  0.962500  0.155800  0.25
  O  O8037  1  0.344200  0.984900  0.037500  0.25
  O  O8038  1  0.462500  0.844200  0.015100  0.25
  O  O8039  1  0.462500  0.015100  0.155800  0.25
  O  O8040  1  0.344200  0.037500  0.015100  0.25
  O  O8041  1  0.962500  0.484900  0.844200  0.25
  O  O8042  1  0.984900  0.344200  0.962500  0.25
  O  O8043  1  0.844200  0.462500  0.984900  0.25
  O  O8044  1  0.015100  0.462500  0.844200  0.25
  O  O8045  1  0.155800  0.484900  0.962500  0.25
  O  O8046  1  0.037500  0.344200  0.984900  0.25
  O  O8047  1  0.037500  0.515100  0.844200  0.25
  O  O8048  1  0.155800  0.462500  0.015100  0.25
  O  O8049  1  0.037500  0.484900  0.155800  0.25
  O  O8050  1  0.015100  0.655800  0.962500  0.25
  O  O8051  1  0.155800  0.537500  0.984900  0.25
  O  O8052  1  0.984900  0.537500  0.844200  0.25
  O  O8053  1  0.844200  0.515100  0.962500  0.25
  O  O8054  1  0.962500  0.655800  0.984900  0.25
  O  O8055  1  0.015100  0.344200  0.037500  0.25
  O  O8056  1  0.155800  0.515100  0.037500  0.25
  O  O8057  1  0.037500  0.655800  0.015100  0.25
  O  O8058  1  0.015100  0.537500  0.155800  0.25
  O  O8059  1  0.984900  0.655800  0.037500  0.25
  O  O8060  1  0.984900  0.462500  0.155800  0.25
  O  O8061  1  0.844200  0.484900  0.037500  0.25
  O  O8062  1  0.962500  0.344200  0.015100  0.25
  O  O8063  1  0.962500  0.515100  0.155800  0.25
  O  O8064  1  0.844200  0.537500  0.015100  0.25
  O  O8065  1  0.962500  0.984900  0.344200  0.25
  O  O8066  1  0.984900  0.844200  0.462500  0.25
  O  O8067  1  0.844200  0.962500  0.484900  0.25
  O  O8068  1  0.015100  0.962500  0.344200  0.25
  O  O8069  1  0.155800  0.984900  0.462500  0.25
  O  O8070  1  0.037500  0.844200  0.484900  0.25
  O  O8071  1  0.037500  0.015100  0.344200  0.25
  O  O8072  1  0.155800  0.962500  0.515100  0.25
  O  O8073  1  0.037500  0.984900  0.655800  0.25
  O  O8074  1  0.015100  0.155800  0.462500  0.25
  O  O8075  1  0.155800  0.037500  0.484900  0.25
  O  O8076  1  0.984900  0.037500  0.344200  0.25
  O  O8077  1  0.844200  0.015100  0.462500  0.25
  O  O8078  1  0.962500  0.155800  0.484900  0.25
  O  O8079  1  0.015100  0.844200  0.537500  0.25
  O  O8080  1  0.155800  0.015100  0.537500  0.25
  O  O8081  1  0.037500  0.155800  0.515100  0.25
  O  O8082  1  0.015100  0.037500  0.655800  0.25
  O  O8083  1  0.984900  0.155800  0.537500  0.25
  O  O8084  1  0.984900  0.962500  0.655800  0.25
  O  O8085  1  0.844200  0.984900  0.537500  0.25
  O  O8086  1  0.962500  0.844200  0.515100  0.25
  O  O8087  1  0.962500  0.015100  0.655800  0.25
  O  O8088  1  0.844200  0.037500  0.515100  0.25
  O  O8089  1  0.591300  0.250000  0.250000  0.56
  O  O8090  1  0.250000  0.250000  0.591300  0.56
  O  O8091  1  0.250000  0.591300  0.250000  0.56
  O  O8092  1  0.750000  0.591300  0.250000  0.56
  O  O8093  1  0.750000  0.250000  0.591300  0.56
  O  O8094  1  0.408700  0.250000  0.250000  0.56
  O  O8095  1  0.408700  0.750000  0.250000  0.56
  O  O8096  1  0.750000  0.591300  0.750000  0.56
  O  O8097  1  0.408700  0.250000  0.750000  0.56
  O  O8098  1  0.750000  0.750000  0.591300  0.56
  O  O8099  1  0.750000  0.408700  0.250000  0.56
  O  O8100  1  0.250000  0.408700  0.250000  0.56
  O  O8101  1  0.250000  0.750000  0.591300  0.56
  O  O8102  1  0.591300  0.750000  0.250000  0.56
  O  O8103  1  0.750000  0.250000  0.408700  0.56
  O  O8104  1  0.750000  0.750000  0.408700  0.56
  O  O8105  1  0.408700  0.750000  0.750000  0.56
  O  O8106  1  0.750000  0.408700  0.750000  0.56
  O  O8107  1  0.250000  0.750000  0.408700  0.56
  O  O8108  1  0.250000  0.591300  0.750000  0.56
  O  O8109  1  0.250000  0.250000  0.408700  0.56
  O  O8110  1  0.591300  0.250000  0.750000  0.56
  O  O8111  1  0.591300  0.750000  0.750000  0.56
  O  O8112  1  0.250000  0.408700  0.750000  0.56
  O  O8113  1  0.250000  0.750000  0.091300  0.56
  O  O8114  1  0.250000  0.091300  0.750000  0.56
  O  O8115  1  0.750000  0.091300  0.750000  0.56
  O  O8116  1  0.750000  0.750000  0.091300  0.56
  O  O8117  1  0.750000  0.091300  0.250000  0.56
  O  O8118  1  0.750000  0.250000  0.091300  0.56
  O  O8119  1  0.750000  0.908700  0.750000  0.56
  O  O8120  1  0.250000  0.908700  0.750000  0.56
  O  O8121  1  0.250000  0.250000  0.091300  0.56
  O  O8122  1  0.750000  0.750000  0.908700  0.56
  O  O8123  1  0.750000  0.250000  0.908700  0.56
  O  O8124  1  0.750000  0.908700  0.250000  0.56
  O  O8125  1  0.250000  0.250000  0.908700  0.56
  O  O8126  1  0.250000  0.091300  0.250000  0.56
  O  O8127  1  0.250000  0.750000  0.908700  0.56
  O  O8128  1  0.250000  0.908700  0.250000  0.56
  O  O8129  1  0.091300  0.250000  0.750000  0.56
  O  O8130  1  0.908700  0.250000  0.750000  0.56
  O  O8131  1  0.908700  0.750000  0.750000  0.56
  O  O8132  1  0.908700  0.250000  0.250000  0.56
  O  O8133  1  0.091300  0.750000  0.750000  0.56
  O  O8134  1  0.908700  0.750000  0.250000  0.56
  O  O8135  1  0.091300  0.250000  0.250000  0.56
  O  O8136  1  0.091300  0.750000  0.250000  0.56
  F  F8137  1  0.491900  0.492100  0.133620  0.25
  F  F8138  1  0.492100  0.133620  0.491900  0.25
  F  F8139  1  0.133620  0.491900  0.492100  0.25
  F  F8140  1  0.507900  0.491900  0.133620  0.25
  F  F8141  1  0.866380  0.492100  0.491900  0.25
  F  F8142  1  0.508100  0.133620  0.492100  0.25
  F  F8143  1  0.508100  0.507900  0.133620  0.25
  F  F8144  1  0.866380  0.491900  0.507900  0.25
  F  F8145  1  0.508100  0.492100  0.866380  0.25
  F  F8146  1  0.507900  0.866380  0.491900  0.25
  F  F8147  1  0.866380  0.508100  0.492100  0.25
  F  F8148  1  0.492100  0.508100  0.133620  0.25
  F  F8149  1  0.133620  0.507900  0.491900  0.25
  F  F8150  1  0.491900  0.866380  0.492100  0.25
  F  F8151  1  0.507900  0.133620  0.508100  0.25
  F  F8152  1  0.866380  0.507900  0.508100  0.25
  F  F8153  1  0.508100  0.866380  0.507900  0.25
  F  F8154  1  0.507900  0.508100  0.866380  0.25
  F  F8155  1  0.492100  0.866380  0.508100  0.25
  F  F8156  1  0.492100  0.491900  0.866380  0.25
  F  F8157  1  0.133620  0.492100  0.508100  0.25
  F  F8158  1  0.491900  0.133620  0.507900  0.25
  F  F8159  1  0.491900  0.507900  0.866380  0.25
  F  F8160  1  0.133620  0.508100  0.507900  0.25
  F  F8161  1  0.491900  0.992100  0.633620  0.25
  F  F8162  1  0.492100  0.633620  0.991900  0.25
  F  F8163  1  0.133620  0.991900  0.992100  0.25
  F  F8164  1  0.507900  0.991900  0.633620  0.25
  F  F8165  1  0.866380  0.992100  0.991900  0.25
  F  F8166  1  0.508100  0.633620  0.992100  0.25
  F  F8167  1  0.508100  0.007900  0.633620  0.25
  F  F8168  1  0.866380  0.991900  0.007900  0.25
  F  F8169  1  0.508100  0.992100  0.366380  0.25
  F  F8170  1  0.507900  0.366380  0.991900  0.25
  F  F8171  1  0.866380  0.008100  0.992100  0.25
  F  F8172  1  0.492100  0.008100  0.633620  0.25
  F  F8173  1  0.133620  0.007900  0.991900  0.25
  F  F8174  1  0.491900  0.366380  0.992100  0.25
  F  F8175  1  0.507900  0.633620  0.008100  0.25
  F  F8176  1  0.866380  0.007900  0.008100  0.25
  F  F8177  1  0.508100  0.366380  0.007900  0.25
  F  F8178  1  0.507900  0.008100  0.366380  0.25
  F  F8179  1  0.492100  0.366380  0.008100  0.25
  F  F8180  1  0.492100  0.991900  0.366380  0.25
  F  F8181  1  0.133620  0.992100  0.008100  0.25
  F  F8182  1  0.491900  0.633620  0.007900  0.25
  F  F8183  1  0.491900  0.007900  0.366380  0.25
  F  F8184  1  0.133620  0.008100  0.007900  0.25
  F  F8185  1  0.991900  0.492100  0.633620  0.25
  F  F8186  1  0.992100  0.133620  0.991900  0.25
  F  F8187  1  0.633620  0.491900  0.992100  0.25
  F  F8188  1  0.007900  0.491900  0.633620  0.25
  F  F8189  1  0.366380  0.492100  0.991900  0.25
  F  F8190  1  0.008100  0.133620  0.992100  0.25
  F  F8191  1  0.008100  0.507900  0.633620  0.25
  F  F8192  1  0.366380  0.491900  0.007900  0.25
  F  F8193  1  0.008100  0.492100  0.366380  0.25
  F  F8194  1  0.007900  0.866380  0.991900  0.25
  F  F8195  1  0.366380  0.508100  0.992100  0.25
  F  F8196  1  0.992100  0.508100  0.633620  0.25
  F  F8197  1  0.633620  0.507900  0.991900  0.25
  F  F8198  1  0.991900  0.866380  0.992100  0.25
  F  F8199  1  0.007900  0.133620  0.008100  0.25
  F  F8200  1  0.366380  0.507900  0.008100  0.25
  F  F8201  1  0.008100  0.866380  0.007900  0.25
  F  F8202  1  0.007900  0.508100  0.366380  0.25
  F  F8203  1  0.992100  0.866380  0.008100  0.25
  F  F8204  1  0.992100  0.491900  0.366380  0.25
  F  F8205  1  0.633620  0.492100  0.008100  0.25
  F  F8206  1  0.991900  0.133620  0.007900  0.25
  F  F8207  1  0.991900  0.507900  0.366380  0.25
  F  F8208  1  0.633620  0.508100  0.007900  0.25
  F  F8209  1  0.991900  0.992100  0.133620  0.25
  F  F8210  1  0.992100  0.633620  0.491900  0.25
  F  F8211  1  0.633620  0.991900  0.492100  0.25
  F  F8212  1  0.007900  0.991900  0.133620  0.25
  F  F8213  1  0.366380  0.992100  0.491900  0.25
  F  F8214  1  0.008100  0.633620  0.492100  0.25
  F  F8215  1  0.008100  0.007900  0.133620  0.25
  F  F8216  1  0.366380  0.991900  0.507900  0.25
  F  F8217  1  0.008100  0.992100  0.866380  0.25
  F  F8218  1  0.007900  0.366380  0.491900  0.25
  F  F8219  1  0.366380  0.008100  0.492100  0.25
  F  F8220  1  0.992100  0.008100  0.133620  0.25
  F  F8221  1  0.633620  0.007900  0.491900  0.25
  F  F8222  1  0.991900  0.366380  0.492100  0.25
  F  F8223  1  0.007900  0.633620  0.508100  0.25
  F  F8224  1  0.366380  0.007900  0.508100  0.25
  F  F8225  1  0.008100  0.366380  0.507900  0.25
  F  F8226  1  0.007900  0.008100  0.866380  0.25
  F  F8227  1  0.992100  0.366380  0.508100  0.25
  F  F8228  1  0.992100  0.991900  0.866380  0.25
  F  F8229  1  0.633620  0.992100  0.508100  0.25
  F  F8230  1  0.991900  0.633620  0.507900  0.25
  F  F8231  1  0.991900  0.007900  0.866380  0.25
  F  F8232  1  0.633620  0.008100  0.507900  0.25
  F  F8233  1  0.479200  0.528960  0.153600  0.25
  F  F8234  1  0.528960  0.153600  0.479200  0.25
  F  F8235  1  0.153600  0.479200  0.528960  0.25
  F  F8236  1  0.471040  0.479200  0.153600  0.25
  F  F8237  1  0.846400  0.528960  0.479200  0.25
  F  F8238  1  0.520800  0.153600  0.528960  0.25
  F  F8239  1  0.520800  0.471040  0.153600  0.25
  F  F8240  1  0.846400  0.479200  0.471040  0.25
  F  F8241  1  0.520800  0.528960  0.846400  0.25
  F  F8242  1  0.471040  0.846400  0.479200  0.25
  F  F8243  1  0.846400  0.520800  0.528960  0.25
  F  F8244  1  0.528960  0.520800  0.153600  0.25
  F  F8245  1  0.153600  0.471040  0.479200  0.25
  F  F8246  1  0.479200  0.846400  0.528960  0.25
  F  F8247  1  0.471040  0.153600  0.520800  0.25
  F  F8248  1  0.846400  0.471040  0.520800  0.25
  F  F8249  1  0.520800  0.846400  0.471040  0.25
  F  F8250  1  0.471040  0.520800  0.846400  0.25
  F  F8251  1  0.528960  0.846400  0.520800  0.25
  F  F8252  1  0.528960  0.479200  0.846400  0.25
  F  F8253  1  0.153600  0.528960  0.520800  0.25
  F  F8254  1  0.479200  0.153600  0.471040  0.25
  F  F8255  1  0.479200  0.471040  0.846400  0.25
  F  F8256  1  0.153600  0.520800  0.471040  0.25
  F  F8257  1  0.479200  0.028960  0.653600  0.25
  F  F8258  1  0.528960  0.653600  0.979200  0.25
  F  F8259  1  0.153600  0.979200  0.028960  0.25
  F  F8260  1  0.471040  0.979200  0.653600  0.25
  F  F8261  1  0.846400  0.028960  0.979200  0.25
  F  F8262  1  0.520800  0.653600  0.028960  0.25
  F  F8263  1  0.520800  0.971040  0.653600  0.25
  F  F8264  1  0.846400  0.979200  0.971040  0.25
  F  F8265  1  0.520800  0.028960  0.346400  0.25
  F  F8266  1  0.471040  0.346400  0.979200  0.25
  F  F8267  1  0.846400  0.020800  0.028960  0.25
  F  F8268  1  0.528960  0.020800  0.653600  0.25
  F  F8269  1  0.153600  0.971040  0.979200  0.25
  F  F8270  1  0.479200  0.346400  0.028960  0.25
  F  F8271  1  0.471040  0.653600  0.020800  0.25
  F  F8272  1  0.846400  0.971040  0.020800  0.25
  F  F8273  1  0.520800  0.346400  0.971040  0.25
  F  F8274  1  0.471040  0.020800  0.346400  0.25
  F  F8275  1  0.528960  0.346400  0.020800  0.25
  F  F8276  1  0.528960  0.979200  0.346400  0.25
  F  F8277  1  0.153600  0.028960  0.020800  0.25
  F  F8278  1  0.479200  0.653600  0.971040  0.25
  F  F8279  1  0.479200  0.971040  0.346400  0.25
  F  F8280  1  0.153600  0.020800  0.971040  0.25
  F  F8281  1  0.979200  0.528960  0.653600  0.25
  F  F8282  1  0.028960  0.153600  0.979200  0.25
  F  F8283  1  0.653600  0.479200  0.028960  0.25
  F  F8284  1  0.971040  0.479200  0.653600  0.25
  F  F8285  1  0.346400  0.528960  0.979200  0.25
  F  F8286  1  0.020800  0.153600  0.028960  0.25
  F  F8287  1  0.020800  0.471040  0.653600  0.25
  F  F8288  1  0.346400  0.479200  0.971040  0.25
  F  F8289  1  0.020800  0.528960  0.346400  0.25
  F  F8290  1  0.971040  0.846400  0.979200  0.25
  F  F8291  1  0.346400  0.520800  0.028960  0.25
  F  F8292  1  0.028960  0.520800  0.653600  0.25
  F  F8293  1  0.653600  0.471040  0.979200  0.25
  F  F8294  1  0.979200  0.846400  0.028960  0.25
  F  F8295  1  0.971040  0.153600  0.020800  0.25
  F  F8296  1  0.346400  0.471040  0.020800  0.25
  F  F8297  1  0.020800  0.846400  0.971040  0.25
  F  F8298  1  0.971040  0.520800  0.346400  0.25
  F  F8299  1  0.028960  0.846400  0.020800  0.25
  F  F8300  1  0.028960  0.479200  0.346400  0.25
  F  F8301  1  0.653600  0.528960  0.020800  0.25
  F  F8302  1  0.979200  0.153600  0.971040  0.25
  F  F8303  1  0.979200  0.471040  0.346400  0.25
  F  F8304  1  0.653600  0.520800  0.971040  0.25
  F  F8305  1  0.979200  0.028960  0.153600  0.25
  F  F8306  1  0.028960  0.653600  0.479200  0.25
  F  F8307  1  0.653600  0.979200  0.528960  0.25
  F  F8308  1  0.971040  0.979200  0.153600  0.25
  F  F8309  1  0.346400  0.028960  0.479200  0.25
  F  F8310  1  0.020800  0.653600  0.528960  0.25
  F  F8311  1  0.020800  0.971040  0.153600  0.25
  F  F8312  1  0.346400  0.979200  0.471040  0.25
  F  F8313  1  0.020800  0.028960  0.846400  0.25
  F  F8314  1  0.971040  0.346400  0.479200  0.25
  F  F8315  1  0.346400  0.020800  0.528960  0.25
  F  F8316  1  0.028960  0.020800  0.153600  0.25
  F  F8317  1  0.653600  0.971040  0.479200  0.25
  F  F8318  1  0.979200  0.346400  0.528960  0.25
  F  F8319  1  0.971040  0.653600  0.520800  0.25
  F  F8320  1  0.346400  0.971040  0.520800  0.25
  F  F8321  1  0.020800  0.346400  0.471040  0.25
  F  F8322  1  0.971040  0.020800  0.846400  0.25
  F  F8323  1  0.028960  0.346400  0.520800  0.25
  F  F8324  1  0.028960  0.979200  0.846400  0.25
  F  F8325  1  0.653600  0.028960  0.520800  0.25
  F  F8326  1  0.979200  0.653600  0.471040  0.25
  F  F8327  1  0.979200  0.971040  0.846400  0.25
  F  F8328  1  0.653600  0.020800  0.471040  0.25
  F  F8329  1  0.458060  0.491400  0.161500  0.25
  F  F8330  1  0.491400  0.161500  0.458060  0.25
  F  F8331  1  0.161500  0.458060  0.491400  0.25
  F  F8332  1  0.508600  0.458060  0.161500  0.25
  F  F8333  1  0.838500  0.491400  0.458060  0.25
  F  F8334  1  0.541940  0.161500  0.491400  0.25
  F  F8335  1  0.541940  0.508600  0.161500  0.25
  F  F8336  1  0.838500  0.458060  0.508600  0.25
  F  F8337  1  0.541940  0.491400  0.838500  0.25
  F  F8338  1  0.508600  0.838500  0.458060  0.25
  F  F8339  1  0.838500  0.541940  0.491400  0.25
  F  F8340  1  0.491400  0.541940  0.161500  0.25
  F  F8341  1  0.161500  0.508600  0.458060  0.25
  F  F8342  1  0.458060  0.838500  0.491400  0.25
  F  F8343  1  0.508600  0.161500  0.541940  0.25
  F  F8344  1  0.838500  0.508600  0.541940  0.25
  F  F8345  1  0.541940  0.838500  0.508600  0.25
  F  F8346  1  0.508600  0.541940  0.838500  0.25
  F  F8347  1  0.491400  0.838500  0.541940  0.25
  F  F8348  1  0.491400  0.458060  0.838500  0.25
  F  F8349  1  0.161500  0.491400  0.541940  0.25
  F  F8350  1  0.458060  0.161500  0.508600  0.25
  F  F8351  1  0.458060  0.508600  0.838500  0.25
  F  F8352  1  0.161500  0.541940  0.508600  0.25
  F  F8353  1  0.458060  0.991400  0.661500  0.25
  F  F8354  1  0.491400  0.661500  0.958060  0.25
  F  F8355  1  0.161500  0.958060  0.991400  0.25
  F  F8356  1  0.508600  0.958060  0.661500  0.25
  F  F8357  1  0.838500  0.991400  0.958060  0.25
  F  F8358  1  0.541940  0.661500  0.991400  0.25
  F  F8359  1  0.541940  0.008600  0.661500  0.25
  F  F8360  1  0.838500  0.958060  0.008600  0.25
  F  F8361  1  0.541940  0.991400  0.338500  0.25
  F  F8362  1  0.508600  0.338500  0.958060  0.25
  F  F8363  1  0.838500  0.041940  0.991400  0.25
  F  F8364  1  0.491400  0.041940  0.661500  0.25
  F  F8365  1  0.161500  0.008600  0.958060  0.25
  F  F8366  1  0.458060  0.338500  0.991400  0.25
  F  F8367  1  0.508600  0.661500  0.041940  0.25
  F  F8368  1  0.838500  0.008600  0.041940  0.25
  F  F8369  1  0.541940  0.338500  0.008600  0.25
  F  F8370  1  0.508600  0.041940  0.338500  0.25
  F  F8371  1  0.491400  0.338500  0.041940  0.25
  F  F8372  1  0.491400  0.958060  0.338500  0.25
  F  F8373  1  0.161500  0.991400  0.041940  0.25
  F  F8374  1  0.458060  0.661500  0.008600  0.25
  F  F8375  1  0.458060  0.008600  0.338500  0.25
  F  F8376  1  0.161500  0.041940  0.008600  0.25
  F  F8377  1  0.958060  0.491400  0.661500  0.25
  F  F8378  1  0.991400  0.161500  0.958060  0.25
  F  F8379  1  0.661500  0.458060  0.991400  0.25
  F  F8380  1  0.008600  0.458060  0.661500  0.25
  F  F8381  1  0.338500  0.491400  0.958060  0.25
  F  F8382  1  0.041940  0.161500  0.991400  0.25
  F  F8383  1  0.041940  0.508600  0.661500  0.25
  F  F8384  1  0.338500  0.458060  0.008600  0.25
  F  F8385  1  0.041940  0.491400  0.338500  0.25
  F  F8386  1  0.008600  0.838500  0.958060  0.25
  F  F8387  1  0.338500  0.541940  0.991400  0.25
  F  F8388  1  0.991400  0.541940  0.661500  0.25
  F  F8389  1  0.661500  0.508600  0.958060  0.25
  F  F8390  1  0.958060  0.838500  0.991400  0.25
  F  F8391  1  0.008600  0.161500  0.041940  0.25
  F  F8392  1  0.338500  0.508600  0.041940  0.25
  F  F8393  1  0.041940  0.838500  0.008600  0.25
  F  F8394  1  0.008600  0.541940  0.338500  0.25
  F  F8395  1  0.991400  0.838500  0.041940  0.25
  F  F8396  1  0.991400  0.458060  0.338500  0.25
  F  F8397  1  0.661500  0.491400  0.041940  0.25
  F  F8398  1  0.958060  0.161500  0.008600  0.25
  F  F8399  1  0.958060  0.508600  0.338500  0.25
  F  F8400  1  0.661500  0.541940  0.008600  0.25
  F  F8401  1  0.958060  0.991400  0.161500  0.25
  F  F8402  1  0.991400  0.661500  0.458060  0.25
  F  F8403  1  0.661500  0.958060  0.491400  0.25
  F  F8404  1  0.008600  0.958060  0.161500  0.25
  F  F8405  1  0.338500  0.991400  0.458060  0.25
  F  F8406  1  0.041940  0.661500  0.491400  0.25
  F  F8407  1  0.041940  0.008600  0.161500  0.25
  F  F8408  1  0.338500  0.958060  0.508600  0.25
  F  F8409  1  0.041940  0.991400  0.838500  0.25
  F  F8410  1  0.008600  0.338500  0.458060  0.25
  F  F8411  1  0.338500  0.041940  0.491400  0.25
  F  F8412  1  0.991400  0.041940  0.161500  0.25
  F  F8413  1  0.661500  0.008600  0.458060  0.25
  F  F8414  1  0.958060  0.338500  0.491400  0.25
  F  F8415  1  0.008600  0.661500  0.541940  0.25
  F  F8416  1  0.338500  0.008600  0.541940  0.25
  F  F8417  1  0.041940  0.338500  0.508600  0.25
  F  F8418  1  0.008600  0.041940  0.838500  0.25
  F  F8419  1  0.991400  0.338500  0.541940  0.25
  F  F8420  1  0.991400  0.958060  0.838500  0.25
  F  F8421  1  0.661500  0.991400  0.541940  0.25
  F  F8422  1  0.958060  0.661500  0.508600  0.25
  F  F8423  1  0.958060  0.008600  0.838500  0.25
  F  F8424  1  0.661500  0.041940  0.508600  0.25
  F  F8425  1  0.474100  0.544100  0.347800  0.25
  F  F8426  1  0.544100  0.347800  0.474100  0.25
  F  F8427  1  0.347800  0.474100  0.544100  0.25
  F  F8428  1  0.455900  0.474100  0.347800  0.25
  F  F8429  1  0.652200  0.544100  0.474100  0.25
  F  F8430  1  0.525900  0.347800  0.544100  0.25
  F  F8431  1  0.525900  0.455900  0.347800  0.25
  F  F8432  1  0.652200  0.474100  0.455900  0.25
  F  F8433  1  0.525900  0.544100  0.652200  0.25
  F  F8434  1  0.455900  0.652200  0.474100  0.25
  F  F8435  1  0.652200  0.525900  0.544100  0.25
  F  F8436  1  0.544100  0.525900  0.347800  0.25
  F  F8437  1  0.347800  0.455900  0.474100  0.25
  F  F8438  1  0.474100  0.652200  0.544100  0.25
  F  F8439  1  0.455900  0.347800  0.525900  0.25
  F  F8440  1  0.652200  0.455900  0.525900  0.25
  F  F8441  1  0.525900  0.652200  0.455900  0.25
  F  F8442  1  0.455900  0.525900  0.652200  0.25
  F  F8443  1  0.544100  0.652200  0.525900  0.25
  F  F8444  1  0.544100  0.474100  0.652200  0.25
  F  F8445  1  0.347800  0.544100  0.525900  0.25
  F  F8446  1  0.474100  0.347800  0.455900  0.25
  F  F8447  1  0.474100  0.455900  0.652200  0.25
  F  F8448  1  0.347800  0.525900  0.455900  0.25
  F  F8449  1  0.474100  0.044100  0.847800  0.25
  F  F8450  1  0.544100  0.847800  0.974100  0.25
  F  F8451  1  0.347800  0.974100  0.044100  0.25
  F  F8452  1  0.455900  0.974100  0.847800  0.25
  F  F8453  1  0.652200  0.044100  0.974100  0.25
  F  F8454  1  0.525900  0.847800  0.044100  0.25
  F  F8455  1  0.525900  0.955900  0.847800  0.25
  F  F8456  1  0.652200  0.974100  0.955900  0.25
  F  F8457  1  0.525900  0.044100  0.152200  0.25
  F  F8458  1  0.455900  0.152200  0.974100  0.25
  F  F8459  1  0.652200  0.025900  0.044100  0.25
  F  F8460  1  0.544100  0.025900  0.847800  0.25
  F  F8461  1  0.347800  0.955900  0.974100  0.25
  F  F8462  1  0.474100  0.152200  0.044100  0.25
  F  F8463  1  0.455900  0.847800  0.025900  0.25
  F  F8464  1  0.652200  0.955900  0.025900  0.25
  F  F8465  1  0.525900  0.152200  0.955900  0.25
  F  F8466  1  0.455900  0.025900  0.152200  0.25
  F  F8467  1  0.544100  0.152200  0.025900  0.25
  F  F8468  1  0.544100  0.974100  0.152200  0.25
  F  F8469  1  0.347800  0.044100  0.025900  0.25
  F  F8470  1  0.474100  0.847800  0.955900  0.25
  F  F8471  1  0.474100  0.955900  0.152200  0.25
  F  F8472  1  0.347800  0.025900  0.955900  0.25
  F  F8473  1  0.974100  0.544100  0.847800  0.25
  F  F8474  1  0.044100  0.347800  0.974100  0.25
  F  F8475  1  0.847800  0.474100  0.044100  0.25
  F  F8476  1  0.955900  0.474100  0.847800  0.25
  F  F8477  1  0.152200  0.544100  0.974100  0.25
  F  F8478  1  0.025900  0.347800  0.044100  0.25
  F  F8479  1  0.025900  0.455900  0.847800  0.25
  F  F8480  1  0.152200  0.474100  0.955900  0.25
  F  F8481  1  0.025900  0.544100  0.152200  0.25
  F  F8482  1  0.955900  0.652200  0.974100  0.25
  F  F8483  1  0.152200  0.525900  0.044100  0.25
  F  F8484  1  0.044100  0.525900  0.847800  0.25
  F  F8485  1  0.847800  0.455900  0.974100  0.25
  F  F8486  1  0.974100  0.652200  0.044100  0.25
  F  F8487  1  0.955900  0.347800  0.025900  0.25
  F  F8488  1  0.152200  0.455900  0.025900  0.25
  F  F8489  1  0.025900  0.652200  0.955900  0.25
  F  F8490  1  0.955900  0.525900  0.152200  0.25
  F  F8491  1  0.044100  0.652200  0.025900  0.25
  F  F8492  1  0.044100  0.474100  0.152200  0.25
  F  F8493  1  0.847800  0.544100  0.025900  0.25
  F  F8494  1  0.974100  0.347800  0.955900  0.25
  F  F8495  1  0.974100  0.455900  0.152200  0.25
  F  F8496  1  0.847800  0.525900  0.955900  0.25
  F  F8497  1  0.974100  0.044100  0.347800  0.25
  F  F8498  1  0.044100  0.847800  0.474100  0.25
  F  F8499  1  0.847800  0.974100  0.544100  0.25
  F  F8500  1  0.955900  0.974100  0.347800  0.25
  F  F8501  1  0.152200  0.044100  0.474100  0.25
  F  F8502  1  0.025900  0.847800  0.544100  0.25
  F  F8503  1  0.025900  0.955900  0.347800  0.25
  F  F8504  1  0.152200  0.974100  0.455900  0.25
  F  F8505  1  0.025900  0.044100  0.652200  0.25
  F  F8506  1  0.955900  0.152200  0.474100  0.25
  F  F8507  1  0.152200  0.025900  0.544100  0.25
  F  F8508  1  0.044100  0.025900  0.347800  0.25
  F  F8509  1  0.847800  0.955900  0.474100  0.25
  F  F8510  1  0.974100  0.152200  0.544100  0.25
  F  F8511  1  0.955900  0.847800  0.525900  0.25
  F  F8512  1  0.152200  0.955900  0.525900  0.25
  F  F8513  1  0.025900  0.152200  0.455900  0.25
  F  F8514  1  0.955900  0.025900  0.652200  0.25
  F  F8515  1  0.044100  0.152200  0.525900  0.25
  F  F8516  1  0.044100  0.974100  0.652200  0.25
  F  F8517  1  0.847800  0.044100  0.525900  0.25
  F  F8518  1  0.974100  0.847800  0.455900  0.25
  F  F8519  1  0.974100  0.955900  0.652200  0.25
  F  F8520  1  0.847800  0.025900  0.455900  0.25
  F  F8521  1  0.515200  0.538400  0.362100  0.25
  F  F8522  1  0.538400  0.362100  0.515200  0.25
  F  F8523  1  0.362100  0.515200  0.538400  0.25
  F  F8524  1  0.461600  0.515200  0.362100  0.25
  F  F8525  1  0.637900  0.538400  0.515200  0.25
  F  F8526  1  0.484800  0.362100  0.538400  0.25
  F  F8527  1  0.484800  0.461600  0.362100  0.25
  F  F8528  1  0.637900  0.515200  0.461600  0.25
  F  F8529  1  0.484800  0.538400  0.637900  0.25
  F  F8530  1  0.461600  0.637900  0.515200  0.25
  F  F8531  1  0.637900  0.484800  0.538400  0.25
  F  F8532  1  0.538400  0.484800  0.362100  0.25
  F  F8533  1  0.362100  0.461600  0.515200  0.25
  F  F8534  1  0.515200  0.637900  0.538400  0.25
  F  F8535  1  0.461600  0.362100  0.484800  0.25
  F  F8536  1  0.637900  0.461600  0.484800  0.25
  F  F8537  1  0.484800  0.637900  0.461600  0.25
  F  F8538  1  0.461600  0.484800  0.637900  0.25
  F  F8539  1  0.538400  0.637900  0.484800  0.25
  F  F8540  1  0.538400  0.515200  0.637900  0.25
  F  F8541  1  0.362100  0.538400  0.484800  0.25
  F  F8542  1  0.515200  0.362100  0.461600  0.25
  F  F8543  1  0.515200  0.461600  0.637900  0.25
  F  F8544  1  0.362100  0.484800  0.461600  0.25
  F  F8545  1  0.515200  0.038400  0.862100  0.25
  F  F8546  1  0.538400  0.862100  0.015200  0.25
  F  F8547  1  0.362100  0.015200  0.038400  0.25
  F  F8548  1  0.461600  0.015200  0.862100  0.25
  F  F8549  1  0.637900  0.038400  0.015200  0.25
  F  F8550  1  0.484800  0.862100  0.038400  0.25
  F  F8551  1  0.484800  0.961600  0.862100  0.25
  F  F8552  1  0.637900  0.015200  0.961600  0.25
  F  F8553  1  0.484800  0.038400  0.137900  0.25
  F  F8554  1  0.461600  0.137900  0.015200  0.25
  F  F8555  1  0.637900  0.984800  0.038400  0.25
  F  F8556  1  0.538400  0.984800  0.862100  0.25
  F  F8557  1  0.362100  0.961600  0.015200  0.25
  F  F8558  1  0.515200  0.137900  0.038400  0.25
  F  F8559  1  0.461600  0.862100  0.984800  0.25
  F  F8560  1  0.637900  0.961600  0.984800  0.25
  F  F8561  1  0.484800  0.137900  0.961600  0.25
  F  F8562  1  0.461600  0.984800  0.137900  0.25
  F  F8563  1  0.538400  0.137900  0.984800  0.25
  F  F8564  1  0.538400  0.015200  0.137900  0.25
  F  F8565  1  0.362100  0.038400  0.984800  0.25
  F  F8566  1  0.515200  0.862100  0.961600  0.25
  F  F8567  1  0.515200  0.961600  0.137900  0.25
  F  F8568  1  0.362100  0.984800  0.961600  0.25
  F  F8569  1  0.015200  0.538400  0.862100  0.25
  F  F8570  1  0.038400  0.362100  0.015200  0.25
  F  F8571  1  0.862100  0.515200  0.038400  0.25
  F  F8572  1  0.961600  0.515200  0.862100  0.25
  F  F8573  1  0.137900  0.538400  0.015200  0.25
  F  F8574  1  0.984800  0.362100  0.038400  0.25
  F  F8575  1  0.984800  0.461600  0.862100  0.25
  F  F8576  1  0.137900  0.515200  0.961600  0.25
  F  F8577  1  0.984800  0.538400  0.137900  0.25
  F  F8578  1  0.961600  0.637900  0.015200  0.25
  F  F8579  1  0.137900  0.484800  0.038400  0.25
  F  F8580  1  0.038400  0.484800  0.862100  0.25
  F  F8581  1  0.862100  0.461600  0.015200  0.25
  F  F8582  1  0.015200  0.637900  0.038400  0.25
  F  F8583  1  0.961600  0.362100  0.984800  0.25
  F  F8584  1  0.137900  0.461600  0.984800  0.25
  F  F8585  1  0.984800  0.637900  0.961600  0.25
  F  F8586  1  0.961600  0.484800  0.137900  0.25
  F  F8587  1  0.038400  0.637900  0.984800  0.25
  F  F8588  1  0.038400  0.515200  0.137900  0.25
  F  F8589  1  0.862100  0.538400  0.984800  0.25
  F  F8590  1  0.015200  0.362100  0.961600  0.25
  F  F8591  1  0.015200  0.461600  0.137900  0.25
  F  F8592  1  0.862100  0.484800  0.961600  0.25
  F  F8593  1  0.015200  0.038400  0.362100  0.25
  F  F8594  1  0.038400  0.862100  0.515200  0.25
  F  F8595  1  0.862100  0.015200  0.538400  0.25
  F  F8596  1  0.961600  0.015200  0.362100  0.25
  F  F8597  1  0.137900  0.038400  0.515200  0.25
  F  F8598  1  0.984800  0.862100  0.538400  0.25
  F  F8599  1  0.984800  0.961600  0.362100  0.25
  F  F8600  1  0.137900  0.015200  0.461600  0.25
  F  F8601  1  0.984800  0.038400  0.637900  0.25
  F  F8602  1  0.961600  0.137900  0.515200  0.25
  F  F8603  1  0.137900  0.984800  0.538400  0.25
  F  F8604  1  0.038400  0.984800  0.362100  0.25
  F  F8605  1  0.862100  0.961600  0.515200  0.25
  F  F8606  1  0.015200  0.137900  0.538400  0.25
  F  F8607  1  0.961600  0.862100  0.484800  0.25
  F  F8608  1  0.137900  0.961600  0.484800  0.25
  F  F8609  1  0.984800  0.137900  0.461600  0.25
  F  F8610  1  0.961600  0.984800  0.637900  0.25
  F  F8611  1  0.038400  0.137900  0.484800  0.25
  F  F8612  1  0.038400  0.015200  0.637900  0.25
  F  F8613  1  0.862100  0.038400  0.484800  0.25
  F  F8614  1  0.015200  0.862100  0.461600  0.25
  F  F8615  1  0.015200  0.961600  0.637900  0.25
  F  F8616  1  0.862100  0.984800  0.461600  0.25
  F  F8617  1  0.481400  0.525400  0.386900  0.25
  F  F8618  1  0.525400  0.386900  0.481400  0.25
  F  F8619  1  0.386900  0.481400  0.525400  0.25
  F  F8620  1  0.474600  0.481400  0.386900  0.25
  F  F8621  1  0.613100  0.525400  0.481400  0.25
  F  F8622  1  0.518600  0.386900  0.525400  0.25
  F  F8623  1  0.518600  0.474600  0.386900  0.25
  F  F8624  1  0.613100  0.481400  0.474600  0.25
  F  F8625  1  0.518600  0.525400  0.613100  0.25
  F  F8626  1  0.474600  0.613100  0.481400  0.25
  F  F8627  1  0.613100  0.518600  0.525400  0.25
  F  F8628  1  0.525400  0.518600  0.386900  0.25
  F  F8629  1  0.386900  0.474600  0.481400  0.25
  F  F8630  1  0.481400  0.613100  0.525400  0.25
  F  F8631  1  0.474600  0.386900  0.518600  0.25
  F  F8632  1  0.613100  0.474600  0.518600  0.25
  F  F8633  1  0.518600  0.613100  0.474600  0.25
  F  F8634  1  0.474600  0.518600  0.613100  0.25
  F  F8635  1  0.525400  0.613100  0.518600  0.25
  F  F8636  1  0.525400  0.481400  0.613100  0.25
  F  F8637  1  0.386900  0.525400  0.518600  0.25
  F  F8638  1  0.481400  0.386900  0.474600  0.25
  F  F8639  1  0.481400  0.474600  0.613100  0.25
  F  F8640  1  0.386900  0.518600  0.474600  0.25
  F  F8641  1  0.481400  0.025400  0.886900  0.25
  F  F8642  1  0.525400  0.886900  0.981400  0.25
  F  F8643  1  0.386900  0.981400  0.025400  0.25
  F  F8644  1  0.474600  0.981400  0.886900  0.25
  F  F8645  1  0.613100  0.025400  0.981400  0.25
  F  F8646  1  0.518600  0.886900  0.025400  0.25
  F  F8647  1  0.518600  0.974600  0.886900  0.25
  F  F8648  1  0.613100  0.981400  0.974600  0.25
  F  F8649  1  0.518600  0.025400  0.113100  0.25
  F  F8650  1  0.474600  0.113100  0.981400  0.25
  F  F8651  1  0.613100  0.018600  0.025400  0.25
  F  F8652  1  0.525400  0.018600  0.886900  0.25
  F  F8653  1  0.386900  0.974600  0.981400  0.25
  F  F8654  1  0.481400  0.113100  0.025400  0.25
  F  F8655  1  0.474600  0.886900  0.018600  0.25
  F  F8656  1  0.613100  0.974600  0.018600  0.25
  F  F8657  1  0.518600  0.113100  0.974600  0.25
  F  F8658  1  0.474600  0.018600  0.113100  0.25
  F  F8659  1  0.525400  0.113100  0.018600  0.25
  F  F8660  1  0.525400  0.981400  0.113100  0.25
  F  F8661  1  0.386900  0.025400  0.018600  0.25
  F  F8662  1  0.481400  0.886900  0.974600  0.25
  F  F8663  1  0.481400  0.974600  0.113100  0.25
  F  F8664  1  0.386900  0.018600  0.974600  0.25
  F  F8665  1  0.981400  0.525400  0.886900  0.25
  F  F8666  1  0.025400  0.386900  0.981400  0.25
  F  F8667  1  0.886900  0.481400  0.025400  0.25
  F  F8668  1  0.974600  0.481400  0.886900  0.25
  F  F8669  1  0.113100  0.525400  0.981400  0.25
  F  F8670  1  0.018600  0.386900  0.025400  0.25
  F  F8671  1  0.018600  0.474600  0.886900  0.25
  F  F8672  1  0.113100  0.481400  0.974600  0.25
  F  F8673  1  0.018600  0.525400  0.113100  0.25
  F  F8674  1  0.974600  0.613100  0.981400  0.25
  F  F8675  1  0.113100  0.518600  0.025400  0.25
  F  F8676  1  0.025400  0.518600  0.886900  0.25
  F  F8677  1  0.886900  0.474600  0.981400  0.25
  F  F8678  1  0.981400  0.613100  0.025400  0.25
  F  F8679  1  0.974600  0.386900  0.018600  0.25
  F  F8680  1  0.113100  0.474600  0.018600  0.25
  F  F8681  1  0.018600  0.613100  0.974600  0.25
  F  F8682  1  0.974600  0.518600  0.113100  0.25
  F  F8683  1  0.025400  0.613100  0.018600  0.25
  F  F8684  1  0.025400  0.481400  0.113100  0.25
  F  F8685  1  0.886900  0.525400  0.018600  0.25
  F  F8686  1  0.981400  0.386900  0.974600  0.25
  F  F8687  1  0.981400  0.474600  0.113100  0.25
  F  F8688  1  0.886900  0.518600  0.974600  0.25
  F  F8689  1  0.981400  0.025400  0.386900  0.25
  F  F8690  1  0.025400  0.886900  0.481400  0.25
  F  F8691  1  0.886900  0.981400  0.525400  0.25
  F  F8692  1  0.974600  0.981400  0.386900  0.25
  F  F8693  1  0.113100  0.025400  0.481400  0.25
  F  F8694  1  0.018600  0.886900  0.525400  0.25
  F  F8695  1  0.018600  0.974600  0.386900  0.25
  F  F8696  1  0.113100  0.981400  0.474600  0.25
  F  F8697  1  0.018600  0.025400  0.613100  0.25
  F  F8698  1  0.974600  0.113100  0.481400  0.25
  F  F8699  1  0.113100  0.018600  0.525400  0.25
  F  F8700  1  0.025400  0.018600  0.386900  0.25
  F  F8701  1  0.886900  0.974600  0.481400  0.25
  F  F8702  1  0.981400  0.113100  0.525400  0.25
  F  F8703  1  0.974600  0.886900  0.518600  0.25
  F  F8704  1  0.113100  0.974600  0.518600  0.25
  F  F8705  1  0.018600  0.113100  0.474600  0.25
  F  F8706  1  0.974600  0.018600  0.613100  0.25
  F  F8707  1  0.025400  0.113100  0.518600  0.25
  F  F8708  1  0.025400  0.981400  0.613100  0.25
  F  F8709  1  0.886900  0.025400  0.518600  0.25
  F  F8710  1  0.981400  0.886900  0.474600  0.25
  F  F8711  1  0.981400  0.974600  0.613100  0.25
  F  F8712  1  0.886900  0.018600  0.474600  0.25
