
#######################################################################
#
#                 Cambridge Crystallographic Data Centre
#                                CCDC 
#
#######################################################################
#
# If this CIF has been generated from an entry in the Cambridge 
# Structural Database, then it will include bibliographic, chemical, 
# crystal, experimental, refinement or atomic coordinate data resulting 
# from the CCDC's data processing and validation procedures.
#
#######################################################################

data_PEPKEB
_chemical_formula_moiety         
'C110 H110 N18 O18 Th2,0.5(C3 H7 N1 O1),1.5(C4 H10 O1)'
_chemical_name_systematic        
"tetrakis(\m~2~-1,6-bis(1'-phenyl-3'-methyl-5'-hydroxypyrazol-4'-yl)-1,6-hexanedione)-bis(dimethylformamide)-di-thorium(iv) dimethylformamide diethyl ether solvate"
_symmetry_cell_setting           triclinic
_symmetry_space_group_name_H-M   'P -1'
_symmetry_Int_Tables_number      2
_space_group_name_Hall           '-P 1'
loop_
_symmetry_equiv_pos_site_id
_symmetry_equiv_pos_as_xyz
1 x,y,z
2 -x,-y,-z
_cell_length_a                   18.0226(19)
_cell_length_b                   19.107(2)
_cell_length_c                   20.390(2)
_cell_angle_alpha                110.845(2)
_cell_angle_beta                 114.358(2)
_cell_angle_gamma                90.431(2)
_cell_volume                     5878.8
_exptl_crystal_colour            colorless
_exptl_crystal_description       rhombic
_cell_formula_units_Z            2
loop_
_atom_site_label
_atom_site_type_symbol
_atom_site_fract_x
_atom_site_fract_y
_atom_site_fract_z
Th1 Th 0.522303(17) 0.147419(16) 0.299462(17)
Th2 Th 0.956651(17) 0.339703(16) 0.696453(17)
O1 O 0.5060(3) 0.0138(3) 0.2704(3)
O2 O 0.5974(3) 0.1303(3) 0.4219(3)
O3 O 0.8350(3) 0.3012(3) 0.7119(3)
O4 O 0.9596(3) 0.4270(3) 0.8158(3)
O5 O 0.5350(3) 0.1224(3) 0.1832(3)
O6 O 0.6591(3) 0.1099(3) 0.3154(3)
O7 O 0.8910(3) 0.2077(3) 0.6066(3)
O8 O 1.0013(3) 0.2564(3) 0.7654(3)
O9 O 0.4354(3) 0.2359(3) 0.2656(3)
O10 O 0.6106(3) 0.2605(3) 0.3221(3)
O11 O 0.9167(3) 0.3254(3) 0.5598(3)
O12 O 1.0554(3) 0.2819(3) 0.6525(3)
O13 O 0.4180(4) 0.1185(3) 0.3331(3)
O14 O 0.5308(3) 0.2579(3) 0.4195(3)
O15 O 0.8377(3) 0.4007(3) 0.6450(3)
O16 O 1.0060(3) 0.4638(3) 0.7096(3)
N1 N 0.4788(4) -0.0958(4) 0.2882(4)
N2 N 0.4989(4) -0.1198(4) 0.3494(4)
N3 N 0.8319(4) 0.5239(4) 0.8940(4)
N4 N 0.9069(4) 0.5153(4) 0.8895(4)
N5 N 0.5889(4) 0.1102(4) 0.0949(4)
N6 N 0.6614(5) 0.0936(4) 0.0871(5)
N7 N 1.0657(4) 0.0813(4) 0.7397(4)
N8 N 1.0662(4) 0.1556(4) 0.7848(4)
N9 N 0.3967(4) 0.3554(4) 0.2820(4)
N10 N 0.4311(5) 0.4283(4) 0.2994(5)
N11 N 1.1048(4) 0.1945(4) 0.4966(4)
N12 N 1.1158(4) 0.2146(4) 0.5736(4)
N13 N 0.3168(4) 0.1284(4) 0.3765(4)
N14 N 0.2977(4) 0.1798(4) 0.4321(5)
N15 N 0.9598(4) 0.6181(4) 0.6571(4)
N16 N 1.0127(4) 0.5789(4) 0.6959(4)
C1 C 0.3937(6) -0.1268(5) 0.1487(5)
H9 H 0.4020 -0.0755 0.1573
C2 C 0.3459(6) -0.1807(6) 0.0742(6)
H10 H 0.3228 -0.1657 0.0324
C3 C 0.3321(6) -0.2558(6) 0.0611(6)
H11 H 0.2988 -0.2917 0.0110
C4 C 0.3672(8) -0.2775(6) 0.1212(6)
H12 H 0.3590 -0.3288 0.1122
C5 C 0.4155(6) -0.2244(5) 0.1969(5)
H13 H 0.4385 -0.2400 0.2383
C6 C 0.4289(5) -0.1495(5) 0.2098(5)
C7 C 0.5138(5) -0.0216(4) 0.3152(5)
C8 C 0.5559(4) 0.0041(5) 0.3978(5)
C9 C 0.5438(4) -0.0619(4) 0.4135(5)
C10 C 0.5769(5) -0.0726(5) 0.4890(5)
H14 H 0.5571 -0.1238 0.4791
H15 H 0.5585 -0.0376 0.5239
H16 H 0.6363 -0.0632 0.5125
C11 C 0.5971(5) 0.0794(5) 0.4483(4)
C12 C 0.6408(5) 0.1041(5) 0.5357(5)
H17 H 0.6917 0.0838 0.5488
H18 H 0.6063 0.0812 0.5514
C13 C 0.6618(5) 0.1885(4) 0.5832(5)
H19 H 0.6129 0.2109 0.5661
H20 H 0.7037 0.2113 0.5750
C14 C 0.6938(5) 0.2053(4) 0.6700(4)
H21 H 0.7451 0.1861 0.6874
H22 H 0.6539 0.1778 0.6768
C15 C 0.7094(5) 0.2899(5) 0.7220(5)
H23 H 0.6644 0.3124 0.6957
H24 H 0.7082 0.2943 0.7704
C16 C 0.7898(5) 0.3353(5) 0.7419(5)
C17 C 0.8163(5) 0.4111(4) 0.7963(5)
C18 C 0.7791(5) 0.4619(5) 0.8394(5)
C19 C 0.6904(5) 0.4566(5) 0.8253(6)
H25 H 0.6851 0.4996 0.8646
H26 H 0.6728 0.4105 0.8278
H27 H 0.6565 0.4564 0.7745
C20 C 0.8991(5) 0.4490(5) 0.8314(5)
C21 C 0.9790(5) 0.5719(4) 0.9424(5)
C22 C 0.9942(6) 0.6093(5) 1.0196(5)
H28 H 0.9579 0.5973 1.0374
C23 C 1.0660(6) 0.6664(5) 1.0714(6)
H29 H 1.0773 0.6919 1.1237
C24 C 1.1189(6) 0.6840(6) 1.0446(6)
H30 H 1.1667 0.7205 1.0790
C25 C 1.1015(6) 0.6481(6) 0.9674(6)
H31 H 1.1364 0.6623 0.9493
C26 C 1.0326(5) 0.5906(5) 0.9154(6)
H32 H 1.0226 0.5650 0.8634
C27 C 0.4528(9) 0.1409(8) 0.0381(9)
H33 H 0.4551 0.1628 0.0877
C28 C 0.3831(9) 0.1395(8) -0.0277(9)
H34 H 0.3388 0.1606 -0.0217
C29 C 0.3798(8) 0.1074(8) -0.1011(7)
H35 H 0.3343 0.1077 -0.1446
C30 C 0.4427(7) 0.0759(6) -0.1087(6)
H36 H 0.4400 0.0529 -0.1584
C31 C 0.5110(6) 0.0765(6) -0.0457(5)
H37 H 0.5540 0.0540 -0.0534
C32 C 0.5180(6) 0.1093(5) 0.0283(5)
C33 C 0.5954(5) 0.1127(5) 0.1641(5)
C34 C 0.6756(5) 0.0995(5) 0.2048(5)
C35 C 0.7105(5) 0.0867(5) 0.1518(5)
C36 C 0.7974(6) 0.0697(7) 0.1638(6)
H38 H 0.8039 0.0632 0.1177
H39 H 0.8041 0.0239 0.1734
H40 H 0.8385 0.1113 0.2079
C37 C 0.6989(5) 0.0897(5) 0.2757(5)
C38 C 0.7727(5) 0.0518(5) 0.3037(5)
H41 H 0.8224 0.0850 0.3177
H42 H 0.7665 0.0050 0.2606
C39 C 0.7844(5) 0.0328(5) 0.3738(5)
H43 H 0.8160 -0.0080 0.3743
H44 H 0.7306 0.0146 0.3676
C40 C 0.8291(6) 0.1011(5) 0.4525(5)
H45 H 0.8765 0.1268 0.4536
H46 H 0.7919 0.1369 0.4573
C41 C 0.8581(5) 0.0777(5) 0.5212(5)
H47 H 0.8903 0.0378 0.5132
H48 H 0.8100 0.0566 0.5229
C42 C 0.9099(5) 0.1424(5) 0.5993(4)
C43 C 0.9745(5) 0.1307(4) 0.6616(5)
C44 C 1.0123(5) 0.0662(5) 0.6681(5)
C45 C 0.9985(6) -0.0108(5) 0.6078(6)
H49 H 1.0338 -0.0410 0.6315
H50 H 1.0110 -0.0067 0.5678
H51 H 0.9416 -0.0346 0.5850
C46 C 1.0123(4) 0.1881(4) 0.7395(4)
C47 C 1.1149(5) 0.1851(5) 0.8668(5)
C48 C 1.1270(7) 0.2598(5) 0.9143(6)
H52 H 1.1048 0.2947 0.8929
C49 C 1.1723(8) 0.2835(7) 0.9949(7)
H53 H 1.1787 0.3343 1.0267
C50 C 1.2062(8) 0.2367(8) 1.0274(7)
H54 H 1.2399 0.2547 1.0811
C51 C 1.1914(9) 0.1606(8) 0.9812(7)
H55 H 1.2118 0.1260 1.0039
C52 C 1.1462(8) 0.1356(7) 0.9015(7)
H56 H 1.1367 0.0841 0.8705
C53 C 0.2856(5) 0.2850(6) 0.2838(6)
H57 H 0.3229 0.2583 0.3079
C54 C 0.2038(6) 0.2711(6) 0.2676(6)
H58 H 0.1860 0.2355 0.2819
C55 C 0.1481(6) 0.3093(6) 0.2305(6)
H59 H 0.0925 0.2985 0.2184
C56 C 0.1746(6) 0.3628(6) 0.2117(6)
H60 H 0.1371 0.3894 0.1875
C57 C 0.2568(5) 0.3781(5) 0.2282(5)
H61 H 0.2746 0.4149 0.2152
C58 C 0.3119(5) 0.3390(5) 0.2638(5)
C59 C 0.4527(5) 0.3068(5) 0.2838(5)
C60 C 0.5293(5) 0.3533(5) 0.3075(5)
C61 C 0.5089(5) 0.4267(5) 0.3140(6)
C62 C 0.5631(6) 0.4989(5) 0.3360(7)
H62 H 0.5311 0.5388 0.3354
H63 H 0.5855 0.4915 0.2992
H64 H 0.6076 0.5127 0.3876
C63 C 0.6047(5) 0.3252(5) 0.3212(5)
C64 C 0.6799(5) 0.3731(5) 0.3330(5)
H65 H 0.6956 0.4192 0.3796
H66 H 0.6645 0.3879 0.2889
C65 C 0.7552(5) 0.3345(5) 0.3412(5)
H67 H 0.7923 0.3616 0.3311
H68 H 0.7370 0.2829 0.3016
C66 C 0.8030(5) 0.3317(5) 0.4217(5)
H69 H 0.8229 0.3831 0.4617
H70 H 0.7665 0.3049 0.4326
C67 C 0.8756(5) 0.2916(5) 0.4241(5)
H71 H 0.8542 0.2392 0.3868
H72 H 0.9076 0.3154 0.4068
C68 C 0.9331(5) 0.2916(5) 0.5023(5)
C69 C 1.0029(5) 0.2565(5) 0.5126(5)
C70 C 1.0387(5) 0.2198(5) 0.4624(5)
C71 C 1.0125(6) 0.2059(6) 0.3776(5)
H73 H 1.0504 0.1790 0.3607
H74 H 1.0129 0.2538 0.3723
H75 H 0.9577 0.1761 0.3461
C72 C 1.0559(5) 0.2540(5) 0.5863(5)
C73 C 1.1865(5) 0.1982(5) 0.6270(5)
C74 C 1.2521(5) 0.1807(5) 0.6086(6)
H76 H 1.2495 0.1774 0.5611
C75 C 1.3229(6) 0.1679(6) 0.6648(7)
H77 H 1.3685 0.1587 0.6548
C76 C 1.3266(6) 0.1688(6) 0.7333(6)
H78 H 1.3736 0.1592 0.7688
C77 C 1.2599(6) 0.1840(7) 0.7490(7)
H79 H 1.2616 0.1846 0.7954
C78 C 1.1893(6) 0.1985(6) 0.6954(6)
H80 H 1.1442 0.2083 0.7063
C79 C 0.2878(6) -0.0052(5) 0.2807(6)
H81 H 0.3402 0.0010 0.2832
C80 C 0.2351(6) -0.0733(6) 0.2330(6)
H82 H 0.2510 -0.1122 0.2015
C81 C 0.1597(7) -0.0849(7) 0.2311(7)
H83 H 0.1250 -0.1322 0.2000
C82 C 0.1353(7) -0.0272(8) 0.2747(8)
H84 H 0.0832 -0.0351 0.2725
C83 C 0.1866(6) 0.0442(6) 0.3232(6)
H85 H 0.1693 0.0836 0.3529
C84 C 0.2640(5) 0.0546(6) 0.3254(5)
C85 C 0.3894(5) 0.1553(5) 0.3799(5)
C86 C 0.4172(5) 0.2289(5) 0.4398(5)
C87 C 0.3553(5) 0.2396(5) 0.4692(5)
C88 C 0.3502(6) 0.3039(6) 0.5329(6)
H86 H 0.3004 0.2925 0.5365
H87 H 0.3496 0.3489 0.5221
H88 H 0.3973 0.3121 0.5815
C89 C 0.4888(5) 0.2787(5) 0.4570(5)
C90 C 0.5144(5) 0.3575(4) 0.5207(5)
H89 H 0.5330 0.3526 0.5705
H90 H 0.4659 0.3813 0.5129
C91 C 0.5817(5) 0.4103(5) 0.5264(5)
H91 H 0.5783 0.4623 0.5542
H92 H 0.5708 0.4045 0.4739
C92 C 0.6692(5) 0.3979(5) 0.5672(5)
H93 H 0.6753 0.3482 0.5366
H94 H 0.6793 0.3990 0.6181
C93 C 0.7329(5) 0.4590(5) 0.5776(5)
H95 H 0.7228 0.4564 0.5261
H96 H 0.7240 0.5084 0.6057
C94 C 0.8214(5) 0.4538(5) 0.6199(5)
C95 C 0.8869(5) 0.5093(5) 0.6356(5)
C96 C 0.8857(5) 0.5770(5) 0.6206(5)
C97 C 0.8153(6) 0.6046(5) 0.5697(6)
H97 H 0.8356 0.6528 0.5727
H98 H 0.7732 0.6104 0.5876
H99 H 0.7924 0.5683 0.5164
C98 C 0.9710(5) 0.5114(5) 0.6830(5)
C99 C 1.0959(5) 0.6144(5) 0.7486(5)
C100 C 1.1185(6) 0.6922(5) 0.7760(5)
H100 H 1.0789 0.7208 0.7588
C101 C 1.1987(6) 0.7282(6) 0.8283(6)
H101 H 1.2124 0.7809 0.8476
C102 C 1.2585(6) 0.6868(6) 0.8522(5)
H102 H 1.3131 0.7112 0.8863
C103 C 1.2379(6) 0.6101(6) 0.8260(6)
H103 H 1.2781 0.5821 0.8432
C104 C 1.1560(6) 0.5729(6) 0.7730(6)
H104 H 1.1423 0.5202 0.7544
O17 O 0.3886(3) 0.0786(3) 0.1779(3)
N17 N 0.2478(4) 0.0480(4) 0.1106(5)
C105 C 0.3176(6) 0.0914(5) 0.1669(6)
H105 H 0.3139 0.1365 0.2024
C106 C 0.1680(6) 0.0627(7) 0.1090(8)
H106 H 0.1754 0.1118 0.1487
H107 H 0.1446 0.0242 0.1186
H108 H 0.1312 0.0618 0.0585
C107 C 0.2483(9) -0.0221(8) 0.0551(8)
H109 H 0.3039 -0.0252 0.0616
H110 H 0.2138 -0.0253 0.0031
H111 H 0.2274 -0.0634 0.0628
O18 O 1.1024(3) 0.3899(4) 0.7997(3)
N18 N 1.2201(8) 0.4563(9) 0.9034(8)
C108 C 1.1390(10) 0.4395(10) 0.8608(10)
C109 C 1.2702(16) 0.4138(15) 0.8734(15)
H112 H 1.2359 0.3713 0.8257
H113 H 1.3070 0.3955 0.9109
H114 H 1.3020 0.4453 0.8631
C110 C 1.2607(14) 0.5231(13) 0.9750(13)
H115 H 1.2201 0.5454 0.9909
H116 H 1.2892 0.5593 0.9667
H117 H 1.2997 0.5092 1.0153
O19 O -0.0248(8) 0.1068(7) 0.0670(7)
C114 C -0.0182(10) 0.1216(10) 0.1420(10)
C115 C -0.0274(13) 0.1704(12) 0.0452(12)
C116 C -0.0147(11) 0.0533(10) 0.1582(10)
C117 C -0.0213(14) 0.1554(13) -0.0217(14)
N20 N 1.5036(16) 0.3636(15) 1.0514(16)
C118 C 1.479(2) 0.297(2) 0.974(2)
O20 O 1.5765(19) 0.4359(17) 1.0346(18)
C119 C 1.555(3) 0.437(2) 1.090(2)
C120 C 1.484(3) 0.353(3) 1.098(3)
O22 O 0.6679(11) 0.5931(10) 0.2806(11)
C125 C 0.6122(19) 0.6191(17) 0.2178(17)
C126 C 0.5382(16) 0.6200(19) 0.2072(18)
C127 C 0.7483(14) 0.5946(13) 0.2904(13)
C128 C 0.794(3) 0.5781(19) 0.362(2)
loop_
_geom_bond_atom_site_label_1
_geom_bond_atom_site_label_2
_geom_bond_site_symmetry_1
_geom_bond_site_symmetry_2
Th1 O1 1_555 1_555
Th2 O3 1_555 1_555
O1 C7 1_555 1_555
O2 Th1 1_555 1_555
O3 C16 1_555 1_555
O4 Th2 1_555 1_555
O5 Th1 1_555 1_555
O6 Th1 1_555 1_555
O7 Th2 1_555 1_555
O8 Th2 1_555 1_555
O9 Th1 1_555 1_555
O10 Th1 1_555 1_555
O11 Th2 1_555 1_555
O12 Th2 1_555 1_555
O13 Th1 1_555 1_555
O14 Th1 1_555 1_555
O15 Th2 1_555 1_555
O16 Th2 1_555 1_555
N1 N2 1_555 1_555
N2 C9 1_555 1_555
N3 N4 1_555 1_555
N4 C20 1_555 1_555
N5 N6 1_555 1_555
N6 C35 1_555 1_555
N7 N8 1_555 1_555
N8 C46 1_555 1_555
N9 N10 1_555 1_555
N10 C61 1_555 1_555
N11 N12 1_555 1_555
N12 C72 1_555 1_555
N13 N14 1_555 1_555
N14 C87 1_555 1_555
N15 N16 1_555 1_555
N16 C98 1_555 1_555
C1 H9 1_555 1_555
C2 C1 1_555 1_555
H10 C2 1_555 1_555
C3 C2 1_555 1_555
H11 C3 1_555 1_555
C4 C3 1_555 1_555
H12 C4 1_555 1_555
C5 C4 1_555 1_555
H13 C5 1_555 1_555
C6 N1 1_555 1_555
C7 N1 1_555 1_555
C8 C7 1_555 1_555
C9 C8 1_555 1_555
C10 C9 1_555 1_555
H14 C10 1_555 1_555
H15 C10 1_555 1_555
H16 C10 1_555 1_555
C11 O2 1_555 1_555
C12 C11 1_555 1_555
H17 C12 1_555 1_555
H18 C12 1_555 1_555
C13 C12 1_555 1_555
H19 C13 1_555 1_555
H20 C13 1_555 1_555
C14 C13 1_555 1_555
H21 C14 1_555 1_555
H22 C14 1_555 1_555
C15 C14 1_555 1_555
H23 C15 1_555 1_555
H24 C15 1_555 1_555
C16 C15 1_555 1_555
C17 C16 1_555 1_555
C18 N3 1_555 1_555
C19 C18 1_555 1_555
H25 C19 1_555 1_555
H26 C19 1_555 1_555
H27 C19 1_555 1_555
C20 O4 1_555 1_555
C21 N4 1_555 1_555
C22 C21 1_555 1_555
H28 C22 1_555 1_555
C23 C22 1_555 1_555
H29 C23 1_555 1_555
C24 C23 1_555 1_555
H30 C24 1_555 1_555
C25 C24 1_555 1_555
H31 C25 1_555 1_555
C26 C21 1_555 1_555
H32 C26 1_555 1_555
C27 H33 1_555 1_555
C28 C27 1_555 1_555
H34 C28 1_555 1_555
C29 C28 1_555 1_555
H35 C29 1_555 1_555
C30 C29 1_555 1_555
H36 C30 1_555 1_555
C31 C30 1_555 1_555
H37 C31 1_555 1_555
C32 N5 1_555 1_555
C33 O5 1_555 1_555
C34 C33 1_555 1_555
C35 C34 1_555 1_555
C36 C35 1_555 1_555
H38 C36 1_555 1_555
H39 C36 1_555 1_555
H40 C36 1_555 1_555
C37 O6 1_555 1_555
C38 C37 1_555 1_555
H41 C38 1_555 1_555
H42 C38 1_555 1_555
C39 C38 1_555 1_555
H43 C39 1_555 1_555
H44 C39 1_555 1_555
C40 C39 1_555 1_555
H45 C40 1_555 1_555
H46 C40 1_555 1_555
C41 C40 1_555 1_555
H47 C41 1_555 1_555
H48 C41 1_555 1_555
C42 O7 1_555 1_555
C43 C42 1_555 1_555
C44 N7 1_555 1_555
C45 C44 1_555 1_555
H49 C45 1_555 1_555
H50 C45 1_555 1_555
H51 C45 1_555 1_555
C46 O8 1_555 1_555
C47 N8 1_555 1_555
C48 C47 1_555 1_555
H52 C48 1_555 1_555
C49 C48 1_555 1_555
H53 C49 1_555 1_555
C50 C49 1_555 1_555
H54 C50 1_555 1_555
C51 C50 1_555 1_555
H55 C51 1_555 1_555
C52 C47 1_555 1_555
H56 C52 1_555 1_555
C53 H57 1_555 1_555
C54 C53 1_555 1_555
H58 C54 1_555 1_555
C55 C54 1_555 1_555
H59 C55 1_555 1_555
C56 C55 1_555 1_555
H60 C56 1_555 1_555
C57 C56 1_555 1_555
H61 C57 1_555 1_555
C58 N9 1_555 1_555
C59 O9 1_555 1_555
C60 C59 1_555 1_555
C61 C60 1_555 1_555
C62 C61 1_555 1_555
H62 C62 1_555 1_555
H63 C62 1_555 1_555
H64 C62 1_555 1_555
C63 O10 1_555 1_555
C64 C63 1_555 1_555
H65 C64 1_555 1_555
H66 C64 1_555 1_555
C65 C64 1_555 1_555
H67 C65 1_555 1_555
H68 C65 1_555 1_555
C66 C65 1_555 1_555
H69 C66 1_555 1_555
H70 C66 1_555 1_555
C67 C66 1_555 1_555
H71 C67 1_555 1_555
H72 C67 1_555 1_555
C68 O11 1_555 1_555
C69 C68 1_555 1_555
C70 N11 1_555 1_555
C71 C70 1_555 1_555
H73 C71 1_555 1_555
H74 C71 1_555 1_555
H75 C71 1_555 1_555
C72 O12 1_555 1_555
C73 N12 1_555 1_555
C74 C73 1_555 1_555
H76 C74 1_555 1_555
C75 C74 1_555 1_555
H77 C75 1_555 1_555
C76 C75 1_555 1_555
H78 C76 1_555 1_555
C77 C76 1_555 1_555
H79 C77 1_555 1_555
C78 C73 1_555 1_555
H80 C78 1_555 1_555
C79 H81 1_555 1_555
C80 C79 1_555 1_555
H82 C80 1_555 1_555
C81 C80 1_555 1_555
H83 C81 1_555 1_555
C82 C81 1_555 1_555
H84 C82 1_555 1_555
C83 C82 1_555 1_555
H85 C83 1_555 1_555
C84 N13 1_555 1_555
C85 O13 1_555 1_555
C86 C85 1_555 1_555
C87 C86 1_555 1_555
C88 C87 1_555 1_555
H86 C88 1_555 1_555
H87 C88 1_555 1_555
H88 C88 1_555 1_555
C89 O14 1_555 1_555
C90 C89 1_555 1_555
H89 C90 1_555 1_555
H90 C90 1_555 1_555
C91 C90 1_555 1_555
H91 C91 1_555 1_555
H92 C91 1_555 1_555
C92 C91 1_555 1_555
H93 C92 1_555 1_555
H94 C92 1_555 1_555
C93 C92 1_555 1_555
H95 C93 1_555 1_555
H96 C93 1_555 1_555
C94 O15 1_555 1_555
C95 C94 1_555 1_555
C96 N15 1_555 1_555
C97 C96 1_555 1_555
H97 C97 1_555 1_555
H98 C97 1_555 1_555
H99 C97 1_555 1_555
C98 O16 1_555 1_555
C99 N16 1_555 1_555
C100 C99 1_555 1_555
H100 C100 1_555 1_555
C101 C100 1_555 1_555
H101 C101 1_555 1_555
C102 C101 1_555 1_555
H102 C102 1_555 1_555
C103 C102 1_555 1_555
H103 C103 1_555 1_555
C104 C99 1_555 1_555
H104 C104 1_555 1_555
O17 Th1 1_555 1_555
N17 C105 1_555 1_555
C105 O17 1_555 1_555
H105 C105 1_555 1_555
C106 N17 1_555 1_555
H106 C106 1_555 1_555
H107 C106 1_555 1_555
H108 C106 1_555 1_555
C107 N17 1_555 1_555
H109 C107 1_555 1_555
H110 C107 1_555 1_555
H111 C107 1_555 1_555
O18 Th2 1_555 1_555
N18 C108 1_555 1_555
C108 O18 1_555 1_555
C109 N18 1_555 1_555
H112 C109 1_555 1_555
H113 C109 1_555 1_555
H114 C109 1_555 1_555
C110 N18 1_555 1_555
H115 C110 1_555 1_555
H116 C110 1_555 1_555
H117 C110 1_555 1_555
O19 C114 1_555 1_555
C114 C116 1_555 1_555
C115 O19 1_555 1_555
C117 C115 1_555 1_555
N20 C118 1_555 1_555
O20 C119 1_555 1_555
C119 N20 1_555 1_555
C120 N20 1_555 1_555
O22 C125 1_555 1_555
C125 C126 1_555 1_555
C127 O22 1_555 1_555
C128 C127 1_555 1_555
N5 C33 1_555 1_555
N9 C59 1_555 1_555
N13 C85 1_555 1_555
C1 C6 1_555 1_555
C5 C6 1_555 1_555
C8 C11 1_555 1_555
C17 C18 1_555 1_555
C17 C20 1_555 1_555
C25 C26 1_555 1_555
C27 C32 1_555 1_555
C31 C32 1_555 1_555
C34 C37 1_555 1_555
C41 C42 1_555 1_555
C43 C44 1_555 1_555
C43 C46 1_555 1_555
C51 C52 1_555 1_555
C53 C58 1_555 1_555
C57 C58 1_555 1_555
C60 C63 1_555 1_555
C67 C68 1_555 1_555
C69 C70 1_555 1_555
C69 C72 1_555 1_555
C77 C78 1_555 1_555
C79 C84 1_555 1_555
C83 C84 1_555 1_555
C86 C89 1_555 1_555
C93 C94 1_555 1_555
C95 C96 1_555 1_555
C95 C98 1_555 1_555
C103 C104 1_555 1_555

#END
