
#######################################################################
#
#                 Cambridge Crystallographic Data Centre
#                                CCDC 
#
#######################################################################
#
# If this CIF has been generated from an entry in the Cambridge 
# Structural Database, then it will include bibliographic, chemical, 
# crystal, experimental, refinement or atomic coordinate data resulting 
# from the CCDC's data processing and validation procedures.
#
#######################################################################

data_PEQMEF
_chemical_formula_moiety         'C64 H48 Cl8 Cu4 N14 O12 P6,8(C1 H1 Cl3)'
_chemical_name_systematic        
"bis(\m~4~-4',4',6',6'-tetrakis(Pyridin-3-yloxy)spiro[dibenzo[d,f][1,3,2]dioxaphosphepine-6,2'-[1,3,5,2,4,6]triazatriphosphinine])-tetrakis(\m~2~-chloro)-tetrachloro-tetra-copper chloroform solvate"
_symmetry_cell_setting           triclinic
_symmetry_space_group_name_H-M   'P -1'
_symmetry_Int_Tables_number      2
_space_group_name_Hall           '-P 1'
loop_
_symmetry_equiv_pos_site_id
_symmetry_equiv_pos_as_xyz
1 x,y,z
2 -x,-y,-z
_cell_length_a                   13.015(2)
_cell_length_b                   13.723(2)
_cell_length_c                   15.691(2)
_cell_angle_alpha                79.250(3)
_cell_angle_beta                 77.262(3)
_cell_angle_gamma                81.256(3)
_cell_volume                     2667.5
_exptl_crystal_colour            green
_exptl_crystal_description       prism
_cell_formula_units_Z            1
loop_
_atom_site_label
_atom_site_type_symbol
_atom_site_fract_x
_atom_site_fract_y
_atom_site_fract_z
C1 C 0.8453(5) 0.0144(5) 0.6909(4)
C2 C 0.9105(5) -0.0381(5) 0.7469(4)
H1 H 0.9603 -0.0051 0.7636
C3 C 0.8352(5) -0.1818(5) 0.7523(4)
H2 H 0.8323 -0.2511 0.7731
C4 C 0.7679(5) -0.1329(5) 0.6967(4)
H3 H 0.7187 -0.1674 0.6809
C5 C 0.7744(5) -0.0319(5) 0.6644(4)
H4 H 0.7308 0.0040 0.6250
C6 C 0.8364(5) 0.2302(5) 1.0327(4)
H5 H 0.8365 0.1604 1.0521
C7 C 0.9027(5) 0.3765(5) 1.0279(4)
H6 H 0.9515 0.4113 1.0440
C8 C 0.8345(5) 0.4290(5) 0.9752(4)
H7 H 0.8359 0.4987 0.9560
C9 C 0.7661(5) 0.2788(5) 0.9793(4)
C10 C 1.0638(5) 0.2003(5) 0.8273(4)
H8 H 1.0573 0.1316 0.8487
C11 C 1.1164(5) 0.3499(4) 0.8406(4)
H9 H 1.1474 0.3873 0.8715
C12 C 1.0783(5) 0.3972(5) 0.7666(4)
H10 H 1.0838 0.4664 0.7472
C13 C 0.7652(5) 0.3800(5) 0.9510(4)
H11 H 0.7169 0.4149 0.9153
C14 C 0.6126(5) 0.0452(4) 0.8993(4)
C15 C 0.6926(4) -0.0067(5) 0.9402(4)
H12 H 0.7460 0.0276 0.9499
C16 C 0.6202(5) -0.1548(4) 0.9515(4)
H13 H 0.6232 -0.2252 0.9685
C17 C 0.5381(5) -0.1033(5) 0.9115(4)
H14 H 0.4842 -0.1382 0.9033
C18 C 0.5350(5) -0.0024(5) 0.8838(4)
H15 H 0.4806 0.0335 0.8549
C19 C 0.6584(5) 0.5521(4) 0.7110(4)
C20 C 0.6417(6) 0.5972(5) 0.7848(5)
H16 H 0.6836 0.5748 0.8287
C21 C 0.5615(6) 0.6770(5) 0.7935(5)
H17 H 0.5459 0.7072 0.8454
C22 C 0.5045(6) 0.7122(5) 0.7266(5)
H18 H 0.4504 0.7667 0.7326
C23 C 0.5264(5) 0.6685(5) 0.6526(5)
H19 H 0.4886 0.6949 0.6065
C24 C 0.6033(5) 0.5854(4) 0.6423(4)
C25 C 0.6259(5) 0.5367(5) 0.5620(4)
C26 C 0.6348(5) 0.5914(5) 0.4764(4)
H20 H 0.6234 0.6622 0.4694
C27 C 0.6595(5) 0.5460(5) 0.4025(4)
H21 H 0.6649 0.5851 0.3453
C28 C 0.6764(5) 0.4428(5) 0.4119(4)
H22 H 0.6949 0.4112 0.3607
C29 C 0.6667(5) 0.3846(5) 0.4961(4)
H23 H 0.6767 0.3137 0.5033
C30 C 0.6418(5) 0.4343(5) 0.5684(4)
C31 C 1.0253(4) 0.2452(4) 0.7532(4)
C32 C 1.0324(5) 0.3456(5) 0.7202(4)
H24 H 1.0069 0.3772 0.6684
Cl1 Cl 1.07471(13) -0.31541(12) 0.76318(10)
Cl2 Cl 0.95536(11) -0.08088(11) 0.94288(10)
Cl3 Cl 0.83780(12) -0.30602(11) 0.95977(10)
Cl4 Cl 0.72813(12) -0.06882(12) 1.13951(10)
Cu1 Cu 0.99824(6) -0.20976(6) 0.86166(5)
Cu2 Cu 0.80203(6) -0.17557(5) 1.04067(5)
N1 N 0.8181(4) 0.3012(4) 0.6690(3)
N2 N 0.8055(4) 0.1629(4) 0.8169(3)
N3 N 0.6573(4) 0.3222(4) 0.8080(3)
N4 N 0.9036(4) -0.1362(4) 0.7780(3)
N5 N 0.9030(4) 0.2778(4) 1.0575(3)
N6 N 1.1109(4) 0.2517(4) 0.8706(3)
N7 N 0.6949(4) -0.1067(4) 0.9663(3)
O1 O 0.7419(3) 0.4725(3) 0.7028(3)
O2 O 0.6249(3) 0.3763(3) 0.6533(3)
O3 O 0.8515(3) 0.1145(3) 0.6579(3)
O4 O 0.9843(3) 0.1856(3) 0.7086(3)
O5 O 0.6956(3) 0.2238(3) 0.9593(3)
O6 O 0.6048(3) 0.1492(3) 0.8739(3)
P1 P 0.71372(12) 0.36226(12) 0.71062(11)
P2 P 0.85947(12) 0.19546(12) 0.71656(10)
P3 P 0.69617(12) 0.21727(12) 0.85873(10)
C1A C 1.1547(5) -0.0144(5) 1.3091(4)
C2A C 1.0895(5) 0.0381(5) 1.2531(4)
H1A H 1.0397 0.0051 1.2364
C3A C 1.1648(5) 0.1818(5) 1.2477(4)
H2A H 1.1677 0.2511 1.2269
C4A C 1.2321(5) 0.1329(5) 1.3033(4)
H3A H 1.2813 0.1674 1.3191
C5A C 1.2256(5) 0.0319(5) 1.3356(4)
H4A H 1.2692 -0.0040 1.3750
C6A C 1.1636(5) -0.2302(5) 0.9673(4)
H5A H 1.1635 -0.1604 0.9479
C7A C 1.0973(5) -0.3765(5) 0.9721(4)
H6A H 1.0485 -0.4113 0.9560
C8A C 1.1655(5) -0.4290(5) 1.0248(4)
H7A H 1.1641 -0.4987 1.0440
C9A C 1.2339(5) -0.2788(5) 1.0207(4)
C10A C 0.9362(5) -0.2003(5) 1.1727(4)
H8A H 0.9427 -0.1316 1.1513
C11A C 0.8836(5) -0.3499(4) 1.1594(4)
H9A H 0.8526 -0.3873 1.1285
C12A C 0.9217(5) -0.3972(5) 1.2334(4)
H10A H 0.9162 -0.4664 1.2528
C13A C 1.2348(5) -0.3800(5) 1.0490(4)
H11A H 1.2831 -0.4149 1.0847
C14A C 1.3874(5) -0.0452(4) 1.1007(4)
C15A C 1.3074(4) 0.0067(5) 1.0598(4)
H12A H 1.2540 -0.0276 1.0501
C16A C 1.3798(5) 0.1548(4) 1.0485(4)
H13A H 1.3768 0.2252 1.0315
C17A C 1.4619(5) 0.1033(5) 1.0885(4)
H14A H 1.5158 0.1382 1.0967
C18A C 1.4650(5) 0.0024(5) 1.1162(4)
H15A H 1.5194 -0.0335 1.1451
C19A C 1.3416(5) -0.5521(4) 1.2890(4)
C20A C 1.3583(6) -0.5972(5) 1.2152(5)
H16A H 1.3164 -0.5748 1.1713
C21A C 1.4385(6) -0.6770(5) 1.2065(5)
H17A H 1.4541 -0.7072 1.1546
C22A C 1.4955(6) -0.7122(5) 1.2734(5)
H18A H 1.5496 -0.7667 1.2674
C23A C 1.4736(5) -0.6685(5) 1.3474(5)
H19A H 1.5114 -0.6949 1.3935
C24A C 1.3967(5) -0.5854(4) 1.3577(4)
C25A C 1.3741(5) -0.5367(5) 1.4380(4)
C26A C 1.3652(5) -0.5914(5) 1.5236(4)
H20A H 1.3766 -0.6622 1.5306
C27A C 1.3405(5) -0.5460(5) 1.5975(4)
H21A H 1.3351 -0.5851 1.6547
C28A C 1.3236(5) -0.4428(5) 1.5881(4)
H22A H 1.3051 -0.4112 1.6393
C29A C 1.3333(5) -0.3846(5) 1.5039(4)
H23A H 1.3233 -0.3137 1.4967
C30A C 1.3582(5) -0.4343(5) 1.4316(4)
C31A C 0.9747(4) -0.2452(4) 1.2468(4)
C32A C 0.9676(5) -0.3456(5) 1.2798(4)
H24A H 0.9931 -0.3772 1.3316
Cl1A Cl 0.92529(13) 0.31541(12) 1.23682(10)
Cl2A Cl 1.04464(11) 0.08088(11) 1.05712(10)
Cl3A Cl 1.16220(12) 0.30602(11) 1.04023(10)
Cl4A Cl 1.27187(12) 0.06882(12) 0.86049(10)
Cu1A Cu 1.00176(6) 0.20976(6) 1.13834(5)
Cu2A Cu 1.19797(6) 0.17557(5) 0.95933(5)
N1A N 1.1819(4) -0.3012(4) 1.3310(3)
N2A N 1.1945(4) -0.1629(4) 1.1831(3)
N3A N 1.3427(4) -0.3222(4) 1.1920(3)
N4A N 1.0964(4) 0.1362(4) 1.2220(3)
N5A N 1.0970(4) -0.2778(4) 0.9425(3)
N6A N 0.8891(4) -0.2517(4) 1.1294(3)
N7A N 1.3051(4) 0.1067(4) 1.0337(3)
O1A O 1.2581(3) -0.4725(3) 1.2972(3)
O2A O 1.3751(3) -0.3763(3) 1.3467(3)
O3A O 1.1485(3) -0.1145(3) 1.3421(3)
O4A O 1.0157(3) -0.1856(3) 1.2914(3)
O5A O 1.3044(3) -0.2238(3) 1.0407(3)
O6A O 1.3952(3) -0.1492(3) 1.1261(3)
P1A P 1.28628(12) -0.36226(12) 1.28938(11)
P2A P 1.14053(12) -0.19546(12) 1.28344(10)
P3A P 1.30383(12) -0.21727(12) 1.14127(10)
C33 C 0.5714(6) 0.9058(5) 0.3508(4)
H25 H 0.6321 0.9031 0.2992
Cl5 Cl 0.6223(2) 0.87780(16) 0.44840(15)
Cl6 Cl 0.50256(15) 1.02594(14) 0.34063(15)
Cl7 Cl 0.48842(15) 0.81580(14) 0.34947(13)
C34 C 0.5843(5) 0.5716(5) 0.1549(4)
H26 H 0.5186 0.5560 0.1993
Cl8 Cl 0.61346(13) 0.68793(12) 0.16611(11)
Cl9 Cl 0.55917(13) 0.57264(13) 0.04778(11)
Cl10 Cl 0.68726(13) 0.47636(12) 0.17670(11)
C35 C 0.0283(5) 0.3252(5) 0.4208(5)
H27 H 0.0437 0.3297 0.3550
Cl11 Cl 0.14859(15) 0.32866(16) 0.45580(15)
Cl12 Cl -0.06341(15) 0.42633(14) 0.44934(12)
Cl13 Cl -0.02174(14) 0.21131(13) 0.46829(12)
C36 C 0.8163(5) 0.0984(5) 0.3686(4)
H28 H 0.8604 0.1553 0.3516
Cl14 Cl 0.69289(14) 0.13823(13) 0.43251(12)
Cl15 Cl 0.79934(14) 0.06135(14) 0.27151(11)
Cl16 Cl 0.88283(13) -0.00121(13) 0.43191(11)
loop_
_geom_bond_atom_site_label_1
_geom_bond_atom_site_label_2
_geom_bond_site_symmetry_1
_geom_bond_site_symmetry_2
C1 C2 1_555 1_555
C2 H1 1_555 1_555
C3 H2 1_555 1_555
C4 C3 1_555 1_555
H3 C4 1_555 1_555
C5 C1 1_555 1_555
H4 C5 1_555 1_555
C6 H5 1_555 1_555
C7 H6 1_555 1_555
C8 C7 1_555 1_555
H7 C8 1_555 1_555
C9 C6 1_555 1_555
C10 H8 1_555 1_555
C11 H9 1_555 1_555
C12 C11 1_555 1_555
H10 C12 1_555 1_555
C13 C8 1_555 1_555
H11 C13 1_555 1_555
C14 C15 1_555 1_555
C15 H12 1_555 1_555
C16 H13 1_555 1_555
C17 C16 1_555 1_555
H14 C17 1_555 1_555
C18 C14 1_555 1_555
H15 C18 1_555 1_555
C19 C20 1_555 1_555
C20 H16 1_555 1_555
C21 C20 1_555 1_555
H17 C21 1_555 1_555
C22 C21 1_555 1_555
H18 C22 1_555 1_555
C23 C22 1_555 1_555
H19 C23 1_555 1_555
C24 C19 1_555 1_555
C25 C24 1_555 1_555
C26 C25 1_555 1_555
H20 C26 1_555 1_555
C27 C26 1_555 1_555
H21 C27 1_555 1_555
C28 C27 1_555 1_555
H22 C28 1_555 1_555
C29 C28 1_555 1_555
H23 C29 1_555 1_555
C30 C25 1_555 1_555
C31 C10 1_555 1_555
C32 C12 1_555 1_555
H24 C32 1_555 1_555
Cl1 Cu1 1_555 1_555
Cl2 Cu1 1_555 1_555
Cl3 Cu1 1_555 1_555
Cl4 Cu2 1_555 1_555
Cu1 N4 1_555 1_555
Cu2 Cl2 1_555 1_555
N1 P1 1_555 1_555
N2 P2 1_555 1_555
N3 P1 1_555 1_555
N4 C2 1_555 1_555
N5 C6 1_555 1_555
N6 C10 1_555 1_555
N7 C15 1_555 1_555
O1 C19 1_555 1_555
O2 C30 1_555 1_555
O3 C1 1_555 1_555
O4 C31 1_555 1_555
O5 C9 1_555 1_555
O6 C14 1_555 1_555
P1 O1 1_555 1_555
P2 N1 1_555 1_555
P3 N2 1_555 1_555
C33 H25 1_555 1_555
Cl5 C33 1_555 1_555
Cl6 C33 1_555 1_555
Cl7 C33 1_555 1_555
C34 H26 1_555 1_555
Cl8 C34 1_555 1_555
Cl9 C34 1_555 1_555
Cl10 C34 1_555 1_555
C35 H27 1_555 1_555
Cl11 C35 1_555 1_555
Cl12 C35 1_555 1_555
Cl13 C35 1_555 1_555
C36 H28 1_555 1_555
Cl14 C36 1_555 1_555
Cl15 C36 1_555 1_555
Cl16 C36 1_555 1_555
C1A C2A 1_555 1_555
C2A H1A 1_555 1_555
C3A H2A 1_555 1_555
C4A C3A 1_555 1_555
H3A C4A 1_555 1_555
C5A C1A 1_555 1_555
H4A C5A 1_555 1_555
C6A H5A 1_555 1_555
C7A H6A 1_555 1_555
C8A C7A 1_555 1_555
H7A C8A 1_555 1_555
C9A C6A 1_555 1_555
C10A H8A 1_555 1_555
C11A H9A 1_555 1_555
C12A C11A 1_555 1_555
H10A C12A 1_555 1_555
C13A C8A 1_555 1_555
H11A C13A 1_555 1_555
C14A C15A 1_555 1_555
C15A H12A 1_555 1_555
C16A H13A 1_555 1_555
C17A C16A 1_555 1_555
H14A C17A 1_555 1_555
C18A C14A 1_555 1_555
H15A C18A 1_555 1_555
C19A C20A 1_555 1_555
C20A H16A 1_555 1_555
C21A C20A 1_555 1_555
H17A C21A 1_555 1_555
C22A C21A 1_555 1_555
H18A C22A 1_555 1_555
C23A C22A 1_555 1_555
H19A C23A 1_555 1_555
C24A C19A 1_555 1_555
C25A C24A 1_555 1_555
C26A C25A 1_555 1_555
H20A C26A 1_555 1_555
C27A C26A 1_555 1_555
H21A C27A 1_555 1_555
C28A C27A 1_555 1_555
H22A C28A 1_555 1_555
C29A C28A 1_555 1_555
H23A C29A 1_555 1_555
C30A C25A 1_555 1_555
C31A C10A 1_555 1_555
C32A C12A 1_555 1_555
H24A C32A 1_555 1_555
Cl1A Cu1A 1_555 1_555
Cl2A Cu1A 1_555 1_555
Cl3A Cu1A 1_555 1_555
Cl4A Cu2A 1_555 1_555
Cu1A N5 1_555 1_555
Cu2A N6 1_555 1_555
N1A P1A 1_555 1_555
N2A P2A 1_555 1_555
N3A P1A 1_555 1_555
N4A C2A 1_555 1_555
N5A Cu1 1_555 1_555
N6A Cu2 1_555 1_555
N7A C15A 1_555 1_555
O1A C19A 1_555 1_555
O2A C30A 1_555 1_555
O3A C1A 1_555 1_555
O4A C31A 1_555 1_555
O5A C9A 1_555 1_555
O6A C14A 1_555 1_555
P1A O1A 1_555 1_555
P2A N1A 1_555 1_555
P3A N2A 1_555 1_555
C3 N4 1_555 1_555
C4 C5 1_555 1_555
C7 N5 1_555 1_555
C9 C13 1_555 1_555
C11 N6 1_555 1_555
C16 N7 1_555 1_555
C17 C18 1_555 1_555
C23 C24 1_555 1_555
C29 C30 1_555 1_555
C31 C32 1_555 1_555
Cl3 Cu2 1_555 1_555
Cu2 N7 1_555 1_555
N3 P3 1_555 1_555
O2 P1 1_555 1_555
O3 P2 1_555 1_555
O4 P2 1_555 1_555
O5 P3 1_555 1_555
O6 P3 1_555 1_555
C3A N4A 1_555 1_555
C4A C5A 1_555 1_555
C6A N5A 1_555 1_555
C7A N5A 1_555 1_555
C9A C13A 1_555 1_555
C10A N6A 1_555 1_555
C11A N6A 1_555 1_555
C16A N7A 1_555 1_555
C17A C18A 1_555 1_555
C23A C24A 1_555 1_555
C29A C30A 1_555 1_555
C31A C32A 1_555 1_555
Cl2A Cu2A 1_555 1_555
Cl3A Cu2A 1_555 1_555
Cu1A N4A 1_555 1_555
Cu2A N7A 1_555 1_555
N3A P3A 1_555 1_555
O2A P1A 1_555 1_555
O3A P2A 1_555 1_555
O4A P2A 1_555 1_555
O5A P3A 1_555 1_555
O6A P3A 1_555 1_555

#END
