
#######################################################################
#
#                 Cambridge Crystallographic Data Centre
#                                CCDC 
#
#######################################################################
#
# If this CIF has been generated from an entry in the Cambridge 
# Structural Database, then it will include bibliographic, chemical, 
# crystal, experimental, refinement or atomic coordinate data resulting 
# from the CCDC's data processing and validation procedures.
#
#######################################################################

data_PEQROU
_chemical_formula_moiety         'C136 H124 Fe4 N36 O4 8+,8(C1 F3 O3 S1 1-)'
_chemical_name_systematic        
'tetrakis(\m~3~-tris(4-(((1-Methyl-1,3-dihydro-2H-imidazol-2-ylidene)methyl)amino)phenyl)methanol)-tetra-iron(ii) octakis(trifluoromethanesulfonate)'
_symmetry_cell_setting           cubic
_symmetry_space_group_name_H-M   'F -4 3 c'
_symmetry_Int_Tables_number      219
_space_group_name_Hall           'F -4a 2 3'
loop_
_symmetry_equiv_pos_site_id
_symmetry_equiv_pos_as_xyz
1 x,y,z
2 -x,-y,z
3 -x,y,-z
4 x,-y,-z
5 z,x,y
6 z,-x,-y
7 -z,-x,y
8 -z,x,-y
9 y,z,x
10 -y,z,-x
11 y,-z,-x
12 -y,-z,x
13 1/2+y,1/2+x,1/2+z
14 1/2-y,1/2-x,1/2+z
15 1/2+y,1/2-x,1/2-z
16 1/2-y,1/2+x,1/2-z
17 1/2+x,1/2+z,1/2+y
18 1/2-x,1/2+z,1/2-y
19 1/2-x,1/2-z,1/2+y
20 1/2+x,1/2-z,1/2-y
21 1/2+z,1/2+y,1/2+x
22 1/2+z,1/2-y,1/2-x
23 1/2-z,1/2+y,1/2-x
24 1/2-z,1/2-y,1/2+x
25 x,1/2+y,1/2+z
26 -x,1/2-y,1/2+z
27 -x,1/2+y,1/2-z
28 x,1/2-y,1/2-z
29 z,1/2+x,1/2+y
30 z,1/2-x,1/2-y
31 -z,1/2-x,1/2+y
32 -z,1/2+x,1/2-y
33 y,1/2+z,1/2+x
34 -y,1/2+z,1/2-x
35 y,1/2-z,1/2-x
36 -y,1/2-z,1/2+x
37 1/2+y,x,z
38 1/2-y,-x,z
39 1/2+y,-x,-z
40 1/2-y,x,-z
41 1/2+x,z,y
42 1/2-x,z,-y
43 1/2-x,-z,y
44 1/2+x,-z,-y
45 1/2+z,y,x
46 1/2+z,-y,-x
47 1/2-z,y,-x
48 1/2-z,-y,x
49 1/2+x,y,1/2+z
50 1/2-x,-y,1/2+z
51 1/2-x,y,1/2-z
52 1/2+x,-y,1/2-z
53 1/2+z,x,1/2+y
54 1/2+z,-x,1/2-y
55 1/2-z,-x,1/2+y
56 1/2-z,x,1/2-y
57 1/2+y,z,1/2+x
58 1/2-y,z,1/2-x
59 1/2+y,-z,1/2-x
60 1/2-y,-z,1/2+x
61 y,1/2+x,z
62 -y,1/2-x,z
63 y,1/2-x,-z
64 -y,1/2+x,-z
65 x,1/2+z,y
66 -x,1/2+z,-y
67 -x,1/2-z,y
68 x,1/2-z,-y
69 z,1/2+y,x
70 z,1/2-y,-x
71 -z,1/2+y,-x
72 -z,1/2-y,x
73 1/2+x,1/2+y,z
74 1/2-x,1/2-y,z
75 1/2-x,1/2+y,-z
76 1/2+x,1/2-y,-z
77 1/2+z,1/2+x,y
78 1/2+z,1/2-x,-y
79 1/2-z,1/2-x,y
80 1/2-z,1/2+x,-y
81 1/2+y,1/2+z,x
82 1/2-y,1/2+z,-x
83 1/2+y,1/2-z,-x
84 1/2-y,1/2-z,x
85 y,x,1/2+z
86 -y,-x,1/2+z
87 y,-x,1/2-z
88 -y,x,1/2-z
89 x,z,1/2+y
90 -x,z,1/2-y
91 -x,-z,1/2+y
92 x,-z,1/2-y
93 z,y,1/2+x
94 z,-y,1/2-x
95 -z,y,1/2-x
96 -z,-y,1/2+x
_cell_length_a                   32.303(7)
_cell_length_b                   32.303(7)
_cell_length_c                   32.303(7)
_cell_angle_alpha                90
_cell_angle_beta                 90
_cell_angle_gamma                90
_cell_volume                     33707.7
_exptl_crystal_colour            'dark purple'
_exptl_crystal_description       block
_cell_formula_units_Z            8
loop_
_atom_site_label
_atom_site_type_symbol
_atom_site_fract_x
_atom_site_fract_y
_atom_site_fract_z
C1 C 0.62955(17) 0.8419(3) 0.9578(2)
N1 N 0.5993(2) 0.8612(2) 0.93247(17)
C2 C 0.56157(18) 0.8626(3) 0.9551(2)
H1 H 0.5361 0.8739 0.9456
C3 C 0.5686(2) 0.8442(3) 0.9943(2)
H2 H 0.5487 0.8410 1.0157
N2 N 0.6106(3) 0.8313(3) 0.99602(19)
C4 C 0.6261(8) 0.8067(9) 1.0313(6)
H3 H 0.6029 0.7991 1.0493
H4 H 0.6462 0.8231 1.0470
H5 H 0.6395 0.7815 1.0209
C5 C 0.6680(3) 0.8355(4) 0.9411(4)
H6 H 0.6894 0.8210 0.9552
C6 C 0.71266(16) 0.8466(2) 0.8862(2)
C7 C 0.73777(19) 0.88146(17) 0.8834(2)
H7 H 0.7278 0.9075 0.8927
C8 C 0.77747(17) 0.87815(15) 0.8672(2)
H8 H 0.7946 0.9020 0.8653
C9 C 0.79207(16) 0.84001(18) 0.8536(2)
C10 C 0.7670(2) 0.80517(15) 0.8564(2)
H9 H 0.7769 0.7791 0.8471
C11 C 0.7273(2) 0.80847(17) 0.8726(3)
H10 H 0.7101 0.7847 0.8745
C12 C 0.8365(3) 0.8365(3) 0.8365(3)
N3 N 0.6727(2) 0.8512(3) 0.9041(2)
O1 O 0.86284(18) 0.86284(18) 0.86284(18)
Fe1 Fe 0.62035(4) 0.87965(4) 0.87965(4)
C1D C 0.9578(2) 0.62955(17) 0.8419(3)
N1D N 0.93247(17) 0.5993(2) 0.8612(2)
C2D C 0.9551(2) 0.56157(18) 0.8626(3)
H1D H 0.9456 0.5361 0.8739
C3D C 0.9943(2) 0.5686(2) 0.8442(3)
H2D H 1.0157 0.5487 0.8410
N2D N 0.99602(19) 0.6106(3) 0.8313(3)
C4D C 1.0313(6) 0.6261(8) 0.8067(9)
H3D H 1.0493 0.6029 0.7991
H4D H 1.0470 0.6462 0.8231
H5D H 1.0209 0.6395 0.7815
C5D C 0.9411(4) 0.6680(3) 0.8355(4)
H6D H 0.9552 0.6894 0.8210
C6D C 0.8862(2) 0.71266(16) 0.8466(2)
C7D C 0.8834(2) 0.73777(19) 0.88146(17)
H7D H 0.8927 0.7278 0.9075
C8D C 0.8672(2) 0.77747(17) 0.87815(15)
H8D H 0.8653 0.7946 0.9020
C9D C 0.8536(2) 0.79207(16) 0.84001(18)
C10D C 0.8564(2) 0.7670(2) 0.80517(15)
H9D H 0.8471 0.7769 0.7791
C11D C 0.8726(3) 0.7273(2) 0.80847(17)
H10D H 0.8745 0.7101 0.7847
N3D N 0.9041(2) 0.6727(2) 0.8512(3)
C1H C 0.8419(3) 0.9578(2) 0.62955(17)
N1H N 0.8612(2) 0.93247(17) 0.5993(2)
C2H C 0.8626(3) 0.9551(2) 0.56157(18)
H1H H 0.8739 0.9456 0.5361
C3H C 0.8442(3) 0.9943(2) 0.5686(2)
H2H H 0.8410 1.0157 0.5487
N2H N 0.8313(3) 0.99602(19) 0.6106(3)
C4H C 0.8067(9) 1.0313(6) 0.6261(8)
H3H H 0.7991 1.0493 0.6029
H4H H 0.8231 1.0470 0.6462
H5H H 0.7815 1.0209 0.6395
C5H C 0.8355(4) 0.9411(4) 0.6680(3)
H6H H 0.8210 0.9552 0.6894
C6H C 0.8466(2) 0.8862(2) 0.71266(16)
C7H C 0.88146(17) 0.8834(2) 0.73777(19)
H7H H 0.9075 0.8927 0.7278
C8H C 0.87815(15) 0.8672(2) 0.77747(17)
H8H H 0.9020 0.8653 0.7946
C9H C 0.84001(18) 0.8536(2) 0.79207(16)
C10H C 0.80517(15) 0.8564(2) 0.7670(2)
H9H H 0.7791 0.8471 0.7769
C11H C 0.80847(17) 0.8726(3) 0.7273(2)
H10H H 0.7847 0.8745 0.7101
N3H N 0.8512(3) 0.9041(2) 0.6727(2)
Fe1D Fe 0.87965(4) 0.62035(4) 0.87965(4)
Fe1H Fe 0.87965(4) 0.87965(4) 0.62035(4)
C1AA C 0.62955(17) 0.6581(3) 0.5422(2)
N1AA N 0.5993(2) 0.6388(2) 0.56753(17)
C2AA C 0.56157(18) 0.6374(3) 0.5449(2)
H1AA H 0.5361 0.6261 0.5544
C3AA C 0.5686(2) 0.6558(3) 0.5057(2)
H2AA H 0.5487 0.6590 0.4843
N2AA N 0.6106(3) 0.6687(3) 0.50398(19)
C4AA C 0.6261(8) 0.6933(9) 0.4687(6)
H3AA H 0.6029 0.7009 0.4507
H4AA H 0.6462 0.6769 0.4530
H5AA H 0.6395 0.7185 0.4791
C5AA C 0.6680(3) 0.6645(4) 0.5589(4)
H6AA H 0.6894 0.6790 0.5448
C6AA C 0.71266(16) 0.6534(2) 0.6138(2)
C7AA C 0.73777(19) 0.61854(17) 0.6166(2)
H7AA H 0.7278 0.5925 0.6073
C8AA C 0.77747(17) 0.62185(15) 0.6328(2)
H8AA H 0.7946 0.5980 0.6347
C9AA C 0.79207(16) 0.65999(18) 0.6464(2)
C10AA C 0.7670(2) 0.69483(15) 0.6436(2)
H9AA H 0.7769 0.7209 0.6529
C11AA C 0.7273(2) 0.69153(17) 0.6274(3)
H10AA H 0.7101 0.7153 0.6255
C12AA C 0.8365(3) 0.6635(3) 0.6635(3)
N3AA N 0.6727(2) 0.6488(3) 0.5959(2)
O1AA O 0.86284(18) 0.63716(18) 0.63716(18)
Fe1AA Fe 0.62035(4) 0.62035(4) 0.62035(4)
C1CA C 0.9578(2) 0.87045(17) 0.6581(3)
N1CA N 0.93247(17) 0.9007(2) 0.6388(2)
C2CA C 0.9551(2) 0.93843(18) 0.6374(3)
H1CA H 0.9456 0.9639 0.6261
C3CA C 0.9943(2) 0.9314(2) 0.6558(3)
H2CA H 1.0157 0.9513 0.6590
N2CA N 0.99602(19) 0.8894(3) 0.6687(3)
C4CA C 1.0313(6) 0.8739(8) 0.6933(9)
H3CA H 1.0493 0.8971 0.7009
H4CA H 1.0470 0.8538 0.6769
H5CA H 1.0209 0.8605 0.7185
C5CA C 0.9411(4) 0.8320(3) 0.6645(4)
H6CA H 0.9552 0.8106 0.6790
C6CA C 0.8862(2) 0.78734(16) 0.6534(2)
C7CA C 0.8834(2) 0.76223(19) 0.61854(17)
H7CA H 0.8927 0.7722 0.5925
C8CA C 0.8672(2) 0.72253(17) 0.62185(15)
H8CA H 0.8653 0.7054 0.5980
C9CA C 0.8536(2) 0.70793(16) 0.65999(18)
C10CA C 0.8564(2) 0.7330(2) 0.69483(15)
H9CA H 0.8471 0.7231 0.7209
C11CA C 0.8726(3) 0.7727(2) 0.69153(17)
H10CA H 0.8745 0.7899 0.7153
N3CA N 0.9041(2) 0.8273(2) 0.6488(3)
C1HA C 0.8419(3) 0.5422(2) 0.87045(17)
N1HA N 0.8612(2) 0.56753(17) 0.9007(2)
C2HA C 0.8626(3) 0.5449(2) 0.93843(18)
H1HA H 0.8739 0.5544 0.9639
C3HA C 0.8442(3) 0.5057(2) 0.9314(2)
H2HA H 0.8410 0.4843 0.9513
N2HA N 0.8313(3) 0.50398(19) 0.8894(3)
C4HA C 0.8067(9) 0.4687(6) 0.8739(8)
H3HA H 0.7991 0.4507 0.8971
H4HA H 0.8231 0.4530 0.8538
H5HA H 0.7815 0.4791 0.8605
C5HA C 0.8355(4) 0.5589(4) 0.8320(3)
H6HA H 0.8210 0.5448 0.8106
C6HA C 0.8466(2) 0.6138(2) 0.78734(16)
C7HA C 0.88146(17) 0.6166(2) 0.76223(19)
H7HA H 0.9075 0.6073 0.7722
C8HA C 0.87815(15) 0.6328(2) 0.72253(17)
H8HA H 0.9020 0.6347 0.7054
C9HA C 0.84001(18) 0.6464(2) 0.70793(16)
C10HA C 0.80517(15) 0.6436(2) 0.7330(2)
H9HA H 0.7791 0.6529 0.7231
C11HA C 0.80847(17) 0.6274(3) 0.7727(2)
H10HA H 0.7847 0.6255 0.7899
N3HA N 0.8512(3) 0.5959(2) 0.8273(2)
C1XA C 0.87045(17) 0.8419(3) 0.5422(2)
N1XA N 0.9007(2) 0.8612(2) 0.56753(17)
C2XA C 0.93843(18) 0.8626(3) 0.5449(2)
H1XA H 0.9639 0.8739 0.5544
C3XA C 0.9314(2) 0.8442(3) 0.5057(2)
H2XA H 0.9513 0.8410 0.4843
N2XA N 0.8894(3) 0.8313(3) 0.50398(19)
C4XA C 0.8739(8) 0.8067(9) 0.4687(6)
H3XA H 0.8971 0.7991 0.4507
H4XA H 0.8538 0.8231 0.4530
H5XA H 0.8605 0.7815 0.4791
C5XA C 0.8320(3) 0.8355(4) 0.5589(4)
H6XA H 0.8106 0.8210 0.5448
C6XA C 0.78734(16) 0.8466(2) 0.6138(2)
C7XA C 0.76223(19) 0.88146(17) 0.6166(2)
H7XA H 0.7722 0.9075 0.6073
C8XA C 0.72253(17) 0.87815(15) 0.6328(2)
H8XA H 0.7054 0.9020 0.6347
C9XA C 0.70793(16) 0.84001(18) 0.6464(2)
C10XA C 0.7330(2) 0.80517(15) 0.6436(2)
H9XA H 0.7231 0.7791 0.6529
C11XA C 0.7727(2) 0.80847(17) 0.6274(3)
H10XA H 0.7899 0.7847 0.6255
C12XA C 0.6635(3) 0.8365(3) 0.6635(3)
N3XA N 0.8273(2) 0.8512(3) 0.5959(2)
O1XA O 0.63716(18) 0.86284(18) 0.63716(18)
C1CB C 0.5422(2) 0.62955(17) 0.6581(3)
N1CB N 0.56753(17) 0.5993(2) 0.6388(2)
C2CB C 0.5449(2) 0.56157(18) 0.6374(3)
H1CB H 0.5544 0.5361 0.6261
C3CB C 0.5057(2) 0.5686(2) 0.6558(3)
H2CB H 0.4843 0.5487 0.6590
N2CB N 0.50398(19) 0.6106(3) 0.6687(3)
C4CB C 0.4687(6) 0.6261(8) 0.6933(9)
H3CB H 0.4507 0.6029 0.7009
H4CB H 0.4530 0.6462 0.6769
H5CB H 0.4791 0.6395 0.7185
C5CB C 0.5589(4) 0.6680(3) 0.6645(4)
H6CB H 0.5448 0.6894 0.6790
C6CB C 0.6138(2) 0.71266(16) 0.6534(2)
C7CB C 0.6166(2) 0.73777(19) 0.61854(17)
H7CB H 0.6073 0.7278 0.5925
C8CB C 0.6328(2) 0.77747(17) 0.62185(15)
H8CB H 0.6347 0.7946 0.5980
C9CB C 0.6464(2) 0.79207(16) 0.65999(18)
C10CB C 0.6436(2) 0.7670(2) 0.69483(15)
H9CB H 0.6529 0.7769 0.7209
C11CB C 0.6274(3) 0.7273(2) 0.69153(17)
H10CB H 0.6255 0.7101 0.7153
N3CB N 0.5959(2) 0.6727(2) 0.6488(3)
C1EB C 0.6581(3) 0.9578(2) 0.87045(17)
N1EB N 0.6388(2) 0.93247(17) 0.9007(2)
C2EB C 0.6374(3) 0.9551(2) 0.93843(18)
H1EB H 0.6261 0.9456 0.9639
C3EB C 0.6558(3) 0.9943(2) 0.9314(2)
H2EB H 0.6590 1.0157 0.9513
N2EB N 0.6687(3) 0.99602(19) 0.8894(3)
C4EB C 0.6933(9) 1.0313(6) 0.8739(8)
H3EB H 0.7009 1.0493 0.8971
H4EB H 0.6769 1.0470 0.8538
H5EB H 0.7185 1.0209 0.8605
C5EB C 0.6645(4) 0.9411(4) 0.8320(3)
H6EB H 0.6790 0.9552 0.8106
C6EB C 0.6534(2) 0.8862(2) 0.78734(16)
C7EB C 0.61854(17) 0.8834(2) 0.76223(19)
H7EB H 0.5925 0.8927 0.7722
C8EB C 0.62185(15) 0.8672(2) 0.72253(17)
H8EB H 0.5980 0.8653 0.7054
C9EB C 0.65999(18) 0.8536(2) 0.70793(16)
C10EB C 0.69483(15) 0.8564(2) 0.7330(2)
H9EB H 0.7209 0.8471 0.7231
C11EB C 0.69153(17) 0.8726(3) 0.7727(2)
H10EB H 0.7153 0.8745 0.7899
N3EB N 0.6488(3) 0.9041(2) 0.8273(2)
C1UB C 0.87045(17) 0.6581(3) 0.9578(2)
N1UB N 0.9007(2) 0.6388(2) 0.93247(17)
C2UB C 0.93843(18) 0.6374(3) 0.9551(2)
H1UB H 0.9639 0.6261 0.9456
C3UB C 0.9314(2) 0.6558(3) 0.9943(2)
H2UB H 0.9513 0.6590 1.0157
N2UB N 0.8894(3) 0.6687(3) 0.99602(19)
C4UB C 0.8739(8) 0.6933(9) 1.0313(6)
H3UB H 0.8971 0.7009 1.0493
H4UB H 0.8538 0.6769 1.0470
H5UB H 0.8605 0.7185 1.0209
C5UB C 0.8320(3) 0.6645(4) 0.9411(4)
H6UB H 0.8106 0.6790 0.9552
C6UB C 0.78734(16) 0.6534(2) 0.8862(2)
C7UB C 0.76223(19) 0.61854(17) 0.8834(2)
H7UB H 0.7722 0.5925 0.8927
C8UB C 0.72253(17) 0.62185(15) 0.8672(2)
H8UB H 0.7054 0.5980 0.8653
C9UB C 0.70793(16) 0.65999(18) 0.8536(2)
C10UB C 0.7330(2) 0.69483(15) 0.8564(2)
H9UB H 0.7231 0.7209 0.8471
C11UB C 0.7727(2) 0.69153(17) 0.8726(3)
H10UB H 0.7899 0.7153 0.8745
C12UB C 0.6635(3) 0.6635(3) 0.8365(3)
N3UB N 0.8273(2) 0.6488(3) 0.9041(2)
O1UB O 0.63716(18) 0.63716(18) 0.86284(18)
C1ZB C 0.5422(2) 0.87045(17) 0.8419(3)
N1ZB N 0.56753(17) 0.9007(2) 0.8612(2)
C2ZB C 0.5449(2) 0.93843(18) 0.8626(3)
H1ZB H 0.5544 0.9639 0.8739
C3ZB C 0.5057(2) 0.9314(2) 0.8442(3)
H2ZB H 0.4843 0.9513 0.8410
N2ZB N 0.50398(19) 0.8894(3) 0.8313(3)
C4ZB C 0.4687(6) 0.8739(8) 0.8067(9)
H3ZB H 0.4507 0.8971 0.7991
H4ZB H 0.4530 0.8538 0.8231
H5ZB H 0.4791 0.8605 0.7815
C5ZB C 0.5589(4) 0.8320(3) 0.8355(4)
H6ZB H 0.5448 0.8106 0.8210
C6ZB C 0.6138(2) 0.78734(16) 0.8466(2)
C7ZB C 0.6166(2) 0.76223(19) 0.88146(17)
H7ZB H 0.6073 0.7722 0.9075
C8ZB C 0.6328(2) 0.72253(17) 0.87815(15)
H8ZB H 0.6347 0.7054 0.9020
C9ZB C 0.6464(2) 0.70793(16) 0.84001(18)
C10ZB C 0.6436(2) 0.7330(2) 0.80517(15)
H9ZB H 0.6529 0.7231 0.7791
C11ZB C 0.6274(3) 0.7727(2) 0.80847(17)
H10ZB H 0.6255 0.7899 0.7847
N3ZB N 0.5959(2) 0.8273(2) 0.8512(3)
C1EC C 0.6581(3) 0.5422(2) 0.62955(17)
N1EC N 0.6388(2) 0.56753(17) 0.5993(2)
C2EC C 0.6374(3) 0.5449(2) 0.56157(18)
H1EC H 0.6261 0.5544 0.5361
C3EC C 0.6558(3) 0.5057(2) 0.5686(2)
H2EC H 0.6590 0.4843 0.5487
N2EC N 0.6687(3) 0.50398(19) 0.6106(3)
C4EC C 0.6933(9) 0.4687(6) 0.6261(8)
H3EC H 0.7009 0.4507 0.6029
H4EC H 0.6769 0.4530 0.6462
H5EC H 0.7185 0.4791 0.6395
C5EC C 0.6645(4) 0.5589(4) 0.6680(3)
H6EC H 0.6790 0.5448 0.6894
C6EC C 0.6534(2) 0.6138(2) 0.71266(16)
C7EC C 0.61854(17) 0.6166(2) 0.73777(19)
H7EC H 0.5925 0.6073 0.7278
C8EC C 0.62185(15) 0.6328(2) 0.77747(17)
H8EC H 0.5980 0.6347 0.7946
C9EC C 0.65999(18) 0.6464(2) 0.79207(16)
C10EC C 0.69483(15) 0.6436(2) 0.7670(2)
H9EC H 0.7209 0.6529 0.7769
C11EC C 0.69153(17) 0.6274(3) 0.7273(2)
H10EC H 0.7153 0.6255 0.7101
N3EC N 0.6488(3) 0.5959(2) 0.6727(2)
loop_
_geom_bond_atom_site_label_1
_geom_bond_atom_site_label_2
_geom_bond_site_symmetry_1
_geom_bond_site_symmetry_2
C1 N1 1_555 1_555
N1 C2 1_555 1_555
C2 H1 1_555 1_555
C3 C2 1_555 1_555
H2 C3 1_555 1_555
N2 C1 1_555 1_555
C4 N2 1_555 1_555
H3 C4 1_555 1_555
H4 C4 1_555 1_555
H5 C4 1_555 1_555
C5 C1 1_555 1_555
H6 C5 1_555 1_555
C6 C7 1_555 1_555
C7 H7 1_555 1_555
C8 C7 1_555 1_555
H8 C8 1_555 1_555
C9 C8 1_555 1_555
C10 C9 1_555 1_555
H9 C10 1_555 1_555
C11 C6 1_555 1_555
H10 C11 1_555 1_555
C12 C9 1_555 1_555
N3 C5 1_555 1_555
O1 C12 1_555 1_555
Fe1 N1 1_555 1_555
C1D N1D 1_555 1_555
N1D C2D 1_555 1_555
C2D H1D 1_555 1_555
C3D C2D 1_555 1_555
H2D C3D 1_555 1_555
N2D C1D 1_555 1_555
C4D N2D 1_555 1_555
H3D C4D 1_555 1_555
H4D C4D 1_555 1_555
H5D C4D 1_555 1_555
C5D C1D 1_555 1_555
H6D C5D 1_555 1_555
C6D C7D 1_555 1_555
C7D H7D 1_555 1_555
C8D C7D 1_555 1_555
H8D C8D 1_555 1_555
C9D C12 1_555 1_555
C10D C9D 1_555 1_555
H9D C10D 1_555 1_555
C11D C6D 1_555 1_555
H10D C11D 1_555 1_555
N3D C5D 1_555 1_555
C1H N1H 1_555 1_555
N1H C2H 1_555 1_555
C2H H1H 1_555 1_555
C3H C2H 1_555 1_555
H2H C3H 1_555 1_555
N2H C1H 1_555 1_555
C4H N2H 1_555 1_555
H3H C4H 1_555 1_555
H4H C4H 1_555 1_555
H5H C4H 1_555 1_555
C5H C1H 1_555 1_555
H6H C5H 1_555 1_555
C6H C7H 1_555 1_555
C7H H7H 1_555 1_555
C8H C7H 1_555 1_555
H8H C8H 1_555 1_555
C9H C12 1_555 1_555
C10H C9H 1_555 1_555
H9H C10H 1_555 1_555
C11H C6H 1_555 1_555
H10H C11H 1_555 1_555
N3H C5H 1_555 1_555
Fe1D N1D 1_555 1_555
Fe1H N1H 1_555 1_555
C1AA N1AA 1_555 1_555
N1AA C2AA 1_555 1_555
C2AA H1AA 1_555 1_555
C3AA C2AA 1_555 1_555
H2AA C3AA 1_555 1_555
N2AA C1AA 1_555 1_555
C4AA N2AA 1_555 1_555
H3AA C4AA 1_555 1_555
H4AA C4AA 1_555 1_555
H5AA C4AA 1_555 1_555
C5AA C1AA 1_555 1_555
H6AA C5AA 1_555 1_555
C6AA C7AA 1_555 1_555
C7AA H7AA 1_555 1_555
C8AA C7AA 1_555 1_555
H8AA C8AA 1_555 1_555
C9AA C8AA 1_555 1_555
C10AA C9AA 1_555 1_555
H9AA C10AA 1_555 1_555
C11AA C6AA 1_555 1_555
H10AA C11AA 1_555 1_555
C12AA C9AA 1_555 1_555
N3AA C5AA 1_555 1_555
O1AA C12AA 1_555 1_555
Fe1AA N1AA 1_555 1_555
C1CA N1CA 1_555 1_555
N1CA Fe1H 1_555 1_555
C2CA N1CA 1_555 1_555
H1CA C2CA 1_555 1_555
C3CA C2CA 1_555 1_555
H2CA C3CA 1_555 1_555
N2CA C1CA 1_555 1_555
C4CA N2CA 1_555 1_555
H3CA C4CA 1_555 1_555
H4CA C4CA 1_555 1_555
H5CA C4CA 1_555 1_555
C5CA C1CA 1_555 1_555
H6CA C5CA 1_555 1_555
C6CA C7CA 1_555 1_555
C7CA H7CA 1_555 1_555
C8CA C7CA 1_555 1_555
H8CA C8CA 1_555 1_555
C9CA C12AA 1_555 1_555
C10CA C9CA 1_555 1_555
H9CA C10CA 1_555 1_555
C11CA C6CA 1_555 1_555
H10CA C11CA 1_555 1_555
N3CA Fe1H 1_555 1_555
C1HA N1HA 1_555 1_555
N1HA Fe1D 1_555 1_555
C2HA N1HA 1_555 1_555
H1HA C2HA 1_555 1_555
C3HA C2HA 1_555 1_555
H2HA C3HA 1_555 1_555
N2HA C1HA 1_555 1_555
C4HA N2HA 1_555 1_555
H3HA C4HA 1_555 1_555
H4HA C4HA 1_555 1_555
H5HA C4HA 1_555 1_555
C5HA C1HA 1_555 1_555
H6HA C5HA 1_555 1_555
C6HA C7HA 1_555 1_555
C7HA H7HA 1_555 1_555
C8HA C7HA 1_555 1_555
H8HA C8HA 1_555 1_555
C9HA C12AA 1_555 1_555
C10HA C9HA 1_555 1_555
H9HA C10HA 1_555 1_555
C11HA C6HA 1_555 1_555
H10HA C11HA 1_555 1_555
N3HA Fe1D 1_555 1_555
C1XA N1XA 1_555 1_555
N1XA Fe1H 1_555 1_555
C2XA N1XA 1_555 1_555
H1XA C2XA 1_555 1_555
C3XA C2XA 1_555 1_555
H2XA C3XA 1_555 1_555
N2XA C1XA 1_555 1_555
C4XA N2XA 1_555 1_555
H3XA C4XA 1_555 1_555
H4XA C4XA 1_555 1_555
H5XA C4XA 1_555 1_555
C5XA C1XA 1_555 1_555
H6XA C5XA 1_555 1_555
C6XA C7XA 1_555 1_555
C7XA H7XA 1_555 1_555
C8XA C7XA 1_555 1_555
H8XA C8XA 1_555 1_555
C9XA C8XA 1_555 1_555
C10XA C9XA 1_555 1_555
H9XA C10XA 1_555 1_555
C11XA C6XA 1_555 1_555
H10XA C11XA 1_555 1_555
C12XA C9XA 1_555 1_555
N3XA Fe1H 1_555 1_555
O1XA C12XA 1_555 1_555
C1CB N1CB 1_555 1_555
N1CB Fe1AA 1_555 1_555
C2CB N1CB 1_555 1_555
H1CB C2CB 1_555 1_555
C3CB C2CB 1_555 1_555
H2CB C3CB 1_555 1_555
N2CB C1CB 1_555 1_555
C4CB N2CB 1_555 1_555
H3CB C4CB 1_555 1_555
H4CB C4CB 1_555 1_555
H5CB C4CB 1_555 1_555
C5CB C1CB 1_555 1_555
H6CB C5CB 1_555 1_555
C6CB C7CB 1_555 1_555
C7CB H7CB 1_555 1_555
C8CB C7CB 1_555 1_555
H8CB C8CB 1_555 1_555
C9CB C12XA 1_555 1_555
C10CB C9CB 1_555 1_555
H9CB C10CB 1_555 1_555
C11CB C6CB 1_555 1_555
H10CB C11CB 1_555 1_555
N3CB Fe1AA 1_555 1_555
C1EB N1EB 1_555 1_555
N1EB Fe1 1_555 1_555
C2EB N1EB 1_555 1_555
H1EB C2EB 1_555 1_555
C3EB C2EB 1_555 1_555
H2EB C3EB 1_555 1_555
N2EB C1EB 1_555 1_555
C4EB N2EB 1_555 1_555
H3EB C4EB 1_555 1_555
H4EB C4EB 1_555 1_555
H5EB C4EB 1_555 1_555
C5EB C1EB 1_555 1_555
H6EB C5EB 1_555 1_555
C6EB C7EB 1_555 1_555
C7EB H7EB 1_555 1_555
C8EB C7EB 1_555 1_555
H8EB C8EB 1_555 1_555
C9EB C12XA 1_555 1_555
C10EB C9EB 1_555 1_555
H9EB C10EB 1_555 1_555
C11EB C6EB 1_555 1_555
H10EB C11EB 1_555 1_555
N3EB Fe1 1_555 1_555
C1UB N1UB 1_555 1_555
N1UB Fe1D 1_555 1_555
C2UB N1UB 1_555 1_555
H1UB C2UB 1_555 1_555
C3UB C2UB 1_555 1_555
H2UB C3UB 1_555 1_555
N2UB C1UB 1_555 1_555
C4UB N2UB 1_555 1_555
H3UB C4UB 1_555 1_555
H4UB C4UB 1_555 1_555
H5UB C4UB 1_555 1_555
C5UB C1UB 1_555 1_555
H6UB C5UB 1_555 1_555
C6UB C7UB 1_555 1_555
C7UB H7UB 1_555 1_555
C8UB C7UB 1_555 1_555
H8UB C8UB 1_555 1_555
C9UB C8UB 1_555 1_555
C10UB C9UB 1_555 1_555
H9UB C10UB 1_555 1_555
C11UB C6UB 1_555 1_555
H10UB C11UB 1_555 1_555
C12UB C9UB 1_555 1_555
N3UB Fe1D 1_555 1_555
O1UB C12UB 1_555 1_555
C1ZB N1ZB 1_555 1_555
N1ZB Fe1 1_555 1_555
C2ZB N1ZB 1_555 1_555
H1ZB C2ZB 1_555 1_555
C3ZB C2ZB 1_555 1_555
H2ZB C3ZB 1_555 1_555
N2ZB C1ZB 1_555 1_555
C4ZB N2ZB 1_555 1_555
H3ZB C4ZB 1_555 1_555
H4ZB C4ZB 1_555 1_555
H5ZB C4ZB 1_555 1_555
C5ZB C1ZB 1_555 1_555
H6ZB C5ZB 1_555 1_555
C6ZB C7ZB 1_555 1_555
C7ZB H7ZB 1_555 1_555
C8ZB C7ZB 1_555 1_555
H8ZB C8ZB 1_555 1_555
C9ZB C12UB 1_555 1_555
C10ZB C9ZB 1_555 1_555
H9ZB C10ZB 1_555 1_555
C11ZB C6ZB 1_555 1_555
H10ZB C11ZB 1_555 1_555
N3ZB Fe1 1_555 1_555
C1EC N1EC 1_555 1_555
N1EC Fe1AA 1_555 1_555
C2EC N1EC 1_555 1_555
H1EC C2EC 1_555 1_555
C3EC C2EC 1_555 1_555
H2EC C3EC 1_555 1_555
N2EC C1EC 1_555 1_555
C4EC N2EC 1_555 1_555
H3EC C4EC 1_555 1_555
H4EC C4EC 1_555 1_555
H5EC C4EC 1_555 1_555
C5EC C1EC 1_555 1_555
H6EC C5EC 1_555 1_555
C6EC C7EC 1_555 1_555
C7EC H7EC 1_555 1_555
C8EC C7EC 1_555 1_555
H8EC C8EC 1_555 1_555
C9EC C12UB 1_555 1_555
C10EC C9EC 1_555 1_555
H9EC C10EC 1_555 1_555
C11EC C6EC 1_555 1_555
H10EC C11EC 1_555 1_555
N3EC Fe1AA 1_555 1_555
C3 N2 1_555 1_555
C6 N3 1_555 1_555
C10 C11 1_555 1_555
N3 Fe1 1_555 1_555
C3D N2D 1_555 1_555
C6D N3D 1_555 1_555
C8D C9D 1_555 1_555
C10D C11D 1_555 1_555
N3D Fe1D 1_555 1_555
C3H N2H 1_555 1_555
C6H N3H 1_555 1_555
C8H C9H 1_555 1_555
C10H C11H 1_555 1_555
N3H Fe1H 1_555 1_555
C3AA N2AA 1_555 1_555
C6AA N3AA 1_555 1_555
C10AA C11AA 1_555 1_555
N3AA Fe1AA 1_555 1_555
C3CA N2CA 1_555 1_555
C5CA N3CA 1_555 1_555
C6CA N3CA 1_555 1_555
C8CA C9CA 1_555 1_555
C10CA C11CA 1_555 1_555
C3HA N2HA 1_555 1_555
C5HA N3HA 1_555 1_555
C6HA N3HA 1_555 1_555
C8HA C9HA 1_555 1_555
C10HA C11HA 1_555 1_555
C3XA N2XA 1_555 1_555
C5XA N3XA 1_555 1_555
C6XA N3XA 1_555 1_555
C10XA C11XA 1_555 1_555
C3CB N2CB 1_555 1_555
C5CB N3CB 1_555 1_555
C6CB N3CB 1_555 1_555
C8CB C9CB 1_555 1_555
C10CB C11CB 1_555 1_555
C3EB N2EB 1_555 1_555
C5EB N3EB 1_555 1_555
C6EB N3EB 1_555 1_555
C8EB C9EB 1_555 1_555
C10EB C11EB 1_555 1_555
C3UB N2UB 1_555 1_555
C5UB N3UB 1_555 1_555
C6UB N3UB 1_555 1_555
C10UB C11UB 1_555 1_555
C3ZB N2ZB 1_555 1_555
C5ZB N3ZB 1_555 1_555
C6ZB N3ZB 1_555 1_555
C8ZB C9ZB 1_555 1_555
C10ZB C11ZB 1_555 1_555
C3EC N2EC 1_555 1_555
C5EC N3EC 1_555 1_555
C6EC N3EC 1_555 1_555
C8EC C9EC 1_555 1_555
C10EC C11EC 1_555 1_555

#END
