
#######################################################################
#
#                 Cambridge Crystallographic Data Centre
#                                CCDC 
#
#######################################################################
#
# If this CIF has been generated from an entry in the Cambridge 
# Structural Database, then it will include bibliographic, chemical, 
# crystal, experimental, refinement or atomic coordinate data resulting 
# from the CCDC's data processing and validation procedures.
#
#######################################################################

data_PESNEI
_chemical_formula_moiety         
'C312 H264 Fe8 N48 16+,16(Cl1 O4 1-),16(C2 H3 N1),16(C4 H10 O1)'
_chemical_name_systematic        
"dodecakis(\m~2~-4,4'-Bipyridine-2,2'-diylbis(N-(4-methylphenyl)methanimine))-octa-iron(ii) hexadecaperchlorate acetonitrile diethyl ether solvate"
_symmetry_cell_setting           triclinic
_symmetry_space_group_name_H-M   'P -1'
_symmetry_Int_Tables_number      2
_space_group_name_Hall           '-P 1'
loop_
_symmetry_equiv_pos_site_id
_symmetry_equiv_pos_as_xyz
1 x,y,z
2 -x,-y,-z
_cell_length_a                   22.616(6)
_cell_length_b                   23.744(4)
_cell_length_c                   24.566(5)
_cell_angle_alpha                68.644(17)
_cell_angle_beta                 65.82(2)
_cell_angle_gamma                81.242(18)
_cell_volume                     11208
_exptl_crystal_colour            'dark purple'
_exptl_crystal_description       blade
_cell_formula_units_Z            1
loop_
_atom_site_label
_atom_site_type_symbol
_atom_site_fract_x
_atom_site_fract_y
_atom_site_fract_z
C1 C 0.6396(6) 0.4724(6) 0.1402(7)
H1 H 0.6657 0.5036 0.1371
H2 H 0.6674 0.4476 0.1149
H3 H 0.6196 0.4467 0.1845
C2 C 0.5868(4) 0.5023(4) 0.1153(4)
C3 C 0.5748(4) 0.5638(4) 0.1040(4)
H4 H 0.6009 0.5873 0.1097
C4 C 0.5247(4) 0.5910(3) 0.0844(4)
H5 H 0.5165 0.6331 0.0767
C5 C 0.4865(3) 0.5567(4) 0.0761(4)
C6 C 0.4985(4) 0.4951(4) 0.0874(4)
H6 H 0.4724 0.4716 0.0818
C7 C 0.5486(4) 0.4679(3) 0.1070(4)
H7 H 0.5568 0.4258 0.1148
C8 C 0.4317(5) 0.6167(5) 0.0061(6)
H8 H 0.4738 0.6247 -0.0266
C9 C 0.3785(5) 0.6422(4) -0.0100(5)
C10 C 0.2670(7) 0.6528(6) 0.0418(7)
H9 H 0.2307 0.6508 0.0799
C11 C 0.2616(7) 0.6808(6) -0.0178(7)
H10 H 0.2201 0.6920 -0.0195
C12 C 0.3192(7) 0.6927(6) -0.0767(7)
C13 C 0.3776(6) 0.6733(5) -0.0697(6)
H11 H 0.4171 0.6814 -0.1059
C14 C 0.3071(4) 0.7170(3) -0.1397(3)
C15 C 0.3628(3) 0.7326(3) -0.1947(4)
H12 H 0.4040 0.7297 -0.1921
C16 C 0.3582(4) 0.7526(3) -0.2535(3)
N1 N 0.2980(5) 0.7568(3) -0.2573(3)
C17 C 0.2423(3) 0.7411(3) -0.2023(4)
H13 H 0.2011 0.7441 -0.2049
C18 C 0.2469(3) 0.7212(3) -0.1435(3)
H14 H 0.2088 0.7105 -0.1059
C19 C 0.4104(6) 0.7684(5) -0.3223(6)
H15 H 0.4552 0.7698 -0.3306
C20 C 0.4477(5) 0.7968(5) -0.4309(6)
C21 C 0.4440(6) 0.7735(6) -0.4757(6)
H16 H 0.4090 0.7494 -0.4664
C22 C 0.5019(6) 0.7913(6) -0.5405(7)
H17 H 0.5054 0.7756 -0.5722
C23 C 0.5454(7) 0.8275(6) -0.5508(7)
C24 C 0.5506(6) 0.8530(6) -0.5078(6)
H18 H 0.5859 0.8774 -0.5183
C25 C 0.4946(6) 0.8373(6) -0.4450(7)
H19 H 0.4911 0.8550 -0.4148
C26 C 0.5968(7) 0.8573(7) -0.6233(8)
H20 H 0.5989 0.8326 -0.6484
H21 H 0.6398 0.8589 -0.6231
H22 H 0.5827 0.8983 -0.6418
C27 C 0.5547(9) 0.7944(9) 0.0836(10)
H23 H 0.5439 0.8151 0.1144
H24 H 0.5642 0.8244 0.0412
H25 H 0.5928 0.7685 0.0840
C28 C 0.4919(4) 0.7519(4) 0.1026(5)
C29 C 0.4626(5) 0.7121(4) 0.1638(4)
H26 H 0.4787 0.7082 0.1951
C30 C 0.4096(4) 0.6781(4) 0.1792(4)
H27 H 0.3896 0.6509 0.2211
C31 C 0.3859(4) 0.6838(4) 0.1334(5)
C32 C 0.4152(4) 0.7236(4) 0.0722(4)
H28 H 0.3990 0.7275 0.0409
C33 C 0.4682(4) 0.7576(3) 0.0568(3)
H29 H 0.4882 0.7848 0.0149
C34 C 0.2727(6) 0.6579(6) 0.1837(6)
H30 H 0.2643 0.6925 0.1966
C35 C 0.2206(6) 0.6200(6) 0.1996(6)
C36 C 0.1968(6) 0.5269(6) 0.1941(6)
H31 H 0.2107 0.4912 0.1832
C37 C 0.1299(7) 0.5366(6) 0.2260(6)
H32 H 0.0983 0.5090 0.2347
C38 C 0.1112(6) 0.5897(5) 0.2449(6)
C39 C 0.1535(5) 0.6302(5) 0.2326(5)
H33 H 0.1396 0.6649 0.2452
C40 C 0.0370(6) 0.5988(5) 0.2748(6)
C41 C 0.0150(6) 0.6513(5) 0.2980(6)
H34 H 0.0431 0.6772 0.2981
C42 C -0.0535(6) 0.6576(6) 0.3200(6)
C43 C -0.0783(6) 0.5784(6) 0.3045(6)
H35 H -0.1093 0.5536 0.3072
C44 C -0.0099(6) 0.5628(6) 0.2795(6)
H36 H 0.0030 0.5284 0.2663
C45 C -0.0880(6) 0.7127(5) 0.3463(6)
H37 H -0.0638 0.7410 0.3480
C46 C -0.1757(5) 0.7708(4) 0.3820(5)
C47 C -0.2047(5) 0.8150(5) 0.3452(4)
H38 H -0.2060 0.8102 0.3089
C48 C -0.2316(4) 0.8662(4) 0.3613(5)
H39 H -0.2514 0.8963 0.3361
C49 C -0.2297(5) 0.8732(4) 0.4143(5)
C50 C -0.2008(5) 0.8290(5) 0.4512(4)
H40 H -0.1994 0.8338 0.4874
C51 C -0.1738(4) 0.7779(4) 0.4350(5)
H41 H -0.1540 0.7477 0.4602
C52 C -0.2608(9) 0.9296(8) 0.4440(9)
H42 H -0.3048 0.9190 0.4758
H43 H -0.2621 0.9668 0.4098
H44 H -0.2335 0.9358 0.4637
C53 C 0.3967(6) 0.5483(6) 0.3971(7)
H45 H 0.3771 0.5865 0.4030
H46 H 0.4438 0.5502 0.3835
H47 H 0.3793 0.5150 0.4372
C54 C 0.3808(7) 0.5376(6) 0.3461(7)
C55 C 0.3240(7) 0.5476(6) 0.3411(7)
H48 H 0.2896 0.5613 0.3719
C56 C 0.3106(6) 0.5391(6) 0.2923(6)
H49 H 0.2684 0.5456 0.2916
C57 C 0.3645(6) 0.5202(5) 0.2434(6)
C58 C 0.4247(6) 0.5089(6) 0.2493(6)
H50 H 0.4580 0.4941 0.2188
C59 C 0.4428(7) 0.5177(6) 0.2992(7)
H51 H 0.4846 0.5120 0.3010
C60 C 0.3553(4) 0.4499(5) 0.1974(5)
H52 H 0.3642 0.4171 0.2295
C61 C 0.3436(5) 0.4405(6) 0.1529(6)
C62 C 0.3182(5) 0.4935(6) 0.0546(6)
H53 H 0.3173 0.5299 0.0217
C63 C 0.3068(5) 0.4405(6) 0.0503(6)
H54 H 0.2906 0.4394 0.0207
C64 C 0.3217(5) 0.3859(5) 0.0949(5)
C65 C 0.3350(5) 0.3892(6) 0.1436(6)
H55 H 0.3387 0.3518 0.1742
C66 C 0.3016(5) 0.3284(5) 0.0903(6)
C67 C 0.3014(6) 0.2730(6) 0.1447(6)
H56 H 0.3142 0.2729 0.1771
C68 C 0.2797(6) 0.2191(6) 0.1430(7)
C69 C 0.2762(5) 0.2656(6) 0.0457(6)
H57 H 0.2702 0.2641 0.0102
C70 C 0.2937(5) 0.3222(5) 0.0413(6)
H58 H 0.2999 0.3560 0.0038
C71 C 0.2821(7) 0.1536(7) 0.1958(8)
H59 H 0.2996 0.1470 0.2269
C72 C 0.2524(8) 0.0499(5) 0.2344(6)
C73 C 0.1909(6) 0.0286(6) 0.2778(7)
H60 H 0.1537 0.0516 0.2740
C74 C 0.1839(5) -0.0261(7) 0.3268(6)
H61 H 0.1418 -0.0406 0.3565
C75 C 0.2384(8) -0.0597(5) 0.3325(6)
C76 C 0.2998(6) -0.0385(6) 0.2891(7)
H62 H 0.3371 -0.0614 0.2929
C77 C 0.3069(5) 0.0163(7) 0.2401(6)
H63 H 0.3489 0.0308 0.2104
C78 C 0.2341(9) -0.1311(8) 0.3832(9)
H64 H 0.2091 -0.1315 0.4267
H65 H 0.2780 -0.1464 0.3790
H66 H 0.2128 -0.1569 0.3733
C79 C 0.5042(8) 1.0055(11) -0.3897(9)
H67 H 0.5408 0.9776 -0.3982
H68 H 0.4999 1.0165 -0.3535
H69 H 0.5118 1.0420 -0.4271
C80 C 0.4396(4) 0.9748(4) -0.3743(5)
C81 C 0.4218(4) 0.9784(4) -0.4234(4)
H70 H 0.4444 1.0047 -0.4650
C82 C 0.3709(4) 0.9435(4) -0.4114(4)
H71 H 0.3588 0.9460 -0.4449
C83 C 0.3379(4) 0.9051(4) -0.3504(5)
C84 C 0.3557(4) 0.9015(4) -0.3014(4)
H72 H 0.3330 0.8752 -0.2597
C85 C 0.4065(5) 0.9364(5) -0.3133(4)
H73 H 0.4187 0.9339 -0.2798
C86 C 0.2266(7) 0.8879(6) -0.3223(6)
H74 H 0.2157 0.9281 -0.3221
C87 C 0.1784(6) 0.8475(6) -0.3036(6)
C88 C 0.1559(6) 0.7500(6) -0.2939(5)
H75 H 0.1715 0.7111 -0.2960
C89 C 0.0899(5) 0.7591(5) -0.2725(5)
H76 H 0.0613 0.7291 -0.2647
C90 C 0.0660(5) 0.8145(5) -0.2624(6)
C91 C 0.1062(5) 0.8615(5) -0.2809(5)
H77 H 0.0899 0.9005 -0.2796
C92 C 0.2654(11) 1.0445(8) -0.5973(11)
H78 H 0.2683 1.0761 -0.5817
H79 H 0.2234 1.0473 -0.6008
H80 H 0.3003 1.0499 -0.6390
C93 C 0.2724(6) 0.9805(5) -0.5496(6)
C94 C 0.3338(5) 0.9563(6) -0.5556(6)
H81 H 0.3712 0.9790 -0.5870
C95 C 0.3405(6) 0.8988(7) -0.5157(7)
H82 H 0.3825 0.8823 -0.5198
C96 C 0.2858(8) 0.8655(5) -0.4698(6)
C97 C 0.2244(7) 0.8898(6) -0.4638(5)
H83 H 0.1870 0.8670 -0.4324
C98 C 0.2177(5) 0.9472(7) -0.5037(6)
H84 H 0.1757 0.9638 -0.4996
C99 C 0.2829(5) 0.7534(6) -0.4401(6)
H85 H 0.2745 0.7565 -0.4760
C100 C 0.2862(6) 0.6963(6) -0.3943(7)
C101 C 0.3016(5) 0.6476(6) -0.3040(6)
H86 H 0.3099 0.6490 -0.2696
C102 C 0.2960(5) 0.5914(6) -0.3092(6)
H87 H 0.3027 0.5551 -0.2790
C103 C 0.2820(5) 0.5885(6) -0.3540(6)
C104 C 0.2755(5) 0.6444(5) -0.4026(6)
H88 H 0.2651 0.6451 -0.4366
C105 C 0.1892(9) 0.3683(9) -0.6609(9)
H89 H 0.2207 0.3919 -0.7020
H90 H 0.1975 0.3251 -0.6544
H91 H 0.1453 0.3783 -0.6601
C106 C 0.1962(7) 0.3841(5) -0.6057(5)
C107 C 0.1399(5) 0.3843(5) -0.5535(6)
H92 H 0.0989 0.3805 -0.5540
C108 C 0.1435(4) 0.3902(5) -0.5007(5)
H93 H 0.1050 0.3904 -0.4650
C109 C 0.2034(5) 0.3958(4) -0.5000(4)
C110 C 0.2598(4) 0.3956(4) -0.5522(5)
H94 H 0.3008 0.3995 -0.5517
C111 C 0.2562(5) 0.3897(5) -0.6050(4)
H95 H 0.2947 0.3895 -0.6407
C112 C 0.2350(6) 0.4597(6) -0.4605(7)
H96 H 0.2488 0.4900 -0.5012
C113 C 0.2395(3) 0.4662(4) -0.4059(3)
N2 N 0.2236(3) 0.4173(3) -0.3498(4)
C114 C 0.2273(3) 0.4226(3) -0.2967(3)
H97 H 0.2165 0.3892 -0.2584
C115 C 0.2470(4) 0.4768(4) -0.2999(3)
H98 H 0.2495 0.4804 -0.2636
C116 C 0.2629(3) 0.5257(3) -0.3560(4)
C117 C 0.2591(4) 0.5203(3) -0.4090(3)
H99 H 0.2700 0.5537 -0.4474
C118 C -0.4983(6) 0.6310(8) 0.6221(5)
H100 H -0.4885 0.6456 0.6501
H101 H -0.5050 0.5872 0.6410
H102 H -0.5377 0.6509 0.6166
C119 C -0.4401(4) 0.6461(4) 0.5558(4)
C120 C -0.3946(4) 0.6889(4) 0.5393(4)
H103 H -0.3989 0.7091 0.5677
C121 C -0.3427(4) 0.7022(4) 0.4810(5)
H104 H -0.3116 0.7314 0.4697
C122 C -0.3363(4) 0.6726(5) 0.4393(4)
C123 C -0.3818(5) 0.6298(4) 0.4559(4)
H105 H -0.3774 0.6096 0.4274
C124 C -0.4337(4) 0.6165(4) 0.5142(4)
H106 H -0.4648 0.5873 0.5255
C125 C -0.2966(7) 0.7197(6) 0.3223(7)
H107 H -0.3392 0.7335 0.3255
C126 C -0.2443(3) 0.7311(3) 0.2638(3)
N3 N -0.1846(4) 0.7111(3) 0.2676(3)
C127 C -0.1292(3) 0.7190(3) 0.2126(4)
H108 H -0.0884 0.7054 0.2152
C128 C -0.1334(3) 0.7469(3) 0.1538(3)
H109 H -0.0955 0.7523 0.1162
C129 C -0.1931(4) 0.7669(3) 0.1500(3)
C130 C -0.2486(3) 0.7590(3) 0.2050(4)
H110 H -0.2894 0.7727 0.2024
C131 C -0.2873(14) 1.1617(7) -0.0735(11)
H111 H -0.3326 1.1584 -0.0436
H112 H -0.2597 1.1681 -0.0542
H113 H -0.2828 1.1959 -0.1123
C132 C -0.2661(5) 1.1017(4) -0.0900(5)
C133 C -0.2620(5) 1.0996(5) -0.1473(5)
H114 H -0.2751 1.1335 -0.1753
C134 C -0.2386(5) 1.0479(6) -0.1635(4)
H115 H -0.2358 1.0465 -0.2026
C135 C -0.2194(5) 0.9983(4) -0.1225(6)
C136 C -0.2235(5) 1.0003(4) -0.0652(5)
H116 H -0.2104 0.9664 -0.0372
C137 C -0.2469(5) 1.0521(5) -0.0490(4)
H117 H -0.2497 1.0535 -0.0098
C138 C -0.1225(9) 0.9456(8) -0.1702(8)
H118 H -0.0959 0.9766 -0.1765
C139 C -0.0983(4) 0.8918(3) -0.1895(4)
N4 N -0.1424(3) 0.8471(3) -0.1713(3)
C140 C -0.1206(3) 0.7934(3) -0.1838(4)
H119 H -0.1507 0.7628 -0.1713
C141 C -0.0548(4) 0.7844(3) -0.2146(4)
H120 H -0.0399 0.7478 -0.2232
C142 C -0.0107(3) 0.8292(4) -0.2329(4)
C143 C -0.0325(3) 0.8829(3) -0.2204(4)
H121 H -0.0023 0.9134 -0.2329
C144 C -0.5377(8) 1.0133(8) -0.1053(9)
H122 H -0.5220 1.0473 -0.1450
H123 H -0.5633 0.9862 -0.1093
H124 H -0.5649 1.0285 -0.0707
C145 C -0.4783(5) 0.9776(5) -0.0908(5)
C146 C -0.4414(6) 1.0068(4) -0.0757(5)
H125 H -0.4516 1.0471 -0.0757
C147 C -0.3894(5) 0.9770(5) -0.0607(5)
H126 H -0.3641 0.9969 -0.0504
C148 C -0.3743(5) 0.9180(5) -0.0607(5)
C149 C -0.4113(6) 0.8888(4) -0.0758(5)
H127 H -0.4010 0.8485 -0.0758
C150 C -0.4633(5) 0.9186(5) -0.0908(5)
H128 H -0.4885 0.8987 -0.1011
C151 C -0.3105(6) 0.8755(6) 0.0031(7)
H129 H -0.3450 0.8874 0.0353
C152 C -0.2608(3) 0.8468(3) 0.0172(4)
N5 N -0.2125(4) 0.8348(3) -0.0348(3)
C153 C -0.1574(3) 0.8028(3) -0.0290(3)
H130 H -0.1244 0.7946 -0.0645
C154 C -0.1505(3) 0.7827(3) 0.0288(4)
H131 H -0.1129 0.7608 0.0328
C155 C -0.1988(4) 0.7947(3) 0.0808(3)
C156 C -0.2540(3) 0.8267(3) 0.0750(3)
H132 H -0.2870 0.8349 0.1105
N6 N 0.4276(4) 0.5829(4) 0.0622(5)
N7 N 0.3215(4) 0.6304(4) 0.0431(5)
N8 N 0.3899(4) 0.7799(4) -0.3686(5)
N9 N 0.3332(4) 0.6443(4) 0.1508(4)
N10 N 0.2408(5) 0.5682(5) 0.1791(5)
N11 N -0.0990(4) 0.6266(4) 0.3239(4)
N12 N -0.1506(5) 0.7157(4) 0.3649(5)
N13 N 0.3542(4) 0.5090(5) 0.1961(5)
N14 N 0.3308(4) 0.4975(5) 0.1037(5)
N15 N 0.2669(4) 0.2119(4) 0.0966(5)
N16 N 0.2563(5) 0.1107(6) 0.1895(7)
N17 N 0.2887(5) 0.8703(4) -0.3408(5)
N18 N 0.1999(4) 0.7923(4) -0.3121(5)
N19 N 0.2920(5) 0.8018(5) -0.4298(5)
N20 N 0.2949(4) 0.7000(4) -0.3489(5)
N21 N 0.2095(4) 0.4067(5) -0.4481(4)
N22 N -0.2832(5) 0.6878(5) 0.3741(6)
N23 N -0.1896(6) 0.9445(5) -0.1416(6)
N24 N -0.3162(4) 0.8890(4) -0.0513(7)
Fe1 Fe 0.33604(8) 0.57276(9) 0.12467(9)
Fe2 Fe 0.29558(9) 0.78496(8) -0.34593(9)
Fe3 Fe -0.19120(8) 0.65336(8) 0.35703(9)
Fe4 Fe 0.23245(9) 0.13277(9) 0.11477(10)
C1A C -0.6396(6) 0.5276(6) -0.1402(7)
H1A H -0.6657 0.4964 -0.1371
H2A H -0.6674 0.5524 -0.1149
H3A H -0.6196 0.5533 -0.1845
C2A C -0.5868(4) 0.4977(4) -0.1153(4)
C3A C -0.5748(4) 0.4362(4) -0.1040(4)
H4A H -0.6009 0.4127 -0.1097
C4A C -0.5247(4) 0.4090(3) -0.0844(4)
H5A H -0.5165 0.3669 -0.0767
C5A C -0.4865(3) 0.4433(4) -0.0761(4)
C6A C -0.4985(4) 0.5049(4) -0.0874(4)
H6A H -0.4724 0.5284 -0.0818
C7A C -0.5486(4) 0.5321(3) -0.1070(4)
H7A H -0.5568 0.5742 -0.1148
C8A C -0.4317(5) 0.3833(5) -0.0061(6)
H8A H -0.4738 0.3753 0.0266
C9A C -0.3785(5) 0.3578(4) 0.0100(5)
C10A C -0.2670(7) 0.3472(6) -0.0418(7)
H9A H -0.2307 0.3492 -0.0799
C11A C -0.2616(7) 0.3192(6) 0.0178(7)
H10A H -0.2201 0.3080 0.0195
C12A C -0.3192(7) 0.3073(6) 0.0767(7)
C13A C -0.3776(6) 0.3267(5) 0.0697(6)
H11A H -0.4171 0.3186 0.1059
C14A C -0.3071(4) 0.2830(3) 0.1397(3)
C15A C -0.3628(3) 0.2674(3) 0.1947(4)
H12A H -0.4040 0.2703 0.1921
C16A C -0.3582(4) 0.2474(3) 0.2535(3)
N1A N -0.2980(5) 0.2432(3) 0.2573(3)
C17A C -0.2423(3) 0.2589(3) 0.2023(4)
H13A H -0.2011 0.2559 0.2049
C18A C -0.2469(3) 0.2788(3) 0.1435(3)
H14A H -0.2088 0.2895 0.1059
C19A C -0.4104(6) 0.2316(5) 0.3223(6)
H15A H -0.4552 0.2302 0.3306
C20A C -0.4477(5) 0.2032(5) 0.4309(6)
C21A C -0.4440(6) 0.2265(6) 0.4757(6)
H16A H -0.4090 0.2506 0.4664
C22A C -0.5019(6) 0.2087(6) 0.5405(7)
H17A H -0.5054 0.2244 0.5722
C23A C -0.5454(7) 0.1725(6) 0.5508(7)
C24A C -0.5506(6) 0.1470(6) 0.5078(6)
H18A H -0.5859 0.1226 0.5183
C25A C -0.4946(6) 0.1627(6) 0.4450(7)
H19A H -0.4911 0.1450 0.4148
C26A C -0.5968(7) 0.1427(7) 0.6233(8)
H20A H -0.5989 0.1674 0.6484
H21A H -0.6398 0.1411 0.6231
H22A H -0.5827 0.1017 0.6418
C27A C -0.5547(9) 0.2056(9) -0.0836(10)
H23A H -0.5439 0.1849 -0.1144
H24A H -0.5642 0.1756 -0.0412
H25A H -0.5928 0.2315 -0.0840
C28A C -0.4919(4) 0.2481(4) -0.1026(5)
C29A C -0.4626(5) 0.2879(4) -0.1638(4)
H26A H -0.4787 0.2918 -0.1951
C30A C -0.4096(4) 0.3219(4) -0.1792(4)
H27A H -0.3896 0.3491 -0.2211
C31A C -0.3859(4) 0.3162(4) -0.1334(5)
C32A C -0.4152(4) 0.2764(4) -0.0722(4)
H28A H -0.3990 0.2725 -0.0409
C33A C -0.4682(4) 0.2424(3) -0.0568(3)
H29A H -0.4882 0.2152 -0.0149
C34A C -0.2727(6) 0.3421(6) -0.1837(6)
H30A H -0.2643 0.3075 -0.1966
C35A C -0.2206(6) 0.3800(6) -0.1996(6)
C36A C -0.1968(6) 0.4731(6) -0.1941(6)
H31A H -0.2107 0.5088 -0.1832
C37A C -0.1299(7) 0.4634(6) -0.2260(6)
H32A H -0.0983 0.4910 -0.2347
C38A C -0.1112(6) 0.4103(5) -0.2449(6)
C39A C -0.1535(5) 0.3698(5) -0.2326(5)
H33A H -0.1396 0.3351 -0.2452
C40A C -0.0370(6) 0.4012(5) -0.2748(6)
C41A C -0.0150(6) 0.3487(5) -0.2980(6)
H34A H -0.0431 0.3228 -0.2981
C42A C 0.0535(6) 0.3424(6) -0.3200(6)
C43A C 0.0783(6) 0.4216(6) -0.3045(6)
H35A H 0.1093 0.4464 -0.3072
C44A C 0.0099(6) 0.4372(6) -0.2795(6)
H36A H -0.0030 0.4716 -0.2663
C45A C 0.0880(6) 0.2873(5) -0.3463(6)
H37A H 0.0638 0.2590 -0.3480
C46A C 0.1757(5) 0.2292(4) -0.3820(5)
C47A C 0.2047(5) 0.1850(5) -0.3452(4)
H38A H 0.2060 0.1898 -0.3089
C48A C 0.2316(4) 0.1338(4) -0.3613(5)
H39A H 0.2514 0.1037 -0.3361
C49A C 0.2297(5) 0.1268(4) -0.4143(5)
C50A C 0.2008(5) 0.1710(5) -0.4512(4)
H40A H 0.1994 0.1662 -0.4874
C51A C 0.1738(4) 0.2221(4) -0.4350(5)
H41A H 0.1540 0.2523 -0.4602
C52A C 0.2608(9) 0.0704(8) -0.4440(9)
H42A H 0.3048 0.0810 -0.4758
H43A H 0.2621 0.0332 -0.4098
H44A H 0.2335 0.0642 -0.4637
C53A C -0.3967(6) 0.4517(6) -0.3971(7)
H45A H -0.3771 0.4135 -0.4030
H46A H -0.4438 0.4498 -0.3835
H47A H -0.3793 0.4850 -0.4372
C54A C -0.3808(7) 0.4624(6) -0.3461(7)
C55A C -0.3240(7) 0.4524(6) -0.3411(7)
H48A H -0.2896 0.4387 -0.3719
C56A C -0.3106(6) 0.4609(6) -0.2923(6)
H49A H -0.2684 0.4544 -0.2916
C57A C -0.3645(6) 0.4798(5) -0.2434(6)
C58A C -0.4247(6) 0.4911(6) -0.2493(6)
H50A H -0.4580 0.5059 -0.2188
C59A C -0.4428(7) 0.4823(6) -0.2992(7)
H51A H -0.4846 0.4880 -0.3010
C60A C -0.3553(4) 0.5501(5) -0.1974(5)
H52A H -0.3642 0.5829 -0.2295
C61A C -0.3436(5) 0.5595(6) -0.1529(6)
C62A C -0.3182(5) 0.5065(6) -0.0546(6)
H53A H -0.3173 0.4701 -0.0217
C63A C -0.3068(5) 0.5595(6) -0.0503(6)
H54A H -0.2906 0.5606 -0.0207
C64A C -0.3217(5) 0.6141(5) -0.0949(5)
C65A C -0.3350(5) 0.6108(6) -0.1436(6)
H55A H -0.3387 0.6482 -0.1742
C66A C -0.3016(5) 0.6716(5) -0.0903(6)
C67A C -0.3014(6) 0.7270(6) -0.1447(6)
H56A H -0.3142 0.7271 -0.1771
C68A C -0.2797(6) 0.7809(6) -0.1430(7)
C69A C -0.2762(5) 0.7344(6) -0.0457(6)
H57A H -0.2702 0.7359 -0.0102
C70A C -0.2937(5) 0.6778(5) -0.0413(6)
H58A H -0.2999 0.6440 -0.0038
C71A C -0.2821(7) 0.8464(7) -0.1958(8)
H59A H -0.2996 0.8530 -0.2269
C72A C -0.2524(8) 0.9501(5) -0.2344(6)
C73A C -0.1909(6) 0.9714(6) -0.2778(7)
H60A H -0.1537 0.9484 -0.2740
C74A C -0.1839(5) 1.0261(7) -0.3268(6)
H61A H -0.1418 1.0406 -0.3565
C75A C -0.2384(8) 1.0597(5) -0.3325(6)
C76A C -0.2998(6) 1.0385(6) -0.2891(7)
H62A H -0.3371 1.0614 -0.2929
C77A C -0.3069(5) 0.9837(7) -0.2401(6)
H63A H -0.3489 0.9692 -0.2104
C78A C -0.2341(9) 1.1311(8) -0.3832(9)
H64A H -0.2091 1.1315 -0.4267
H65A H -0.2780 1.1464 -0.3790
H66A H -0.2128 1.1569 -0.3733
C79A C -0.5042(8) -0.0055(11) 0.3897(9)
H67A H -0.5408 0.0224 0.3982
H68A H -0.4999 -0.0165 0.3535
H69A H -0.5118 -0.0420 0.4271
C80A C -0.4396(4) 0.0252(4) 0.3743(5)
C81A C -0.4218(4) 0.0216(4) 0.4234(4)
H70A H -0.4444 -0.0047 0.4650
C82A C -0.3709(4) 0.0565(4) 0.4114(4)
H71A H -0.3588 0.0540 0.4449
C83A C -0.3379(4) 0.0949(4) 0.3504(5)
C84A C -0.3557(4) 0.0985(4) 0.3014(4)
H72A H -0.3330 0.1248 0.2597
C85A C -0.4065(5) 0.0636(5) 0.3133(4)
H73A H -0.4187 0.0661 0.2798
C86A C -0.2266(7) 0.1121(6) 0.3223(6)
H74A H -0.2157 0.0719 0.3221
C87A C -0.1784(6) 0.1525(6) 0.3036(6)
C88A C -0.1559(6) 0.2500(6) 0.2939(5)
H75A H -0.1715 0.2889 0.2960
C89A C -0.0899(5) 0.2409(5) 0.2725(5)
H76A H -0.0613 0.2709 0.2647
C90A C -0.0660(5) 0.1855(5) 0.2624(6)
C91A C -0.1062(5) 0.1385(5) 0.2809(5)
H77A H -0.0899 0.0995 0.2796
C92A C -0.2654(11) -0.0445(8) 0.5973(11)
H78A H -0.2683 -0.0761 0.5817
H79A H -0.2234 -0.0473 0.6008
H80A H -0.3003 -0.0499 0.6390
C93A C -0.2724(6) 0.0195(5) 0.5496(6)
C94A C -0.3338(5) 0.0437(6) 0.5556(6)
H81A H -0.3712 0.0210 0.5870
C95A C -0.3405(6) 0.1012(7) 0.5157(7)
H82A H -0.3825 0.1177 0.5198
C96A C -0.2858(8) 0.1345(5) 0.4698(6)
C97A C -0.2244(7) 0.1102(6) 0.4638(5)
H83A H -0.1870 0.1330 0.4324
C98A C -0.2177(5) 0.0528(7) 0.5037(6)
H84A H -0.1757 0.0362 0.4996
C99A C -0.2829(5) 0.2466(6) 0.4401(6)
H85A H -0.2745 0.2435 0.4760
C100A C -0.2862(6) 0.3037(6) 0.3943(7)
C101A C -0.3016(5) 0.3524(6) 0.3040(6)
H86A H -0.3099 0.3510 0.2696
C102A C -0.2960(5) 0.4086(6) 0.3092(6)
H87A H -0.3027 0.4449 0.2790
C103A C -0.2820(5) 0.4115(6) 0.3540(6)
C104A C -0.2755(5) 0.3556(5) 0.4026(6)
H88A H -0.2651 0.3549 0.4366
C105A C -0.1892(9) 0.6317(9) 0.6609(9)
H89A H -0.2207 0.6081 0.7020
H90A H -0.1975 0.6749 0.6544
H91A H -0.1453 0.6217 0.6601
C106A C -0.1962(7) 0.6159(5) 0.6057(5)
C107A C -0.1399(5) 0.6157(5) 0.5535(6)
H92A H -0.0989 0.6195 0.5540
C108A C -0.1435(4) 0.6098(5) 0.5007(5)
H93A H -0.1050 0.6096 0.4650
C109A C -0.2034(5) 0.6042(4) 0.5000(4)
C110A C -0.2598(4) 0.6044(4) 0.5522(5)
H94A H -0.3008 0.6005 0.5517
C111A C -0.2562(5) 0.6103(5) 0.6050(4)
H95A H -0.2947 0.6105 0.6407
C112A C -0.2350(6) 0.5403(6) 0.4605(7)
H96A H -0.2488 0.5100 0.5012
C113A C -0.2395(3) 0.5338(4) 0.4059(3)
N2A N -0.2236(3) 0.5827(3) 0.3498(4)
C114A C -0.2273(3) 0.5774(3) 0.2967(3)
H97A H -0.2165 0.6108 0.2584
C115A C -0.2470(4) 0.5232(4) 0.2999(3)
H98A H -0.2495 0.5196 0.2636
C116A C -0.2629(3) 0.4743(3) 0.3560(4)
C117A C -0.2591(4) 0.4797(3) 0.4090(3)
H99A H -0.2700 0.4463 0.4474
C118A C 0.4983(6) 0.3690(8) -0.6221(5)
H100A H 0.4885 0.3544 -0.6501
H101A H 0.5050 0.4128 -0.6410
H102A H 0.5377 0.3491 -0.6166
C119A C 0.4401(4) 0.3539(4) -0.5558(4)
C120A C 0.3946(4) 0.3111(4) -0.5393(4)
H103A H 0.3989 0.2909 -0.5677
C121A C 0.3427(4) 0.2978(4) -0.4810(5)
H104A H 0.3116 0.2686 -0.4697
C122A C 0.3363(4) 0.3274(5) -0.4393(4)
C123A C 0.3818(5) 0.3702(4) -0.4559(4)
H105A H 0.3774 0.3904 -0.4274
C124A C 0.4337(4) 0.3835(4) -0.5142(4)
H106A H 0.4648 0.4127 -0.5255
C125A C 0.2966(7) 0.2803(6) -0.3223(7)
H107A H 0.3392 0.2665 -0.3255
C126A C 0.2443(3) 0.2689(3) -0.2638(3)
N3A N 0.1846(4) 0.2889(3) -0.2676(3)
C127A C 0.1292(3) 0.2810(3) -0.2126(4)
H108A H 0.0884 0.2946 -0.2152
C128A C 0.1334(3) 0.2531(3) -0.1538(3)
H109A H 0.0955 0.2477 -0.1162
C129A C 0.1931(4) 0.2331(3) -0.1500(3)
C130A C 0.2486(3) 0.2410(3) -0.2050(4)
H110A H 0.2894 0.2273 -0.2024
C131A C 0.2873(14) -0.1617(7) 0.0735(11)
H111A H 0.3326 -0.1584 0.0436
H112A H 0.2597 -0.1681 0.0542
H113A H 0.2828 -0.1959 0.1123
C132A C 0.2661(5) -0.1017(4) 0.0900(5)
C133A C 0.2620(5) -0.0996(5) 0.1473(5)
H114A H 0.2751 -0.1335 0.1753
C134A C 0.2386(5) -0.0479(6) 0.1635(4)
H115A H 0.2358 -0.0465 0.2026
C135A C 0.2194(5) 0.0017(4) 0.1225(6)
C136A C 0.2235(5) -0.0003(4) 0.0652(5)
H116A H 0.2104 0.0336 0.0372
C137A C 0.2469(5) -0.0521(5) 0.0490(4)
H117A H 0.2497 -0.0535 0.0098
C138A C 0.1225(9) 0.0544(8) 0.1702(8)
H118A H 0.0959 0.0234 0.1765
C139A C 0.0983(4) 0.1082(3) 0.1895(4)
N4A N 0.1424(3) 0.1529(3) 0.1713(3)
C140A C 0.1206(3) 0.2066(3) 0.1838(4)
H119A H 0.1507 0.2372 0.1713
C141A C 0.0548(4) 0.2156(3) 0.2146(4)
H120A H 0.0399 0.2522 0.2232
C142A C 0.0107(3) 0.1708(4) 0.2329(4)
C143A C 0.0325(3) 0.1171(3) 0.2204(4)
H121A H 0.0023 0.0866 0.2329
C144A C 0.5377(8) -0.0133(8) 0.1053(9)
H122A H 0.5220 -0.0473 0.1450
H123A H 0.5633 0.0138 0.1093
H124A H 0.5649 -0.0285 0.0707
C145A C 0.4783(5) 0.0224(5) 0.0908(5)
C146A C 0.4414(6) -0.0068(4) 0.0757(5)
H125A H 0.4516 -0.0471 0.0757
C147A C 0.3894(5) 0.0230(5) 0.0607(5)
H126A H 0.3641 0.0031 0.0504
C148A C 0.3743(5) 0.0820(5) 0.0607(5)
C149A C 0.4113(6) 0.1112(4) 0.0758(5)
H127A H 0.4010 0.1515 0.0758
C150A C 0.4633(5) 0.0814(5) 0.0908(5)
H128A H 0.4885 0.1013 0.1011
C151A C 0.3105(6) 0.1245(6) -0.0031(7)
H129A H 0.3450 0.1126 -0.0353
C152A C 0.2608(3) 0.1532(3) -0.0172(4)
N5A N 0.2125(4) 0.1652(3) 0.0348(3)
C153A C 0.1574(3) 0.1972(3) 0.0290(3)
H130A H 0.1244 0.2054 0.0645
C154A C 0.1505(3) 0.2173(3) -0.0288(4)
H131A H 0.1129 0.2392 -0.0328
C155A C 0.1988(4) 0.2053(3) -0.0808(3)
C156A C 0.2540(3) 0.1733(3) -0.0750(3)
H132A H 0.2870 0.1651 -0.1105
N6A N -0.4276(4) 0.4171(4) -0.0622(5)
N7A N -0.3215(4) 0.3696(4) -0.0431(5)
N8A N -0.3899(4) 0.2201(4) 0.3686(5)
N9A N -0.3332(4) 0.3557(4) -0.1508(4)
N10A N -0.2408(5) 0.4318(5) -0.1791(5)
N11A N 0.0990(4) 0.3734(4) -0.3239(4)
N12A N 0.1506(5) 0.2843(4) -0.3649(5)
N13A N -0.3542(4) 0.4910(5) -0.1961(5)
N14A N -0.3308(4) 0.5025(5) -0.1037(5)
N15A N -0.2669(4) 0.7881(4) -0.0966(5)
N16A N -0.2563(5) 0.8893(6) -0.1895(7)
N17A N -0.2887(5) 0.1297(4) 0.3408(5)
N18A N -0.1999(4) 0.2077(4) 0.3121(5)
N19A N -0.2920(5) 0.1982(5) 0.4298(5)
N20A N -0.2949(4) 0.3000(4) 0.3489(5)
N21A N -0.2095(4) 0.5933(5) 0.4481(4)
N22A N 0.2832(5) 0.3122(5) -0.3741(6)
N23A N 0.1896(6) 0.0555(5) 0.1416(6)
N24A N 0.3162(4) 0.1110(4) 0.0513(7)
Fe1A Fe -0.33604(8) 0.42724(9) -0.12467(9)
Fe2A Fe -0.29558(9) 0.21504(8) 0.34593(9)
Fe3A Fe 0.19120(8) 0.34664(8) -0.35703(9)
Fe4A Fe -0.23245(9) 0.86723(9) -0.11477(10)
loop_
_geom_bond_atom_site_label_1
_geom_bond_atom_site_label_2
_geom_bond_site_symmetry_1
_geom_bond_site_symmetry_2
C1 H1 1_555 1_555
H2 C1 1_555 1_555
H3 C1 1_555 1_555
C2 C1 1_555 1_555
C3 C2 1_555 1_555
H4 C3 1_555 1_555
C4 C3 1_555 1_555
H5 C4 1_555 1_555
C5 C4 1_555 1_555
C6 C5 1_555 1_555
H6 C6 1_555 1_555
C7 C2 1_555 1_555
H7 C7 1_555 1_555
C8 H8 1_555 1_555
C9 C8 1_555 1_555
C10 H9 1_555 1_555
C11 C10 1_555 1_555
H10 C11 1_555 1_555
C12 C11 1_555 1_555
C13 C9 1_555 1_555
H11 C13 1_555 1_555
C14 C12 1_555 1_555
C15 C14 1_555 1_555
H12 C15 1_555 1_555
C16 C15 1_555 1_555
N1 C16 1_555 1_555
C17 N1 1_555 1_555
H13 C17 1_555 1_555
C18 C14 1_555 1_555
H14 C18 1_555 1_555
C19 C16 1_555 1_555
H15 C19 1_555 1_555
C20 C21 1_555 1_555
C21 H16 1_555 1_555
C22 C21 1_555 1_555
H17 C22 1_555 1_555
C23 C22 1_555 1_555
C24 C23 1_555 1_555
H18 C24 1_555 1_555
C25 C20 1_555 1_555
H19 C25 1_555 1_555
C26 C23 1_555 1_555
H20 C26 1_555 1_555
H21 C26 1_555 1_555
H22 C26 1_555 1_555
C27 H23 1_555 1_555
H24 C27 1_555 1_555
H25 C27 1_555 1_555
C28 C27 1_555 1_555
C29 C28 1_555 1_555
H26 C29 1_555 1_555
C30 C29 1_555 1_555
H27 C30 1_555 1_555
C31 C30 1_555 1_555
C32 C31 1_555 1_555
H28 C32 1_555 1_555
C33 C28 1_555 1_555
H29 C33 1_555 1_555
C34 H30 1_555 1_555
C35 C34 1_555 1_555
C36 H31 1_555 1_555
C37 C36 1_555 1_555
H32 C37 1_555 1_555
C38 C37 1_555 1_555
C39 C35 1_555 1_555
H33 C39 1_555 1_555
C40 C38 1_555 1_555
C41 C40 1_555 1_555
H34 C41 1_555 1_555
C42 C41 1_555 1_555
C43 H35 1_555 1_555
C44 C40 1_555 1_555
H36 C44 1_555 1_555
C45 C42 1_555 1_555
H37 C45 1_555 1_555
C46 C47 1_555 1_555
C47 H38 1_555 1_555
C48 C47 1_555 1_555
H39 C48 1_555 1_555
C49 C48 1_555 1_555
C50 C49 1_555 1_555
H40 C50 1_555 1_555
C51 C46 1_555 1_555
H41 C51 1_555 1_555
C52 C49 1_555 1_555
H42 C52 1_555 1_555
H43 C52 1_555 1_555
H44 C52 1_555 1_555
C53 H45 1_555 1_555
H46 C53 1_555 1_555
H47 C53 1_555 1_555
C54 C53 1_555 1_555
C55 C54 1_555 1_555
H48 C55 1_555 1_555
C56 C55 1_555 1_555
H49 C56 1_555 1_555
C57 C56 1_555 1_555
C58 C57 1_555 1_555
H50 C58 1_555 1_555
C59 C54 1_555 1_555
H51 C59 1_555 1_555
C60 H52 1_555 1_555
C61 C60 1_555 1_555
C62 H53 1_555 1_555
C63 C62 1_555 1_555
H54 C63 1_555 1_555
C64 C63 1_555 1_555
C65 C61 1_555 1_555
H55 C65 1_555 1_555
C66 C64 1_555 1_555
C67 C66 1_555 1_555
H56 C67 1_555 1_555
C68 C67 1_555 1_555
C69 H57 1_555 1_555
C70 C66 1_555 1_555
H58 C70 1_555 1_555
C71 C68 1_555 1_555
H59 C71 1_555 1_555
C72 C73 1_555 1_555
C73 H60 1_555 1_555
C74 C73 1_555 1_555
H61 C74 1_555 1_555
C75 C74 1_555 1_555
C76 C75 1_555 1_555
H62 C76 1_555 1_555
C77 C72 1_555 1_555
H63 C77 1_555 1_555
C78 C75 1_555 1_555
H64 C78 1_555 1_555
H65 C78 1_555 1_555
H66 C78 1_555 1_555
C79 H67 1_555 1_555
H68 C79 1_555 1_555
H69 C79 1_555 1_555
C80 C79 1_555 1_555
C81 C80 1_555 1_555
H70 C81 1_555 1_555
C82 C81 1_555 1_555
H71 C82 1_555 1_555
C83 C82 1_555 1_555
C84 C83 1_555 1_555
H72 C84 1_555 1_555
C85 C80 1_555 1_555
H73 C85 1_555 1_555
C86 H74 1_555 1_555
C87 C86 1_555 1_555
C88 H75 1_555 1_555
C89 C88 1_555 1_555
H76 C89 1_555 1_555
C90 C89 1_555 1_555
C91 C87 1_555 1_555
H77 C91 1_555 1_555
C92 H78 1_555 1_555
H79 C92 1_555 1_555
H80 C92 1_555 1_555
C93 C92 1_555 1_555
C94 C93 1_555 1_555
H81 C94 1_555 1_555
C95 C94 1_555 1_555
H82 C95 1_555 1_555
C96 C95 1_555 1_555
C97 C96 1_555 1_555
H83 C97 1_555 1_555
C98 C93 1_555 1_555
H84 C98 1_555 1_555
C99 H85 1_555 1_555
C100 C99 1_555 1_555
C101 H86 1_555 1_555
C102 C101 1_555 1_555
H87 C102 1_555 1_555
C103 C102 1_555 1_555
C104 C100 1_555 1_555
H88 C104 1_555 1_555
C105 H89 1_555 1_555
H90 C105 1_555 1_555
H91 C105 1_555 1_555
C106 C105 1_555 1_555
C107 C106 1_555 1_555
H92 C107 1_555 1_555
C108 C107 1_555 1_555
H93 C108 1_555 1_555
C109 C108 1_555 1_555
C110 C109 1_555 1_555
H94 C110 1_555 1_555
C111 C106 1_555 1_555
H95 C111 1_555 1_555
C112 H96 1_555 1_555
C113 C112 1_555 1_555
N2 C113 1_555 1_555
C114 N2 1_555 1_555
H97 C114 1_555 1_555
C115 C114 1_555 1_555
H98 C115 1_555 1_555
C116 C103 1_555 1_555
C117 C113 1_555 1_555
H99 C117 1_555 1_555
C118 H100 1_555 1_555
H101 C118 1_555 1_555
H102 C118 1_555 1_555
C119 C118 1_555 1_555
C120 C119 1_555 1_555
H103 C120 1_555 1_555
C121 C120 1_555 1_555
H104 C121 1_555 1_555
C122 C121 1_555 1_555
C123 C122 1_555 1_555
H105 C123 1_555 1_555
C124 C119 1_555 1_555
H106 C124 1_555 1_555
C125 H107 1_555 1_555
C126 C125 1_555 1_555
N3 C126 1_555 1_555
C127 N3 1_555 1_555
H108 C127 1_555 1_555
C128 C127 1_555 1_555
H109 C128 1_555 1_555
C129 C128 1_555 1_555
C130 C126 1_555 1_555
H110 C130 1_555 1_555
C131 H111 1_555 1_555
H112 C131 1_555 1_555
H113 C131 1_555 1_555
C132 C131 1_555 1_555
C133 C132 1_555 1_555
H114 C133 1_555 1_555
C134 C133 1_555 1_555
H115 C134 1_555 1_555
C135 C134 1_555 1_555
C136 C135 1_555 1_555
H116 C136 1_555 1_555
C137 C132 1_555 1_555
H117 C137 1_555 1_555
C138 H118 1_555 1_555
C139 C138 1_555 1_555
N4 C139 1_555 1_555
C140 N4 1_555 1_555
H119 C140 1_555 1_555
C141 C140 1_555 1_555
H120 C141 1_555 1_555
C142 C90 1_555 1_555
C143 C139 1_555 1_555
H121 C143 1_555 1_555
C144 H122 1_555 1_555
H123 C144 1_555 1_555
H124 C144 1_555 1_555
C145 C144 1_555 1_555
C146 C145 1_555 1_555
H125 C146 1_555 1_555
C147 C146 1_555 1_555
H126 C147 1_555 1_555
C148 C147 1_555 1_555
C149 C148 1_555 1_555
H127 C149 1_555 1_555
C150 C145 1_555 1_555
H128 C150 1_555 1_555
C151 H129 1_555 1_555
C152 C151 1_555 1_555
N5 C152 1_555 1_555
C153 N5 1_555 1_555
H130 C153 1_555 1_555
C154 C153 1_555 1_555
H131 C154 1_555 1_555
C155 C129 1_555 1_555
C156 C152 1_555 1_555
H132 C156 1_555 1_555
N6 C5 1_555 1_555
N7 C9 1_555 1_555
N8 C19 1_555 1_555
N9 C31 1_555 1_555
N10 C35 1_555 1_555
N11 C42 1_555 1_555
N12 C45 1_555 1_555
N13 C57 1_555 1_555
N14 C61 1_555 1_555
N15 C68 1_555 1_555
N16 C71 1_555 1_555
N17 C83 1_555 1_555
N18 C87 1_555 1_555
N19 C96 1_555 1_555
N20 C100 1_555 1_555
N21 C109 1_555 1_555
N22 C122 1_555 1_555
N23 C135 1_555 1_555
N24 C148 1_555 1_555
Fe1 N6 1_555 1_555
Fe2 N1 1_555 1_555
Fe3 N3 1_555 1_555
Fe4 N15 1_555 1_555
C1A H1A 1_555 1_555
H2A C1A 1_555 1_555
H3A C1A 1_555 1_555
C2A C1A 1_555 1_555
C3A C2A 1_555 1_555
H4A C3A 1_555 1_555
C4A C3A 1_555 1_555
H5A C4A 1_555 1_555
C5A C4A 1_555 1_555
C6A C5A 1_555 1_555
H6A C6A 1_555 1_555
C7A C2A 1_555 1_555
H7A C7A 1_555 1_555
C8A H8A 1_555 1_555
C9A C8A 1_555 1_555
C10A H9A 1_555 1_555
C11A C10A 1_555 1_555
H10A C11A 1_555 1_555
C12A C11A 1_555 1_555
C13A C9A 1_555 1_555
H11A C13A 1_555 1_555
C14A C12A 1_555 1_555
C15A C14A 1_555 1_555
H12A C15A 1_555 1_555
C16A C15A 1_555 1_555
N1A C16A 1_555 1_555
C17A N1A 1_555 1_555
H13A C17A 1_555 1_555
C18A C14A 1_555 1_555
H14A C18A 1_555 1_555
C19A C16A 1_555 1_555
H15A C19A 1_555 1_555
C20A C21A 1_555 1_555
C21A H16A 1_555 1_555
C22A C21A 1_555 1_555
H17A C22A 1_555 1_555
C23A C22A 1_555 1_555
C24A C23A 1_555 1_555
H18A C24A 1_555 1_555
C25A C20A 1_555 1_555
H19A C25A 1_555 1_555
C26A C23A 1_555 1_555
H20A C26A 1_555 1_555
H21A C26A 1_555 1_555
H22A C26A 1_555 1_555
C27A H23A 1_555 1_555
H24A C27A 1_555 1_555
H25A C27A 1_555 1_555
C28A C27A 1_555 1_555
C29A C28A 1_555 1_555
H26A C29A 1_555 1_555
C30A C29A 1_555 1_555
H27A C30A 1_555 1_555
C31A C30A 1_555 1_555
C32A C31A 1_555 1_555
H28A C32A 1_555 1_555
C33A C28A 1_555 1_555
H29A C33A 1_555 1_555
C34A H30A 1_555 1_555
C35A C34A 1_555 1_555
C36A H31A 1_555 1_555
C37A C36A 1_555 1_555
H32A C37A 1_555 1_555
C38A C37A 1_555 1_555
C39A C35A 1_555 1_555
H33A C39A 1_555 1_555
C40A C38A 1_555 1_555
C41A C40A 1_555 1_555
H34A C41A 1_555 1_555
C42A C41A 1_555 1_555
C43A H35A 1_555 1_555
C44A C40A 1_555 1_555
H36A C44A 1_555 1_555
C45A C42A 1_555 1_555
H37A C45A 1_555 1_555
C46A C47A 1_555 1_555
C47A H38A 1_555 1_555
C48A C47A 1_555 1_555
H39A C48A 1_555 1_555
C49A C48A 1_555 1_555
C50A C49A 1_555 1_555
H40A C50A 1_555 1_555
C51A C46A 1_555 1_555
H41A C51A 1_555 1_555
C52A C49A 1_555 1_555
H42A C52A 1_555 1_555
H43A C52A 1_555 1_555
H44A C52A 1_555 1_555
C53A H45A 1_555 1_555
H46A C53A 1_555 1_555
H47A C53A 1_555 1_555
C54A C53A 1_555 1_555
C55A C54A 1_555 1_555
H48A C55A 1_555 1_555
C56A C55A 1_555 1_555
H49A C56A 1_555 1_555
C57A C56A 1_555 1_555
C58A C57A 1_555 1_555
H50A C58A 1_555 1_555
C59A C54A 1_555 1_555
H51A C59A 1_555 1_555
C60A H52A 1_555 1_555
C61A C60A 1_555 1_555
C62A H53A 1_555 1_555
C63A C62A 1_555 1_555
H54A C63A 1_555 1_555
C64A C63A 1_555 1_555
C65A C61A 1_555 1_555
H55A C65A 1_555 1_555
C66A C64A 1_555 1_555
C67A C66A 1_555 1_555
H56A C67A 1_555 1_555
C68A C67A 1_555 1_555
C69A H57A 1_555 1_555
C70A C66A 1_555 1_555
H58A C70A 1_555 1_555
C71A C68A 1_555 1_555
H59A C71A 1_555 1_555
C72A C73A 1_555 1_555
C73A H60A 1_555 1_555
C74A C73A 1_555 1_555
H61A C74A 1_555 1_555
C75A C74A 1_555 1_555
C76A C75A 1_555 1_555
H62A C76A 1_555 1_555
C77A C72A 1_555 1_555
H63A C77A 1_555 1_555
C78A C75A 1_555 1_555
H64A C78A 1_555 1_555
H65A C78A 1_555 1_555
H66A C78A 1_555 1_555
C79A H67A 1_555 1_555
H68A C79A 1_555 1_555
H69A C79A 1_555 1_555
C80A C79A 1_555 1_555
C81A C80A 1_555 1_555
H70A C81A 1_555 1_555
C82A C81A 1_555 1_555
H71A C82A 1_555 1_555
C83A C82A 1_555 1_555
C84A C83A 1_555 1_555
H72A C84A 1_555 1_555
C85A C80A 1_555 1_555
H73A C85A 1_555 1_555
C86A H74A 1_555 1_555
C87A C86A 1_555 1_555
C88A H75A 1_555 1_555
C89A C88A 1_555 1_555
H76A C89A 1_555 1_555
C90A C89A 1_555 1_555
C91A C87A 1_555 1_555
H77A C91A 1_555 1_555
C92A H78A 1_555 1_555
H79A C92A 1_555 1_555
H80A C92A 1_555 1_555
C93A C92A 1_555 1_555
C94A C93A 1_555 1_555
H81A C94A 1_555 1_555
C95A C94A 1_555 1_555
H82A C95A 1_555 1_555
C96A C95A 1_555 1_555
C97A C96A 1_555 1_555
H83A C97A 1_555 1_555
C98A C93A 1_555 1_555
H84A C98A 1_555 1_555
C99A H85A 1_555 1_555
C100A C99A 1_555 1_555
C101A H86A 1_555 1_555
C102A C101A 1_555 1_555
H87A C102A 1_555 1_555
C103A C102A 1_555 1_555
C104A C100A 1_555 1_555
H88A C104A 1_555 1_555
C105A H89A 1_555 1_555
H90A C105A 1_555 1_555
H91A C105A 1_555 1_555
C106A C105A 1_555 1_555
C107A C106A 1_555 1_555
H92A C107A 1_555 1_555
C108A C107A 1_555 1_555
H93A C108A 1_555 1_555
C109A C108A 1_555 1_555
C110A C109A 1_555 1_555
H94A C110A 1_555 1_555
C111A C106A 1_555 1_555
H95A C111A 1_555 1_555
C112A H96A 1_555 1_555
C113A C112A 1_555 1_555
N2A Fe3 1_555 1_555
C114A N2A 1_555 1_555
H97A C114A 1_555 1_555
C115A C114A 1_555 1_555
H98A C115A 1_555 1_555
C116A C103A 1_555 1_555
C117A C113A 1_555 1_555
H99A C117A 1_555 1_555
C118A H100A 1_555 1_555
H101A C118A 1_555 1_555
H102A C118A 1_555 1_555
C119A C118A 1_555 1_555
C120A C119A 1_555 1_555
H103A C120A 1_555 1_555
C121A C120A 1_555 1_555
H104A C121A 1_555 1_555
C122A C121A 1_555 1_555
C123A C122A 1_555 1_555
H105A C123A 1_555 1_555
C124A C119A 1_555 1_555
H106A C124A 1_555 1_555
C125A H107A 1_555 1_555
C126A C125A 1_555 1_555
N3A C126A 1_555 1_555
C127A N3A 1_555 1_555
H108A C127A 1_555 1_555
C128A C127A 1_555 1_555
H109A C128A 1_555 1_555
C129A C128A 1_555 1_555
C130A C126A 1_555 1_555
H110A C130A 1_555 1_555
C131A H111A 1_555 1_555
H112A C131A 1_555 1_555
H113A C131A 1_555 1_555
C132A C131A 1_555 1_555
C133A C132A 1_555 1_555
H114A C133A 1_555 1_555
C134A C133A 1_555 1_555
H115A C134A 1_555 1_555
C135A C134A 1_555 1_555
C136A C135A 1_555 1_555
H116A C136A 1_555 1_555
C137A C132A 1_555 1_555
H117A C137A 1_555 1_555
C138A H118A 1_555 1_555
C139A C138A 1_555 1_555
N4A Fe4 1_555 1_555
C140A N4A 1_555 1_555
H119A C140A 1_555 1_555
C141A C140A 1_555 1_555
H120A C141A 1_555 1_555
C142A C90A 1_555 1_555
C143A C139A 1_555 1_555
H121A C143A 1_555 1_555
C144A H122A 1_555 1_555
H123A C144A 1_555 1_555
H124A C144A 1_555 1_555
C145A C144A 1_555 1_555
C146A C145A 1_555 1_555
H125A C146A 1_555 1_555
C147A C146A 1_555 1_555
H126A C147A 1_555 1_555
C148A C147A 1_555 1_555
C149A C148A 1_555 1_555
H127A C149A 1_555 1_555
C150A C145A 1_555 1_555
H128A C150A 1_555 1_555
C151A H129A 1_555 1_555
C152A C151A 1_555 1_555
N5A Fe4 1_555 1_555
C153A N5A 1_555 1_555
H130A C153A 1_555 1_555
C154A C153A 1_555 1_555
H131A C154A 1_555 1_555
C155A C129A 1_555 1_555
C156A C152A 1_555 1_555
H132A C156A 1_555 1_555
N6A C5A 1_555 1_555
N7A C9A 1_555 1_555
N8A C19A 1_555 1_555
N9A C31A 1_555 1_555
N10A C35A 1_555 1_555
N11A C42A 1_555 1_555
N12A C45A 1_555 1_555
N13A C57A 1_555 1_555
N14A C61A 1_555 1_555
N15A C68A 1_555 1_555
N16A C71A 1_555 1_555
N17A C83A 1_555 1_555
N18A C87A 1_555 1_555
N19A C96A 1_555 1_555
N20A C100A 1_555 1_555
N21A Fe3 1_555 1_555
N22A C122A 1_555 1_555
N23A Fe4 1_555 1_555
N24A Fe4 1_555 1_555
Fe1A N6A 1_555 1_555
Fe2A N1A 1_555 1_555
Fe3A N2 1_555 1_555
Fe4A N4 1_555 1_555
C6 C7 1_555 1_555
C8 N6 1_555 1_555
C10 N7 1_555 1_555
C12 C13 1_555 1_555
C17 C18 1_555 1_555
C20 N8 1_555 1_555
C24 C25 1_555 1_555
C32 C33 1_555 1_555
C34 N9 1_555 1_555
C36 N10 1_555 1_555
C38 C39 1_555 1_555
C43 C44 1_555 1_555
C43 N11 1_555 1_555
C46 N12 1_555 1_555
C50 C51 1_555 1_555
C58 C59 1_555 1_555
C60 N13 1_555 1_555
C62 N14 1_555 1_555
C64 C65 1_555 1_555
C69 C70 1_555 1_555
C69 N15 1_555 1_555
C72 N16 1_555 1_555
C76 C77 1_555 1_555
C84 C85 1_555 1_555
C86 N17 1_555 1_555
C88 N18 1_555 1_555
C90 C91 1_555 1_555
C97 C98 1_555 1_555
C99 N19 1_555 1_555
C101 N20 1_555 1_555
C103 C104 1_555 1_555
C110 C111 1_555 1_555
C112 N21 1_555 1_555
C115 C116 1_555 1_555
C116 C117 1_555 1_555
C123 C124 1_555 1_555
C125 N22 1_555 1_555
C129 C130 1_555 1_555
C136 C137 1_555 1_555
C138 N23 1_555 1_555
C141 C142 1_555 1_555
C142 C143 1_555 1_555
C149 C150 1_555 1_555
C151 N24 1_555 1_555
N5 Fe4A 1_555 1_555
C154 C155 1_555 1_555
C155 C156 1_555 1_555
N7 Fe1 1_555 1_555
N8 Fe2 1_555 1_555
N9 Fe1 1_555 1_555
N10 Fe1 1_555 1_555
N11 Fe3 1_555 1_555
N12 Fe3 1_555 1_555
N13 Fe1 1_555 1_555
N14 Fe1 1_555 1_555
N16 Fe4 1_555 1_555
N17 Fe2 1_555 1_555
N18 Fe2 1_555 1_555
N19 Fe2 1_555 1_555
N20 Fe2 1_555 1_555
N21 Fe3A 1_555 1_555
N22 Fe3 1_555 1_555
N23 Fe4A 1_555 1_555
N24 Fe4A 1_555 1_555
C6A C7A 1_555 1_555
C8A N6A 1_555 1_555
C10A N7A 1_555 1_555
C12A C13A 1_555 1_555
C17A C18A 1_555 1_555
C20A N8A 1_555 1_555
C24A C25A 1_555 1_555
C32A C33A 1_555 1_555
C34A N9A 1_555 1_555
C36A N10A 1_555 1_555
C38A C39A 1_555 1_555
C43A C44A 1_555 1_555
C43A N11A 1_555 1_555
C46A N12A 1_555 1_555
C50A C51A 1_555 1_555
C58A C59A 1_555 1_555
C60A N13A 1_555 1_555
C62A N14A 1_555 1_555
C64A C65A 1_555 1_555
C69A C70A 1_555 1_555
C69A N15A 1_555 1_555
C72A N16A 1_555 1_555
C76A C77A 1_555 1_555
C84A C85A 1_555 1_555
C86A N17A 1_555 1_555
C88A N18A 1_555 1_555
C90A C91A 1_555 1_555
C97A C98A 1_555 1_555
C99A N19A 1_555 1_555
C101A N20A 1_555 1_555
C103A C104A 1_555 1_555
C109A N21A 1_555 1_555
C110A C111A 1_555 1_555
C112A N21A 1_555 1_555
C113A N2A 1_555 1_555
C115A C116A 1_555 1_555
C116A C117A 1_555 1_555
C123A C124A 1_555 1_555
C125A N22A 1_555 1_555
N3A Fe3A 1_555 1_555
C129A C130A 1_555 1_555
C135A N23A 1_555 1_555
C136A C137A 1_555 1_555
C138A N23A 1_555 1_555
C139A N4A 1_555 1_555
C141A C142A 1_555 1_555
C142A C143A 1_555 1_555
C148A N24A 1_555 1_555
C149A C150A 1_555 1_555
C151A N24A 1_555 1_555
C152A N5A 1_555 1_555
C154A C155A 1_555 1_555
C155A C156A 1_555 1_555
N7A Fe1A 1_555 1_555
N8A Fe2A 1_555 1_555
N9A Fe1A 1_555 1_555
N10A Fe1A 1_555 1_555
N11A Fe3A 1_555 1_555
N12A Fe3A 1_555 1_555
N13A Fe1A 1_555 1_555
N14A Fe1A 1_555 1_555
N15A Fe4A 1_555 1_555
N16A Fe4A 1_555 1_555
N17A Fe2A 1_555 1_555
N18A Fe2A 1_555 1_555
N19A Fe2A 1_555 1_555
N20A Fe2A 1_555 1_555
N22A Fe3A 1_555 1_555

#END
