
#######################################################################
#
#                 Cambridge Crystallographic Data Centre
#                                CCDC 
#
#######################################################################
#
# If this CIF has been generated from an entry in the Cambridge 
# Structural Database, then it will include bibliographic, chemical, 
# crystal, experimental, refinement or atomic coordinate data resulting 
# from the CCDC's data processing and validation procedures.
#
#######################################################################

data_PEWSIV
_chemical_formula_moiety         
'C390 H330 Fe10 N60 O30 20+,10(O4 S1 2-),60(H2 O1)'
_chemical_name_systematic        
"pentadecakis(\m~2~-(4,4'-bis((Pyridin-2-ylmethylene)amino)biphenyl-2,2'-diyl)dimethanol)-deca-iron decakis(sulfate) hexacontahydrate"
_symmetry_cell_setting           monoclinic
_symmetry_space_group_name_H-M   'C 2/c'
_symmetry_Int_Tables_number      15
_space_group_name_Hall           '-C 2yn'
loop_
_symmetry_equiv_pos_site_id
_symmetry_equiv_pos_as_xyz
1 x,y,z
2 -x,y,1/2-z
3 1/2+x,1/2+y,z
4 1/2-x,1/2+y,1/2-z
5 -x,-y,-z
6 x,-y,1/2+z
7 1/2-x,1/2-y,-z
8 1/2+x,1/2-y,1/2+z
_cell_length_a                   49.155(16)
_cell_length_b                   34.097(11)
_cell_length_c                   37.358(12)
_cell_angle_alpha                90
_cell_angle_beta                 106.486(4)
_cell_angle_gamma                90
_cell_volume                     60039.3
_exptl_crystal_colour            purple
_exptl_crystal_description       tablet
_cell_formula_units_Z            4
loop_
_atom_site_label
_atom_site_type_symbol
_atom_site_fract_x
_atom_site_fract_y
_atom_site_fract_z
C1 C 0.26818(10) 0.47023(14) 0.66571(14)
N1 N 0.25934(8) 0.50097(17) 0.68417(12)
C2 C 0.27623(13) 0.53415(14) 0.69416(13)
H1 H 0.2702 0.5552 0.7068
C3 C 0.30195(12) 0.53659(17) 0.68570(17)
H2 H 0.3135 0.5593 0.6925
C4 C 0.31078(9) 0.5059(2) 0.66724(17)
H3 H 0.3284 0.5075 0.6615
C5 C 0.29390(12) 0.47268(18) 0.65725(15)
H4 H 0.2999 0.4517 0.6446
C6 C 0.25054(17) 0.4388(2) 0.65874(18)
H5 H 0.2547 0.4164 0.6462
C7 C 0.20908(15) 0.40767(19) 0.66560(16)
C8 C 0.18005(17) 0.4112(2) 0.64794(14)
H6 H 0.1728 0.4351 0.6359
C9 C 0.16233(17) 0.3813(2) 0.64778(14)
C10 C 0.17249(17) 0.3432(2) 0.66350(17)
C11 C 0.20155(19) 0.3420(2) 0.67902(19)
H7 H 0.2094 0.3175 0.6888
C12 C 0.21987(15) 0.37204(19) 0.68167(18)
H8 H 0.2395 0.3690 0.6941
C13 C 0.1319(2) 0.3846(2) 0.6300(2)
H9 H 0.1259 0.3635 0.6112
H10 H 0.1217 0.3809 0.6491
C14 C 0.15272(15) 0.3119(2) 0.66515(16)
C15 C 0.13781(16) 0.3118(2) 0.69113(19)
H11 H 0.1398 0.3337 0.7074
C16 C 0.12070(16) 0.2829(2) 0.69489(16)
H12 H 0.1109 0.2843 0.7134
C17 C 0.11720(13) 0.2492(2) 0.67057(17)
C18 C 0.13155(15) 0.2476(2) 0.64213(16)
H13 H 0.1286 0.2269 0.6244
C19 C 0.15071(17) 0.2797(2) 0.64226(19)
C20 C 0.1647(3) 0.2776(3) 0.6113(3)
H14 H 0.1561 0.2980 0.5927
H15 H 0.1850 0.2843 0.6219
C21 C 0.09954(16) 0.2024(2) 0.7053(2)
H16 H 0.1136 0.2102 0.7273
C22 C 0.07974(11) 0.17411(14) 0.70703(15)
N2 N 0.05967(12) 0.16676(14) 0.67311(12)
C23 C 0.03921(11) 0.13797(17) 0.67068(15)
H17 H 0.0255 0.1329 0.6475
C24 C 0.03882(14) 0.11651(15) 0.7022(2)
H18 H 0.0248 0.0968 0.7005
C25 C 0.05889(16) 0.12385(18) 0.73608(16)
H19 H 0.0586 0.1092 0.7576
C26 C 0.07935(13) 0.15265(19) 0.73851(12)
H20 H 0.0931 0.1577 0.7617
C27 C 0.24488(15) 0.5031(3) 0.77203(17)
C28 C 0.25451(15) 0.4373(3) 0.7545(2)
H21 H 0.2540 0.4175 0.7364
C29 C 0.2680(2) 0.4308(4) 0.7970(3)
H22 H 0.2767 0.4064 0.8057
C30 C 0.2674(2) 0.4587(4) 0.8210(3)
H23 H 0.2747 0.4532 0.8469
C31 C 0.25647(16) 0.4970(3) 0.8100(2)
H24 H 0.2571 0.5172 0.8278
C32 C 0.23119(13) 0.5384(2) 0.75776(17)
H25 H 0.2288 0.5591 0.7736
C33 C 0.20783(12) 0.57576(16) 0.70485(13)
C34 C 0.21366(12) 0.59378(19) 0.67456(15)
H26 H 0.2277 0.5829 0.6644
C35 C 0.19912(11) 0.62791(18) 0.65873(15)
C36 C 0.17751(12) 0.64339(17) 0.67435(14)
C37 C 0.17174(13) 0.62398(19) 0.70469(14)
H27 H 0.1573 0.6338 0.7146
C38 C 0.18661(12) 0.59120(16) 0.72005(13)
H28 H 0.1828 0.5788 0.7408
C39 C 0.20526(19) 0.6427(4) 0.6263(3)
H29 H 0.1871 0.6424 0.6062
H30 H 0.2104 0.6706 0.6314
C40 C 0.16251(13) 0.67958(19) 0.65904(14)
C41 C 0.13393(14) 0.67756(18) 0.63566(14)
C42 C 0.11914(11) 0.71221(15) 0.62357(12)
H31 H 0.1002 0.7111 0.6080
C43 C 0.13158(11) 0.74729(16) 0.63382(13)
C44 C 0.15907(13) 0.74902(18) 0.65609(16)
H32 H 0.1681 0.7736 0.6634
C45 C 0.17344(13) 0.7143(2) 0.66763(16)
H33 H 0.1925 0.7159 0.6828
C46 C 0.12054(14) 0.6384(2) 0.62308(17)
H34 H 0.1319 0.6246 0.6089
H35 H 0.1209 0.6224 0.6453
C47 C 0.12490(12) 0.80969(19) 0.60645(17)
H36 H 0.1414 0.8053 0.5985
C48 C 0.11009(12) 0.84615(17) 0.59867(17)
C49 C 0.06989(14) 0.87780(18) 0.60602(18)
H37 H 0.0532 0.8781 0.6141
C50 C 0.0772(2) 0.9110(2) 0.5884(3)
H38 H 0.0657 0.9339 0.5853
C51 C 0.1005(2) 0.9106(3) 0.5759(3)
H39 H 0.1054 0.9331 0.5640
C52 C 0.11740(17) 0.8772(2) 0.5806(2)
H40 H 0.1336 0.8761 0.5715
C53 C 0.17150(12) 0.51464(15) 0.64349(12)
C54 C 0.20866(15) 0.5225(2) 0.61651(14)
H41 H 0.2281 0.5187 0.6178
C55 C 0.19165(17) 0.5387(2) 0.58657(18)
H42 H 0.1992 0.5473 0.5671
C56 C 0.16365(17) 0.5433(2) 0.58275(13)
H43 H 0.1515 0.5540 0.5605
C57 C 0.15239(15) 0.5317(2) 0.61347(13)
H44 H 0.1331 0.5357 0.6127
C58 C 0.16367(12) 0.49904(15) 0.67530(12)
H45 H 0.1451 0.5012 0.6779
C59 C 0.17788(12) 0.46638(16) 0.73260(11)
C60 C 0.18713(13) 0.42899(18) 0.74473(14)
H46 H 0.1967 0.4137 0.7307
C61 C 0.18271(13) 0.41333(15) 0.77712(12)
C62 C 0.16777(12) 0.43560(16) 0.79700(12)
C63 C 0.15724(11) 0.47198(18) 0.78387(13)
H47 H 0.1466 0.4865 0.7970
C64 C 0.16198(12) 0.48825(15) 0.75102(12)
H48 H 0.1545 0.5132 0.7419
C65 C 0.1906(3) 0.3707(3) 0.7885(2)
H49 H 0.2115 0.3689 0.7966
H50 H 0.1839 0.3649 0.8105
C66 C 0.16349(11) 0.41946(15) 0.83193(12)
C67 C 0.18169(12) 0.42548(16) 0.86635(12)
C68 C 0.17778(12) 0.41028(14) 0.89860(12)
H51 H 0.1910 0.4159 0.9220
C69 C 0.15435(12) 0.38657(15) 0.89667(11)
C70 C 0.13493(12) 0.37973(17) 0.86267(13)
H52 H 0.1188 0.3637 0.8613
C71 C 0.13877(14) 0.39658(18) 0.82907(12)
H53 H 0.1251 0.3925 0.8056
C72 C 0.20866(17) 0.4532(3) 0.86854(16)
H54 H 0.2211 0.4398 0.8556
H55 H 0.2019 0.4777 0.8548
C73 C 0.12765(12) 0.37081(16) 0.93650(13)
H56 H 0.1123 0.3849 0.9206
C74 C 0.12504(13) 0.35146(16) 0.96992(13)
C75 C 0.14880(15) 0.3141(2) 1.02012(13)
H57 H 0.1650 0.2990 1.0322
C76 C 0.12719(19) 0.3154(2) 1.03596(19)
H58 H 0.1291 0.3042 1.0598
C77 C 0.10215(19) 0.3337(2) 1.0162(2)
H59 H 0.0861 0.3332 1.0255
C78 C 0.10063(15) 0.3531(2) 0.98177(15)
H60 H 0.0840 0.3664 0.9678
C79 C 0.04627(10) 0.73688(17) 0.59303(12)
C80 C 0.05310(13) 0.78598(19) 0.55382(14)
H61 H 0.0616 0.8100 0.5499
C81 C 0.03573(15) 0.7650(3) 0.52367(15)
H62 H 0.0325 0.7750 0.4991
C82 C 0.02332(14) 0.7305(2) 0.52878(18)
H63 H 0.0113 0.7168 0.5081
C83 C 0.02846(12) 0.71593(18) 0.56390(13)
H64 H 0.0201 0.6920 0.5684
C84 C 0.05441(11) 0.72285(16) 0.63215(11)
H65 H 0.0472 0.6992 0.6394
C85 C 0.08058(9) 0.73301(15) 0.69335(11)
C86 C 0.10848(11) 0.73359(18) 0.71331(12)
H66 H 0.1223 0.7416 0.7015
C87 C 0.11705(10) 0.7226(2) 0.75071(13)
C88 C 0.09674(10) 0.71230(15) 0.76834(11)
C89 C 0.06890(11) 0.71106(17) 0.74856(12)
H67 H 0.0553 0.7028 0.7607
C90 C 0.05981(11) 0.72151(17) 0.71104(12)
H68 H 0.0402 0.7210 0.6976
C91 C 0.1476(3) 0.7119(5) 0.7693(4)
H69 H 0.1526 0.7220 0.7952
H70 H 0.1489 0.6830 0.7709
C92 C 0.10590(11) 0.70107(16) 0.80930(12)
C93 C 0.10754(10) 0.73000(15) 0.83703(12)
C94 C 0.11692(10) 0.71920(15) 0.87405(11)
H71 H 0.1191 0.7387 0.8928
C95 C 0.12307(9) 0.68173(15) 0.88420(10)
C96 C 0.12121(11) 0.65181(15) 0.85748(12)
H72 H 0.1262 0.6255 0.8648
C97 C 0.11169(11) 0.66257(18) 0.81983(13)
H73 H 0.1092 0.6429 0.8012
C98 C 0.10038(18) 0.7705(2) 0.82485(16)
H74 H 0.0818 0.7707 0.8056
H75 H 0.1147 0.7805 0.8131
C99 C 0.12394(10) 0.64064(16) 0.93607(12)
H76 H 0.1096 0.6247 0.9203
C100 C 0.13534(11) 0.63278(15) 0.97456(13)
C101 C 0.16864(13) 0.65092(19) 1.02969(12)
H77 H 0.1843 0.6667 1.0426
C102 C 0.15922(18) 0.6231(2) 1.04828(15)
H78 H 0.1675 0.6209 1.0745
C103 C 0.13792(18) 0.5976(3) 1.03089(17)
H79 H 0.1317 0.5779 1.0447
C104 C 0.12586(14) 0.60119(19) 0.99304(15)
H80 H 0.1118 0.5833 0.9797
C105 C 0.22159(13) 0.31191(16) 1.02724(14)
C106 C 0.20479(12) 0.25579(17) 0.99384(14)
H81 H 0.1922 0.2428 0.9732
C107 C 0.22485(15) 0.2338(2) 1.02139(18)
H82 H 0.2261 0.2063 1.0185
C108 C 0.24158(16) 0.2510(2) 1.0507(2)
H83 H 0.2545 0.2357 1.0692
C109 C 0.24076(14) 0.29114(19) 1.05506(14)
H84 H 0.2528 0.3039 1.0762
C110 C 0.21905(15) 0.35298(18) 1.02684(13)
H85 H 0.2306 0.3685 1.0464
C111 C 0.19940(14) 0.41079(17) 0.99564(12)
C112 C 0.17398(14) 0.43019(16) 0.99155(11)
H86 H 0.1579 0.4160 0.9936
C113 C 0.17180(15) 0.47000(16) 0.98458(12)
C114 C 0.19494(14) 0.49122(17) 0.98275(14)
C115 C 0.22052(15) 0.47273(18) 0.98864(15)
H87 H 0.2368 0.4870 0.9874
C116 C 0.22241(16) 0.43092(18) 0.99682(13)
H88 H 0.2403 0.4182 1.0030
C117 C 0.1443(2) 0.4909(2) 0.9802(2)
H89 H 0.1382 0.5030 0.9551
H90 H 0.1473 0.5122 0.9989
C118 C 0.19263(13) 0.53386(17) 0.97181(14)
C119 C 0.20409(14) 0.56264(19) 0.99827(15)
C120 C 0.20321(11) 0.60147(17) 0.98732(14)
H91 H 0.2108 0.6213 1.0053
C121 C 0.19114(11) 0.61183(16) 0.94959(13)
C122 C 0.17992(13) 0.58248(17) 0.92349(15)
H92 H 0.1715 0.5890 0.8980
C123 C 0.18113(14) 0.54416(18) 0.93487(16)
H93 H 0.1739 0.5242 0.9169
C124 C 0.21597(18) 0.5561(3) 1.0400(3)
H94 H 0.2080 0.5318 1.0476
H95 H 0.2112 0.5784 1.0540
C125 C 0.19503(11) 0.66249(17) 0.90848(13)
H96 H 0.2027 0.6446 0.8944
C126 C 0.19032(11) 0.70289(18) 0.89809(13)
C127 C 0.17608(10) 0.76243(17) 0.91449(14)
H97 H 0.1697 0.7789 0.9310
C128 C 0.18260(12) 0.7788(2) 0.88243(19)
H98 H 0.1795 0.8060 0.8772
C129 C 0.19304(13) 0.7561(2) 0.85960(15)
H99 H 0.1978 0.7674 0.8389
C130 C 0.19641(11) 0.7193(2) 0.86631(13)
H100 H 0.2030 0.7029 0.8499
C131 C 0.19403(13) 0.30907(17) 0.89890(13)
C132 C 0.22828(14) 0.34914(16) 0.93506(14)
H101 H 0.2354 0.3640 0.9573
C133 C 0.24426(13) 0.34878(18) 0.90886(17)
H102 H 0.2618 0.3623 0.9132
C134 C 0.23232(15) 0.3267(2) 0.87560(16)
H103 H 0.2418 0.3260 0.8567
C135 C 0.20739(14) 0.30653(18) 0.87044(14)
H104 H 0.1995 0.2915 0.8485
C136 C 0.16859(13) 0.28678(15) 0.89743(12)
H105 H 0.1598 0.2704 0.8768
C137 C 0.13260(13) 0.27201(17) 0.92476(12)
C138 C 0.12989(14) 0.25221(16) 0.95581(15)
H106 H 0.1457 0.2494 0.9773
C139 C 0.10283(15) 0.2359(2) 0.95520(17)
C140 C 0.08042(16) 0.2406(2) 0.92470(17)
C141 C 0.08349(16) 0.25996(19) 0.89307(16)
H107 H 0.0678 0.2623 0.8713
C142 C 0.11001(14) 0.27582(17) 0.89388(15)
H108 H 0.1122 0.2894 0.8727
C143 C 0.1001(3) 0.2133(3) 0.9890(4)
H109 H 0.0843 0.2244 0.9973
H110 H 0.0954 0.1856 0.9818
C144 C 0.05125(15) 0.2223(3) 0.92272(17)
C145 C 0.0295(3) 0.2456(2) 0.9257(2)
C146 C 0.00261(15) 0.2322(3) 0.92367(14)
H111 H -0.0119 0.2492 0.9269
C147 C -0.00188(18) 0.1936(3) 0.91685(19)
C148 C 0.01893(19) 0.1694(2) 0.9129(2)
H112 H 0.0148 0.1428 0.9060
C149 C 0.0468(2) 0.1838(3) 0.9191(2)
H113 H 0.0622 0.1664 0.9207
C150 C 0.0353(2) 0.2841(7) 0.9355(2)
H114 H 0.0435 0.2959 0.9167
H115 H 0.0505 0.2843 0.9595
C151 C -0.03613(19) 0.1494(3) 0.9261(2)
H116 H -0.0217 0.1382 0.9459
C152 C -0.06392(12) 0.13496(18) 0.91431(18)
N3 N -0.08267(14) 0.15576(13) 0.88577(17)
C153 C -0.11066(13) 0.14343(17) 0.87205(16)
H117 H -0.1235 0.1576 0.8525
C154 C -0.11990(13) 0.11030(19) 0.8869(2)
H118 H -0.1390 0.1019 0.8775
C155 C -0.10115(18) 0.08950(16) 0.9154(2)
H119 H -0.1075 0.0669 0.9256
C156 C -0.07316(16) 0.10183(18) 0.92914(17)
H120 H -0.0603 0.0876 0.9487
C157 C 0.19711(11) 0.74125(19) 1.01698(14)
C158 C 0.22921(12) 0.69797(18) 1.00432(15)
H121 H 0.2332 0.6776 0.9892
C159 C 0.25076(13) 0.7123(2) 1.03305(17)
H122 H 0.2694 0.7018 1.0379
C160 C 0.24528(13) 0.7424(2) 1.05514(17)
H123 H 0.2601 0.7519 1.0756
C161 C 0.21872(14) 0.7585(2) 1.04764(16)
H124 H 0.2147 0.7798 1.0618
C162 C 0.16854(11) 0.75610(18) 1.00607(13)
H125 H 0.1627 0.7778 1.0180
C163 C 0.12244(10) 0.75075(17) 0.96495(12)
C164 C 0.10054(12) 0.72509(19) 0.96231(14)
H126 H 0.1047 0.6993 0.9721
C165 C 0.07255(11) 0.7354(2) 0.94593(13)
C166 C 0.06691(12) 0.7738(2) 0.93304(16)
C167 C 0.08913(12) 0.80054(19) 0.93705(16)
H127 H 0.0851 0.8268 0.9286
C168 C 0.11732(12) 0.78916(19) 0.95338(15)
H128 H 0.1325 0.8073 0.9564
C169 C 0.04887(15) 0.7067(2) 0.94490(19)
H129 H 0.0378 0.7162 0.9616
H130 H 0.0359 0.7055 0.9192
C170 C 0.03753(12) 0.78590(18) 0.91202(17)
C171 C 0.00044(13) 0.7836(2) 0.85437(16)
H131 H -0.0064 0.7755 0.8291
C172 C -0.01760(12) 0.80624(18) 0.87067(15)
C173 C -0.00661(13) 0.8188(2) 0.90820(16)
H132 H -0.0180 0.8343 0.9195
C174 C 0.0405(3) 0.7495(5) 0.8518(4)
H133 H 0.0583 0.7636 0.8528
H134 H 0.0465 0.7254 0.8668
O1 O 0.0309(4) 0.7357(6) 0.8146(4)
H135 H 0.0345 0.7116 0.8142
C175 C 0.02743(12) 0.7734(2) 0.87484(16)
C176 C 0.02123(11) 0.80842(17) 0.92878(15)
H136 H 0.0287 0.8168 0.9539
C177 C -0.05031(14) 0.8283(2) 0.81739(17)
H137 H -0.0355 0.8358 0.8072
C178 C -0.08056(12) 0.8318(2) 0.79641(16)
C179 C -0.12581(13) 0.8220(2) 0.79911(17)
H138 H -0.1389 0.8130 0.8117
C180 C -0.13583(17) 0.8385(3) 0.7630(2)
H139 H -0.1555 0.8431 0.7524
C181 C -0.1161(2) 0.8483(3) 0.7425(2)
H140 H -0.1224 0.8560 0.7170
C182 C -0.08874(18) 0.8462(3) 0.7607(2)
H141 H -0.0749 0.8546 0.7491
C183 C 0.06333(13) 0.2757(2) 0.60200(15)
C184 C 0.08250(18) 0.2312(3) 0.56831(18)
H142 H 0.0853 0.2052 0.5611
C185 C 0.0911(2) 0.2644(3) 0.5493(2)
H143 H 0.1041 0.2607 0.5350
C186 C 0.08157(17) 0.2967(4) 0.55199(19)
H144 H 0.0813 0.3152 0.5329
C187 C 0.07026(15) 0.3094(3) 0.58304(17)
H145 H 0.0679 0.3359 0.5895
C188 C 0.05034(13) 0.2807(2) 0.63293(14)
H146 H 0.0459 0.3055 0.6414
C189 C 0.03196(12) 0.25000(17) 0.67649(13)
C190 C 0.01018(15) 0.2254(2) 0.67576(15)
H147 H 0.0037 0.2081 0.6552
C191 C -0.00327(13) 0.22452(19) 0.70446(15)
C192 C 0.00627(13) 0.2507(2) 0.73401(13)
C193 C 0.02868(14) 0.2755(2) 0.73479(14)
H148 H 0.0354 0.2925 0.7555
C194 C 0.04187(13) 0.27630(19) 0.70578(14)
H149 H 0.0569 0.2940 0.7063
C195 C -0.0290(3) 0.1968(4) 0.7021(3)
H150 H -0.0229 0.1758 0.7210
H151 H -0.0441 0.2120 0.7087
Fe1 Fe 0.222591(18) 0.49069(3) 0.69379(2)
Fe2 Fe 0.06403(2) 0.20081(3) 0.63207(2)
Fe3 Fe 0.080048(14) 0.79627(2) 0.635320(17)
Fe4 Fe 0.178435(16) 0.33128(2) 0.962483(16)
Fe5 Fe 0.168436(13) 0.69314(2) 0.959032(16)
N4 N 0.22735(12) 0.44036(16) 0.66992(12)
N5 N 0.09857(11) 0.21857(17) 0.67230(12)
N6 N 0.24336(11) 0.47415(18) 0.74530(13)
N7 N 0.22151(9) 0.54105(15) 0.71976(11)
N8 N 0.11581(8) 0.78306(13) 0.62413(11)
N9 N 0.08614(10) 0.84597(14) 0.61149(12)
N10 N 0.19921(11) 0.51096(14) 0.64594(11)
N11 N 0.18398(9) 0.48212(13) 0.69963(10)
N12 N 0.15136(9) 0.36807(11) 0.92936(9)
N13 N 0.14889(12) 0.33302(12) 0.98805(10)
N14 N 0.05755(8) 0.77131(14) 0.58891(9)
N15 N 0.07202(8) 0.74507(12) 0.65577(9)
N16 N 0.13440(8) 0.67120(12) 0.92363(9)
N17 N 0.15617(9) 0.65717(12) 0.99222(9)
N18 N 0.20370(9) 0.29390(13) 0.99695(10)
N19 N 0.20054(10) 0.36888(13) 0.99907(10)
N20 N 0.18826(8) 0.65152(12) 0.93827(10)
N21 N 0.17899(7) 0.72398(12) 0.92101(10)
N22 N 0.20382(10) 0.32996(12) 0.93047(10)
N23 N 0.15835(10) 0.29052(12) 0.92611(9)
N24 N -0.03198(14) 0.18037(19) 0.90679(17)
N25 N 0.20227(8) 0.71189(12) 0.99663(10)
N26 N 0.15193(9) 0.73784(12) 0.97921(10)
N27 N -0.04555(8) 0.81393(13) 0.85108(11)
N28 N -0.09832(10) 0.81900(13) 0.81531(11)
N29 N 0.07027(11) 0.2378(2) 0.59658(12)
N30 N 0.04565(10) 0.24749(16) 0.64732(11)
O2 O 0.12450(17) 0.4216(2) 0.61235(16)
H152 H 0.1184 0.4364 0.6263
O3 O 0.1629(4) 0.2411(5) 0.5924(5)
H153 H 0.1526 0.2256 0.6002
O4 O 0.2260(3) 0.6265(4) 0.6106(3)
H154 H 0.2267 0.6397 0.5919
O5 O 0.09209(12) 0.64188(15) 0.60029(17)
H155 H 0.0910 0.6603 0.5850
O6 O 0.1824(5) 0.3472(3) 0.7675(3)
H156 H 0.1647 0.3461 0.7624
O7 O 0.2246(2) 0.4626(5) 0.9041(2)
H157 H 0.2146 0.4603 0.9189
O8 O 0.1687(2) 0.7257(6) 0.7523(3)
H158 H 0.1611 0.7297 0.7294
O9 O 0.0991(2) 0.7972(2) 0.8551(2)
H159 H 0.0843 0.8108 0.8483
O10 O 0.12090(15) 0.46414(19) 0.9849(2)
H160 H 0.1112 0.4561 0.9638
O11 O 0.2519(4) 0.5519(3) 1.0487(3)
H161 H 0.2595 0.5550 1.0711
O12 O 0.1241(4) 0.2146(9) 1.0177(6)
H162 H 0.1337 0.2344 1.0154
O13 O 0.01224(14) 0.3118(2) 0.93995(15)
H163 H 0.0047 0.3230 0.9195
O14 O 0.05904(10) 0.6697(2) 0.9559(2)
H164 H 0.0454 0.6546 0.9552
O15 O -0.0398(3) 0.1804(3) 0.6691(3)
H165 H -0.0498 0.1617 0.6712
C183A C -0.06333(13) 0.2757(2) 0.89800(15)
C184A C -0.08250(18) 0.2312(3) 0.93169(18)
H142A H -0.0853 0.2052 0.9389
C185A C -0.0911(2) 0.2644(3) 0.9507(2)
H143A H -0.1041 0.2607 0.9650
C186A C -0.08157(17) 0.2967(4) 0.94801(19)
H144A H -0.0813 0.3152 0.9671
C187A C -0.07026(15) 0.3094(3) 0.91696(17)
H145A H -0.0679 0.3359 0.9105
C188A C -0.05034(13) 0.2807(2) 0.86707(14)
H146A H -0.0459 0.3055 0.8586
C189A C -0.03196(12) 0.25000(17) 0.82351(13)
C190A C -0.01018(15) 0.2254(2) 0.82424(15)
H147A H -0.0037 0.2081 0.8448
C191A C 0.00327(13) 0.22452(19) 0.79554(15)
C192A C -0.00627(13) 0.2507(2) 0.76599(13)
C193A C -0.02868(14) 0.2755(2) 0.76521(14)
H148A H -0.0354 0.2925 0.7445
C194A C -0.04187(13) 0.27630(19) 0.79422(14)
H149A H -0.0569 0.2940 0.7937
C195A C 0.0290(3) 0.1968(4) 0.7979(3)
H150A H 0.0229 0.1758 0.7790
H151A H 0.0441 0.2120 0.7913
N29A N -0.07027(11) 0.2378(2) 0.90342(12)
N30A N -0.04565(10) 0.24749(16) 0.85268(11)
O15A O 0.0398(3) 0.1804(3) 0.8309(3)
H165A H 0.0498 0.1617 0.8288
C1A C -0.26818(10) 0.47023(14) 0.83429(14)
N1A N -0.25934(8) 0.50097(17) 0.81583(12)
C2A C -0.27623(13) 0.53415(14) 0.80584(13)
H1A H -0.2702 0.5552 0.7932
C3A C -0.30195(12) 0.53659(17) 0.81430(17)
H2A H -0.3135 0.5593 0.8075
C4A C -0.31078(9) 0.5059(2) 0.83276(17)
H3A H -0.3284 0.5075 0.8385
C5A C -0.29390(12) 0.47268(18) 0.84275(15)
H4A H -0.2999 0.4517 0.8554
C6A C -0.25054(17) 0.4388(2) 0.84126(18)
H5A H -0.2547 0.4164 0.8538
C7A C -0.20908(15) 0.40767(19) 0.83440(16)
C8A C -0.18005(17) 0.4112(2) 0.85206(14)
H6A H -0.1728 0.4351 0.8641
C9A C -0.16233(17) 0.3813(2) 0.85222(14)
C10A C -0.17249(17) 0.3432(2) 0.83650(17)
C11A C -0.20155(19) 0.3420(2) 0.82098(19)
H7A H -0.2094 0.3175 0.8112
C12A C -0.21987(15) 0.37204(19) 0.81833(18)
H8A H -0.2395 0.3690 0.8059
C13A C -0.1319(2) 0.3846(2) 0.8700(2)
H9A H -0.1259 0.3635 0.8888
H10A H -0.1217 0.3809 0.8509
C14A C -0.15272(15) 0.3119(2) 0.83485(16)
C15A C -0.13781(16) 0.3118(2) 0.80887(19)
H11A H -0.1398 0.3337 0.7926
C16A C -0.12070(16) 0.2829(2) 0.80511(16)
H12A H -0.1109 0.2843 0.7866
C17A C -0.11720(13) 0.2492(2) 0.82943(17)
C18A C -0.13155(15) 0.2476(2) 0.85787(16)
H13A H -0.1286 0.2269 0.8756
C19A C -0.15071(17) 0.2797(2) 0.85774(19)
C20A C -0.1647(3) 0.2776(3) 0.8887(3)
H14A H -0.1561 0.2980 0.9073
H15A H -0.1850 0.2843 0.8781
C21A C -0.09954(16) 0.2024(2) 0.7947(2)
H16A H -0.1136 0.2102 0.7727
C22A C -0.07974(11) 0.17411(14) 0.79297(15)
N2A N -0.05967(12) 0.16676(14) 0.82689(12)
C23A C -0.03921(11) 0.13797(17) 0.82932(15)
H17A H -0.0255 0.1329 0.8525
C24A C -0.03882(14) 0.11651(15) 0.7978(2)
H18A H -0.0248 0.0968 0.7995
C25A C -0.05889(16) 0.12385(18) 0.76392(16)
H19A H -0.0586 0.1092 0.7424
C26A C -0.07935(13) 0.15265(19) 0.76149(12)
H20A H -0.0931 0.1577 0.7383
C27A C -0.24488(15) 0.5031(3) 0.72797(17)
C28A C -0.25451(15) 0.4373(3) 0.7455(2)
H21A H -0.2540 0.4175 0.7636
C29A C -0.2680(2) 0.4308(4) 0.7030(3)
H22A H -0.2767 0.4064 0.6943
C30A C -0.2674(2) 0.4587(4) 0.6790(3)
H23A H -0.2747 0.4532 0.6531
C31A C -0.25647(16) 0.4970(3) 0.6900(2)
H24A H -0.2571 0.5172 0.6722
C32A C -0.23119(13) 0.5384(2) 0.74224(17)
H25A H -0.2288 0.5591 0.7264
C33A C -0.20783(12) 0.57576(16) 0.79515(13)
C34A C -0.21366(12) 0.59378(19) 0.82544(15)
H26A H -0.2277 0.5829 0.8356
C35A C -0.19912(11) 0.62791(18) 0.84127(15)
C36A C -0.17751(12) 0.64339(17) 0.82565(14)
C37A C -0.17174(13) 0.62398(19) 0.79531(14)
H27A H -0.1573 0.6338 0.7854
C38A C -0.18661(12) 0.59120(16) 0.77995(13)
H28A H -0.1828 0.5788 0.7592
C39A C -0.20526(19) 0.6427(4) 0.8737(3)
H29A H -0.1871 0.6424 0.8938
H30A H -0.2104 0.6706 0.8686
C40A C -0.16251(13) 0.67958(19) 0.84096(14)
C41A C -0.13393(14) 0.67756(18) 0.86434(14)
C42A C -0.11914(11) 0.71221(15) 0.87643(12)
H31A H -0.1002 0.7111 0.8920
C43A C -0.13158(11) 0.74729(16) 0.86618(13)
C44A C -0.15907(13) 0.74902(18) 0.84391(16)
H32A H -0.1681 0.7736 0.8366
C45A C -0.17344(13) 0.7143(2) 0.83237(16)
H33A H -0.1925 0.7159 0.8172
C46A C -0.12054(14) 0.6384(2) 0.87692(17)
H34A H -0.1319 0.6246 0.8911
H35A H -0.1209 0.6224 0.8547
C47A C -0.12490(12) 0.80969(19) 0.89355(17)
H36A H -0.1414 0.8053 0.9015
C48A C -0.11009(12) 0.84615(17) 0.90133(17)
C49A C -0.06989(14) 0.87780(18) 0.89398(18)
H37A H -0.0532 0.8781 0.8859
C50A C -0.0772(2) 0.9110(2) 0.9116(3)
H38A H -0.0657 0.9339 0.9147
C51A C -0.1005(2) 0.9106(3) 0.9241(3)
H39A H -0.1054 0.9331 0.9360
C52A C -0.11740(17) 0.8772(2) 0.9194(2)
H40A H -0.1336 0.8761 0.9285
C53A C -0.17150(12) 0.51464(15) 0.85651(12)
C54A C -0.20866(15) 0.5225(2) 0.88349(14)
H41A H -0.2281 0.5187 0.8822
C55A C -0.19165(17) 0.5387(2) 0.91343(18)
H42A H -0.1992 0.5473 0.9329
C56A C -0.16365(17) 0.5433(2) 0.91725(13)
H43A H -0.1515 0.5540 0.9395
C57A C -0.15239(15) 0.5317(2) 0.88653(13)
H44A H -0.1331 0.5357 0.8873
C58A C -0.16367(12) 0.49904(15) 0.82470(12)
H45A H -0.1451 0.5012 0.8221
C59A C -0.17788(12) 0.46638(16) 0.76740(11)
C60A C -0.18713(13) 0.42899(18) 0.75527(14)
H46A H -0.1967 0.4137 0.7693
C61A C -0.18271(13) 0.41333(15) 0.72288(12)
C62A C -0.16777(12) 0.43560(16) 0.70300(12)
C63A C -0.15724(11) 0.47198(18) 0.71613(13)
H47A H -0.1466 0.4865 0.7030
C64A C -0.16198(12) 0.48825(15) 0.74898(12)
H48A H -0.1545 0.5132 0.7581
C65A C -0.1906(3) 0.3707(3) 0.7115(2)
H49A H -0.2115 0.3689 0.7034
H50A H -0.1839 0.3649 0.6895
C66A C -0.16349(11) 0.41946(15) 0.66807(12)
C67A C -0.18169(12) 0.42548(16) 0.63365(12)
C68A C -0.17778(12) 0.41028(14) 0.60140(12)
H51A H -0.1910 0.4159 0.5780
C69A C -0.15435(12) 0.38657(15) 0.60333(11)
C70A C -0.13493(12) 0.37973(17) 0.63733(13)
H52A H -0.1188 0.3637 0.6387
C71A C -0.13877(14) 0.39658(18) 0.67093(12)
H53A H -0.1251 0.3925 0.6944
C72A C -0.20866(17) 0.4532(3) 0.63146(16)
H54A H -0.2211 0.4398 0.6444
H55A H -0.2019 0.4777 0.6452
C73A C -0.12765(12) 0.37081(16) 0.56350(13)
H56A H -0.1123 0.3849 0.5794
C74A C -0.12504(13) 0.35146(16) 0.53008(13)
C75A C -0.14880(15) 0.3141(2) 0.47988(13)
H57A H -0.1650 0.2990 0.4678
C76A C -0.12719(19) 0.3154(2) 0.46404(19)
H58A H -0.1291 0.3042 0.4402
C77A C -0.10215(19) 0.3337(2) 0.4838(2)
H59A H -0.0861 0.3332 0.4745
C78A C -0.10063(15) 0.3531(2) 0.51823(15)
H60A H -0.0840 0.3664 0.5322
C79A C -0.04627(10) 0.73688(17) 0.90697(12)
C80A C -0.05310(13) 0.78598(19) 0.94618(14)
H61A H -0.0616 0.8100 0.9501
C81A C -0.03573(15) 0.7650(3) 0.97633(15)
H62A H -0.0325 0.7750 1.0009
C82A C -0.02332(14) 0.7305(2) 0.97122(18)
H63A H -0.0113 0.7168 0.9919
C83A C -0.02846(12) 0.71593(18) 0.93610(13)
H64A H -0.0201 0.6920 0.9316
C84A C -0.05441(11) 0.72285(16) 0.86785(11)
H65A H -0.0472 0.6992 0.8606
C85A C -0.08058(9) 0.73301(15) 0.80665(11)
C86A C -0.10848(11) 0.73359(18) 0.78669(12)
H66A H -0.1223 0.7416 0.7985
C87A C -0.11705(10) 0.7226(2) 0.74929(13)
C88A C -0.09674(10) 0.71230(15) 0.73166(11)
C89A C -0.06890(11) 0.71106(17) 0.75144(12)
H67A H -0.0553 0.7028 0.7393
C90A C -0.05981(11) 0.72151(17) 0.78896(12)
H68A H -0.0402 0.7210 0.8024
C91A C -0.1476(3) 0.7119(5) 0.7307(4)
H69A H -0.1526 0.7220 0.7048
H70A H -0.1489 0.6830 0.7291
C92A C -0.10590(11) 0.70107(16) 0.69070(12)
C93A C -0.10754(10) 0.73000(15) 0.66297(12)
C94A C -0.11692(10) 0.71920(15) 0.62595(11)
H71A H -0.1191 0.7387 0.6072
C95A C -0.12307(9) 0.68173(15) 0.61580(10)
C96A C -0.12121(11) 0.65181(15) 0.64252(12)
H72A H -0.1262 0.6255 0.6352
C97A C -0.11169(11) 0.66257(18) 0.68017(13)
H73A H -0.1092 0.6429 0.6988
C98A C -0.10038(18) 0.7705(2) 0.67515(16)
H74A H -0.0818 0.7707 0.6944
H75A H -0.1147 0.7805 0.6869
C99A C -0.12394(10) 0.64064(16) 0.56393(12)
H76A H -0.1096 0.6247 0.5797
C100A C -0.13534(11) 0.63278(15) 0.52544(13)
C101A C -0.16864(13) 0.65092(19) 0.47031(12)
H77A H -0.1843 0.6667 0.4574
C102A C -0.15922(18) 0.6231(2) 0.45172(15)
H78A H -0.1675 0.6209 0.4255
C103A C -0.13792(18) 0.5976(3) 0.46911(17)
H79A H -0.1317 0.5779 0.4553
C104A C -0.12586(14) 0.60119(19) 0.50696(15)
H80A H -0.1118 0.5833 0.5203
C105A C -0.22159(13) 0.31191(16) 0.47276(14)
C106A C -0.20479(12) 0.25579(17) 0.50616(14)
H81A H -0.1922 0.2428 0.5268
C107A C -0.22485(15) 0.2338(2) 0.47861(18)
H82A H -0.2261 0.2063 0.4815
C108A C -0.24158(16) 0.2510(2) 0.4493(2)
H83A H -0.2545 0.2357 0.4308
C109A C -0.24076(14) 0.29114(19) 0.44494(14)
H84A H -0.2528 0.3039 0.4238
C110A C -0.21905(15) 0.35298(18) 0.47316(13)
H85A H -0.2306 0.3685 0.4536
C111A C -0.19940(14) 0.41079(17) 0.50436(12)
C112A C -0.17398(14) 0.43019(16) 0.50845(11)
H86A H -0.1579 0.4160 0.5064
C113A C -0.17180(15) 0.47000(16) 0.51542(12)
C114A C -0.19494(14) 0.49122(17) 0.51725(14)
C115A C -0.22052(15) 0.47273(18) 0.51136(15)
H87A H -0.2368 0.4870 0.5126
C116A C -0.22241(16) 0.43092(18) 0.50318(13)
H88A H -0.2403 0.4182 0.4970
C117A C -0.1443(2) 0.4909(2) 0.5198(2)
H89A H -0.1382 0.5030 0.5449
H90A H -0.1473 0.5122 0.5011
C118A C -0.19263(13) 0.53386(17) 0.52819(14)
C119A C -0.20409(14) 0.56264(19) 0.50173(15)
C120A C -0.20321(11) 0.60147(17) 0.51268(14)
H91A H -0.2108 0.6213 0.4947
C121A C -0.19114(11) 0.61183(16) 0.55041(13)
C122A C -0.17992(13) 0.58248(17) 0.57651(15)
H92A H -0.1715 0.5890 0.6020
C123A C -0.18113(14) 0.54416(18) 0.56513(16)
H93A H -0.1739 0.5242 0.5831
C124A C -0.21597(18) 0.5561(3) 0.4600(3)
H94A H -0.2080 0.5318 0.4524
H95A H -0.2112 0.5784 0.4460
C125A C -0.19503(11) 0.66249(17) 0.59152(13)
H96A H -0.2027 0.6446 0.6056
C126A C -0.19032(11) 0.70289(18) 0.60191(13)
C127A C -0.17608(10) 0.76243(17) 0.58551(14)
H97A H -0.1697 0.7789 0.5690
C128A C -0.18260(12) 0.7788(2) 0.61757(19)
H98A H -0.1795 0.8060 0.6228
C129A C -0.19304(13) 0.7561(2) 0.64040(15)
H99A H -0.1978 0.7674 0.6611
C130A C -0.19641(11) 0.7193(2) 0.63369(13)
H100A H -0.2030 0.7029 0.6501
C131A C -0.19403(13) 0.30907(17) 0.60110(13)
C132A C -0.22828(14) 0.34914(16) 0.56494(14)
H101A H -0.2354 0.3640 0.5427
C133A C -0.24426(13) 0.34878(18) 0.59114(17)
H102A H -0.2618 0.3623 0.5868
C134A C -0.23232(15) 0.3267(2) 0.62440(16)
H103A H -0.2418 0.3260 0.6433
C135A C -0.20739(14) 0.30653(18) 0.62956(14)
H104A H -0.1995 0.2915 0.6515
C136A C -0.16859(13) 0.28678(15) 0.60257(12)
H105A H -0.1598 0.2704 0.6232
C137A C -0.13260(13) 0.27201(17) 0.57524(12)
C138A C -0.12989(14) 0.25221(16) 0.54419(15)
H106A H -0.1457 0.2494 0.5227
C139A C -0.10283(15) 0.2359(2) 0.54480(17)
C140A C -0.08042(16) 0.2406(2) 0.57530(17)
C141A C -0.08349(16) 0.25996(19) 0.60693(16)
H107A H -0.0678 0.2623 0.6287
C142A C -0.11001(14) 0.27582(17) 0.60612(15)
H108A H -0.1122 0.2894 0.6273
C143A C -0.1001(3) 0.2133(3) 0.5110(4)
H109A H -0.0843 0.2244 0.5027
H110A H -0.0954 0.1856 0.5182
C144A C -0.05125(15) 0.2223(3) 0.57728(17)
C145A C -0.0295(3) 0.2456(2) 0.5743(2)
C146A C -0.00261(15) 0.2322(3) 0.57633(14)
H111A H 0.0119 0.2492 0.5731
C147A C 0.00188(18) 0.1936(3) 0.58315(19)
C148A C -0.01893(19) 0.1694(2) 0.5871(2)
H112A H -0.0148 0.1428 0.5940
C149A C -0.0468(2) 0.1838(3) 0.5809(2)
H113A H -0.0622 0.1664 0.5793
C150A C -0.0353(2) 0.2841(7) 0.5645(2)
H114A H -0.0435 0.2959 0.5833
H115A H -0.0505 0.2843 0.5405
C151A C 0.03613(19) 0.1494(3) 0.5739(2)
H116A H 0.0217 0.1382 0.5541
C152A C 0.06392(12) 0.13496(18) 0.58569(18)
N3A N 0.08267(14) 0.15576(13) 0.61423(17)
C153A C 0.11066(13) 0.14343(17) 0.62795(16)
H117A H 0.1235 0.1576 0.6475
C154A C 0.11990(13) 0.11030(19) 0.6131(2)
H118A H 0.1390 0.1019 0.6225
C155A C 0.10115(18) 0.08950(16) 0.5846(2)
H119A H 0.1075 0.0669 0.5744
C156A C 0.07316(16) 0.10183(18) 0.57086(17)
H120A H 0.0603 0.0876 0.5513
C157A C -0.19711(11) 0.74125(19) 0.48302(14)
C158A C -0.22921(12) 0.69797(18) 0.49568(15)
H121A H -0.2332 0.6776 0.5108
C159A C -0.25076(13) 0.7123(2) 0.46695(17)
H122A H -0.2694 0.7018 0.4621
C160A C -0.24528(13) 0.7424(2) 0.44486(17)
H123A H -0.2601 0.7519 0.4244
C161A C -0.21872(14) 0.7585(2) 0.45236(16)
H124A H -0.2147 0.7798 0.4382
C162A C -0.16854(11) 0.75610(18) 0.49393(13)
H125A H -0.1627 0.7778 0.4820
C163A C -0.12244(10) 0.75075(17) 0.53505(12)
C164A C -0.10054(12) 0.72509(19) 0.53769(14)
H126A H -0.1047 0.6993 0.5279
C165A C -0.07255(11) 0.7354(2) 0.55407(13)
C166A C -0.06691(12) 0.7738(2) 0.56696(16)
C167A C -0.08913(12) 0.80054(19) 0.56295(16)
H127A H -0.0851 0.8268 0.5714
C168A C -0.11732(12) 0.78916(19) 0.54662(15)
H128A H -0.1325 0.8073 0.5436
C169A C -0.04887(15) 0.7067(2) 0.55510(19)
H129A H -0.0378 0.7162 0.5384
H130A H -0.0359 0.7055 0.5808
C170A C -0.03753(12) 0.78590(18) 0.58798(17)
C171A C -0.00044(13) 0.7836(2) 0.64563(16)
H131A H 0.0064 0.7755 0.6709
C172A C 0.01760(12) 0.80624(18) 0.62933(15)
C173A C 0.00661(13) 0.8188(2) 0.59180(16)
H132A H 0.0180 0.8343 0.5805
C174A C -0.0405(3) 0.7495(5) 0.6482(4)
H133A H -0.0583 0.7636 0.6472
H134A H -0.0465 0.7254 0.6332
O1A O -0.0309(4) 0.7357(6) 0.6854(4)
H135A H -0.0345 0.7116 0.6858
C175A C -0.02743(12) 0.7734(2) 0.62516(16)
C176A C -0.02123(11) 0.80842(17) 0.57122(15)
H136A H -0.0287 0.8168 0.5461
C177A C 0.05031(14) 0.8283(2) 0.68261(17)
H137A H 0.0355 0.8358 0.6928
C178A C 0.08056(12) 0.8318(2) 0.70359(16)
C179A C 0.12581(13) 0.8220(2) 0.70089(17)
H138A H 0.1389 0.8130 0.6883
C180A C 0.13583(17) 0.8385(3) 0.7370(2)
H139A H 0.1555 0.8431 0.7476
C181A C 0.1161(2) 0.8483(3) 0.7575(2)
H140A H 0.1224 0.8560 0.7830
C182A C 0.08874(18) 0.8462(3) 0.7393(2)
H141A H 0.0749 0.8546 0.7509
Fe1A Fe -0.222591(18) 0.49069(3) 0.80621(2)
Fe2A Fe -0.06403(2) 0.20081(3) 0.86793(2)
Fe3A Fe -0.080048(14) 0.79627(2) 0.864680(17)
Fe4A Fe -0.178435(16) 0.33128(2) 0.537517(16)
Fe5A Fe -0.168436(13) 0.69314(2) 0.540968(16)
N4A N -0.22735(12) 0.44036(16) 0.83008(12)
N5A N -0.09857(11) 0.21857(17) 0.82770(12)
N6A N -0.24336(11) 0.47415(18) 0.75470(13)
N7A N -0.22151(9) 0.54105(15) 0.78024(11)
N8A N -0.11581(8) 0.78306(13) 0.87587(11)
N9A N -0.08614(10) 0.84597(14) 0.88851(12)
N10A N -0.19921(11) 0.51096(14) 0.85406(11)
N11A N -0.18398(9) 0.48212(13) 0.80037(10)
N12A N -0.15136(9) 0.36807(11) 0.57064(9)
N13A N -0.14889(12) 0.33302(12) 0.51195(10)
N14A N -0.05755(8) 0.77131(14) 0.91109(9)
N15A N -0.07202(8) 0.74507(12) 0.84423(9)
N16A N -0.13440(8) 0.67120(12) 0.57637(9)
N17A N -0.15617(9) 0.65717(12) 0.50778(9)
N18A N -0.20370(9) 0.29390(13) 0.50305(10)
N19A N -0.20054(10) 0.36888(13) 0.50093(10)
N20A N -0.18826(8) 0.65152(12) 0.56173(10)
N21A N -0.17899(7) 0.72398(12) 0.57899(10)
N22A N -0.20382(10) 0.32996(12) 0.56953(10)
N23A N -0.15835(10) 0.29052(12) 0.57389(9)
N24A N 0.03198(14) 0.18037(19) 0.59321(17)
N25A N -0.20227(8) 0.71189(12) 0.50337(10)
N26A N -0.15193(9) 0.73784(12) 0.52079(10)
N27A N 0.04555(8) 0.81393(13) 0.64892(11)
N28A N 0.09832(10) 0.81900(13) 0.68469(11)
O2A O -0.12450(17) 0.4216(2) 0.88765(16)
H152A H -0.1184 0.4364 0.8737
O3A O -0.1629(4) 0.2411(5) 0.9076(5)
H153A H -0.1526 0.2256 0.8998
O4A O -0.2260(3) 0.6265(4) 0.8894(3)
H154A H -0.2267 0.6397 0.9081
O5A O -0.09209(12) 0.64188(15) 0.89971(17)
H155A H -0.0910 0.6603 0.9150
O6A O -0.1824(5) 0.3472(3) 0.7325(3)
H156A H -0.1647 0.3461 0.7376
O7A O -0.2246(2) 0.4626(5) 0.5959(2)
H157A H -0.2146 0.4603 0.5811
O8A O -0.1687(2) 0.7257(6) 0.7477(3)
H158A H -0.1611 0.7297 0.7706
O9A O -0.0991(2) 0.7972(2) 0.6449(2)
H159A H -0.0843 0.8108 0.6517
O10A O -0.12090(15) 0.46414(19) 0.5151(2)
H160A H -0.1112 0.4561 0.5362
O11A O -0.2519(4) 0.5519(3) 0.4513(3)
H161A H -0.2595 0.5550 0.4289
O12A O -0.1241(4) 0.2146(9) 0.4823(6)
H162A H -0.1337 0.2344 0.4846
O13A O -0.01224(14) 0.3118(2) 0.56005(15)
H163A H -0.0047 0.3230 0.5805
O14A O -0.05904(10) 0.6697(2) 0.5441(2)
H164A H -0.0454 0.6546 0.5448
C196? C 0.1482(3) 0.7331(4) 0.7730(3)
H166? H 0.1502 0.7409 0.7991
H167? H 0.1568 0.7531 0.7604
C197? C 0.21597(18) 0.5561(3) 1.0400(3)
H168? H 0.2022 0.5395 1.0481
H169? H 0.2336 0.5405 1.0440
C198? C 0.0294(2) 0.8204(3) 0.9709(3)
H170? H 0.0332 0.7956 0.9852
H171? H 0.0478 0.8341 0.9759
O16? O 0.0131(3) 0.8425(6) 0.9872(5)
H172? H 0.0074 0.8286 1.0021
C199? C 0.02743(12) 0.7734(2) 0.87484(16)
H173? H 0.0391 0.7580 0.8639
C200? C 0.02123(11) 0.80842(17) 0.92878(15)
O17? O 0.1611(3) 0.6842(5) 0.7690(3)
H174? H 0.1487 0.6715 0.7531
O18? O 0.2223(5) 0.5879(5) 1.0639(4)
H175? H 0.2363 0.5824 1.0821
loop_
_geom_bond_atom_site_label_1
_geom_bond_atom_site_label_2
_geom_bond_site_symmetry_1
_geom_bond_site_symmetry_2
C1 N1 1_555 1_555
N1 C2 1_555 1_555
C2 H1 1_555 1_555
C3 C2 1_555 1_555
H2 C3 1_555 1_555
C4 C3 1_555 1_555
H3 C4 1_555 1_555
C5 C1 1_555 1_555
H4 C5 1_555 1_555
C6 C1 1_555 1_555
H5 C6 1_555 1_555
C7 C8 1_555 1_555
C8 H6 1_555 1_555
C9 C8 1_555 1_555
C10 C9 1_555 1_555
C11 C10 1_555 1_555
H7 C11 1_555 1_555
C12 C7 1_555 1_555
H8 C12 1_555 1_555
C13 C9 1_555 1_555
H9 C13 1_555 1_555
H10 C13 1_555 1_555
C14 C10 1_555 1_555
C15 C14 1_555 1_555
H11 C15 1_555 1_555
C16 C15 1_555 1_555
H12 C16 1_555 1_555
C17 C16 1_555 1_555
C18 C17 1_555 1_555
H13 C18 1_555 1_555
C19 C14 1_555 1_555
C20 C19 1_555 1_555
H14 C20 1_555 1_555
H15 C20 1_555 1_555
C21 H16 1_555 1_555
C22 C21 1_555 1_555
N2 C22 1_555 1_555
C23 N2 1_555 1_555
H17 C23 1_555 1_555
C24 C23 1_555 1_555
H18 C24 1_555 1_555
C25 C24 1_555 1_555
H19 C25 1_555 1_555
C26 C22 1_555 1_555
H20 C26 1_555 1_555
C27 C31 1_555 1_555
C28 H21 1_555 1_555
C29 C28 1_555 1_555
H22 C29 1_555 1_555
C30 C29 1_555 1_555
H23 C30 1_555 1_555
C31 C30 1_555 1_555
H24 C31 1_555 1_555
C32 C27 1_555 1_555
H25 C32 1_555 1_555
C33 C34 1_555 1_555
C34 H26 1_555 1_555
C35 C34 1_555 1_555
C36 C35 1_555 1_555
C37 C36 1_555 1_555
H27 C37 1_555 1_555
C38 C33 1_555 1_555
H28 C38 1_555 1_555
C39 C35 1_555 1_555
H29 C39 1_555 1_555
H30 C39 1_555 1_555
C40 C36 1_555 1_555
C41 C40 1_555 1_555
C42 C41 1_555 1_555
H31 C42 1_555 1_555
C43 C42 1_555 1_555
C44 C43 1_555 1_555
H32 C44 1_555 1_555
C45 C40 1_555 1_555
H33 C45 1_555 1_555
C46 C41 1_555 1_555
H34 C46 1_555 1_555
H35 C46 1_555 1_555
C47 H36 1_555 1_555
C48 C47 1_555 1_555
C49 H37 1_555 1_555
C50 C49 1_555 1_555
H38 C50 1_555 1_555
C51 C50 1_555 1_555
H39 C51 1_555 1_555
C52 C48 1_555 1_555
H40 C52 1_555 1_555
C53 C57 1_555 1_555
C54 H41 1_555 1_555
C55 C54 1_555 1_555
H42 C55 1_555 1_555
C56 C55 1_555 1_555
H43 C56 1_555 1_555
C57 C56 1_555 1_555
H44 C57 1_555 1_555
C58 C53 1_555 1_555
H45 C58 1_555 1_555
C59 C60 1_555 1_555
C60 H46 1_555 1_555
C61 C60 1_555 1_555
C62 C61 1_555 1_555
C63 C62 1_555 1_555
H47 C63 1_555 1_555
C64 C59 1_555 1_555
H48 C64 1_555 1_555
C65 C61 1_555 1_555
H49 C65 1_555 1_555
H50 C65 1_555 1_555
C66 C62 1_555 1_555
C67 C66 1_555 1_555
C68 C67 1_555 1_555
H51 C68 1_555 1_555
C69 C68 1_555 1_555
C70 C69 1_555 1_555
H52 C70 1_555 1_555
C71 C66 1_555 1_555
H53 C71 1_555 1_555
C72 C67 1_555 1_555
H54 C72 1_555 1_555
H55 C72 1_555 1_555
C73 H56 1_555 1_555
C74 C73 1_555 1_555
C75 H57 1_555 1_555
C76 C75 1_555 1_555
H58 C76 1_555 1_555
C77 C76 1_555 1_555
H59 C77 1_555 1_555
C78 C74 1_555 1_555
H60 C78 1_555 1_555
C79 C83 1_555 1_555
C80 H61 1_555 1_555
C81 C80 1_555 1_555
H62 C81 1_555 1_555
C82 C81 1_555 1_555
H63 C82 1_555 1_555
C83 C82 1_555 1_555
H64 C83 1_555 1_555
C84 C79 1_555 1_555
H65 C84 1_555 1_555
C85 C86 1_555 1_555
C86 H66 1_555 1_555
C87 C86 1_555 1_555
C88 C87 1_555 1_555
C89 C88 1_555 1_555
H67 C89 1_555 1_555
C90 C85 1_555 1_555
H68 C90 1_555 1_555
C91 C87 1_555 1_555
H69 C91 1_555 1_555
H70 C91 1_555 1_555
C92 C88 1_555 1_555
C93 C92 1_555 1_555
C94 C93 1_555 1_555
H71 C94 1_555 1_555
C95 C94 1_555 1_555
C96 C95 1_555 1_555
H72 C96 1_555 1_555
C97 C92 1_555 1_555
H73 C97 1_555 1_555
C98 C93 1_555 1_555
H74 C98 1_555 1_555
H75 C98 1_555 1_555
C99 H76 1_555 1_555
C100 C99 1_555 1_555
C101 H77 1_555 1_555
C102 C101 1_555 1_555
H78 C102 1_555 1_555
C103 C102 1_555 1_555
H79 C103 1_555 1_555
C104 C100 1_555 1_555
H80 C104 1_555 1_555
C105 C109 1_555 1_555
C106 H81 1_555 1_555
C107 C106 1_555 1_555
H82 C107 1_555 1_555
C108 C107 1_555 1_555
H83 C108 1_555 1_555
C109 C108 1_555 1_555
H84 C109 1_555 1_555
C110 C105 1_555 1_555
H85 C110 1_555 1_555
C111 C112 1_555 1_555
C112 H86 1_555 1_555
C113 C112 1_555 1_555
C114 C113 1_555 1_555
C115 C114 1_555 1_555
H87 C115 1_555 1_555
C116 C111 1_555 1_555
H88 C116 1_555 1_555
C117 C113 1_555 1_555
H89 C117 1_555 1_555
H90 C117 1_555 1_555
C118 C114 1_555 1_555
C119 C118 1_555 1_555
C120 C119 1_555 1_555
H91 C120 1_555 1_555
C121 C120 1_555 1_555
C122 C121 1_555 1_555
H92 C122 1_555 1_555
C123 C118 1_555 1_555
H93 C123 1_555 1_555
C124 C119 1_555 1_555
H94 C124 1_555 1_555
H95 C124 1_555 1_555
C125 H96 1_555 1_555
C126 C125 1_555 1_555
C127 H97 1_555 1_555
C128 C127 1_555 1_555
H98 C128 1_555 1_555
C129 C128 1_555 1_555
H99 C129 1_555 1_555
C130 C126 1_555 1_555
H100 C130 1_555 1_555
C131 C135 1_555 1_555
C132 H101 1_555 1_555
C133 C132 1_555 1_555
H102 C133 1_555 1_555
C134 C133 1_555 1_555
H103 C134 1_555 1_555
C135 C134 1_555 1_555
H104 C135 1_555 1_555
C136 C131 1_555 1_555
H105 C136 1_555 1_555
C137 C138 1_555 1_555
C138 H106 1_555 1_555
C139 C138 1_555 1_555
C140 C139 1_555 1_555
C141 C140 1_555 1_555
H107 C141 1_555 1_555
C142 C137 1_555 1_555
H108 C142 1_555 1_555
C143 C139 1_555 1_555
H109 C143 1_555 1_555
H110 C143 1_555 1_555
C144 C140 1_555 1_555
C145 C144 1_555 1_555
C146 C145 1_555 1_555
H111 C146 1_555 1_555
C147 C146 1_555 1_555
C148 C147 1_555 1_555
H112 C148 1_555 1_555
C149 C144 1_555 1_555
H113 C149 1_555 1_555
C150 C145 1_555 1_555
H114 C150 1_555 1_555
H115 C150 1_555 1_555
C151 H116 1_555 1_555
C152 C151 1_555 1_555
N3 C152 1_555 1_555
C153 N3 1_555 1_555
H117 C153 1_555 1_555
C154 C153 1_555 1_555
H118 C154 1_555 1_555
C155 C154 1_555 1_555
H119 C155 1_555 1_555
C156 C152 1_555 1_555
H120 C156 1_555 1_555
C157 C161 1_555 1_555
C158 H121 1_555 1_555
C159 C158 1_555 1_555
H122 C159 1_555 1_555
C160 C159 1_555 1_555
H123 C160 1_555 1_555
C161 C160 1_555 1_555
H124 C161 1_555 1_555
C162 C157 1_555 1_555
H125 C162 1_555 1_555
C163 C164 1_555 1_555
C164 H126 1_555 1_555
C165 C164 1_555 1_555
C166 C165 1_555 1_555
C167 C166 1_555 1_555
H127 C167 1_555 1_555
C168 C163 1_555 1_555
H128 C168 1_555 1_555
C169 C165 1_555 1_555
H129 C169 1_555 1_555
H130 C169 1_555 1_555
C170 C166 1_555 1_555
C171 H131 1_555 1_555
C172 C171 1_555 1_555
C173 C172 1_555 1_555
H132 C173 1_555 1_555
C174 H133 1_555 1_555
H134 C174 1_555 1_555
O1 C174 1_555 1_555
H135 O1 1_555 1_555
C175 C170 1_555 1_555
C176 C170 1_555 1_555
H136 C176 1_555 1_555
C177 H137 1_555 1_555
C178 C177 1_555 1_555
C179 H138 1_555 1_555
C180 C179 1_555 1_555
H139 C180 1_555 1_555
C181 C180 1_555 1_555
H140 C181 1_555 1_555
C182 C178 1_555 1_555
H141 C182 1_555 1_555
C183 C187 1_555 1_555
C184 H142 1_555 1_555
C185 C184 1_555 1_555
H143 C185 1_555 1_555
C186 C185 1_555 1_555
H144 C186 1_555 1_555
C187 C186 1_555 1_555
H145 C187 1_555 1_555
C188 C183 1_555 1_555
H146 C188 1_555 1_555
C189 C190 1_555 1_555
C190 H147 1_555 1_555
C191 C190 1_555 1_555
C192 C191 1_555 1_555
C193 C192 1_555 1_555
H148 C193 1_555 1_555
C194 C189 1_555 1_555
H149 C194 1_555 1_555
C195 C191 1_555 1_555
H150 C195 1_555 1_555
H151 C195 1_555 1_555
Fe1 N1 1_555 1_555
Fe2 N2 1_555 1_555
Fe3 N8 1_555 1_555
Fe4 N12 1_555 1_555
Fe5 N16 1_555 1_555
N4 C6 1_555 1_555
N5 C17 1_555 1_555
N6 C27 1_555 1_555
N7 C32 1_555 1_555
N8 C43 1_555 1_555
N9 C48 1_555 1_555
N10 C53 1_555 1_555
N11 C58 1_555 1_555
N12 C69 1_555 1_555
N13 C74 1_555 1_555
N14 C79 1_555 1_555
N15 C84 1_555 1_555
N16 C95 1_555 1_555
N17 C100 1_555 1_555
N18 C105 1_555 1_555
N19 C110 1_555 1_555
N20 C121 1_555 1_555
N21 C126 1_555 1_555
N22 C131 1_555 1_555
N23 C136 1_555 1_555
N24 C147 1_555 1_555
N25 C157 1_555 1_555
N26 C162 1_555 1_555
N27 C172 1_555 1_555
N28 C178 1_555 1_555
N29 C183 1_555 1_555
N30 C188 1_555 1_555
O2 C13 1_555 1_555
H152 O2 1_555 1_555
O3 C20 1_555 1_555
H153 O3 1_555 1_555
O4 C39 1_555 1_555
H154 O4 1_555 1_555
O5 C46 1_555 1_555
H155 O5 1_555 1_555
O6 C65 1_555 1_555
H156 O6 1_555 1_555
O7 C72 1_555 1_555
H157 O7 1_555 1_555
O8 C91 1_555 1_555
H158 O8 1_555 1_555
O9 C98 1_555 1_555
H159 O9 1_555 1_555
O10 C117 1_555 1_555
H160 O10 1_555 1_555
O11 C124 1_555 1_555
H161 O11 1_555 1_555
O12 C143 1_555 1_555
H162 O12 1_555 1_555
O13 C150 1_555 1_555
H163 O13 1_555 1_555
O14 C169 1_555 1_555
H164 O14 1_555 1_555
O15 C195 1_555 1_555
H165 O15 1_555 1_555
C183A C187A 1_555 1_555
C184A H142A 1_555 1_555
C185A C184A 1_555 1_555
H143A C185A 1_555 1_555
C186A C185A 1_555 1_555
H144A C186A 1_555 1_555
C187A C186A 1_555 1_555
H145A C187A 1_555 1_555
C188A C183A 1_555 1_555
H146A C188A 1_555 1_555
C189A C190A 1_555 1_555
C190A H147A 1_555 1_555
C191A C190A 1_555 1_555
C192A C192 1_555 1_555
C193A C192A 1_555 1_555
H148A C193A 1_555 1_555
C194A C189A 1_555 1_555
H149A C194A 1_555 1_555
C195A C191A 1_555 1_555
H150A C195A 1_555 1_555
H151A C195A 1_555 1_555
N29A C183A 1_555 1_555
N30A C188A 1_555 1_555
O15A C195A 1_555 1_555
H165A O15A 1_555 1_555
C1A N1A 1_555 1_555
N1A C2A 1_555 1_555
C2A H1A 1_555 1_555
C3A C2A 1_555 1_555
H2A C3A 1_555 1_555
C4A C3A 1_555 1_555
H3A C4A 1_555 1_555
C5A C1A 1_555 1_555
H4A C5A 1_555 1_555
C6A C1A 1_555 1_555
H5A C6A 1_555 1_555
C7A C8A 1_555 1_555
C8A H6A 1_555 1_555
C9A C8A 1_555 1_555
C10A C9A 1_555 1_555
C11A C10A 1_555 1_555
H7A C11A 1_555 1_555
C12A C7A 1_555 1_555
H8A C12A 1_555 1_555
C13A C9A 1_555 1_555
H9A C13A 1_555 1_555
H10A C13A 1_555 1_555
C14A C10A 1_555 1_555
C15A C14A 1_555 1_555
H11A C15A 1_555 1_555
C16A C15A 1_555 1_555
H12A C16A 1_555 1_555
C17A C16A 1_555 1_555
C18A C17A 1_555 1_555
H13A C18A 1_555 1_555
C19A C14A 1_555 1_555
C20A C19A 1_555 1_555
H14A C20A 1_555 1_555
H15A C20A 1_555 1_555
C21A H16A 1_555 1_555
C22A C21A 1_555 1_555
N2A C22A 1_555 1_555
C23A N2A 1_555 1_555
H17A C23A 1_555 1_555
C24A C23A 1_555 1_555
H18A C24A 1_555 1_555
C25A C24A 1_555 1_555
H19A C25A 1_555 1_555
C26A C22A 1_555 1_555
H20A C26A 1_555 1_555
C27A C31A 1_555 1_555
C28A H21A 1_555 1_555
C29A C28A 1_555 1_555
H22A C29A 1_555 1_555
C30A C29A 1_555 1_555
H23A C30A 1_555 1_555
C31A C30A 1_555 1_555
H24A C31A 1_555 1_555
C32A C27A 1_555 1_555
H25A C32A 1_555 1_555
C33A C34A 1_555 1_555
C34A H26A 1_555 1_555
C35A C34A 1_555 1_555
C36A C35A 1_555 1_555
C37A C36A 1_555 1_555
H27A C37A 1_555 1_555
C38A C33A 1_555 1_555
H28A C38A 1_555 1_555
C39A C35A 1_555 1_555
H29A C39A 1_555 1_555
H30A C39A 1_555 1_555
C40A C36A 1_555 1_555
C41A C40A 1_555 1_555
C42A C41A 1_555 1_555
H31A C42A 1_555 1_555
C43A C42A 1_555 1_555
C44A C43A 1_555 1_555
H32A C44A 1_555 1_555
C45A C40A 1_555 1_555
H33A C45A 1_555 1_555
C46A C41A 1_555 1_555
H34A C46A 1_555 1_555
H35A C46A 1_555 1_555
C47A H36A 1_555 1_555
C48A C47A 1_555 1_555
C49A H37A 1_555 1_555
C50A C49A 1_555 1_555
H38A C50A 1_555 1_555
C51A C50A 1_555 1_555
H39A C51A 1_555 1_555
C52A C48A 1_555 1_555
H40A C52A 1_555 1_555
C53A C57A 1_555 1_555
C54A H41A 1_555 1_555
C55A C54A 1_555 1_555
H42A C55A 1_555 1_555
C56A C55A 1_555 1_555
H43A C56A 1_555 1_555
C57A C56A 1_555 1_555
H44A C57A 1_555 1_555
C58A C53A 1_555 1_555
H45A C58A 1_555 1_555
C59A C60A 1_555 1_555
C60A H46A 1_555 1_555
C61A C60A 1_555 1_555
C62A C61A 1_555 1_555
C63A C62A 1_555 1_555
H47A C63A 1_555 1_555
C64A C59A 1_555 1_555
H48A C64A 1_555 1_555
C65A C61A 1_555 1_555
H49A C65A 1_555 1_555
H50A C65A 1_555 1_555
C66A C62A 1_555 1_555
C67A C66A 1_555 1_555
C68A C67A 1_555 1_555
H51A C68A 1_555 1_555
C69A C68A 1_555 1_555
C70A C69A 1_555 1_555
H52A C70A 1_555 1_555
C71A C66A 1_555 1_555
H53A C71A 1_555 1_555
C72A C67A 1_555 1_555
H54A C72A 1_555 1_555
H55A C72A 1_555 1_555
C73A H56A 1_555 1_555
C74A C73A 1_555 1_555
C75A H57A 1_555 1_555
C76A C75A 1_555 1_555
H58A C76A 1_555 1_555
C77A C76A 1_555 1_555
H59A C77A 1_555 1_555
C78A C74A 1_555 1_555
H60A C78A 1_555 1_555
C79A C83A 1_555 1_555
C80A H61A 1_555 1_555
C81A C80A 1_555 1_555
H62A C81A 1_555 1_555
C82A C81A 1_555 1_555
H63A C82A 1_555 1_555
C83A C82A 1_555 1_555
H64A C83A 1_555 1_555
C84A C79A 1_555 1_555
H65A C84A 1_555 1_555
C85A C86A 1_555 1_555
C86A H66A 1_555 1_555
C87A C86A 1_555 1_555
C88A C87A 1_555 1_555
C89A C88A 1_555 1_555
H67A C89A 1_555 1_555
C90A C85A 1_555 1_555
H68A C90A 1_555 1_555
C91A C87A 1_555 1_555
H69A C91A 1_555 1_555
H70A C91A 1_555 1_555
C92A C88A 1_555 1_555
C93A C92A 1_555 1_555
C94A C93A 1_555 1_555
H71A C94A 1_555 1_555
C95A C94A 1_555 1_555
C96A C95A 1_555 1_555
H72A C96A 1_555 1_555
C97A C92A 1_555 1_555
H73A C97A 1_555 1_555
C98A C93A 1_555 1_555
H74A C98A 1_555 1_555
H75A C98A 1_555 1_555
C99A H76A 1_555 1_555
C100A C99A 1_555 1_555
C101A H77A 1_555 1_555
C102A C101A 1_555 1_555
H78A C102A 1_555 1_555
C103A C102A 1_555 1_555
H79A C103A 1_555 1_555
C104A C100A 1_555 1_555
H80A C104A 1_555 1_555
C105A C109A 1_555 1_555
C106A H81A 1_555 1_555
C107A C106A 1_555 1_555
H82A C107A 1_555 1_555
C108A C107A 1_555 1_555
H83A C108A 1_555 1_555
C109A C108A 1_555 1_555
H84A C109A 1_555 1_555
C110A C105A 1_555 1_555
H85A C110A 1_555 1_555
C111A C112A 1_555 1_555
C112A H86A 1_555 1_555
C113A C112A 1_555 1_555
C114A C113A 1_555 1_555
C115A C114A 1_555 1_555
H87A C115A 1_555 1_555
C116A C111A 1_555 1_555
H88A C116A 1_555 1_555
C117A C113A 1_555 1_555
H89A C117A 1_555 1_555
H90A C117A 1_555 1_555
C118A C114A 1_555 1_555
C119A C118A 1_555 1_555
C120A C119A 1_555 1_555
H91A C120A 1_555 1_555
C121A C120A 1_555 1_555
C122A C121A 1_555 1_555
H92A C122A 1_555 1_555
C123A C118A 1_555 1_555
H93A C123A 1_555 1_555
C124A C119A 1_555 1_555
H94A C124A 1_555 1_555
H95A C124A 1_555 1_555
C125A H96A 1_555 1_555
C126A C125A 1_555 1_555
C127A H97A 1_555 1_555
C128A C127A 1_555 1_555
H98A C128A 1_555 1_555
C129A C128A 1_555 1_555
H99A C129A 1_555 1_555
C130A C126A 1_555 1_555
H100A C130A 1_555 1_555
C131A C135A 1_555 1_555
C132A H101A 1_555 1_555
C133A C132A 1_555 1_555
H102A C133A 1_555 1_555
C134A C133A 1_555 1_555
H103A C134A 1_555 1_555
C135A C134A 1_555 1_555
H104A C135A 1_555 1_555
C136A C131A 1_555 1_555
H105A C136A 1_555 1_555
C137A C138A 1_555 1_555
C138A H106A 1_555 1_555
C139A C138A 1_555 1_555
C140A C139A 1_555 1_555
C141A C140A 1_555 1_555
H107A C141A 1_555 1_555
C142A C137A 1_555 1_555
H108A C142A 1_555 1_555
C143A C139A 1_555 1_555
H109A C143A 1_555 1_555
H110A C143A 1_555 1_555
C144A C140A 1_555 1_555
C145A C144A 1_555 1_555
C146A C145A 1_555 1_555
H111A C146A 1_555 1_555
C147A C146A 1_555 1_555
C148A C147A 1_555 1_555
H112A C148A 1_555 1_555
C149A C144A 1_555 1_555
H113A C149A 1_555 1_555
C150A C145A 1_555 1_555
H114A C150A 1_555 1_555
H115A C150A 1_555 1_555
C151A H116A 1_555 1_555
C152A C151A 1_555 1_555
N3A Fe2 1_555 1_555
C153A N3A 1_555 1_555
H117A C153A 1_555 1_555
C154A C153A 1_555 1_555
H118A C154A 1_555 1_555
C155A C154A 1_555 1_555
H119A C155A 1_555 1_555
C156A C152A 1_555 1_555
H120A C156A 1_555 1_555
C157A C161A 1_555 1_555
C158A H121A 1_555 1_555
C159A C158A 1_555 1_555
H122A C159A 1_555 1_555
C160A C159A 1_555 1_555
H123A C160A 1_555 1_555
C161A C160A 1_555 1_555
H124A C161A 1_555 1_555
C162A C157A 1_555 1_555
H125A C162A 1_555 1_555
C163A C164A 1_555 1_555
C164A H126A 1_555 1_555
C165A C164A 1_555 1_555
C166A C165A 1_555 1_555
C167A C166A 1_555 1_555
H127A C167A 1_555 1_555
C168A C163A 1_555 1_555
H128A C168A 1_555 1_555
C169A C165A 1_555 1_555
H129A C169A 1_555 1_555
H130A C169A 1_555 1_555
C170A C166A 1_555 1_555
C171A H131A 1_555 1_555
C172A C171A 1_555 1_555
C173A C172A 1_555 1_555
H132A C173A 1_555 1_555
C174A H133A 1_555 1_555
H134A C174A 1_555 1_555
O1A C174A 1_555 1_555
H135A O1A 1_555 1_555
C175A C170A 1_555 1_555
C176A C170A 1_555 1_555
H136A C176A 1_555 1_555
C177A H137A 1_555 1_555
C178A C177A 1_555 1_555
C179A H138A 1_555 1_555
C180A C179A 1_555 1_555
H139A C180A 1_555 1_555
C181A C180A 1_555 1_555
H140A C181A 1_555 1_555
C182A C178A 1_555 1_555
H141A C182A 1_555 1_555
Fe1A N1A 1_555 1_555
Fe2A N3 1_555 1_555
Fe3A N27 1_555 1_555
Fe4A N12A 1_555 1_555
Fe5A N16A 1_555 1_555
N4A C6A 1_555 1_555
N5A C17A 1_555 1_555
N6A C27A 1_555 1_555
N7A C32A 1_555 1_555
N8A C43A 1_555 1_555
N9A C48A 1_555 1_555
N10A C53A 1_555 1_555
N11A C58A 1_555 1_555
N12A C69A 1_555 1_555
N13A C74A 1_555 1_555
N14A C79A 1_555 1_555
N15A C84A 1_555 1_555
N16A C95A 1_555 1_555
N17A C100A 1_555 1_555
N18A C105A 1_555 1_555
N19A C110A 1_555 1_555
N20A C121A 1_555 1_555
N21A C126A 1_555 1_555
N22A C131A 1_555 1_555
N23A C136A 1_555 1_555
N24A Fe2 1_555 1_555
N25A C157A 1_555 1_555
N26A C162A 1_555 1_555
N27A Fe3 1_555 1_555
N28A Fe3 1_555 1_555
O2A C13A 1_555 1_555
H152A O2A 1_555 1_555
O3A C20A 1_555 1_555
H153A O3A 1_555 1_555
O4A C39A 1_555 1_555
H154A O4A 1_555 1_555
O5A C46A 1_555 1_555
H155A O5A 1_555 1_555
O6A C65A 1_555 1_555
H156A O6A 1_555 1_555
O7A C72A 1_555 1_555
H157A O7A 1_555 1_555
O8A C91A 1_555 1_555
H158A O8A 1_555 1_555
O9A C98A 1_555 1_555
H159A O9A 1_555 1_555
O10A C117A 1_555 1_555
H160A O10A 1_555 1_555
O11A C124A 1_555 1_555
H161A O11A 1_555 1_555
O12A C143A 1_555 1_555
H162A O12A 1_555 1_555
O13A C150A 1_555 1_555
H163A O13A 1_555 1_555
O14A C169A 1_555 1_555
H164A O14A 1_555 1_555
C4 C5 1_555 1_555
C7 N4 1_555 1_555
C11 C12 1_555 1_555
C18 C19 1_555 1_555
C21 N5 1_555 1_555
C25 C26 1_555 1_555
C28 N6 1_555 1_555
C33 N7 1_555 1_555
C37 C38 1_555 1_555
C44 C45 1_555 1_555
C47 N8 1_555 1_555
C49 N9 1_555 1_555
C51 C52 1_555 1_555
C54 N10 1_555 1_555
C59 N11 1_555 1_555
C63 C64 1_555 1_555
C70 C71 1_555 1_555
C73 N12 1_555 1_555
C75 N13 1_555 1_555
C77 C78 1_555 1_555
C80 N14 1_555 1_555
C85 N15 1_555 1_555
C89 C90 1_555 1_555
C96 C97 1_555 1_555
C99 N16 1_555 1_555
C101 N17 1_555 1_555
C103 C104 1_555 1_555
C106 N18 1_555 1_555
C111 N19 1_555 1_555
C115 C116 1_555 1_555
C122 C123 1_555 1_555
C125 N20 1_555 1_555
C127 N21 1_555 1_555
C129 C130 1_555 1_555
C132 N22 1_555 1_555
C137 N23 1_555 1_555
C141 C142 1_555 1_555
C148 C149 1_555 1_555
C151 N24 1_555 1_555
C155 C156 1_555 1_555
C158 N25 1_555 1_555
C163 N26 1_555 1_555
C167 C168 1_555 1_555
C171 C175 1_555 1_555
C173 C176 1_555 1_555
C174 C175 1_555 1_555
C177 N27 1_555 1_555
C179 N28 1_555 1_555
C181 C182 1_555 1_555
C184 N29 1_555 1_555
C189 N30 1_555 1_555
C193 C194 1_555 1_555
Fe1 N4 1_555 1_555
Fe1 N6 1_555 1_555
Fe1 N7 1_555 1_555
Fe1 N10 1_555 1_555
Fe1 N11 1_555 1_555
Fe2 N5 1_555 1_555
Fe2 N29 1_555 1_555
Fe2 N30 1_555 1_555
Fe3 N9 1_555 1_555
Fe3 N14 1_555 1_555
Fe3 N15 1_555 1_555
Fe4 N13 1_555 1_555
Fe4 N18 1_555 1_555
Fe4 N19 1_555 1_555
Fe4 N22 1_555 1_555
Fe4 N23 1_555 1_555
Fe5 N17 1_555 1_555
Fe5 N20 1_555 1_555
Fe5 N21 1_555 1_555
Fe5 N25 1_555 1_555
Fe5 N26 1_555 1_555
N24 Fe2A 1_555 1_555
N28 Fe3A 1_555 1_555
C184A N29A 1_555 1_555
C189A N30A 1_555 1_555
C191A C192A 1_555 1_555
C193A C194A 1_555 1_555
N29A Fe2A 1_555 1_555
N30A Fe2A 1_555 1_555
C4A C5A 1_555 1_555
C7A N4A 1_555 1_555
C11A C12A 1_555 1_555
C18A C19A 1_555 1_555
C21A N5A 1_555 1_555
N2A Fe2A 1_555 1_555
C25A C26A 1_555 1_555
C28A N6A 1_555 1_555
C33A N7A 1_555 1_555
C37A C38A 1_555 1_555
C44A C45A 1_555 1_555
C47A N8A 1_555 1_555
C49A N9A 1_555 1_555
C51A C52A 1_555 1_555
C54A N10A 1_555 1_555
C59A N11A 1_555 1_555
C63A C64A 1_555 1_555
C70A C71A 1_555 1_555
C73A N12A 1_555 1_555
C75A N13A 1_555 1_555
C77A C78A 1_555 1_555
C80A N14A 1_555 1_555
C85A N15A 1_555 1_555
C89A C90A 1_555 1_555
C96A C97A 1_555 1_555
C99A N16A 1_555 1_555
C101A N17A 1_555 1_555
C103A C104A 1_555 1_555
C106A N18A 1_555 1_555
C111A N19A 1_555 1_555
C115A C116A 1_555 1_555
C122A C123A 1_555 1_555
C125A N20A 1_555 1_555
C127A N21A 1_555 1_555
C129A C130A 1_555 1_555
C132A N22A 1_555 1_555
C137A N23A 1_555 1_555
C141A C142A 1_555 1_555
C147A N24A 1_555 1_555
C148A C149A 1_555 1_555
C151A N24A 1_555 1_555
C152A N3A 1_555 1_555
C155A C156A 1_555 1_555
C158A N25A 1_555 1_555
C163A N26A 1_555 1_555
C167A C168A 1_555 1_555
C171A C175A 1_555 1_555
C172A N27A 1_555 1_555
C173A C176A 1_555 1_555
C174A C175A 1_555 1_555
C177A N27A 1_555 1_555
C178A N28A 1_555 1_555
C179A N28A 1_555 1_555
C181A C182A 1_555 1_555
Fe1A N4A 1_555 1_555
Fe1A N6A 1_555 1_555
Fe1A N7A 1_555 1_555
Fe1A N10A 1_555 1_555
Fe1A N11A 1_555 1_555
Fe2A N5A 1_555 1_555
Fe3A N8A 1_555 1_555
Fe3A N9A 1_555 1_555
Fe3A N14A 1_555 1_555
Fe3A N15A 1_555 1_555
Fe4A N13A 1_555 1_555
Fe4A N18A 1_555 1_555
Fe4A N19A 1_555 1_555
Fe4A N22A 1_555 1_555
Fe4A N23A 1_555 1_555
Fe5A N17A 1_555 1_555
Fe5A N20A 1_555 1_555
Fe5A N21A 1_555 1_555
Fe5A N25A 1_555 1_555
Fe5A N26A 1_555 1_555

#END
