
#######################################################################
#
#                 Cambridge Crystallographic Data Centre
#                                CCDC 
#
#######################################################################
#
# If this CIF has been generated from an entry in the Cambridge 
# Structural Database, then it will include bibliographic, chemical, 
# crystal, experimental, refinement or atomic coordinate data resulting 
# from the CCDC's data processing and validation procedures.
#
#######################################################################

data_PEWSOB
_chemical_formula_moiety         
'C156 H132 Fe4 N24 O12 8+,8(F6 P1 1-),8(C4 H10 O1),9.5(C2 H3 N1)'
_chemical_name_systematic        
"hexakis(\m~2~-(4,4'-bis((Pyridin-2-ylmethylene)amino)biphenyl-2,2'-diyl)dimethanol)-tetra-iron octakis(hexafluorophosphate) acetonitrile diethyl ether solvate"
_symmetry_cell_setting           rhombohedral
_symmetry_space_group_name_H-M   'R -3 c'
_symmetry_Int_Tables_number      167
_space_group_name_Hall           '-R 3 2"c'
loop_
_symmetry_equiv_pos_site_id
_symmetry_equiv_pos_as_xyz
1 x,y,z
2 -y,x-y,z
3 -x+y,-x,z
4 y,x,1/2-z
5 x-y,-y,1/2-z
6 -x,-x+y,1/2-z
7 2/3+x,1/3+y,1/3+z
8 2/3-y,1/3+x-y,1/3+z
9 2/3-x+y,1/3-x,1/3+z
10 2/3+y,1/3+x,5/6-z
11 2/3+x-y,1/3-y,5/6-z
12 2/3-x,1/3-x+y,5/6-z
13 1/3+x,2/3+y,2/3+z
14 1/3-y,2/3+x-y,2/3+z
15 1/3-x+y,2/3-x,2/3+z
16 1/3+y,2/3+x,1/6-z
17 1/3+x-y,2/3-y,1/6-z
18 1/3-x,2/3-x+y,1/6-z
19 -x,-y,-z
20 y,-x+y,-z
21 x-y,x,-z
22 -y,-x,1/2+z
23 -x+y,y,1/2+z
24 x,x-y,1/2+z
25 1/3-x,2/3-y,2/3-z
26 1/3+y,2/3-x+y,2/3-z
27 1/3+x-y,2/3+x,2/3-z
28 1/3-y,2/3-x,1/6+z
29 1/3-x+y,2/3+y,1/6+z
30 1/3+x,2/3+x-y,1/6+z
31 2/3-x,1/3-y,1/3-z
32 2/3+y,1/3-x+y,1/3-z
33 2/3+x-y,1/3+x,1/3-z
34 2/3-y,1/3-x,5/6+z
35 2/3-x+y,1/3+y,5/6+z
36 2/3+x,1/3+x-y,5/6+z
_cell_length_a                   29.411(4)
_cell_length_b                   29.411(4)
_cell_length_c                   102.46(2)
_cell_angle_alpha                90
_cell_angle_beta                 90
_cell_angle_gamma                120
_cell_volume                     76754.6
_exptl_crystal_colour            purple
_exptl_crystal_description       block
_cell_formula_units_Z            12
loop_
_atom_site_label
_atom_site_type_symbol
_atom_site_fract_x
_atom_site_fract_y
_atom_site_fract_z
P1 P 0.77112(11) -0.27627(11) 0.05290(2)
F1 F 0.7401(2) -0.3316(2) 0.04846(7)
F2 F 0.8038(3) -0.2181(2) 0.05835(5)
F3 F 0.8222(2) -0.2788(2) 0.05170(5)
F4 F 0.7645(3) -0.2982(3) 0.06722(4)
F5 F 0.7166(3) -0.2762(3) 0.05383(5)
F6 F 0.77715(14) -0.25524(14) 0.03920(3)
F7 F 0.87448(9) 0.02604(11) 0.01350(2)
F8 F 0.80010(11) 0.01074(13) 0.00324(2)
F9 F 0.75551(10) -0.01720(12) 0.02175(3)
F10 F 0.82980(11) 0.00014(13) 0.03229(3)
F11 F 0.80199(11) -0.05205(10) 0.01470(4)
F12 F 0.82800(15) 0.06292(11) 0.02044(3)
P2 P 0.81494(5) 0.00550(4) 0.017820(11)
N9 N 0.7709(8) 0.0820(8) 0.04446(19)
C53 C 0.7304(9) 0.0478(10) 0.0440(3)
C54 C 0.6789(9) -0.0004(9) 0.0490(2)
H45 H 0.6855 -0.0291 0.0510
H46 H 0.6519 -0.0118 0.0422
H47 H 0.6669 0.0094 0.0568
C1 C 0.96094(13) 0.06776(13) 0.03768(3)
C2 C 1.02734(14) 0.08215(14) 0.02329(3)
H1 H 1.0523 0.0735 0.0200
C3 C 1.02313(15) 0.12289(15) 0.01732(4)
H2 H 1.0457 0.1419 0.0103
C4 C 0.98660(15) 0.13505(15) 0.02165(4)
H3 H 0.9829 0.1620 0.0175
C5 C 0.95503(14) 0.10738(15) 0.03216(4)
H4 H 0.9298 0.1155 0.0355
C6 C 0.93203(14) 0.03746(14) 0.04877(3)
H5 H 0.9045 0.0412 0.0525
C7 C 0.91703(13) -0.02430(14) 0.06502(3)
C8 C 0.92445(16) 0.00056(16) 0.07678(4)
H6 H 0.9486 0.0371 0.0775
C9 C 0.89679(17) -0.02750(17) 0.08775(4)
C10 C 0.85413(13) -0.10570(15) 0.07501(4)
H7 H 0.8302 -0.1423 0.0743
C11 C 0.86107(13) -0.08097(15) 0.08685(3)
C12 C 0.88192(14) -0.07732(14) 0.06417(3)
H8 H 0.8767 -0.0947 0.0560
C13 C 0.82962(14) -0.11147(15) 0.09830(4)
C14 C 0.77678(15) -0.12688(16) 0.09944(3)
C15 C 0.74772(14) -0.15622(15) 0.11005(3)
H9 H 0.7116 -0.1667 0.1108
C16 C 0.77184(14) -0.17007(14) 0.11960(3)
C17 C 0.82498(16) -0.15443(19) 0.11886(4)
H10 H 0.8414 -0.1636 0.1255
C18 C 0.85287(16) -0.12545(18) 0.10830(4)
H11 H 0.8892 -0.1144 0.1077
C19 C 0.72853(15) -0.25137(16) 0.13010(4)
H12 H 0.7391 -0.2650 0.1230
C20 C 0.69823(14) -0.28413(15) 0.14096(4)
C21 C 0.65663(14) -0.28410(16) 0.16016(4)
H13 H 0.6467 -0.2668 0.1664
C22 C 0.64140(16) -0.33584(17) 0.16225(5)
H14 H 0.6213 -0.3535 0.1697
C23 C 0.65521(18) -0.36190(18) 0.15355(5)
H15 H 0.6450 -0.3977 0.1550
C24 C 0.68398(18) -0.33597(17) 0.14273(5)
H16 H 0.6939 -0.3535 0.1366
C25 C 0.9056(4) 0.0035(4) 0.10036(7)
H17 H 0.9170 0.0406 0.0984
H18 H 0.8727 -0.0115 0.1055
O1 O 0.9453(4) 0.0001(3) 0.10757(8)
H19 H 0.9547 -0.0176 0.1034
C26 C 0.7523(12) -0.1068(12) 0.0899(2)
H20 H 0.7773 -0.0693 0.0882
H21 H 0.7466 -0.1259 0.0816
O2 O 0.7040(3) -0.1120(3) 0.09403(9)
H22 H 0.6846 -0.1424 0.0970
C27 C 0.65438(14) -0.15222(15) 0.12899(4)
C28 C 0.60894(14) -0.24219(15) 0.13180(4)
H23 H 0.6058 -0.2733 0.1355
C29 C 0.56905(16) -0.24567(17) 0.12359(4)
H24 H 0.5395 -0.2790 0.1217
C30 C 0.57254(16) -0.20169(18) 0.11841(4)
H25 H 0.5454 -0.2037 0.1130
C31 C 0.61632(16) -0.15389(16) 0.12119(4)
H26 H 0.6197 -0.1224 0.1177
C32 C 0.70302(15) -0.10517(14) 0.13215(4)
H27 H 0.7102 -0.0717 0.1291
C33 C 0.78521(14) -0.06180(14) 0.14200(4)
C34 C 0.79448(15) -0.03965(14) 0.15425(4)
H28 H 0.7694 -0.0562 0.1610
C35 C 0.84046(16) 0.00685(15) 0.15662(4)
C36 C 0.86718(16) 0.00797(16) 0.13492(4)
H29 H 0.8930 0.0238 0.1283
C37 C 0.87617(15) 0.03131(14) 0.14692(4)
C38 C 0.82156(17) -0.03798(16) 0.13228(4)
H30 H 0.8153 -0.0531 0.1238
C39 C 0.92682(15) 0.08275(14) 0.14948(4)
C40 C 0.92500(16) 0.12893(17) 0.15009(5)
C41 C 0.97360(18) 0.08537(16) 0.15077(5)
H31 H 0.9754 0.0541 0.1499
C42 C 0.97019(17) 0.17605(16) 0.15260(5)
H32 H 0.9687 0.2075 0.1531
C43 C 1.01689(15) 0.17757(14) 0.15440(4)
C44 C 1.01960(17) 0.13251(17) 0.15338(5)
H33 H 1.0521 0.1334 0.1544
C45 C 1.08128(15) 0.23391(14) 0.16882(4)
H34 H 1.0634 0.2079 0.1753
C46 C 1.12886(15) 0.28302(15) 0.17184(4)
C47 C 1.19181(15) 0.36134(14) 0.16312(4)
H35 H 1.2058 0.3849 0.1560
C48 C 1.21741(16) 0.37566(17) 0.17463(5)
H36 H 1.2491 0.4083 0.1754
C49 C 1.19784(19) 0.3432(2) 0.18516(5)
H37 H 1.2153 0.3533 0.1934
C50 C 1.15278(18) 0.29615(18) 0.18373(4)
H38 H 1.1383 0.2728 0.1909
C51 C 0.8470(3) 0.0302(4) 0.17028(8)
H39 H 0.8805 0.0359 0.1740
H40 H 0.8493 0.0649 0.1695
O3 O 0.8054(2) -0.0017(3) 0.17903(6)
H41 H 0.8130 0.0112 0.1866
C52 C 0.8753(4) 0.1286(4) 0.14681(18)
H42 H 0.8643 0.1136 0.1380
H43 H 0.8478 0.1045 0.1530
N1 N 0.99745(10) 0.05531(10) 0.03336(3)
N2 N 0.94494(10) 0.00503(10) 0.05349(3)
N3 N 0.74045(11) -0.20278(12) 0.13049(3)
N4 N 0.68467(11) -0.25683(11) 0.14985(3)
N5 N 0.65096(11) -0.19618(12) 0.13449(3)
N6 N 0.73628(11) -0.11035(11) 0.13928(3)
N7 N 1.06472(11) 0.22738(11) 0.15714(3)
N8 N 1.14742(11) 0.31532(12) 0.16132(3)
Fe1 Fe 1.0000 0.0000 0.043741(8)
Fe2 Fe 0.712771(19) -0.182231(19) 0.145301(5)
O4 O 0.8764(6) 0.1760(7) 0.1471(3)
H44 H 0.8458 0.1709 0.1461
C1A C 0.93224(13) -0.10682(18) 0.03768(3)
C2A C 0.91785(14) -0.05481(20) 0.02329(3)
H1A H 0.9265 -0.0212 0.0200
C3A C 0.87711(15) -0.09976(21) 0.01732(4)
H2A H 0.8581 -0.0962 0.0103
C4A C 0.86495(15) -0.14845(21) 0.02165(4)
H3A H 0.8380 -0.1791 0.0175
C5A C 0.89262(15) -0.15235(21) 0.03216(4)
H4A H 0.8845 -0.1857 0.0355
C6A C 0.96254(14) -0.10543(20) 0.04877(3)
H5A H 0.9588 -0.1367 0.0525
C7A C 1.02430(14) -0.05867(19) 0.06502(3)
C8A C 0.99944(16) -0.07611(23) 0.07678(4)
H6A H 0.9629 -0.0885 0.0775
C9A C 1.02750(17) -0.07571(24) 0.08775(4)
C10A C 1.10570(15) -0.04017(20) 0.07501(4)
H7A H 1.1423 -0.0275 0.0743
C11A C 1.08097(15) -0.05796(20) 0.08685(3)
C12A C 1.07732(14) -0.04076(20) 0.06417(3)
H8A H 1.0947 -0.0286 0.0560
C13A C 1.11147(15) -0.05891(21) 0.09830(4)
C14A C 1.12688(16) -0.09634(22) 0.09944(3)
C15A C 1.15622(15) -0.09606(21) 0.11005(3)
H9A H 1.1667 -0.1217 0.1108
C16A C 1.17007(14) -0.05809(20) 0.11960(3)
C17A C 1.15443(19) -0.02059(25) 0.11886(4)
H10A H 1.1636 0.0050 0.1255
C18A C 1.12545(18) -0.02168(24) 0.10830(4)
H11A H 1.1144 0.0036 0.1077
C19A C 1.25137(16) -0.02010(22) 0.13010(4)
H12A H 1.2650 0.0041 0.1230
C20A C 1.28413(15) -0.01764(21) 0.14096(4)
C21A C 1.28410(16) -0.05927(21) 0.16016(4)
H13A H 1.2668 -0.0865 0.1664
C22A C 1.33584(17) -0.02276(23) 0.16225(5)
H14A H 1.3535 -0.0252 0.1697
C23A C 1.36190(18) 0.01711(25) 0.15355(5)
H15A H 1.3977 0.0427 0.1550
C24A C 1.33597(17) 0.01995(25) 0.14273(5)
H16A H 1.3535 0.0474 0.1366
C25A C 0.9965(4) -0.0979(6) 0.10036(7)
H17A H 0.9594 -0.1236 0.0984
H18A H 1.0115 -0.1158 0.1055
O1A O 0.9999(3) -0.0548(5) 0.10757(8)
H19A H 1.0176 -0.0277 0.1034
C26A C 1.1068(12) -0.1409(17) 0.0899(2)
H20A H 1.0693 -0.1534 0.0882
H21A H 1.1259 -0.1275 0.0816
O2A O 1.1120(3) -0.1840(4) 0.09403(9)
H22A H 1.1424 -0.1730 0.0970
C27A C 1.15222(15) -0.19340(21) 0.12899(4)
C28A C 1.24219(15) -0.14887(21) 0.13180(4)
H23A H 1.2733 -0.1209 0.1355
C29A C 1.24567(17) -0.18528(23) 0.12359(4)
H24A H 1.2790 -0.1815 0.1217
C30A C 1.20169(18) -0.22577(24) 0.11841(4)
H25A H 1.2037 -0.2509 0.1130
C31A C 1.15389(16) -0.22979(23) 0.12119(4)
H26A H 1.1224 -0.2579 0.1177
C32A C 1.10517(14) -0.19181(21) 0.13215(4)
H27A H 1.0717 -0.2181 0.1291
C33A C 1.06180(14) -0.15299(20) 0.14200(4)
C34A C 1.03965(14) -0.16587(21) 0.15425(4)
H28A H 1.0562 -0.1744 0.1610
C35A C 0.99315(15) -0.16639(22) 0.15662(4)
C36A C 0.99203(16) -0.14079(23) 0.13492(4)
H29A H 0.9762 -0.1308 0.1283
C37A C 0.96869(14) -0.15514(21) 0.14692(4)
C38A C 1.03798(16) -0.14046(23) 0.13228(4)
H30A H 1.0531 -0.1316 0.1238
C39A C 0.91725(14) -0.15593(21) 0.14948(4)
C40A C 0.87107(17) -0.20393(23) 0.15009(5)
C41A C 0.91463(16) -0.11177(24) 0.15077(5)
H31A H 0.9459 -0.0787 0.1499
C42A C 0.82395(16) -0.20586(23) 0.15260(5)
H32A H 0.7925 -0.2388 0.1531
C43A C 0.82243(14) -0.16068(21) 0.15440(4)
C44A C 0.86749(17) -0.11291(24) 0.15338(5)
H33A H 0.8666 -0.0813 0.1544
C45A C 0.76609(14) -0.15263(21) 0.16882(4)
H34A H 0.7921 -0.1445 0.1753
C46A C 0.71698(15) -0.15416(21) 0.17184(4)
C47A C 0.63866(14) -0.16953(21) 0.16312(4)
H35A H 0.6151 -0.1791 0.1560
C48A C 0.62434(17) -0.15825(23) 0.17463(5)
H36A H 0.5917 -0.1592 0.1754
C49A C 0.6568(2) -0.14536(28) 0.18516(5)
H37A H 0.6467 -0.1380 0.1934
C50A C 0.70385(18) -0.14337(25) 0.18373(4)
H38A H 0.7272 -0.1345 0.1909
C51A C 0.9698(4) -0.1832(5) 0.17028(8)
H39A H 0.9641 -0.1554 0.1740
H40A H 0.9351 -0.2156 0.1695
O3A O 1.0017(3) -0.1929(4) 0.17903(6)
H41A H 0.9888 -0.1982 0.1866
C52A C 0.8714(4) -0.2533(6) 0.14681(18)
H42A H 0.8864 -0.2493 0.1380
H43A H 0.8955 -0.2567 0.1530
N1A N 0.94469(10) -0.05786(14) 0.03336(3)
N2A N 0.99497(10) -0.06009(14) 0.05349(3)
N3A N 1.20278(12) -0.05677(16) 0.13049(3)
N4A N 1.25683(11) -0.05850(16) 0.14985(3)
N5A N 1.19618(12) -0.15286(16) 0.13449(3)
N6A N 1.11035(11) -0.15337(16) 0.13928(3)
N7A N 0.77262(11) -0.16266(16) 0.15714(3)
N8A N 0.68468(12) -0.16790(16) 0.16132(3)
Fe2A Fe 1.182231(19) -0.104998(27) 0.145301(5)
O4A O 0.8240(7) -0.2996(9) 0.1471(3)
H44A H 0.8291 -0.3251 0.1461
C1B C 1.10682(18) 0.03906(13) 0.03768(3)
C2B C 1.05481(20) -0.02734(14) 0.02329(3)
H1B H 1.0212 -0.0523 0.0200
C3B C 1.09976(21) -0.02313(15) 0.01732(4)
H2B H 1.0962 -0.0457 0.0103
C4B C 1.14845(21) 0.01340(15) 0.02165(4)
H3B H 1.1791 0.0171 0.0175
C5B C 1.15235(21) 0.04497(14) 0.03216(4)
H4B H 1.1857 0.0702 0.0355
C6B C 1.10543(20) 0.06797(14) 0.04877(3)
H5B H 1.1367 0.0955 0.0525
C7B C 1.05867(19) 0.08297(13) 0.06502(3)
C8B C 1.07611(23) 0.07555(16) 0.07678(4)
H6B H 1.0885 0.0514 0.0775
C9B C 1.07571(24) 0.10321(17) 0.08775(4)
C10B C 1.04017(20) 0.14587(13) 0.07501(4)
H7B H 1.0275 0.1698 0.0743
C11B C 1.05796(20) 0.13893(13) 0.08685(3)
C12B C 1.04076(20) 0.11808(14) 0.06417(3)
H8B H 1.0286 0.1233 0.0560
C13B C 1.05891(21) 0.17038(14) 0.09830(4)
C14B C 1.09634(22) 0.22322(15) 0.09944(3)
C15B C 1.09606(21) 0.25228(14) 0.11005(3)
H9B H 1.1217 0.2884 0.1108
C16B C 1.05809(20) 0.22816(14) 0.11960(3)
C17B C 1.02059(25) 0.17502(16) 0.11886(4)
H10B H 0.9950 0.1586 0.1255
C18B C 1.02168(24) 0.14713(16) 0.10830(4)
H11B H 0.9964 0.1108 0.1077
C19B C 1.02010(22) 0.27147(15) 0.13010(4)
H12B H 0.9959 0.2609 0.1230
C20B C 1.01764(21) 0.30177(14) 0.14096(4)
C21B C 1.05927(21) 0.34337(14) 0.16016(4)
H13B H 1.0865 0.3533 0.1664
C22B C 1.02276(23) 0.35860(16) 0.16225(5)
H14B H 1.0252 0.3787 0.1697
C23B C 0.98289(25) 0.34479(18) 0.15355(5)
H15B H 0.9573 0.3550 0.1550
C24B C 0.98005(25) 0.31602(18) 0.14273(5)
H16B H 0.9526 0.3061 0.1366
C25B C 1.0979(6) 0.0944(4) 0.10036(7)
H17B H 1.1236 0.0830 0.0984
H18B H 1.1158 0.1273 0.1055
O1B O 1.0548(5) 0.0547(4) 0.10757(8)
H19B H 1.0277 0.0453 0.1034
C26B C 1.1409(17) 0.2477(12) 0.0899(2)
H20B H 1.1534 0.2227 0.0882
H21B H 1.1275 0.2534 0.0816
O2B O 1.1840(4) 0.2960(3) 0.09403(9)
H22B H 1.1730 0.3154 0.0970
C27B C 1.19340(21) 0.34562(14) 0.12899(4)
C28B C 1.14887(21) 0.39106(14) 0.13180(4)
H23B H 1.1209 0.3942 0.1355
C29B C 1.18528(23) 0.43095(16) 0.12359(4)
H24B H 1.1815 0.4605 0.1217
C30B C 1.22577(24) 0.42746(16) 0.11841(4)
H25B H 1.2509 0.4546 0.1130
C31B C 1.22979(23) 0.38368(16) 0.12119(4)
H26B H 1.2579 0.3803 0.1177
C32B C 1.19181(21) 0.29698(15) 0.13215(4)
H27B H 1.2181 0.2898 0.1291
C33B C 1.15299(20) 0.21479(14) 0.14200(4)
C34B C 1.16587(21) 0.20552(15) 0.15425(4)
H28B H 1.1744 0.2306 0.1610
C35B C 1.16639(22) 0.15954(16) 0.15662(4)
C36B C 1.14079(23) 0.13282(16) 0.13492(4)
H29B H 1.1308 0.1070 0.1283
C37B C 1.15514(21) 0.12383(15) 0.14692(4)
C38B C 1.14046(23) 0.17844(17) 0.13228(4)
H30B H 1.1316 0.1847 0.1238
C39B C 1.15593(21) 0.07318(15) 0.14948(4)
C40B C 1.20393(23) 0.07500(16) 0.15009(5)
C41B C 1.11177(24) 0.02640(18) 0.15077(5)
H31B H 1.0787 0.0246 0.1499
C42B C 1.20586(23) 0.02981(17) 0.15260(5)
H32B H 1.2388 0.0313 0.1531
C43B C 1.16068(21) -0.01689(15) 0.15440(4)
C44B C 1.11291(24) -0.01960(17) 0.15338(5)
H33B H 1.0813 -0.0521 0.1544
C45B C 1.15263(21) -0.08128(15) 0.16882(4)
H34B H 1.1445 -0.0634 0.1753
C46B C 1.15416(21) -0.12886(15) 0.17184(4)
C47B C 1.16953(21) -0.19181(15) 0.16312(4)
H35B H 1.1791 -0.2058 0.1560
C48B C 1.15825(23) -0.21741(16) 0.17463(5)
H36B H 1.1592 -0.2491 0.1754
C49B C 1.14536(28) -0.19784(19) 0.18516(5)
H37B H 1.1380 -0.2153 0.1934
C50B C 1.14337(25) -0.15278(18) 0.18373(4)
H38B H 1.1345 -0.1383 0.1909
C51B C 1.1832(5) 0.1530(3) 0.17028(8)
H39B H 1.1554 0.1195 0.1740
H40B H 1.2156 0.1507 0.1695
O3B O 1.1929(4) 0.1946(2) 0.17903(6)
H41B H 1.1982 0.1870 0.1866
C52B C 1.2533(6) 0.1247(4) 0.14681(18)
H42B H 1.2493 0.1357 0.1380
H43B H 1.2567 0.1522 0.1530
N1B N 1.05786(14) 0.00255(10) 0.03336(3)
N2B N 1.06009(14) 0.05506(10) 0.05349(3)
N3B N 1.05677(16) 0.25955(11) 0.13049(3)
N4B N 1.05850(16) 0.31533(11) 0.14985(3)
N5B N 1.15286(16) 0.34904(11) 0.13449(3)
N6B N 1.15337(16) 0.26372(11) 0.13928(3)
N7B N 1.16266(16) -0.06472(11) 0.15714(3)
N8B N 1.16790(16) -0.14742(11) 0.16132(3)
Fe2B Fe 1.104998(27) 0.287229(19) 0.145301(5)
O4B O 1.2996(9) 0.1236(6) 0.1471(3)
H44B H 1.3251 0.1542 0.1461
C55? C 0.89679(17) -0.02750(17) 0.08775(4)
H48? H 0.9023 -0.0101 0.0959
C56? C 0.85413(13) -0.10570(15) 0.07501(4)
C57? C 0.8275(7) -0.1594(8) 0.07494(14)
H49? H 0.7895 -0.1721 0.0743
H50? H 0.8337 -0.1720 0.0833
O5? O 0.8427(8) -0.1822(7) 0.06431(18)
H51? H 0.8751 -0.1635 0.0629
O6? O 0.6948(10) -0.1346(9) 0.0914(2)
H52? H 0.6756 -0.1560 0.0859
C58? C 0.748(3) -0.119(3) 0.0870(6)
H53? H 0.7660 -0.0815 0.0842
H54? H 0.7466 -0.1407 0.0796
C59? C 0.84046(16) 0.00685(15) 0.15662(4)
H55? H 0.8472 0.0219 0.1651
C60? C 0.86718(16) 0.00797(16) 0.13492(4)
C61? C 0.92500(16) 0.12893(17) 0.15009(5)
H56? H 0.8927 0.1282 0.1488
C62? C 0.97360(18) 0.08537(16) 0.15077(5)
C63? C 0.9014(8) 0.0374(10) 0.1212(2)
H57? H 0.8806 0.0215 0.1132
H58? H 0.9149 0.0757 0.1212
O7? O 0.9428(6) 0.0251(6) 0.12279(16)
H59? H 0.9650 0.0461 0.1281
C64? C 0.9731(6) 0.0337(6) 0.14661(16)
H60? H 0.9937 0.0253 0.1528
H61? H 0.9367 0.0037 0.1463
O8? O 0.8898(6) 0.1825(7) 0.1371(3)
H62? H 0.8685 0.1716 0.1311
O9? O 0.9972(4) 0.0455(4) 0.13358(13)
H63? H 0.9974 0.0196 0.1307
C65? C 0.6667 -0.2675(8) 0.0833
C66? C 0.6156(8) -0.3232(11) 0.0741(2)
N10? N 0.5762(10) -0.3720(14) 0.0685(2)
H64? H 0.6369 -0.3028 0.0818
H65? H 0.6810 -0.2502 0.0749
H66? H 0.6549 -0.2469 0.0883
loop_
_geom_bond_atom_site_label_1
_geom_bond_atom_site_label_2
_geom_bond_site_symmetry_1
_geom_bond_site_symmetry_2
C1 C5 1_555 1_555
C2 H1 1_555 1_555
C3 C2 1_555 1_555
H2 C3 1_555 1_555
C4 C3 1_555 1_555
H3 C4 1_555 1_555
C5 C4 1_555 1_555
H4 C5 1_555 1_555
C6 C1 1_555 1_555
H5 C6 1_555 1_555
C7 C8 1_555 1_555
C8 H6 1_555 1_555
C9 C8 1_555 1_555
C10 H7 1_555 1_555
C11 C9 1_555 1_555
C12 C7 1_555 1_555
H8 C12 1_555 1_555
C13 C11 1_555 1_555
C14 C13 1_555 1_555
C15 C14 1_555 1_555
H9 C15 1_555 1_555
C16 C15 1_555 1_555
C17 C16 1_555 1_555
H10 C17 1_555 1_555
C18 C13 1_555 1_555
H11 C18 1_555 1_555
C19 H12 1_555 1_555
C20 C19 1_555 1_555
C21 H13 1_555 1_555
C22 C21 1_555 1_555
H14 C22 1_555 1_555
C23 C22 1_555 1_555
H15 C23 1_555 1_555
C24 C20 1_555 1_555
H16 C24 1_555 1_555
C25 C9 1_555 1_555
H17 C25 1_555 1_555
H18 C25 1_555 1_555
O1 C25 1_555 1_555
H19 O1 1_555 1_555
C26 C14 1_555 1_555
H20 C26 1_555 1_555
H21 C26 1_555 1_555
O2 C26 1_555 1_555
H22 O2 1_555 1_555
C27 C31 1_555 1_555
C28 H23 1_555 1_555
C29 C28 1_555 1_555
H24 C29 1_555 1_555
C30 C29 1_555 1_555
H25 C30 1_555 1_555
C31 C30 1_555 1_555
H26 C31 1_555 1_555
C32 C27 1_555 1_555
H27 C32 1_555 1_555
C33 C34 1_555 1_555
C34 H28 1_555 1_555
C35 C34 1_555 1_555
C36 H29 1_555 1_555
C37 C35 1_555 1_555
C38 C33 1_555 1_555
H30 C38 1_555 1_555
C39 C37 1_555 1_555
C40 C39 1_555 1_555
C41 C39 1_555 1_555
H31 C41 1_555 1_555
C42 C40 1_555 1_555
H32 C42 1_555 1_555
C43 C42 1_555 1_555
C44 C41 1_555 1_555
H33 C44 1_555 1_555
C45 H34 1_555 1_555
C46 C45 1_555 1_555
C47 H35 1_555 1_555
C48 C47 1_555 1_555
H36 C48 1_555 1_555
C49 C48 1_555 1_555
H37 C49 1_555 1_555
C50 C46 1_555 1_555
H38 C50 1_555 1_555
C51 C35 1_555 1_555
H39 C51 1_555 1_555
H40 C51 1_555 1_555
O3 C51 1_555 1_555
H41 O3 1_555 1_555
C52 C40 1_555 1_555
H42 C52 1_555 1_555
H43 C52 1_555 1_555
N1 C1 1_555 1_555
N2 C6 1_555 1_555
N3 C16 1_555 1_555
N4 C20 1_555 1_555
N5 C27 1_555 1_555
N6 C32 1_555 1_555
N7 C43 1_555 1_555
N8 C46 1_555 1_555
Fe1 N1 1_555 1_555
Fe2 N3 1_555 1_555
O4 C52 1_555 1_555
H44 O4 1_555 1_555
P1 F1 1_555 1_555
F2 P1 1_555 1_555
F3 P1 1_555 1_555
F4 P1 1_555 1_555
F5 P1 1_555 1_555
F6 P1 1_555 1_555
F7 P2 1_555 1_555
F8 P2 1_555 1_555
F9 P2 1_555 1_555
F10 P2 1_555 1_555
F11 P2 1_555 1_555
F12 P2 1_555 1_555
N9 C53 1_555 1_555
C53 C54 1_555 1_555
C54 H45 1_555 1_555
H46 C54 1_555 1_555
H47 C54 1_555 1_555
C1A C5A 1_555 1_555
C2A H1A 1_555 1_555
C3A C2A 1_555 1_555
H2A C3A 1_555 1_555
C4A C3A 1_555 1_555
H3A C4A 1_555 1_555
C5A C4A 1_555 1_555
H4A C5A 1_555 1_555
C6A C1A 1_555 1_555
H5A C6A 1_555 1_555
C7A C8A 1_555 1_555
C8A H6A 1_555 1_555
C9A C8A 1_555 1_555
C10A H7A 1_555 1_555
C11A C9A 1_555 1_555
C12A C7A 1_555 1_555
H8A C12A 1_555 1_555
C13A C11A 1_555 1_555
C14A C13A 1_555 1_555
C15A C14A 1_555 1_555
H9A C15A 1_555 1_555
C16A C15A 1_555 1_555
C17A C16A 1_555 1_555
H10A C17A 1_555 1_555
C18A C13A 1_555 1_555
H11A C18A 1_555 1_555
C19A H12A 1_555 1_555
C20A C19A 1_555 1_555
C21A H13A 1_555 1_555
C22A C21A 1_555 1_555
H14A C22A 1_555 1_555
C23A C22A 1_555 1_555
H15A C23A 1_555 1_555
C24A C20A 1_555 1_555
H16A C24A 1_555 1_555
C25A C9A 1_555 1_555
H17A C25A 1_555 1_555
H18A C25A 1_555 1_555
O1A C25A 1_555 1_555
H19A O1A 1_555 1_555
C26A C14A 1_555 1_555
H20A C26A 1_555 1_555
H21A C26A 1_555 1_555
O2A C26A 1_555 1_555
H22A O2A 1_555 1_555
C27A C31A 1_555 1_555
C28A H23A 1_555 1_555
C29A C28A 1_555 1_555
H24A C29A 1_555 1_555
C30A C29A 1_555 1_555
H25A C30A 1_555 1_555
C31A C30A 1_555 1_555
H26A C31A 1_555 1_555
C32A C27A 1_555 1_555
H27A C32A 1_555 1_555
C33A C34A 1_555 1_555
C34A H28A 1_555 1_555
C35A C34A 1_555 1_555
C36A H29A 1_555 1_555
C37A C35A 1_555 1_555
C38A C33A 1_555 1_555
H30A C38A 1_555 1_555
C39A C37A 1_555 1_555
C40A C39A 1_555 1_555
C41A C39A 1_555 1_555
H31A C41A 1_555 1_555
C42A C40A 1_555 1_555
H32A C42A 1_555 1_555
C43A C42A 1_555 1_555
C44A C41A 1_555 1_555
H33A C44A 1_555 1_555
C45A H34A 1_555 1_555
C46A C45A 1_555 1_555
C47A H35A 1_555 1_555
C48A C47A 1_555 1_555
H36A C48A 1_555 1_555
C49A C48A 1_555 1_555
H37A C49A 1_555 1_555
C50A C46A 1_555 1_555
H38A C50A 1_555 1_555
C51A C35A 1_555 1_555
H39A C51A 1_555 1_555
H40A C51A 1_555 1_555
O3A C51A 1_555 1_555
H41A O3A 1_555 1_555
C52A C40A 1_555 1_555
H42A C52A 1_555 1_555
H43A C52A 1_555 1_555
N1A Fe1 1_555 1_555
N2A Fe1 1_555 1_555
N3A C16A 1_555 1_555
N4A C20A 1_555 1_555
N5A C27A 1_555 1_555
N6A C32A 1_555 1_555
N7A Fe2 1_555 1_555
N8A Fe2 1_555 1_555
Fe2A N3A 1_555 1_555
O4A C52A 1_555 1_555
H44A O4A 1_555 1_555
C1B C5B 1_555 1_555
C2B H1B 1_555 1_555
C3B C2B 1_555 1_555
H2B C3B 1_555 1_555
C4B C3B 1_555 1_555
H3B C4B 1_555 1_555
C5B C4B 1_555 1_555
H4B C5B 1_555 1_555
C6B C1B 1_555 1_555
H5B C6B 1_555 1_555
C7B C8B 1_555 1_555
C8B H6B 1_555 1_555
C9B C8B 1_555 1_555
C10B H7B 1_555 1_555
C11B C9B 1_555 1_555
C12B C7B 1_555 1_555
H8B C12B 1_555 1_555
C13B C11B 1_555 1_555
C14B C13B 1_555 1_555
C15B C14B 1_555 1_555
H9B C15B 1_555 1_555
C16B C15B 1_555 1_555
C17B C16B 1_555 1_555
H10B C17B 1_555 1_555
C18B C13B 1_555 1_555
H11B C18B 1_555 1_555
C19B H12B 1_555 1_555
C20B C19B 1_555 1_555
C21B H13B 1_555 1_555
C22B C21B 1_555 1_555
H14B C22B 1_555 1_555
C23B C22B 1_555 1_555
H15B C23B 1_555 1_555
C24B C20B 1_555 1_555
H16B C24B 1_555 1_555
C25B C9B 1_555 1_555
H17B C25B 1_555 1_555
H18B C25B 1_555 1_555
O1B C25B 1_555 1_555
H19B O1B 1_555 1_555
C26B C14B 1_555 1_555
H20B C26B 1_555 1_555
H21B C26B 1_555 1_555
O2B C26B 1_555 1_555
H22B O2B 1_555 1_555
C27B C31B 1_555 1_555
C28B H23B 1_555 1_555
C29B C28B 1_555 1_555
H24B C29B 1_555 1_555
C30B C29B 1_555 1_555
H25B C30B 1_555 1_555
C31B C30B 1_555 1_555
H26B C31B 1_555 1_555
C32B C27B 1_555 1_555
H27B C32B 1_555 1_555
C33B C34B 1_555 1_555
C34B H28B 1_555 1_555
C35B C34B 1_555 1_555
C36B H29B 1_555 1_555
C37B C35B 1_555 1_555
C38B C33B 1_555 1_555
H30B C38B 1_555 1_555
C39B C37B 1_555 1_555
C40B C39B 1_555 1_555
C41B C39B 1_555 1_555
H31B C41B 1_555 1_555
C42B C40B 1_555 1_555
H32B C42B 1_555 1_555
C43B C42B 1_555 1_555
C44B C41B 1_555 1_555
H33B C44B 1_555 1_555
C45B H34B 1_555 1_555
C46B C45B 1_555 1_555
C47B H35B 1_555 1_555
C48B C47B 1_555 1_555
H36B C48B 1_555 1_555
C49B C48B 1_555 1_555
H37B C49B 1_555 1_555
C50B C46B 1_555 1_555
H38B C50B 1_555 1_555
C51B C35B 1_555 1_555
H39B C51B 1_555 1_555
H40B C51B 1_555 1_555
O3B C51B 1_555 1_555
H41B O3B 1_555 1_555
C52B C40B 1_555 1_555
H42B C52B 1_555 1_555
H43B C52B 1_555 1_555
N1B Fe1 1_555 1_555
N2B Fe1 1_555 1_555
N3B C16B 1_555 1_555
N4B C20B 1_555 1_555
N5B C27B 1_555 1_555
N6B C32B 1_555 1_555
N7B Fe2A 1_555 1_555
N8B Fe2A 1_555 1_555
Fe2B N7 1_555 1_555
O4B C52B 1_555 1_555
H44B O4B 1_555 1_555
C2 N1 1_555 1_555
C7 N2 1_555 1_555
C10 C11 1_555 1_555
C10 C12 1_555 1_555
C17 C18 1_555 1_555
C19 N3 1_555 1_555
C21 N4 1_555 1_555
C23 C24 1_555 1_555
C28 N5 1_555 1_555
C33 N6 1_555 1_555
C36 C37 1_555 1_555
C36 C38 1_555 1_555
C43 C44 1_555 1_555
C45 N7 1_555 1_555
C47 N8 1_555 1_555
C49 C50 1_555 1_555
N2 Fe1 1_555 1_555
N4 Fe2 1_555 1_555
N5 Fe2 1_555 1_555
N6 Fe2 1_555 1_555
N8 Fe2B 1_555 1_555
C1A N1A 1_555 1_555
C2A N1A 1_555 1_555
C6A N2A 1_555 1_555
C7A N2A 1_555 1_555
C10A C11A 1_555 1_555
C10A C12A 1_555 1_555
C17A C18A 1_555 1_555
C19A N3A 1_555 1_555
C21A N4A 1_555 1_555
C23A C24A 1_555 1_555
C28A N5A 1_555 1_555
C33A N6A 1_555 1_555
C36A C37A 1_555 1_555
C36A C38A 1_555 1_555
C43A C44A 1_555 1_555
C43A N7A 1_555 1_555
C45A N7A 1_555 1_555
C46A N8A 1_555 1_555
C47A N8A 1_555 1_555
C49A C50A 1_555 1_555
N4A Fe2A 1_555 1_555
N5A Fe2A 1_555 1_555
N6A Fe2A 1_555 1_555
C1B N1B 1_555 1_555
C2B N1B 1_555 1_555
C6B N2B 1_555 1_555
C7B N2B 1_555 1_555
C10B C11B 1_555 1_555
C10B C12B 1_555 1_555
C17B C18B 1_555 1_555
C19B N3B 1_555 1_555
C21B N4B 1_555 1_555
C23B C24B 1_555 1_555
C28B N5B 1_555 1_555
C33B N6B 1_555 1_555
C36B C37B 1_555 1_555
C36B C38B 1_555 1_555
C43B C44B 1_555 1_555
C43B N7B 1_555 1_555
C45B N7B 1_555 1_555
C46B N8B 1_555 1_555
C47B N8B 1_555 1_555
C49B C50B 1_555 1_555
N3B Fe2B 1_555 1_555
N4B Fe2B 1_555 1_555
N5B Fe2B 1_555 1_555
N6B Fe2B 1_555 1_555

#END
