# generated using pymatgen
data_Fe5H175C197(N5O3)6
_symmetry_space_group_name_H-M   'P 1'
_cell_length_a   29.91161745
_cell_length_b   29.91161745
_cell_length_c   37.35800000
_cell_angle_alpha   76.51595514
_cell_angle_beta   76.51595514
_cell_angle_gamma   69.49522040
_symmetry_Int_Tables_number   1
_chemical_formula_structural   Fe5H175C197(N5O3)6
_chemical_formula_sum   'Fe20 H700 C788 N120 O72'
_cell_volume   30019.66738259
_cell_formula_units_Z   4
loop_
 _symmetry_equiv_pos_site_id
 _symmetry_equiv_pos_as_xyz
  1  'x, y, z'
loop_
 _atom_site_type_symbol
 _atom_site_label
 _atom_site_symmetry_multiplicity
 _atom_site_fract_x
 _atom_site_fract_y
 _atom_site_fract_z
 _atom_site_occupancy
  C  C1  1  0.881300  0.415100  0.227000  1
  C  C2  1  0.584900  0.118700  0.273000  1
  C  C3  1  0.118700  0.584900  0.773000  1
  C  C4  1  0.415100  0.881300  0.727000  1
  C  C5  1  0.849800  0.209000  0.029100  1
  C  C6  1  0.791000  0.150200  0.470900  1
  C  C7  1  0.150200  0.791000  0.970900  1
  C  C8  1  0.209000  0.849800  0.529100  1
  C  C9  1  0.738410  0.797950  0.334290  1.0
  C  C10  1  0.202050  0.261590  0.165710  1.0
  C  C11  1  0.261590  0.202050  0.665710  1.0
  C  C12  1  0.797950  0.738410  0.834290  1.0
  C  C13  1  0.810380  0.742080  0.305840  1.0
  C  C14  1  0.257920  0.189620  0.194160  1.0
  C  C15  1  0.189620  0.257920  0.694160  1.0
  C  C16  1  0.742080  0.810380  0.805840  1.0
  C  C17  1  0.838540  0.765360  0.314300  1.0
  C  C18  1  0.234640  0.161460  0.185700  1.0
  C  C19  1  0.161460  0.234640  0.685700  1.0
  C  C20  1  0.765360  0.838540  0.814300  1.0
  C  C21  1  0.816680  0.804880  0.332760  1.0
  C  C22  1  0.195120  0.183320  0.167240  1.0
  C  C23  1  0.183320  0.195120  0.667240  1.0
  C  C24  1  0.804880  0.816680  0.832760  1.0
  C  C25  1  0.766580  0.821220  0.342750  1.0
  C  C26  1  0.178780  0.233420  0.157250  1.0
  C  C27  1  0.233420  0.178780  0.657250  1.0
  C  C28  1  0.821220  0.766580  0.842750  1.0
  C  C29  1  0.689340  0.811740  0.341260  1.0
  C  C30  1  0.188260  0.310660  0.158740  1.0
  C  C31  1  0.310660  0.188260  0.658740  1.0
  C  C32  1  0.811740  0.689340  0.841260  1.0
  C  C33  1  0.616750  0.801410  0.334400  1.0
  C  C34  1  0.198590  0.383250  0.165600  1.0
  C  C35  1  0.383250  0.198590  0.665600  1.0
  C  C36  1  0.801410  0.616750  0.834400  1.0
  C  C37  1  0.591250  0.768850  0.352060  1.0
  C  C38  1  0.231150  0.408750  0.147940  1.0
  C  C39  1  0.408750  0.231150  0.647940  1.0
  C  C40  1  0.768850  0.591250  0.852060  1.0
  C  C41  1  0.543630  0.781030  0.352220  1.0
  C  C42  1  0.218970  0.456370  0.147780  1.0
  C  C43  1  0.456370  0.218970  0.647780  1.0
  C  C44  1  0.781030  0.543630  0.852220  1.0
  C  C45  1  0.515690  0.829290  0.336500  1.0
  C  C46  1  0.170710  0.484310  0.163500  1.0
  C  C47  1  0.484310  0.170710  0.663500  1.0
  C  C48  1  0.829290  0.515690  0.836500  1.0
  C  C49  1  0.543550  0.859550  0.320980  1.0
  C  C50  1  0.140450  0.456450  0.179020  1.0
  C  C51  1  0.456450  0.140450  0.679020  1.0
  C  C52  1  0.859550  0.543550  0.820980  1.0
  C  C53  1  0.591910  0.847830  0.318330  1.0
  C  C54  1  0.152170  0.408090  0.181670  1.0
  C  C55  1  0.408090  0.152170  0.681670  1.0
  C  C56  1  0.847830  0.591910  0.818330  1.0
  C  C57  1  0.516500  0.747300  0.370000  1.0
  C  C58  1  0.252700  0.483500  0.130000  1.0
  C  C59  1  0.483500  0.252700  0.630000  1.0
  C  C60  1  0.747300  0.516500  0.870000  1.0
  C  C61  1  0.464620  0.840820  0.334850  1.0
  C  C62  1  0.159180  0.535380  0.165150  1.0
  C  C63  1  0.535380  0.159180  0.665150  1.0
  C  C64  1  0.840820  0.464620  0.834850  1.0
  C  C65  1  0.449610  0.826010  0.308870  1.0
  C  C66  1  0.173990  0.550390  0.191130  1.0
  C  C67  1  0.550390  0.173990  0.691130  1.0
  C  C68  1  0.826010  0.449610  0.808870  1.0
  C  C69  1  0.403600  0.837800  0.305110  1.0
  C  C70  1  0.162200  0.596400  0.194890  1.0
  C  C71  1  0.596400  0.162200  0.694890  1.0
  C  C72  1  0.837800  0.403600  0.805110  1.0
  C  C73  1  0.366400  0.868000  0.329430  1.0
  C  C74  1  0.132000  0.633600  0.170570  1.0
  C  C75  1  0.633600  0.132000  0.670570  1.0
  C  C76  1  0.868000  0.366400  0.829430  1.0
  C  C77  1  0.379150  0.883950  0.357870  1.0
  C  C78  1  0.116050  0.620850  0.142130  1.0
  C  C79  1  0.620850  0.116050  0.642130  1.0
  C  C80  1  0.883950  0.379150  0.857870  1.0
  C  C81  1  0.430410  0.871010  0.357740  1.0
  C  C82  1  0.128990  0.569590  0.142260  1.0
  C  C83  1  0.569590  0.128990  0.642260  1.0
  C  C84  1  0.871010  0.430410  0.857740  1.0
  C  C85  1  0.442300  0.887100  0.388700  1.0
  C  C86  1  0.112900  0.557700  0.111300  1.0
  C  C87  1  0.557700  0.112900  0.611300  1.0
  C  C88  1  0.887100  0.442300  0.888700  1.0
  C  C89  1  0.301940  0.897140  0.294700  1.0
  C  C90  1  0.102860  0.698060  0.205300  1.0
  C  C91  1  0.698060  0.102860  0.705300  1.0
  C  C92  1  0.897140  0.301940  0.794700  1.0
  C  C93  1  0.253850  0.905630  0.292970  1.0
  C  C94  1  0.094370  0.746150  0.207030  1.0
  C  C95  1  0.746150  0.094370  0.707030  1.0
  C  C96  1  0.905630  0.253850  0.792970  1.0
  C  C97  1  0.177180  0.901240  0.329320  1.0
  C  C98  1  0.098760  0.822820  0.170680  1.0
  C  C99  1  0.822820  0.098760  0.670680  1.0
  C  C100  1  0.901240  0.177180  0.829320  1.0
  C  C101  1  0.155330  0.922310  0.297800  1.0
  C  C102  1  0.077690  0.844670  0.202200  1.0
  C  C103  1  0.844670  0.077690  0.702200  1.0
  C  C104  1  0.922310  0.155330  0.797800  1.0
  C  C105  1  0.182740  0.935040  0.263920  1.0
  C  C106  1  0.064960  0.817260  0.236080  1.0
  C  C107  1  0.817260  0.064960  0.736080  1.0
  C  C108  1  0.935040  0.182740  0.763920  1.0
  C  C109  1  0.232000  0.926700  0.261490  1.0
  C  C110  1  0.073300  0.768000  0.238510  1.0
  C  C111  1  0.768000  0.073300  0.738510  1.0
  C  C112  1  0.926700  0.232000  0.761490  1.0
  C  C113  1  0.747980  0.741780  0.227970  1.0
  C  C114  1  0.258220  0.252020  0.272030  1.0
  C  C115  1  0.252020  0.258220  0.772030  1.0
  C  C116  1  0.741780  0.747980  0.727970  1.0
  C  C117  1  0.691810  0.817210  0.245500  1.0
  C  C118  1  0.182790  0.308190  0.254500  1.0
  C  C119  1  0.308190  0.182790  0.754500  1.0
  C  C120  1  0.817210  0.691810  0.745500  1.0
  C  C121  1  0.698800  0.837200  0.203000  1.0
  C  C122  1  0.162800  0.301200  0.297000  1.0
  C  C123  1  0.301200  0.162800  0.797000  1.0
  C  C124  1  0.837200  0.698800  0.703000  1.0
  C  C125  1  0.726100  0.808700  0.179000  1.0
  C  C126  1  0.191300  0.273900  0.321000  1.0
  C  C127  1  0.273900  0.191300  0.821000  1.0
  C  C128  1  0.808700  0.726100  0.679000  1.0
  C  C129  1  0.753470  0.759470  0.190000  1.0
  C  C130  1  0.240530  0.246530  0.310000  1.0
  C  C131  1  0.246530  0.240530  0.810000  1.0
  C  C132  1  0.759470  0.753470  0.690000  1.0
  C  C133  1  0.769590  0.692790  0.242240  1.0
  C  C134  1  0.307210  0.230410  0.257760  1.0
  C  C135  1  0.230410  0.307210  0.757760  1.0
  C  C136  1  0.692790  0.769590  0.742240  1.0
  C  C137  1  0.783590  0.632070  0.295150  1.0
  C  C138  1  0.367930  0.216410  0.204850  1.0
  C  C139  1  0.216410  0.367930  0.704850  1.0
  C  C140  1  0.632070  0.783590  0.795150  1.0
  C  C141  1  0.807440  0.619880  0.325440  1.0
  C  C142  1  0.380120  0.192560  0.174560  1.0
  C  C143  1  0.192560  0.380120  0.674560  1.0
  C  C144  1  0.619880  0.807440  0.825440  1.0
  C  C145  1  0.827030  0.571210  0.341270  1.0
  C  C146  1  0.428790  0.172970  0.158730  1.0
  C  C147  1  0.172970  0.428790  0.658730  1.0
  C  C148  1  0.571210  0.827030  0.841270  1.0
  C  C149  1  0.820900  0.534120  0.325650  1.0
  C  C150  1  0.465880  0.179100  0.174350  1.0
  C  C151  1  0.179100  0.465880  0.674350  1.0
  C  C152  1  0.534120  0.820900  0.825650  1.0
  C  C153  1  0.795720  0.547760  0.295310  1.0
  C  C154  1  0.452240  0.204280  0.204690  1.0
  C  C155  1  0.204280  0.452240  0.704690  1.0
  C  C156  1  0.547760  0.795720  0.795310  1.0
  C  C157  1  0.777810  0.595410  0.279950  1.0
  C  C158  1  0.404590  0.222190  0.220050  1.0
  C  C159  1  0.222190  0.404590  0.720050  1.0
  C  C160  1  0.595410  0.777810  0.779950  1.0
  C  C161  1  0.847960  0.562560  0.373700  1.0
  C  C162  1  0.437440  0.152040  0.126300  1.0
  C  C163  1  0.152040  0.437440  0.626300  1.0
  C  C164  1  0.562560  0.847960  0.873700  1.0
  C  C165  1  0.842090  0.482930  0.340960  1.0
  C  C166  1  0.517070  0.157910  0.159040  1.0
  C  C167  1  0.157910  0.517070  0.659040  1.0
  C  C168  1  0.482930  0.842090  0.840960  1.0
  C  C169  1  0.811490  0.456370  0.364340  1.0
  C  C170  1  0.543630  0.188510  0.135660  1.0
  C  C171  1  0.188510  0.543630  0.635660  1.0
  C  C172  1  0.456370  0.811490  0.864340  1.0
  C  C173  1  0.831350  0.406930  0.376430  1.0
  C  C174  1  0.593070  0.168650  0.123570  1.0
  C  C175  1  0.168650  0.593070  0.623570  1.0
  C  C176  1  0.406930  0.831350  0.876430  1.0
  C  C177  1  0.878870  0.384290  0.366180  1.0
  C  C178  1  0.615710  0.121130  0.133820  1.0
  C  C179  1  0.121130  0.615710  0.633820  1.0
  C  C180  1  0.384290  0.878870  0.866180  1.0
  C  C181  1  0.908090  0.410050  0.343910  1.0
  C  C182  1  0.589950  0.091910  0.156090  1.0
  C  C183  1  0.091910  0.589950  0.656090  1.0
  C  C184  1  0.410050  0.908090  0.843910  1.0
  C  C185  1  0.887740  0.459140  0.332370  1.0
  C  C186  1  0.540860  0.112260  0.167630  1.0
  C  C187  1  0.112260  0.540860  0.667630  1.0
  C  C188  1  0.459140  0.887740  0.832370  1.0
  C  C189  1  0.758940  0.482140  0.376920  1.0
  C  C190  1  0.517860  0.241060  0.123080  1.0
  C  C191  1  0.241060  0.517860  0.623080  1.0
  C  C192  1  0.482140  0.758940  0.876920  1.0
  C  C193  1  0.934590  0.315210  0.393550  1.0
  C  C194  1  0.684790  0.065410  0.106450  1.0
  C  C195  1  0.065410  0.684790  0.606450  1.0
  C  C196  1  0.315210  0.934590  0.893550  1.0
  C  C197  1  0.956240  0.263940  0.401330  1.0
  C  C198  1  0.736060  0.043760  0.098670  1.0
  C  C199  1  0.043760  0.736060  0.598670  1.0
  C  C200  1  0.263940  0.956240  0.901330  1.0
  C  C201  1  0.947690  0.192090  0.393980  1.0
  C  C202  1  0.807910  0.052310  0.106020  1.0
  C  C203  1  0.052310  0.807910  0.606020  1.0
  C  C204  1  0.192090  0.947690  0.893980  1.0
  C  C205  1  0.988200  0.166200  0.411600  1.0
  C  C206  1  0.833800  0.011800  0.088400  1.0
  C  C207  1  0.011800  0.833800  0.588400  1.0
  C  C208  1  0.166200  0.988200  0.911600  1.0
  C  C209  1  0.011100  0.189900  0.424100  1.0
  C  C210  1  0.810100  0.988900  0.075900  1.0
  C  C211  1  0.988900  0.810100  0.575900  1.0
  C  C212  1  0.189900  0.011100  0.924100  1.0
  C  C213  1  0.994600  0.240200  0.419400  1.0
  C  C214  1  0.759800  0.005400  0.080600  1.0
  C  C215  1  0.005400  0.759800  0.580600  1.0
  C  C216  1  0.240200  0.994600  0.919400  1.0
  C  C217  1  0.686140  0.656860  0.356510  1.0
  C  C218  1  0.343140  0.313860  0.143490  1.0
  C  C219  1  0.313860  0.343140  0.643490  1.0
  C  C220  1  0.656860  0.686140  0.856510  1.0
  C  C221  1  0.731160  0.686160  0.383490  1.0
  C  C222  1  0.313840  0.268840  0.116510  1.0
  C  C223  1  0.268840  0.313840  0.616510  1.0
  C  C224  1  0.686160  0.731160  0.883490  1.0
  C  C225  1  0.730350  0.652950  0.413430  1.0
  C  C226  1  0.347050  0.269650  0.086570  1.0
  C  C227  1  0.269650  0.347050  0.586570  1.0
  C  C228  1  0.652950  0.730350  0.913430  1.0
  C  C229  1  0.706950  0.620350  0.417250  1.0
  C  C230  1  0.379650  0.293050  0.082750  1.0
  C  C231  1  0.293050  0.379650  0.582750  1.0
  C  C232  1  0.620350  0.706950  0.917250  1.0
  C  C233  1  0.684090  0.620690  0.386530  1.0
  C  C234  1  0.379310  0.315910  0.113470  1.0
  C  C235  1  0.315910  0.379310  0.613470  1.0
  C  C236  1  0.620690  0.684090  0.886530  1.0
  C  C237  1  0.662710  0.664630  0.324700  1.0
  C  C238  1  0.335370  0.337290  0.175300  1.0
  C  C239  1  0.337290  0.335370  0.675300  1.0
  C  C240  1  0.664630  0.662710  0.824700  1.0
  C  C241  1  0.644260  0.711500  0.267400  1.0
  C  C242  1  0.288500  0.355740  0.232600  1.0
  C  C243  1  0.355740  0.288500  0.732600  1.0
  C  C244  1  0.711500  0.644260  0.767400  1.0
  C  C245  1  0.616120  0.758140  0.255270  1.0
  C  C246  1  0.241860  0.383880  0.244730  1.0
  C  C247  1  0.383880  0.241860  0.744730  1.0
  C  C248  1  0.758140  0.616120  0.755270  1.0
  C  C249  1  0.596040  0.769380  0.222880  1.0
  C  C250  1  0.230620  0.403960  0.277120  1.0
  C  C251  1  0.403960  0.230620  0.777120  1.0
  C  C252  1  0.769380  0.596040  0.722880  1.0
  C  C253  1  0.603370  0.732170  0.203000  1.0
  C  C254  1  0.267830  0.396630  0.297000  1.0
  C  C255  1  0.396630  0.267830  0.797000  1.0
  C  C256  1  0.732170  0.603370  0.703000  1.0
  C  C257  1  0.629220  0.685260  0.216130  1.0
  C  C258  1  0.314740  0.370780  0.283870  1.0
  C  C259  1  0.370780  0.314740  0.783870  1.0
  C  C260  1  0.685260  0.629220  0.716130  1.0
  C  C261  1  0.650230  0.673730  0.248980  1.0
  C  C262  1  0.326270  0.349770  0.251020  1.0
  C  C263  1  0.349770  0.326270  0.751020  1.0
  C  C264  1  0.673730  0.650230  0.748980  1.0
  C  C265  1  0.561300  0.819900  0.211500  1.0
  C  C266  1  0.180100  0.438700  0.288500  1.0
  C  C267  1  0.438700  0.180100  0.788500  1.0
  C  C268  1  0.819900  0.561300  0.711500  1.0
  C  C269  1  0.582950  0.744030  0.168070  1.0
  C  C270  1  0.255970  0.417050  0.331930  1.0
  C  C271  1  0.417050  0.255970  0.831930  1.0
  C  C272  1  0.744030  0.582950  0.668070  1.0
  C  C273  1  0.607170  0.756210  0.133650  1.0
  C  C274  1  0.243790  0.392830  0.366350  1.0
  C  C275  1  0.392830  0.243790  0.866350  1.0
  C  C276  1  0.756210  0.607170  0.633650  1.0
  C  C277  1  0.588060  0.767500  0.101400  1.0
  C  C278  1  0.232500  0.411940  0.398600  1.0
  C  C279  1  0.411940  0.232500  0.898600  1.0
  C  C280  1  0.767500  0.588060  0.601400  1.0
  C  C281  1  0.540920  0.767780  0.103330  1.0
  C  C282  1  0.232220  0.459080  0.396670  1.0
  C  C283  1  0.459080  0.232220  0.896670  1.0
  C  C284  1  0.767780  0.540920  0.603330  1.0
  C  C285  1  0.514660  0.755200  0.137330  1.0
  C  C286  1  0.244800  0.485340  0.362670  1.0
  C  C287  1  0.485340  0.244800  0.862670  1.0
  C  C288  1  0.755200  0.514660  0.637330  1.0
  C  C289  1  0.535350  0.742190  0.170930  1.0
  C  C290  1  0.257810  0.464650  0.329070  1.0
  C  C291  1  0.464650  0.257810  0.829070  1.0
  C  C292  1  0.742190  0.535350  0.670930  1.0
  C  C293  1  0.661860  0.755460  0.131460  1.0
  C  C294  1  0.244540  0.338140  0.368540  1.0
  C  C295  1  0.338140  0.244540  0.868540  1.0
  C  C296  1  0.755460  0.661860  0.631460  1.0
  C  C297  1  0.498460  0.756840  0.063500  1.0
  C  C298  1  0.243160  0.501540  0.436500  1.0
  C  C299  1  0.501540  0.243160  0.936500  1.0
  C  C300  1  0.756840  0.498460  0.563500  1.0
  C  C301  1  0.476500  0.773580  0.030080  1.0
  C  C302  1  0.226420  0.523500  0.469920  1.0
  C  C303  1  0.523500  0.226420  0.969920  1.0
  C  C304  1  0.773580  0.476500  0.530080  1.0
  C  C305  1  0.462900  0.834700  0.979880  1.0
  C  C306  1  0.165300  0.537100  0.520120  1.0
  C  C307  1  0.537100  0.165300  0.020120  1.0
  C  C308  1  0.834700  0.462900  0.479880  1.0
  C  C309  1  0.442590  0.811790  0.964040  1.0
  C  C310  1  0.188210  0.557410  0.535960  1.0
  C  C311  1  0.557410  0.188210  0.035960  1.0
  C  C312  1  0.811790  0.442590  0.464040  1.0
  C  C313  1  0.435850  0.768450  0.983800  1.0
  C  C314  1  0.231550  0.564150  0.516200  1.0
  C  C315  1  0.564150  0.231550  0.016200  1.0
  C  C316  1  0.768450  0.435850  0.483800  1.0
  C  C317  1  0.453730  0.747530  0.018230  1.0
  C  C318  1  0.252470  0.546270  0.481770  1.0
  C  C319  1  0.546270  0.252470  0.981770  1.0
  C  C320  1  0.747530  0.453730  0.518230  1.0
  C  C321  1  0.783150  0.309390  0.406970  1.0
  C  C322  1  0.690610  0.216850  0.093030  1.0
  C  C323  1  0.216850  0.690610  0.593030  1.0
  C  C324  1  0.309390  0.783150  0.906970  1.0
  C  C325  1  0.839080  0.267120  0.446180  1.0
  C  C326  1  0.732880  0.160920  0.053820  1.0
  C  C327  1  0.160920  0.732880  0.553820  1.0
  C  C328  1  0.267120  0.839080  0.946180  1.0
  C  C329  1  0.800730  0.270730  0.476330  1.0
  C  C330  1  0.729270  0.199270  0.023670  1.0
  C  C331  1  0.199270  0.729270  0.523670  1.0
  C  C332  1  0.270730  0.800730  0.976330  1.0
  C  C333  1  0.753820  0.292820  0.471220  1.0
  C  C334  1  0.707180  0.246180  0.028780  1.0
  C  C335  1  0.246180  0.707180  0.528780  1.0
  C  C336  1  0.292820  0.753820  0.971220  1.0
  C  C337  1  0.744390  0.312530  0.436100  1.0
  C  C338  1  0.687470  0.255610  0.063900  1.0
  C  C339  1  0.255610  0.687470  0.563900  1.0
  C  C340  1  0.312530  0.744390  0.936100  1.0
  C  C341  1  0.777260  0.331560  0.367850  1.0
  C  C342  1  0.668440  0.222740  0.132150  1.0
  C  C343  1  0.222740  0.668440  0.632150  1.0
  C  C344  1  0.331560  0.777260  0.867850  1.0
  C  C345  1  0.813590  0.347570  0.306650  1.0
  C  C346  1  0.652430  0.186410  0.193350  1.0
  C  C347  1  0.186410  0.652430  0.693350  1.0
  C  C348  1  0.347570  0.813590  0.806650  1.0
  C  C349  1  0.842070  0.374890  0.286690  1.0
  C  C350  1  0.625110  0.157930  0.213310  1.0
  C  C351  1  0.157930  0.625110  0.713310  1.0
  C  C352  1  0.374890  0.842070  0.786690  1.0
  C  C353  1  0.839650  0.394450  0.249290  1.0
  C  C354  1  0.605550  0.160350  0.250710  1.0
  C  C355  1  0.160350  0.605550  0.750710  1.0
  C  C356  1  0.394450  0.839650  0.749290  1.0
  C  C357  1  0.809040  0.384440  0.231660  1.0
  C  C358  1  0.615560  0.190960  0.268340  1.0
  C  C359  1  0.190960  0.615560  0.768340  1.0
  C  C360  1  0.384440  0.809040  0.731660  1.0
  C  C361  1  0.779960  0.357840  0.251440  1.0
  C  C362  1  0.642160  0.220040  0.248560  1.0
  C  C363  1  0.220040  0.642160  0.748560  1.0
  C  C364  1  0.357840  0.779960  0.751440  1.0
  C  C365  1  0.781320  0.338300  0.288960  1.0
  C  C366  1  0.661700  0.218680  0.211040  1.0
  C  C367  1  0.218680  0.661700  0.711040  1.0
  C  C368  1  0.338300  0.781320  0.788960  1.0
  C  C369  1  0.859500  0.435700  0.230700  1.0
  C  C370  1  0.564300  0.140500  0.269300  1.0
  C  C371  1  0.140500  0.564300  0.769300  1.0
  C  C372  1  0.435700  0.859500  0.730700  1.0
  C  C373  1  0.806970  0.404830  0.190700  1.0
  C  C374  1  0.595170  0.193030  0.309300  1.0
  C  C375  1  0.193030  0.595170  0.809300  1.0
  C  C376  1  0.404830  0.806970  0.690700  1.0
  C  C377  1  0.837540  0.377540  0.162970  1.0
  C  C378  1  0.622460  0.162460  0.337030  1.0
  C  C379  1  0.162460  0.622460  0.837030  1.0
  C  C380  1  0.377540  0.837540  0.662970  1.0
  C  C381  1  0.836120  0.397720  0.125950  1.0
  C  C382  1  0.602280  0.163880  0.374050  1.0
  C  C383  1  0.163880  0.602280  0.874050  1.0
  C  C384  1  0.397720  0.836120  0.625950  1.0
  C  C385  1  0.804800  0.441340  0.115800  1.0
  C  C386  1  0.558660  0.195200  0.384200  1.0
  C  C387  1  0.195200  0.558660  0.884200  1.0
  C  C388  1  0.441340  0.804800  0.615800  1.0
  C  C389  1  0.773020  0.469400  0.142520  1.0
  C  C390  1  0.530600  0.226980  0.357480  1.0
  C  C391  1  0.226980  0.530600  0.857480  1.0
  C  C392  1  0.469400  0.773020  0.642520  1.0
  C  C393  1  0.774260  0.449120  0.180170  1.0
  C  C394  1  0.550880  0.225740  0.319830  1.0
  C  C395  1  0.225740  0.550880  0.819830  1.0
  C  C396  1  0.449120  0.774260  0.680170  1.0
  C  C397  1  0.870880  0.329880  0.175150  1.0
  C  C398  1  0.670120  0.129120  0.324850  1.0
  C  C399  1  0.129120  0.670120  0.824850  1.0
  C  C400  1  0.329880  0.870880  0.675150  1.0
  C  C401  1  0.764580  0.483300  0.063930  1.0
  C  C402  1  0.516700  0.235420  0.436070  1.0
  C  C403  1  0.235420  0.516700  0.936070  1.0
  C  C404  1  0.483300  0.764580  0.563930  1.0
  C  C405  1  0.768120  0.502560  0.025440  1.0
  C  C406  1  0.497440  0.231880  0.474560  1.0
  C  C407  1  0.231880  0.497440  0.974560  1.0
  C  C408  1  0.502560  0.768120  0.525440  1.0
  C  C409  1  0.819560  0.517720  0.970310  1.0
  C  C410  1  0.482280  0.180440  0.529690  1.0
  C  C411  1  0.180440  0.482280  0.029690  1.0
  C  C412  1  0.517720  0.819560  0.470310  1.0
  C  C413  1  0.782320  0.536120  0.951720  1.0
  C  C414  1  0.463880  0.217680  0.548280  1.0
  C  C415  1  0.217680  0.463880  0.048280  1.0
  C  C416  1  0.536120  0.782320  0.451720  1.0
  C  C417  1  0.735520  0.540320  0.969110  1.0
  C  C418  1  0.459680  0.264480  0.530890  1.0
  C  C419  1  0.264480  0.459680  0.030890  1.0
  C  C420  1  0.540320  0.735520  0.469110  1.0
  C  C421  1  0.727050  0.524670  0.006960  1.0
  C  C422  1  0.475330  0.272950  0.493040  1.0
  C  C423  1  0.272950  0.475330  0.993040  1.0
  C  C424  1  0.524670  0.727050  0.506960  1.0
  C  C425  1  0.533500  0.909680  0.972760  1.0
  C  C426  1  0.090320  0.466500  0.527240  1.0
  C  C427  1  0.466500  0.090320  0.027240  1.0
  C  C428  1  0.909680  0.533500  0.472760  1.0
  C  C429  1  0.460580  0.949000  0.006160  1.0
  C  C430  1  0.051000  0.539420  0.493840  1.0
  C  C431  1  0.539420  0.051000  0.993840  1.0
  C  C432  1  0.949000  0.460580  0.506160  1.0
  C  C433  1  0.458650  0.991050  0.978610  1.0
  C  C434  1  0.008950  0.541350  0.521390  1.0
  C  C435  1  0.541350  0.008950  0.021390  1.0
  C  C436  1  0.991050  0.458650  0.478610  1.0
  C  C437  1  0.492580  0.990580  0.949300  1.0
  C  C438  1  0.009420  0.507420  0.550700  1.0
  C  C439  1  0.507420  0.009420  0.050700  1.0
  C  C440  1  0.990580  0.492580  0.449300  1.0
  C  C441  1  0.531900  0.949620  0.944940  1.0
  C  C442  1  0.050380  0.468100  0.555060  1.0
  C  C443  1  0.468100  0.050380  0.055060  1.0
  C  C444  1  0.949620  0.531900  0.444940  1.0
  C  C445  1  0.572030  0.866070  0.973160  1.0
  C  C446  1  0.133930  0.427970  0.526840  1.0
  C  C447  1  0.427970  0.133930  0.026840  1.0
  C  C448  1  0.866070  0.572030  0.473160  1.0
  C  C449  1  0.610190  0.788610  0.004360  1.0
  C  C450  1  0.211390  0.389810  0.495640  1.0
  C  C451  1  0.389810  0.211390  0.995640  1.0
  C  C452  1  0.788610  0.610190  0.504360  1.0
  C  C453  1  0.604170  0.743790  0.008450  1.0
  C  C454  1  0.256210  0.395830  0.491550  1.0
  C  C455  1  0.395830  0.256210  0.991550  1.0
  C  C456  1  0.743790  0.604170  0.508450  1.0
  C  C457  1  0.641800  0.701800  0.015420  1.0
  C  C458  1  0.298200  0.358200  0.484580  1.0
  C  C459  1  0.358200  0.298200  0.984580  1.0
  C  C460  1  0.701800  0.641800  0.515420  1.0
  C  C461  1  0.686160  0.703720  0.017250  1.0
  C  C462  1  0.296280  0.313840  0.482750  1.0
  C  C463  1  0.313840  0.296280  0.982750  1.0
  C  C464  1  0.703720  0.686160  0.517250  1.0
  C  C465  1  0.693250  0.747790  0.011360  1.0
  C  C466  1  0.252210  0.306750  0.488640  1.0
  C  C467  1  0.306750  0.252210  0.988640  1.0
  C  C468  1  0.747790  0.693250  0.511360  1.0
  C  C469  1  0.653330  0.791490  0.003180  1.0
  C  C470  1  0.208510  0.346670  0.496820  1.0
  C  C471  1  0.346670  0.208510  0.996820  1.0
  C  C472  1  0.791490  0.653330  0.503180  1.0
  C  C473  1  0.635200  0.653400  0.019800  1.0
  C  C474  1  0.346600  0.364800  0.480200  1.0
  C  C475  1  0.364800  0.346600  0.980200  1.0
  C  C476  1  0.653400  0.635200  0.519800  1.0
  C  C477  1  0.726490  0.658770  0.028190  1.0
  C  C478  1  0.341230  0.273510  0.471810  1.0
  C  C479  1  0.273510  0.341230  0.971810  1.0
  C  C480  1  0.658770  0.726490  0.528190  1.0
  C  C481  1  0.766730  0.641450  0.001730  1.0
  C  C482  1  0.358550  0.233270  0.498270  1.0
  C  C483  1  0.233270  0.358550  0.998270  1.0
  C  C484  1  0.641450  0.766730  0.501730  1.0
  C  C485  1  0.804680  0.601740  0.012680  1.0
  C  C486  1  0.398260  0.195320  0.487320  1.0
  C  C487  1  0.195320  0.398260  0.987320  1.0
  C  C488  1  0.601740  0.804680  0.512680  1.0
  C  C489  1  0.802970  0.579310  0.050410  1.0
  C  C490  1  0.420690  0.197030  0.449590  1.0
  C  C491  1  0.197030  0.420690  0.949590  1.0
  C  C492  1  0.579310  0.802970  0.550410  1.0
  C  C493  1  0.762400  0.597440  0.076510  1.0
  C  C494  1  0.402560  0.237600  0.423490  1.0
  C  C495  1  0.237600  0.402560  0.923490  1.0
  C  C496  1  0.597440  0.762400  0.576510  1.0
  C  C497  1  0.725290  0.636970  0.065130  1.0
  C  C498  1  0.363030  0.274710  0.434870  1.0
  C  C499  1  0.274710  0.363030  0.934870  1.0
  C  C500  1  0.636970  0.725290  0.565130  1.0
  C  C501  1  0.857520  0.532540  0.091520  1.0
  C  C502  1  0.467460  0.142480  0.408480  1.0
  C  C503  1  0.142480  0.467460  0.908480  1.0
  C  C504  1  0.532540  0.857520  0.591520  1.0
  C  C505  1  0.893210  0.487430  0.101910  1.0
  C  C506  1  0.512570  0.106790  0.398090  1.0
  C  C507  1  0.106790  0.512570  0.898090  1.0
  C  C508  1  0.487430  0.893210  0.601910  1.0
  C  C509  1  0.938510  0.413650  0.085510  1.0
  C  C510  1  0.586350  0.061490  0.414490  1.0
  C  C511  1  0.061490  0.586350  0.914490  1.0
  C  C512  1  0.413650  0.938510  0.585510  1.0
  C  C513  1  0.961400  0.403800  0.117570  1.0
  C  C514  1  0.596200  0.038600  0.382430  1.0
  C  C515  1  0.038600  0.596200  0.882430  1.0
  C  C516  1  0.403800  0.961400  0.617570  1.0
  C  C517  1  0.949140  0.436940  0.140400  1.0
  C  C518  1  0.563060  0.050860  0.359600  1.0
  C  C519  1  0.050860  0.563060  0.859600  1.0
  C  C520  1  0.436940  0.949140  0.640400  1.0
  C  C521  1  0.915710  0.477110  0.133690  1.0
  C  C522  1  0.522890  0.084290  0.366310  1.0
  C  C523  1  0.084290  0.522890  0.866310  1.0
  C  C524  1  0.477110  0.915710  0.633690  1.0
  C  C525  1  0.503100  0.884960  0.101100  1.0
  C  C526  1  0.115040  0.496900  0.398900  1.0
  C  C527  1  0.496900  0.115040  0.898900  1.0
  C  C528  1  0.884960  0.503100  0.601100  1.0
  C  C529  1  0.577420  0.879140  0.064940  1.0
  C  C530  1  0.120860  0.422580  0.435060  1.0
  C  C531  1  0.422580  0.120860  0.935060  1.0
  C  C532  1  0.879140  0.577420  0.564940  1.0
  C  C533  1  0.593040  0.895480  0.091140  1.0
  C  C534  1  0.104520  0.406960  0.408860  1.0
  C  C535  1  0.406960  0.104520  0.908860  1.0
  C  C536  1  0.895480  0.593040  0.591140  1.0
  C  C537  1  0.559020  0.905620  0.124400  1.0
  C  C538  1  0.094380  0.440980  0.375600  1.0
  C  C539  1  0.440980  0.094380  0.875600  1.0
  C  C540  1  0.905620  0.559020  0.624400  1.0
  C  C541  1  0.513920  0.900860  0.129560  1.0
  C  C542  1  0.099140  0.486080  0.370440  1.0
  C  C543  1  0.486080  0.099140  0.870440  1.0
  C  C544  1  0.900860  0.513920  0.629560  1.0
  C  C545  1  0.455370  0.881810  0.102570  1.0
  C  C546  1  0.118190  0.544630  0.397430  1.0
  C  C547  1  0.544630  0.118190  0.897430  1.0
  C  C548  1  0.881810  0.455370  0.602570  1.0
  C  C549  1  0.404610  0.860590  0.075240  1.0
  C  C550  1  0.139410  0.595390  0.424760  1.0
  C  C551  1  0.595390  0.139410  0.924760  1.0
  C  C552  1  0.860590  0.404610  0.575240  1.0
  C  C553  1  0.382100  0.877680  0.044190  1.0
  C  C554  1  0.122320  0.617900  0.455810  1.0
  C  C555  1  0.617900  0.122320  0.955810  1.0
  C  C556  1  0.877680  0.382100  0.544190  1.0
  C  C557  1  0.338730  0.866930  0.044800  1.0
  C  C558  1  0.133070  0.661270  0.455200  1.0
  C  C559  1  0.661270  0.133070  0.955200  1.0
  C  C560  1  0.866930  0.338730  0.544800  1.0
  C  C561  1  0.321020  0.839820  0.075300  1.0
  C  C562  1  0.160180  0.678980  0.424700  1.0
  C  C563  1  0.678980  0.160180  0.924700  1.0
  C  C564  1  0.839820  0.321020  0.575300  1.0
  C  C565  1  0.343450  0.823530  0.106930  1.0
  C  C566  1  0.176470  0.656550  0.393070  1.0
  C  C567  1  0.656550  0.176470  0.893070  1.0
  C  C568  1  0.823530  0.343450  0.606930  1.0
  C  C569  1  0.385830  0.834190  0.106120  1.0
  C  C570  1  0.165810  0.614170  0.393880  1.0
  C  C571  1  0.614170  0.165810  0.893880  1.0
  C  C572  1  0.834190  0.385830  0.606120  1.0
  C  C573  1  0.313400  0.886800  0.011000  1.0
  C  C574  1  0.113200  0.686600  0.489000  1.0
  C  C575  1  0.686600  0.113200  0.989000  1.0
  C  C576  1  0.886800  0.313400  0.511000  1.0
  C  C577  1  0.273550  0.828950  0.077280  1.0
  C  C578  1  0.171050  0.726450  0.422720  1.0
  C  C579  1  0.726450  0.171050  0.922720  1.0
  C  C580  1  0.828950  0.273550  0.577280  1.0
  C  C581  1  0.275100  0.783900  0.074300  1.0
  C  C582  1  0.216100  0.724900  0.425700  1.0
  C  C583  1  0.724900  0.216100  0.925700  1.0
  C  C584  1  0.783900  0.275100  0.574300  1.0
  C  C585  1  0.234810  0.770410  0.076330  1.0
  C  C586  1  0.229590  0.765190  0.423670  1.0
  C  C587  1  0.765190  0.229590  0.923670  1.0
  C  C588  1  0.770410  0.234810  0.576330  1.0
  C  C589  1  0.191720  0.804520  0.083150  1.0
  C  C590  1  0.195480  0.808280  0.416850  1.0
  C  C591  1  0.808280  0.195480  0.916850  1.0
  C  C592  1  0.804520  0.191720  0.583150  1.0
  C  C593  1  0.188330  0.849530  0.087100  1.0
  C  C594  1  0.150470  0.811670  0.412900  1.0
  C  C595  1  0.811670  0.150470  0.912900  1.0
  C  C596  1  0.849530  0.188330  0.587100  1.0
  C  C597  1  0.230600  0.863000  0.080900  1.0
  C  C598  1  0.137000  0.769400  0.419100  1.0
  C  C599  1  0.769400  0.137000  0.919100  1.0
  C  C600  1  0.863000  0.230600  0.580900  1.0
  C  C601  1  0.319400  0.751200  0.064500  1.0
  C  C602  1  0.248800  0.680600  0.435500  1.0
  C  C603  1  0.680600  0.248800  0.935500  1.0
  C  C604  1  0.751200  0.319400  0.564500  1.0
  C  C605  1  0.113270  0.814470  0.073900  1.0
  C  C606  1  0.185530  0.886730  0.426100  1.0
  C  C607  1  0.886730  0.185530  0.926100  1.0
  C  C608  1  0.814470  0.113270  0.573900  1.0
  C  C609  1  0.071040  0.801120  0.085690  1.0
  C  C610  1  0.198880  0.928960  0.414310  1.0
  C  C611  1  0.928960  0.198880  0.914310  1.0
  C  C612  1  0.801120  0.071040  0.585690  1.0
  C  C613  1  0.032770  0.745910  0.127950  1.0
  C  C614  1  0.254090  0.967230  0.372050  1.0
  C  C615  1  0.967230  0.254090  0.872050  1.0
  C  C616  1  0.745910  0.032770  0.627950  1.0
  C  C617  1  0.990400  0.769800  0.113100  1.0
  C  C618  1  0.230200  0.009600  0.386900  1.0
  C  C619  1  0.009600  0.230200  0.886900  1.0
  C  C620  1  0.769800  0.990400  0.613100  1.0
  C  C621  1  0.988350  0.809350  0.084600  1.0
  C  C622  1  0.190650  0.011650  0.415400  1.0
  C  C623  1  0.011650  0.190650  0.915400  1.0
  C  C624  1  0.809350  0.988350  0.584600  1.0
  C  C625  1  0.028670  0.825010  0.070860  1.0
  C  C626  1  0.174990  0.971330  0.429140  1.0
  C  C627  1  0.971330  0.174990  0.929140  1.0
  C  C628  1  0.825010  0.028670  0.570860  1.0
  C  C629  1  0.938360  0.455860  0.983020  1.0
  C  C630  1  0.544140  0.061640  0.516980  1.0
  C  C631  1  0.061640  0.544140  0.016980  1.0
  C  C632  1  0.455860  0.938360  0.483020  1.0
  C  C633  1  0.927180  0.531240  0.995680  1.0
  C  C634  1  0.468760  0.072820  0.504320  1.0
  C  C635  1  0.072820  0.468760  0.004320  1.0
  C  C636  1  0.531240  0.927180  0.495680  1.0
  C  C637  1  0.963060  0.538460  0.966950  1.0
  C  C638  1  0.461540  0.036940  0.533050  1.0
  C  C639  1  0.036940  0.461540  0.033050  1.0
  C  C640  1  0.538460  0.963060  0.466950  1.0
  C  C641  1  0.987680  0.502880  0.944860  1.0
  C  C642  1  0.497120  0.012320  0.555140  1.0
  C  C643  1  0.012320  0.497120  0.055140  1.0
  C  C644  1  0.502880  0.987680  0.444860  1.0
  C  C645  1  0.977220  0.460220  0.952360  1.0
  C  C646  1  0.539780  0.022780  0.547640  1.0
  C  C647  1  0.022780  0.539780  0.047640  1.0
  C  C648  1  0.460220  0.977220  0.452360  1.0
  C  C649  1  0.924640  0.412440  0.993930  1.0
  C  C650  1  0.587560  0.075360  0.506070  1.0
  C  C651  1  0.075360  0.587560  0.006070  1.0
  C  C652  1  0.412440  0.924640  0.493930  1.0
  C  C653  1  0.873190  0.371690  0.035050  1.0
  C  C654  1  0.628310  0.126810  0.464950  1.0
  C  C655  1  0.126810  0.628310  0.964950  1.0
  C  C656  1  0.371690  0.873190  0.535050  1.0
  C  C657  1  0.825630  0.375450  0.037690  1.0
  C  C658  1  0.624550  0.174370  0.462310  1.0
  C  C659  1  0.174370  0.624550  0.962310  1.0
  C  C660  1  0.375450  0.825630  0.537690  1.0
  C  C661  1  0.807950  0.337150  0.054070  1.0
  C  C662  1  0.662850  0.192050  0.445930  1.0
  C  C663  1  0.192050  0.662850  0.945930  1.0
  C  C664  1  0.337150  0.807950  0.554070  1.0
  C  C665  1  0.840710  0.293110  0.066960  1.0
  C  C666  1  0.706890  0.159290  0.433040  1.0
  C  C667  1  0.159290  0.706890  0.933040  1.0
  C  C668  1  0.293110  0.840710  0.566960  1.0
  C  C669  1  0.889670  0.288590  0.062950  1.0
  C  C670  1  0.711410  0.110330  0.437050  1.0
  C  C671  1  0.110330  0.711410  0.937050  1.0
  C  C672  1  0.288590  0.889670  0.562950  1.0
  C  C673  1  0.906480  0.328160  0.046620  1.0
  C  C674  1  0.671840  0.093520  0.453380  1.0
  C  C675  1  0.093520  0.671840  0.953380  1.0
  C  C676  1  0.328160  0.906480  0.546620  1.0
  C  C677  1  0.755570  0.342170  0.055100  1.0
  C  C678  1  0.657830  0.244430  0.444900  1.0
  C  C679  1  0.244430  0.657830  0.944900  1.0
  C  C680  1  0.342170  0.755570  0.555100  1.0
  C  C681  1  0.823430  0.251630  0.087980  1.0
  C  C682  1  0.748370  0.176570  0.412020  1.0
  C  C683  1  0.176570  0.748370  0.912020  1.0
  C  C684  1  0.251630  0.823430  0.587980  1.0
  C  C685  1  0.784040  0.216840  0.145630  1.0
  C  C686  1  0.783160  0.215960  0.354370  1.0
  C  C687  1  0.215960  0.783160  0.854370  1.0
  C  C688  1  0.216840  0.784040  0.645630  1.0
  C  C689  1  0.788640  0.176160  0.129330  1.0
  C  C690  1  0.823840  0.211360  0.370670  1.0
  C  C691  1  0.211360  0.823840  0.870670  1.0
  C  C692  1  0.176160  0.788640  0.629330  1.0
  C  C693  1  0.812190  0.174590  0.091800  1.0
  C  C694  1  0.825410  0.187810  0.408200  1.0
  C  C695  1  0.187810  0.825410  0.908200  1.0
  C  C696  1  0.174590  0.812190  0.591800  1.0
  C  C697  1  0.790000  0.291000  0.148200  1.0
  C  C698  1  0.709000  0.210000  0.351800  1.0
  C  C699  1  0.210000  0.709000  0.851800  1.0
  C  C700  1  0.291000  0.790000  0.648200  1.0
  C  C701  1  0.777990  0.121390  0.182610  1.0
  C  C702  1  0.878610  0.222010  0.317390  1.0
  C  C703  1  0.222010  0.878610  0.817390  1.0
  C  C704  1  0.121390  0.777990  0.682610  1.0
  C  C705  1  0.751240  0.087640  0.203590  1.0
  C  C706  1  0.912360  0.248760  0.296410  1.0
  C  C707  1  0.248760  0.912360  0.796410  1.0
  C  C708  1  0.087640  0.751240  0.703590  1.0
  C  C709  1  0.696190  0.052190  0.200890  1.0
  C  C710  1  0.947810  0.303810  0.299110  1.0
  C  C711  1  0.303810  0.947810  0.799110  1.0
  C  C712  1  0.052190  0.696190  0.700890  1.0
  C  C713  1  0.702670  0.025670  0.237000  1.0
  C  C714  1  0.974330  0.297330  0.263000  1.0
  C  C715  1  0.297330  0.974330  0.763000  1.0
  C  C716  1  0.025670  0.702670  0.737000  1.0
  C  C717  1  0.732200  0.035600  0.257500  1.0
  C  C718  1  0.964400  0.267800  0.242500  1.0
  C  C719  1  0.267800  0.964400  0.742500  1.0
  C  C720  1  0.035600  0.732200  0.757500  1.0
  C  C721  1  0.757460  0.065060  0.239300  1.0
  C  C722  1  0.934940  0.242540  0.260700  1.0
  C  C723  1  0.242540  0.934940  0.760700  1.0
  C  C724  1  0.065060  0.757460  0.739300  1.0
  C  C725  1  0.339030  0.787630  0.398000  1.0
  C  C726  1  0.212370  0.660970  0.102000  1.0
  C  C727  1  0.660970  0.212370  0.602000  1.0
  C  C728  1  0.787630  0.339030  0.898000  1.0
  C  C729  1  0.313700  0.851300  0.431690  1.0
  C  C730  1  0.148700  0.686300  0.068310  1.0
  C  C731  1  0.686300  0.148700  0.568310  1.0
  C  C732  1  0.851300  0.313700  0.931690  1.0
  C  C733  1  0.355500  0.826700  0.450700  1.0
  C  C734  1  0.173300  0.644500  0.049300  1.0
  C  C735  1  0.644500  0.173300  0.549300  1.0
  C  C736  1  0.826700  0.355500  0.950700  1.0
  C  C737  1  0.378270  0.784870  0.448010  1.0
  C  C738  1  0.215130  0.621730  0.051990  1.0
  C  C739  1  0.621730  0.215130  0.551990  1.0
  C  C740  1  0.784870  0.378270  0.948010  1.0
  C  C741  1  0.379660  0.760860  0.416960  1.0
  C  C742  1  0.239140  0.620340  0.083040  1.0
  C  C743  1  0.620340  0.239140  0.583040  1.0
  C  C744  1  0.760860  0.379660  0.916960  1.0
  C  C745  1  0.331040  0.769640  0.367070  1.0
  C  C746  1  0.230360  0.668960  0.132930  1.0
  C  C747  1  0.668960  0.230360  0.632930  1.0
  C  C748  1  0.769640  0.331040  0.867070  1.0
  C  C749  1  0.281960  0.781960  0.323510  1.0
  C  C750  1  0.218040  0.718040  0.176490  1.0
  C  C751  1  0.718040  0.218040  0.676490  1.0
  C  C752  1  0.781960  0.281960  0.823510  1.0
  C  C753  1  0.235580  0.784780  0.324240  1.0
  C  C754  1  0.215220  0.764420  0.175760  1.0
  C  C755  1  0.764420  0.215220  0.675760  1.0
  C  C756  1  0.784780  0.235580  0.824240  1.0
  C  C757  1  0.221250  0.772210  0.295540  1.0
  C  C758  1  0.227790  0.778750  0.204460  1.0
  C  C759  1  0.778750  0.227790  0.704460  1.0
  C  C760  1  0.772210  0.221250  0.795540  1.0
  C  C761  1  0.256970  0.755570  0.265990  1.0
  C  C762  1  0.244430  0.743030  0.234010  1.0
  C  C763  1  0.743030  0.244430  0.734010  1.0
  C  C764  1  0.755570  0.256970  0.765990  1.0
  C  C765  1  0.304180  0.753180  0.265210  1.0
  C  C766  1  0.246820  0.695820  0.234790  1.0
  C  C767  1  0.695820  0.246820  0.734790  1.0
  C  C768  1  0.753180  0.304180  0.765210  1.0
  C  C769  1  0.318170  0.765570  0.294220  1.0
  C  C770  1  0.234430  0.681830  0.205780  1.0
  C  C771  1  0.681830  0.234430  0.705780  1.0
  C  C772  1  0.765570  0.318170  0.794220  1.0
  C  C773  1  0.167800  0.774200  0.297900  1.0
  C  C774  1  0.225800  0.832200  0.202100  1.0
  C  C775  1  0.832200  0.225800  0.702100  1.0
  C  C776  1  0.774200  0.167800  0.797900  1.0
  C  C777  1  0.772070  0.659870  0.960000  1.0
  C  C778  1  0.340130  0.227930  0.540000  1.0
  C  C779  1  0.227930  0.340130  0.040000  1.0
  C  C780  1  0.659870  0.772070  0.460000  1.0
  C  C781  1  0.800830  0.254030  0.125160  1.0
  C  C782  1  0.745970  0.199170  0.374840  1.0
  C  C783  1  0.199170  0.745970  0.874840  1.0
  C  C784  1  0.254030  0.800830  0.625160  1.0
  C  C785  1  0.829650  0.212810  0.071220  1.0
  C  C786  1  0.787190  0.170350  0.428780  1.0
  C  C787  1  0.170350  0.787190  0.928780  1.0
  C  C788  1  0.212810  0.829650  0.571220  1.0
  Fe  Fe789  1  0.713281  0.731901  0.306210  1.0
  Fe  Fe790  1  0.268099  0.286719  0.193790  1.0
  Fe  Fe791  1  0.286719  0.268099  0.693790  1.0
  Fe  Fe792  1  0.731901  0.713281  0.806210  1.0
  Fe  Fe793  1  0.264840  0.863220  0.367930  1.0
  Fe  Fe794  1  0.136780  0.735160  0.132070  1.0
  Fe  Fe795  1  0.735160  0.136780  0.632070  1.0
  Fe  Fe796  1  0.863220  0.264840  0.867930  1.0
  Fe  Fe797  1  0.876318  0.283778  0.364680  1.0
  Fe  Fe798  1  0.716222  0.123682  0.135320  1.0
  Fe  Fe799  1  0.123682  0.716222  0.635320  1.0
  Fe  Fe800  1  0.283778  0.876318  0.864680  1.0
  Fe  Fe801  1  0.509715  0.847155  0.037517  1.0
  Fe  Fe802  1  0.152845  0.490285  0.462483  1.0
  Fe  Fe803  1  0.490285  0.152845  0.962483  1.0
  Fe  Fe804  1  0.847155  0.509715  0.537517  1.0
  Fe  Fe805  1  0.861576  0.475296  0.040968  1.0
  Fe  Fe806  1  0.524704  0.138424  0.459032  1.0
  Fe  Fe807  1  0.138424  0.524704  0.959032  1.0
  Fe  Fe808  1  0.475296  0.861576  0.540968  1.0
  H  H809  1  0.891100  0.409300  0.200900  1
  H  H810  1  0.590700  0.108900  0.299100  1
  H  H811  1  0.108900  0.590700  0.799100  1
  H  H812  1  0.409300  0.891100  0.700900  1
  H  H813  1  0.909900  0.403700  0.239600  1
  H  H814  1  0.596300  0.090100  0.260400  1
  H  H815  1  0.090100  0.596300  0.760400  1
  H  H816  1  0.403700  0.909900  0.739600  1
  H  H817  1  0.741700  0.662700  0.951900  1
  H  H818  1  0.337300  0.258300  0.548100  1
  H  H819  1  0.258300  0.337300  0.048100  1
  H  H820  1  0.662700  0.741700  0.451900  1
  H  H821  1  0.774100  0.693100  0.956000  1
  H  H822  1  0.306900  0.225900  0.544000  1
  H  H823  1  0.225900  0.306900  0.044000  1
  H  H824  1  0.693100  0.774100  0.456000  1
  H  H825  1  0.828800  0.237600  0.014800  1
  H  H826  1  0.762400  0.171200  0.485200  1
  H  H827  1  0.171200  0.762400  0.985200  1
  H  H828  1  0.237600  0.828800  0.514800  1
  H  H829  1  0.881900  0.213700  0.024100  1
  H  H830  1  0.786300  0.118100  0.475900  1
  H  H831  1  0.118100  0.786300  0.975900  1
  H  H832  1  0.213700  0.881900  0.524100  1
  H  H833  1  0.836000  0.178800  0.997900  1
  H  H834  1  0.821200  0.164000  0.502100  1
  H  H835  1  0.164000  0.821200  0.002100  1
  H  H836  1  0.178800  0.836000  0.497900  1
  H  H837  1  0.797100  0.281100  0.136100  1
  H  H838  1  0.718900  0.202900  0.363900  1
  H  H839  1  0.202900  0.718900  0.863900  1
  H  H840  1  0.281100  0.797100  0.636100  1
  H  H841  1  0.820200  0.477200  0.246900  1
  H  H842  1  0.522800  0.179800  0.253100  1
  H  H843  1  0.179800  0.522800  0.753100  1
  H  H844  1  0.477200  0.820200  0.746900  1
  H  H845  1  0.818700  0.653900  0.917900  1
  H  H846  1  0.346100  0.181300  0.582100  1
  H  H847  1  0.181300  0.346100  0.082100  1
  H  H848  1  0.653900  0.818700  0.417900  1
  H  H849  1  0.825400  0.715000  0.293200  1.0
  H  H850  1  0.285000  0.174600  0.206800  1.0
  H  H851  1  0.174600  0.285000  0.706800  1.0
  H  H852  1  0.715000  0.825400  0.793200  1.0
  H  H853  1  0.872800  0.754200  0.307500  1.0
  H  H854  1  0.245800  0.127200  0.192500  1.0
  H  H855  1  0.127200  0.245800  0.692500  1.0
  H  H856  1  0.754200  0.872800  0.807500  1.0
  H  H857  1  0.835900  0.820900  0.338500  1.0
  H  H858  1  0.179100  0.164100  0.161500  1.0
  H  H859  1  0.164100  0.179100  0.661500  1.0
  H  H860  1  0.820900  0.835900  0.838500  1.0
  H  H861  1  0.751600  0.848200  0.355400  1.0
  H  H862  1  0.151800  0.248400  0.144600  1.0
  H  H863  1  0.248400  0.151800  0.644600  1.0
  H  H864  1  0.848200  0.751600  0.855400  1.0
  H  H865  1  0.671100  0.838300  0.353800  1.0
  H  H866  1  0.161700  0.328900  0.146200  1.0
  H  H867  1  0.328900  0.161700  0.646200  1.0
  H  H868  1  0.838300  0.671100  0.853800  1.0
  H  H869  1  0.607900  0.737700  0.364100  1.0
  H  H870  1  0.262300  0.392100  0.135900  1.0
  H  H871  1  0.392100  0.262300  0.635900  1.0
  H  H872  1  0.737700  0.607900  0.864100  1.0
  H  H873  1  0.526900  0.891900  0.311200  1.0
  H  H874  1  0.108100  0.473100  0.188800  1.0
  H  H875  1  0.473100  0.108100  0.688800  1.0
  H  H876  1  0.891900  0.526900  0.811200  1.0
  H  H877  1  0.608500  0.870500  0.305900  1.0
  H  H878  1  0.129500  0.391500  0.194100  1.0
  H  H879  1  0.391500  0.129500  0.694100  1.0
  H  H880  1  0.870500  0.608500  0.805900  1.0
  H  H881  1  0.489400  0.762400  0.388800  1.0
  H  H882  1  0.237600  0.510600  0.111200  1.0
  H  H883  1  0.510600  0.237600  0.611200  1.0
  H  H884  1  0.762400  0.489400  0.888800  1.0
  H  H885  1  0.502600  0.740800  0.350900  1.0
  H  H886  1  0.259200  0.497400  0.149100  1.0
  H  H887  1  0.497400  0.259200  0.649100  1.0
  H  H888  1  0.740800  0.502600  0.850900  1.0
  H  H889  1  0.473500  0.806100  0.292600  1.0
  H  H890  1  0.193900  0.526500  0.207400  1.0
  H  H891  1  0.526500  0.193900  0.707400  1.0
  H  H892  1  0.806100  0.473500  0.792600  1.0
  H  H893  1  0.395200  0.826600  0.286600  1.0
  H  H894  1  0.173400  0.604800  0.213400  1.0
  H  H895  1  0.604800  0.173400  0.713400  1.0
  H  H896  1  0.826600  0.395200  0.786600  1.0
  H  H897  1  0.355500  0.901700  0.375600  1.0
  H  H898  1  0.098300  0.644500  0.124400  1.0
  H  H899  1  0.644500  0.098300  0.624400  1.0
  H  H900  1  0.901700  0.355500  0.875600  1.0
  H  H901  1  0.454100  0.858100  0.407300  1.0
  H  H902  1  0.141900  0.545900  0.092700  1.0
  H  H903  1  0.545900  0.141900  0.592700  1.0
  H  H904  1  0.858100  0.454100  0.907300  1.0
  H  H905  1  0.469300  0.900700  0.378100  1.0
  H  H906  1  0.099300  0.530700  0.121900  1.0
  H  H907  1  0.530700  0.099300  0.621900  1.0
  H  H908  1  0.900700  0.469300  0.878100  1.0
  H  H909  1  0.323800  0.903400  0.272700  1.0
  H  H910  1  0.096600  0.676200  0.227300  1.0
  H  H911  1  0.676200  0.096600  0.727300  1.0
  H  H912  1  0.903400  0.323800  0.772700  1.0
  H  H913  1  0.158400  0.892600  0.352500  1.0
  H  H914  1  0.107400  0.841600  0.147500  1.0
  H  H915  1  0.841600  0.107400  0.647500  1.0
  H  H916  1  0.892600  0.158400  0.852500  1.0
  H  H917  1  0.121600  0.928000  0.299500  1.0
  H  H918  1  0.072000  0.878400  0.200500  1.0
  H  H919  1  0.878400  0.072000  0.700500  1.0
  H  H920  1  0.928000  0.121600  0.799500  1.0
  H  H921  1  0.167800  0.949400  0.242400  1.0
  H  H922  1  0.050600  0.832200  0.257600  1.0
  H  H923  1  0.832200  0.050600  0.757600  1.0
  H  H924  1  0.949400  0.167800  0.742400  1.0
  H  H925  1  0.250800  0.935400  0.238300  1.0
  H  H926  1  0.064600  0.749200  0.261700  1.0
  H  H927  1  0.749200  0.064600  0.761700  1.0
  H  H928  1  0.935400  0.250800  0.738300  1.0
  H  H929  1  0.671500  0.836500  0.263600  1.0
  H  H930  1  0.163500  0.328500  0.236400  1.0
  H  H931  1  0.328500  0.163500  0.736400  1.0
  H  H932  1  0.836500  0.671500  0.763600  1.0
  H  H933  1  0.683100  0.870300  0.194300  1.0
  H  H934  1  0.129700  0.316900  0.305700  1.0
  H  H935  1  0.316900  0.129700  0.805700  1.0
  H  H936  1  0.870300  0.683100  0.694300  1.0
  H  H937  1  0.727900  0.821500  0.153100  1.0
  H  H938  1  0.178500  0.272100  0.346900  1.0
  H  H939  1  0.272100  0.178500  0.846900  1.0
  H  H940  1  0.821500  0.727900  0.653100  1.0
  H  H941  1  0.774300  0.739900  0.172200  1.0
  H  H942  1  0.260100  0.225700  0.327800  1.0
  H  H943  1  0.225700  0.260100  0.827800  1.0
  H  H944  1  0.739900  0.774300  0.672200  1.0
  H  H945  1  0.787900  0.669700  0.226400  1.0
  H  H946  1  0.330300  0.212100  0.273600  1.0
  H  H947  1  0.212100  0.330300  0.773600  1.0
  H  H948  1  0.669700  0.787900  0.726400  1.0
  H  H949  1  0.810600  0.644800  0.335600  1.0
  H  H950  1  0.355200  0.189400  0.164400  1.0
  H  H951  1  0.189400  0.355200  0.664400  1.0
  H  H952  1  0.644800  0.810600  0.835600  1.0
  H  H953  1  0.791100  0.523500  0.285400  1.0
  H  H954  1  0.476500  0.208900  0.214600  1.0
  H  H955  1  0.208900  0.476500  0.714600  1.0
  H  H956  1  0.523500  0.791100  0.785400  1.0
  H  H957  1  0.761600  0.604000  0.259200  1.0
  H  H958  1  0.396000  0.238400  0.240800  1.0
  H  H959  1  0.238400  0.396000  0.740800  1.0
  H  H960  1  0.604000  0.761600  0.759200  1.0
  H  H961  1  0.829500  0.544700  0.393800  1.0
  H  H962  1  0.455300  0.170500  0.106200  1.0
  H  H963  1  0.170500  0.455300  0.606200  1.0
  H  H964  1  0.544700  0.829500  0.893800  1.0
  H  H965  1  0.881000  0.539800  0.368600  1.0
  H  H966  1  0.460200  0.119000  0.131400  1.0
  H  H967  1  0.119000  0.460200  0.631400  1.0
  H  H968  1  0.539800  0.881000  0.868600  1.0
  H  H969  1  0.811300  0.389100  0.392000  1.0
  H  H970  1  0.610900  0.188700  0.108000  1.0
  H  H971  1  0.188700  0.610900  0.608000  1.0
  H  H972  1  0.389100  0.811300  0.892000  1.0
  H  H973  1  0.941700  0.394500  0.336600  1.0
  H  H974  1  0.605500  0.058300  0.163400  1.0
  H  H975  1  0.058300  0.605500  0.663400  1.0
  H  H976  1  0.394500  0.941700  0.836600  1.0
  H  H977  1  0.908400  0.476600  0.317200  1.0
  H  H978  1  0.523400  0.091600  0.182800  1.0
  H  H979  1  0.091600  0.523400  0.682800  1.0
  H  H980  1  0.476600  0.908400  0.817200  1.0
  H  H981  1  0.756500  0.507300  0.391100  1.0
  H  H982  1  0.492700  0.243500  0.108900  1.0
  H  H983  1  0.243500  0.492700  0.608900  1.0
  H  H984  1  0.507300  0.756500  0.891100  1.0
  H  H985  1  0.743300  0.498500  0.354700  1.0
  H  H986  1  0.501500  0.256700  0.145300  1.0
  H  H987  1  0.256700  0.501500  0.645300  1.0
  H  H988  1  0.498500  0.743300  0.854700  1.0
  H  H989  1  0.946700  0.336100  0.401500  1.0
  H  H990  1  0.663900  0.053300  0.098500  1.0
  H  H991  1  0.053300  0.663900  0.598500  1.0
  H  H992  1  0.336100  0.946700  0.901500  1.0
  H  H993  1  0.931300  0.175100  0.385900  1.0
  H  H994  1  0.824900  0.068700  0.114100  1.0
  H  H995  1  0.068700  0.824900  0.614100  1.0
  H  H996  1  0.175100  0.931300  0.885900  1.0
  H  H997  1  0.999600  0.131800  0.414700  1.0
  H  H998  1  0.868200  0.000400  0.085300  1.0
  H  H999  1  0.000400  0.868200  0.585300  1.0
  H  H1000  1  0.131800  0.999600  0.914700  1.0
  H  H1001  1  0.038500  0.172300  0.436000  1.0
  H  H1002  1  0.827700  0.961500  0.064000  1.0
  H  H1003  1  0.961500  0.827700  0.564000  1.0
  H  H1004  1  0.172300  0.038500  0.936000  1.0
  H  H1005  1  0.009700  0.257500  0.428500  1.0
  H  H1006  1  0.742500  0.990300  0.071500  1.0
  H  H1007  1  0.990300  0.742500  0.571500  1.0
  H  H1008  1  0.257500  0.009700  0.928500  1.0
  H  H1009  1  0.746800  0.709400  0.382200  1.0
  H  H1010  1  0.290600  0.253200  0.117800  1.0
  H  H1011  1  0.253200  0.290600  0.617800  1.0
  H  H1012  1  0.709400  0.746800  0.882200  1.0
  H  H1013  1  0.746500  0.651900  0.432900  1.0
  H  H1014  1  0.348100  0.253500  0.067100  1.0
  H  H1015  1  0.253500  0.348100  0.567100  1.0
  H  H1016  1  0.651900  0.746500  0.932900  1.0
  H  H1017  1  0.705500  0.597500  0.439500  1.0
  H  H1018  1  0.402500  0.294500  0.060500  1.0
  H  H1019  1  0.294500  0.402500  0.560500  1.0
  H  H1020  1  0.597500  0.705500  0.939500  1.0
  H  H1021  1  0.668800  0.597400  0.387300  1.0
  H  H1022  1  0.402600  0.331200  0.112700  1.0
  H  H1023  1  0.331200  0.402600  0.612700  1.0
  H  H1024  1  0.597400  0.668800  0.887300  1.0
  H  H1025  1  0.646300  0.643900  0.322100  1.0
  H  H1026  1  0.356100  0.353700  0.177900  1.0
  H  H1027  1  0.353700  0.356100  0.677900  1.0
  H  H1028  1  0.643900  0.646300  0.822100  1.0
  H  H1029  1  0.610400  0.783000  0.269300  1.0
  H  H1030  1  0.217000  0.389600  0.230700  1.0
  H  H1031  1  0.389600  0.217000  0.730700  1.0
  H  H1032  1  0.783000  0.610400  0.769300  1.0
  H  H1033  1  0.633100  0.660100  0.203000  1.0
  H  H1034  1  0.339900  0.366900  0.297000  1.0
  H  H1035  1  0.366900  0.339900  0.797000  1.0
  H  H1036  1  0.660100  0.633100  0.703000  1.0
  H  H1037  1  0.667700  0.641300  0.258100  1.0
  H  H1038  1  0.358700  0.332300  0.241900  1.0
  H  H1039  1  0.332300  0.358700  0.741900  1.0
  H  H1040  1  0.641300  0.667700  0.758100  1.0
  H  H1041  1  0.580400  0.842600  0.203400  1.0
  H  H1042  1  0.157400  0.419600  0.296600  1.0
  H  H1043  1  0.419600  0.157400  0.796600  1.0
  H  H1044  1  0.842600  0.580400  0.703400  1.0
  H  H1045  1  0.548800  0.819000  0.189500  1.0
  H  H1046  1  0.181000  0.451200  0.310500  1.0
  H  H1047  1  0.451200  0.181000  0.810500  1.0
  H  H1048  1  0.819000  0.548800  0.689500  1.0
  H  H1049  1  0.606900  0.775100  0.078000  1.0
  H  H1050  1  0.224900  0.393100  0.422000  1.0
  H  H1051  1  0.393100  0.224900  0.922000  1.0
  H  H1052  1  0.775100  0.606900  0.578000  1.0
  H  H1053  1  0.482500  0.755100  0.138700  1.0
  H  H1054  1  0.244900  0.517500  0.361300  1.0
  H  H1055  1  0.517500  0.244900  0.861300  1.0
  H  H1056  1  0.755100  0.482500  0.638700  1.0
  H  H1057  1  0.517600  0.732600  0.194400  1.0
  H  H1058  1  0.267400  0.482400  0.305600  1.0
  H  H1059  1  0.482400  0.267400  0.805600  1.0
  H  H1060  1  0.732600  0.517600  0.694400  1.0
  H  H1061  1  0.660900  0.781300  0.144400  1.0
  H  H1062  1  0.218700  0.339100  0.355600  1.0
  H  H1063  1  0.339100  0.218700  0.855600  1.0
  H  H1064  1  0.781300  0.660900  0.644400  1.0
  H  H1065  1  0.679600  0.724200  0.145200  1.0
  H  H1066  1  0.275800  0.320400  0.354800  1.0
  H  H1067  1  0.320400  0.275800  0.854800  1.0
  H  H1068  1  0.724200  0.679600  0.645200  1.0
  H  H1069  1  0.497200  0.727400  0.079400  1.0
  H  H1070  1  0.272600  0.502800  0.420600  1.0
  H  H1071  1  0.502800  0.272600  0.920600  1.0
  H  H1072  1  0.727400  0.497200  0.579400  1.0
  H  H1073  1  0.464000  0.866000  0.967800  1.0
  H  H1074  1  0.134000  0.536000  0.532200  1.0
  H  H1075  1  0.536000  0.134000  0.032200  1.0
  H  H1076  1  0.866000  0.464000  0.467800  1.0
  H  H1077  1  0.433300  0.824900  0.940200  1.0
  H  H1078  1  0.175100  0.566700  0.559800  1.0
  H  H1079  1  0.566700  0.175100  0.059800  1.0
  H  H1080  1  0.824900  0.433300  0.440200  1.0
  H  H1081  1  0.419300  0.752900  0.974500  1.0
  H  H1082  1  0.247100  0.580700  0.525500  1.0
  H  H1083  1  0.580700  0.247100  0.025500  1.0
  H  H1084  1  0.752900  0.419300  0.474500  1.0
  H  H1085  1  0.450400  0.717600  0.032200  1.0
  H  H1086  1  0.282400  0.549600  0.467800  1.0
  H  H1087  1  0.549600  0.282400  0.967800  1.0
  H  H1088  1  0.717600  0.450400  0.532200  1.0
  H  H1089  1  0.871600  0.251600  0.450100  1.0
  H  H1090  1  0.748400  0.128400  0.049900  1.0
  H  H1091  1  0.128400  0.748400  0.549900  1.0
  H  H1092  1  0.251600  0.871600  0.950100  1.0
  H  H1093  1  0.807500  0.257500  0.500900  1.0
  H  H1094  1  0.742500  0.192500  0.999100  1.0
  H  H1095  1  0.192500  0.742500  0.499100  1.0
  H  H1096  1  0.257500  0.807500  0.000900  1.0
  H  H1097  1  0.728100  0.294500  0.491900  1.0
  H  H1098  1  0.705500  0.271900  0.008100  1.0
  H  H1099  1  0.271900  0.705500  0.508100  1.0
  H  H1100  1  0.294500  0.728100  0.991900  1.0
  H  H1101  1  0.712100  0.328100  0.431600  1.0
  H  H1102  1  0.671900  0.287900  0.068400  1.0
  H  H1103  1  0.287900  0.671900  0.568400  1.0
  H  H1104  1  0.328100  0.712100  0.931600  1.0
  H  H1105  1  0.746400  0.348000  0.360600  1.0
  H  H1106  1  0.652000  0.253600  0.139400  1.0
  H  H1107  1  0.253600  0.652000  0.639400  1.0
  H  H1108  1  0.348000  0.746400  0.860600  1.0
  H  H1109  1  0.863900  0.380700  0.298500  1.0
  H  H1110  1  0.619300  0.136100  0.201500  1.0
  H  H1111  1  0.136100  0.619300  0.701500  1.0
  H  H1112  1  0.380700  0.863900  0.798500  1.0
  H  H1113  1  0.758100  0.352500  0.239300  1.0
  H  H1114  1  0.647500  0.241900  0.260700  1.0
  H  H1115  1  0.241900  0.647500  0.760700  1.0
  H  H1116  1  0.352500  0.758100  0.739300  1.0
  H  H1117  1  0.761200  0.319200  0.302400  1.0
  H  H1118  1  0.680800  0.238800  0.197600  1.0
  H  H1119  1  0.238800  0.680800  0.697600  1.0
  H  H1120  1  0.319200  0.761200  0.802400  1.0
  H  H1121  1  0.874600  0.430600  0.204800  1.0
  H  H1122  1  0.569400  0.125400  0.295200  1.0
  H  H1123  1  0.125400  0.569400  0.795200  1.0
  H  H1124  1  0.430600  0.874600  0.704800  1.0
  H  H1125  1  0.831900  0.465900  0.229100  1.0
  H  H1126  1  0.534100  0.168100  0.270900  1.0
  H  H1127  1  0.168100  0.534100  0.770900  1.0
  H  H1128  1  0.465900  0.831900  0.729100  1.0
  H  H1129  1  0.857800  0.380400  0.107200  1.0
  H  H1130  1  0.619600  0.142200  0.392800  1.0
  H  H1131  1  0.142200  0.619600  0.892800  1.0
  H  H1132  1  0.380400  0.857800  0.607200  1.0
  H  H1133  1  0.751700  0.500700  0.135200  1.0
  H  H1134  1  0.499300  0.248300  0.364800  1.0
  H  H1135  1  0.248300  0.499300  0.864800  1.0
  H  H1136  1  0.500700  0.751700  0.635200  1.0
  H  H1137  1  0.752100  0.466300  0.198800  1.0
  H  H1138  1  0.533700  0.247900  0.301200  1.0
  H  H1139  1  0.247900  0.533700  0.801200  1.0
  H  H1140  1  0.466300  0.752100  0.698800  1.0
  H  H1141  1  0.852500  0.311100  0.194400  1.0
  H  H1142  1  0.688900  0.147500  0.305600  1.0
  H  H1143  1  0.147500  0.688900  0.805600  1.0
  H  H1144  1  0.311100  0.852500  0.694400  1.0
  H  H1145  1  0.895200  0.334200  0.186900  1.0
  H  H1146  1  0.665800  0.104800  0.313100  1.0
  H  H1147  1  0.104800  0.665800  0.813100  1.0
  H  H1148  1  0.334200  0.895200  0.686900  1.0
  H  H1149  1  0.734300  0.484900  0.079700  1.0
  H  H1150  1  0.515100  0.265700  0.420300  1.0
  H  H1151  1  0.265700  0.515100  0.920300  1.0
  H  H1152  1  0.484900  0.734300  0.579700  1.0
  H  H1153  1  0.850967  0.517633  0.957400  1.0
  H  H1154  1  0.482367  0.149033  0.542600  1.0
  H  H1155  1  0.149033  0.482367  0.042600  1.0
  H  H1156  1  0.517633  0.850967  0.457400  1.0
  H  H1157  1  0.788400  0.546600  0.925500  1.0
  H  H1158  1  0.453400  0.211600  0.574500  1.0
  H  H1159  1  0.211600  0.453400  0.074500  1.0
  H  H1160  1  0.546600  0.788400  0.425500  1.0
  H  H1161  1  0.709600  0.553800  0.955300  1.0
  H  H1162  1  0.446200  0.290400  0.544700  1.0
  H  H1163  1  0.290400  0.446200  0.044700  1.0
  H  H1164  1  0.553800  0.709600  0.455300  1.0
  H  H1165  1  0.695100  0.528500  0.020300  1.0
  H  H1166  1  0.471500  0.304900  0.479700  1.0
  H  H1167  1  0.304900  0.471500  0.979700  1.0
  H  H1168  1  0.528500  0.695100  0.520300  1.0
  H  H1169  1  0.435000  0.949400  0.026800  1.0
  H  H1170  1  0.050600  0.565000  0.473200  1.0
  H  H1171  1  0.565000  0.050600  0.973200  1.0
  H  H1172  1  0.949400  0.435000  0.526800  1.0
  H  H1173  1  0.432400  0.019800  0.981500  1.0
  H  H1174  1  0.980200  0.567600  0.518500  1.0
  H  H1175  1  0.567600  0.980200  0.018500  1.0
  H  H1176  1  0.019800  0.432400  0.481500  1.0
  H  H1177  1  0.490200  0.018800  0.930800  1.0
  H  H1178  1  0.981200  0.509800  0.569200  1.0
  H  H1179  1  0.509800  0.981200  0.069200  1.0
  H  H1180  1  0.018800  0.490200  0.430800  1.0
  H  H1181  1  0.556700  0.948900  0.923800  1.0
  H  H1182  1  0.051100  0.443300  0.576200  1.0
  H  H1183  1  0.443300  0.051100  0.076200  1.0
  H  H1184  1  0.948900  0.556700  0.423800  1.0
  H  H1185  1  0.599100  0.862100  0.953600  1.0
  H  H1186  1  0.137900  0.400900  0.546400  1.0
  H  H1187  1  0.400900  0.137900  0.046400  1.0
  H  H1188  1  0.862100  0.599100  0.453600  1.0
  H  H1189  1  0.573900  0.741900  0.006400  1.0
  H  H1190  1  0.258100  0.426100  0.493600  1.0
  H  H1191  1  0.426100  0.258100  0.993600  1.0
  H  H1192  1  0.741900  0.573900  0.506400  1.0
  H  H1193  1  0.723800  0.749800  0.012600  1.0
  H  H1194  1  0.250200  0.276200  0.487400  1.0
  H  H1195  1  0.276200  0.250200  0.987400  1.0
  H  H1196  1  0.749800  0.723800  0.512600  1.0
  H  H1197  1  0.658500  0.822100  0.997000  1.0
  H  H1198  1  0.177900  0.341500  0.503000  1.0
  H  H1199  1  0.341500  0.177900  0.003000  1.0
  H  H1200  1  0.822100  0.658500  0.497000  1.0
  H  H1201  1  0.641200  0.635200  0.044900  1.0
  H  H1202  1  0.364800  0.358800  0.455100  1.0
  H  H1203  1  0.358800  0.364800  0.955100  1.0
  H  H1204  1  0.635200  0.641200  0.544900  1.0
  H  H1205  1  0.659500  0.635100  0.001100  1.0
  H  H1206  1  0.364900  0.340500  0.498900  1.0
  H  H1207  1  0.340500  0.364900  0.998900  1.0
  H  H1208  1  0.635100  0.659500  0.501100  1.0
  H  H1209  1  0.832100  0.589500  0.994700  1.0
  H  H1210  1  0.410500  0.167900  0.505300  1.0
  H  H1211  1  0.167900  0.410500  0.005300  1.0
  H  H1212  1  0.589500  0.832100  0.494700  1.0
  H  H1213  1  0.760500  0.582500  0.102000  1.0
  H  H1214  1  0.417500  0.239500  0.398000  1.0
  H  H1215  1  0.239500  0.417500  0.898000  1.0
  H  H1216  1  0.582500  0.760500  0.602000  1.0
  H  H1217  1  0.698100  0.649700  0.083100  1.0
  H  H1218  1  0.350300  0.301900  0.416900  1.0
  H  H1219  1  0.301900  0.350300  0.916900  1.0
  H  H1220  1  0.649700  0.698100  0.583100  1.0
  H  H1221  1  0.739800  0.676200  0.952400  1.0
  H  H1222  1  0.323800  0.260200  0.547600  1.0
  H  H1223  1  0.260200  0.323800  0.047600  1.0
  H  H1224  1  0.676200  0.739800  0.452400  1.0
  H  H1225  1  0.789600  0.632800  0.946000  1.0
  H  H1226  1  0.367200  0.210400  0.554000  1.0
  H  H1227  1  0.210400  0.367200  0.054000  1.0
  H  H1228  1  0.632800  0.789600  0.446000  1.0
  H  H1229  1  0.847300  0.558100  0.105600  1.0
  H  H1230  1  0.441900  0.152700  0.394400  1.0
  H  H1231  1  0.152700  0.441900  0.894400  1.0
  H  H1232  1  0.558100  0.847300  0.605600  1.0
  H  H1233  1  0.948600  0.390800  0.069000  1.0
  H  H1234  1  0.609200  0.051400  0.431000  1.0
  H  H1235  1  0.051400  0.609200  0.931000  1.0
  H  H1236  1  0.390800  0.948600  0.569000  1.0
  H  H1237  1  0.985500  0.373500  0.122800  1.0
  H  H1238  1  0.626500  0.014500  0.377200  1.0
  H  H1239  1  0.014500  0.626500  0.877200  1.0
  H  H1240  1  0.373500  0.985500  0.622800  1.0
  H  H1241  1  0.965200  0.430400  0.161100  1.0
  H  H1242  1  0.569600  0.034800  0.338900  1.0
  H  H1243  1  0.034800  0.569600  0.838900  1.0
  H  H1244  1  0.430400  0.965200  0.661100  1.0
  H  H1245  1  0.905900  0.500100  0.150100  1.0
  H  H1246  1  0.499900  0.094100  0.349900  1.0
  H  H1247  1  0.094100  0.499900  0.849900  1.0
  H  H1248  1  0.500100  0.905900  0.650100  1.0
  H  H1249  1  0.599400  0.871400  0.042700  1.0
  H  H1250  1  0.128600  0.400600  0.457300  1.0
  H  H1251  1  0.400600  0.128600  0.957300  1.0
  H  H1252  1  0.871400  0.599400  0.542700  1.0
  H  H1253  1  0.624100  0.899500  0.086800  1.0
  H  H1254  1  0.100500  0.375900  0.413200  1.0
  H  H1255  1  0.375900  0.100500  0.913200  1.0
  H  H1256  1  0.899500  0.624100  0.586800  1.0
  H  H1257  1  0.567800  0.915800  0.143300  1.0
  H  H1258  1  0.084200  0.432200  0.356700  1.0
  H  H1259  1  0.432200  0.084200  0.856700  1.0
  H  H1260  1  0.915800  0.567800  0.643300  1.0
  H  H1261  1  0.491000  0.908000  0.151500  1.0
  H  H1262  1  0.092000  0.509000  0.348500  1.0
  H  H1263  1  0.509000  0.092000  0.848500  1.0
  H  H1264  1  0.908000  0.491000  0.651500  1.0
  H  H1265  1  0.430200  0.889400  0.123200  1.0
  H  H1266  1  0.110600  0.569800  0.376800  1.0
  H  H1267  1  0.569800  0.110600  0.876800  1.0
  H  H1268  1  0.889400  0.430200  0.623200  1.0
  H  H1269  1  0.395100  0.896300  0.022700  1.0
  H  H1270  1  0.103700  0.604900  0.477300  1.0
  H  H1271  1  0.604900  0.103700  0.977300  1.0
  H  H1272  1  0.896300  0.395100  0.522700  1.0
  H  H1273  1  0.330100  0.805500  0.128700  1.0
  H  H1274  1  0.194500  0.669900  0.371300  1.0
  H  H1275  1  0.669900  0.194500  0.871300  1.0
  H  H1276  1  0.805500  0.330100  0.628700  1.0
  H  H1277  1  0.401600  0.822800  0.127300  1.0
  H  H1278  1  0.177200  0.598400  0.372700  1.0
  H  H1279  1  0.598400  0.177200  0.872700  1.0
  H  H1280  1  0.822800  0.401600  0.627300  1.0
  H  H1281  1  0.308700  0.859900  0.002700  1.0
  H  H1282  1  0.140100  0.691300  0.497300  1.0
  H  H1283  1  0.691300  0.140100  0.997300  1.0
  H  H1284  1  0.859900  0.308700  0.502700  1.0
  H  H1285  1  0.281000  0.909800  0.018200  1.0
  H  H1286  1  0.090200  0.719000  0.481800  1.0
  H  H1287  1  0.719000  0.090200  0.981800  1.0
  H  H1288  1  0.909800  0.281000  0.518200  1.0
  H  H1289  1  0.237300  0.738900  0.073100  1.0
  H  H1290  1  0.261100  0.762700  0.426900  1.0
  H  H1291  1  0.762700  0.261100  0.926900  1.0
  H  H1292  1  0.738900  0.237300  0.573100  1.0
  H  H1293  1  0.157600  0.872000  0.094000  1.0
  H  H1294  1  0.128000  0.842400  0.406000  1.0
  H  H1295  1  0.842400  0.128000  0.906000  1.0
  H  H1296  1  0.872000  0.157600  0.594000  1.0
  H  H1297  1  0.228600  0.895800  0.079300  1.0
  H  H1298  1  0.104200  0.771400  0.420700  1.0
  H  H1299  1  0.771400  0.104200  0.920700  1.0
  H  H1300  1  0.895800  0.228600  0.579300  1.0
  H  H1301  1  0.339400  0.747600  0.083300  1.0
  H  H1302  1  0.252400  0.660600  0.416700  1.0
  H  H1303  1  0.660600  0.252400  0.916700  1.0
  H  H1304  1  0.747600  0.339400  0.583300  1.0
  H  H1305  1  0.334800  0.766200  0.040500  1.0
  H  H1306  1  0.233800  0.665200  0.459500  1.0
  H  H1307  1  0.665200  0.233800  0.959500  1.0
  H  H1308  1  0.766200  0.334800  0.540500  1.0
  H  H1309  1  0.116500  0.840100  0.054100  1.0
  H  H1310  1  0.159900  0.883500  0.445900  1.0
  H  H1311  1  0.883500  0.159900  0.945900  1.0
  H  H1312  1  0.840100  0.116500  0.554100  1.0
  H  H1313  1  0.034100  0.718900  0.147500  1.0
  H  H1314  1  0.281100  0.965900  0.352500  1.0
  H  H1315  1  0.965900  0.281100  0.852500  1.0
  H  H1316  1  0.718900  0.034100  0.647500  1.0
  H  H1317  1  0.962900  0.759100  0.122500  1.0
  H  H1318  1  0.240900  0.037100  0.377500  1.0
  H  H1319  1  0.037100  0.240900  0.877500  1.0
  H  H1320  1  0.759100  0.962900  0.622500  1.0
  H  H1321  1  0.959400  0.825600  0.074400  1.0
  H  H1322  1  0.174400  0.040600  0.425600  1.0
  H  H1323  1  0.040600  0.174400  0.925600  1.0
  H  H1324  1  0.825600  0.959400  0.574400  1.0
  H  H1325  1  0.027300  0.852100  0.051300  1.0
  H  H1326  1  0.147900  0.972700  0.448700  1.0
  H  H1327  1  0.972700  0.147900  0.948700  1.0
  H  H1328  1  0.852100  0.027300  0.551300  1.0
  H  H1329  1  0.910800  0.555600  0.010800  1.0
  H  H1330  1  0.444400  0.089200  0.489200  1.0
  H  H1331  1  0.089200  0.444400  0.989200  1.0
  H  H1332  1  0.555600  0.910800  0.510800  1.0
  H  H1333  1  0.971200  0.567600  0.962100  1.0
  H  H1334  1  0.432400  0.028800  0.537900  1.0
  H  H1335  1  0.028800  0.432400  0.037900  1.0
  H  H1336  1  0.567600  0.971200  0.462100  1.0
  H  H1337  1  0.012000  0.508200  0.924400  1.0
  H  H1338  1  0.491800  0.988000  0.575600  1.0
  H  H1339  1  0.988000  0.491800  0.075600  1.0
  H  H1340  1  0.508200  0.012000  0.424400  1.0
  H  H1341  1  0.994500  0.434900  0.938200  1.0
  H  H1342  1  0.565100  0.005500  0.561800  1.0
  H  H1343  1  0.005500  0.565100  0.061800  1.0
  H  H1344  1  0.434900  0.994500  0.438200  1.0
  H  H1345  1  0.940500  0.384900  0.982000  1.0
  H  H1346  1  0.615100  0.059500  0.518000  1.0
  H  H1347  1  0.059500  0.615100  0.018000  1.0
  H  H1348  1  0.384900  0.940500  0.482000  1.0
  H  H1349  1  0.804000  0.405400  0.027900  1.0
  H  H1350  1  0.594600  0.196000  0.472100  1.0
  H  H1351  1  0.196000  0.594600  0.972100  1.0
  H  H1352  1  0.405400  0.804000  0.527900  1.0
  H  H1353  1  0.911900  0.258300  0.071400  1.0
  H  H1354  1  0.741700  0.088100  0.428600  1.0
  H  H1355  1  0.088100  0.741700  0.928600  1.0
  H  H1356  1  0.258300  0.911900  0.571400  1.0
  H  H1357  1  0.939800  0.325200  0.043600  1.0
  H  H1358  1  0.674800  0.060200  0.456400  1.0
  H  H1359  1  0.060200  0.674800  0.956400  1.0
  H  H1360  1  0.325200  0.939800  0.543600  1.0
  H  H1361  1  0.754000  0.321600  0.038400  1.0
  H  H1362  1  0.678400  0.246000  0.461600  1.0
  H  H1363  1  0.246000  0.678400  0.961600  1.0
  H  H1364  1  0.321600  0.754000  0.538400  1.0
  H  H1365  1  0.741400  0.330400  0.080800  1.0
  H  H1366  1  0.669600  0.258600  0.419200  1.0
  H  H1367  1  0.258600  0.669600  0.919200  1.0
  H  H1368  1  0.330400  0.741400  0.580800  1.0
  H  H1369  1  0.769100  0.218100  0.170900  1.0
  H  H1370  1  0.781900  0.230900  0.329100  1.0
  H  H1371  1  0.230900  0.781900  0.829100  1.0
  H  H1372  1  0.218100  0.769100  0.670900  1.0
  H  H1373  1  0.816300  0.147700  0.080500  1.0
  H  H1374  1  0.852300  0.183700  0.419500  1.0
  H  H1375  1  0.183700  0.852300  0.919500  1.0
  H  H1376  1  0.147700  0.816300  0.580500  1.0
  H  H1377  1  0.821900  0.294700  0.147200  1.0
  H  H1378  1  0.705300  0.178100  0.352800  1.0
  H  H1379  1  0.178100  0.705300  0.852800  1.0
  H  H1380  1  0.294700  0.821900  0.647200  1.0
  H  H1381  1  0.771900  0.321100  0.133200  1.0
  H  H1382  1  0.678900  0.228100  0.366800  1.0
  H  H1383  1  0.228100  0.678900  0.866800  1.0
  H  H1384  1  0.321100  0.771900  0.633200  1.0
  H  H1385  1  0.746100  0.322900  0.185800  1.0
  H  H1386  1  0.677100  0.253900  0.314200  1.0
  H  H1387  1  0.253900  0.677100  0.814200  1.0
  H  H1388  1  0.322900  0.746100  0.685800  1.0
  H  H1389  1  0.845500  0.211900  0.046100  1.0
  H  H1390  1  0.788100  0.154500  0.453900  1.0
  H  H1391  1  0.154500  0.788100  0.953900  1.0
  H  H1392  1  0.211900  0.845500  0.546100  1.0
  H  H1393  1  0.800300  0.128700  0.192800  1.0
  H  H1394  1  0.871300  0.199700  0.307200  1.0
  H  H1395  1  0.199700  0.871300  0.807200  1.0
  H  H1396  1  0.128700  0.800300  0.692800  1.0
  H  H1397  1  0.674100  0.048100  0.188300  1.0
  H  H1398  1  0.951900  0.325900  0.311700  1.0
  H  H1399  1  0.325900  0.951900  0.811700  1.0
  H  H1400  1  0.048100  0.674100  0.688300  1.0
  H  H1401  1  0.687600  0.001400  0.247600  1.0
  H  H1402  1  0.998600  0.312400  0.252400  1.0
  H  H1403  1  0.312400  0.998600  0.752400  1.0
  H  H1404  1  0.001400  0.687600  0.747600  1.0
  H  H1405  1  0.733600  0.021600  0.283000  1.0
  H  H1406  1  0.978400  0.266400  0.217000  1.0
  H  H1407  1  0.266400  0.978400  0.717000  1.0
  H  H1408  1  0.021600  0.733600  0.783000  1.0
  H  H1409  1  0.779700  0.070500  0.250900  1.0
  H  H1410  1  0.929500  0.220300  0.249100  1.0
  H  H1411  1  0.220300  0.929500  0.749100  1.0
  H  H1412  1  0.070500  0.779700  0.750900  1.0
  H  H1413  1  0.290500  0.880100  0.438900  1.0
  H  H1414  1  0.119900  0.709500  0.061100  1.0
  H  H1415  1  0.709500  0.119900  0.561100  1.0
  H  H1416  1  0.880100  0.290500  0.938900  1.0
  H  H1417  1  0.364800  0.843400  0.465000  1.0
  H  H1418  1  0.156600  0.635200  0.035000  1.0
  H  H1419  1  0.635200  0.156600  0.535000  1.0
  H  H1420  1  0.843400  0.364800  0.965000  1.0
  H  H1421  1  0.396500  0.766100  0.467100  1.0
  H  H1422  1  0.233900  0.603500  0.032900  1.0
  H  H1423  1  0.603500  0.233900  0.532900  1.0
  H  H1424  1  0.766100  0.396500  0.967100  1.0
  H  H1425  1  0.403800  0.732000  0.410500  1.0
  H  H1426  1  0.268000  0.596200  0.089500  1.0
  H  H1427  1  0.596200  0.268000  0.589500  1.0
  H  H1428  1  0.732000  0.403800  0.910500  1.0
  H  H1429  1  0.351400  0.740400  0.358600  1.0
  H  H1430  1  0.259600  0.648600  0.141400  1.0
  H  H1431  1  0.648600  0.259600  0.641400  1.0
  H  H1432  1  0.740400  0.351400  0.858600  1.0
  H  H1433  1  0.211800  0.795600  0.344800  1.0
  H  H1434  1  0.204400  0.788200  0.155200  1.0
  H  H1435  1  0.788200  0.204400  0.655200  1.0
  H  H1436  1  0.795600  0.211800  0.844800  1.0
  H  H1437  1  0.327900  0.742900  0.244500  1.0
  H  H1438  1  0.257100  0.672100  0.255500  1.0
  H  H1439  1  0.672100  0.257100  0.755500  1.0
  H  H1440  1  0.742900  0.327900  0.744500  1.0
  H  H1441  1  0.350900  0.762900  0.293700  1.0
  H  H1442  1  0.237100  0.649100  0.206300  1.0
  H  H1443  1  0.649100  0.237100  0.706300  1.0
  H  H1444  1  0.762900  0.350900  0.793700  1.0
  H  H1445  1  0.152900  0.801300  0.279000  1.0
  H  H1446  1  0.198700  0.847100  0.221000  1.0
  H  H1447  1  0.847100  0.198700  0.721000  1.0
  H  H1448  1  0.801300  0.152900  0.779000  1.0
  H  H1449  1  0.167900  0.743900  0.291300  1.0
  H  H1450  1  0.256100  0.832100  0.208700  1.0
  H  H1451  1  0.832100  0.256100  0.708700  1.0
  H  H1452  1  0.743900  0.167900  0.791300  1.0
  H  H1453  1  0.554800  0.682000  0.373700  1.0
  H  H1454  1  0.318000  0.445200  0.126300  1.0
  H  H1455  1  0.445200  0.318000  0.626300  1.0
  H  H1456  1  0.682000  0.554800  0.873700  1.0
  H  H1457  1  0.378200  0.927000  0.399800  1.0
  H  H1458  1  0.073000  0.621800  0.100200  1.0
  H  H1459  1  0.621800  0.073000  0.600200  1.0
  H  H1460  1  0.927000  0.378200  0.899800  1.0
  H  H1461  1  0.866400  0.587000  0.408100  1.0
  H  H1462  1  0.413000  0.133600  0.091900  1.0
  H  H1463  1  0.133600  0.413000  0.591900  1.0
  H  H1464  1  0.587000  0.866400  0.908100  1.0
  H  H1465  1  0.751300  0.430700  0.415000  1.0
  H  H1466  1  0.569300  0.248700  0.085000  1.0
  H  H1467  1  0.248700  0.569300  0.585000  1.0
  H  H1468  1  0.430700  0.751300  0.915000  1.0
  H  H1469  1  0.510800  0.818600  0.237600  1.0
  H  H1470  1  0.181400  0.489200  0.262400  1.0
  H  H1471  1  0.489200  0.181400  0.762400  1.0
  H  H1472  1  0.818600  0.510800  0.737600  1.0
  H  H1473  1  0.674900  0.754300  0.081100  1.0
  H  H1474  1  0.245700  0.325100  0.418900  1.0
  H  H1475  1  0.325100  0.245700  0.918900  1.0
  H  H1476  1  0.754300  0.674900  0.581100  1.0
  H  H1477  1  0.890800  0.431400  0.270600  1.0
  H  H1478  1  0.568600  0.109200  0.229400  1.0
  H  H1479  1  0.109200  0.568600  0.729400  1.0
  H  H1480  1  0.431400  0.890800  0.770600  1.0
  H  H1481  1  0.895100  0.273500  0.151700  1.0
  H  H1482  1  0.726500  0.104900  0.348300  1.0
  H  H1483  1  0.104900  0.726500  0.848300  1.0
  H  H1484  1  0.273500  0.895100  0.651700  1.0
  H  H1485  1  0.567300  0.655100  0.036200  1.0
  H  H1486  1  0.344900  0.432700  0.463800  1.0
  H  H1487  1  0.432700  0.344900  0.963800  1.0
  H  H1488  1  0.655100  0.567300  0.536200  1.0
  H  H1489  1  0.814500  0.704500  0.928900  1.0
  H  H1490  1  0.295500  0.185500  0.571100  1.0
  H  H1491  1  0.185500  0.295500  0.071100  1.0
  H  H1492  1  0.704500  0.814500  0.428900  1.0
  H  H1493  1  0.368100  0.899300  0.984600  1.0
  H  H1494  1  0.100700  0.631900  0.515400  1.0
  H  H1495  1  0.631900  0.100700  0.015400  1.0
  H  H1496  1  0.899300  0.368100  0.484600  1.0
  H  H1497  1  0.327700  0.681700  0.080500  1.0
  H  H1498  1  0.318300  0.672300  0.419500  1.0
  H  H1499  1  0.672300  0.318300  0.919500  1.0
  H  H1500  1  0.681700  0.327700  0.580500  1.0
  H  H1501  1  0.700000  0.390800  0.044800  1.0
  H  H1502  1  0.609200  0.300000  0.455200  1.0
  H  H1503  1  0.300000  0.609200  0.955200  1.0
  H  H1504  1  0.390800  0.700000  0.544800  1.0
  H  H1505  1  0.111900  0.788500  0.328800  1.0
  H  H1506  1  0.211500  0.888100  0.171200  1.0
  H  H1507  1  0.888100  0.211500  0.671200  1.0
  H  H1508  1  0.788500  0.111900  0.828800  1.0
  N  N1509  1  0.760310  0.758370  0.315830  1.0
  N  N1510  1  0.241630  0.239690  0.184170  1.0
  N  N1511  1  0.239690  0.241630  0.684170  1.0
  N  N1512  1  0.758370  0.760310  0.815830  1.0
  N  N1513  1  0.226430  0.892910  0.326890  1.0
  N  N1514  1  0.107090  0.773570  0.173110  1.0
  N  N1515  1  0.773570  0.107090  0.673110  1.0
  N  N1516  1  0.892910  0.226430  0.826890  1.0
  N  N1517  1  0.073090  0.761570  0.114230  1.0
  N  N1518  1  0.238430  0.926910  0.385770  1.0
  N  N1519  1  0.926910  0.238430  0.885770  1.0
  N  N1520  1  0.761570  0.073090  0.614230  1.0
  N  N1521  1  0.667710  0.786990  0.330080  1.0
  N  N1522  1  0.213010  0.332290  0.169920  1.0
  N  N1523  1  0.332290  0.213010  0.669920  1.0
  N  N1524  1  0.786990  0.667710  0.830080  1.0
  N  N1525  1  0.317140  0.880000  0.327700  1.0
  N  N1526  1  0.120000  0.682860  0.172300  1.0
  N  N1527  1  0.682860  0.120000  0.672300  1.0
  N  N1528  1  0.880000  0.317140  0.827700  1.0
  N  N1529  1  0.717510  0.769210  0.254700  1.0
  N  N1530  1  0.230790  0.282490  0.245300  1.0
  N  N1531  1  0.282490  0.230790  0.745300  1.0
  N  N1532  1  0.769210  0.717510  0.754700  1.0
  N  N1533  1  0.762560  0.680460  0.280240  1.0
  N  N1534  1  0.319540  0.237440  0.219760  1.0
  N  N1535  1  0.237440  0.319540  0.719760  1.0
  N  N1536  1  0.680460  0.762560  0.780240  1.0
  N  N1537  1  0.898870  0.332750  0.375870  1.0
  N  N1538  1  0.667250  0.101130  0.124130  1.0
  N  N1539  1  0.101130  0.667250  0.624130  1.0
  N  N1540  1  0.332750  0.898870  0.875870  1.0
  N  N1541  1  0.932110  0.240170  0.388510  1.0
  N  N1542  1  0.759830  0.067890  0.111490  1.0
  N  N1543  1  0.067890  0.759830  0.611490  1.0
  N  N1544  1  0.240170  0.932110  0.888510  1.0
  N  N1545  1  0.710170  0.688250  0.354060  1.0
  N  N1546  1  0.311750  0.289830  0.145940  1.0
  N  N1547  1  0.289830  0.311750  0.645940  1.0
  N  N1548  1  0.688250  0.710170  0.854060  1.0
  N  N1549  1  0.666100  0.701860  0.300370  1.0
  N  N1550  1  0.298140  0.333900  0.199630  1.0
  N  N1551  1  0.333900  0.298140  0.699630  1.0
  N  N1552  1  0.701860  0.666100  0.800370  1.0
  N  N1553  1  0.519430  0.783290  0.070640  1.0
  N  N1554  1  0.216710  0.480570  0.429360  1.0
  N  N1555  1  0.480570  0.216710  0.929360  1.0
  N  N1556  1  0.783290  0.519430  0.570640  1.0
  N  N1557  1  0.481910  0.815870  0.011950  1.0
  N  N1558  1  0.184130  0.518090  0.488050  1.0
  N  N1559  1  0.518090  0.184130  0.988050  1.0
  N  N1560  1  0.815870  0.481910  0.511950  1.0
  N  N1561  1  0.828860  0.286240  0.411090  1.0
  N  N1562  1  0.713760  0.171140  0.088910  1.0
  N  N1563  1  0.171140  0.713760  0.588910  1.0
  N  N1564  1  0.286240  0.828860  0.911090  1.0
  N  N1565  1  0.817090  0.326950  0.344230  1.0
  N  N1566  1  0.673050  0.182910  0.155770  1.0
  N  N1567  1  0.182910  0.673050  0.655770  1.0
  N  N1568  1  0.326950  0.817090  0.844230  1.0
  N  N1569  1  0.805600  0.463200  0.076370  1.0
  N  N1570  1  0.536800  0.194400  0.423630  1.0
  N  N1571  1  0.194400  0.536800  0.923630  1.0
  N  N1572  1  0.463200  0.805600  0.576370  1.0
  N  N1573  1  0.813340  0.499000  0.007780  1.0
  N  N1574  1  0.501000  0.186660  0.492220  1.0
  N  N1575  1  0.186660  0.501000  0.992220  1.0
  N  N1576  1  0.499000  0.813340  0.507780  1.0
  N  N1577  1  0.497600  0.909800  0.003050  1.0
  N  N1578  1  0.090200  0.502400  0.496950  1.0
  N  N1579  1  0.502400  0.090200  0.996950  1.0
  N  N1580  1  0.909800  0.497600  0.503050  1.0
  N  N1581  1  0.569420  0.831660  0.000930  1.0
  N  N1582  1  0.168340  0.430580  0.499070  1.0
  N  N1583  1  0.430580  0.168340  0.999070  1.0
  N  N1584  1  0.831660  0.569420  0.500930  1.0
  N  N1585  1  0.839780  0.536740  0.061730  1.0
  N  N1586  1  0.463260  0.160220  0.438270  1.0
  N  N1587  1  0.160220  0.463260  0.938270  1.0
  N  N1588  1  0.536740  0.839780  0.561730  1.0
  N  N1589  1  0.902970  0.455010  0.078990  1.0
  N  N1590  1  0.544990  0.097030  0.421010  1.0
  N  N1591  1  0.097030  0.544990  0.921010  1.0
  N  N1592  1  0.455010  0.902970  0.578990  1.0
  N  N1593  1  0.533780  0.873860  0.069530  1.0
  N  N1594  1  0.126140  0.466220  0.430470  1.0
  N  N1595  1  0.466220  0.126140  0.930470  1.0
  N  N1596  1  0.873860  0.533780  0.569530  1.0
  N  N1597  1  0.448870  0.867830  0.073890  1.0
  N  N1598  1  0.132170  0.551130  0.426110  1.0
  N  N1599  1  0.551130  0.132170  0.926110  1.0
  N  N1600  1  0.867830  0.448870  0.573890  1.0
  N  N1601  1  0.148390  0.787650  0.093210  1.0
  N  N1602  1  0.212350  0.851610  0.406790  1.0
  N  N1603  1  0.851610  0.212350  0.906790  1.0
  N  N1604  1  0.787650  0.148390  0.593210  1.0
  N  N1605  1  0.914160  0.490380  0.003370  1.0
  N  N1606  1  0.509620  0.085840  0.496630  1.0
  N  N1607  1  0.085840  0.509620  0.996630  1.0
  N  N1608  1  0.490380  0.914160  0.503370  1.0
  N  N1609  1  0.889770  0.414090  0.020790  1.0
  N  N1610  1  0.585910  0.110230  0.479210  1.0
  N  N1611  1  0.110230  0.585910  0.979210  1.0
  N  N1612  1  0.414090  0.889770  0.520790  1.0
  N  N1613  1  0.768380  0.140520  0.148920  1.0
  N  N1614  1  0.859480  0.231620  0.351080  1.0
  N  N1615  1  0.231620  0.859480  0.851080  1.0
  N  N1616  1  0.140520  0.768380  0.648920  1.0
  N  N1617  1  0.720680  0.082680  0.184690  1.0
  N  N1618  1  0.917320  0.279320  0.315310  1.0
  N  N1619  1  0.279320  0.917320  0.815310  1.0
  N  N1620  1  0.082680  0.720680  0.684690  1.0
  N  N1621  1  0.308070  0.832470  0.403420  1.0
  N  N1622  1  0.167530  0.691930  0.096580  1.0
  N  N1623  1  0.691930  0.167530  0.596580  1.0
  N  N1624  1  0.832470  0.308070  0.903420  1.0
  N  N1625  1  0.293140  0.798160  0.352680  1.0
  N  N1626  1  0.201840  0.706860  0.147320  1.0
  N  N1627  1  0.706860  0.201840  0.647320  1.0
  N  N1628  1  0.798160  0.293140  0.852680  1.0
  O  O1629  1  0.855600  0.170600  0.012800  1
  O  O1630  1  0.829400  0.144400  0.487200  1
  O  O1631  1  0.144400  0.829400  0.987200  1
  O  O1632  1  0.170600  0.855600  0.512800  1
  O  O1633  1  0.845300  0.476900  0.231000  1
  O  O1634  1  0.523100  0.154700  0.269000  1
  O  O1635  1  0.154700  0.523100  0.769000  1
  O  O1636  1  0.476900  0.845300  0.731000  1
  O  O1637  1  0.810200  0.634400  0.936100  1
  O  O1638  1  0.365600  0.189800  0.563900  1
  O  O1639  1  0.189800  0.365600  0.063900  1
  O  O1640  1  0.634400  0.810200  0.436100  1
  O  O1641  1  0.766600  0.295200  0.185400  1.0
  O  O1642  1  0.704800  0.233400  0.314600  1.0
  O  O1643  1  0.233400  0.704800  0.814600  1.0
  O  O1644  1  0.295200  0.766600  0.685400  1.0
  O  O1645  1  0.546100  0.702900  0.387650  1.0
  O  O1646  1  0.297100  0.453900  0.112350  1.0
  O  O1647  1  0.453900  0.297100  0.612350  1.0
  O  O1648  1  0.702900  0.546100  0.887650  1.0
  O  O1649  1  0.404000  0.921800  0.407600  1.0
  O  O1650  1  0.078200  0.596000  0.092400  1.0
  O  O1651  1  0.596000  0.078200  0.592400  1.0
  O  O1652  1  0.921800  0.404000  0.907600  1.0
  O  O1653  1  0.852500  0.599500  0.389400  1.0
  O  O1654  1  0.400500  0.147500  0.110600  1.0
  O  O1655  1  0.147500  0.400500  0.610600  1.0
  O  O1656  1  0.599500  0.852500  0.889400  1.0
  O  O1657  1  0.733970  0.450210  0.399710  1.0
  O  O1658  1  0.549790  0.266030  0.100290  1.0
  O  O1659  1  0.266030  0.549790  0.600290  1.0
  O  O1660  1  0.450210  0.733970  0.899710  1.0
  O  O1661  1  0.529600  0.835200  0.232500  1.0
  O  O1662  1  0.164800  0.470400  0.267500  1.0
  O  O1663  1  0.470400  0.164800  0.767500  1.0
  O  O1664  1  0.835200  0.529600  0.732500  1.0
  O  O1665  1  0.687200  0.762000  0.095900  1.0
  O  O1666  1  0.238000  0.312800  0.404100  1.0
  O  O1667  1  0.312800  0.238000  0.904100  1.0
  O  O1668  1  0.762000  0.687200  0.595900  1.0
  O  O1669  1  0.894400  0.443000  0.247700  1.0
  O  O1670  1  0.557000  0.105600  0.252300  1.0
  O  O1671  1  0.105600  0.557000  0.752300  1.0
  O  O1672  1  0.443000  0.894400  0.747700  1.0
  O  O1673  1  0.896300  0.301900  0.144900  1.0
  O  O1674  1  0.698100  0.103700  0.355100  1.0
  O  O1675  1  0.103700  0.698100  0.855100  1.0
  O  O1676  1  0.301900  0.896300  0.644900  1.0
  O  O1677  1  0.585040  0.656760  0.015100  1.0
  O  O1678  1  0.343240  0.414960  0.484900  1.0
  O  O1679  1  0.414960  0.343240  0.984900  1.0
  O  O1680  1  0.656760  0.585040  0.515100  1.0
  O  O1681  1  0.803800  0.700000  0.951300  1.0
  O  O1682  1  0.300000  0.196200  0.548700  1.0
  O  O1683  1  0.196200  0.300000  0.048700  1.0
  O  O1684  1  0.700000  0.803800  0.451300  1.0
  O  O1685  1  0.338700  0.909500  0.982300  1.0
  O  O1686  1  0.090500  0.661300  0.517700  1.0
  O  O1687  1  0.661300  0.090500  0.017700  1.0
  O  O1688  1  0.909500  0.338700  0.482300  1.0
  O  O1689  1  0.324040  0.700440  0.060050  1.0
  O  O1690  1  0.299560  0.675960  0.439950  1.0
  O  O1691  1  0.675960  0.299560  0.939950  1.0
  O  O1692  1  0.700440  0.324040  0.560050  1.0
  O  O1693  1  0.728740  0.389340  0.044100  1.0
  O  O1694  1  0.610660  0.271260  0.455900  1.0
  O  O1695  1  0.271260  0.610660  0.955900  1.0
  O  O1696  1  0.389340  0.728740  0.544100  1.0
  O  O1697  1  0.140600  0.779800  0.330900  1.0
  O  O1698  1  0.220200  0.859400  0.169100  1.0
  O  O1699  1  0.859400  0.220200  0.669100  1.0
  O  O1700  1  0.779800  0.140600  0.830900  1.0
