# generated using pymatgen
data_Fe8P12H396C357N60(O3F4)18
_symmetry_space_group_name_H-M   'P 1'
_cell_length_a   29.41100000
_cell_length_b   29.41100000
_cell_length_c   38.14165463
_cell_angle_alpha   67.32213515
_cell_angle_beta   67.32213515
_cell_angle_gamma   60.00000000
_symmetry_Int_Tables_number   1
_chemical_formula_structural   Fe8P12H396C357N60(O3F4)18
_chemical_formula_sum   'Fe16 P24 H792 C714 N120 O108 F144'
_cell_volume   25584.87566830
_cell_formula_units_Z   2
loop_
 _symmetry_equiv_pos_site_id
 _symmetry_equiv_pos_as_xyz
  1  'x, y, z'
loop_
 _atom_site_type_symbol
 _atom_site_label
 _atom_site_symmetry_multiplicity
 _atom_site_fract_x
 _atom_site_fract_y
 _atom_site_fract_z
 _atom_site_occupancy
  C  C1  1  0.225600  0.638600  0.132000  1
  C  C2  1  0.003800  0.225600  0.132000  1
  C  C3  1  0.638600  0.003800  0.132000  1
  C  C4  1  0.496200  0.861400  0.368000  1
  C  C5  1  0.861400  0.274400  0.368000  1
  C  C6  1  0.274400  0.496200  0.368000  1
  C  C7  1  0.774400  0.361400  0.868000  1
  C  C8  1  0.996200  0.774400  0.868000  1
  C  C9  1  0.361400  0.996200  0.868000  1
  C  C10  1  0.503800  0.138600  0.632000  1
  C  C11  1  0.138600  0.725600  0.632000  1
  C  C12  1  0.725600  0.503800  0.632000  1
  C  C13  1  0.272100  0.630300  0.147000  1
  C  C14  1  0.950600  0.272100  0.147000  1
  C  C15  1  0.630300  0.950600  0.147000  1
  C  C16  1  0.549400  0.869700  0.353000  1
  C  C17  1  0.869700  0.227900  0.353000  1
  C  C18  1  0.227900  0.549400  0.353000  1
  C  C19  1  0.727900  0.369700  0.853000  1
  C  C20  1  0.049400  0.727900  0.853000  1
  C  C21  1  0.369700  0.049400  0.853000  1
  C  C22  1  0.450600  0.130300  0.647000  1
  C  C23  1  0.130300  0.772100  0.647000  1
  C  C24  1  0.772100  0.450600  0.647000  1
  C  C25  1  0.097560  0.911960  0.224820  1
  C  C26  1  0.765660  0.097560  0.224820  1
  C  C27  1  0.911960  0.765660  0.224820  1
  C  C28  1  0.734340  0.588040  0.275180  1
  C  C29  1  0.588040  0.402440  0.275180  1
  C  C30  1  0.402440  0.734340  0.275180  1
  C  C31  1  0.902440  0.088040  0.775180  1
  C  C32  1  0.234340  0.902440  0.775180  1
  C  C33  1  0.088040  0.234340  0.775180  1
  C  C34  1  0.265660  0.411960  0.724820  1
  C  C35  1  0.411960  0.597560  0.724820  1
  C  C36  1  0.597560  0.265660  0.724820  1
  C  C37  1  0.165000  0.780000  0.261000  1
  C  C38  1  0.794000  0.165000  0.261000  1
  C  C39  1  0.780000  0.794000  0.261000  1
  C  C40  1  0.706000  0.720000  0.239000  1
  C  C41  1  0.720000  0.335000  0.239000  1
  C  C42  1  0.335000  0.706000  0.239000  1
  C  C43  1  0.835000  0.220000  0.739000  1
  C  C44  1  0.206000  0.835000  0.739000  1
  C  C45  1  0.220000  0.206000  0.739000  1
  C  C46  1  0.294000  0.280000  0.761000  1
  C  C47  1  0.280000  0.665000  0.761000  1
  C  C48  1  0.665000  0.294000  0.761000  1
  C  C49  1  0.977400  0.742800  0.363600  1
  C  C50  1  0.916200  0.977400  0.363600  1
  C  C51  1  0.742800  0.916200  0.363600  1
  C  C52  1  0.583800  0.757200  0.136400  1
  C  C53  1  0.757200  0.522600  0.136400  1
  C  C54  1  0.522600  0.583800  0.136400  1
  C  C55  1  0.022600  0.257200  0.636400  1
  C  C56  1  0.083800  0.022600  0.636400  1
  C  C57  1  0.257200  0.083800  0.636400  1
  C  C58  1  0.416200  0.242800  0.863600  1
  C  C59  1  0.242800  0.477400  0.863600  1
  C  C60  1  0.477400  0.416200  0.863600  1
  C  C61  1  0.880290  0.792790  0.439830  1
  C  C62  1  0.887090  0.880290  0.439830  1
  C  C63  1  0.792790  0.887090  0.439830  1
  C  C64  1  0.612910  0.707210  0.060170  1
  C  C65  1  0.707210  0.619710  0.060170  1
  C  C66  1  0.619710  0.612910  0.060170  1
  C  C67  1  0.119710  0.207210  0.560170  1
  C  C68  1  0.112910  0.119710  0.560170  1
  C  C69  1  0.207210  0.112910  0.560170  1
  C  C70  1  0.387090  0.292790  0.939830  1
  C  C71  1  0.292790  0.380290  0.939830  1
  C  C72  1  0.380290  0.387090  0.939830  1
  C  C73  1  0.249989  0.850822  0.250033  1
  C  C74  1  0.649156  0.249989  0.250033  1
  C  C75  1  0.850822  0.649156  0.250033  1
  C  C76  1  0.750011  0.149178  0.749967  1
  C  C77  1  0.350844  0.750011  0.749967  1
  C  C78  1  0.149178  0.350844  0.749967  1
  C  C79  1  0.310300  0.864700  0.222300  1
  C  C80  1  0.602700  0.310300  0.222300  1
  C  C81  1  0.864700  0.602700  0.222300  1
  C  C82  1  0.897300  0.635300  0.277700  1
  C  C83  1  0.635300  0.189700  0.277700  1
  C  C84  1  0.189700  0.897300  0.277700  1
  C  C85  1  0.689700  0.135300  0.777700  1
  C  C86  1  0.397300  0.689700  0.777700  1
  C  C87  1  0.135300  0.397300  0.777700  1
  C  C88  1  0.102700  0.364700  0.722300  1
  C  C89  1  0.364700  0.810300  0.722300  1
  C  C90  1  0.810300  0.102700  0.722300  1
  C  C91  1  0.001380  0.855500  0.113040  1.0
  C  C92  1  0.030080  0.001380  0.113040  1.0
  C  C93  1  0.855500  0.030080  0.113040  1.0
  C  C94  1  0.469920  0.644500  0.386960  1.0
  C  C95  1  0.644500  0.498620  0.386960  1.0
  C  C96  1  0.498620  0.469920  0.386960  1.0
  C  C97  1  0.998620  0.144500  0.886960  1.0
  C  C98  1  0.969920  0.998620  0.886960  1.0
  C  C99  1  0.144500  0.969920  0.886960  1.0
  C  C100  1  0.530080  0.355500  0.613040  1.0
  C  C101  1  0.355500  0.501380  0.613040  1.0
  C  C102  1  0.501380  0.530080  0.613040  1.0
  C  C103  1  0.949370  0.921900  0.069870  1.0
  C  C104  1  0.058860  0.949370  0.069870  1.0
  C  C105  1  0.921900  0.058860  0.069870  1.0
  C  C106  1  0.441140  0.578100  0.430130  1.0
  C  C107  1  0.578100  0.550630  0.430130  1.0
  C  C108  1  0.550630  0.441140  0.430130  1.0
  C  C109  1  0.050630  0.078100  0.930130  1.0
  C  C110  1  0.941140  0.050630  0.930130  1.0
  C  C111  1  0.078100  0.941140  0.930130  1.0
  C  C112  1  0.558860  0.421900  0.569870  1.0
  C  C113  1  0.421900  0.449370  0.569870  1.0
  C  C114  1  0.449370  0.558860  0.569870  1.0
  C  C115  1  0.959550  0.882920  0.051960  1.0
  C  C116  1  0.105570  0.959550  0.051960  1.0
  C  C117  1  0.882920  0.105570  0.051960  1.0
  C  C118  1  0.394430  0.617080  0.448040  1.0
  C  C119  1  0.617080  0.540450  0.448040  1.0
  C  C120  1  0.540450  0.394430  0.448040  1.0
  C  C121  1  0.040450  0.117080  0.948040  1.0
  C  C122  1  0.894430  0.040450  0.948040  1.0
  C  C123  1  0.117080  0.894430  0.948040  1.0
  C  C124  1  0.605570  0.382920  0.551960  1.0
  C  C125  1  0.382920  0.459550  0.551960  1.0
  C  C126  1  0.459550  0.605570  0.551960  1.0
  C  C127  1  0.991750  0.829900  0.064950  1.0
  C  C128  1  0.113400  0.991750  0.064950  1.0
  C  C129  1  0.829900  0.113400  0.064950  1.0
  C  C130  1  0.386600  0.670100  0.435050  1.0
  C  C131  1  0.670100  0.508250  0.435050  1.0
  C  C132  1  0.508250  0.386600  0.435050  1.0
  C  C133  1  0.008250  0.170100  0.935050  1.0
  C  C134  1  0.886600  0.008250  0.935050  1.0
  C  C135  1  0.170100  0.886600  0.935050  1.0
  C  C136  1  0.613400  0.329900  0.564950  1.0
  C  C137  1  0.329900  0.491750  0.564950  1.0
  C  C138  1  0.491750  0.613400  0.564950  1.0
  C  C139  1  0.012810  0.815490  0.096480  1.0
  C  C140  1  0.075220  0.012810  0.096480  1.0
  C  C141  1  0.815490  0.075220  0.096480  1.0
  C  C142  1  0.424780  0.684510  0.403520  1.0
  C  C143  1  0.684510  0.487190  0.403520  1.0
  C  C144  1  0.487190  0.424780  0.403520  1.0
  C  C145  1  0.987190  0.184510  0.903520  1.0
  C  C146  1  0.924780  0.987190  0.903520  1.0
  C  C147  1  0.184510  0.924780  0.903520  1.0
  C  C148  1  0.575220  0.315490  0.596480  1.0
  C  C149  1  0.315490  0.512810  0.596480  1.0
  C  C150  1  0.512810  0.575220  0.596480  1.0
  C  C151  1  0.019200  0.845800  0.146310  1.0
  C  C152  1  0.988690  0.019200  0.146310  1.0
  C  C153  1  0.845800  0.988690  0.146310  1.0
  C  C154  1  0.511310  0.654200  0.353690  1.0
  C  C155  1  0.654200  0.480800  0.353690  1.0
  C  C156  1  0.480800  0.511310  0.353690  1.0
  C  C157  1  0.980800  0.154200  0.853690  1.0
  C  C158  1  0.011310  0.980800  0.853690  1.0
  C  C159  1  0.154200  0.011310  0.853690  1.0
  C  C160  1  0.488690  0.345800  0.646310  1.0
  C  C161  1  0.345800  0.519200  0.646310  1.0
  C  C162  1  0.519200  0.488690  0.646310  1.0
  C  C163  1  0.017950  0.876310  0.195060  1.0
  C  C164  1  0.910680  0.017950  0.195060  1.0
  C  C165  1  0.876310  0.910680  0.195060  1.0
  C  C166  1  0.589320  0.623690  0.304940  1.0
  C  C167  1  0.623690  0.482050  0.304940  1.0
  C  C168  1  0.482050  0.589320  0.304940  1.0
  C  C169  1  0.982050  0.123690  0.804940  1.0
  C  C170  1  0.089320  0.982050  0.804940  1.0
  C  C171  1  0.123690  0.089320  0.804940  1.0
  C  C172  1  0.410680  0.376310  0.695060  1.0
  C  C173  1  0.376310  0.517950  0.695060  1.0
  C  C174  1  0.517950  0.410680  0.695060  1.0
  C  C175  1  0.998770  0.847110  0.230340  1.0
  C  C176  1  0.923780  0.998770  0.230340  1.0
  C  C177  1  0.847110  0.923780  0.230340  1.0
  C  C178  1  0.576220  0.652890  0.269660  1.0
  C  C179  1  0.652890  0.501230  0.269660  1.0
  C  C180  1  0.501230  0.576220  0.269660  1.0
  C  C181  1  0.001230  0.152890  0.769660  1.0
  C  C182  1  0.076220  0.001230  0.769660  1.0
  C  C183  1  0.152890  0.076220  0.769660  1.0
  C  C184  1  0.423780  0.347110  0.730340  1.0
  C  C185  1  0.347110  0.498770  0.730340  1.0
  C  C186  1  0.498770  0.423780  0.730340  1.0
  C  C187  1  0.052080  0.855190  0.260550  1.0
  C  C188  1  0.832180  0.052080  0.260550  1.0
  C  C189  1  0.855190  0.832180  0.260550  1.0
  C  C190  1  0.667820  0.644810  0.239450  1.0
  C  C191  1  0.644810  0.447920  0.239450  1.0
  C  C192  1  0.447920  0.667820  0.239450  1.0
  C  C193  1  0.947920  0.144810  0.739450  1.0
  C  C194  1  0.167820  0.947920  0.739450  1.0
  C  C195  1  0.144810  0.167820  0.739450  1.0
  C  C196  1  0.332180  0.355190  0.760550  1.0
  C  C197  1  0.355190  0.552080  0.760550  1.0
  C  C198  1  0.552080  0.332180  0.760550  1.0
  C  C199  1  0.053910  0.895070  0.192510  1.0
  C  C200  1  0.858510  0.053910  0.192510  1.0
  C  C201  1  0.895070  0.858510  0.192510  1.0
  C  C202  1  0.641490  0.604930  0.307490  1.0
  C  C203  1  0.604930  0.446090  0.307490  1.0
  C  C204  1  0.446090  0.641490  0.307490  1.0
  C  C205  1  0.946090  0.104930  0.807490  1.0
  C  C206  1  0.141490  0.946090  0.807490  1.0
  C  C207  1  0.104930  0.141490  0.807490  1.0
  C  C208  1  0.358510  0.395070  0.692510  1.0
  C  C209  1  0.395070  0.553910  0.692510  1.0
  C  C210  1  0.553910  0.358510  0.692510  1.0
  C  C211  1  0.072080  0.842790  0.294900  1.0
  C  C212  1  0.790230  0.072080  0.294900  1.0
  C  C213  1  0.842790  0.790230  0.294900  1.0
  C  C214  1  0.709770  0.657210  0.205100  1.0
  C  C215  1  0.657210  0.427920  0.205100  1.0
  C  C216  1  0.427920  0.709770  0.205100  1.0
  C  C217  1  0.927920  0.157210  0.705100  1.0
  C  C218  1  0.209770  0.927920  0.705100  1.0
  C  C219  1  0.157210  0.209770  0.705100  1.0
  C  C220  1  0.290230  0.342790  0.794900  1.0
  C  C221  1  0.342790  0.572080  0.794900  1.0
  C  C222  1  0.572080  0.290230  0.794900  1.0
  C  C223  1  0.123780  0.804220  0.298320  1.0
  C  C224  1  0.773680  0.123780  0.298320  1.0
  C  C225  1  0.804220  0.773680  0.298320  1.0
  C  C226  1  0.726320  0.695780  0.201680  1.0
  C  C227  1  0.695780  0.376220  0.201680  1.0
  C  C228  1  0.376220  0.726320  0.201680  1.0
  C  C229  1  0.876220  0.195780  0.701680  1.0
  C  C230  1  0.226320  0.876220  0.701680  1.0
  C  C231  1  0.195780  0.226320  0.701680  1.0
  C  C232  1  0.273680  0.304220  0.798320  1.0
  C  C233  1  0.304220  0.623780  0.798320  1.0
  C  C234  1  0.623780  0.273680  0.798320  1.0
  C  C235  1  0.142230  0.793890  0.330150  1.0
  C  C236  1  0.733730  0.142230  0.330150  1.0
  C  C237  1  0.793890  0.733730  0.330150  1.0
  C  C238  1  0.766270  0.706110  0.169850  1.0
  C  C239  1  0.706110  0.357770  0.169850  1.0
  C  C240  1  0.357770  0.766270  0.169850  1.0
  C  C241  1  0.857770  0.206110  0.669850  1.0
  C  C242  1  0.266270  0.857770  0.669850  1.0
  C  C243  1  0.206110  0.266270  0.669850  1.0
  C  C244  1  0.233730  0.293890  0.830150  1.0
  C  C245  1  0.293890  0.642230  0.830150  1.0
  C  C246  1  0.642230  0.233730  0.830150  1.0
  C  C247  1  0.108560  0.822310  0.358800  1.0
  C  C248  1  0.710330  0.108560  0.358800  1.0
  C  C249  1  0.822310  0.710330  0.358800  1.0
  C  C250  1  0.789670  0.677690  0.141200  1.0
  C  C251  1  0.677690  0.391440  0.141200  1.0
  C  C252  1  0.391440  0.789670  0.141200  1.0
  C  C253  1  0.891440  0.177690  0.641200  1.0
  C  C254  1  0.289670  0.891440  0.641200  1.0
  C  C255  1  0.177690  0.289670  0.641200  1.0
  C  C256  1  0.210330  0.322310  0.858800  1.0
  C  C257  1  0.322310  0.608560  0.858800  1.0
  C  C258  1  0.608560  0.210330  0.858800  1.0
  C  C259  1  0.056160  0.860550  0.356580  1.0
  C  C260  1  0.726710  0.056160  0.356580  1.0
  C  C261  1  0.860550  0.726710  0.356580  1.0
  C  C262  1  0.773290  0.639450  0.143420  1.0
  C  C263  1  0.639450  0.443840  0.143420  1.0
  C  C264  1  0.443840  0.773290  0.143420  1.0
  C  C265  1  0.943840  0.139450  0.643420  1.0
  C  C266  1  0.273290  0.943840  0.643420  1.0
  C  C267  1  0.139450  0.273290  0.643420  1.0
  C  C268  1  0.226710  0.360550  0.856580  1.0
  C  C269  1  0.360550  0.556160  0.856580  1.0
  C  C270  1  0.556160  0.226710  0.856580  1.0
  C  C271  1  0.038830  0.870020  0.324900  1.0
  C  C272  1  0.766250  0.038830  0.324900  1.0
  C  C273  1  0.870020  0.766250  0.324900  1.0
  C  C274  1  0.733750  0.629980  0.175100  1.0
  C  C275  1  0.629980  0.461170  0.175100  1.0
  C  C276  1  0.461170  0.733750  0.175100  1.0
  C  C277  1  0.961170  0.129980  0.675100  1.0
  C  C278  1  0.233750  0.961170  0.675100  1.0
  C  C279  1  0.129980  0.233750  0.675100  1.0
  C  C280  1  0.266250  0.370020  0.824900  1.0
  C  C281  1  0.370020  0.538830  0.824900  1.0
  C  C282  1  0.538830  0.266250  0.824900  1.0
  C  C283  1  0.141370  0.849800  0.390300  1.0
  C  C284  1  0.618530  0.141370  0.390300  1.0
  C  C285  1  0.849800  0.618530  0.390300  1.0
  C  C286  1  0.881470  0.650200  0.109700  1.0
  C  C287  1  0.650200  0.358630  0.109700  1.0
  C  C288  1  0.358630  0.881470  0.109700  1.0
  C  C289  1  0.858630  0.150200  0.609700  1.0
  C  C290  1  0.381470  0.858630  0.609700  1.0
  C  C291  1  0.150200  0.381470  0.609700  1.0
  C  C292  1  0.118530  0.349800  0.890300  1.0
  C  C293  1  0.349800  0.641370  0.890300  1.0
  C  C294  1  0.641370  0.118530  0.890300  1.0
  C  C295  1  0.160810  0.841400  0.422880  1.0
  C  C296  1  0.574910  0.160810  0.422880  1.0
  C  C297  1  0.841400  0.574910  0.422880  1.0
  C  C298  1  0.925090  0.658600  0.077120  1.0
  C  C299  1  0.658600  0.339190  0.077120  1.0
  C  C300  1  0.339190  0.925090  0.077120  1.0
  C  C301  1  0.839190  0.158600  0.577120  1.0
  C  C302  1  0.425090  0.839190  0.577120  1.0
  C  C303  1  0.158600  0.425090  0.577120  1.0
  C  C304  1  0.074910  0.341400  0.922880  1.0
  C  C305  1  0.341400  0.660810  0.922880  1.0
  C  C306  1  0.660810  0.074910  0.922880  1.0
  C  C307  1  0.183210  0.780570  0.480480  1.0
  C  C308  1  0.555740  0.183210  0.480480  1.0
  C  C309  1  0.780570  0.555740  0.480480  1.0
  C  C310  1  0.944260  0.719430  0.019520  1.0
  C  C311  1  0.719430  0.316790  0.019520  1.0
  C  C312  1  0.316790  0.944260  0.019520  1.0
  C  C313  1  0.816790  0.219430  0.519520  1.0
  C  C314  1  0.444260  0.816790  0.519520  1.0
  C  C315  1  0.219430  0.444260  0.519520  1.0
  C  C316  1  0.055740  0.280570  0.980480  1.0
  C  C317  1  0.280570  0.683210  0.980480  1.0
  C  C318  1  0.683210  0.055740  0.980480  1.0
  C  C319  1  0.196350  0.814990  0.486750  1.0
  C  C320  1  0.501910  0.196350  0.486750  1.0
  C  C321  1  0.814990  0.501910  0.486750  1.0
  C  C322  1  0.998090  0.685010  0.013250  1.0
  C  C323  1  0.685010  0.303650  0.013250  1.0
  C  C324  1  0.303650  0.998090  0.013250  1.0
  C  C325  1  0.803650  0.185010  0.513250  1.0
  C  C326  1  0.498090  0.803650  0.513250  1.0
  C  C327  1  0.185010  0.498090  0.513250  1.0
  C  C328  1  0.001910  0.314990  0.986750  1.0
  C  C329  1  0.314990  0.696350  0.986750  1.0
  C  C330  1  0.696350  0.001910  0.986750  1.0
  C  C331  1  0.191240  0.863560  0.460650  1.0
  C  C332  1  0.484550  0.191240  0.460650  1.0
  C  C333  1  0.863560  0.484550  0.460650  1.0
  C  C334  1  0.015450  0.636440  0.039350  1.0
  C  C335  1  0.636440  0.308760  0.039350  1.0
  C  C336  1  0.308760  0.015450  0.039350  1.0
  C  C337  1  0.808760  0.136440  0.539350  1.0
  C  C338  1  0.515450  0.808760  0.539350  1.0
  C  C339  1  0.136440  0.515450  0.539350  1.0
  C  C340  1  0.984550  0.363560  0.960650  1.0
  C  C341  1  0.363560  0.691240  0.960650  1.0
  C  C342  1  0.691240  0.984550  0.960650  1.0
  C  C343  1  0.173290  0.877220  0.428190  1.0
  C  C344  1  0.521300  0.173290  0.428190  1.0
  C  C345  1  0.877220  0.521300  0.428190  1.0
  C  C346  1  0.978700  0.622780  0.071810  1.0
  C  C347  1  0.622780  0.326710  0.071810  1.0
  C  C348  1  0.326710  0.978700  0.071810  1.0
  C  C349  1  0.826710  0.122780  0.571810  1.0
  C  C350  1  0.478700  0.826710  0.571810  1.0
  C  C351  1  0.122780  0.478700  0.571810  1.0
  C  C352  1  0.021300  0.377220  0.928190  1.0
  C  C353  1  0.377220  0.673290  0.928190  1.0
  C  C354  1  0.673290  0.021300  0.928190  1.0
  C  C355  1  0.994040  0.801740  0.301080  1.0
  C  C356  1  0.903140  0.994040  0.301080  1.0
  C  C357  1  0.801740  0.903140  0.301080  1.0
  C  C358  1  0.596860  0.698260  0.198920  1.0
  C  C359  1  0.698260  0.505960  0.198920  1.0
  C  C360  1  0.505960  0.596860  0.198920  1.0
  C  C361  1  0.005960  0.198260  0.698920  1.0
  C  C362  1  0.096860  0.005960  0.698920  1.0
  C  C363  1  0.198260  0.096860  0.698920  1.0
  C  C364  1  0.403140  0.301740  0.801080  1.0
  C  C365  1  0.301740  0.494040  0.801080  1.0
  C  C366  1  0.494040  0.403140  0.801080  1.0
  C  C367  1  0.157800  0.769200  0.269700  1.0
  C  C368  1  0.803300  0.157800  0.269700  1.0
  C  C369  1  0.769200  0.803300  0.269700  1.0
  C  C370  1  0.696700  0.730800  0.230300  1.0
  C  C371  1  0.730800  0.342200  0.230300  1.0
  C  C372  1  0.342200  0.696700  0.230300  1.0
  C  C373  1  0.842200  0.230800  0.730300  1.0
  C  C374  1  0.196700  0.842200  0.730300  1.0
  C  C375  1  0.230800  0.196700  0.730300  1.0
  C  C376  1  0.303300  0.269200  0.769700  1.0
  C  C377  1  0.269200  0.657800  0.769700  1.0
  C  C378  1  0.657800  0.303300  0.769700  1.0
  C  C379  1  0.216630  0.677610  0.386970  1.0
  C  C380  1  0.718790  0.216630  0.386970  1.0
  C  C381  1  0.677610  0.718790  0.386970  1.0
  C  C382  1  0.781210  0.822390  0.113030  1.0
  C  C383  1  0.822390  0.283370  0.113030  1.0
  C  C384  1  0.283370  0.781210  0.113030  1.0
  C  C385  1  0.783370  0.322390  0.613030  1.0
  C  C386  1  0.281210  0.783370  0.613030  1.0
  C  C387  1  0.322390  0.281210  0.613030  1.0
  C  C388  1  0.218790  0.177610  0.886970  1.0
  C  C389  1  0.177610  0.716630  0.886970  1.0
  C  C390  1  0.716630  0.218790  0.886970  1.0
  C  C391  1  0.259260  0.719330  0.395400  1.0
  C  C392  1  0.626010  0.259260  0.395400  1.0
  C  C393  1  0.719330  0.626010  0.395400  1.0
  C  C394  1  0.873990  0.780670  0.104600  1.0
  C  C395  1  0.780670  0.240740  0.104600  1.0
  C  C396  1  0.240740  0.873990  0.104600  1.0
  C  C397  1  0.740740  0.280670  0.604600  1.0
  C  C398  1  0.373990  0.740740  0.604600  1.0
  C  C399  1  0.280670  0.373990  0.604600  1.0
  C  C400  1  0.126010  0.219330  0.895400  1.0
  C  C401  1  0.219330  0.759260  0.895400  1.0
  C  C402  1  0.759260  0.126010  0.895400  1.0
  C  C403  1  0.307360  0.691130  0.370770  1.0
  C  C404  1  0.630740  0.307360  0.370770  1.0
  C  C405  1  0.691130  0.630740  0.370770  1.0
  C  C406  1  0.869260  0.808870  0.129230  1.0
  C  C407  1  0.808870  0.192640  0.129230  1.0
  C  C408  1  0.192640  0.869260  0.129230  1.0
  C  C409  1  0.692640  0.308870  0.629230  1.0
  C  C410  1  0.369260  0.692640  0.629230  1.0
  C  C411  1  0.308870  0.369260  0.629230  1.0
  C  C412  1  0.130740  0.191130  0.870770  1.0
  C  C413  1  0.191130  0.807360  0.870770  1.0
  C  C414  1  0.807360  0.130740  0.870770  1.0
  C  C415  1  0.309050  0.655820  0.355230  1.0
  C  C416  1  0.679900  0.309050  0.355230  1.0
  C  C417  1  0.655820  0.679900  0.355230  1.0
  C  C418  1  0.820100  0.844180  0.144770  1.0
  C  C419  1  0.844180  0.190950  0.144770  1.0
  C  C420  1  0.190950  0.820100  0.144770  1.0
  C  C421  1  0.690950  0.344180  0.644770  1.0
  C  C422  1  0.320100  0.690950  0.644770  1.0
  C  C423  1  0.344180  0.320100  0.644770  1.0
  C  C424  1  0.179900  0.155820  0.855230  1.0
  C  C425  1  0.155820  0.809050  0.855230  1.0
  C  C426  1  0.809050  0.179900  0.855230  1.0
  C  C427  1  0.262490  0.649020  0.363570  1.0
  C  C428  1  0.724920  0.262490  0.363570  1.0
  C  C429  1  0.649020  0.724920  0.363570  1.0
  C  C430  1  0.775080  0.850980  0.136430  1.0
  C  C431  1  0.850980  0.237510  0.136430  1.0
  C  C432  1  0.237510  0.775080  0.136430  1.0
  C  C433  1  0.737510  0.350980  0.636430  1.0
  C  C434  1  0.275080  0.737510  0.636430  1.0
  C  C435  1  0.350980  0.275080  0.636430  1.0
  C  C436  1  0.224920  0.149020  0.863570  1.0
  C  C437  1  0.149020  0.762490  0.863570  1.0
  C  C438  1  0.762490  0.224920  0.863570  1.0
  C  C439  1  0.164830  0.676040  0.396450  1.0
  C  C440  1  0.762680  0.164830  0.396450  1.0
  C  C441  1  0.676040  0.762680  0.396450  1.0
  C  C442  1  0.737320  0.823960  0.103550  1.0
  C  C443  1  0.823960  0.335170  0.103550  1.0
  C  C444  1  0.335170  0.737320  0.103550  1.0
  C  C445  1  0.835170  0.323960  0.603550  1.0
  C  C446  1  0.237320  0.835170  0.603550  1.0
  C  C447  1  0.323960  0.237320  0.603550  1.0
  C  C448  1  0.262680  0.176040  0.896450  1.0
  C  C449  1  0.176040  0.664830  0.896450  1.0
  C  C450  1  0.664830  0.262680  0.896450  1.0
  C  C451  1  0.072790  0.705010  0.426000  1.0
  C  C452  1  0.796200  0.072790  0.426000  1.0
  C  C453  1  0.705010  0.796200  0.426000  1.0
  C  C454  1  0.703800  0.794990  0.074000  1.0
  C  C455  1  0.794990  0.427210  0.074000  1.0
  C  C456  1  0.427210  0.703800  0.074000  1.0
  C  C457  1  0.927210  0.294990  0.574000  1.0
  C  C458  1  0.203800  0.927210  0.574000  1.0
  C  C459  1  0.294990  0.203800  0.574000  1.0
  C  C460  1  0.296200  0.205010  0.926000  1.0
  C  C461  1  0.205010  0.572790  0.926000  1.0
  C  C462  1  0.572790  0.296200  0.926000  1.0
  C  C463  1  0.051270  0.679880  0.462750  1.0
  C  C464  1  0.806100  0.051270  0.462750  1.0
  C  C465  1  0.679880  0.806100  0.462750  1.0
  C  C466  1  0.693900  0.820120  0.037250  1.0
  C  C467  1  0.820120  0.448730  0.037250  1.0
  C  C468  1  0.448730  0.693900  0.037250  1.0
  C  C469  1  0.948730  0.320120  0.537250  1.0
  C  C470  1  0.193900  0.948730  0.537250  1.0
  C  C471  1  0.320120  0.193900  0.537250  1.0
  C  C472  1  0.306100  0.179880  0.962750  1.0
  C  C473  1  0.179880  0.551270  0.962750  1.0
  C  C474  1  0.551270  0.306100  0.962750  1.0
  C  C475  1  0.976910  0.697940  0.440760  1.0
  C  C476  1  0.884390  0.976910  0.440760  1.0
  C  C477  1  0.697940  0.884390  0.440760  1.0
  C  C478  1  0.615610  0.802060  0.059240  1.0
  C  C479  1  0.802060  0.523090  0.059240  1.0
  C  C480  1  0.523090  0.615610  0.059240  1.0
  C  C481  1  0.023090  0.302060  0.559240  1.0
  C  C482  1  0.115610  0.023090  0.559240  1.0
  C  C483  1  0.302060  0.115610  0.559240  1.0
  C  C484  1  0.384390  0.197940  0.940760  1.0
  C  C485  1  0.197940  0.476910  0.940760  1.0
  C  C486  1  0.476910  0.384390  0.940760  1.0
  C  C487  1  0.046160  0.727260  0.396840  1.0
  C  C488  1  0.829740  0.046160  0.396840  1.0
  C  C489  1  0.727260  0.829740  0.396840  1.0
  C  C490  1  0.670260  0.772740  0.103160  1.0
  C  C491  1  0.772740  0.453840  0.103160  1.0
  C  C492  1  0.453840  0.670260  0.103160  1.0
  C  C493  1  0.953840  0.272740  0.603160  1.0
  C  C494  1  0.170260  0.953840  0.603160  1.0
  C  C495  1  0.272740  0.170260  0.603160  1.0
  C  C496  1  0.329740  0.227260  0.896840  1.0
  C  C497  1  0.227260  0.546160  0.896840  1.0
  C  C498  1  0.546160  0.329740  0.896840  1.0
  C  C499  1  0.923700  0.694590  0.448440  1.0
  C  C500  1  0.933270  0.923700  0.448440  1.0
  C  C501  1  0.694590  0.933270  0.448440  1.0
  C  C502  1  0.566730  0.805410  0.051560  1.0
  C  C503  1  0.805410  0.576300  0.051560  1.0
  C  C504  1  0.576300  0.566730  0.051560  1.0
  C  C505  1  0.076300  0.305410  0.551560  1.0
  C  C506  1  0.066730  0.076300  0.551560  1.0
  C  C507  1  0.305410  0.066730  0.551560  1.0
  C  C508  1  0.433270  0.194590  0.948440  1.0
  C  C509  1  0.194590  0.423700  0.948440  1.0
  C  C510  1  0.423700  0.433270  0.948440  1.0
  C  C511  1  0.877210  0.641540  0.457800  1.0
  C  C512  1  0.023450  0.877210  0.457800  1.0
  C  C513  1  0.641540  0.023450  0.457800  1.0
  C  C514  1  0.476550  0.858460  0.042200  1.0
  C  C515  1  0.858460  0.622790  0.042200  1.0
  C  C516  1  0.622790  0.476550  0.042200  1.0
  C  C517  1  0.122790  0.358460  0.542200  1.0
  C  C518  1  0.976550  0.122790  0.542200  1.0
  C  C519  1  0.358460  0.976550  0.542200  1.0
  C  C520  1  0.523450  0.141540  0.957800  1.0
  C  C521  1  0.141540  0.377210  0.957800  1.0
  C  C522  1  0.377210  0.523450  0.957800  1.0
  C  C523  1  0.828710  0.684920  0.463200  1.0
  C  C524  1  0.023170  0.828710  0.463200  1.0
  C  C525  1  0.684920  0.023170  0.463200  1.0
  C  C526  1  0.476830  0.815080  0.036800  1.0
  C  C527  1  0.815080  0.671290  0.036800  1.0
  C  C528  1  0.671290  0.476830  0.036800  1.0
  C  C529  1  0.171290  0.315080  0.536800  1.0
  C  C530  1  0.976830  0.171290  0.536800  1.0
  C  C531  1  0.315080  0.976830  0.536800  1.0
  C  C532  1  0.523170  0.184920  0.963200  1.0
  C  C533  1  0.184920  0.328710  0.963200  1.0
  C  C534  1  0.328710  0.523170  0.963200  1.0
  C  C535  1  0.827020  0.733710  0.460140  1.0
  C  C536  1  0.979130  0.827020  0.460140  1.0
  C  C537  1  0.733710  0.979130  0.460140  1.0
  C  C538  1  0.520870  0.766290  0.039860  1.0
  C  C539  1  0.766290  0.672980  0.039860  1.0
  C  C540  1  0.672980  0.520870  0.039860  1.0
  C  C541  1  0.172980  0.266290  0.539860  1.0
  C  C542  1  0.020870  0.172980  0.539860  1.0
  C  C543  1  0.266290  0.020870  0.539860  1.0
  C  C544  1  0.479130  0.233710  0.960140  1.0
  C  C545  1  0.233710  0.327020  0.960140  1.0
  C  C546  1  0.327020  0.479130  0.960140  1.0
  C  C547  1  0.749900  0.678550  0.506460  1.0
  C  C548  1  0.065090  0.749900  0.506460  1.0
  C  C549  1  0.678550  0.065090  0.506460  1.0
  C  C550  1  0.434910  0.821450  0.993540  1.0
  C  C551  1  0.821450  0.750100  0.993540  1.0
  C  C552  1  0.750100  0.434910  0.993540  1.0
  C  C553  1  0.250100  0.321450  0.493540  1.0
  C  C554  1  0.934910  0.250100  0.493540  1.0
  C  C555  1  0.321450  0.934910  0.493540  1.0
  C  C556  1  0.565090  0.178550  0.006460  1.0
  C  C557  1  0.178550  0.249900  0.006460  1.0
  C  C558  1  0.249900  0.565090  0.006460  1.0
  C  C559  1  0.699300  0.674000  0.515520  1.0
  C  C560  1  0.111180  0.699300  0.515520  1.0
  C  C561  1  0.674000  0.111180  0.515520  1.0
  C  C562  1  0.388820  0.826000  0.984480  1.0
  C  C563  1  0.826000  0.800700  0.984480  1.0
  C  C564  1  0.800700  0.388820  0.984480  1.0
  C  C565  1  0.300700  0.326000  0.484480  1.0
  C  C566  1  0.888820  0.300700  0.484480  1.0
  C  C567  1  0.326000  0.888820  0.484480  1.0
  C  C568  1  0.611180  0.174000  0.015520  1.0
  C  C569  1  0.174000  0.199300  0.015520  1.0
  C  C570  1  0.199300  0.611180  0.015520  1.0
  C  C571  1  0.645070  0.667350  0.489360  1.0
  C  C572  1  0.198220  0.645070  0.489360  1.0
  C  C573  1  0.667350  0.198220  0.489360  1.0
  C  C574  1  0.301780  0.832650  0.010640  1.0
  C  C575  1  0.832650  0.854930  0.010640  1.0
  C  C576  1  0.854930  0.301780  0.010640  1.0
  C  C577  1  0.354930  0.332650  0.510640  1.0
  C  C578  1  0.801780  0.354930  0.510640  1.0
  C  C579  1  0.332650  0.801780  0.510640  1.0
  C  C580  1  0.698220  0.167350  0.989360  1.0
  C  C581  1  0.167350  0.145070  0.989360  1.0
  C  C582  1  0.145070  0.698220  0.989360  1.0
  C  C583  1  0.607960  0.667120  0.523890  1.0
  C  C584  1  0.201030  0.607960  0.523890  1.0
  C  C585  1  0.667120  0.201030  0.523890  1.0
  C  C586  1  0.298970  0.832880  0.976110  1.0
  C  C587  1  0.832880  0.892040  0.976110  1.0
  C  C588  1  0.892040  0.298970  0.976110  1.0
  C  C589  1  0.392040  0.332880  0.476110  1.0
  C  C590  1  0.798970  0.392040  0.476110  1.0
  C  C591  1  0.332880  0.798970  0.476110  1.0
  C  C592  1  0.701030  0.167120  0.023890  1.0
  C  C593  1  0.167120  0.107960  0.023890  1.0
  C  C594  1  0.107960  0.701030  0.023890  1.0
  C  C595  1  0.617000  0.669480  0.555480  1.0
  C  C596  1  0.158040  0.617000  0.555480  1.0
  C  C597  1  0.669480  0.158040  0.555480  1.0
  C  C598  1  0.341960  0.830520  0.944520  1.0
  C  C599  1  0.830520  0.883000  0.944520  1.0
  C  C600  1  0.883000  0.341960  0.944520  1.0
  C  C601  1  0.383000  0.330520  0.444520  1.0
  C  C602  1  0.841960  0.383000  0.444520  1.0
  C  C603  1  0.330520  0.841960  0.444520  1.0
  C  C604  1  0.658040  0.169480  0.055480  1.0
  C  C605  1  0.169480  0.117000  0.055480  1.0
  C  C606  1  0.117000  0.658040  0.055480  1.0
  C  C607  1  0.663490  0.672900  0.551190  1.0
  C  C608  1  0.112420  0.663490  0.551190  1.0
  C  C609  1  0.672900  0.112420  0.551190  1.0
  C  C610  1  0.387580  0.827100  0.948810  1.0
  C  C611  1  0.827100  0.836510  0.948810  1.0
  C  C612  1  0.836510  0.387580  0.948810  1.0
  C  C613  1  0.336510  0.327100  0.448810  1.0
  C  C614  1  0.887580  0.336510  0.448810  1.0
  C  C615  1  0.327100  0.887580  0.448810  1.0
  C  C616  1  0.612420  0.172900  0.051190  1.0
  C  C617  1  0.172900  0.163490  0.051190  1.0
  C  C618  1  0.163490  0.612420  0.051190  1.0
  C  C619  1  0.982720  0.646520  0.510840  1.0
  C  C620  1  0.859920  0.982720  0.510840  1.0
  C  C621  1  0.646520  0.859920  0.510840  1.0
  C  C622  1  0.640080  0.853480  0.989160  1.0
  C  C623  1  0.853480  0.517280  0.989160  1.0
  C  C624  1  0.517280  0.640080  0.989160  1.0
  C  C625  1  0.017280  0.353480  0.489160  1.0
  C  C626  1  0.140080  0.017280  0.489160  1.0
  C  C627  1  0.353480  0.140080  0.489160  1.0
  C  C628  1  0.359920  0.146520  0.010840  1.0
  C  C629  1  0.146520  0.482720  0.010840  1.0
  C  C630  1  0.482720  0.359920  0.010840  1.0
  C  C631  1  0.977890  0.599890  0.440430  1.0
  C  C632  1  0.981790  0.977890  0.440430  1.0
  C  C633  1  0.599890  0.981790  0.440430  1.0
  C  C634  1  0.518210  0.900110  0.059570  1.0
  C  C635  1  0.900110  0.522110  0.059570  1.0
  C  C636  1  0.522110  0.518210  0.059570  1.0
  C  C637  1  0.022110  0.400110  0.559570  1.0
  C  C638  1  0.018210  0.022110  0.559570  1.0
  C  C639  1  0.400110  0.018210  0.559570  1.0
  C  C640  1  0.481790  0.099890  0.940430  1.0
  C  C641  1  0.099890  0.477890  0.940430  1.0
  C  C642  1  0.477890  0.481790  0.940430  1.0
  C  C643  1  0.015460  0.836540  0.263250  1.0
  C  C644  1  0.884750  0.015460  0.263250  1.0
  C  C645  1  0.836540  0.884750  0.263250  1.0
  C  C646  1  0.615250  0.663460  0.236750  1.0
  C  C647  1  0.663460  0.484540  0.236750  1.0
  C  C648  1  0.484540  0.615250  0.236750  1.0
  C  C649  1  0.984540  0.163460  0.736750  1.0
  C  C650  1  0.115250  0.984540  0.736750  1.0
  C  C651  1  0.163460  0.115250  0.736750  1.0
  C  C652  1  0.384750  0.336540  0.763250  1.0
  C  C653  1  0.336540  0.515460  0.763250  1.0
  C  C654  1  0.515460  0.384750  0.763250  1.0
  C  C655  1  0.070860  0.884820  0.225030  1.0
  C  C656  1  0.819290  0.070860  0.225030  1.0
  C  C657  1  0.884820  0.819290  0.225030  1.0
  C  C658  1  0.680710  0.615180  0.274970  1.0
  C  C659  1  0.615180  0.429140  0.274970  1.0
  C  C660  1  0.429140  0.680710  0.274970  1.0
  C  C661  1  0.929140  0.115180  0.774970  1.0
  C  C662  1  0.180710  0.929140  0.774970  1.0
  C  C663  1  0.115180  0.180710  0.774970  1.0
  C  C664  1  0.319290  0.384820  0.725030  1.0
  C  C665  1  0.384820  0.570860  0.725030  1.0
  C  C666  1  0.570860  0.319290  0.725030  1.0
  C  C667  1  0.002920  0.676990  0.469860  1.0
  C  C668  1  0.850230  0.002920  0.469860  1.0
  C  C669  1  0.676990  0.850230  0.469860  1.0
  C  C670  1  0.649770  0.823010  0.030140  1.0
  C  C671  1  0.823010  0.497080  0.030140  1.0
  C  C672  1  0.497080  0.649770  0.030140  1.0
  C  C673  1  0.997080  0.323010  0.530140  1.0
  C  C674  1  0.149770  0.997080  0.530140  1.0
  C  C675  1  0.323010  0.149770  0.530140  1.0
  C  C676  1  0.350230  0.176990  0.969860  1.0
  C  C677  1  0.176990  0.502920  0.969860  1.0
  C  C678  1  0.502920  0.350230  0.969860  1.0
  C  C679  1  0.997900  0.724290  0.404760  1.0
  C  C680  1  0.873050  0.997900  0.404760  1.0
  C  C681  1  0.724290  0.873050  0.404760  1.0
  C  C682  1  0.626950  0.775710  0.095240  1.0
  C  C683  1  0.775710  0.502100  0.095240  1.0
  C  C684  1  0.502100  0.626950  0.095240  1.0
  C  C685  1  0.002100  0.275710  0.595240  1.0
  C  C686  1  0.126950  0.002100  0.595240  1.0
  C  C687  1  0.275710  0.126950  0.595240  1.0
  C  C688  1  0.373050  0.224290  0.904760  1.0
  C  C689  1  0.224290  0.497900  0.904760  1.0
  C  C690  1  0.497900  0.373050  0.904760  1.0
  C  C691  1  0.924910  0.645980  0.450270  1.0
  C  C692  1  0.978840  0.924910  0.450270  1.0
  C  C693  1  0.645980  0.978840  0.450270  1.0
  C  C694  1  0.521160  0.854020  0.049730  1.0
  C  C695  1  0.854020  0.575090  0.049730  1.0
  C  C696  1  0.575090  0.521160  0.049730  1.0
  C  C697  1  0.075090  0.354020  0.549730  1.0
  C  C698  1  0.021160  0.075090  0.549730  1.0
  C  C699  1  0.354020  0.021160  0.549730  1.0
  C  C700  1  0.478840  0.145980  0.950270  1.0
  C  C701  1  0.145980  0.424910  0.950270  1.0
  C  C702  1  0.424910  0.478840  0.950270  1.0
  C  C703  1  0.875630  0.737460  0.452310  1.0
  C  C704  1  0.934600  0.875630  0.452310  1.0
  C  C705  1  0.737460  0.934600  0.452310  1.0
  C  C706  1  0.565400  0.762540  0.047690  1.0
  C  C707  1  0.762540  0.624370  0.047690  1.0
  C  C708  1  0.624370  0.565400  0.047690  1.0
  C  C709  1  0.124370  0.262540  0.547690  1.0
  C  C710  1  0.065400  0.124370  0.547690  1.0
  C  C711  1  0.262540  0.065400  0.547690  1.0
  C  C712  1  0.434600  0.237460  0.952310  1.0
  C  C713  1  0.237460  0.375630  0.952310  1.0
  C  C714  1  0.375630  0.434600  0.952310  1.0
  F  F715  1  0.211440  0.023240  0.145380  1
  F  F716  1  0.619940  0.211440  0.145380  1
  F  F717  1  0.023240  0.619940  0.145380  1
  F  F718  1  0.880060  0.476760  0.354620  1
  F  F719  1  0.476760  0.288560  0.354620  1
  F  F720  1  0.288560  0.880060  0.354620  1
  F  F721  1  0.788560  0.976760  0.854620  1
  F  F722  1  0.380060  0.788560  0.854620  1
  F  F723  1  0.976760  0.380060  0.854620  1
  F  F724  1  0.119940  0.523240  0.645380  1
  F  F725  1  0.523240  0.711440  0.645380  1
  F  F726  1  0.711440  0.119940  0.645380  1
  F  F727  1  0.137850  0.963550  0.175050  1
  F  F728  1  0.723550  0.137850  0.175050  1
  F  F729  1  0.963550  0.723550  0.175050  1
  F  F730  1  0.776450  0.536450  0.324950  1
  F  F731  1  0.536450  0.362150  0.324950  1
  F  F732  1  0.362150  0.776450  0.324950  1
  F  F733  1  0.862150  0.036450  0.824950  1
  F  F734  1  0.276450  0.862150  0.824950  1
  F  F735  1  0.036450  0.276450  0.824950  1
  F  F736  1  0.223550  0.463550  0.675050  1
  F  F737  1  0.463550  0.637850  0.675050  1
  F  F738  1  0.637850  0.223550  0.675050  1
  F  F739  1  0.126100  0.049300  0.155100  1
  F  F740  1  0.669500  0.126100  0.155100  1
  F  F741  1  0.049300  0.669500  0.155100  1
  F  F742  1  0.830500  0.450700  0.344900  1
  F  F743  1  0.450700  0.373900  0.344900  1
  F  F744  1  0.373900  0.830500  0.344900  1
  F  F745  1  0.873900  0.950700  0.844900  1
  F  F746  1  0.330500  0.873900  0.844900  1
  F  F747  1  0.950700  0.330500  0.844900  1
  F  F748  1  0.169500  0.549300  0.655100  1
  F  F749  1  0.549300  0.626100  0.655100  1
  F  F750  1  0.626100  0.169500  0.655100  1
  F  F751  1  0.168280  0.995480  0.201660  1
  F  F752  1  0.634580  0.168280  0.201660  1
  F  F753  1  0.995480  0.634580  0.201660  1
  F  F754  1  0.865420  0.504520  0.298340  1
  F  F755  1  0.504520  0.331720  0.298340  1
  F  F756  1  0.331720  0.865420  0.298340  1
  F  F757  1  0.831720  0.004520  0.798340  1
  F  F758  1  0.365420  0.831720  0.798340  1
  F  F759  1  0.004520  0.365420  0.798340  1
  F  F760  1  0.134580  0.495480  0.701660  1
  F  F761  1  0.495480  0.668280  0.701660  1
  F  F762  1  0.668280  0.134580  0.701660  1
  F  F763  1  0.229570  0.938970  0.161490  1
  F  F764  1  0.669970  0.229570  0.161490  1
  F  F765  1  0.938970  0.669970  0.161490  1
  F  F766  1  0.830030  0.561030  0.338510  1
  F  F767  1  0.561030  0.270430  0.338510  1
  F  F768  1  0.270430  0.830030  0.338510  1
  F  F769  1  0.770430  0.061030  0.838510  1
  F  F770  1  0.330030  0.770430  0.838510  1
  F  F771  1  0.061030  0.330030  0.838510  1
  F  F772  1  0.169970  0.438970  0.661490  1
  F  F773  1  0.438970  0.729570  0.661490  1
  F  F774  1  0.729570  0.169970  0.661490  1
  F  F775  1  0.183650  0.993190  0.117600  1
  F  F776  1  0.705560  0.183650  0.117600  1
  F  F777  1  0.993190  0.705560  0.117600  1
  F  F778  1  0.794440  0.506810  0.382400  1
  F  F779  1  0.506810  0.316350  0.382400  1
  F  F780  1  0.316350  0.794440  0.382400  1
  F  F781  1  0.816350  0.006810  0.882400  1
  F  F782  1  0.294440  0.816350  0.882400  1
  F  F783  1  0.006810  0.294440  0.882400  1
  F  F784  1  0.205560  0.493190  0.617600  1
  F  F785  1  0.493190  0.683650  0.617600  1
  F  F786  1  0.683650  0.205560  0.617600  1
  F  F787  1  0.112020  0.834940  0.040500  1
  F  F788  1  0.012540  0.112020  0.040500  1
  F  F789  1  0.834940  0.012540  0.040500  1
  F  F790  1  0.487460  0.665060  0.459500  1
  F  F791  1  0.665060  0.387980  0.459500  1
  F  F792  1  0.387980  0.487460  0.459500  1
  F  F793  1  0.887980  0.165060  0.959500  1
  F  F794  1  0.987460  0.887980  0.959500  1
  F  F795  1  0.165060  0.987460  0.959500  1
  F  F796  1  0.512540  0.334940  0.540500  1
  F  F797  1  0.334940  0.612020  0.540500  1
  F  F798  1  0.612020  0.512540  0.540500  1
  F  F799  1  0.196660  0.786120  0.009720  1
  F  F800  1  0.007500  0.196660  0.009720  1
  F  F801  1  0.786120  0.007500  0.009720  1
  F  F802  1  0.492500  0.713880  0.490280  1
  F  F803  1  0.713880  0.303340  0.490280  1
  F  F804  1  0.303340  0.492500  0.490280  1
  F  F805  1  0.803340  0.213880  0.990280  1
  F  F806  1  0.992500  0.803340  0.990280  1
  F  F807  1  0.213880  0.992500  0.990280  1
  F  F808  1  0.507500  0.286120  0.509720  1
  F  F809  1  0.286120  0.696660  0.509720  1
  F  F810  1  0.696660  0.507500  0.509720  1
  F  F811  1  0.222740  0.750960  0.065250  1
  F  F812  1  0.961050  0.222740  0.065250  1
  F  F813  1  0.750960  0.961050  0.065250  1
  F  F814  1  0.538950  0.749040  0.434750  1
  F  F815  1  0.749040  0.277260  0.434750  1
  F  F816  1  0.277260  0.538950  0.434750  1
  F  F817  1  0.777260  0.249040  0.934750  1
  F  F818  1  0.038950  0.777260  0.934750  1
  F  F819  1  0.249040  0.038950  0.934750  1
  F  F820  1  0.461050  0.250960  0.565250  1
  F  F821  1  0.250960  0.722740  0.565250  1
  F  F822  1  0.722740  0.461050  0.565250  1
  F  F823  1  0.137910  0.797370  0.096870  1
  F  F824  1  0.967850  0.137910  0.096870  1
  F  F825  1  0.797370  0.967850  0.096870  1
  F  F826  1  0.532150  0.702630  0.403130  1
  F  F827  1  0.702630  0.362090  0.403130  1
  F  F828  1  0.362090  0.532150  0.403130  1
  F  F829  1  0.862090  0.202630  0.903130  1
  F  F830  1  0.032150  0.862090  0.903130  1
  F  F831  1  0.202630  0.032150  0.903130  1
  F  F832  1  0.467850  0.297370  0.596870  1
  F  F833  1  0.297370  0.637910  0.596870  1
  F  F834  1  0.637910  0.467850  0.596870  1
  F  F835  1  0.183310  0.839340  0.044100  1
  F  F836  1  0.933250  0.183310  0.044100  1
  F  F837  1  0.839340  0.933250  0.044100  1
  F  F838  1  0.566750  0.660660  0.455900  1
  F  F839  1  0.660660  0.316690  0.455900  1
  F  F840  1  0.316690  0.566750  0.455900  1
  F  F841  1  0.816690  0.160660  0.955900  1
  F  F842  1  0.066750  0.816690  0.955900  1
  F  F843  1  0.160660  0.066750  0.955900  1
  F  F844  1  0.433250  0.339340  0.544100  1
  F  F845  1  0.339340  0.683310  0.544100  1
  F  F846  1  0.683310  0.433250  0.544100  1
  F  F847  1  0.151560  0.744640  0.061320  1
  F  F848  1  0.042480  0.151560  0.061320  1
  F  F849  1  0.744640  0.042480  0.061320  1
  F  F850  1  0.457520  0.755360  0.438680  1
  F  F851  1  0.755360  0.348440  0.438680  1
  F  F852  1  0.348440  0.457520  0.438680  1
  F  F853  1  0.848440  0.255360  0.938680  1
  F  F854  1  0.957520  0.848440  0.938680  1
  F  F855  1  0.255360  0.957520  0.938680  1
  F  F856  1  0.542480  0.244640  0.561320  1
  F  F857  1  0.244640  0.651560  0.561320  1
  F  F858  1  0.651560  0.542480  0.561320  1
  Fe  Fe859  1  0.956259  0.956259  0.131223  1
  Fe  Fe860  1  0.543741  0.543741  0.368777  1
  Fe  Fe861  1  0.043741  0.043741  0.868777  1
  Fe  Fe862  1  0.456259  0.456259  0.631223  1
  Fe  Fe863  1  0.141928  0.749701  0.435903  1.0
  Fe  Fe864  1  0.672468  0.141928  0.435903  1.0
  Fe  Fe865  1  0.749701  0.672468  0.435903  1.0
  Fe  Fe866  1  0.827532  0.750299  0.064097  1.0
  Fe  Fe867  1  0.750299  0.358072  0.064097  1.0
  Fe  Fe868  1  0.358072  0.827532  0.064097  1.0
  Fe  Fe869  1  0.858072  0.250299  0.564097  1.0
  Fe  Fe870  1  0.327532  0.858072  0.564097  1.0
  Fe  Fe871  1  0.250299  0.327532  0.564097  1.0
  Fe  Fe872  1  0.172468  0.249701  0.935903  1.0
  Fe  Fe873  1  0.249701  0.641928  0.935903  1.0
  Fe  Fe874  1  0.641928  0.172468  0.935903  1.0
  H  H875  1  0.263500  0.663600  0.153000  1
  H  H876  1  0.919900  0.263500  0.153000  1
  H  H877  1  0.663600  0.919900  0.153000  1
  H  H878  1  0.580100  0.836400  0.347000  1
  H  H879  1  0.836400  0.236500  0.347000  1
  H  H880  1  0.236500  0.580100  0.347000  1
  H  H881  1  0.736500  0.336400  0.847000  1
  H  H882  1  0.080100  0.736500  0.847000  1
  H  H883  1  0.336400  0.080100  0.847000  1
  H  H884  1  0.419900  0.163600  0.653000  1
  H  H885  1  0.163600  0.763500  0.653000  1
  H  H886  1  0.763500  0.419900  0.653000  1
  H  H887  1  0.305900  0.621500  0.126600  1
  H  H888  1  0.946000  0.305900  0.126600  1
  H  H889  1  0.621500  0.946000  0.126600  1
  H  H890  1  0.554000  0.878500  0.373400  1
  H  H891  1  0.878500  0.194100  0.373400  1
  H  H892  1  0.194100  0.554000  0.373400  1
  H  H893  1  0.694100  0.378500  0.873400  1
  H  H894  1  0.054000  0.694100  0.873400  1
  H  H895  1  0.378500  0.054000  0.873400  1
  H  H896  1  0.446000  0.121500  0.626600  1
  H  H897  1  0.121500  0.805900  0.626600  1
  H  H898  1  0.805900  0.446000  0.626600  1
  H  H899  1  0.276300  0.600700  0.170400  1
  H  H900  1  0.952600  0.276300  0.170400  1
  H  H901  1  0.600700  0.952600  0.170400  1
  H  H902  1  0.547400  0.899300  0.329600  1
  H  H903  1  0.899300  0.223700  0.329600  1
  H  H904  1  0.223700  0.547400  0.329600  1
  H  H905  1  0.723700  0.399300  0.829600  1
  H  H906  1  0.047400  0.723700  0.829600  1
  H  H907  1  0.399300  0.047400  0.829600  1
  H  H908  1  0.452600  0.100700  0.670400  1
  H  H909  1  0.100700  0.776300  0.670400  1
  H  H910  1  0.776300  0.452600  0.670400  1
  H  H911  1  0.001800  0.816500  0.287700  1
  H  H912  1  0.894000  0.001800  0.287700  1
  H  H913  1  0.816500  0.894000  0.287700  1
  H  H914  1  0.606000  0.683500  0.212300  1
  H  H915  1  0.683500  0.498200  0.212300  1
  H  H916  1  0.498200  0.606000  0.212300  1
  H  H917  1  0.998200  0.183500  0.712300  1
  H  H918  1  0.106000  0.998200  0.712300  1
  H  H919  1  0.183500  0.106000  0.712300  1
  H  H920  1  0.394000  0.316500  0.787700  1
  H  H921  1  0.316500  0.501800  0.787700  1
  H  H922  1  0.501800  0.394000  0.787700  1
  H  H923  1  0.136200  0.887300  0.222900  1
  H  H924  1  0.753600  0.136200  0.222900  1
  H  H925  1  0.887300  0.753600  0.222900  1
  H  H926  1  0.746400  0.612700  0.277100  1
  H  H927  1  0.612700  0.363800  0.277100  1
  H  H928  1  0.363800  0.746400  0.277100  1
  H  H929  1  0.863800  0.112700  0.777100  1
  H  H930  1  0.246400  0.863800  0.777100  1
  H  H931  1  0.112700  0.246400  0.777100  1
  H  H932  1  0.253600  0.387300  0.722900  1
  H  H933  1  0.387300  0.636200  0.722900  1
  H  H934  1  0.636200  0.253600  0.722900  1
  H  H935  1  0.083000  0.922400  0.249900  1
  H  H936  1  0.744700  0.083000  0.249900  1
  H  H937  1  0.922400  0.744700  0.249900  1
  H  H938  1  0.755300  0.577600  0.250100  1
  H  H939  1  0.577600  0.417000  0.250100  1
  H  H940  1  0.417000  0.755300  0.250100  1
  H  H941  1  0.917000  0.077600  0.750100  1
  H  H942  1  0.255300  0.917000  0.750100  1
  H  H943  1  0.077600  0.255300  0.750100  1
  H  H944  1  0.244700  0.422400  0.749900  1
  H  H945  1  0.422400  0.583000  0.749900  1
  H  H946  1  0.583000  0.244700  0.749900  1
  H  H947  1  0.062000  0.975700  0.188700  1
  H  H948  1  0.773600  0.062000  0.188700  1
  H  H949  1  0.975700  0.773600  0.188700  1
  H  H950  1  0.726400  0.524300  0.311300  1
  H  H951  1  0.524300  0.438000  0.311300  1
  H  H952  1  0.438000  0.726400  0.311300  1
  H  H953  1  0.938000  0.024300  0.811300  1
  H  H954  1  0.226400  0.938000  0.811300  1
  H  H955  1  0.024300  0.226400  0.811300  1
  H  H956  1  0.273600  0.475700  0.688700  1
  H  H957  1  0.475700  0.562000  0.688700  1
  H  H958  1  0.562000  0.273600  0.688700  1
  H  H959  1  0.238500  0.745700  0.257700  1
  H  H960  1  0.758100  0.238500  0.257700  1
  H  H961  1  0.745700  0.758100  0.257700  1
  H  H962  1  0.741900  0.754300  0.242300  1
  H  H963  1  0.754300  0.261500  0.242300  1
  H  H964  1  0.261500  0.741900  0.242300  1
  H  H965  1  0.761500  0.254300  0.742300  1
  H  H966  1  0.241900  0.761500  0.742300  1
  H  H967  1  0.254300  0.241900  0.742300  1
  H  H968  1  0.258100  0.245700  0.757700  1
  H  H969  1  0.245700  0.738500  0.757700  1
  H  H970  1  0.738500  0.258100  0.757700  1
  H  H971  1  0.149800  0.763300  0.252600  1
  H  H972  1  0.834300  0.149800  0.252600  1
  H  H973  1  0.763300  0.834300  0.252600  1
  H  H974  1  0.665700  0.736700  0.247400  1
  H  H975  1  0.736700  0.350200  0.247400  1
  H  H976  1  0.350200  0.665700  0.247400  1
  H  H977  1  0.850200  0.236700  0.747400  1
  H  H978  1  0.165700  0.850200  0.747400  1
  H  H979  1  0.236700  0.165700  0.747400  1
  H  H980  1  0.334300  0.263300  0.752600  1
  H  H981  1  0.263300  0.649800  0.752600  1
  H  H982  1  0.649800  0.334300  0.752600  1
  H  H983  1  0.173800  0.807700  0.238800  1
  H  H984  1  0.779700  0.173800  0.238800  1
  H  H985  1  0.807700  0.779700  0.238800  1
  H  H986  1  0.720300  0.692300  0.261200  1
  H  H987  1  0.692300  0.326200  0.261200  1
  H  H988  1  0.326200  0.720300  0.261200  1
  H  H989  1  0.826200  0.192300  0.761200  1
  H  H990  1  0.220300  0.826200  0.761200  1
  H  H991  1  0.192300  0.220300  0.761200  1
  H  H992  1  0.279700  0.307700  0.738800  1
  H  H993  1  0.307700  0.673800  0.738800  1
  H  H994  1  0.673800  0.279700  0.738800  1
  H  H995  1  0.987700  0.660200  0.495300  1
  H  H996  1  0.856800  0.987700  0.495300  1
  H  H997  1  0.660200  0.856800  0.495300  1
  H  H998  1  0.643200  0.839800  0.004700  1
  H  H999  1  0.839800  0.512300  0.004700  1
  H  H1000  1  0.512300  0.643200  0.004700  1
  H  H1001  1  0.012300  0.339800  0.504700  1
  H  H1002  1  0.143200  0.012300  0.504700  1
  H  H1003  1  0.339800  0.143200  0.504700  1
  H  H1004  1  0.356800  0.160200  0.995300  1
  H  H1005  1  0.160200  0.487700  0.995300  1
  H  H1006  1  0.487700  0.356800  0.995300  1
  H  H1007  1  0.958500  0.615700  0.446400  1
  H  H1008  1  0.979400  0.958500  0.446400  1
  H  H1009  1  0.615700  0.979400  0.446400  1
  H  H1010  1  0.520600  0.884300  0.053600  1
  H  H1011  1  0.884300  0.541500  0.053600  1
  H  H1012  1  0.541500  0.520600  0.053600  1
  H  H1013  1  0.041500  0.384300  0.553600  1
  H  H1014  1  0.020600  0.041500  0.553600  1
  H  H1015  1  0.384300  0.020600  0.553600  1
  H  H1016  1  0.479400  0.115700  0.946400  1
  H  H1017  1  0.115700  0.458500  0.946400  1
  H  H1018  1  0.458500  0.479400  0.946400  1
  H  H1019  1  0.006200  0.745900  0.339600  1
  H  H1020  1  0.908300  0.006200  0.339600  1
  H  H1021  1  0.745900  0.908300  0.339600  1
  H  H1022  1  0.591700  0.754100  0.160400  1
  H  H1023  1  0.754100  0.493800  0.160400  1
  H  H1024  1  0.493800  0.591700  0.160400  1
  H  H1025  1  0.993800  0.254100  0.660400  1
  H  H1026  1  0.091700  0.993800  0.660400  1
  H  H1027  1  0.254100  0.091700  0.660400  1
  H  H1028  1  0.408300  0.245900  0.839600  1
  H  H1029  1  0.245900  0.506200  0.839600  1
  H  H1030  1  0.506200  0.408300  0.839600  1
  H  H1031  1  0.963900  0.718000  0.363600  1
  H  H1032  1  0.954500  0.963900  0.363600  1
  H  H1033  1  0.718000  0.954500  0.363600  1
  H  H1034  1  0.545500  0.782000  0.136400  1
  H  H1035  1  0.782000  0.536100  0.136400  1
  H  H1036  1  0.536100  0.545500  0.136400  1
  H  H1037  1  0.036100  0.282000  0.636400  1
  H  H1038  1  0.045500  0.036100  0.636400  1
  H  H1039  1  0.282000  0.045500  0.636400  1
  H  H1040  1  0.454500  0.218000  0.863600  1
  H  H1041  1  0.218000  0.463900  0.863600  1
  H  H1042  1  0.463900  0.454500  0.863600  1
  H  H1043  1  0.906900  0.790800  0.384300  1
  H  H1044  1  0.918000  0.906900  0.384300  1
  H  H1045  1  0.790800  0.918000  0.384300  1
  H  H1046  1  0.582000  0.709200  0.115700  1
  H  H1047  1  0.709200  0.593100  0.115700  1
  H  H1048  1  0.593100  0.582000  0.115700  1
  H  H1049  1  0.093100  0.209200  0.615700  1
  H  H1050  1  0.082000  0.093100  0.615700  1
  H  H1051  1  0.209200  0.082000  0.615700  1
  H  H1052  1  0.418000  0.290800  0.884300  1
  H  H1053  1  0.290800  0.406900  0.884300  1
  H  H1054  1  0.406900  0.418000  0.884300  1
  H  H1055  1  0.853500  0.815600  0.458400  1
  H  H1056  1  0.872500  0.853500  0.458400  1
  H  H1057  1  0.815600  0.872500  0.458400  1
  H  H1058  1  0.627500  0.684400  0.041600  1
  H  H1059  1  0.684400  0.646500  0.041600  1
  H  H1060  1  0.646500  0.627500  0.041600  1
  H  H1061  1  0.146500  0.184400  0.541600  1
  H  H1062  1  0.127500  0.146500  0.541600  1
  H  H1063  1  0.184400  0.127500  0.541600  1
  H  H1064  1  0.372500  0.315600  0.958400  1
  H  H1065  1  0.315600  0.353500  0.958400  1
  H  H1066  1  0.353500  0.372500  0.958400  1
  H  H1067  1  0.917000  0.786700  0.438900  1
  H  H1068  1  0.857400  0.917000  0.438900  1
  H  H1069  1  0.786700  0.857400  0.438900  1
  H  H1070  1  0.642600  0.713300  0.061100  1
  H  H1071  1  0.713300  0.583000  0.061100  1
  H  H1072  1  0.583000  0.642600  0.061100  1
  H  H1073  1  0.083000  0.213300  0.561100  1
  H  H1074  1  0.142600  0.083000  0.561100  1
  H  H1075  1  0.213300  0.142600  0.561100  1
  H  H1076  1  0.357400  0.286700  0.938900  1
  H  H1077  1  0.286700  0.417000  0.938900  1
  H  H1078  1  0.417000  0.357400  0.938900  1
  H  H1079  1  0.000400  0.565800  0.393300  1
  H  H1080  1  0.040500  0.000400  0.393300  1
  H  H1081  1  0.565800  0.040500  0.393300  1
  H  H1082  1  0.459500  0.934200  0.106700  1
  H  H1083  1  0.934200  0.499600  0.106700  1
  H  H1084  1  0.499600  0.459500  0.106700  1
  H  H1085  1  0.999600  0.434200  0.606700  1
  H  H1086  1  0.959500  0.999600  0.606700  1
  H  H1087  1  0.434200  0.959500  0.606700  1
  H  H1088  1  0.540500  0.065800  0.893300  1
  H  H1089  1  0.065800  0.500400  0.893300  1
  H  H1090  1  0.500400  0.540500  0.893300  1
  H  H1091  1  0.871900  0.847100  0.392100  1
  H  H1092  1  0.888900  0.871900  0.392100  1
  H  H1093  1  0.847100  0.888900  0.392100  1
  H  H1094  1  0.611100  0.652900  0.107900  1
  H  H1095  1  0.652900  0.628100  0.107900  1
  H  H1096  1  0.628100  0.611100  0.107900  1
  H  H1097  1  0.128100  0.152900  0.607900  1
  H  H1098  1  0.111100  0.128100  0.607900  1
  H  H1099  1  0.152900  0.111100  0.607900  1
  H  H1100  1  0.388900  0.347100  0.892100  1
  H  H1101  1  0.347100  0.371900  0.892100  1
  H  H1102  1  0.371900  0.388900  0.892100  1
  H  H1103  1  0.281300  0.857900  0.245400  1
  H  H1104  1  0.615400  0.281300  0.245400  1
  H  H1105  1  0.857900  0.615400  0.245400  1
  H  H1106  1  0.884600  0.642100  0.254600  1
  H  H1107  1  0.642100  0.218700  0.254600  1
  H  H1108  1  0.218700  0.884600  0.254600  1
  H  H1109  1  0.718700  0.142100  0.754600  1
  H  H1110  1  0.384600  0.718700  0.754600  1
  H  H1111  1  0.142100  0.384600  0.754600  1
  H  H1112  1  0.115400  0.357900  0.745400  1
  H  H1113  1  0.357900  0.781300  0.745400  1
  H  H1114  1  0.781300  0.115400  0.745400  1
  H  H1115  1  0.244100  0.856300  0.224700  1
  H  H1116  1  0.674900  0.244100  0.224700  1
  H  H1117  1  0.856300  0.674900  0.224700  1
  H  H1118  1  0.825100  0.643700  0.275300  1
  H  H1119  1  0.643700  0.255900  0.275300  1
  H  H1120  1  0.255900  0.825100  0.275300  1
  H  H1121  1  0.755900  0.143700  0.775300  1
  H  H1122  1  0.325100  0.755900  0.775300  1
  H  H1123  1  0.143700  0.325100  0.775300  1
  H  H1124  1  0.174900  0.356300  0.724700  1
  H  H1125  1  0.356300  0.744100  0.724700  1
  H  H1126  1  0.744100  0.174900  0.724700  1
  H  H1127  1  0.256800  0.813500  0.264900  1
  H  H1128  1  0.664800  0.256800  0.264900  1
  H  H1129  1  0.813500  0.664800  0.264900  1
  H  H1130  1  0.835200  0.686500  0.235100  1
  H  H1131  1  0.686500  0.243200  0.235100  1
  H  H1132  1  0.243200  0.835200  0.235100  1
  H  H1133  1  0.743200  0.186500  0.735100  1
  H  H1134  1  0.335200  0.743200  0.735100  1
  H  H1135  1  0.186500  0.335200  0.735100  1
  H  H1136  1  0.164800  0.313500  0.764900  1
  H  H1137  1  0.313500  0.756800  0.764900  1
  H  H1138  1  0.756800  0.164800  0.764900  1
  H  H1139  1  0.927700  0.958800  0.060000  1.0
  H  H1140  1  0.053500  0.927700  0.060000  1.0
  H  H1141  1  0.958800  0.053500  0.060000  1.0
  H  H1142  1  0.446500  0.541200  0.440000  1.0
  H  H1143  1  0.541200  0.572300  0.440000  1.0
  H  H1144  1  0.572300  0.446500  0.440000  1.0
  H  H1145  1  0.072300  0.041200  0.940000  1.0
  H  H1146  1  0.946500  0.072300  0.940000  1.0
  H  H1147  1  0.041200  0.946500  0.940000  1.0
  H  H1148  1  0.553500  0.458800  0.560000  1.0
  H  H1149  1  0.458800  0.427700  0.560000  1.0
  H  H1150  1  0.427700  0.553500  0.560000  1.0
  H  H1151  1  0.944000  0.893500  0.030900  1.0
  H  H1152  1  0.131600  0.944000  0.030900  1.0
  H  H1153  1  0.893500  0.131600  0.030900  1.0
  H  H1154  1  0.368400  0.606500  0.469100  1.0
  H  H1155  1  0.606500  0.556000  0.469100  1.0
  H  H1156  1  0.556000  0.368400  0.469100  1.0
  H  H1157  1  0.056000  0.106500  0.969100  1.0
  H  H1158  1  0.868400  0.056000  0.969100  1.0
  H  H1159  1  0.106500  0.868400  0.969100  1.0
  H  H1160  1  0.631600  0.393500  0.530900  1.0
  H  H1161  1  0.393500  0.444000  0.530900  1.0
  H  H1162  1  0.444000  0.631600  0.530900  1.0
  H  H1163  1  0.999600  0.803400  0.052500  1.0
  H  H1164  1  0.144500  0.999600  0.052500  1.0
  H  H1165  1  0.803400  0.144500  0.052500  1.0
  H  H1166  1  0.355500  0.696600  0.447500  1.0
  H  H1167  1  0.696600  0.500400  0.447500  1.0
  H  H1168  1  0.500400  0.355500  0.447500  1.0
  H  H1169  1  0.000400  0.196600  0.947500  1.0
  H  H1170  1  0.855500  0.000400  0.947500  1.0
  H  H1171  1  0.196600  0.855500  0.947500  1.0
  H  H1172  1  0.644500  0.303400  0.552500  1.0
  H  H1173  1  0.303400  0.499600  0.552500  1.0
  H  H1174  1  0.499600  0.644500  0.552500  1.0
  H  H1175  1  0.034700  0.778800  0.106500  1.0
  H  H1176  1  0.080000  0.034700  0.106500  1.0
  H  H1177  1  0.778800  0.080000  0.106500  1.0
  H  H1178  1  0.420000  0.721200  0.393500  1.0
  H  H1179  1  0.721200  0.465300  0.393500  1.0
  H  H1180  1  0.465300  0.420000  0.393500  1.0
  H  H1181  1  0.965300  0.221200  0.893500  1.0
  H  H1182  1  0.920000  0.965300  0.893500  1.0
  H  H1183  1  0.221200  0.920000  0.893500  1.0
  H  H1184  1  0.580000  0.278800  0.606500  1.0
  H  H1185  1  0.278800  0.534700  0.606500  1.0
  H  H1186  1  0.534700  0.580000  0.606500  1.0
  H  H1187  1  0.043000  0.810800  0.157500  1.0
  H  H1188  1  0.988700  0.043000  0.157500  1.0
  H  H1189  1  0.810800  0.988700  0.157500  1.0
  H  H1190  1  0.511300  0.689200  0.342500  1.0
  H  H1191  1  0.689200  0.457000  0.342500  1.0
  H  H1192  1  0.457000  0.511300  0.342500  1.0
  H  H1193  1  0.957000  0.189200  0.842500  1.0
  H  H1194  1  0.011300  0.957000  0.842500  1.0
  H  H1195  1  0.189200  0.011300  0.842500  1.0
  H  H1196  1  0.488700  0.310800  0.657500  1.0
  H  H1197  1  0.310800  0.543000  0.657500  1.0
  H  H1198  1  0.543000  0.488700  0.657500  1.0
  H  H1199  1  0.973900  0.834000  0.232500  1.0
  H  H1200  1  0.959600  0.973900  0.232500  1.0
  H  H1201  1  0.834000  0.959600  0.232500  1.0
  H  H1202  1  0.540400  0.666000  0.267500  1.0
  H  H1203  1  0.666000  0.526100  0.267500  1.0
  H  H1204  1  0.526100  0.540400  0.267500  1.0
  H  H1205  1  0.026100  0.166000  0.767500  1.0
  H  H1206  1  0.040400  0.026100  0.767500  1.0
  H  H1207  1  0.166000  0.040400  0.767500  1.0
  H  H1208  1  0.459600  0.334000  0.732500  1.0
  H  H1209  1  0.334000  0.473900  0.732500  1.0
  H  H1210  1  0.473900  0.459600  0.732500  1.0
  H  H1211  1  0.095500  0.898200  0.222900  1.0
  H  H1212  1  0.783400  0.095500  0.222900  1.0
  H  H1213  1  0.898200  0.783400  0.222900  1.0
  H  H1214  1  0.716600  0.601800  0.277100  1.0
  H  H1215  1  0.601800  0.404500  0.277100  1.0
  H  H1216  1  0.404500  0.716600  0.277100  1.0
  H  H1217  1  0.904500  0.101800  0.777100  1.0
  H  H1218  1  0.216600  0.904500  0.777100  1.0
  H  H1219  1  0.101800  0.216600  0.777100  1.0
  H  H1220  1  0.283400  0.398200  0.722900  1.0
  H  H1221  1  0.398200  0.595500  0.722900  1.0
  H  H1222  1  0.595500  0.283400  0.722900  1.0
  H  H1223  1  0.067300  0.915400  0.168000  1.0
  H  H1224  1  0.849300  0.067300  0.168000  1.0
  H  H1225  1  0.915400  0.849300  0.168000  1.0
  H  H1226  1  0.650700  0.584600  0.332000  1.0
  H  H1227  1  0.584600  0.432700  0.332000  1.0
  H  H1228  1  0.432700  0.650700  0.332000  1.0
  H  H1229  1  0.932700  0.084600  0.832000  1.0
  H  H1230  1  0.150700  0.932700  0.832000  1.0
  H  H1231  1  0.084600  0.150700  0.832000  1.0
  H  H1232  1  0.349300  0.415400  0.668000  1.0
  H  H1233  1  0.415400  0.567300  0.668000  1.0
  H  H1234  1  0.567300  0.349300  0.668000  1.0
  H  H1235  1  0.177600  0.767500  0.332400  1.0
  H  H1236  1  0.722500  0.177600  0.332400  1.0
  H  H1237  1  0.767500  0.722500  0.332400  1.0
  H  H1238  1  0.777500  0.732500  0.167600  1.0
  H  H1239  1  0.732500  0.322400  0.167600  1.0
  H  H1240  1  0.322400  0.777500  0.167600  1.0
  H  H1241  1  0.822400  0.232500  0.667600  1.0
  H  H1242  1  0.277500  0.822400  0.667600  1.0
  H  H1243  1  0.232500  0.277500  0.667600  1.0
  H  H1244  1  0.222500  0.267500  0.832400  1.0
  H  H1245  1  0.267500  0.677600  0.832400  1.0
  H  H1246  1  0.677600  0.222500  0.832400  1.0
  H  H1247  1  0.033100  0.879500  0.376500  1.0
  H  H1248  1  0.710900  0.033100  0.376500  1.0
  H  H1249  1  0.879500  0.710900  0.376500  1.0
  H  H1250  1  0.789100  0.620500  0.123500  1.0
  H  H1251  1  0.620500  0.466900  0.123500  1.0
  H  H1252  1  0.466900  0.789100  0.123500  1.0
  H  H1253  1  0.966900  0.120500  0.623500  1.0
  H  H1254  1  0.289100  0.966900  0.623500  1.0
  H  H1255  1  0.120500  0.289100  0.623500  1.0
  H  H1256  1  0.210900  0.379500  0.876500  1.0
  H  H1257  1  0.379500  0.533100  0.876500  1.0
  H  H1258  1  0.533100  0.210900  0.876500  1.0
  H  H1259  1  0.003100  0.895900  0.323100  1.0
  H  H1260  1  0.777900  0.003100  0.323100  1.0
  H  H1261  1  0.895900  0.777900  0.323100  1.0
  H  H1262  1  0.722100  0.604100  0.176900  1.0
  H  H1263  1  0.604100  0.496900  0.176900  1.0
  H  H1264  1  0.496900  0.722100  0.176900  1.0
  H  H1265  1  0.996900  0.104100  0.676900  1.0
  H  H1266  1  0.222100  0.996900  0.676900  1.0
  H  H1267  1  0.104100  0.222100  0.676900  1.0
  H  H1268  1  0.277900  0.395900  0.823100  1.0
  H  H1269  1  0.395900  0.503100  0.823100  1.0
  H  H1270  1  0.503100  0.277900  0.823100  1.0
  H  H1271  1  0.137900  0.881100  0.369000  1.0
  H  H1272  1  0.612000  0.137900  0.369000  1.0
  H  H1273  1  0.881100  0.612000  0.369000  1.0
  H  H1274  1  0.888000  0.618900  0.131000  1.0
  H  H1275  1  0.618900  0.362100  0.131000  1.0
  H  H1276  1  0.362100  0.888000  0.131000  1.0
  H  H1277  1  0.862100  0.118900  0.631000  1.0
  H  H1278  1  0.388000  0.862100  0.631000  1.0
  H  H1279  1  0.118900  0.388000  0.631000  1.0
  H  H1280  1  0.112000  0.381100  0.869000  1.0
  H  H1281  1  0.381100  0.637900  0.869000  1.0
  H  H1282  1  0.637900  0.112000  0.869000  1.0
  H  H1283  1  0.186900  0.747100  0.499200  1.0
  H  H1284  1  0.566800  0.186900  0.499200  1.0
  H  H1285  1  0.747100  0.566800  0.499200  1.0
  H  H1286  1  0.933200  0.752900  0.000800  1.0
  H  H1287  1  0.752900  0.313100  0.000800  1.0
  H  H1288  1  0.313100  0.933200  0.000800  1.0
  H  H1289  1  0.813100  0.252900  0.500800  1.0
  H  H1290  1  0.433200  0.813100  0.500800  1.0
  H  H1291  1  0.252900  0.433200  0.500800  1.0
  H  H1292  1  0.066800  0.247100  0.999200  1.0
  H  H1293  1  0.247100  0.686900  0.999200  1.0
  H  H1294  1  0.686900  0.066800  0.999200  1.0
  H  H1295  1  0.209000  0.805100  0.509100  1.0
  H  H1296  1  0.476800  0.209000  0.509100  1.0
  H  H1297  1  0.805100  0.476800  0.509100  1.0
  H  H1298  1  0.023200  0.694900  0.990900  1.0
  H  H1299  1  0.694900  0.291000  0.990900  1.0
  H  H1300  1  0.291000  0.023200  0.990900  1.0
  H  H1301  1  0.791000  0.194900  0.490900  1.0
  H  H1302  1  0.523200  0.791000  0.490900  1.0
  H  H1303  1  0.194900  0.523200  0.490900  1.0
  H  H1304  1  0.976800  0.305100  0.009100  1.0
  H  H1305  1  0.305100  0.709000  0.009100  1.0
  H  H1306  1  0.709000  0.976800  0.009100  1.0
  H  H1307  1  0.200000  0.887700  0.465000  1.0
  H  H1308  1  0.447300  0.200000  0.465000  1.0
  H  H1309  1  0.887700  0.447300  0.465000  1.0
  H  H1310  1  0.052700  0.612300  0.035000  1.0
  H  H1311  1  0.612300  0.300000  0.035000  1.0
  H  H1312  1  0.300000  0.052700  0.035000  1.0
  H  H1313  1  0.800000  0.112300  0.535000  1.0
  H  H1314  1  0.552700  0.800000  0.535000  1.0
  H  H1315  1  0.112300  0.552700  0.535000  1.0
  H  H1316  1  0.947300  0.387700  0.965000  1.0
  H  H1317  1  0.387700  0.700000  0.965000  1.0
  H  H1318  1  0.700000  0.947300  0.965000  1.0
  H  H1319  1  0.169500  0.910800  0.409800  1.0
  H  H1320  1  0.509900  0.169500  0.409800  1.0
  H  H1321  1  0.910800  0.509900  0.409800  1.0
  H  H1322  1  0.990100  0.589200  0.090200  1.0
  H  H1323  1  0.589200  0.330500  0.090200  1.0
  H  H1324  1  0.330500  0.990100  0.090200  1.0
  H  H1325  1  0.830500  0.089200  0.590200  1.0
  H  H1326  1  0.490100  0.830500  0.590200  1.0
  H  H1327  1  0.089200  0.490100  0.590200  1.0
  H  H1328  1  0.009900  0.410800  0.909800  1.0
  H  H1329  1  0.410800  0.669500  0.909800  1.0
  H  H1330  1  0.669500  0.009900  0.909800  1.0
  H  H1331  1  0.984600  0.778000  0.295200  1.0
  H  H1332  1  0.942200  0.984600  0.295200  1.0
  H  H1333  1  0.778000  0.942200  0.295200  1.0
  H  H1334  1  0.557800  0.722000  0.204800  1.0
  H  H1335  1  0.722000  0.515400  0.204800  1.0
  H  H1336  1  0.515400  0.557800  0.204800  1.0
  H  H1337  1  0.015400  0.222000  0.704800  1.0
  H  H1338  1  0.057800  0.015400  0.704800  1.0
  H  H1339  1  0.222000  0.057800  0.704800  1.0
  H  H1340  1  0.442200  0.278000  0.795200  1.0
  H  H1341  1  0.278000  0.484600  0.795200  1.0
  H  H1342  1  0.484600  0.442200  0.795200  1.0
  H  H1343  1  0.021800  0.778700  0.316500  1.0
  H  H1344  1  0.883000  0.021800  0.316500  1.0
  H  H1345  1  0.778700  0.883000  0.316500  1.0
  H  H1346  1  0.617000  0.721300  0.183500  1.0
  H  H1347  1  0.721300  0.478200  0.183500  1.0
  H  H1348  1  0.478200  0.617000  0.183500  1.0
  H  H1349  1  0.978200  0.221300  0.683500  1.0
  H  H1350  1  0.117000  0.978200  0.683500  1.0
  H  H1351  1  0.221300  0.117000  0.683500  1.0
  H  H1352  1  0.383000  0.278700  0.816500  1.0
  H  H1353  1  0.278700  0.521800  0.816500  1.0
  H  H1354  1  0.521800  0.383000  0.816500  1.0
  H  H1355  1  0.941900  0.868900  0.310200  1.0
  H  H1356  1  0.879000  0.941900  0.310200  1.0
  H  H1357  1  0.868900  0.879000  0.310200  1.0
  H  H1358  1  0.621000  0.631100  0.189800  1.0
  H  H1359  1  0.631100  0.558100  0.189800  1.0
  H  H1360  1  0.558100  0.621000  0.189800  1.0
  H  H1361  1  0.058100  0.131100  0.689800  1.0
  H  H1362  1  0.121000  0.058100  0.689800  1.0
  H  H1363  1  0.131100  0.121000  0.689800  1.0
  H  H1364  1  0.379000  0.368900  0.810200  1.0
  H  H1365  1  0.368900  0.441900  0.810200  1.0
  H  H1366  1  0.441900  0.379000  0.810200  1.0
  H  H1367  1  0.134500  0.758400  0.264600  1.0
  H  H1368  1  0.842500  0.134500  0.264600  1.0
  H  H1369  1  0.758400  0.842500  0.264600  1.0
  H  H1370  1  0.657500  0.741600  0.235400  1.0
  H  H1371  1  0.741600  0.365500  0.235400  1.0
  H  H1372  1  0.365500  0.657500  0.235400  1.0
  H  H1373  1  0.865500  0.241600  0.735400  1.0
  H  H1374  1  0.157500  0.865500  0.735400  1.0
  H  H1375  1  0.241600  0.157500  0.735400  1.0
  H  H1376  1  0.342500  0.258400  0.764600  1.0
  H  H1377  1  0.258400  0.634500  0.764600  1.0
  H  H1378  1  0.634500  0.342500  0.764600  1.0
  H  H1379  1  0.171800  0.790900  0.244800  1.0
  H  H1380  1  0.792500  0.171800  0.244800  1.0
  H  H1381  1  0.790900  0.792500  0.244800  1.0
  H  H1382  1  0.707500  0.709100  0.255200  1.0
  H  H1383  1  0.709100  0.328200  0.255200  1.0
  H  H1384  1  0.328200  0.707500  0.255200  1.0
  H  H1385  1  0.828200  0.209100  0.755200  1.0
  H  H1386  1  0.207500  0.828200  0.755200  1.0
  H  H1387  1  0.209100  0.207500  0.755200  1.0
  H  H1388  1  0.292500  0.290900  0.744800  1.0
  H  H1389  1  0.290900  0.671800  0.744800  1.0
  H  H1390  1  0.671800  0.292500  0.744800  1.0
  H  H1391  1  0.218400  0.730000  0.291000  1.0
  H  H1392  1  0.760600  0.218400  0.291000  1.0
  H  H1393  1  0.730000  0.760600  0.291000  1.0
  H  H1394  1  0.739400  0.770000  0.209000  1.0
  H  H1395  1  0.770000  0.281600  0.209000  1.0
  H  H1396  1  0.281600  0.739400  0.209000  1.0
  H  H1397  1  0.781600  0.270000  0.709000  1.0
  H  H1398  1  0.239400  0.781600  0.709000  1.0
  H  H1399  1  0.270000  0.239400  0.709000  1.0
  H  H1400  1  0.260600  0.230000  0.791000  1.0
  H  H1401  1  0.230000  0.718400  0.791000  1.0
  H  H1402  1  0.718400  0.260600  0.791000  1.0
  H  H1403  1  0.258700  0.743600  0.406500  1.0
  H  H1404  1  0.591200  0.258700  0.406500  1.0
  H  H1405  1  0.743600  0.591200  0.406500  1.0
  H  H1406  1  0.908800  0.756400  0.093500  1.0
  H  H1407  1  0.756400  0.241300  0.093500  1.0
  H  H1408  1  0.241300  0.908800  0.093500  1.0
  H  H1409  1  0.741300  0.256400  0.593500  1.0
  H  H1410  1  0.408800  0.741300  0.593500  1.0
  H  H1411  1  0.256400  0.408800  0.593500  1.0
  H  H1412  1  0.091200  0.243600  0.906500  1.0
  H  H1413  1  0.243600  0.758700  0.906500  1.0
  H  H1414  1  0.758700  0.091200  0.906500  1.0
  H  H1415  1  0.338800  0.696800  0.365100  1.0
  H  H1416  1  0.599300  0.338800  0.365100  1.0
  H  H1417  1  0.696800  0.599300  0.365100  1.0
  H  H1418  1  0.900700  0.803200  0.134900  1.0
  H  H1419  1  0.803200  0.161200  0.134900  1.0
  H  H1420  1  0.161200  0.900700  0.134900  1.0
  H  H1421  1  0.661200  0.303200  0.634900  1.0
  H  H1422  1  0.400700  0.661200  0.634900  1.0
  H  H1423  1  0.303200  0.400700  0.634900  1.0
  H  H1424  1  0.099300  0.196800  0.865100  1.0
  H  H1425  1  0.196800  0.838800  0.865100  1.0
  H  H1426  1  0.838800  0.099300  0.865100  1.0
  H  H1427  1  0.341600  0.636100  0.339000  1.0
  H  H1428  1  0.683300  0.341600  0.339000  1.0
  H  H1429  1  0.636100  0.683300  0.339000  1.0
  H  H1430  1  0.816700  0.863900  0.161000  1.0
  H  H1431  1  0.863900  0.158400  0.161000  1.0
  H  H1432  1  0.158400  0.816700  0.161000  1.0
  H  H1433  1  0.658400  0.363900  0.661000  1.0
  H  H1434  1  0.316700  0.658400  0.661000  1.0
  H  H1435  1  0.363900  0.316700  0.661000  1.0
  H  H1436  1  0.183300  0.136100  0.839000  1.0
  H  H1437  1  0.136100  0.841600  0.839000  1.0
  H  H1438  1  0.841600  0.183300  0.839000  1.0
  H  H1439  1  0.262600  0.624400  0.353100  1.0
  H  H1440  1  0.759900  0.262600  0.353100  1.0
  H  H1441  1  0.624400  0.759900  0.353100  1.0
  H  H1442  1  0.740100  0.875600  0.146900  1.0
  H  H1443  1  0.875600  0.237400  0.146900  1.0
  H  H1444  1  0.237400  0.740100  0.146900  1.0
  H  H1445  1  0.737400  0.375600  0.646900  1.0
  H  H1446  1  0.240100  0.737400  0.646900  1.0
  H  H1447  1  0.375600  0.240100  0.646900  1.0
  H  H1448  1  0.259900  0.124400  0.853100  1.0
  H  H1449  1  0.124400  0.762600  0.853100  1.0
  H  H1450  1  0.762600  0.259900  0.853100  1.0
  H  H1451  1  0.160700  0.652800  0.387300  1.0
  H  H1452  1  0.799200  0.160700  0.387300  1.0
  H  H1453  1  0.652800  0.799200  0.387300  1.0
  H  H1454  1  0.700800  0.847200  0.112700  1.0
  H  H1455  1  0.847200  0.339300  0.112700  1.0
  H  H1456  1  0.339300  0.700800  0.112700  1.0
  H  H1457  1  0.839300  0.347200  0.612700  1.0
  H  H1458  1  0.200800  0.839300  0.612700  1.0
  H  H1459  1  0.347200  0.200800  0.612700  1.0
  H  H1460  1  0.299200  0.152800  0.887300  1.0
  H  H1461  1  0.152800  0.660700  0.887300  1.0
  H  H1462  1  0.660700  0.299200  0.887300  1.0
  H  H1463  1  0.069600  0.664600  0.483000  1.0
  H  H1464  1  0.782800  0.069600  0.483000  1.0
  H  H1465  1  0.664600  0.782800  0.483000  1.0
  H  H1466  1  0.717200  0.835400  0.017000  1.0
  H  H1467  1  0.835400  0.430400  0.017000  1.0
  H  H1468  1  0.430400  0.717200  0.017000  1.0
  H  H1469  1  0.930400  0.335400  0.517000  1.0
  H  H1470  1  0.217200  0.930400  0.517000  1.0
  H  H1471  1  0.335400  0.217200  0.517000  1.0
  H  H1472  1  0.282800  0.164600  0.983000  1.0
  H  H1473  1  0.164600  0.569600  0.983000  1.0
  H  H1474  1  0.569600  0.282800  0.983000  1.0
  H  H1475  1  0.978700  0.740900  0.384900  1.0
  H  H1476  1  0.895500  0.978700  0.384900  1.0
  H  H1477  1  0.740900  0.895500  0.384900  1.0
  H  H1478  1  0.604500  0.759100  0.115100  1.0
  H  H1479  1  0.759100  0.521300  0.115100  1.0
  H  H1480  1  0.521300  0.604500  0.115100  1.0
  H  H1481  1  0.021300  0.259100  0.615100  1.0
  H  H1482  1  0.104500  0.021300  0.615100  1.0
  H  H1483  1  0.259100  0.104500  0.615100  1.0
  H  H1484  1  0.395500  0.240900  0.884900  1.0
  H  H1485  1  0.240900  0.478700  0.884900  1.0
  H  H1486  1  0.478700  0.395500  0.884900  1.0
  H  H1487  1  0.060900  0.744600  0.371400  1.0
  H  H1488  1  0.823100  0.060900  0.371400  1.0
  H  H1489  1  0.744600  0.823100  0.371400  1.0
  H  H1490  1  0.676900  0.755400  0.128600  1.0
  H  H1491  1  0.755400  0.439100  0.128600  1.0
  H  H1492  1  0.439100  0.676900  0.128600  1.0
  H  H1493  1  0.939100  0.255400  0.628600  1.0
  H  H1494  1  0.176900  0.939100  0.628600  1.0
  H  H1495  1  0.255400  0.176900  0.628600  1.0
  H  H1496  1  0.323100  0.244600  0.871400  1.0
  H  H1497  1  0.244600  0.560900  0.871400  1.0
  H  H1498  1  0.560900  0.323100  0.871400  1.0
  H  H1499  1  0.874700  0.771400  0.449700  1.0
  H  H1500  1  0.904200  0.874700  0.449700  1.0
  H  H1501  1  0.771400  0.904200  0.449700  1.0
  H  H1502  1  0.595800  0.728600  0.050300  1.0
  H  H1503  1  0.728600  0.625300  0.050300  1.0
  H  H1504  1  0.625300  0.595800  0.050300  1.0
  H  H1505  1  0.125300  0.228600  0.550300  1.0
  H  H1506  1  0.095800  0.125300  0.550300  1.0
  H  H1507  1  0.228600  0.095800  0.550300  1.0
  H  H1508  1  0.404200  0.271400  0.949700  1.0
  H  H1509  1  0.271400  0.374700  0.949700  1.0
  H  H1510  1  0.374700  0.404200  0.949700  1.0
  H  H1511  1  0.878200  0.608100  0.459300  1.0
  H  H1512  1  0.054400  0.878200  0.459300  1.0
  H  H1513  1  0.608100  0.054400  0.459300  1.0
  H  H1514  1  0.445600  0.891900  0.040700  1.0
  H  H1515  1  0.891900  0.621800  0.040700  1.0
  H  H1516  1  0.621800  0.445600  0.040700  1.0
  H  H1517  1  0.121800  0.391900  0.540700  1.0
  H  H1518  1  0.945600  0.121800  0.540700  1.0
  H  H1519  1  0.391900  0.945600  0.540700  1.0
  H  H1520  1  0.554400  0.108100  0.959300  1.0
  H  H1521  1  0.108100  0.378200  0.959300  1.0
  H  H1522  1  0.378200  0.554400  0.959300  1.0
  H  H1523  1  0.793500  0.764300  0.463200  1.0
  H  H1524  1  0.979000  0.793500  0.463200  1.0
  H  H1525  1  0.764300  0.979000  0.463200  1.0
  H  H1526  1  0.521000  0.735700  0.036800  1.0
  H  H1527  1  0.735700  0.706500  0.036800  1.0
  H  H1528  1  0.706500  0.521000  0.036800  1.0
  H  H1529  1  0.206500  0.235700  0.536800  1.0
  H  H1530  1  0.021000  0.206500  0.536800  1.0
  H  H1531  1  0.235700  0.021000  0.536800  1.0
  H  H1532  1  0.479000  0.264300  0.963200  1.0
  H  H1533  1  0.264300  0.293500  0.963200  1.0
  H  H1534  1  0.293500  0.479000  0.963200  1.0
  H  H1535  1  0.761300  0.680200  0.525900  1.0
  H  H1536  1  0.032600  0.761300  0.525900  1.0
  H  H1537  1  0.680200  0.032600  0.525900  1.0
  H  H1538  1  0.467400  0.819800  0.974100  1.0
  H  H1539  1  0.819800  0.738700  0.974100  1.0
  H  H1540  1  0.738700  0.467400  0.974100  1.0
  H  H1541  1  0.238700  0.319800  0.474100  1.0
  H  H1542  1  0.967400  0.238700  0.474100  1.0
  H  H1543  1  0.319800  0.967400  0.474100  1.0
  H  H1544  1  0.532600  0.180200  0.025900  1.0
  H  H1545  1  0.180200  0.261300  0.025900  1.0
  H  H1546  1  0.261300  0.532600  0.025900  1.0
  H  H1547  1  0.638200  0.664900  0.468000  1.0
  H  H1548  1  0.228900  0.638200  0.468000  1.0
  H  H1549  1  0.664900  0.228900  0.468000  1.0
  H  H1550  1  0.271100  0.835100  0.032000  1.0
  H  H1551  1  0.835100  0.861800  0.032000  1.0
  H  H1552  1  0.861800  0.271100  0.032000  1.0
  H  H1553  1  0.361800  0.335100  0.532000  1.0
  H  H1554  1  0.771100  0.361800  0.532000  1.0
  H  H1555  1  0.335100  0.771100  0.532000  1.0
  H  H1556  1  0.728900  0.164900  0.968000  1.0
  H  H1557  1  0.164900  0.138200  0.968000  1.0
  H  H1558  1  0.138200  0.728900  0.968000  1.0
  H  H1559  1  0.575500  0.665400  0.526200  1.0
  H  H1560  1  0.232900  0.575500  0.526200  1.0
  H  H1561  1  0.665400  0.232900  0.526200  1.0
  H  H1562  1  0.267100  0.834600  0.973800  1.0
  H  H1563  1  0.834600  0.924500  0.973800  1.0
  H  H1564  1  0.924500  0.267100  0.973800  1.0
  H  H1565  1  0.424500  0.334600  0.473800  1.0
  H  H1566  1  0.767100  0.424500  0.473800  1.0
  H  H1567  1  0.334600  0.767100  0.473800  1.0
  H  H1568  1  0.732900  0.165400  0.026200  1.0
  H  H1569  1  0.165400  0.075500  0.026200  1.0
  H  H1570  1  0.075500  0.732900  0.026200  1.0
  H  H1571  1  0.591300  0.668600  0.580200  1.0
  H  H1572  1  0.159900  0.591300  0.580200  1.0
  H  H1573  1  0.668600  0.159900  0.580200  1.0
  H  H1574  1  0.340100  0.831400  0.919800  1.0
  H  H1575  1  0.831400  0.908700  0.919800  1.0
  H  H1576  1  0.908700  0.340100  0.919800  1.0
  H  H1577  1  0.408700  0.331400  0.419800  1.0
  H  H1578  1  0.840100  0.408700  0.419800  1.0
  H  H1579  1  0.331400  0.840100  0.419800  1.0
  H  H1580  1  0.659900  0.168600  0.080200  1.0
  H  H1581  1  0.168600  0.091300  0.080200  1.0
  H  H1582  1  0.091300  0.659900  0.080200  1.0
  H  H1583  1  0.670800  0.674600  0.572700  1.0
  H  H1584  1  0.081900  0.670800  0.572700  1.0
  H  H1585  1  0.674600  0.081900  0.572700  1.0
  H  H1586  1  0.418100  0.825400  0.927300  1.0
  H  H1587  1  0.825400  0.829200  0.927300  1.0
  H  H1588  1  0.829200  0.418100  0.927300  1.0
  H  H1589  1  0.329200  0.325400  0.427300  1.0
  H  H1590  1  0.918100  0.329200  0.427300  1.0
  H  H1591  1  0.325400  0.918100  0.427300  1.0
  H  H1592  1  0.581900  0.174600  0.072700  1.0
  H  H1593  1  0.174600  0.170800  0.072700  1.0
  H  H1594  1  0.170800  0.581900  0.072700  1.0
  H  H1595  1  0.945500  0.670600  0.522000  1.0
  H  H1596  1  0.861900  0.945500  0.522000  1.0
  H  H1597  1  0.670600  0.861900  0.522000  1.0
  H  H1598  1  0.638100  0.829400  0.978000  1.0
  H  H1599  1  0.829400  0.554500  0.978000  1.0
  H  H1600  1  0.554500  0.638100  0.978000  1.0
  H  H1601  1  0.054500  0.329400  0.478000  1.0
  H  H1602  1  0.138100  0.054500  0.478000  1.0
  H  H1603  1  0.329400  0.138100  0.478000  1.0
  H  H1604  1  0.361900  0.170600  0.022000  1.0
  H  H1605  1  0.170600  0.445500  0.022000  1.0
  H  H1606  1  0.445500  0.361900  0.022000  1.0
  H  H1607  1  0.981200  0.614900  0.508500  1.0
  H  H1608  1  0.895400  0.981200  0.508500  1.0
  H  H1609  1  0.614900  0.895400  0.508500  1.0
  H  H1610  1  0.604600  0.885100  0.991500  1.0
  H  H1611  1  0.885100  0.518800  0.991500  1.0
  H  H1612  1  0.518800  0.604600  0.991500  1.0
  H  H1613  1  0.018800  0.385100  0.491500  1.0
  H  H1614  1  0.104600  0.018800  0.491500  1.0
  H  H1615  1  0.385100  0.104600  0.491500  1.0
  H  H1616  1  0.395400  0.114900  0.008500  1.0
  H  H1617  1  0.114900  0.481200  0.008500  1.0
  H  H1618  1  0.481200  0.395400  0.008500  1.0
  H  H1619  1  0.000400  0.615200  0.559800  1.0
  H  H1620  1  0.824600  0.000400  0.559800  1.0
  H  H1621  1  0.615200  0.824600  0.559800  1.0
  H  H1622  1  0.675400  0.884800  0.940200  1.0
  H  H1623  1  0.884800  0.499600  0.940200  1.0
  H  H1624  1  0.499600  0.675400  0.940200  1.0
  H  H1625  1  0.999600  0.384800  0.440200  1.0
  H  H1626  1  0.175400  0.999600  0.440200  1.0
  H  H1627  1  0.384800  0.175400  0.440200  1.0
  H  H1628  1  0.324600  0.115200  0.059800  1.0
  H  H1629  1  0.115200  0.500400  0.059800  1.0
  H  H1630  1  0.500400  0.324600  0.059800  1.0
  H  H1631  1  0.997700  0.612700  0.414000  1.0
  H  H1632  1  0.975600  0.997700  0.414000  1.0
  H  H1633  1  0.612700  0.975600  0.414000  1.0
  H  H1634  1  0.524400  0.887300  0.086000  1.0
  H  H1635  1  0.887300  0.502300  0.086000  1.0
  H  H1636  1  0.502300  0.524400  0.086000  1.0
  H  H1637  1  0.002300  0.387300  0.586000  1.0
  H  H1638  1  0.024400  0.002300  0.586000  1.0
  H  H1639  1  0.387300  0.024400  0.586000  1.0
  H  H1640  1  0.475600  0.112700  0.914000  1.0
  H  H1641  1  0.112700  0.497700  0.914000  1.0
  H  H1642  1  0.497700  0.475600  0.914000  1.0
  H  H1643  1  0.999200  0.590300  0.459000  1.0
  H  H1644  1  0.951500  0.999200  0.459000  1.0
  H  H1645  1  0.590300  0.951500  0.459000  1.0
  H  H1646  1  0.548500  0.909700  0.041000  1.0
  H  H1647  1  0.909700  0.500800  0.041000  1.0
  H  H1648  1  0.500800  0.548500  0.041000  1.0
  H  H1649  1  0.000800  0.409700  0.541000  1.0
  H  H1650  1  0.048500  0.000800  0.541000  1.0
  H  H1651  1  0.409700  0.048500  0.541000  1.0
  H  H1652  1  0.451500  0.090300  0.959000  1.0
  H  H1653  1  0.090300  0.499200  0.959000  1.0
  H  H1654  1  0.499200  0.451500  0.959000  1.0
  H  H1655  1  0.008100  0.528800  0.438300  1.0
  H  H1656  1  0.024800  0.008100  0.438300  1.0
  H  H1657  1  0.528800  0.024800  0.438300  1.0
  H  H1658  1  0.475200  0.971200  0.061700  1.0
  H  H1659  1  0.971200  0.491900  0.061700  1.0
  H  H1660  1  0.491900  0.475200  0.061700  1.0
  H  H1661  1  0.991900  0.471200  0.561700  1.0
  H  H1662  1  0.975200  0.991900  0.561700  1.0
  H  H1663  1  0.471200  0.975200  0.561700  1.0
  H  H1664  1  0.524800  0.028800  0.938300  1.0
  H  H1665  1  0.028800  0.508100  0.938300  1.0
  H  H1666  1  0.508100  0.524800  0.938300  1.0
  N  N1667  1  0.184640  0.644440  0.133380  1
  N  N1668  1  0.037540  0.184640  0.133380  1
  N  N1669  1  0.644440  0.037540  0.133380  1
  N  N1670  1  0.462460  0.855560  0.366620  1
  N  N1671  1  0.855560  0.315360  0.366620  1
  N  N1672  1  0.315360  0.462460  0.366620  1
  N  N1673  1  0.815360  0.355560  0.866620  1
  N  N1674  1  0.962460  0.815360  0.866620  1
  N  N1675  1  0.355560  0.962460  0.866620  1
  N  N1676  1  0.537540  0.144440  0.633380  1
  N  N1677  1  0.144440  0.684640  0.633380  1
  N  N1678  1  0.684640  0.537540  0.633380  1
  N  N1679  1  0.355300  0.879700  0.205500  1
  N  N1680  1  0.559500  0.355300  0.205500  1
  N  N1681  1  0.879700  0.559500  0.205500  1
  N  N1682  1  0.940500  0.620300  0.294500  1
  N  N1683  1  0.620300  0.144700  0.294500  1
  N  N1684  1  0.144700  0.940500  0.294500  1
  N  N1685  1  0.644700  0.120300  0.794500  1
  N  N1686  1  0.440500  0.644700  0.794500  1
  N  N1687  1  0.120300  0.440500  0.794500  1
  N  N1688  1  0.059500  0.379700  0.705500  1
  N  N1689  1  0.379700  0.855300  0.705500  1
  N  N1690  1  0.855300  0.059500  0.705500  1
  N  N1691  1  0.969190  0.908780  0.100080  1.0
  N  N1692  1  0.021950  0.969190  0.100080  1.0
  N  N1693  1  0.908780  0.021950  0.100080  1.0
  N  N1694  1  0.478050  0.591220  0.399920  1.0
  N  N1695  1  0.591220  0.530810  0.399920  1.0
  N  N1696  1  0.530810  0.478050  0.399920  1.0
  N  N1697  1  0.030810  0.091220  0.899920  1.0
  N  N1698  1  0.978050  0.030810  0.899920  1.0
  N  N1699  1  0.091220  0.978050  0.899920  1.0
  N  N1700  1  0.521950  0.408780  0.600080  1.0
  N  N1701  1  0.408780  0.469190  0.600080  1.0
  N  N1702  1  0.469190  0.521950  0.600080  1.0
  N  N1703  1  0.001570  0.886420  0.160470  1.0
  N  N1704  1  0.951540  0.001570  0.160470  1.0
  N  N1705  1  0.886420  0.951540  0.160470  1.0
  N  N1706  1  0.548460  0.613580  0.339530  1.0
  N  N1707  1  0.613580  0.498430  0.339530  1.0
  N  N1708  1  0.498430  0.548460  0.339530  1.0
  N  N1709  1  0.998430  0.113580  0.839530  1.0
  N  N1710  1  0.048460  0.998430  0.839530  1.0
  N  N1711  1  0.113580  0.048460  0.839530  1.0
  N  N1712  1  0.451540  0.386420  0.660470  1.0
  N  N1713  1  0.386420  0.501570  0.660470  1.0
  N  N1714  1  0.501570  0.451540  0.660470  1.0
  N  N1715  1  0.129060  0.812740  0.391470  1.0
  N  N1716  1  0.666730  0.129060  0.391470  1.0
  N  N1717  1  0.812740  0.666730  0.391470  1.0
  N  N1718  1  0.833270  0.687260  0.108530  1.0
  N  N1719  1  0.687260  0.370940  0.108530  1.0
  N  N1720  1  0.370940  0.833270  0.108530  1.0
  N  N1721  1  0.870940  0.187260  0.608530  1.0
  N  N1722  1  0.333270  0.870940  0.608530  1.0
  N  N1723  1  0.187260  0.333270  0.608530  1.0
  N  N1724  1  0.166730  0.312740  0.891470  1.0
  N  N1725  1  0.312740  0.629060  0.891470  1.0
  N  N1726  1  0.629060  0.166730  0.891470  1.0
  N  N1727  1  0.165480  0.791650  0.449550  1.0
  N  N1728  1  0.593320  0.165480  0.449550  1.0
  N  N1729  1  0.791650  0.593320  0.449550  1.0
  N  N1730  1  0.906680  0.708350  0.050450  1.0
  N  N1731  1  0.708350  0.334520  0.050450  1.0
  N  N1732  1  0.334520  0.906680  0.050450  1.0
  N  N1733  1  0.834520  0.208350  0.550450  1.0
  N  N1734  1  0.406680  0.834520  0.550450  1.0
  N  N1735  1  0.208350  0.406680  0.550450  1.0
  N  N1736  1  0.093320  0.291650  0.949550  1.0
  N  N1737  1  0.291650  0.665480  0.949550  1.0
  N  N1738  1  0.665480  0.093320  0.949550  1.0
  N  N1739  1  0.214550  0.712650  0.403470  1.0
  N  N1740  1  0.669330  0.214550  0.403470  1.0
  N  N1741  1  0.712650  0.669330  0.403470  1.0
  N  N1742  1  0.830670  0.787350  0.096530  1.0
  N  N1743  1  0.787350  0.285450  0.096530  1.0
  N  N1744  1  0.285450  0.830670  0.096530  1.0
  N  N1745  1  0.785450  0.287350  0.596530  1.0
  N  N1746  1  0.330670  0.785450  0.596530  1.0
  N  N1747  1  0.287350  0.330670  0.596530  1.0
  N  N1748  1  0.169330  0.212650  0.903470  1.0
  N  N1749  1  0.212650  0.714550  0.903470  1.0
  N  N1750  1  0.714550  0.169330  0.903470  1.0
  N  N1751  1  0.124440  0.707350  0.417840  1.0
  N  N1752  1  0.750370  0.124440  0.417840  1.0
  N  N1753  1  0.707350  0.750370  0.417840  1.0
  N  N1754  1  0.749630  0.792650  0.082160  1.0
  N  N1755  1  0.792650  0.375560  0.082160  1.0
  N  N1756  1  0.375560  0.749630  0.082160  1.0
  N  N1757  1  0.875560  0.292650  0.582160  1.0
  N  N1758  1  0.249630  0.875560  0.582160  1.0
  N  N1759  1  0.292650  0.249630  0.582160  1.0
  N  N1760  1  0.250370  0.207350  0.917840  1.0
  N  N1761  1  0.207350  0.624440  0.917840  1.0
  N  N1762  1  0.624440  0.250370  0.917840  1.0
  N  N1763  1  0.778140  0.680200  0.471420  1.0
  N  N1764  1  0.070240  0.778140  0.471420  1.0
  N  N1765  1  0.680200  0.070240  0.471420  1.0
  N  N1766  1  0.429760  0.819800  0.028580  1.0
  N  N1767  1  0.819800  0.721860  0.028580  1.0
  N  N1768  1  0.721860  0.429760  0.028580  1.0
  N  N1769  1  0.221860  0.319800  0.528580  1.0
  N  N1770  1  0.929760  0.221860  0.528580  1.0
  N  N1771  1  0.319800  0.929760  0.528580  1.0
  N  N1772  1  0.570240  0.180200  0.971420  1.0
  N  N1773  1  0.180200  0.278140  0.971420  1.0
  N  N1774  1  0.278140  0.570240  0.971420  1.0
  N  N1775  1  0.691260  0.670780  0.483960  1.0
  N  N1776  1  0.154000  0.691260  0.483960  1.0
  N  N1777  1  0.670780  0.154000  0.483960  1.0
  N  N1778  1  0.346000  0.829220  0.016040  1.0
  N  N1779  1  0.829220  0.808740  0.016040  1.0
  N  N1780  1  0.808740  0.346000  0.016040  1.0
  N  N1781  1  0.308740  0.329220  0.516040  1.0
  N  N1782  1  0.846000  0.308740  0.516040  1.0
  N  N1783  1  0.329220  0.846000  0.516040  1.0
  N  N1784  1  0.654000  0.170780  0.983960  1.0
  N  N1785  1  0.170780  0.191260  0.983960  1.0
  N  N1786  1  0.191260  0.654000  0.983960  1.0
  O  O1787  1  0.092990  0.960590  0.192930  1
  O  O1788  1  0.753490  0.092990  0.192930  1
  O  O1789  1  0.960590  0.753490  0.192930  1
  O  O1790  1  0.746510  0.539410  0.307070  1
  O  O1791  1  0.539410  0.407010  0.307070  1
  O  O1792  1  0.407010  0.746510  0.307070  1
  O  O1793  1  0.907010  0.039410  0.807070  1
  O  O1794  1  0.246510  0.907010  0.807070  1
  O  O1795  1  0.039410  0.246510  0.807070  1
  O  O1796  1  0.253490  0.460590  0.692930  1
  O  O1797  1  0.460590  0.592990  0.692930  1
  O  O1798  1  0.592990  0.253490  0.692930  1
  O  O1799  1  0.213800  0.738000  0.274200  1
  O  O1800  1  0.774000  0.213800  0.274200  1
  O  O1801  1  0.738000  0.774000  0.274200  1
  O  O1802  1  0.726000  0.762000  0.225800  1
  O  O1803  1  0.762000  0.286200  0.225800  1
  O  O1804  1  0.286200  0.726000  0.225800  1
  O  O1805  1  0.786200  0.262000  0.725800  1
  O  O1806  1  0.226000  0.786200  0.725800  1
  O  O1807  1  0.262000  0.226000  0.725800  1
  O  O1808  1  0.274000  0.238000  0.774200  1
  O  O1809  1  0.238000  0.713800  0.774200  1
  O  O1810  1  0.713800  0.274000  0.774200  1
  O  O1811  1  0.934410  0.794910  0.368370  1
  O  O1812  1  0.902310  0.934410  0.368370  1
  O  O1813  1  0.794910  0.902310  0.368370  1
  O  O1814  1  0.597690  0.705090  0.131630  1
  O  O1815  1  0.705090  0.565590  0.131630  1
  O  O1816  1  0.565590  0.597690  0.131630  1
  O  O1817  1  0.065590  0.205090  0.631630  1
  O  O1818  1  0.097690  0.065590  0.631630  1
  O  O1819  1  0.205090  0.097690  0.631630  1
  O  O1820  1  0.402310  0.294910  0.868370  1
  O  O1821  1  0.294910  0.434410  0.868370  1
  O  O1822  1  0.434410  0.402310  0.868370  1
  O  O1823  1  0.973100  0.570200  0.411300  1
  O  O1824  1  0.045400  0.973100  0.411300  1
  O  O1825  1  0.570200  0.045400  0.411300  1
  O  O1826  1  0.454600  0.929800  0.088700  1
  O  O1827  1  0.929800  0.526900  0.088700  1
  O  O1828  1  0.526900  0.454600  0.088700  1
  O  O1829  1  0.026900  0.429800  0.588700  1
  O  O1830  1  0.954600  0.026900  0.588700  1
  O  O1831  1  0.429800  0.954600  0.588700  1
  O  O1832  1  0.545400  0.070200  0.911300  1
  O  O1833  1  0.070200  0.473100  0.911300  1
  O  O1834  1  0.473100  0.545400  0.911300  1
  O  O1835  1  0.869220  0.818120  0.400740  1
  O  O1836  1  0.911920  0.869220  0.400740  1
  O  O1837  1  0.818120  0.911920  0.400740  1
  O  O1838  1  0.588080  0.681880  0.099260  1
  O  O1839  1  0.681880  0.630780  0.099260  1
  O  O1840  1  0.630780  0.588080  0.099260  1
  O  O1841  1  0.130780  0.181880  0.599260  1
  O  O1842  1  0.088080  0.130780  0.599260  1
  O  O1843  1  0.181880  0.088080  0.599260  1
  O  O1844  1  0.411920  0.318120  0.900740  1
  O  O1845  1  0.318120  0.369220  0.900740  1
  O  O1846  1  0.369220  0.411920  0.900740  1
  O  O1847  1  0.947130  0.837630  0.322710  1.0
  O  O1848  1  0.892530  0.947130  0.322710  1.0
  O  O1849  1  0.837630  0.892530  0.322710  1.0
  O  O1850  1  0.607470  0.662370  0.177290  1.0
  O  O1851  1  0.662370  0.552870  0.177290  1.0
  O  O1852  1  0.552870  0.607470  0.177290  1.0
  O  O1853  1  0.052870  0.162370  0.677290  1.0
  O  O1854  1  0.107470  0.052870  0.677290  1.0
  O  O1855  1  0.162370  0.107470  0.677290  1.0
  O  O1856  1  0.392530  0.337630  0.822710  1.0
  O  O1857  1  0.337630  0.447130  0.822710  1.0
  O  O1858  1  0.447130  0.392530  0.822710  1.0
  O  O1859  1  0.201970  0.721970  0.282090  1.0
  O  O1860  1  0.793970  0.201970  0.282090  1.0
  O  O1861  1  0.721970  0.793970  0.282090  1.0
  O  O1862  1  0.706030  0.778030  0.217910  1.0
  O  O1863  1  0.778030  0.298030  0.217910  1.0
  O  O1864  1  0.298030  0.706030  0.217910  1.0
  O  O1865  1  0.798030  0.278030  0.717910  1.0
  O  O1866  1  0.206030  0.798030  0.717910  1.0
  O  O1867  1  0.278030  0.206030  0.717910  1.0
  O  O1868  1  0.293970  0.221970  0.782090  1.0
  O  O1869  1  0.221970  0.701970  0.782090  1.0
  O  O1870  1  0.701970  0.293970  0.782090  1.0
  O  O1871  1  0.015570  0.628070  0.537090  1.0
  O  O1872  1  0.819270  0.015570  0.537090  1.0
  O  O1873  1  0.628070  0.819270  0.537090  1.0
  O  O1874  1  0.680730  0.871930  0.962910  1.0
  O  O1875  1  0.871930  0.484430  0.962910  1.0
  O  O1876  1  0.484430  0.680730  0.962910  1.0
  O  O1877  1  0.984430  0.371930  0.462910  1.0
  O  O1878  1  0.180730  0.984430  0.462910  1.0
  O  O1879  1  0.371930  0.180730  0.462910  1.0
  O  O1880  1  0.319270  0.128070  0.037090  1.0
  O  O1881  1  0.128070  0.515570  0.037090  1.0
  O  O1882  1  0.515570  0.319270  0.037090  1.0
  O  O1883  1  0.976500  0.553300  0.441300  1.0
  O  O1884  1  0.028900  0.976500  0.441300  1.0
  O  O1885  1  0.553300  0.028900  0.441300  1.0
  O  O1886  1  0.471100  0.946700  0.058700  1.0
  O  O1887  1  0.946700  0.523500  0.058700  1.0
  O  O1888  1  0.523500  0.471100  0.058700  1.0
  O  O1889  1  0.023500  0.446700  0.558700  1.0
  O  O1890  1  0.971100  0.023500  0.558700  1.0
  O  O1891  1  0.446700  0.971100  0.558700  1.0
  O  O1892  1  0.528900  0.053300  0.941300  1.0
  O  O1893  1  0.053300  0.476500  0.941300  1.0
  O  O1894  1  0.476500  0.528900  0.941300  1.0
  P  P1895  1  0.175980  0.994490  0.158700  1
  P  P1896  1  0.670830  0.175980  0.158700  1
  P  P1897  1  0.994490  0.670830  0.158700  1
  P  P1898  1  0.829170  0.505510  0.341300  1
  P  P1899  1  0.505510  0.324020  0.341300  1
  P  P1900  1  0.324020  0.829170  0.341300  1
  P  P1901  1  0.824020  0.005510  0.841300  1
  P  P1902  1  0.329170  0.824020  0.841300  1
  P  P1903  1  0.005510  0.329170  0.841300  1
  P  P1904  1  0.170830  0.494490  0.658700  1
  P  P1905  1  0.494490  0.675980  0.658700  1
  P  P1906  1  0.675980  0.170830  0.658700  1
  P  P1907  1  0.167240  0.791620  0.053460  1
  P  P1908  1  0.987680  0.167240  0.053460  1
  P  P1909  1  0.791620  0.987680  0.053460  1
  P  P1910  1  0.512320  0.708380  0.446540  1
  P  P1911  1  0.708380  0.332760  0.446540  1
  P  P1912  1  0.332760  0.512320  0.446540  1
  P  P1913  1  0.832760  0.208380  0.946540  1
  P  P1914  1  0.012320  0.832760  0.946540  1
  P  P1915  1  0.208380  0.012320  0.946540  1
  P  P1916  1  0.487680  0.291620  0.553460  1
  P  P1917  1  0.291620  0.667240  0.553460  1
  P  P1918  1  0.667240  0.487680  0.553460  1
