# generated using pymatgen
data_Fe32P52.4H2028C1960.0N300O96F314.4
_symmetry_space_group_name_H-M   'P 1'
_cell_length_a   36.28420000
_cell_length_b   36.37970000
_cell_length_c   49.00160000
_cell_angle_alpha   90.00000000
_cell_angle_beta   95.95600000
_cell_angle_gamma   90.00000000
_symmetry_Int_Tables_number   1
_chemical_formula_structural   Fe32P52.4H2028C1960.0N300O96F314.4
_chemical_formula_sum   'Fe32 P52.4 H2028 C1960.0 N300 O96 F314.4'
_cell_volume   64333.35486385
_cell_formula_units_Z   1
loop_
 _symmetry_equiv_pos_site_id
 _symmetry_equiv_pos_as_xyz
  1  'x, y, z'
loop_
 _atom_site_type_symbol
 _atom_site_label
 _atom_site_symmetry_multiplicity
 _atom_site_fract_x
 _atom_site_fract_y
 _atom_site_fract_z
 _atom_site_occupancy
  Fe  Fe1  1  0.507730  0.034040  0.370160  1.0
  Fe  Fe2  1  0.492270  0.034040  0.129840  1.0
  Fe  Fe3  1  0.007730  0.534040  0.370160  1.0
  Fe  Fe4  1  0.992270  0.534040  0.129840  1.0
  Fe  Fe5  1  0.492270  0.965960  0.629840  1.0
  Fe  Fe6  1  0.507730  0.965960  0.870160  1.0
  Fe  Fe7  1  0.992270  0.465960  0.629840  1.0
  Fe  Fe8  1  0.007730  0.465960  0.870160  1.0
  Fe  Fe9  1  0.338820  0.306590  0.402940  1.0
  Fe  Fe10  1  0.661180  0.306590  0.097060  1.0
  Fe  Fe11  1  0.838820  0.806590  0.402940  1.0
  Fe  Fe12  1  0.161180  0.806590  0.097060  1.0
  Fe  Fe13  1  0.661180  0.693410  0.597060  1.0
  Fe  Fe14  1  0.338820  0.693410  0.902940  1.0
  Fe  Fe15  1  0.161180  0.193410  0.597060  1.0
  Fe  Fe16  1  0.838820  0.193410  0.902940  1.0
  Fe  Fe17  1  0.598840  0.484740  0.350410  1.0
  Fe  Fe18  1  0.401160  0.484740  0.149590  1.0
  Fe  Fe19  1  0.098840  0.984740  0.350410  1.0
  Fe  Fe20  1  0.901160  0.984740  0.149590  1.0
  Fe  Fe21  1  0.401160  0.515260  0.649590  1.0
  Fe  Fe22  1  0.598840  0.515260  0.850410  1.0
  Fe  Fe23  1  0.901160  0.015260  0.649590  1.0
  Fe  Fe24  1  0.098840  0.015260  0.850410  1.0
  Fe  Fe25  1  0.766440  0.213750  0.319910  1.0
  Fe  Fe26  1  0.233560  0.213750  0.180090  1.0
  Fe  Fe27  1  0.266440  0.713750  0.319910  1.0
  Fe  Fe28  1  0.733560  0.713750  0.180090  1.0
  Fe  Fe29  1  0.233560  0.786250  0.680090  1.0
  Fe  Fe30  1  0.766440  0.786250  0.819910  1.0
  Fe  Fe31  1  0.733560  0.286250  0.680090  1.0
  Fe  Fe32  1  0.266440  0.286250  0.819910  1.0
  P  P33  1  0.628800  0.949100  0.465300  0.2
  P  P34  1  0.371200  0.949100  0.034700  0.2
  P  P35  1  0.128800  0.449100  0.465300  0.2
  P  P36  1  0.871200  0.449100  0.034700  0.2
  P  P37  1  0.371200  0.050900  0.534700  0.2
  P  P38  1  0.628800  0.050900  0.965300  0.2
  P  P39  1  0.871200  0.550900  0.534700  0.2
  P  P40  1  0.128800  0.550900  0.965300  0.2
  P  P41  1  0.567600  0.532000  0.474900  0.2
  P  P42  1  0.432400  0.532000  0.025100  0.2
  P  P43  1  0.067600  0.032000  0.474900  0.2
  P  P44  1  0.932400  0.032000  0.025100  0.2
  P  P45  1  0.432400  0.468000  0.525100  0.2
  P  P46  1  0.567600  0.468000  0.974900  0.2
  P  P47  1  0.932400  0.968000  0.525100  0.2
  P  P48  1  0.067600  0.968000  0.974900  0.2
  P  P49  1  0.613300  0.937200  0.467500  0.25
  P  P50  1  0.386700  0.937200  0.032500  0.25
  P  P51  1  0.113300  0.437200  0.467500  0.25
  P  P52  1  0.886700  0.437200  0.032500  0.25
  P  P53  1  0.386700  0.062800  0.532500  0.25
  P  P54  1  0.613300  0.062800  0.967500  0.25
  P  P55  1  0.886700  0.562800  0.532500  0.25
  P  P56  1  0.113300  0.562800  0.967500  0.25
  P  P57  1  0.843000  0.113500  0.231100  0.3
  P  P58  1  0.157000  0.113500  0.268900  0.3
  P  P59  1  0.343000  0.613500  0.231100  0.3
  P  P60  1  0.657000  0.613500  0.268900  0.3
  P  P61  1  0.157000  0.886500  0.768900  0.3
  P  P62  1  0.843000  0.886500  0.731100  0.3
  P  P63  1  0.657000  0.386500  0.768900  0.3
  P  P64  1  0.343000  0.386500  0.731100  0.3
  P  P65  1  0.835300  0.097900  0.238200  0.3
  P  P66  1  0.164700  0.097900  0.261800  0.3
  P  P67  1  0.335300  0.597900  0.238200  0.3
  P  P68  1  0.664700  0.597900  0.261800  0.3
  P  P69  1  0.164700  0.902100  0.761800  0.3
  P  P70  1  0.835300  0.902100  0.738200  0.3
  P  P71  1  0.664700  0.402100  0.761800  0.3
  P  P72  1  0.335300  0.402100  0.738200  0.3
  P  P73  1  0.586800  0.530000  0.475000  0.3
  P  P74  1  0.413200  0.530000  0.025000  0.3
  P  P75  1  0.086800  0.030000  0.475000  0.3
  P  P76  1  0.913200  0.030000  0.025000  0.3
  P  P77  1  0.413200  0.470000  0.525000  0.3
  P  P78  1  0.586800  0.470000  0.975000  0.3
  P  P79  1  0.913200  0.970000  0.525000  0.3
  P  P80  1  0.086800  0.970000  0.975000  0.3
  P  P81  1  0.462100  0.191200  0.409200  0.361
  P  P82  1  0.537900  0.191200  0.090800  0.361
  P  P83  1  0.962100  0.691200  0.409200  0.361
  P  P84  1  0.037900  0.691200  0.090800  0.361
  P  P85  1  0.537900  0.808800  0.590800  0.361
  P  P86  1  0.462100  0.808800  0.909200  0.361
  P  P87  1  0.037900  0.308800  0.590800  0.361
  P  P88  1  0.962100  0.308800  0.909200  0.361
  P  P89  1  0.331100  0.329300  0.131100  0.41
  P  P90  1  0.668900  0.329300  0.368900  0.41
  P  P91  1  0.831100  0.829300  0.131100  0.41
  P  P92  1  0.168900  0.829300  0.368900  0.41
  P  P93  1  0.668900  0.670700  0.868900  0.41
  P  P94  1  0.331100  0.670700  0.631100  0.41
  P  P95  1  0.168900  0.170700  0.868900  0.41
  P  P96  1  0.831100  0.170700  0.631100  0.41
  P  P97  1  0.362300  0.149600  0.114400  0.458
  P  P98  1  0.637700  0.149600  0.385600  0.458
  P  P99  1  0.862300  0.649600  0.114400  0.458
  P  P100  1  0.137700  0.649600  0.385600  0.458
  P  P101  1  0.637700  0.850400  0.885600  0.458
  P  P102  1  0.362300  0.850400  0.614400  0.458
  P  P103  1  0.137700  0.350400  0.885600  0.458
  P  P104  1  0.862300  0.350400  0.614400  0.458
  P  P105  1  0.504200  0.375800  0.407200  0.495
  P  P106  1  0.495800  0.375800  0.092800  0.495
  P  P107  1  0.004200  0.875800  0.407200  0.495
  P  P108  1  0.995800  0.875800  0.092800  0.495
  P  P109  1  0.495800  0.624200  0.592800  0.495
  P  P110  1  0.504200  0.624200  0.907200  0.495
  P  P111  1  0.995800  0.124200  0.592800  0.495
  P  P112  1  0.004200  0.124200  0.907200  0.495
  P  P113  1  0.502300  0.259240  0.250600  0.5
  P  P114  1  0.497700  0.259240  0.249400  0.5
  P  P115  1  0.002300  0.759240  0.250600  0.5
  P  P116  1  0.997700  0.759240  0.249400  0.5
  P  P117  1  0.497700  0.740760  0.749400  0.5
  P  P118  1  0.502300  0.740760  0.750600  0.5
  P  P119  1  0.997700  0.240760  0.749400  0.5
  P  P120  1  0.002300  0.240760  0.750600  0.5
  P  P121  1  0.188400  0.282100  0.476560  0.5
  P  P122  1  0.811600  0.282100  0.023440  0.5
  P  P123  1  0.688400  0.782100  0.476560  0.5
  P  P124  1  0.311600  0.782100  0.023440  0.5
  P  P125  1  0.811600  0.717900  0.523440  0.5
  P  P126  1  0.188400  0.717900  0.976560  0.5
  P  P127  1  0.311600  0.217900  0.523440  0.5
  P  P128  1  0.688400  0.217900  0.976560  0.5
  P  P129  1  0.502200  0.368700  0.406100  0.505
  P  P130  1  0.497800  0.368700  0.093900  0.505
  P  P131  1  0.002200  0.868700  0.406100  0.505
  P  P132  1  0.997800  0.868700  0.093900  0.505
  P  P133  1  0.497800  0.631300  0.593900  0.505
  P  P134  1  0.502200  0.631300  0.906100  0.505
  P  P135  1  0.997800  0.131300  0.593900  0.505
  P  P136  1  0.002200  0.131300  0.906100  0.505
  P  P137  1  0.368200  0.146800  0.122530  0.542
  P  P138  1  0.631800  0.146800  0.377470  0.542
  P  P139  1  0.868200  0.646800  0.122530  0.542
  P  P140  1  0.131800  0.646800  0.377470  0.542
  P  P141  1  0.631800  0.853200  0.877470  0.542
  P  P142  1  0.368200  0.853200  0.622530  0.542
  P  P143  1  0.131800  0.353200  0.877470  0.542
  P  P144  1  0.868200  0.353200  0.622530  0.542
  P  P145  1  0.324200  0.327900  0.137000  0.59
  P  P146  1  0.675800  0.327900  0.363000  0.59
  P  P147  1  0.824200  0.827900  0.137000  0.59
  P  P148  1  0.175800  0.827900  0.363000  0.59
  P  P149  1  0.675800  0.672100  0.863000  0.59
  P  P150  1  0.324200  0.672100  0.637000  0.59
  P  P151  1  0.175800  0.172100  0.863000  0.59
  P  P152  1  0.824200  0.172100  0.637000  0.59
  P  P153  1  0.453780  0.191140  0.408880  0.639
  P  P154  1  0.546220  0.191140  0.091120  0.639
  P  P155  1  0.953780  0.691140  0.408880  0.639
  P  P156  1  0.046220  0.691140  0.091120  0.639
  P  P157  1  0.546220  0.808860  0.591120  0.639
  P  P158  1  0.453780  0.808860  0.908880  0.639
  P  P159  1  0.046220  0.308860  0.591120  0.639
  P  P160  1  0.953780  0.308860  0.908880  0.639
  H  H161  1  0.460481  0.016736  0.428300  1.0
  H  H162  1  0.539519  0.016736  0.071700  1.0
  H  H163  1  0.960481  0.516736  0.428300  1.0
  H  H164  1  0.039519  0.516736  0.071700  1.0
  H  H165  1  0.539519  0.983264  0.571700  1.0
  H  H166  1  0.460481  0.983264  0.928300  1.0
  H  H167  1  0.039519  0.483264  0.571700  1.0
  H  H168  1  0.960481  0.483264  0.928300  1.0
  H  H169  1  0.413615  0.988586  0.450459  1.0
  H  H170  1  0.586385  0.988586  0.049541  1.0
  H  H171  1  0.913615  0.488586  0.450459  1.0
  H  H172  1  0.086385  0.488586  0.049541  1.0
  H  H173  1  0.586385  0.011414  0.549541  1.0
  H  H174  1  0.413615  0.011414  0.950459  1.0
  H  H175  1  0.086385  0.511414  0.549541  1.0
  H  H176  1  0.913615  0.511414  0.950459  1.0
  H  H177  1  0.420447  0.898502  0.403493  1.0
  H  H178  1  0.579553  0.898502  0.096507  1.0
  H  H179  1  0.920447  0.398502  0.403493  1.0
  H  H180  1  0.079553  0.398502  0.096507  1.0
  H  H181  1  0.579553  0.101498  0.596507  1.0
  H  H182  1  0.420447  0.101498  0.903493  1.0
  H  H183  1  0.079553  0.601498  0.596507  1.0
  H  H184  1  0.920447  0.601498  0.903493  1.0
  H  H185  1  0.467933  0.925801  0.381994  1.0
  H  H186  1  0.532067  0.925801  0.118006  1.0
  H  H187  1  0.967933  0.425801  0.381994  1.0
  H  H188  1  0.032067  0.425801  0.118006  1.0
  H  H189  1  0.532067  0.074199  0.618006  1.0
  H  H190  1  0.467933  0.074199  0.881994  1.0
  H  H191  1  0.032067  0.574199  0.618006  1.0
  H  H192  1  0.967933  0.574199  0.881994  1.0
  H  H193  1  0.530214  0.943709  0.401541  1.0
  H  H194  1  0.469786  0.943709  0.098459  1.0
  H  H195  1  0.030214  0.443709  0.401541  1.0
  H  H196  1  0.969786  0.443709  0.098459  1.0
  H  H197  1  0.469786  0.056291  0.598459  1.0
  H  H198  1  0.530214  0.056291  0.901541  1.0
  H  H199  1  0.969786  0.556291  0.598459  1.0
  H  H200  1  0.030214  0.556291  0.901541  1.0
  H  H201  1  0.598912  0.938956  0.390209  1.0
  H  H202  1  0.401088  0.938956  0.109791  1.0
  H  H203  1  0.098912  0.438956  0.390209  1.0
  H  H204  1  0.901088  0.438956  0.109791  1.0
  H  H205  1  0.401088  0.061044  0.609791  1.0
  H  H206  1  0.598912  0.061044  0.890209  1.0
  H  H207  1  0.901088  0.561044  0.609791  1.0
  H  H208  1  0.098912  0.561044  0.890209  1.0
  H  H209  1  0.650585  0.969680  0.375259  1.0
  H  H210  1  0.349415  0.969680  0.124741  1.0
  H  H211  1  0.150585  0.469680  0.375259  1.0
  H  H212  1  0.849415  0.469680  0.124741  1.0
  H  H213  1  0.349415  0.030320  0.624741  1.0
  H  H214  1  0.650585  0.030320  0.875259  1.0
  H  H215  1  0.849415  0.530320  0.624741  1.0
  H  H216  1  0.150585  0.530320  0.875259  1.0
  H  H217  1  0.586434  0.058958  0.359201  1.0
  H  H218  1  0.413566  0.058958  0.140799  1.0
  H  H219  1  0.086434  0.558958  0.359201  1.0
  H  H220  1  0.913566  0.558958  0.140799  1.0
  H  H221  1  0.413566  0.941042  0.640799  1.0
  H  H222  1  0.586434  0.941042  0.859201  1.0
  H  H223  1  0.913566  0.441042  0.640799  1.0
  H  H224  1  0.086434  0.441042  0.859201  1.0
  H  H225  1  0.729101  0.143583  0.340125  1.0
  H  H226  1  0.270899  0.143583  0.159875  1.0
  H  H227  1  0.229101  0.643583  0.340125  1.0
  H  H228  1  0.770899  0.643583  0.159875  1.0
  H  H229  1  0.270899  0.856417  0.659875  1.0
  H  H230  1  0.729101  0.856417  0.840125  1.0
  H  H231  1  0.770899  0.356417  0.659875  1.0
  H  H232  1  0.229101  0.356417  0.840125  1.0
  H  H233  1  0.714275  0.076920  0.274094  1.0
  H  H234  1  0.285725  0.076920  0.225906  1.0
  H  H235  1  0.214275  0.576920  0.274094  1.0
  H  H236  1  0.785725  0.576920  0.225906  1.0
  H  H237  1  0.285725  0.923080  0.725906  1.0
  H  H238  1  0.714275  0.923080  0.774094  1.0
  H  H239  1  0.785725  0.423080  0.725906  1.0
  H  H240  1  0.214275  0.423080  0.774094  1.0
  H  H241  1  0.740957  0.122669  0.248371  1.0
  H  H242  1  0.259043  0.122669  0.251629  1.0
  H  H243  1  0.240957  0.622669  0.248371  1.0
  H  H244  1  0.759043  0.622669  0.251629  1.0
  H  H245  1  0.259043  0.877331  0.751629  1.0
  H  H246  1  0.740957  0.877331  0.748371  1.0
  H  H247  1  0.759043  0.377331  0.751629  1.0
  H  H248  1  0.240957  0.377331  0.748371  1.0
  H  H249  1  0.777438  0.185433  0.248977  1.0
  H  H250  1  0.222562  0.185433  0.251023  1.0
  H  H251  1  0.277438  0.685433  0.248977  1.0
  H  H252  1  0.722562  0.685433  0.251023  1.0
  H  H253  1  0.222562  0.814567  0.751023  1.0
  H  H254  1  0.777438  0.814567  0.748977  1.0
  H  H255  1  0.722562  0.314567  0.751023  1.0
  H  H256  1  0.277438  0.314567  0.748977  1.0
  H  H257  1  0.847497  0.208955  0.265880  1.0
  H  H258  1  0.152503  0.208955  0.234120  1.0
  H  H259  1  0.347497  0.708955  0.265880  1.0
  H  H260  1  0.652503  0.708955  0.234120  1.0
  H  H261  1  0.152503  0.791045  0.734120  1.0
  H  H262  1  0.847497  0.791045  0.765880  1.0
  H  H263  1  0.652503  0.291045  0.734120  1.0
  H  H264  1  0.347497  0.291045  0.765880  1.0
  H  H265  1  0.884181  0.253801  0.247923  1.0
  H  H266  1  0.115819  0.253801  0.252077  1.0
  H  H267  1  0.384181  0.753801  0.247923  1.0
  H  H268  1  0.615819  0.753801  0.252077  1.0
  H  H269  1  0.115819  0.746199  0.752077  1.0
  H  H270  1  0.884181  0.746199  0.747923  1.0
  H  H271  1  0.615819  0.246199  0.752077  1.0
  H  H272  1  0.384181  0.246199  0.747923  1.0
  H  H273  1  0.806202  0.330212  0.255854  1.0
  H  H274  1  0.193798  0.330212  0.244146  1.0
  H  H275  1  0.306202  0.830212  0.255854  1.0
  H  H276  1  0.693798  0.830212  0.244146  1.0
  H  H277  1  0.193798  0.669788  0.744146  1.0
  H  H278  1  0.806202  0.669788  0.755854  1.0
  H  H279  1  0.693798  0.169788  0.744146  1.0
  H  H280  1  0.306202  0.169788  0.755854  1.0
  H  H281  1  0.768423  0.285672  0.273018  1.0
  H  H282  1  0.231577  0.285672  0.226982  1.0
  H  H283  1  0.268423  0.785672  0.273018  1.0
  H  H284  1  0.731577  0.785672  0.226982  1.0
  H  H285  1  0.231577  0.714328  0.726982  1.0
  H  H286  1  0.768423  0.714328  0.773018  1.0
  H  H287  1  0.731577  0.214328  0.726982  1.0
  H  H288  1  0.268423  0.214328  0.773018  1.0
  H  H289  1  0.676026  0.032538  0.405532  1.0
  H  H290  1  0.323974  0.032538  0.094468  1.0
  H  H291  1  0.176026  0.532538  0.405532  1.0
  H  H292  1  0.823974  0.532538  0.094468  1.0
  H  H293  1  0.323974  0.967462  0.594468  1.0
  H  H294  1  0.676026  0.967462  0.905532  1.0
  H  H295  1  0.823974  0.467462  0.594468  1.0
  H  H296  1  0.176026  0.467462  0.905532  1.0
  H  H297  1  0.714295  0.054183  0.405392  1.0
  H  H298  1  0.285705  0.054183  0.094608  1.0
  H  H299  1  0.214295  0.554183  0.405392  1.0
  H  H300  1  0.785705  0.554183  0.094608  1.0
  H  H301  1  0.285705  0.945817  0.594608  1.0
  H  H302  1  0.714295  0.945817  0.905392  1.0
  H  H303  1  0.785705  0.445817  0.594608  1.0
  H  H304  1  0.214295  0.445817  0.905392  1.0
  H  H305  1  0.706850  0.979049  0.388185  1.0
  H  H306  1  0.293150  0.979049  0.111815  1.0
  H  H307  1  0.206850  0.479049  0.388185  1.0
  H  H308  1  0.793150  0.479049  0.111815  1.0
  H  H309  1  0.293150  0.020951  0.611815  1.0
  H  H310  1  0.706850  0.020951  0.888185  1.0
  H  H311  1  0.793150  0.520951  0.611815  1.0
  H  H312  1  0.206850  0.520951  0.888185  1.0
  H  H313  1  0.720086  0.989857  0.419258  1.0
  H  H314  1  0.279914  0.989857  0.080742  1.0
  H  H315  1  0.220086  0.489857  0.419258  1.0
  H  H316  1  0.779914  0.489857  0.080742  1.0
  H  H317  1  0.279914  0.010143  0.580742  1.0
  H  H318  1  0.720086  0.010143  0.919258  1.0
  H  H319  1  0.779914  0.510143  0.580742  1.0
  H  H320  1  0.220086  0.510143  0.919258  1.0
  H  H321  1  0.773371  0.021295  0.402168  1.0
  H  H322  1  0.226629  0.021295  0.097832  1.0
  H  H323  1  0.273371  0.521295  0.402168  1.0
  H  H324  1  0.726629  0.521295  0.097832  1.0
  H  H325  1  0.226629  0.978705  0.597832  1.0
  H  H326  1  0.773371  0.978705  0.902168  1.0
  H  H327  1  0.726629  0.478705  0.597832  1.0
  H  H328  1  0.273371  0.478705  0.902168  1.0
  H  H329  1  0.774376  0.977396  0.400313  1.0
  H  H330  1  0.225624  0.977396  0.099687  1.0
  H  H331  1  0.274376  0.477396  0.400313  1.0
  H  H332  1  0.725624  0.477396  0.099687  1.0
  H  H333  1  0.225624  0.022604  0.599687  1.0
  H  H334  1  0.774376  0.022604  0.900313  1.0
  H  H335  1  0.725624  0.522604  0.599687  1.0
  H  H336  1  0.274376  0.522604  0.900313  1.0
  H  H337  1  0.739303  0.997364  0.352192  1.0
  H  H338  1  0.260697  0.997364  0.147808  1.0
  H  H339  1  0.239303  0.497364  0.352192  1.0
  H  H340  1  0.760697  0.497364  0.147808  1.0
  H  H341  1  0.260697  0.002636  0.647808  1.0
  H  H342  1  0.739303  0.002636  0.852192  1.0
  H  H343  1  0.760697  0.502636  0.647808  1.0
  H  H344  1  0.239303  0.502636  0.852192  1.0
  H  H345  1  0.781310  0.983214  0.356861  1.0
  H  H346  1  0.218690  0.983214  0.143139  1.0
  H  H347  1  0.281310  0.483214  0.356861  1.0
  H  H348  1  0.718690  0.483214  0.143139  1.0
  H  H349  1  0.218690  0.016786  0.643139  1.0
  H  H350  1  0.781310  0.016786  0.856861  1.0
  H  H351  1  0.718690  0.516786  0.643139  1.0
  H  H352  1  0.281310  0.516786  0.856861  1.0
  H  H353  1  0.803351  0.044738  0.363126  1.0
  H  H354  1  0.196649  0.044738  0.136874  1.0
  H  H355  1  0.303351  0.544738  0.363126  1.0
  H  H356  1  0.696649  0.544738  0.136874  1.0
  H  H357  1  0.196649  0.955262  0.636874  1.0
  H  H358  1  0.803351  0.955262  0.863126  1.0
  H  H359  1  0.696649  0.455262  0.636874  1.0
  H  H360  1  0.303351  0.455262  0.863126  1.0
  H  H361  1  0.778215  0.042387  0.334315  1.0
  H  H362  1  0.221785  0.042387  0.165685  1.0
  H  H363  1  0.278215  0.542387  0.334315  1.0
  H  H364  1  0.721785  0.542387  0.165685  1.0
  H  H365  1  0.221785  0.957613  0.665685  1.0
  H  H366  1  0.778215  0.957613  0.834315  1.0
  H  H367  1  0.721785  0.457613  0.665685  1.0
  H  H368  1  0.278215  0.457613  0.834315  1.0
  H  H369  1  0.754129  0.072200  0.384169  1.0
  H  H370  1  0.245871  0.072200  0.115831  1.0
  H  H371  1  0.254129  0.572200  0.384169  1.0
  H  H372  1  0.745871  0.572200  0.115831  1.0
  H  H373  1  0.245871  0.927800  0.615831  1.0
  H  H374  1  0.754129  0.927800  0.884169  1.0
  H  H375  1  0.745871  0.427800  0.615831  1.0
  H  H376  1  0.254129  0.427800  0.884169  1.0
  H  H377  1  0.761231  0.095954  0.357715  1.0
  H  H378  1  0.238769  0.095954  0.142285  1.0
  H  H379  1  0.261231  0.595954  0.357715  1.0
  H  H380  1  0.738769  0.595954  0.142285  1.0
  H  H381  1  0.238769  0.904046  0.642285  1.0
  H  H382  1  0.761231  0.904046  0.857715  1.0
  H  H383  1  0.738769  0.404046  0.642285  1.0
  H  H384  1  0.261231  0.404046  0.857715  1.0
  H  H385  1  0.357786  0.920557  0.473238  1.0
  H  H386  1  0.642214  0.920557  0.026762  1.0
  H  H387  1  0.857786  0.420557  0.473238  1.0
  H  H388  1  0.142214  0.420557  0.026762  1.0
  H  H389  1  0.642214  0.079443  0.526762  1.0
  H  H390  1  0.357786  0.079443  0.973238  1.0
  H  H391  1  0.142214  0.579443  0.526762  1.0
  H  H392  1  0.857786  0.579443  0.973238  1.0
  H  H393  1  0.360765  0.961140  0.461057  1.0
  H  H394  1  0.639235  0.961140  0.038943  1.0
  H  H395  1  0.860765  0.461140  0.461057  1.0
  H  H396  1  0.139235  0.461140  0.038943  1.0
  H  H397  1  0.639235  0.038860  0.538943  1.0
  H  H398  1  0.360765  0.038860  0.961057  1.0
  H  H399  1  0.139235  0.538860  0.538943  1.0
  H  H400  1  0.860765  0.538860  0.961057  1.0
  H  H401  1  0.395604  0.943219  0.478941  1.0
  H  H402  1  0.604396  0.943219  0.021059  1.0
  H  H403  1  0.895604  0.443219  0.478941  1.0
  H  H404  1  0.104396  0.443219  0.021059  1.0
  H  H405  1  0.604396  0.056781  0.521059  1.0
  H  H406  1  0.395604  0.056781  0.978941  1.0
  H  H407  1  0.104396  0.556781  0.521059  1.0
  H  H408  1  0.895604  0.556781  0.978941  1.0
  H  H409  1  0.917781  0.330768  0.224584  1.0
  H  H410  1  0.082219  0.330768  0.275416  1.0
  H  H411  1  0.417781  0.830768  0.224584  1.0
  H  H412  1  0.582219  0.830768  0.275416  1.0
  H  H413  1  0.082219  0.669232  0.775416  1.0
  H  H414  1  0.917781  0.669232  0.724584  1.0
  H  H415  1  0.582219  0.169232  0.775416  1.0
  H  H416  1  0.417781  0.169232  0.724584  1.0
  H  H417  1  0.920219  0.300993  0.248744  1.0
  H  H418  1  0.079781  0.300993  0.251256  1.0
  H  H419  1  0.420219  0.800993  0.248744  1.0
  H  H420  1  0.579781  0.800993  0.251256  1.0
  H  H421  1  0.079781  0.699007  0.751256  1.0
  H  H422  1  0.920219  0.699007  0.748744  1.0
  H  H423  1  0.579781  0.199007  0.751256  1.0
  H  H424  1  0.420219  0.199007  0.748744  1.0
  H  H425  1  0.902168  0.290093  0.218645  1.0
  H  H426  1  0.097832  0.290093  0.281355  1.0
  H  H427  1  0.402168  0.790093  0.218645  1.0
  H  H428  1  0.597832  0.790093  0.281355  1.0
  H  H429  1  0.097832  0.709907  0.781355  1.0
  H  H430  1  0.902168  0.709907  0.718645  1.0
  H  H431  1  0.597832  0.209907  0.781355  1.0
  H  H432  1  0.402168  0.209907  0.718645  1.0
  H  H433  1  0.490519  0.929967  0.332193  1.0
  H  H434  1  0.509481  0.929967  0.167807  1.0
  H  H435  1  0.990519  0.429967  0.332193  1.0
  H  H436  1  0.009481  0.429967  0.167807  1.0
  H  H437  1  0.509481  0.070033  0.667807  1.0
  H  H438  1  0.490519  0.070033  0.832193  1.0
  H  H439  1  0.009481  0.570033  0.667807  1.0
  H  H440  1  0.990519  0.570033  0.832193  1.0
  H  H441  1  0.532135  0.888666  0.314745  1.0
  H  H442  1  0.467865  0.888666  0.185255  1.0
  H  H443  1  0.032135  0.388666  0.314745  1.0
  H  H444  1  0.967865  0.388666  0.185255  1.0
  H  H445  1  0.467865  0.111334  0.685255  1.0
  H  H446  1  0.532135  0.111334  0.814745  1.0
  H  H447  1  0.967865  0.611334  0.685255  1.0
  H  H448  1  0.032135  0.611334  0.814745  1.0
  H  H449  1  0.597255  0.974146  0.297345  1.0
  H  H450  1  0.402745  0.974146  0.202655  1.0
  H  H451  1  0.097255  0.474146  0.297345  1.0
  H  H452  1  0.902745  0.474146  0.202655  1.0
  H  H453  1  0.402745  0.025854  0.702655  1.0
  H  H454  1  0.597255  0.025854  0.797345  1.0
  H  H455  1  0.902745  0.525854  0.702655  1.0
  H  H456  1  0.097255  0.525854  0.797345  1.0
  H  H457  1  0.555969  0.014985  0.315006  1.0
  H  H458  1  0.444031  0.014985  0.184994  1.0
  H  H459  1  0.055969  0.514985  0.315006  1.0
  H  H460  1  0.944031  0.514985  0.184994  1.0
  H  H461  1  0.444031  0.985015  0.684994  1.0
  H  H462  1  0.555969  0.985015  0.815006  1.0
  H  H463  1  0.944031  0.485015  0.684994  1.0
  H  H464  1  0.055969  0.485015  0.815006  1.0
  H  H465  1  0.451616  0.985945  0.313280  1.0
  H  H466  1  0.548384  0.985945  0.186720  1.0
  H  H467  1  0.951616  0.485945  0.313280  1.0
  H  H468  1  0.048384  0.485945  0.186720  1.0
  H  H469  1  0.548384  0.014055  0.686720  1.0
  H  H470  1  0.451616  0.014055  0.813280  1.0
  H  H471  1  0.048384  0.514055  0.686720  1.0
  H  H472  1  0.951616  0.514055  0.813280  1.0
  H  H473  1  0.387524  0.018161  0.317285  1.0
  H  H474  1  0.612476  0.018161  0.182715  1.0
  H  H475  1  0.887524  0.518161  0.317285  1.0
  H  H476  1  0.112476  0.518161  0.182715  1.0
  H  H477  1  0.612476  0.981839  0.682715  1.0
  H  H478  1  0.387524  0.981839  0.817285  1.0
  H  H479  1  0.112476  0.481839  0.682715  1.0
  H  H480  1  0.887524  0.481839  0.817285  1.0
  H  H481  1  0.353890  0.060798  0.340168  1.0
  H  H482  1  0.646110  0.060798  0.159832  1.0
  H  H483  1  0.853890  0.560798  0.340168  1.0
  H  H484  1  0.146110  0.560798  0.159832  1.0
  H  H485  1  0.646110  0.939202  0.659832  1.0
  H  H486  1  0.353890  0.939202  0.840168  1.0
  H  H487  1  0.146110  0.439202  0.659832  1.0
  H  H488  1  0.853890  0.439202  0.840168  1.0
  H  H489  1  0.444906  0.079712  0.392431  1.0
  H  H490  1  0.555094  0.079712  0.107569  1.0
  H  H491  1  0.944906  0.579712  0.392431  1.0
  H  H492  1  0.055094  0.579712  0.107569  1.0
  H  H493  1  0.555094  0.920288  0.607569  1.0
  H  H494  1  0.444906  0.920288  0.892431  1.0
  H  H495  1  0.055094  0.420288  0.607569  1.0
  H  H496  1  0.944906  0.420288  0.892431  1.0
  H  H497  1  0.360805  0.224718  0.399211  1.0
  H  H498  1  0.639195  0.224718  0.100789  1.0
  H  H499  1  0.860805  0.724718  0.399211  1.0
  H  H500  1  0.139195  0.724718  0.100789  1.0
  H  H501  1  0.639195  0.775282  0.600789  1.0
  H  H502  1  0.360805  0.775282  0.899211  1.0
  H  H503  1  0.139195  0.275282  0.600789  1.0
  H  H504  1  0.860805  0.275282  0.899211  1.0
  H  H505  1  0.285844  0.170131  0.439514  1.0
  H  H506  1  0.714156  0.170131  0.060486  1.0
  H  H507  1  0.785844  0.670131  0.439514  1.0
  H  H508  1  0.214156  0.670131  0.060486  1.0
  H  H509  1  0.714156  0.829869  0.560486  1.0
  H  H510  1  0.285844  0.829869  0.939514  1.0
  H  H511  1  0.214156  0.329869  0.560486  1.0
  H  H512  1  0.785844  0.329869  0.939514  1.0
  H  H513  1  0.262734  0.227199  0.452698  1.0
  H  H514  1  0.737266  0.227199  0.047302  1.0
  H  H515  1  0.762734  0.727199  0.452698  1.0
  H  H516  1  0.237266  0.727199  0.047302  1.0
  H  H517  1  0.737266  0.772801  0.547302  1.0
  H  H518  1  0.262734  0.772801  0.952698  1.0
  H  H519  1  0.237266  0.272801  0.547302  1.0
  H  H520  1  0.762734  0.272801  0.952698  1.0
  H  H521  1  0.268709  0.298476  0.452151  1.0
  H  H522  1  0.731291  0.298476  0.047849  1.0
  H  H523  1  0.768709  0.798476  0.452151  1.0
  H  H524  1  0.231291  0.798476  0.047849  1.0
  H  H525  1  0.731291  0.701524  0.547849  1.0
  H  H526  1  0.268709  0.701524  0.952151  1.0
  H  H527  1  0.231291  0.201524  0.547849  1.0
  H  H528  1  0.768709  0.201524  0.952151  1.0
  H  H529  1  0.237216  0.353223  0.429746  1.0
  H  H530  1  0.762784  0.353223  0.070254  1.0
  H  H531  1  0.737216  0.853223  0.429746  1.0
  H  H532  1  0.262784  0.853223  0.070254  1.0
  H  H533  1  0.762784  0.646777  0.570254  1.0
  H  H534  1  0.237216  0.646777  0.929746  1.0
  H  H535  1  0.262784  0.146777  0.570254  1.0
  H  H536  1  0.737216  0.146777  0.929746  1.0
  H  H537  1  0.222077  0.411236  0.446268  1.0
  H  H538  1  0.777923  0.411236  0.053732  1.0
  H  H539  1  0.722077  0.911236  0.446268  1.0
  H  H540  1  0.277923  0.911236  0.053732  1.0
  H  H541  1  0.777923  0.588764  0.553732  1.0
  H  H542  1  0.222077  0.588764  0.946268  1.0
  H  H543  1  0.277923  0.088764  0.553732  1.0
  H  H544  1  0.722077  0.088764  0.946268  1.0
  H  H545  1  0.329545  0.431095  0.469821  1.0
  H  H546  1  0.670455  0.431095  0.030179  1.0
  H  H547  1  0.829545  0.931095  0.469821  1.0
  H  H548  1  0.170455  0.931095  0.030179  1.0
  H  H549  1  0.670455  0.568905  0.530179  1.0
  H  H550  1  0.329545  0.568905  0.969821  1.0
  H  H551  1  0.170455  0.068905  0.530179  1.0
  H  H552  1  0.829545  0.068905  0.969821  1.0
  H  H553  1  0.345506  0.374983  0.451518  1.0
  H  H554  1  0.654494  0.374983  0.048482  1.0
  H  H555  1  0.845506  0.874983  0.451518  1.0
  H  H556  1  0.154494  0.874983  0.048482  1.0
  H  H557  1  0.654494  0.625017  0.548482  1.0
  H  H558  1  0.345506  0.625017  0.951518  1.0
  H  H559  1  0.154494  0.125017  0.548482  1.0
  H  H560  1  0.845506  0.125017  0.951518  1.0
  H  H561  1  0.382242  0.065609  0.446836  1.0
  H  H562  1  0.617758  0.065609  0.053164  1.0
  H  H563  1  0.882242  0.565609  0.446836  1.0
  H  H564  1  0.117758  0.565609  0.053164  1.0
  H  H565  1  0.617758  0.934391  0.553164  1.0
  H  H566  1  0.382242  0.934391  0.946836  1.0
  H  H567  1  0.117758  0.434391  0.553164  1.0
  H  H568  1  0.882242  0.434391  0.946836  1.0
  H  H569  1  0.400856  0.050752  0.420639  1.0
  H  H570  1  0.599144  0.050752  0.079361  1.0
  H  H571  1  0.900856  0.550752  0.420639  1.0
  H  H572  1  0.099144  0.550752  0.079361  1.0
  H  H573  1  0.599144  0.949248  0.579361  1.0
  H  H574  1  0.400856  0.949248  0.920639  1.0
  H  H575  1  0.099144  0.449248  0.579361  1.0
  H  H576  1  0.900856  0.449248  0.920639  1.0
  H  H577  1  0.343781  0.028638  0.400600  1.0
  H  H578  1  0.656219  0.028638  0.099400  1.0
  H  H579  1  0.843781  0.528638  0.400600  1.0
  H  H580  1  0.156219  0.528638  0.099400  1.0
  H  H581  1  0.656219  0.971362  0.599400  1.0
  H  H582  1  0.343781  0.971362  0.900600  1.0
  H  H583  1  0.156219  0.471362  0.599400  1.0
  H  H584  1  0.843781  0.471362  0.900600  1.0
  H  H585  1  0.351653  0.011473  0.430582  1.0
  H  H586  1  0.648347  0.011473  0.069418  1.0
  H  H587  1  0.851653  0.511473  0.430582  1.0
  H  H588  1  0.148347  0.511473  0.069418  1.0
  H  H589  1  0.648347  0.988527  0.569418  1.0
  H  H590  1  0.351653  0.988527  0.930582  1.0
  H  H591  1  0.148347  0.488527  0.569418  1.0
  H  H592  1  0.851653  0.488527  0.930582  1.0
  H  H593  1  0.290451  0.026629  0.424054  1.0
  H  H594  1  0.709549  0.026629  0.075946  1.0
  H  H595  1  0.790451  0.526629  0.424054  1.0
  H  H596  1  0.209549  0.526629  0.075946  1.0
  H  H597  1  0.709549  0.973371  0.575946  1.0
  H  H598  1  0.290451  0.973371  0.924054  1.0
  H  H599  1  0.209549  0.473371  0.575946  1.0
  H  H600  1  0.790451  0.473371  0.924054  1.0
  H  H601  1  0.299514  0.067217  0.414210  1.0
  H  H602  1  0.700486  0.067217  0.085790  1.0
  H  H603  1  0.799514  0.567217  0.414210  1.0
  H  H604  1  0.200486  0.567217  0.085790  1.0
  H  H605  1  0.700486  0.932783  0.585790  1.0
  H  H606  1  0.299514  0.932783  0.914210  1.0
  H  H607  1  0.200486  0.432783  0.585790  1.0
  H  H608  1  0.799514  0.432783  0.914210  1.0
  H  H609  1  0.329403  0.051228  0.467961  1.0
  H  H610  1  0.670597  0.051228  0.032039  1.0
  H  H611  1  0.829403  0.551228  0.467961  1.0
  H  H612  1  0.170597  0.551228  0.032039  1.0
  H  H613  1  0.670597  0.948772  0.532039  1.0
  H  H614  1  0.329403  0.948772  0.967961  1.0
  H  H615  1  0.170597  0.448772  0.532039  1.0
  H  H616  1  0.829403  0.448772  0.967961  1.0
  H  H617  1  0.285192  0.051464  0.464020  1.0
  H  H618  1  0.714808  0.051464  0.035980  1.0
  H  H619  1  0.785192  0.551464  0.464020  1.0
  H  H620  1  0.214808  0.551464  0.035980  1.0
  H  H621  1  0.714808  0.948536  0.535980  1.0
  H  H622  1  0.285192  0.948536  0.964020  1.0
  H  H623  1  0.214808  0.448536  0.535980  1.0
  H  H624  1  0.785192  0.448536  0.964020  1.0
  H  H625  1  0.287165  0.114334  0.447814  1.0
  H  H626  1  0.712835  0.114334  0.052186  1.0
  H  H627  1  0.787165  0.614334  0.447814  1.0
  H  H628  1  0.212835  0.614334  0.052186  1.0
  H  H629  1  0.712835  0.885666  0.552186  1.0
  H  H630  1  0.287165  0.885666  0.947814  1.0
  H  H631  1  0.212835  0.385666  0.552186  1.0
  H  H632  1  0.787165  0.385666  0.947814  1.0
  H  H633  1  0.302839  0.109615  0.479309  1.0
  H  H634  1  0.697161  0.109615  0.020691  1.0
  H  H635  1  0.802839  0.609615  0.479309  1.0
  H  H636  1  0.197161  0.609615  0.020691  1.0
  H  H637  1  0.697161  0.890385  0.520691  1.0
  H  H638  1  0.302839  0.890385  0.979309  1.0
  H  H639  1  0.197161  0.390385  0.520691  1.0
  H  H640  1  0.802839  0.390385  0.979309  1.0
  H  H641  1  0.344299  0.147608  0.462502  1.0
  H  H642  1  0.655701  0.147608  0.037498  1.0
  H  H643  1  0.844299  0.647608  0.462502  1.0
  H  H644  1  0.155701  0.647608  0.037498  1.0
  H  H645  1  0.655701  0.852392  0.537498  1.0
  H  H646  1  0.344299  0.852392  0.962502  1.0
  H  H647  1  0.155701  0.352392  0.537498  1.0
  H  H648  1  0.844299  0.352392  0.962502  1.0
  H  H649  1  0.364822  0.108802  0.464335  1.0
  H  H650  1  0.635178  0.108802  0.035665  1.0
  H  H651  1  0.864822  0.608802  0.464335  1.0
  H  H652  1  0.135178  0.608802  0.035665  1.0
  H  H653  1  0.635178  0.891198  0.535665  1.0
  H  H654  1  0.364822  0.891198  0.964335  1.0
  H  H655  1  0.135178  0.391198  0.535665  1.0
  H  H656  1  0.864822  0.391198  0.964335  1.0
  H  H657  1  0.643742  0.896525  0.284306  1.0
  H  H658  1  0.356258  0.896525  0.215694  1.0
  H  H659  1  0.143742  0.396525  0.284306  1.0
  H  H660  1  0.856258  0.396525  0.215694  1.0
  H  H661  1  0.356258  0.103475  0.715694  1.0
  H  H662  1  0.643742  0.103475  0.784306  1.0
  H  H663  1  0.856258  0.603475  0.715694  1.0
  H  H664  1  0.143742  0.603475  0.784306  1.0
  H  H665  1  0.638593  0.934321  0.300184  1.0
  H  H666  1  0.361407  0.934321  0.199816  1.0
  H  H667  1  0.138593  0.434321  0.300184  1.0
  H  H668  1  0.861407  0.434321  0.199816  1.0
  H  H669  1  0.361407  0.065679  0.699816  1.0
  H  H670  1  0.638593  0.065679  0.800184  1.0
  H  H671  1  0.861407  0.565679  0.699816  1.0
  H  H672  1  0.138593  0.565679  0.800184  1.0
  H  H673  1  0.622765  0.930319  0.268606  1.0
  H  H674  1  0.377235  0.930319  0.231394  1.0
  H  H675  1  0.122765  0.430319  0.268606  1.0
  H  H676  1  0.877235  0.430319  0.231394  1.0
  H  H677  1  0.377235  0.069681  0.731394  1.0
  H  H678  1  0.622765  0.069681  0.768606  1.0
  H  H679  1  0.877235  0.569681  0.731394  1.0
  H  H680  1  0.122765  0.569681  0.768606  1.0
  H  H681  1  0.224821  0.491114  0.477733  1.0
  H  H682  1  0.775179  0.491114  0.022267  1.0
  H  H683  1  0.724821  0.991114  0.477733  1.0
  H  H684  1  0.275179  0.991114  0.022267  1.0
  H  H685  1  0.775179  0.508886  0.522267  1.0
  H  H686  1  0.224821  0.508886  0.977733  1.0
  H  H687  1  0.275179  0.008886  0.522267  1.0
  H  H688  1  0.724821  0.008886  0.977733  1.0
  H  H689  1  0.220884  0.449270  0.487079  1.0
  H  H690  1  0.779116  0.449270  0.012921  1.0
  H  H691  1  0.720884  0.949270  0.487079  1.0
  H  H692  1  0.279116  0.949270  0.012921  1.0
  H  H693  1  0.779116  0.550730  0.512921  1.0
  H  H694  1  0.220884  0.550730  0.987079  1.0
  H  H695  1  0.279116  0.050730  0.512921  1.0
  H  H696  1  0.720884  0.050730  0.987079  1.0
  H  H697  1  0.213799  0.459978  0.455291  1.0
  H  H698  1  0.786201  0.459978  0.044709  1.0
  H  H699  1  0.713799  0.959978  0.455291  1.0
  H  H700  1  0.286201  0.959978  0.044709  1.0
  H  H701  1  0.786201  0.540022  0.544709  1.0
  H  H702  1  0.213799  0.540022  0.955291  1.0
  H  H703  1  0.286201  0.040022  0.544709  1.0
  H  H704  1  0.713799  0.040022  0.955291  1.0
  H  H705  1  0.843425  0.167343  0.378909  1.0
  H  H706  1  0.156575  0.167343  0.121091  1.0
  H  H707  1  0.343425  0.667343  0.378909  1.0
  H  H708  1  0.656575  0.667343  0.121091  1.0
  H  H709  1  0.156575  0.832657  0.621091  1.0
  H  H710  1  0.843425  0.832657  0.878909  1.0
  H  H711  1  0.656575  0.332657  0.621091  1.0
  H  H712  1  0.343425  0.332657  0.878909  1.0
  H  H713  1  0.867834  0.108731  0.388544  1.0
  H  H714  1  0.132166  0.108731  0.111456  1.0
  H  H715  1  0.367834  0.608731  0.388544  1.0
  H  H716  1  0.632166  0.608731  0.111456  1.0
  H  H717  1  0.132166  0.891269  0.611456  1.0
  H  H718  1  0.867834  0.891269  0.888544  1.0
  H  H719  1  0.632166  0.391269  0.611456  1.0
  H  H720  1  0.367834  0.391269  0.888544  1.0
  H  H721  1  0.845699  0.081302  0.309084  1.0
  H  H722  1  0.154301  0.081302  0.190916  1.0
  H  H723  1  0.345699  0.581302  0.309084  1.0
  H  H724  1  0.654301  0.581302  0.190916  1.0
  H  H725  1  0.154301  0.918698  0.690916  1.0
  H  H726  1  0.845699  0.918698  0.809084  1.0
  H  H727  1  0.654301  0.418698  0.690916  1.0
  H  H728  1  0.345699  0.418698  0.809084  1.0
  H  H729  1  0.819977  0.139753  0.299465  1.0
  H  H730  1  0.180023  0.139753  0.200535  1.0
  H  H731  1  0.319977  0.639753  0.299465  1.0
  H  H732  1  0.680023  0.639753  0.200535  1.0
  H  H733  1  0.180023  0.860247  0.700535  1.0
  H  H734  1  0.819977  0.860247  0.799465  1.0
  H  H735  1  0.680023  0.360247  0.700535  1.0
  H  H736  1  0.319977  0.360247  0.799465  1.0
  H  H737  1  0.867205  0.219324  0.339626  1.0
  H  H738  1  0.132795  0.219324  0.160374  1.0
  H  H739  1  0.367205  0.719324  0.339626  1.0
  H  H740  1  0.632795  0.719324  0.160374  1.0
  H  H741  1  0.132795  0.780676  0.660374  1.0
  H  H742  1  0.867205  0.780676  0.839626  1.0
  H  H743  1  0.632795  0.280676  0.660374  1.0
  H  H744  1  0.367205  0.280676  0.839626  1.0
  H  H745  1  0.874064  0.290819  0.339158  1.0
  H  H746  1  0.125936  0.290819  0.160842  1.0
  H  H747  1  0.374064  0.790819  0.339158  1.0
  H  H748  1  0.625936  0.790819  0.160842  1.0
  H  H749  1  0.125936  0.709181  0.660842  1.0
  H  H750  1  0.874064  0.709181  0.839158  1.0
  H  H751  1  0.625936  0.209181  0.660842  1.0
  H  H752  1  0.374064  0.209181  0.839158  1.0
  H  H753  1  0.844314  0.348237  0.336388  1.0
  H  H754  1  0.155686  0.348237  0.163612  1.0
  H  H755  1  0.344314  0.848237  0.336388  1.0
  H  H756  1  0.655686  0.848237  0.163612  1.0
  H  H757  1  0.155686  0.651763  0.663612  1.0
  H  H758  1  0.844314  0.651763  0.836388  1.0
  H  H759  1  0.655686  0.151763  0.663612  1.0
  H  H760  1  0.344314  0.151763  0.836388  1.0
  H  H761  1  0.746335  0.295896  0.324567  1.0
  H  H762  1  0.253665  0.295896  0.175433  1.0
  H  H763  1  0.246335  0.795896  0.324567  1.0
  H  H764  1  0.753665  0.795896  0.175433  1.0
  H  H765  1  0.253665  0.704104  0.675433  1.0
  H  H766  1  0.746335  0.704104  0.824567  1.0
  H  H767  1  0.753665  0.204104  0.675433  1.0
  H  H768  1  0.246335  0.204104  0.824567  1.0
  H  H769  1  0.671409  0.440003  0.347619  1.0
  H  H770  1  0.328591  0.440003  0.152381  1.0
  H  H771  1  0.171409  0.940003  0.347619  1.0
  H  H772  1  0.828591  0.940003  0.152381  1.0
  H  H773  1  0.328591  0.559997  0.652381  1.0
  H  H774  1  0.671409  0.559997  0.847619  1.0
  H  H775  1  0.828591  0.059997  0.652381  1.0
  H  H776  1  0.171409  0.059997  0.847619  1.0
  H  H777  1  0.700774  0.456130  0.271607  1.0
  H  H778  1  0.299226  0.456130  0.228393  1.0
  H  H779  1  0.200774  0.956130  0.271607  1.0
  H  H780  1  0.799226  0.956130  0.228393  1.0
  H  H781  1  0.299226  0.543870  0.728393  1.0
  H  H782  1  0.700774  0.543870  0.771607  1.0
  H  H783  1  0.799226  0.043870  0.728393  1.0
  H  H784  1  0.200774  0.043870  0.771607  1.0
  H  H785  1  0.649931  0.496296  0.263095  1.0
  H  H786  1  0.350069  0.496296  0.236905  1.0
  H  H787  1  0.149931  0.996296  0.263095  1.0
  H  H788  1  0.850069  0.996296  0.236905  1.0
  H  H789  1  0.350069  0.503704  0.736905  1.0
  H  H790  1  0.649931  0.503704  0.763095  1.0
  H  H791  1  0.850069  0.003704  0.736905  1.0
  H  H792  1  0.149931  0.003704  0.763095  1.0
  H  H793  1  0.594472  0.528598  0.281798  1.0
  H  H794  1  0.405528  0.528598  0.218202  1.0
  H  H795  1  0.094472  0.028598  0.281798  1.0
  H  H796  1  0.905528  0.028598  0.218202  1.0
  H  H797  1  0.405528  0.471402  0.718202  1.0
  H  H798  1  0.594472  0.471402  0.781798  1.0
  H  H799  1  0.905528  0.971402  0.718202  1.0
  H  H800  1  0.094472  0.971402  0.781798  1.0
  H  H801  1  0.508845  0.509503  0.324612  1.0
  H  H802  1  0.491155  0.509503  0.175388  1.0
  H  H803  1  0.008845  0.009503  0.324612  1.0
  H  H804  1  0.991155  0.009503  0.175388  1.0
  H  H805  1  0.491155  0.490497  0.675388  1.0
  H  H806  1  0.508845  0.490497  0.824612  1.0
  H  H807  1  0.991155  0.990497  0.675388  1.0
  H  H808  1  0.008845  0.990497  0.824612  1.0
  H  H809  1  0.463271  0.555358  0.324687  1.0
  H  H810  1  0.536729  0.555358  0.175313  1.0
  H  H811  1  0.963271  0.055358  0.324687  1.0
  H  H812  1  0.036729  0.055358  0.175313  1.0
  H  H813  1  0.536729  0.444642  0.675313  1.0
  H  H814  1  0.463271  0.444642  0.824687  1.0
  H  H815  1  0.036729  0.944642  0.675313  1.0
  H  H816  1  0.963271  0.944642  0.824687  1.0
  H  H817  1  0.538826  0.632067  0.310025  1.0
  H  H818  1  0.461174  0.632067  0.189975  1.0
  H  H819  1  0.038826  0.132067  0.310025  1.0
  H  H820  1  0.961174  0.132067  0.189975  1.0
  H  H821  1  0.461174  0.367933  0.689975  1.0
  H  H822  1  0.538826  0.367933  0.810025  1.0
  H  H823  1  0.961174  0.867933  0.689975  1.0
  H  H824  1  0.038826  0.867933  0.810025  1.0
  H  H825  1  0.584364  0.586807  0.309424  1.0
  H  H826  1  0.415636  0.586807  0.190576  1.0
  H  H827  1  0.084364  0.086807  0.309424  1.0
  H  H828  1  0.915636  0.086807  0.190576  1.0
  H  H829  1  0.415636  0.413193  0.690576  1.0
  H  H830  1  0.584364  0.413193  0.809424  1.0
  H  H831  1  0.915636  0.913193  0.690576  1.0
  H  H832  1  0.084364  0.913193  0.809424  1.0
  H  H833  1  0.797877  0.361247  0.379008  1.0
  H  H834  1  0.202123  0.361247  0.120992  1.0
  H  H835  1  0.297877  0.861247  0.379008  1.0
  H  H836  1  0.702123  0.861247  0.120992  1.0
  H  H837  1  0.202123  0.638753  0.620992  1.0
  H  H838  1  0.797877  0.638753  0.879008  1.0
  H  H839  1  0.702123  0.138753  0.620992  1.0
  H  H840  1  0.297877  0.138753  0.879008  1.0
  H  H841  1  0.780785  0.398969  0.388681  1.0
  H  H842  1  0.219215  0.398969  0.111319  1.0
  H  H843  1  0.280785  0.898969  0.388681  1.0
  H  H844  1  0.719215  0.898969  0.111319  1.0
  H  H845  1  0.219215  0.601031  0.611319  1.0
  H  H846  1  0.780785  0.601031  0.888681  1.0
  H  H847  1  0.719215  0.101031  0.611319  1.0
  H  H848  1  0.280785  0.101031  0.888681  1.0
  H  H849  1  0.843790  0.400139  0.358100  1.0
  H  H850  1  0.156210  0.400139  0.141900  1.0
  H  H851  1  0.343790  0.900139  0.358100  1.0
  H  H852  1  0.656210  0.900139  0.141900  1.0
  H  H853  1  0.156210  0.599861  0.641900  1.0
  H  H854  1  0.843790  0.599861  0.858100  1.0
  H  H855  1  0.656210  0.099861  0.641900  1.0
  H  H856  1  0.343790  0.099861  0.858100  1.0
  H  H857  1  0.849227  0.395559  0.390792  1.0
  H  H858  1  0.150773  0.395559  0.109208  1.0
  H  H859  1  0.349227  0.895559  0.390792  1.0
  H  H860  1  0.650773  0.895559  0.109208  1.0
  H  H861  1  0.150773  0.604441  0.609208  1.0
  H  H862  1  0.849227  0.604441  0.890792  1.0
  H  H863  1  0.650773  0.104441  0.609208  1.0
  H  H864  1  0.349227  0.104441  0.890792  1.0
  H  H865  1  0.853851  0.458536  0.386444  1.0
  H  H866  1  0.146149  0.458536  0.113556  1.0
  H  H867  1  0.353851  0.958536  0.386444  1.0
  H  H868  1  0.646149  0.958536  0.113556  1.0
  H  H869  1  0.146149  0.541464  0.613556  1.0
  H  H870  1  0.853851  0.541464  0.886444  1.0
  H  H871  1  0.646149  0.041464  0.613556  1.0
  H  H872  1  0.353851  0.041464  0.886444  1.0
  H  H873  1  0.810842  0.454362  0.391088  1.0
  H  H874  1  0.189158  0.454362  0.108912  1.0
  H  H875  1  0.310842  0.954362  0.391088  1.0
  H  H876  1  0.689158  0.954362  0.108912  1.0
  H  H877  1  0.189158  0.545638  0.608912  1.0
  H  H878  1  0.810842  0.545638  0.891088  1.0
  H  H879  1  0.689158  0.045638  0.608912  1.0
  H  H880  1  0.310842  0.045638  0.891088  1.0
  H  H881  1  0.836175  0.484191  0.345291  1.0
  H  H882  1  0.163825  0.484191  0.154709  1.0
  H  H883  1  0.336175  0.984191  0.345291  1.0
  H  H884  1  0.663825  0.984191  0.154709  1.0
  H  H885  1  0.163825  0.515809  0.654709  1.0
  H  H886  1  0.836175  0.515809  0.845291  1.0
  H  H887  1  0.663825  0.015809  0.654709  1.0
  H  H888  1  0.336175  0.015809  0.845291  1.0
  H  H889  1  0.819311  0.445159  0.335244  1.0
  H  H890  1  0.180689  0.445159  0.164756  1.0
  H  H891  1  0.319311  0.945159  0.335244  1.0
  H  H892  1  0.680689  0.945159  0.164756  1.0
  H  H893  1  0.180689  0.554841  0.664756  1.0
  H  H894  1  0.819311  0.554841  0.835244  1.0
  H  H895  1  0.680689  0.054841  0.664756  1.0
  H  H896  1  0.319311  0.054841  0.835244  1.0
  H  H897  1  0.770636  0.486313  0.328228  1.0
  H  H898  1  0.229364  0.486313  0.171772  1.0
  H  H899  1  0.270636  0.986313  0.328228  1.0
  H  H900  1  0.729364  0.986313  0.171772  1.0
  H  H901  1  0.229364  0.513687  0.671772  1.0
  H  H902  1  0.770636  0.513687  0.828228  1.0
  H  H903  1  0.729364  0.013687  0.671772  1.0
  H  H904  1  0.270636  0.013687  0.828228  1.0
  H  H905  1  0.780034  0.504198  0.357960  1.0
  H  H906  1  0.219966  0.504198  0.142040  1.0
  H  H907  1  0.280034  0.004198  0.357960  1.0
  H  H908  1  0.719966  0.004198  0.142040  1.0
  H  H909  1  0.219966  0.495802  0.642040  1.0
  H  H910  1  0.780034  0.495802  0.857960  1.0
  H  H911  1  0.719966  0.995802  0.642040  1.0
  H  H912  1  0.280034  0.995802  0.857960  1.0
  H  H913  1  0.760214  0.447950  0.378377  1.0
  H  H914  1  0.239786  0.447950  0.121623  1.0
  H  H915  1  0.260214  0.947950  0.378377  1.0
  H  H916  1  0.739786  0.947950  0.121623  1.0
  H  H917  1  0.239786  0.552050  0.621623  1.0
  H  H918  1  0.760214  0.552050  0.878377  1.0
  H  H919  1  0.739786  0.052050  0.621623  1.0
  H  H920  1  0.260214  0.052050  0.878377  1.0
  H  H921  1  0.727029  0.467090  0.359286  1.0
  H  H922  1  0.272971  0.467090  0.140714  1.0
  H  H923  1  0.227029  0.967090  0.359286  1.0
  H  H924  1  0.772971  0.967090  0.140714  1.0
  H  H925  1  0.272971  0.532910  0.640714  1.0
  H  H926  1  0.727029  0.532910  0.859286  1.0
  H  H927  1  0.772971  0.032910  0.640714  1.0
  H  H928  1  0.227029  0.032910  0.859286  1.0
  H  H929  1  0.851354  0.015379  0.334848  1.0
  H  H930  1  0.148646  0.015379  0.165152  1.0
  H  H931  1  0.351354  0.515379  0.334848  1.0
  H  H932  1  0.648646  0.515379  0.165152  1.0
  H  H933  1  0.148646  0.984621  0.665152  1.0
  H  H934  1  0.851354  0.984621  0.834848  1.0
  H  H935  1  0.648646  0.484621  0.665152  1.0
  H  H936  1  0.351354  0.484621  0.834848  1.0
  H  H937  1  0.895454  0.012253  0.340761  1.0
  H  H938  1  0.104546  0.012253  0.159239  1.0
  H  H939  1  0.395454  0.512253  0.340761  1.0
  H  H940  1  0.604546  0.512253  0.159239  1.0
  H  H941  1  0.104546  0.987747  0.659239  1.0
  H  H942  1  0.895454  0.987747  0.840761  1.0
  H  H943  1  0.604546  0.487747  0.659239  1.0
  H  H944  1  0.395454  0.487747  0.840761  1.0
  H  H945  1  0.877435  0.040309  0.318007  1.0
  H  H946  1  0.122565  0.040309  0.181993  1.0
  H  H947  1  0.377435  0.540309  0.318007  1.0
  H  H948  1  0.622565  0.540309  0.181993  1.0
  H  H949  1  0.122565  0.959691  0.681993  1.0
  H  H950  1  0.877435  0.959691  0.818007  1.0
  H  H951  1  0.622565  0.459691  0.681993  1.0
  H  H952  1  0.377435  0.459691  0.818007  1.0
  H  H953  1  0.417222  0.627506  0.311868  1.0
  H  H954  1  0.582778  0.627506  0.188132  1.0
  H  H955  1  0.917222  0.127506  0.311868  1.0
  H  H956  1  0.082778  0.127506  0.188132  1.0
  H  H957  1  0.582778  0.372494  0.688132  1.0
  H  H958  1  0.417222  0.372494  0.811868  1.0
  H  H959  1  0.082778  0.872494  0.688132  1.0
  H  H960  1  0.917222  0.872494  0.811868  1.0
  H  H961  1  0.433334  0.622292  0.343285  1.0
  H  H962  1  0.566666  0.622292  0.156715  1.0
  H  H963  1  0.933334  0.122292  0.343285  1.0
  H  H964  1  0.066666  0.122292  0.156715  1.0
  H  H965  1  0.566666  0.377708  0.656715  1.0
  H  H966  1  0.433334  0.377708  0.843285  1.0
  H  H967  1  0.066666  0.877708  0.656715  1.0
  H  H968  1  0.933334  0.877708  0.843285  1.0
  H  H969  1  0.432903  0.588356  0.322474  1.0
  H  H970  1  0.567097  0.588356  0.177526  1.0
  H  H971  1  0.932903  0.088356  0.322474  1.0
  H  H972  1  0.067097  0.088356  0.177526  1.0
  H  H973  1  0.567097  0.411644  0.677526  1.0
  H  H974  1  0.432903  0.411644  0.822474  1.0
  H  H975  1  0.067097  0.911644  0.677526  1.0
  H  H976  1  0.932903  0.911644  0.822474  1.0
  H  H977  1  0.610003  0.575022  0.385292  1.0
  H  H978  1  0.389997  0.575022  0.114708  1.0
  H  H979  1  0.110003  0.075022  0.385292  1.0
  H  H980  1  0.889997  0.075022  0.114708  1.0
  H  H981  1  0.389997  0.424978  0.614708  1.0
  H  H982  1  0.610003  0.424978  0.885292  1.0
  H  H983  1  0.889997  0.924978  0.614708  1.0
  H  H984  1  0.110003  0.924978  0.885292  1.0
  H  H985  1  0.544303  0.579424  0.402264  1.0
  H  H986  1  0.455697  0.579424  0.097736  1.0
  H  H987  1  0.044303  0.079424  0.402264  1.0
  H  H988  1  0.955697  0.079424  0.097736  1.0
  H  H989  1  0.455697  0.420576  0.597736  1.0
  H  H990  1  0.544303  0.420576  0.902264  1.0
  H  H991  1  0.955697  0.920576  0.597736  1.0
  H  H992  1  0.044303  0.920576  0.902264  1.0
  H  H993  1  0.486811  0.551748  0.406311  1.0
  H  H994  1  0.513189  0.551748  0.093689  1.0
  H  H995  1  0.986811  0.051748  0.406311  1.0
  H  H996  1  0.013189  0.051748  0.093689  1.0
  H  H997  1  0.513189  0.448252  0.593689  1.0
  H  H998  1  0.486811  0.448252  0.906311  1.0
  H  H999  1  0.013189  0.948252  0.593689  1.0
  H  H1000  1  0.986811  0.948252  0.906311  1.0
  H  H1001  1  0.523483  0.461590  0.369449  1.0
  H  H1002  1  0.476517  0.461590  0.130551  1.0
  H  H1003  1  0.023483  0.961590  0.369449  1.0
  H  H1004  1  0.976517  0.961590  0.130551  1.0
  H  H1005  1  0.476517  0.538410  0.630551  1.0
  H  H1006  1  0.523483  0.538410  0.869449  1.0
  H  H1007  1  0.976517  0.038410  0.630551  1.0
  H  H1008  1  0.023483  0.038410  0.869449  1.0
  H  H1009  1  0.389604  0.376197  0.406046  1.0
  H  H1010  1  0.610396  0.376197  0.093954  1.0
  H  H1011  1  0.889604  0.876197  0.406046  1.0
  H  H1012  1  0.110396  0.876197  0.093954  1.0
  H  H1013  1  0.610396  0.623803  0.593954  1.0
  H  H1014  1  0.389604  0.623803  0.906046  1.0
  H  H1015  1  0.110396  0.123803  0.593954  1.0
  H  H1016  1  0.889604  0.123803  0.906046  1.0
  H  H1017  1  0.342289  0.445326  0.348555  1.0
  H  H1018  1  0.657711  0.445326  0.151445  1.0
  H  H1019  1  0.842289  0.945326  0.348555  1.0
  H  H1020  1  0.157711  0.945326  0.151445  1.0
  H  H1021  1  0.657711  0.554674  0.651445  1.0
  H  H1022  1  0.342289  0.554674  0.848555  1.0
  H  H1023  1  0.157711  0.054674  0.651445  1.0
  H  H1024  1  0.842289  0.054674  0.848555  1.0
  H  H1025  1  0.294062  0.402894  0.339038  1.0
  H  H1026  1  0.705938  0.402894  0.160962  1.0
  H  H1027  1  0.794062  0.902894  0.339038  1.0
  H  H1028  1  0.205938  0.902894  0.160962  1.0
  H  H1029  1  0.705938  0.597106  0.660962  1.0
  H  H1030  1  0.294062  0.597106  0.839038  1.0
  H  H1031  1  0.205938  0.097106  0.660962  1.0
  H  H1032  1  0.794062  0.097106  0.839038  1.0
  H  H1033  1  0.265529  0.339843  0.349967  1.0
  H  H1034  1  0.734471  0.339843  0.150033  1.0
  H  H1035  1  0.765529  0.839843  0.349967  1.0
  H  H1036  1  0.234471  0.839843  0.150033  1.0
  H  H1037  1  0.734471  0.660157  0.650033  1.0
  H  H1038  1  0.265529  0.660157  0.849967  1.0
  H  H1039  1  0.234471  0.160157  0.650033  1.0
  H  H1040  1  0.765529  0.160157  0.849967  1.0
  H  H1041  1  0.296063  0.237073  0.362261  1.0
  H  H1042  1  0.703937  0.237073  0.137739  1.0
  H  H1043  1  0.796063  0.737073  0.362261  1.0
  H  H1044  1  0.203937  0.737073  0.137739  1.0
  H  H1045  1  0.703937  0.762927  0.637739  1.0
  H  H1046  1  0.296063  0.762927  0.862261  1.0
  H  H1047  1  0.203937  0.262927  0.637739  1.0
  H  H1048  1  0.796063  0.262927  0.862261  1.0
  H  H1049  1  0.250988  0.191019  0.362131  1.0
  H  H1050  1  0.749012  0.191019  0.137869  1.0
  H  H1051  1  0.750988  0.691019  0.362131  1.0
  H  H1052  1  0.249012  0.691019  0.137869  1.0
  H  H1053  1  0.749012  0.808981  0.637869  1.0
  H  H1054  1  0.250988  0.808981  0.862131  1.0
  H  H1055  1  0.249012  0.308981  0.637869  1.0
  H  H1056  1  0.750988  0.308981  0.862131  1.0
  H  H1057  1  0.177533  0.264828  0.384546  1.0
  H  H1058  1  0.822467  0.264828  0.115454  1.0
  H  H1059  1  0.677533  0.764828  0.384546  1.0
  H  H1060  1  0.322467  0.764828  0.115454  1.0
  H  H1061  1  0.822467  0.735172  0.615454  1.0
  H  H1062  1  0.177533  0.735172  0.884546  1.0
  H  H1063  1  0.322467  0.235172  0.615454  1.0
  H  H1064  1  0.677533  0.235172  0.884546  1.0
  H  H1065  1  0.222234  0.311208  0.385422  1.0
  H  H1066  1  0.777766  0.311208  0.114578  1.0
  H  H1067  1  0.722234  0.811208  0.385422  1.0
  H  H1068  1  0.277766  0.811208  0.114578  1.0
  H  H1069  1  0.777766  0.688792  0.614578  1.0
  H  H1070  1  0.222234  0.688792  0.885422  1.0
  H  H1071  1  0.277766  0.188792  0.614578  1.0
  H  H1072  1  0.722234  0.188792  0.885422  1.0
  H  H1073  1  0.482392  0.504461  0.440385  1.0
  H  H1074  1  0.517608  0.504461  0.059615  1.0
  H  H1075  1  0.982392  0.004461  0.440385  1.0
  H  H1076  1  0.017608  0.004461  0.059615  1.0
  H  H1077  1  0.517608  0.495539  0.559615  1.0
  H  H1078  1  0.482392  0.495539  0.940385  1.0
  H  H1079  1  0.017608  0.995539  0.559615  1.0
  H  H1080  1  0.982392  0.995539  0.940385  1.0
  H  H1081  1  0.450282  0.483927  0.454354  1.0
  H  H1082  1  0.549718  0.483927  0.045646  1.0
  H  H1083  1  0.950282  0.983927  0.454354  1.0
  H  H1084  1  0.049718  0.983927  0.045646  1.0
  H  H1085  1  0.549718  0.516073  0.545646  1.0
  H  H1086  1  0.450282  0.516073  0.954354  1.0
  H  H1087  1  0.049718  0.016073  0.545646  1.0
  H  H1088  1  0.950282  0.016073  0.954354  1.0
  H  H1089  1  0.450309  0.551076  0.457194  1.0
  H  H1090  1  0.549691  0.551076  0.042806  1.0
  H  H1091  1  0.950309  0.051076  0.457194  1.0
  H  H1092  1  0.049691  0.051076  0.042806  1.0
  H  H1093  1  0.549691  0.448924  0.542806  1.0
  H  H1094  1  0.450309  0.448924  0.957194  1.0
  H  H1095  1  0.049691  0.948924  0.542806  1.0
  H  H1096  1  0.950309  0.948924  0.957194  1.0
  H  H1097  1  0.436774  0.551465  0.425188  1.0
  H  H1098  1  0.563226  0.551465  0.074812  1.0
  H  H1099  1  0.936774  0.051465  0.425188  1.0
  H  H1100  1  0.063226  0.051465  0.074812  1.0
  H  H1101  1  0.563226  0.448535  0.574812  1.0
  H  H1102  1  0.436774  0.448535  0.925188  1.0
  H  H1103  1  0.063226  0.948535  0.574812  1.0
  H  H1104  1  0.936774  0.948535  0.925188  1.0
  H  H1105  1  0.393583  0.518862  0.464216  1.0
  H  H1106  1  0.606417  0.518862  0.035784  1.0
  H  H1107  1  0.893583  0.018862  0.464216  1.0
  H  H1108  1  0.106417  0.018862  0.035784  1.0
  H  H1109  1  0.606417  0.481138  0.535784  1.0
  H  H1110  1  0.393583  0.481138  0.964216  1.0
  H  H1111  1  0.106417  0.981138  0.535784  1.0
  H  H1112  1  0.893583  0.981138  0.964216  1.0
  H  H1113  1  0.388463  0.560807  0.454931  1.0
  H  H1114  1  0.611537  0.560807  0.045069  1.0
  H  H1115  1  0.888463  0.060807  0.454931  1.0
  H  H1116  1  0.111537  0.060807  0.045069  1.0
  H  H1117  1  0.611537  0.439193  0.545069  1.0
  H  H1118  1  0.388463  0.439193  0.954931  1.0
  H  H1119  1  0.111537  0.939193  0.545069  1.0
  H  H1120  1  0.888463  0.939193  0.954931  1.0
  H  H1121  1  0.380301  0.527040  0.408132  1.0
  H  H1122  1  0.619699  0.527040  0.091868  1.0
  H  H1123  1  0.880301  0.027040  0.408132  1.0
  H  H1124  1  0.119699  0.027040  0.091868  1.0
  H  H1125  1  0.619699  0.472960  0.591868  1.0
  H  H1126  1  0.380301  0.472960  0.908132  1.0
  H  H1127  1  0.119699  0.972960  0.591868  1.0
  H  H1128  1  0.880301  0.972960  0.908132  1.0
  H  H1129  1  0.346816  0.541141  0.424297  1.0
  H  H1130  1  0.653184  0.541141  0.075703  1.0
  H  H1131  1  0.846816  0.041141  0.424297  1.0
  H  H1132  1  0.153184  0.041141  0.075703  1.0
  H  H1133  1  0.653184  0.458859  0.575703  1.0
  H  H1134  1  0.346816  0.458859  0.924297  1.0
  H  H1135  1  0.153184  0.958859  0.575703  1.0
  H  H1136  1  0.846816  0.958859  0.924297  1.0
  H  H1137  1  0.341450  0.482544  0.444995  1.0
  H  H1138  1  0.658550  0.482544  0.055005  1.0
  H  H1139  1  0.841450  0.982544  0.444995  1.0
  H  H1140  1  0.158550  0.982544  0.055005  1.0
  H  H1141  1  0.658550  0.517456  0.555005  1.0
  H  H1142  1  0.341450  0.517456  0.944995  1.0
  H  H1143  1  0.158550  0.017456  0.555005  1.0
  H  H1144  1  0.841450  0.017456  0.944995  1.0
  H  H1145  1  0.338868  0.476983  0.412519  1.0
  H  H1146  1  0.661132  0.476983  0.087481  1.0
  H  H1147  1  0.838868  0.976983  0.412519  1.0
  H  H1148  1  0.161132  0.976983  0.087481  1.0
  H  H1149  1  0.661132  0.523017  0.587481  1.0
  H  H1150  1  0.338868  0.523017  0.912519  1.0
  H  H1151  1  0.161132  0.023017  0.587481  1.0
  H  H1152  1  0.838868  0.023017  0.912519  1.0
  H  H1153  1  0.402427  0.459839  0.450402  1.0
  H  H1154  1  0.597573  0.459839  0.049598  1.0
  H  H1155  1  0.902427  0.959839  0.450402  1.0
  H  H1156  1  0.097573  0.959839  0.049598  1.0
  H  H1157  1  0.597573  0.540161  0.549598  1.0
  H  H1158  1  0.402427  0.540161  0.950402  1.0
  H  H1159  1  0.097573  0.040161  0.549598  1.0
  H  H1160  1  0.902427  0.040161  0.950402  1.0
  H  H1161  1  0.376876  0.430452  0.432962  1.0
  H  H1162  1  0.623124  0.430452  0.067038  1.0
  H  H1163  1  0.876876  0.930452  0.432962  1.0
  H  H1164  1  0.123124  0.930452  0.067038  1.0
  H  H1165  1  0.623124  0.569548  0.567038  1.0
  H  H1166  1  0.376876  0.569548  0.932962  1.0
  H  H1167  1  0.123124  0.069548  0.567038  1.0
  H  H1168  1  0.876876  0.069548  0.932962  1.0
  H  H1169  1  0.427503  0.360460  0.450937  1.0
  H  H1170  1  0.572497  0.360460  0.049063  1.0
  H  H1171  1  0.927503  0.860460  0.450937  1.0
  H  H1172  1  0.072497  0.860460  0.049063  1.0
  H  H1173  1  0.572497  0.639540  0.549063  1.0
  H  H1174  1  0.427503  0.639540  0.950937  1.0
  H  H1175  1  0.072497  0.139540  0.549063  1.0
  H  H1176  1  0.927503  0.139540  0.950937  1.0
  H  H1177  1  0.437159  0.374955  0.497823  1.0
  H  H1178  1  0.562841  0.374955  0.002177  1.0
  H  H1179  1  0.937159  0.874955  0.497823  1.0
  H  H1180  1  0.062841  0.874955  0.002177  1.0
  H  H1181  1  0.562841  0.625045  0.502177  1.0
  H  H1182  1  0.437159  0.625045  0.997823  1.0
  H  H1183  1  0.062841  0.125045  0.502177  1.0
  H  H1184  1  0.937159  0.125045  0.997823  1.0
  H  H1185  1  0.369847  0.291057  0.515088  1.0
  H  H1186  1  0.630153  0.291057  0.984912  1.0
  H  H1187  1  0.869847  0.791057  0.515088  1.0
  H  H1188  1  0.130153  0.791057  0.984912  1.0
  H  H1189  1  0.630153  0.708943  0.484912  1.0
  H  H1190  1  0.369847  0.708943  0.015088  1.0
  H  H1191  1  0.130153  0.208943  0.484912  1.0
  H  H1192  1  0.869847  0.208943  0.015088  1.0
  H  H1193  1  0.360107  0.277222  0.468091  1.0
  H  H1194  1  0.639893  0.277222  0.031909  1.0
  H  H1195  1  0.860107  0.777222  0.468091  1.0
  H  H1196  1  0.139893  0.777222  0.031909  1.0
  H  H1197  1  0.639893  0.722778  0.531909  1.0
  H  H1198  1  0.360107  0.722778  0.968091  1.0
  H  H1199  1  0.139893  0.222778  0.531909  1.0
  H  H1200  1  0.860107  0.222778  0.968091  1.0
  H  H1201  1  0.439891  0.300721  0.423762  1.0
  H  H1202  1  0.560109  0.300721  0.076238  1.0
  H  H1203  1  0.939891  0.800721  0.423762  1.0
  H  H1204  1  0.060109  0.800721  0.076238  1.0
  H  H1205  1  0.560109  0.699279  0.576238  1.0
  H  H1206  1  0.439891  0.699279  0.923762  1.0
  H  H1207  1  0.060109  0.199279  0.576238  1.0
  H  H1208  1  0.939891  0.199279  0.923762  1.0
  H  H1209  1  0.462800  0.286758  0.376616  1.0
  H  H1210  1  0.537200  0.286758  0.123384  1.0
  H  H1211  1  0.962800  0.786758  0.376616  1.0
  H  H1212  1  0.037200  0.786758  0.123384  1.0
  H  H1213  1  0.537200  0.713242  0.623384  1.0
  H  H1214  1  0.462800  0.713242  0.876616  1.0
  H  H1215  1  0.037200  0.213242  0.623384  1.0
  H  H1216  1  0.962800  0.213242  0.876616  1.0
  H  H1217  1  0.448313  0.274190  0.329674  1.0
  H  H1218  1  0.551687  0.274190  0.170326  1.0
  H  H1219  1  0.948313  0.774190  0.329674  1.0
  H  H1220  1  0.051687  0.774190  0.170326  1.0
  H  H1221  1  0.551687  0.725810  0.670326  1.0
  H  H1222  1  0.448313  0.725810  0.829674  1.0
  H  H1223  1  0.051687  0.225810  0.670326  1.0
  H  H1224  1  0.948313  0.225810  0.829674  1.0
  H  H1225  1  0.340505  0.282928  0.341790  1.0
  H  H1226  1  0.659495  0.282928  0.158210  1.0
  H  H1227  1  0.840505  0.782928  0.341790  1.0
  H  H1228  1  0.159495  0.782928  0.158210  1.0
  H  H1229  1  0.659495  0.717072  0.658210  1.0
  H  H1230  1  0.340505  0.717072  0.841790  1.0
  H  H1231  1  0.159495  0.217072  0.658210  1.0
  H  H1232  1  0.840505  0.217072  0.841790  1.0
  H  H1233  1  0.287216  0.242833  0.230183  1.0
  H  H1234  1  0.712784  0.242833  0.269817  1.0
  H  H1235  1  0.787216  0.742833  0.230183  1.0
  H  H1236  1  0.212784  0.742833  0.269817  1.0
  H  H1237  1  0.712784  0.757167  0.769817  1.0
  H  H1238  1  0.287216  0.757167  0.730183  1.0
  H  H1239  1  0.212784  0.257167  0.769817  1.0
  H  H1240  1  0.787216  0.257167  0.730183  1.0
  H  H1241  1  0.387721  0.249497  0.202300  1.0
  H  H1242  1  0.612279  0.249497  0.297700  1.0
  H  H1243  1  0.887721  0.749497  0.202300  1.0
  H  H1244  1  0.112279  0.749497  0.297700  1.0
  H  H1245  1  0.612279  0.750503  0.797700  1.0
  H  H1246  1  0.387721  0.750503  0.702300  1.0
  H  H1247  1  0.112279  0.250503  0.797700  1.0
  H  H1248  1  0.887721  0.250503  0.702300  1.0
  H  H1249  1  0.359780  0.234115  0.158163  1.0
  H  H1250  1  0.640220  0.234115  0.341837  1.0
  H  H1251  1  0.859780  0.734115  0.158163  1.0
  H  H1252  1  0.140220  0.734115  0.341837  1.0
  H  H1253  1  0.640220  0.765885  0.841837  1.0
  H  H1254  1  0.359780  0.765885  0.658163  1.0
  H  H1255  1  0.140220  0.265885  0.841837  1.0
  H  H1256  1  0.859780  0.265885  0.658163  1.0
  H  H1257  1  0.298820  0.217243  0.127375  1.0
  H  H1258  1  0.701180  0.217243  0.372625  1.0
  H  H1259  1  0.798820  0.717243  0.127375  1.0
  H  H1260  1  0.201180  0.717243  0.372625  1.0
  H  H1261  1  0.701180  0.782757  0.872625  1.0
  H  H1262  1  0.298820  0.782757  0.627375  1.0
  H  H1263  1  0.201180  0.282757  0.872625  1.0
  H  H1264  1  0.798820  0.282757  0.627375  1.0
  H  H1265  1  0.262894  0.154428  0.111786  1.0
  H  H1266  1  0.737106  0.154428  0.388214  1.0
  H  H1267  1  0.762894  0.654428  0.111786  1.0
  H  H1268  1  0.237106  0.654428  0.388214  1.0
  H  H1269  1  0.737106  0.845572  0.888214  1.0
  H  H1270  1  0.262894  0.845572  0.611786  1.0
  H  H1271  1  0.237106  0.345572  0.888214  1.0
  H  H1272  1  0.762894  0.345572  0.611786  1.0
  H  H1273  1  0.227747  0.136764  0.070875  1.0
  H  H1274  1  0.772253  0.136764  0.429125  1.0
  H  H1275  1  0.727747  0.636764  0.070875  1.0
  H  H1276  1  0.272253  0.636764  0.429125  1.0
  H  H1277  1  0.772253  0.863236  0.929125  1.0
  H  H1278  1  0.227747  0.863236  0.570875  1.0
  H  H1279  1  0.272253  0.363236  0.929125  1.0
  H  H1280  1  0.727747  0.363236  0.570875  1.0
  H  H1281  1  0.164738  0.227916  0.073773  1.0
  H  H1282  1  0.835262  0.227916  0.426227  1.0
  H  H1283  1  0.664738  0.727916  0.073773  1.0
  H  H1284  1  0.335262  0.727916  0.426227  1.0
  H  H1285  1  0.835262  0.772084  0.926227  1.0
  H  H1286  1  0.164738  0.772084  0.573773  1.0
  H  H1287  1  0.335262  0.272084  0.926227  1.0
  H  H1288  1  0.664738  0.272084  0.573773  1.0
  H  H1289  1  0.198286  0.244731  0.115758  1.0
  H  H1290  1  0.801714  0.244731  0.384242  1.0
  H  H1291  1  0.698286  0.744731  0.115758  1.0
  H  H1292  1  0.301714  0.744731  0.384242  1.0
  H  H1293  1  0.801714  0.755269  0.884242  1.0
  H  H1294  1  0.198286  0.755269  0.615758  1.0
  H  H1295  1  0.301714  0.255269  0.884242  1.0
  H  H1296  1  0.698286  0.255269  0.615758  1.0
  H  H1297  1  0.431306  0.389803  0.542537  1.0
  H  H1298  1  0.568694  0.389803  0.957463  1.0
  H  H1299  1  0.931306  0.889803  0.542537  1.0
  H  H1300  1  0.068694  0.889803  0.957463  1.0
  H  H1301  1  0.568694  0.610197  0.457463  1.0
  H  H1302  1  0.431306  0.610197  0.042537  1.0
  H  H1303  1  0.068694  0.110197  0.457463  1.0
  H  H1304  1  0.931306  0.110197  0.042537  1.0
  H  H1305  1  0.410117  0.375575  0.567582  1.0
  H  H1306  1  0.589883  0.375575  0.932418  1.0
  H  H1307  1  0.910117  0.875575  0.567582  1.0
  H  H1308  1  0.089883  0.875575  0.932418  1.0
  H  H1309  1  0.589883  0.624425  0.432418  1.0
  H  H1310  1  0.410117  0.624425  0.067582  1.0
  H  H1311  1  0.089883  0.124425  0.432418  1.0
  H  H1312  1  0.910117  0.124425  0.067582  1.0
  H  H1313  1  0.387041  0.387182  0.539286  1.0
  H  H1314  1  0.612959  0.387182  0.960714  1.0
  H  H1315  1  0.887041  0.887182  0.539286  1.0
  H  H1316  1  0.112959  0.887182  0.960714  1.0
  H  H1317  1  0.612959  0.612818  0.460714  1.0
  H  H1318  1  0.387041  0.612818  0.039286  1.0
  H  H1319  1  0.112959  0.112818  0.460714  1.0
  H  H1320  1  0.887041  0.112818  0.039286  1.0
  H  H1321  1  0.621589  0.497809  0.421289  1.0
  H  H1322  1  0.378411  0.497809  0.078711  1.0
  H  H1323  1  0.121589  0.997809  0.421289  1.0
  H  H1324  1  0.878411  0.997809  0.078711  1.0
  H  H1325  1  0.378411  0.502191  0.578711  1.0
  H  H1326  1  0.621589  0.502191  0.921289  1.0
  H  H1327  1  0.878411  0.002191  0.578711  1.0
  H  H1328  1  0.121589  0.002191  0.921289  1.0
  H  H1329  1  0.669690  0.508449  0.455997  1.0
  H  H1330  1  0.330310  0.508449  0.044003  1.0
  H  H1331  1  0.169690  0.008449  0.455997  1.0
  H  H1332  1  0.830310  0.008449  0.044003  1.0
  H  H1333  1  0.330310  0.491551  0.544003  1.0
  H  H1334  1  0.669690  0.491551  0.955997  1.0
  H  H1335  1  0.830310  0.991551  0.544003  1.0
  H  H1336  1  0.169690  0.991551  0.955997  1.0
  H  H1337  1  0.729636  0.426806  0.427358  1.0
  H  H1338  1  0.270364  0.426806  0.072642  1.0
  H  H1339  1  0.229636  0.926806  0.427358  1.0
  H  H1340  1  0.770364  0.926806  0.072642  1.0
  H  H1341  1  0.270364  0.573194  0.572642  1.0
  H  H1342  1  0.729636  0.573194  0.927358  1.0
  H  H1343  1  0.770364  0.073194  0.572642  1.0
  H  H1344  1  0.229636  0.073194  0.927358  1.0
  H  H1345  1  0.681834  0.415683  0.392836  1.0
  H  H1346  1  0.318166  0.415683  0.107164  1.0
  H  H1347  1  0.181834  0.915683  0.392836  1.0
  H  H1348  1  0.818166  0.915683  0.107164  1.0
  H  H1349  1  0.318166  0.584317  0.607164  1.0
  H  H1350  1  0.681834  0.584317  0.892836  1.0
  H  H1351  1  0.818166  0.084317  0.607164  1.0
  H  H1352  1  0.181834  0.084317  0.892836  1.0
  H  H1353  1  0.613493  0.397803  0.389284  1.0
  H  H1354  1  0.386507  0.397803  0.110716  1.0
  H  H1355  1  0.113493  0.897803  0.389284  1.0
  H  H1356  1  0.886507  0.897803  0.110716  1.0
  H  H1357  1  0.386507  0.602197  0.610716  1.0
  H  H1358  1  0.613493  0.602197  0.889284  1.0
  H  H1359  1  0.886507  0.102197  0.610716  1.0
  H  H1360  1  0.113493  0.102197  0.889284  1.0
  H  H1361  1  0.574047  0.353946  0.356019  1.0
  H  H1362  1  0.425953  0.353946  0.143981  1.0
  H  H1363  1  0.074047  0.853946  0.356019  1.0
  H  H1364  1  0.925953  0.853946  0.143981  1.0
  H  H1365  1  0.425953  0.646054  0.643981  1.0
  H  H1366  1  0.574047  0.646054  0.856019  1.0
  H  H1367  1  0.925953  0.146054  0.643981  1.0
  H  H1368  1  0.074047  0.146054  0.856019  1.0
  H  H1369  1  0.539267  0.345584  0.313319  1.0
  H  H1370  1  0.460733  0.345584  0.186681  1.0
  H  H1371  1  0.039267  0.845584  0.313319  1.0
  H  H1372  1  0.960733  0.845584  0.186681  1.0
  H  H1373  1  0.460733  0.654416  0.686681  1.0
  H  H1374  1  0.539267  0.654416  0.813319  1.0
  H  H1375  1  0.960733  0.154416  0.686681  1.0
  H  H1376  1  0.039267  0.154416  0.813319  1.0
  H  H1377  1  0.546814  0.454375  0.300775  1.0
  H  H1378  1  0.453186  0.454375  0.199225  1.0
  H  H1379  1  0.046814  0.954375  0.300775  1.0
  H  H1380  1  0.953186  0.954375  0.199225  1.0
  H  H1381  1  0.453186  0.545625  0.699225  1.0
  H  H1382  1  0.546814  0.545625  0.800775  1.0
  H  H1383  1  0.953186  0.045625  0.699225  1.0
  H  H1384  1  0.046814  0.045625  0.800775  1.0
  H  H1385  1  0.781408  0.464967  0.446606  1.0
  H  H1386  1  0.218592  0.464967  0.053394  1.0
  H  H1387  1  0.281408  0.964967  0.446606  1.0
  H  H1388  1  0.718592  0.964967  0.053394  1.0
  H  H1389  1  0.218592  0.535033  0.553394  1.0
  H  H1390  1  0.781408  0.535033  0.946606  1.0
  H  H1391  1  0.718592  0.035033  0.553394  1.0
  H  H1392  1  0.281408  0.035033  0.946606  1.0
  H  H1393  1  0.766140  0.434649  0.466254  1.0
  H  H1394  1  0.233860  0.434649  0.033746  1.0
  H  H1395  1  0.266140  0.934649  0.466254  1.0
  H  H1396  1  0.733860  0.934649  0.033746  1.0
  H  H1397  1  0.233860  0.565351  0.533746  1.0
  H  H1398  1  0.766140  0.565351  0.966254  1.0
  H  H1399  1  0.733860  0.065351  0.533746  1.0
  H  H1400  1  0.266140  0.065351  0.966254  1.0
  H  H1401  1  0.786236  0.470756  0.479156  1.0
  H  H1402  1  0.213764  0.470756  0.020844  1.0
  H  H1403  1  0.286236  0.970756  0.479156  1.0
  H  H1404  1  0.713764  0.970756  0.020844  1.0
  H  H1405  1  0.213764  0.529244  0.520844  1.0
  H  H1406  1  0.786236  0.529244  0.979156  1.0
  H  H1407  1  0.713764  0.029244  0.520844  1.0
  H  H1408  1  0.286236  0.029244  0.979156  1.0
  H  H1409  1  0.553121  0.022054  0.433392  1.0
  H  H1410  1  0.446879  0.022054  0.066608  1.0
  H  H1411  1  0.053121  0.522054  0.433392  1.0
  H  H1412  1  0.946879  0.522054  0.066608  1.0
  H  H1413  1  0.446879  0.977946  0.566608  1.0
  H  H1414  1  0.553121  0.977946  0.933392  1.0
  H  H1415  1  0.946879  0.477946  0.566608  1.0
  H  H1416  1  0.053121  0.477946  0.933392  1.0
  H  H1417  1  0.551645  0.013599  0.480654  1.0
  H  H1418  1  0.448355  0.013599  0.019346  1.0
  H  H1419  1  0.051645  0.513599  0.480654  1.0
  H  H1420  1  0.948355  0.513599  0.019346  1.0
  H  H1421  1  0.448355  0.986401  0.519346  1.0
  H  H1422  1  0.551645  0.986401  0.980654  1.0
  H  H1423  1  0.948355  0.486401  0.519346  1.0
  H  H1424  1  0.051645  0.486401  0.980654  1.0
  H  H1425  1  0.475278  0.093931  0.481864  1.0
  H  H1426  1  0.524722  0.093931  0.018136  1.0
  H  H1427  1  0.975278  0.593931  0.481864  1.0
  H  H1428  1  0.024722  0.593931  0.018136  1.0
  H  H1429  1  0.524722  0.906069  0.518136  1.0
  H  H1430  1  0.475278  0.906069  0.981864  1.0
  H  H1431  1  0.024722  0.406069  0.518136  1.0
  H  H1432  1  0.975278  0.406069  0.981864  1.0
  H  H1433  1  0.477754  0.103849  0.434881  1.0
  H  H1434  1  0.522246  0.103849  0.065119  1.0
  H  H1435  1  0.977754  0.603849  0.434881  1.0
  H  H1436  1  0.022246  0.603849  0.065119  1.0
  H  H1437  1  0.522246  0.896151  0.565119  1.0
  H  H1438  1  0.477754  0.896151  0.934881  1.0
  H  H1439  1  0.022246  0.396151  0.565119  1.0
  H  H1440  1  0.977754  0.396151  0.934881  1.0
  H  H1441  1  0.529312  0.123086  0.405538  1.0
  H  H1442  1  0.470688  0.123086  0.094462  1.0
  H  H1443  1  0.029312  0.623086  0.405538  1.0
  H  H1444  1  0.970688  0.623086  0.094462  1.0
  H  H1445  1  0.470688  0.876914  0.594462  1.0
  H  H1446  1  0.529312  0.876914  0.905538  1.0
  H  H1447  1  0.970688  0.376914  0.594462  1.0
  H  H1448  1  0.029312  0.376914  0.905538  1.0
  H  H1449  1  0.529545  0.165558  0.363452  1.0
  H  H1450  1  0.470455  0.165558  0.136548  1.0
  H  H1451  1  0.029545  0.665558  0.363452  1.0
  H  H1452  1  0.970455  0.665558  0.136548  1.0
  H  H1453  1  0.470455  0.834442  0.636548  1.0
  H  H1454  1  0.529545  0.834442  0.863452  1.0
  H  H1455  1  0.970455  0.334442  0.636548  1.0
  H  H1456  1  0.029545  0.334442  0.863452  1.0
  H  H1457  1  0.522902  0.171427  0.315367  1.0
  H  H1458  1  0.477098  0.171427  0.184633  1.0
  H  H1459  1  0.022902  0.671427  0.315367  1.0
  H  H1460  1  0.977098  0.671427  0.184633  1.0
  H  H1461  1  0.477098  0.828573  0.684633  1.0
  H  H1462  1  0.522902  0.828573  0.815367  1.0
  H  H1463  1  0.977098  0.328573  0.684633  1.0
  H  H1464  1  0.022902  0.328573  0.815367  1.0
  H  H1465  1  0.505527  0.061895  0.309929  1.0
  H  H1466  1  0.494473  0.061895  0.190071  1.0
  H  H1467  1  0.005527  0.561895  0.309929  1.0
  H  H1468  1  0.994473  0.561895  0.190071  1.0
  H  H1469  1  0.494473  0.938105  0.690071  1.0
  H  H1470  1  0.505527  0.938105  0.809929  1.0
  H  H1471  1  0.994473  0.438105  0.690071  1.0
  H  H1472  1  0.005527  0.438105  0.809929  1.0
  H  H1473  1  0.497661  0.094345  0.524088  1.0
  H  H1474  1  0.502339  0.094345  0.975912  1.0
  H  H1475  1  0.997661  0.594345  0.524088  1.0
  H  H1476  1  0.002339  0.594345  0.975912  1.0
  H  H1477  1  0.502339  0.905655  0.475912  1.0
  H  H1478  1  0.497661  0.905655  0.024088  1.0
  H  H1479  1  0.002339  0.405655  0.475912  1.0
  H  H1480  1  0.997661  0.405655  0.024088  1.0
  H  H1481  1  0.500909  0.064351  0.548108  1.0
  H  H1482  1  0.499091  0.064351  0.951892  1.0
  H  H1483  1  0.000909  0.564351  0.548108  1.0
  H  H1484  1  0.999091  0.564351  0.951892  1.0
  H  H1485  1  0.499091  0.935649  0.451892  1.0
  H  H1486  1  0.500909  0.935649  0.048108  1.0
  H  H1487  1  0.999091  0.435649  0.451892  1.0
  H  H1488  1  0.000909  0.435649  0.048108  1.0
  H  H1489  1  0.466648  0.063173  0.524760  1.0
  H  H1490  1  0.533352  0.063173  0.975240  1.0
  H  H1491  1  0.966648  0.563173  0.524760  1.0
  H  H1492  1  0.033352  0.563173  0.975240  1.0
  H  H1493  1  0.533352  0.936827  0.475240  1.0
  H  H1494  1  0.466648  0.936827  0.024760  1.0
  H  H1495  1  0.033352  0.436827  0.475240  1.0
  H  H1496  1  0.966648  0.436827  0.024760  1.0
  H  H1497  1  0.150313  0.178754  0.007207  0.4
  H  H1498  1  0.849687  0.178754  0.492793  0.4
  H  H1499  1  0.650313  0.678754  0.007207  0.4
  H  H1500  1  0.349687  0.678754  0.492793  0.4
  H  H1501  1  0.849687  0.821246  0.992793  0.4
  H  H1502  1  0.150313  0.821246  0.507207  0.4
  H  H1503  1  0.349687  0.321246  0.992793  0.4
  H  H1504  1  0.650313  0.321246  0.507207  0.4
  H  H1505  1  0.146106  0.213023  0.027125  0.4
  H  H1506  1  0.853894  0.213023  0.472875  0.4
  H  H1507  1  0.646106  0.713023  0.027125  0.4
  H  H1508  1  0.353894  0.713023  0.472875  0.4
  H  H1509  1  0.853894  0.786977  0.972875  0.4
  H  H1510  1  0.146106  0.786977  0.527125  0.4
  H  H1511  1  0.353894  0.286977  0.972875  0.4
  H  H1512  1  0.646106  0.286977  0.527125  0.4
  H  H1513  1  0.184682  0.205697  0.014926  0.4
  H  H1514  1  0.815318  0.205697  0.485074  0.4
  H  H1515  1  0.684682  0.705697  0.014926  0.4
  H  H1516  1  0.315318  0.705697  0.485074  0.4
  H  H1517  1  0.815318  0.794303  0.985074  0.4
  H  H1518  1  0.184682  0.794303  0.514926  0.4
  H  H1519  1  0.315318  0.294303  0.985074  0.4
  H  H1520  1  0.684682  0.294303  0.514926  0.4
  H  H1521  1  0.218668  0.269053  0.314811  0.421
  H  H1522  1  0.781332  0.269053  0.185189  0.421
  H  H1523  1  0.718668  0.769053  0.314811  0.421
  H  H1524  1  0.281332  0.769053  0.185189  0.421
  H  H1525  1  0.781332  0.730947  0.685189  0.421
  H  H1526  1  0.218668  0.730947  0.814811  0.421
  H  H1527  1  0.281332  0.230947  0.685189  0.421
  H  H1528  1  0.718668  0.230947  0.814811  0.421
  H  H1529  1  0.277266  0.262789  0.299405  0.421
  H  H1530  1  0.722734  0.262789  0.200595  0.421
  H  H1531  1  0.777266  0.762789  0.299405  0.421
  H  H1532  1  0.222734  0.762789  0.200595  0.421
  H  H1533  1  0.722734  0.737211  0.700595  0.421
  H  H1534  1  0.277266  0.737211  0.799405  0.421
  H  H1535  1  0.222734  0.237211  0.700595  0.421
  H  H1536  1  0.777266  0.237211  0.799405  0.421
  H  H1537  1  0.305981  0.313606  0.281368  0.421
  H  H1538  1  0.694019  0.313606  0.218632  0.421
  H  H1539  1  0.805981  0.813606  0.281368  0.421
  H  H1540  1  0.194019  0.813606  0.218632  0.421
  H  H1541  1  0.694019  0.686394  0.718632  0.421
  H  H1542  1  0.305981  0.686394  0.781368  0.421
  H  H1543  1  0.194019  0.186394  0.718632  0.421
  H  H1544  1  0.805981  0.186394  0.781368  0.421
  H  H1545  1  0.276098  0.370687  0.278738  0.421
  H  H1546  1  0.723902  0.370687  0.221262  0.421
  H  H1547  1  0.776098  0.870687  0.278738  0.421
  H  H1548  1  0.223902  0.870687  0.221262  0.421
  H  H1549  1  0.723902  0.629313  0.721262  0.421
  H  H1550  1  0.276098  0.629313  0.778738  0.421
  H  H1551  1  0.223902  0.129313  0.721262  0.421
  H  H1552  1  0.776098  0.129313  0.778738  0.421
  H  H1553  1  0.217501  0.376952  0.294144  0.421
  H  H1554  1  0.782499  0.376952  0.205856  0.421
  H  H1555  1  0.717501  0.876952  0.294144  0.421
  H  H1556  1  0.282499  0.876952  0.205856  0.421
  H  H1557  1  0.782499  0.623048  0.705856  0.421
  H  H1558  1  0.217501  0.623048  0.794144  0.421
  H  H1559  1  0.282499  0.123048  0.705856  0.421
  H  H1560  1  0.717501  0.123048  0.794144  0.421
  H  H1561  1  0.188785  0.326135  0.312181  0.421
  H  H1562  1  0.811215  0.326135  0.187819  0.421
  H  H1563  1  0.688785  0.826135  0.312181  0.421
  H  H1564  1  0.311215  0.826135  0.187819  0.421
  H  H1565  1  0.811215  0.673865  0.687819  0.421
  H  H1566  1  0.188785  0.673865  0.812181  0.421
  H  H1567  1  0.311215  0.173865  0.687819  0.421
  H  H1568  1  0.688785  0.173865  0.812181  0.421
  H  H1569  1  0.696898  0.505428  0.379316  0.457
  H  H1570  1  0.303102  0.505428  0.120684  0.457
  H  H1571  1  0.196898  0.005428  0.379316  0.457
  H  H1572  1  0.803102  0.005428  0.120684  0.457
  H  H1573  1  0.303102  0.494572  0.620684  0.457
  H  H1574  1  0.696898  0.494572  0.879316  0.457
  H  H1575  1  0.803102  0.994572  0.620684  0.457
  H  H1576  1  0.196898  0.994572  0.879316  0.457
  H  H1577  1  0.755049  0.532501  0.375634  0.457
  H  H1578  1  0.244951  0.532501  0.124366  0.457
  H  H1579  1  0.255049  0.032501  0.375634  0.457
  H  H1580  1  0.744951  0.032501  0.124366  0.457
  H  H1581  1  0.244951  0.467499  0.624366  0.457
  H  H1582  1  0.755049  0.467499  0.875634  0.457
  H  H1583  1  0.744951  0.967499  0.624366  0.457
  H  H1584  1  0.255049  0.967499  0.875634  0.457
  H  H1585  1  0.707287  0.619794  0.339012  0.457
  H  H1586  1  0.292713  0.619794  0.160988  0.457
  H  H1587  1  0.207287  0.119794  0.339012  0.457
  H  H1588  1  0.792713  0.119794  0.160988  0.457
  H  H1589  1  0.292713  0.380206  0.660988  0.457
  H  H1590  1  0.707287  0.380206  0.839012  0.457
  H  H1591  1  0.792713  0.880206  0.660988  0.457
  H  H1592  1  0.207287  0.880206  0.839012  0.457
  H  H1593  1  0.646973  0.596272  0.345040  0.457
  H  H1594  1  0.353027  0.596272  0.154960  0.457
  H  H1595  1  0.146973  0.096272  0.345040  0.457
  H  H1596  1  0.853027  0.096272  0.154960  0.457
  H  H1597  1  0.353027  0.403728  0.654960  0.457
  H  H1598  1  0.646973  0.403728  0.845040  0.457
  H  H1599  1  0.853027  0.903728  0.654960  0.457
  H  H1600  1  0.146973  0.903728  0.845040  0.457
  H  H1601  1  0.774874  0.605899  0.312594  0.457
  H  H1602  1  0.225126  0.605899  0.187406  0.457
  H  H1603  1  0.274874  0.105899  0.312594  0.457
  H  H1604  1  0.725126  0.105899  0.187406  0.457
  H  H1605  1  0.225126  0.394101  0.687406  0.457
  H  H1606  1  0.774874  0.394101  0.812594  0.457
  H  H1607  1  0.725126  0.894101  0.687406  0.457
  H  H1608  1  0.274874  0.894101  0.812594  0.457
  H  H1609  1  0.797574  0.629952  0.335977  0.457
  H  H1610  1  0.202426  0.629952  0.164023  0.457
  H  H1611  1  0.297574  0.129952  0.335977  0.457
  H  H1612  1  0.702426  0.129952  0.164023  0.457
  H  H1613  1  0.202426  0.370048  0.664023  0.457
  H  H1614  1  0.797574  0.370048  0.835977  0.457
  H  H1615  1  0.702426  0.870048  0.664023  0.457
  H  H1616  1  0.297574  0.870048  0.835977  0.457
  H  H1617  1  0.753462  0.633704  0.330743  0.457
  H  H1618  1  0.246538  0.633704  0.169257  0.457
  H  H1619  1  0.253462  0.133704  0.330743  0.457
  H  H1620  1  0.746538  0.133704  0.169257  0.457
  H  H1621  1  0.246538  0.366296  0.669257  0.457
  H  H1622  1  0.753462  0.366296  0.830743  0.457
  H  H1623  1  0.746538  0.866296  0.669257  0.457
  H  H1624  1  0.253462  0.866296  0.830743  0.457
  H  H1625  1  0.130867  0.210932  0.363035  0.48
  H  H1626  1  0.869133  0.210932  0.136965  0.48
  H  H1627  1  0.630867  0.710932  0.363035  0.48
  H  H1628  1  0.369133  0.710932  0.136965  0.48
  H  H1629  1  0.869133  0.789068  0.636965  0.48
  H  H1630  1  0.130867  0.789068  0.863035  0.48
  H  H1631  1  0.369133  0.289068  0.636965  0.48
  H  H1632  1  0.630867  0.289068  0.863035  0.48
  H  H1633  1  0.147549  0.227191  0.392065  0.48
  H  H1634  1  0.852451  0.227191  0.107935  0.48
  H  H1635  1  0.647549  0.727191  0.392065  0.48
  H  H1636  1  0.352451  0.727191  0.107935  0.48
  H  H1637  1  0.852451  0.772809  0.607935  0.48
  H  H1638  1  0.147549  0.772809  0.892065  0.48
  H  H1639  1  0.352451  0.272809  0.607935  0.48
  H  H1640  1  0.647549  0.272809  0.892065  0.48
  H  H1641  1  0.137045  0.184539  0.389238  0.48
  H  H1642  1  0.862955  0.184539  0.110762  0.48
  H  H1643  1  0.637045  0.684539  0.389238  0.48
  H  H1644  1  0.362955  0.684539  0.110762  0.48
  H  H1645  1  0.862955  0.815461  0.610762  0.48
  H  H1646  1  0.137045  0.815461  0.889238  0.48
  H  H1647  1  0.362955  0.315461  0.610762  0.48
  H  H1648  1  0.637045  0.315461  0.889238  0.48
  H  H1649  1  0.434910  0.218425  0.321789  0.5
  H  H1650  1  0.565090  0.218425  0.178211  0.5
  H  H1651  1  0.934910  0.718425  0.321789  0.5
  H  H1652  1  0.065090  0.718425  0.178211  0.5
  H  H1653  1  0.565090  0.781575  0.678211  0.5
  H  H1654  1  0.434910  0.781575  0.821789  0.5
  H  H1655  1  0.065090  0.281575  0.678211  0.5
  H  H1656  1  0.934910  0.281575  0.821789  0.5
  H  H1657  1  0.440025  0.197420  0.293814  0.5
  H  H1658  1  0.559975  0.197420  0.206186  0.5
  H  H1659  1  0.940025  0.697420  0.293814  0.5
  H  H1660  1  0.059975  0.697420  0.206186  0.5
  H  H1661  1  0.559975  0.802580  0.706186  0.5
  H  H1662  1  0.440025  0.802580  0.793814  0.5
  H  H1663  1  0.059975  0.302580  0.706186  0.5
  H  H1664  1  0.940025  0.302580  0.793814  0.5
  H  H1665  1  0.422121  0.158785  0.330445  0.5
  H  H1666  1  0.577879  0.158785  0.169555  0.5
  H  H1667  1  0.922121  0.658785  0.330445  0.5
  H  H1668  1  0.077879  0.658785  0.169555  0.5
  H  H1669  1  0.577879  0.841215  0.669555  0.5
  H  H1670  1  0.422121  0.841215  0.830445  0.5
  H  H1671  1  0.077879  0.341215  0.669555  0.5
  H  H1672  1  0.922121  0.341215  0.830445  0.5
  H  H1673  1  0.382897  0.178827  0.327365  0.5
  H  H1674  1  0.617103  0.178827  0.172635  0.5
  H  H1675  1  0.882897  0.678827  0.327365  0.5
  H  H1676  1  0.117103  0.678827  0.172635  0.5
  H  H1677  1  0.617103  0.821173  0.672635  0.5
  H  H1678  1  0.382897  0.821173  0.827365  0.5
  H  H1679  1  0.117103  0.321173  0.672635  0.5
  H  H1680  1  0.882897  0.321173  0.827365  0.5
  H  H1681  1  0.409197  0.133164  0.286716  0.5
  H  H1682  1  0.590803  0.133164  0.213284  0.5
  H  H1683  1  0.909197  0.633164  0.286716  0.5
  H  H1684  1  0.090803  0.633164  0.213284  0.5
  H  H1685  1  0.590803  0.866836  0.713284  0.5
  H  H1686  1  0.409197  0.866836  0.786716  0.5
  H  H1687  1  0.090803  0.366836  0.713284  0.5
  H  H1688  1  0.909197  0.366836  0.786716  0.5
  H  H1689  1  0.380951  0.120195  0.307533  0.5
  H  H1690  1  0.619049  0.120195  0.192467  0.5
  H  H1691  1  0.880951  0.620195  0.307533  0.5
  H  H1692  1  0.119049  0.620195  0.192467  0.5
  H  H1693  1  0.619049  0.879805  0.692467  0.5
  H  H1694  1  0.380951  0.879805  0.807533  0.5
  H  H1695  1  0.119049  0.379805  0.692467  0.5
  H  H1696  1  0.880951  0.379805  0.807533  0.5
  H  H1697  1  0.342721  0.171182  0.282722  0.5
  H  H1698  1  0.657279  0.171182  0.217278  0.5
  H  H1699  1  0.842721  0.671182  0.282722  0.5
  H  H1700  1  0.157279  0.671182  0.217278  0.5
  H  H1701  1  0.657279  0.828818  0.717278  0.5
  H  H1702  1  0.342721  0.828818  0.782722  0.5
  H  H1703  1  0.157279  0.328818  0.717278  0.5
  H  H1704  1  0.842721  0.328818  0.782722  0.5
  H  H1705  1  0.339763  0.128856  0.274103  0.5
  H  H1706  1  0.660237  0.128856  0.225897  0.5
  H  H1707  1  0.839763  0.628856  0.274103  0.5
  H  H1708  1  0.160237  0.628856  0.225897  0.5
  H  H1709  1  0.660237  0.871144  0.725897  0.5
  H  H1710  1  0.339763  0.871144  0.774103  0.5
  H  H1711  1  0.160237  0.371144  0.725897  0.5
  H  H1712  1  0.839763  0.371144  0.774103  0.5
  H  H1713  1  0.345193  0.167413  0.235482  0.5
  H  H1714  1  0.654807  0.167413  0.264518  0.5
  H  H1715  1  0.845193  0.667413  0.235482  0.5
  H  H1716  1  0.154807  0.667413  0.264518  0.5
  H  H1717  1  0.654807  0.832587  0.764518  0.5
  H  H1718  1  0.345193  0.832587  0.735482  0.5
  H  H1719  1  0.154807  0.332587  0.764518  0.5
  H  H1720  1  0.845193  0.332587  0.735482  0.5
  H  H1721  1  0.378189  0.138058  0.239314  0.5
  H  H1722  1  0.621811  0.138058  0.260686  0.5
  H  H1723  1  0.878189  0.638058  0.239314  0.5
  H  H1724  1  0.121811  0.638058  0.260686  0.5
  H  H1725  1  0.621811  0.861942  0.760686  0.5
  H  H1726  1  0.378189  0.861942  0.739314  0.5
  H  H1727  1  0.121811  0.361942  0.760686  0.5
  H  H1728  1  0.878189  0.361942  0.739314  0.5
  H  H1729  1  0.419843  0.183179  0.258611  0.5
  H  H1730  1  0.580157  0.183179  0.241389  0.5
  H  H1731  1  0.919843  0.683179  0.258611  0.5
  H  H1732  1  0.080157  0.683179  0.241389  0.5
  H  H1733  1  0.580157  0.816821  0.741389  0.5
  H  H1734  1  0.419843  0.816821  0.758611  0.5
  H  H1735  1  0.080157  0.316821  0.741389  0.5
  H  H1736  1  0.919843  0.316821  0.758611  0.5
  H  H1737  1  0.401064  0.198300  0.229761  0.5
  H  H1738  1  0.598936  0.198300  0.270239  0.5
  H  H1739  1  0.901064  0.698300  0.229761  0.5
  H  H1740  1  0.098936  0.698300  0.270239  0.5
  H  H1741  1  0.598936  0.801700  0.770239  0.5
  H  H1742  1  0.401064  0.801700  0.729761  0.5
  H  H1743  1  0.098936  0.301700  0.770239  0.5
  H  H1744  1  0.901064  0.301700  0.729761  0.5
  H  H1745  1  0.430132  0.337580  0.272119  0.5
  H  H1746  1  0.569868  0.337580  0.227881  0.5
  H  H1747  1  0.930132  0.837580  0.272119  0.5
  H  H1748  1  0.069868  0.837580  0.227881  0.5
  H  H1749  1  0.569868  0.662420  0.727881  0.5
  H  H1750  1  0.430132  0.662420  0.772119  0.5
  H  H1751  1  0.069868  0.162420  0.727881  0.5
  H  H1752  1  0.930132  0.162420  0.772119  0.5
  H  H1753  1  0.436413  0.323499  0.303112  0.5
  H  H1754  1  0.563587  0.323499  0.196888  0.5
  H  H1755  1  0.936413  0.823499  0.303112  0.5
  H  H1756  1  0.063587  0.823499  0.196888  0.5
  H  H1757  1  0.563587  0.676501  0.696888  0.5
  H  H1758  1  0.436413  0.676501  0.803112  0.5
  H  H1759  1  0.063587  0.176501  0.696888  0.5
  H  H1760  1  0.936413  0.176501  0.803112  0.5
  H  H1761  1  0.386111  0.359417  0.314658  0.5
  H  H1762  1  0.613889  0.359417  0.185342  0.5
  H  H1763  1  0.886111  0.859417  0.314658  0.5
  H  H1764  1  0.113889  0.859417  0.185342  0.5
  H  H1765  1  0.613889  0.640583  0.685342  0.5
  H  H1766  1  0.386111  0.640583  0.814658  0.5
  H  H1767  1  0.113889  0.140583  0.685342  0.5
  H  H1768  1  0.886111  0.140583  0.814658  0.5
  H  H1769  1  0.416080  0.384932  0.302123  0.5
  H  H1770  1  0.583920  0.384932  0.197877  0.5
  H  H1771  1  0.916080  0.884932  0.302123  0.5
  H  H1772  1  0.083920  0.884932  0.197877  0.5
  H  H1773  1  0.583920  0.615068  0.697877  0.5
  H  H1774  1  0.416080  0.615068  0.802123  0.5
  H  H1775  1  0.083920  0.115068  0.697877  0.5
  H  H1776  1  0.916080  0.115068  0.802123  0.5
  H  H1777  1  0.346304  0.363275  0.277705  0.5
  H  H1778  1  0.653696  0.363275  0.222295  0.5
  H  H1779  1  0.846304  0.863275  0.277705  0.5
  H  H1780  1  0.153696  0.863275  0.222295  0.5
  H  H1781  1  0.653696  0.636725  0.722295  0.5
  H  H1782  1  0.346304  0.636725  0.777705  0.5
  H  H1783  1  0.153696  0.136725  0.722295  0.5
  H  H1784  1  0.846304  0.136725  0.777705  0.5
  H  H1785  1  0.361340  0.403900  0.282626  0.5
  H  H1786  1  0.638660  0.403900  0.217374  0.5
  H  H1787  1  0.861340  0.903900  0.282626  0.5
  H  H1788  1  0.138660  0.903900  0.217374  0.5
  H  H1789  1  0.638660  0.596100  0.717374  0.5
  H  H1790  1  0.361340  0.596100  0.782626  0.5
  H  H1791  1  0.138660  0.096100  0.717374  0.5
  H  H1792  1  0.861340  0.096100  0.782626  0.5
  H  H1793  1  0.399078  0.388239  0.245821  0.5
  H  H1794  1  0.600922  0.388239  0.254179  0.5
  H  H1795  1  0.899078  0.888239  0.245821  0.5
  H  H1796  1  0.100922  0.888239  0.254179  0.5
  H  H1797  1  0.600922  0.611761  0.754179  0.5
  H  H1798  1  0.399078  0.611761  0.745821  0.5
  H  H1799  1  0.100922  0.111761  0.754179  0.5
  H  H1800  1  0.899078  0.111761  0.745821  0.5
  H  H1801  1  0.358285  0.404355  0.240381  0.5
  H  H1802  1  0.641715  0.404355  0.259619  0.5
  H  H1803  1  0.858285  0.904355  0.240381  0.5
  H  H1804  1  0.141715  0.904355  0.259619  0.5
  H  H1805  1  0.641715  0.595645  0.759619  0.5
  H  H1806  1  0.358285  0.595645  0.740381  0.5
  H  H1807  1  0.141715  0.095645  0.759619  0.5
  H  H1808  1  0.858285  0.095645  0.740381  0.5
  H  H1809  1  0.362349  0.360647  0.208148  0.5
  H  H1810  1  0.637651  0.360647  0.291852  0.5
  H  H1811  1  0.862349  0.860647  0.208148  0.5
  H  H1812  1  0.137651  0.860647  0.291852  0.5
  H  H1813  1  0.637651  0.639353  0.791852  0.5
  H  H1814  1  0.362349  0.639353  0.708148  0.5
  H  H1815  1  0.137651  0.139353  0.791852  0.5
  H  H1816  1  0.862349  0.139353  0.708148  0.5
  H  H1817  1  0.336572  0.343202  0.229336  0.5
  H  H1818  1  0.663428  0.343202  0.270664  0.5
  H  H1819  1  0.836572  0.843202  0.229336  0.5
  H  H1820  1  0.163428  0.843202  0.270664  0.5
  H  H1821  1  0.663428  0.656798  0.770664  0.5
  H  H1822  1  0.336572  0.656798  0.729336  0.5
  H  H1823  1  0.163428  0.156798  0.770664  0.5
  H  H1824  1  0.836572  0.156798  0.729336  0.5
  H  H1825  1  0.387234  0.304364  0.213458  0.5
  H  H1826  1  0.612766  0.304364  0.286542  0.5
  H  H1827  1  0.887234  0.804364  0.213458  0.5
  H  H1828  1  0.112766  0.804364  0.286542  0.5
  H  H1829  1  0.612766  0.695636  0.786542  0.5
  H  H1830  1  0.387234  0.695636  0.713458  0.5
  H  H1831  1  0.112766  0.195636  0.786542  0.5
  H  H1832  1  0.887234  0.195636  0.713458  0.5
  H  H1833  1  0.413860  0.326931  0.235476  0.5
  H  H1834  1  0.586140  0.326931  0.264524  0.5
  H  H1835  1  0.913860  0.826931  0.235476  0.5
  H  H1836  1  0.086140  0.826931  0.264524  0.5
  H  H1837  1  0.586140  0.673069  0.764524  0.5
  H  H1838  1  0.413860  0.673069  0.735476  0.5
  H  H1839  1  0.086140  0.173069  0.764524  0.5
  H  H1840  1  0.913860  0.173069  0.735476  0.5
  H  H1841  1  0.575524  0.337232  0.243663  0.5
  H  H1842  1  0.424476  0.337232  0.256337  0.5
  H  H1843  1  0.075524  0.837232  0.243663  0.5
  H  H1844  1  0.924476  0.837232  0.256337  0.5
  H  H1845  1  0.424476  0.662768  0.756337  0.5
  H  H1846  1  0.575524  0.662768  0.743663  0.5
  H  H1847  1  0.924476  0.162768  0.756337  0.5
  H  H1848  1  0.075524  0.162768  0.743663  0.5
  H  H1849  1  0.574185  0.342242  0.275974  0.5
  H  H1850  1  0.425815  0.342242  0.224026  0.5
  H  H1851  1  0.074185  0.842242  0.275974  0.5
  H  H1852  1  0.925815  0.842242  0.224026  0.5
  H  H1853  1  0.425815  0.657758  0.724026  0.5
  H  H1854  1  0.574185  0.657758  0.775974  0.5
  H  H1855  1  0.925815  0.157758  0.724026  0.5
  H  H1856  1  0.074185  0.157758  0.775974  0.5
  H  H1857  1  0.608510  0.397749  0.275112  0.5
  H  H1858  1  0.391490  0.397749  0.224888  0.5
  H  H1859  1  0.108510  0.897749  0.275112  0.5
  H  H1860  1  0.891490  0.897749  0.224888  0.5
  H  H1861  1  0.391490  0.602251  0.724888  0.5
  H  H1862  1  0.608510  0.602251  0.775112  0.5
  H  H1863  1  0.891490  0.102251  0.724888  0.5
  H  H1864  1  0.108510  0.102251  0.775112  0.5
  H  H1865  1  0.631356  0.364515  0.263671  0.5
  H  H1866  1  0.368644  0.364515  0.236329  0.5
  H  H1867  1  0.131356  0.864515  0.263671  0.5
  H  H1868  1  0.868644  0.864515  0.236329  0.5
  H  H1869  1  0.368644  0.635485  0.736329  0.5
  H  H1870  1  0.631356  0.635485  0.763671  0.5
  H  H1871  1  0.868644  0.135485  0.736329  0.5
  H  H1872  1  0.131356  0.135485  0.763671  0.5
  H  H1873  1  0.594621  0.422146  0.233498  0.5
  H  H1874  1  0.405379  0.422146  0.266502  0.5
  H  H1875  1  0.094621  0.922146  0.233498  0.5
  H  H1876  1  0.905379  0.922146  0.266502  0.5
  H  H1877  1  0.405379  0.577854  0.766502  0.5
  H  H1878  1  0.594621  0.577854  0.733498  0.5
  H  H1879  1  0.905379  0.077854  0.766502  0.5
  H  H1880  1  0.094621  0.077854  0.733498  0.5
  H  H1881  1  0.637290  0.411786  0.234820  0.5
  H  H1882  1  0.362710  0.411786  0.265180  0.5
  H  H1883  1  0.137290  0.911786  0.234820  0.5
  H  H1884  1  0.862710  0.911786  0.265180  0.5
  H  H1885  1  0.362710  0.588214  0.765180  0.5
  H  H1886  1  0.637290  0.588214  0.734820  0.5
  H  H1887  1  0.862710  0.088214  0.765180  0.5
  H  H1888  1  0.137290  0.088214  0.734820  0.5
  H  H1889  1  0.614082  0.357679  0.208271  0.5
  H  H1890  1  0.385918  0.357679  0.291729  0.5
  H  H1891  1  0.114082  0.857679  0.208271  0.5
  H  H1892  1  0.885918  0.857679  0.291729  0.5
  H  H1893  1  0.385918  0.642321  0.791729  0.5
  H  H1894  1  0.614082  0.642321  0.708271  0.5
  H  H1895  1  0.885918  0.142321  0.791729  0.5
  H  H1896  1  0.114082  0.142321  0.708271  0.5
  H  H1897  1  0.621833  0.395707  0.193987  0.5
  H  H1898  1  0.378167  0.395707  0.306013  0.5
  H  H1899  1  0.121833  0.895707  0.193987  0.5
  H  H1900  1  0.878167  0.895707  0.306013  0.5
  H  H1901  1  0.378167  0.604293  0.806013  0.5
  H  H1902  1  0.621833  0.604293  0.693987  0.5
  H  H1903  1  0.878167  0.104293  0.806013  0.5
  H  H1904  1  0.121833  0.104293  0.693987  0.5
  H  H1905  1  0.569013  0.372007  0.171730  0.5
  H  H1906  1  0.430987  0.372007  0.328270  0.5
  H  H1907  1  0.069013  0.872007  0.171730  0.5
  H  H1908  1  0.930987  0.872007  0.328270  0.5
  H  H1909  1  0.430987  0.627993  0.828270  0.5
  H  H1910  1  0.569013  0.627993  0.671730  0.5
  H  H1911  1  0.930987  0.127993  0.828270  0.5
  H  H1912  1  0.069013  0.127993  0.671730  0.5
  H  H1913  1  0.557352  0.407552  0.187865  0.5
  H  H1914  1  0.442648  0.407552  0.312135  0.5
  H  H1915  1  0.057352  0.907552  0.187865  0.5
  H  H1916  1  0.942648  0.907552  0.312135  0.5
  H  H1917  1  0.442648  0.592448  0.812135  0.5
  H  H1918  1  0.557352  0.592448  0.687865  0.5
  H  H1919  1  0.942648  0.092448  0.812135  0.5
  H  H1920  1  0.057352  0.092448  0.687865  0.5
  H  H1921  1  0.517555  0.352484  0.188893  0.5
  H  H1922  1  0.482445  0.352484  0.311107  0.5
  H  H1923  1  0.017555  0.852484  0.188893  0.5
  H  H1924  1  0.982445  0.852484  0.311107  0.5
  H  H1925  1  0.482445  0.647516  0.811107  0.5
  H  H1926  1  0.517555  0.647516  0.688893  0.5
  H  H1927  1  0.982445  0.147516  0.811107  0.5
  H  H1928  1  0.017555  0.147516  0.688893  0.5
  H  H1929  1  0.549227  0.336114  0.210532  0.5
  H  H1930  1  0.450773  0.336114  0.289468  0.5
  H  H1931  1  0.049227  0.836114  0.210532  0.5
  H  H1932  1  0.950773  0.836114  0.289468  0.5
  H  H1933  1  0.450773  0.663886  0.789468  0.5
  H  H1934  1  0.549227  0.663886  0.710532  0.5
  H  H1935  1  0.950773  0.163886  0.789468  0.5
  H  H1936  1  0.049227  0.163886  0.710532  0.5
  H  H1937  1  0.590709  0.087203  0.266148  0.5
  H  H1938  1  0.409291  0.087203  0.233852  0.5
  H  H1939  1  0.090709  0.587203  0.266148  0.5
  H  H1940  1  0.909291  0.587203  0.233852  0.5
  H  H1941  1  0.409291  0.912797  0.733852  0.5
  H  H1942  1  0.590709  0.912797  0.766148  0.5
  H  H1943  1  0.909291  0.412797  0.733852  0.5
  H  H1944  1  0.090709  0.412797  0.766148  0.5
  H  H1945  1  0.576252  0.095216  0.295266  0.5
  H  H1946  1  0.423748  0.095216  0.204734  0.5
  H  H1947  1  0.076252  0.595216  0.295266  0.5
  H  H1948  1  0.923748  0.595216  0.204734  0.5
  H  H1949  1  0.423748  0.904784  0.704734  0.5
  H  H1950  1  0.576252  0.904784  0.795266  0.5
  H  H1951  1  0.923748  0.404784  0.704734  0.5
  H  H1952  1  0.076252  0.404784  0.795266  0.5
  H  H1953  1  0.629391  0.136609  0.245556  0.5
  H  H1954  1  0.370609  0.136609  0.254444  0.5
  H  H1955  1  0.129391  0.636609  0.245556  0.5
  H  H1956  1  0.870609  0.636609  0.254444  0.5
  H  H1957  1  0.370609  0.863391  0.754444  0.5
  H  H1958  1  0.629391  0.863391  0.745556  0.5
  H  H1959  1  0.870609  0.363391  0.754444  0.5
  H  H1960  1  0.129391  0.363391  0.745556  0.5
  H  H1961  1  0.633098  0.176122  0.259464  0.5
  H  H1962  1  0.366902  0.176122  0.240536  0.5
  H  H1963  1  0.133098  0.676122  0.259464  0.5
  H  H1964  1  0.866902  0.676122  0.240536  0.5
  H  H1965  1  0.366902  0.823878  0.740536  0.5
  H  H1966  1  0.633098  0.823878  0.759464  0.5
  H  H1967  1  0.866902  0.323878  0.740536  0.5
  H  H1968  1  0.133098  0.323878  0.759464  0.5
  H  H1969  1  0.560960  0.154179  0.192563  0.5
  H  H1970  1  0.439040  0.154179  0.307437  0.5
  H  H1971  1  0.060960  0.654179  0.192563  0.5
  H  H1972  1  0.939040  0.654179  0.307437  0.5
  H  H1973  1  0.439040  0.845821  0.807437  0.5
  H  H1974  1  0.560960  0.845821  0.692563  0.5
  H  H1975  1  0.939040  0.345821  0.807437  0.5
  H  H1976  1  0.060960  0.345821  0.692563  0.5
  H  H1977  1  0.602606  0.139262  0.198114  0.5
  H  H1978  1  0.397394  0.139262  0.301886  0.5
  H  H1979  1  0.102606  0.639262  0.198114  0.5
  H  H1980  1  0.897394  0.639262  0.301886  0.5
  H  H1981  1  0.397394  0.860738  0.801886  0.5
  H  H1982  1  0.602606  0.860738  0.698114  0.5
  H  H1983  1  0.897394  0.360738  0.801886  0.5
  H  H1984  1  0.102606  0.360738  0.698114  0.5
  H  H1985  1  0.586634  0.160109  0.287523  0.5
  H  H1986  1  0.413366  0.160109  0.212477  0.5
  H  H1987  1  0.086634  0.660109  0.287523  0.5
  H  H1988  1  0.913366  0.660109  0.212477  0.5
  H  H1989  1  0.413366  0.839891  0.712477  0.5
  H  H1990  1  0.586634  0.839891  0.787523  0.5
  H  H1991  1  0.913366  0.339891  0.712477  0.5
  H  H1992  1  0.086634  0.339891  0.787523  0.5
  H  H1993  1  0.623266  0.135890  0.292850  0.5
  H  H1994  1  0.376734  0.135890  0.207150  0.5
  H  H1995  1  0.123266  0.635890  0.292850  0.5
  H  H1996  1  0.876734  0.635890  0.207150  0.5
  H  H1997  1  0.376734  0.864110  0.707150  0.5
  H  H1998  1  0.623266  0.864110  0.792850  0.5
  H  H1999  1  0.876734  0.364110  0.707150  0.5
  H  H2000  1  0.123266  0.364110  0.792850  0.5
  H  H2001  1  0.597538  0.194908  0.223370  0.5
  H  H2002  1  0.402462  0.194908  0.276630  0.5
  H  H2003  1  0.097538  0.694908  0.223370  0.5
  H  H2004  1  0.902462  0.694908  0.276630  0.5
  H  H2005  1  0.402462  0.805092  0.776630  0.5
  H  H2006  1  0.597538  0.805092  0.723370  0.5
  H  H2007  1  0.902462  0.305092  0.776630  0.5
  H  H2008  1  0.097538  0.305092  0.723370  0.5
  H  H2009  1  0.563874  0.178215  0.238121  0.5
  H  H2010  1  0.436126  0.178215  0.261879  0.5
  H  H2011  1  0.063874  0.678215  0.238121  0.5
  H  H2012  1  0.936126  0.678215  0.261879  0.5
  H  H2013  1  0.436126  0.821785  0.761879  0.5
  H  H2014  1  0.563874  0.821785  0.738121  0.5
  H  H2015  1  0.936126  0.321785  0.761879  0.5
  H  H2016  1  0.063874  0.321785  0.738121  0.5
  H  H2017  1  0.557170  0.091323  0.201293  0.5
  H  H2018  1  0.442830  0.091323  0.298707  0.5
  H  H2019  1  0.057170  0.591323  0.201293  0.5
  H  H2020  1  0.942830  0.591323  0.298707  0.5
  H  H2021  1  0.442830  0.908677  0.798707  0.5
  H  H2022  1  0.557170  0.908677  0.701293  0.5
  H  H2023  1  0.942830  0.408677  0.798707  0.5
  H  H2024  1  0.057170  0.408677  0.701293  0.5
  H  H2025  1  0.585554  0.094613  0.228381  0.5
  H  H2026  1  0.414446  0.094613  0.271619  0.5
  H  H2027  1  0.085554  0.594613  0.228381  0.5
  H  H2028  1  0.914446  0.594613  0.271619  0.5
  H  H2029  1  0.414446  0.905387  0.771619  0.5
  H  H2030  1  0.585554  0.905387  0.728381  0.5
  H  H2031  1  0.914446  0.405387  0.771619  0.5
  H  H2032  1  0.085554  0.405387  0.728381  0.5
  H  H2033  1  0.202176  0.183939  0.425725  0.5
  H  H2034  1  0.797824  0.183939  0.074275  0.5
  H  H2035  1  0.702176  0.683939  0.425725  0.5
  H  H2036  1  0.297824  0.683939  0.074275  0.5
  H  H2037  1  0.797824  0.816061  0.574275  0.5
  H  H2038  1  0.202176  0.816061  0.925725  0.5
  H  H2039  1  0.297824  0.316061  0.574275  0.5
  H  H2040  1  0.702176  0.316061  0.925725  0.5
  H  H2041  1  0.214385  0.185380  0.473550  0.5
  H  H2042  1  0.785615  0.185380  0.026450  0.5
  H  H2043  1  0.714385  0.685380  0.473550  0.5
  H  H2044  1  0.285615  0.685380  0.026450  0.5
  H  H2045  1  0.785615  0.814620  0.526450  0.5
  H  H2046  1  0.214385  0.814620  0.973550  0.5
  H  H2047  1  0.285615  0.314620  0.526450  0.5
  H  H2048  1  0.714385  0.314620  0.973550  0.5
  H  H2049  1  0.215258  0.130686  0.498738  0.5
  H  H2050  1  0.784742  0.130686  0.001262  0.5
  H  H2051  1  0.715258  0.630686  0.498738  0.5
  H  H2052  1  0.284742  0.630686  0.001262  0.5
  H  H2053  1  0.784742  0.869314  0.501262  0.5
  H  H2054  1  0.215258  0.869314  0.998738  0.5
  H  H2055  1  0.284742  0.369314  0.501262  0.5
  H  H2056  1  0.715258  0.369314  0.998738  0.5
  H  H2057  1  0.203922  0.074549  0.476102  0.5
  H  H2058  1  0.796078  0.074549  0.023898  0.5
  H  H2059  1  0.703922  0.574549  0.476102  0.5
  H  H2060  1  0.296078  0.574549  0.023898  0.5
  H  H2061  1  0.796078  0.925451  0.523898  0.5
  H  H2062  1  0.203922  0.925451  0.976102  0.5
  H  H2063  1  0.296078  0.425451  0.523898  0.5
  H  H2064  1  0.703922  0.425451  0.976102  0.5
  H  H2065  1  0.191713  0.073107  0.428277  0.5
  H  H2066  1  0.808287  0.073107  0.071723  0.5
  H  H2067  1  0.691713  0.573107  0.428277  0.5
  H  H2068  1  0.308287  0.573107  0.071723  0.5
  H  H2069  1  0.808287  0.926893  0.571723  0.5
  H  H2070  1  0.191713  0.926893  0.928277  0.5
  H  H2071  1  0.308287  0.426893  0.571723  0.5
  H  H2072  1  0.691713  0.426893  0.928277  0.5
  H  H2073  1  0.190840  0.127802  0.403088  0.5
  H  H2074  1  0.809160  0.127802  0.096912  0.5
  H  H2075  1  0.690840  0.627802  0.403088  0.5
  H  H2076  1  0.309160  0.627802  0.096912  0.5
  H  H2077  1  0.809160  0.872198  0.596912  0.5
  H  H2078  1  0.190840  0.872198  0.903088  0.5
  H  H2079  1  0.309160  0.372198  0.596912  0.5
  H  H2080  1  0.690840  0.372198  0.903088  0.5
  H  H2081  1  0.539541  0.461023  0.238281  0.5
  H  H2082  1  0.460459  0.461023  0.261719  0.5
  H  H2083  1  0.039541  0.961023  0.238281  0.5
  H  H2084  1  0.960459  0.961023  0.261719  0.5
  H  H2085  1  0.460459  0.538977  0.761719  0.5
  H  H2086  1  0.539541  0.538977  0.738281  0.5
  H  H2087  1  0.960459  0.038977  0.761719  0.5
  H  H2088  1  0.039541  0.038977  0.738281  0.5
  H  H2089  1  0.591306  0.492507  0.225507  0.5
  H  H2090  1  0.408694  0.492507  0.274493  0.5
  H  H2091  1  0.091306  0.992507  0.225507  0.5
  H  H2092  1  0.908694  0.992507  0.274493  0.5
  H  H2093  1  0.408694  0.507493  0.774493  0.5
  H  H2094  1  0.591306  0.507493  0.725507  0.5
  H  H2095  1  0.908694  0.007493  0.774493  0.5
  H  H2096  1  0.091306  0.007493  0.725507  0.5
  H  H2097  1  0.593545  0.556722  0.227888  0.5
  H  H2098  1  0.406455  0.556722  0.272112  0.5
  H  H2099  1  0.093545  0.056722  0.227888  0.5
  H  H2100  1  0.906455  0.056722  0.272112  0.5
  H  H2101  1  0.406455  0.443278  0.772112  0.5
  H  H2102  1  0.593545  0.443278  0.727888  0.5
  H  H2103  1  0.906455  0.943278  0.772112  0.5
  H  H2104  1  0.093545  0.943278  0.727888  0.5
  H  H2105  1  0.544018  0.589451  0.243044  0.5
  H  H2106  1  0.455982  0.589451  0.256956  0.5
  H  H2107  1  0.044018  0.089451  0.243044  0.5
  H  H2108  1  0.955982  0.089451  0.256956  0.5
  H  H2109  1  0.455982  0.410549  0.756956  0.5
  H  H2110  1  0.544018  0.410549  0.743044  0.5
  H  H2111  1  0.955982  0.910549  0.756956  0.5
  H  H2112  1  0.044018  0.910549  0.743044  0.5
  H  H2113  1  0.492253  0.557967  0.255818  0.5
  H  H2114  1  0.507747  0.557967  0.244182  0.5
  H  H2115  1  0.992253  0.057967  0.255818  0.5
  H  H2116  1  0.007747  0.057967  0.244182  0.5
  H  H2117  1  0.507747  0.442033  0.744182  0.5
  H  H2118  1  0.492253  0.442033  0.755818  0.5
  H  H2119  1  0.007747  0.942033  0.744182  0.5
  H  H2120  1  0.992253  0.942033  0.755818  0.5
  H  H2121  1  0.490014  0.493753  0.253437  0.5
  H  H2122  1  0.509986  0.493753  0.246563  0.5
  H  H2123  1  0.990014  0.993753  0.253437  0.5
  H  H2124  1  0.009986  0.993753  0.246563  0.5
  H  H2125  1  0.509986  0.506247  0.746563  0.5
  H  H2126  1  0.490014  0.506247  0.753437  0.5
  H  H2127  1  0.009986  0.006247  0.746563  0.5
  H  H2128  1  0.990014  0.006247  0.753437  0.5
  H  H2129  1  0.545022  0.473350  0.177948  0.5
  H  H2130  1  0.454978  0.473350  0.322052  0.5
  H  H2131  1  0.045022  0.973350  0.177948  0.5
  H  H2132  1  0.954978  0.973350  0.322052  0.5
  H  H2133  1  0.454978  0.526650  0.822052  0.5
  H  H2134  1  0.545022  0.526650  0.677948  0.5
  H  H2135  1  0.954978  0.026650  0.822052  0.5
  H  H2136  1  0.045022  0.026650  0.677948  0.5
  H  H2137  1  0.522938  0.468101  0.204303  0.5
  H  H2138  1  0.477062  0.468101  0.295697  0.5
  H  H2139  1  0.022938  0.968101  0.204303  0.5
  H  H2140  1  0.977062  0.968101  0.295697  0.5
  H  H2141  1  0.477062  0.531899  0.795697  0.5
  H  H2142  1  0.522938  0.531899  0.704303  0.5
  H  H2143  1  0.977062  0.031899  0.795697  0.5
  H  H2144  1  0.022938  0.031899  0.704303  0.5
  H  H2145  1  0.557614  0.442288  0.200100  0.5
  H  H2146  1  0.442386  0.442288  0.299900  0.5
  H  H2147  1  0.057614  0.942288  0.200100  0.5
  H  H2148  1  0.942386  0.942288  0.299900  0.5
  H  H2149  1  0.442386  0.557712  0.799900  0.5
  H  H2150  1  0.557614  0.557712  0.700100  0.5
  H  H2151  1  0.942386  0.057712  0.799900  0.5
  H  H2152  1  0.057614  0.057712  0.700100  0.5
  H  H2153  1  0.180532  0.156234  0.346408  0.52
  H  H2154  1  0.819468  0.156234  0.153592  0.52
  H  H2155  1  0.680532  0.656234  0.346408  0.52
  H  H2156  1  0.319468  0.656234  0.153592  0.52
  H  H2157  1  0.819468  0.843766  0.653592  0.52
  H  H2158  1  0.180532  0.843766  0.846408  0.52
  H  H2159  1  0.319468  0.343766  0.653592  0.52
  H  H2160  1  0.680532  0.343766  0.846408  0.52
  H  H2161  1  0.178542  0.143295  0.377435  0.52
  H  H2162  1  0.821458  0.143295  0.122565  0.52
  H  H2163  1  0.678542  0.643295  0.377435  0.52
  H  H2164  1  0.321458  0.643295  0.122565  0.52
  H  H2165  1  0.821458  0.856705  0.622565  0.52
  H  H2166  1  0.178542  0.856705  0.877435  0.52
  H  H2167  1  0.321458  0.356705  0.622565  0.52
  H  H2168  1  0.678542  0.356705  0.877435  0.52
  H  H2169  1  0.217368  0.155326  0.367409  0.52
  H  H2170  1  0.782632  0.155326  0.132591  0.52
  H  H2171  1  0.717368  0.655326  0.367409  0.52
  H  H2172  1  0.282632  0.655326  0.132591  0.52
  H  H2173  1  0.782632  0.844674  0.632591  0.52
  H  H2174  1  0.217368  0.844674  0.867409  0.52
  H  H2175  1  0.282632  0.344674  0.632591  0.52
  H  H2176  1  0.717368  0.344674  0.867409  0.52
  H  H2177  1  0.562849  0.204091  0.428258  0.54
  H  H2178  1  0.437151  0.204091  0.071742  0.54
  H  H2179  1  0.062849  0.704091  0.428258  0.54
  H  H2180  1  0.937151  0.704091  0.071742  0.54
  H  H2181  1  0.437151  0.795909  0.571742  0.54
  H  H2182  1  0.562849  0.795909  0.928258  0.54
  H  H2183  1  0.937151  0.295909  0.571742  0.54
  H  H2184  1  0.062849  0.295909  0.928258  0.54
  H  H2185  1  0.606808  0.206189  0.434883  0.54
  H  H2186  1  0.393192  0.206189  0.065117  0.54
  H  H2187  1  0.106808  0.706189  0.434883  0.54
  H  H2188  1  0.893192  0.706189  0.065117  0.54
  H  H2189  1  0.393192  0.793811  0.565117  0.54
  H  H2190  1  0.606808  0.793811  0.934883  0.54
  H  H2191  1  0.893192  0.293811  0.565117  0.54
  H  H2192  1  0.106808  0.293811  0.934883  0.54
  H  H2193  1  0.562312  0.212028  0.478539  0.54
  H  H2194  1  0.437688  0.212028  0.021461  0.54
  H  H2195  1  0.062312  0.712028  0.478539  0.54
  H  H2196  1  0.937688  0.712028  0.021461  0.54
  H  H2197  1  0.437688  0.787972  0.521461  0.54
  H  H2198  1  0.562312  0.787972  0.978539  0.54
  H  H2199  1  0.937688  0.287972  0.521461  0.54
  H  H2200  1  0.062312  0.287972  0.978539  0.54
  H  H2201  1  0.604523  0.198984  0.479932  0.54
  H  H2202  1  0.395477  0.198984  0.020068  0.54
  H  H2203  1  0.104523  0.698984  0.479932  0.54
  H  H2204  1  0.895477  0.698984  0.020068  0.54
  H  H2205  1  0.395477  0.801016  0.520068  0.54
  H  H2206  1  0.604523  0.801016  0.979932  0.54
  H  H2207  1  0.895477  0.301016  0.520068  0.54
  H  H2208  1  0.104523  0.301016  0.979932  0.54
  H  H2209  1  0.543227  0.155620  0.475460  0.54
  H  H2210  1  0.456773  0.155620  0.024540  0.54
  H  H2211  1  0.043227  0.655620  0.475460  0.54
  H  H2212  1  0.956773  0.655620  0.024540  0.54
  H  H2213  1  0.456773  0.844380  0.524540  0.54
  H  H2214  1  0.543227  0.844380  0.975460  0.54
  H  H2215  1  0.956773  0.344380  0.524540  0.54
  H  H2216  1  0.043227  0.344380  0.975460  0.54
  H  H2217  1  0.564282  0.149077  0.448737  0.54
  H  H2218  1  0.435718  0.149077  0.051263  0.54
  H  H2219  1  0.064282  0.649077  0.448737  0.54
  H  H2220  1  0.935718  0.649077  0.051263  0.54
  H  H2221  1  0.435718  0.850923  0.551263  0.54
  H  H2222  1  0.564282  0.850923  0.948737  0.54
  H  H2223  1  0.935718  0.350923  0.551263  0.54
  H  H2224  1  0.064282  0.350923  0.948737  0.54
  H  H2225  1  0.585931  0.107278  0.483272  0.54
  H  H2226  1  0.414069  0.107278  0.016728  0.54
  H  H2227  1  0.085931  0.607278  0.483272  0.54
  H  H2228  1  0.914069  0.607278  0.016728  0.54
  H  H2229  1  0.414069  0.892722  0.516728  0.54
  H  H2230  1  0.585931  0.892722  0.983272  0.54
  H  H2231  1  0.914069  0.392722  0.516728  0.54
  H  H2232  1  0.085931  0.392722  0.983272  0.54
  H  H2233  1  0.618986  0.134035  0.476902  0.54
  H  H2234  1  0.381014  0.134035  0.023098  0.54
  H  H2235  1  0.118986  0.634035  0.476902  0.54
  H  H2236  1  0.881014  0.634035  0.023098  0.54
  H  H2237  1  0.381014  0.865965  0.523098  0.54
  H  H2238  1  0.618986  0.865965  0.976902  0.54
  H  H2239  1  0.881014  0.365965  0.523098  0.54
  H  H2240  1  0.118986  0.365965  0.976902  0.54
  H  H2241  1  0.597938  0.140576  0.503618  0.54
  H  H2242  1  0.402062  0.140576  0.996382  0.54
  H  H2243  1  0.097938  0.640576  0.503618  0.54
  H  H2244  1  0.902062  0.640576  0.996382  0.54
  H  H2245  1  0.402062  0.859424  0.496382  0.54
  H  H2246  1  0.597938  0.859424  0.003618  0.54
  H  H2247  1  0.902062  0.359424  0.496382  0.54
  H  H2248  1  0.097938  0.359424  0.003618  0.54
  H  H2249  1  0.574647  0.255603  0.480835  0.54
  H  H2250  1  0.425353  0.255603  0.019165  0.54
  H  H2251  1  0.074647  0.755603  0.480835  0.54
  H  H2252  1  0.925353  0.755603  0.019165  0.54
  H  H2253  1  0.425353  0.744397  0.519165  0.54
  H  H2254  1  0.574647  0.744397  0.980835  0.54
  H  H2255  1  0.925353  0.244397  0.519165  0.54
  H  H2256  1  0.074647  0.244397  0.980835  0.54
  H  H2257  1  0.570965  0.295514  0.467718  0.54
  H  H2258  1  0.429035  0.295514  0.032282  0.54
  H  H2259  1  0.070965  0.795514  0.467718  0.54
  H  H2260  1  0.929035  0.795514  0.032282  0.54
  H  H2261  1  0.429035  0.704486  0.532282  0.54
  H  H2262  1  0.570965  0.704486  0.967718  0.54
  H  H2263  1  0.929035  0.204486  0.532282  0.54
  H  H2264  1  0.070965  0.204486  0.967718  0.54
  H  H2265  1  0.513461  0.242814  0.468073  0.54
  H  H2266  1  0.486539  0.242814  0.031927  0.54
  H  H2267  1  0.013461  0.742814  0.468073  0.54
  H  H2268  1  0.986539  0.742814  0.031927  0.54
  H  H2269  1  0.486539  0.757186  0.531927  0.54
  H  H2270  1  0.513461  0.757186  0.968073  0.54
  H  H2271  1  0.986539  0.257186  0.531927  0.54
  H  H2272  1  0.013461  0.257186  0.968073  0.54
  H  H2273  1  0.508766  0.279080  0.449191  0.54
  H  H2274  1  0.491234  0.279080  0.050809  0.54
  H  H2275  1  0.008766  0.779080  0.449191  0.54
  H  H2276  1  0.991234  0.779080  0.050809  0.54
  H  H2277  1  0.491234  0.720920  0.550809  0.54
  H  H2278  1  0.508766  0.720920  0.949191  0.54
  H  H2279  1  0.991234  0.220920  0.550809  0.54
  H  H2280  1  0.008766  0.220920  0.949191  0.54
  H  H2281  1  0.535426  0.288402  0.506847  0.54
  H  H2282  1  0.464574  0.288402  0.993153  0.54
  H  H2283  1  0.035426  0.788402  0.506847  0.54
  H  H2284  1  0.964574  0.788402  0.993153  0.54
  H  H2285  1  0.464574  0.711598  0.493153  0.54
  H  H2286  1  0.535426  0.711598  0.006847  0.54
  H  H2287  1  0.964574  0.211598  0.493153  0.54
  H  H2288  1  0.035426  0.211598  0.006847  0.54
  H  H2289  1  0.513562  0.318510  0.487261  0.54
  H  H2290  1  0.486438  0.318510  0.012739  0.54
  H  H2291  1  0.013562  0.818510  0.487261  0.54
  H  H2292  1  0.986438  0.818510  0.012739  0.54
  H  H2293  1  0.486438  0.681490  0.512739  0.54
  H  H2294  1  0.513562  0.681490  0.987261  0.54
  H  H2295  1  0.986438  0.181490  0.512739  0.54
  H  H2296  1  0.013562  0.181490  0.987261  0.54
  H  H2297  1  0.482652  0.254595  0.509798  0.54
  H  H2298  1  0.517348  0.254595  0.990202  0.54
  H  H2299  1  0.982652  0.754595  0.509798  0.54
  H  H2300  1  0.017348  0.754595  0.990202  0.54
  H  H2301  1  0.517348  0.745405  0.490202  0.54
  H  H2302  1  0.482652  0.745405  0.009798  0.54
  H  H2303  1  0.017348  0.245405  0.490202  0.54
  H  H2304  1  0.982652  0.245405  0.009798  0.54
  H  H2305  1  0.460859  0.275595  0.484334  0.54
  H  H2306  1  0.539141  0.275595  0.015666  0.54
  H  H2307  1  0.960859  0.775595  0.484334  0.54
  H  H2308  1  0.039141  0.775595  0.015666  0.54
  H  H2309  1  0.539141  0.724405  0.515666  0.54
  H  H2310  1  0.460859  0.724405  0.984334  0.54
  H  H2311  1  0.039141  0.224405  0.515666  0.54
  H  H2312  1  0.960859  0.224405  0.984334  0.54
  H  H2313  1  0.469340  0.296134  0.513183  0.54
  H  H2314  1  0.530660  0.296134  0.986817  0.54
  H  H2315  1  0.969340  0.796134  0.513183  0.54
  H  H2316  1  0.030660  0.796134  0.986817  0.54
  H  H2317  1  0.530660  0.703866  0.486817  0.54
  H  H2318  1  0.469340  0.703866  0.013183  0.54
  H  H2319  1  0.030660  0.203866  0.486817  0.54
  H  H2320  1  0.969340  0.203866  0.013183  0.54
  H  H2321  1  0.532806  0.258336  0.414081  0.54
  H  H2322  1  0.467194  0.258336  0.085919  0.54
  H  H2323  1  0.032806  0.758336  0.414081  0.54
  H  H2324  1  0.967194  0.758336  0.085919  0.54
  H  H2325  1  0.467194  0.741664  0.585919  0.54
  H  H2326  1  0.532806  0.741664  0.914081  0.54
  H  H2327  1  0.967194  0.241664  0.585919  0.54
  H  H2328  1  0.032806  0.241664  0.914081  0.54
  H  H2329  1  0.556098  0.295551  0.414398  0.54
  H  H2330  1  0.443902  0.295551  0.085602  0.54
  H  H2331  1  0.056098  0.795551  0.414398  0.54
  H  H2332  1  0.943902  0.795551  0.085602  0.54
  H  H2333  1  0.443902  0.704449  0.585602  0.54
  H  H2334  1  0.556098  0.704449  0.914398  0.54
  H  H2335  1  0.943902  0.204449  0.585602  0.54
  H  H2336  1  0.056098  0.204449  0.914398  0.54
  H  H2337  1  0.620116  0.296944  0.448333  0.54
  H  H2338  1  0.379884  0.296944  0.051667  0.54
  H  H2339  1  0.120116  0.796944  0.448333  0.54
  H  H2340  1  0.879884  0.796944  0.051667  0.54
  H  H2341  1  0.379884  0.703056  0.551667  0.54
  H  H2342  1  0.620116  0.703056  0.948333  0.54
  H  H2343  1  0.879884  0.203056  0.551667  0.54
  H  H2344  1  0.120116  0.203056  0.948333  0.54
  H  H2345  1  0.624891  0.275502  0.420434  0.54
  H  H2346  1  0.375109  0.275502  0.079566  0.54
  H  H2347  1  0.124891  0.775502  0.420434  0.54
  H  H2348  1  0.875109  0.775502  0.079566  0.54
  H  H2349  1  0.375109  0.724498  0.579566  0.54
  H  H2350  1  0.624891  0.724498  0.920434  0.54
  H  H2351  1  0.875109  0.224498  0.579566  0.54
  H  H2352  1  0.124891  0.224498  0.920434  0.54
  H  H2353  1  0.578626  0.231217  0.387900  0.54
  H  H2354  1  0.421374  0.231217  0.112100  0.54
  H  H2355  1  0.078626  0.731217  0.387900  0.54
  H  H2356  1  0.921374  0.731217  0.112100  0.54
  H  H2357  1  0.421374  0.768783  0.612100  0.54
  H  H2358  1  0.578626  0.768783  0.887900  0.54
  H  H2359  1  0.921374  0.268783  0.612100  0.54
  H  H2360  1  0.078626  0.268783  0.887900  0.54
  H  H2361  1  0.595233  0.271665  0.385151  0.54
  H  H2362  1  0.404767  0.271665  0.114849  0.54
  H  H2363  1  0.095233  0.771665  0.385151  0.54
  H  H2364  1  0.904767  0.771665  0.114849  0.54
  H  H2365  1  0.404767  0.728335  0.614849  0.54
  H  H2366  1  0.595233  0.728335  0.885151  0.54
  H  H2367  1  0.904767  0.228335  0.614849  0.54
  H  H2368  1  0.095233  0.228335  0.885151  0.54
  H  H2369  1  0.521618  0.250197  0.365015  0.54
  H  H2370  1  0.478382  0.250197  0.134985  0.54
  H  H2371  1  0.021618  0.750197  0.365015  0.54
  H  H2372  1  0.978382  0.750197  0.134985  0.54
  H  H2373  1  0.478382  0.749803  0.634985  0.54
  H  H2374  1  0.521618  0.749803  0.865015  0.54
  H  H2375  1  0.978382  0.249803  0.634985  0.54
  H  H2376  1  0.021618  0.249803  0.865015  0.54
  H  H2377  1  0.536567  0.291306  0.363404  0.54
  H  H2378  1  0.463433  0.291306  0.136596  0.54
  H  H2379  1  0.036567  0.791306  0.363404  0.54
  H  H2380  1  0.963433  0.791306  0.136596  0.54
  H  H2381  1  0.463433  0.708694  0.636596  0.54
  H  H2382  1  0.536567  0.708694  0.863404  0.54
  H  H2383  1  0.963433  0.208694  0.636596  0.54
  H  H2384  1  0.036567  0.208694  0.863404  0.54
  H  H2385  1  0.535633  0.263191  0.321838  0.54
  H  H2386  1  0.464367  0.263191  0.178162  0.54
  H  H2387  1  0.035633  0.763191  0.321838  0.54
  H  H2388  1  0.964367  0.763191  0.178162  0.54
  H  H2389  1  0.464367  0.736809  0.678162  0.54
  H  H2390  1  0.535633  0.736809  0.821838  0.54
  H  H2391  1  0.964367  0.236809  0.678162  0.54
  H  H2392  1  0.035633  0.236809  0.821838  0.54
  H  H2393  1  0.577444  0.272704  0.333333  0.54
  H  H2394  1  0.422556  0.272704  0.166667  0.54
  H  H2395  1  0.077444  0.772704  0.333333  0.54
  H  H2396  1  0.922556  0.772704  0.166667  0.54
  H  H2397  1  0.422556  0.727296  0.666667  0.54
  H  H2398  1  0.577444  0.727296  0.833333  0.54
  H  H2399  1  0.922556  0.227296  0.666667  0.54
  H  H2400  1  0.077444  0.227296  0.833333  0.54
  H  H2401  1  0.562450  0.231473  0.334945  0.54
  H  H2402  1  0.437550  0.231473  0.165055  0.54
  H  H2403  1  0.062450  0.731473  0.334945  0.54
  H  H2404  1  0.937550  0.731473  0.165055  0.54
  H  H2405  1  0.437550  0.768527  0.665055  0.54
  H  H2406  1  0.562450  0.768527  0.834945  0.54
  H  H2407  1  0.937550  0.268527  0.665055  0.54
  H  H2408  1  0.062450  0.268527  0.834945  0.54
  H  H2409  1  0.645361  0.245170  0.474069  0.54
  H  H2410  1  0.354639  0.245170  0.025931  0.54
  H  H2411  1  0.145361  0.745170  0.474069  0.54
  H  H2412  1  0.854639  0.745170  0.025931  0.54
  H  H2413  1  0.354639  0.754830  0.525931  0.54
  H  H2414  1  0.645361  0.754830  0.974069  0.54
  H  H2415  1  0.854639  0.254830  0.525931  0.54
  H  H2416  1  0.145361  0.254830  0.974069  0.54
  H  H2417  1  0.650734  0.224239  0.445957  0.54
  H  H2418  1  0.349266  0.224239  0.054043  0.54
  H  H2419  1  0.150734  0.724239  0.445957  0.54
  H  H2420  1  0.849266  0.724239  0.054043  0.54
  H  H2421  1  0.349266  0.775761  0.554043  0.54
  H  H2422  1  0.650734  0.775761  0.945957  0.54
  H  H2423  1  0.849266  0.275761  0.554043  0.54
  H  H2424  1  0.150734  0.275761  0.945957  0.54
  H  H2425  1  0.694638  0.279856  0.471591  0.54
  H  H2426  1  0.305362  0.279856  0.028409  0.54
  H  H2427  1  0.194638  0.779856  0.471591  0.54
  H  H2428  1  0.805362  0.779856  0.028409  0.54
  H  H2429  1  0.305362  0.720144  0.528409  0.54
  H  H2430  1  0.694638  0.720144  0.971591  0.54
  H  H2431  1  0.805362  0.220144  0.528409  0.54
  H  H2432  1  0.194638  0.220144  0.971591  0.54
  H  H2433  1  0.685717  0.285981  0.439187  0.54
  H  H2434  1  0.314283  0.285981  0.060813  0.54
  H  H2435  1  0.185717  0.785981  0.439187  0.54
  H  H2436  1  0.814283  0.785981  0.060813  0.54
  H  H2437  1  0.314283  0.714019  0.560813  0.54
  H  H2438  1  0.685717  0.714019  0.939187  0.54
  H  H2439  1  0.814283  0.214019  0.560813  0.54
  H  H2440  1  0.185717  0.214019  0.939187  0.54
  H  H2441  1  0.741542  0.251071  0.448110  0.54
  H  H2442  1  0.258458  0.251071  0.051890  0.54
  H  H2443  1  0.241542  0.751071  0.448110  0.54
  H  H2444  1  0.758458  0.751071  0.051890  0.54
  H  H2445  1  0.258458  0.748929  0.551890  0.54
  H  H2446  1  0.741542  0.748929  0.948110  0.54
  H  H2447  1  0.758458  0.248929  0.551890  0.54
  H  H2448  1  0.241542  0.248929  0.948110  0.54
  H  H2449  1  0.719704  0.220280  0.463325  0.54
  H  H2450  1  0.280296  0.220280  0.036675  0.54
  H  H2451  1  0.219704  0.720280  0.463325  0.54
  H  H2452  1  0.780296  0.720280  0.036675  0.54
  H  H2453  1  0.280296  0.779720  0.536675  0.54
  H  H2454  1  0.719704  0.779720  0.963325  0.54
  H  H2455  1  0.780296  0.279720  0.536675  0.54
  H  H2456  1  0.219704  0.279720  0.963325  0.54
  H  H2457  1  0.710797  0.226397  0.430972  0.54
  H  H2458  1  0.289203  0.226397  0.069028  0.54
  H  H2459  1  0.210797  0.726397  0.430972  0.54
  H  H2460  1  0.789203  0.726397  0.069028  0.54
  H  H2461  1  0.289203  0.773603  0.569028  0.54
  H  H2462  1  0.710797  0.773603  0.930972  0.54
  H  H2463  1  0.789203  0.273603  0.569028  0.54
  H  H2464  1  0.210797  0.273603  0.930972  0.54
  H  H2465  1  0.658328  0.546957  0.323250  0.543
  H  H2466  1  0.341672  0.546957  0.176750  0.543
  H  H2467  1  0.158328  0.046957  0.323250  0.543
  H  H2468  1  0.841672  0.046957  0.176750  0.543
  H  H2469  1  0.341672  0.453043  0.676750  0.543
  H  H2470  1  0.658328  0.453043  0.823250  0.543
  H  H2471  1  0.841672  0.953043  0.676750  0.543
  H  H2472  1  0.158328  0.953043  0.823250  0.543
  H  H2473  1  0.719133  0.570344  0.323560  0.543
  H  H2474  1  0.280867  0.570344  0.176440  0.543
  H  H2475  1  0.219133  0.070344  0.323560  0.543
  H  H2476  1  0.780867  0.070344  0.176440  0.543
  H  H2477  1  0.280867  0.429656  0.676440  0.543
  H  H2478  1  0.719133  0.429656  0.823560  0.543
  H  H2479  1  0.780867  0.929656  0.676440  0.543
  H  H2480  1  0.219133  0.929656  0.823560  0.543
  H  H2481  1  0.733182  0.563428  0.406016  0.543
  H  H2482  1  0.266818  0.563428  0.093984  0.543
  H  H2483  1  0.233182  0.063428  0.406016  0.543
  H  H2484  1  0.766818  0.063428  0.093984  0.543
  H  H2485  1  0.266818  0.436572  0.593984  0.543
  H  H2486  1  0.733182  0.436572  0.906016  0.543
  H  H2487  1  0.766818  0.936572  0.593984  0.543
  H  H2488  1  0.233182  0.936572  0.906016  0.543
  H  H2489  1  0.672524  0.539490  0.406252  0.543
  H  H2490  1  0.327476  0.539490  0.093748  0.543
  H  H2491  1  0.172524  0.039490  0.406252  0.543
  H  H2492  1  0.827476  0.039490  0.093748  0.543
  H  H2493  1  0.327476  0.460510  0.593748  0.543
  H  H2494  1  0.672524  0.460510  0.906252  0.543
  H  H2495  1  0.827476  0.960510  0.593748  0.543
  H  H2496  1  0.172524  0.960510  0.906252  0.543
  H  H2497  1  0.760758  0.580980  0.324987  0.543
  H  H2498  1  0.239242  0.580980  0.175013  0.543
  H  H2499  1  0.260758  0.080980  0.324987  0.543
  H  H2500  1  0.739242  0.080980  0.175013  0.543
  H  H2501  1  0.239242  0.419020  0.675013  0.543
  H  H2502  1  0.760758  0.419020  0.824987  0.543
  H  H2503  1  0.739242  0.919020  0.675013  0.543
  H  H2504  1  0.260758  0.919020  0.824987  0.543
  H  H2505  1  0.802564  0.580984  0.339090  0.543
  H  H2506  1  0.197436  0.580984  0.160910  0.543
  H  H2507  1  0.302564  0.080984  0.339090  0.543
  H  H2508  1  0.697436  0.080984  0.160910  0.543
  H  H2509  1  0.197436  0.419016  0.660910  0.543
  H  H2510  1  0.802564  0.419016  0.839090  0.543
  H  H2511  1  0.697436  0.919016  0.660910  0.543
  H  H2512  1  0.302564  0.919016  0.839090  0.543
  H  H2513  1  0.779090  0.618304  0.337186  0.543
  H  H2514  1  0.220910  0.618304  0.162814  0.543
  H  H2515  1  0.279090  0.118304  0.337186  0.543
  H  H2516  1  0.720910  0.118304  0.162814  0.543
  H  H2517  1  0.220910  0.381696  0.662814  0.543
  H  H2518  1  0.779090  0.381696  0.837186  0.543
  H  H2519  1  0.720910  0.881696  0.662814  0.543
  H  H2520  1  0.279090  0.881696  0.837186  0.543
  H  H2521  1  0.217605  0.286641  0.302818  0.579
  H  H2522  1  0.782395  0.286641  0.197182  0.579
  H  H2523  1  0.717605  0.786641  0.302818  0.579
  H  H2524  1  0.282395  0.786641  0.197182  0.579
  H  H2525  1  0.782395  0.713359  0.697182  0.579
  H  H2526  1  0.217605  0.713359  0.802818  0.579
  H  H2527  1  0.282395  0.213359  0.697182  0.579
  H  H2528  1  0.717605  0.213359  0.802818  0.579
  H  H2529  1  0.280099  0.281416  0.295495  0.579
  H  H2530  1  0.719901  0.281416  0.204505  0.579
  H  H2531  1  0.780099  0.781416  0.295495  0.579
  H  H2532  1  0.219901  0.781416  0.204505  0.579
  H  H2533  1  0.719901  0.718584  0.704505  0.579
  H  H2534  1  0.280099  0.718584  0.795495  0.579
  H  H2535  1  0.219901  0.218584  0.704505  0.579
  H  H2536  1  0.780099  0.218584  0.795495  0.579
  H  H2537  1  0.307059  0.223286  0.292706  0.579
  H  H2538  1  0.692941  0.223286  0.207294  0.579
  H  H2539  1  0.807059  0.723286  0.292706  0.579
  H  H2540  1  0.192941  0.723286  0.207294  0.579
  H  H2541  1  0.692941  0.776714  0.707294  0.579
  H  H2542  1  0.307059  0.776714  0.792706  0.579
  H  H2543  1  0.192941  0.276714  0.707294  0.579
  H  H2544  1  0.807059  0.276714  0.792706  0.579
  H  H2545  1  0.271526  0.170380  0.297241  0.579
  H  H2546  1  0.728474  0.170380  0.202759  0.579
  H  H2547  1  0.771526  0.670380  0.297241  0.579
  H  H2548  1  0.228474  0.670380  0.202759  0.579
  H  H2549  1  0.728474  0.829620  0.702759  0.579
  H  H2550  1  0.271526  0.829620  0.797241  0.579
  H  H2551  1  0.228474  0.329620  0.702759  0.579
  H  H2552  1  0.771526  0.329620  0.797241  0.579
  H  H2553  1  0.209032  0.175604  0.304564  0.579
  H  H2554  1  0.790968  0.175604  0.195436  0.579
  H  H2555  1  0.709032  0.675604  0.304564  0.579
  H  H2556  1  0.290968  0.675604  0.195436  0.579
  H  H2557  1  0.790968  0.824396  0.695436  0.579
  H  H2558  1  0.209032  0.824396  0.804564  0.579
  H  H2559  1  0.290968  0.324396  0.695436  0.579
  H  H2560  1  0.709032  0.324396  0.804564  0.579
  H  H2561  1  0.182071  0.233734  0.307353  0.579
  H  H2562  1  0.817929  0.233734  0.192647  0.579
  H  H2563  1  0.682071  0.733734  0.307353  0.579
  H  H2564  1  0.317929  0.733734  0.192647  0.579
  H  H2565  1  0.817929  0.766266  0.692647  0.579
  H  H2566  1  0.182071  0.766266  0.807353  0.579
  H  H2567  1  0.317929  0.266266  0.692647  0.579
  H  H2568  1  0.682071  0.266266  0.807353  0.579
  H  H2569  1  0.193978  0.128173  0.025772  0.6
  H  H2570  1  0.806022  0.128173  0.474228  0.6
  H  H2571  1  0.693978  0.628173  0.025772  0.6
  H  H2572  1  0.306022  0.628173  0.474228  0.6
  H  H2573  1  0.806022  0.871827  0.974228  0.6
  H  H2574  1  0.193978  0.871827  0.525772  0.6
  H  H2575  1  0.306022  0.371827  0.974228  0.6
  H  H2576  1  0.693978  0.371827  0.525772  0.6
  H  H2577  1  0.151346  0.124083  0.030955  0.6
  H  H2578  1  0.848654  0.124083  0.469045  0.6
  H  H2579  1  0.651346  0.624083  0.030955  0.6
  H  H2580  1  0.348654  0.624083  0.469045  0.6
  H  H2581  1  0.848654  0.875917  0.969045  0.6
  H  H2582  1  0.151346  0.875917  0.530955  0.6
  H  H2583  1  0.348654  0.375917  0.969045  0.6
  H  H2584  1  0.651346  0.375917  0.530955  0.6
  H  H2585  1  0.182990  0.121634  0.056193  0.6
  H  H2586  1  0.817010  0.121634  0.443807  0.6
  H  H2587  1  0.682990  0.621634  0.056193  0.6
  H  H2588  1  0.317010  0.621634  0.443807  0.6
  H  H2589  1  0.817010  0.878366  0.943807  0.6
  H  H2590  1  0.182990  0.878366  0.556193  0.6
  H  H2591  1  0.317010  0.378366  0.943807  0.6
  H  H2592  1  0.682990  0.378366  0.556193  0.6
  H  H2593  1  0.543135  0.213096  0.448407  0.46
  H  H2594  1  0.456865  0.213096  0.051593  0.46
  H  H2595  1  0.043135  0.713096  0.448407  0.46
  H  H2596  1  0.956865  0.713096  0.051593  0.46
  H  H2597  1  0.456865  0.786904  0.551593  0.46
  H  H2598  1  0.543135  0.786904  0.948407  0.46
  H  H2599  1  0.956865  0.286904  0.551593  0.46
  H  H2600  1  0.043135  0.286904  0.948407  0.46
  H  H2601  1  0.568260  0.198992  0.425617  0.46
  H  H2602  1  0.431740  0.198992  0.074383  0.46
  H  H2603  1  0.068260  0.698992  0.425617  0.46
  H  H2604  1  0.931740  0.698992  0.074383  0.46
  H  H2605  1  0.431740  0.801008  0.574383  0.46
  H  H2606  1  0.568260  0.801008  0.925617  0.46
  H  H2607  1  0.931740  0.301008  0.574383  0.46
  H  H2608  1  0.068260  0.301008  0.925617  0.46
  H  H2609  1  0.590093  0.201760  0.483203  0.46
  H  H2610  1  0.409907  0.201760  0.016797  0.46
  H  H2611  1  0.090093  0.701760  0.483203  0.46
  H  H2612  1  0.909907  0.701760  0.016797  0.46
  H  H2613  1  0.409907  0.798240  0.516797  0.46
  H  H2614  1  0.590093  0.798240  0.983203  0.46
  H  H2615  1  0.909907  0.298240  0.516797  0.46
  H  H2616  1  0.090093  0.298240  0.983203  0.46
  H  H2617  1  0.618938  0.192969  0.461419  0.46
  H  H2618  1  0.381062  0.192969  0.038581  0.46
  H  H2619  1  0.118938  0.692969  0.461419  0.46
  H  H2620  1  0.881062  0.692969  0.038581  0.46
  H  H2621  1  0.381062  0.807031  0.538581  0.46
  H  H2622  1  0.618938  0.807031  0.961419  0.46
  H  H2623  1  0.881062  0.307031  0.538581  0.46
  H  H2624  1  0.118938  0.307031  0.961419  0.46
  H  H2625  1  0.558035  0.147148  0.452182  0.46
  H  H2626  1  0.441965  0.147148  0.047818  0.46
  H  H2627  1  0.058035  0.647148  0.452182  0.46
  H  H2628  1  0.941965  0.647148  0.047818  0.46
  H  H2629  1  0.441965  0.852852  0.547818  0.46
  H  H2630  1  0.558035  0.852852  0.952182  0.46
  H  H2631  1  0.941965  0.352852  0.547818  0.46
  H  H2632  1  0.058035  0.352852  0.952182  0.46
  H  H2633  1  0.600706  0.135218  0.457873  0.46
  H  H2634  1  0.399294  0.135218  0.042127  0.46
  H  H2635  1  0.100706  0.635218  0.457873  0.46
  H  H2636  1  0.899294  0.635218  0.042127  0.46
  H  H2637  1  0.399294  0.864782  0.542127  0.46
  H  H2638  1  0.600706  0.864782  0.957873  0.46
  H  H2639  1  0.899294  0.364782  0.542127  0.46
  H  H2640  1  0.100706  0.364782  0.957873  0.46
  H  H2641  1  0.567189  0.112770  0.493508  0.46
  H  H2642  1  0.432811  0.112770  0.006492  0.46
  H  H2643  1  0.067189  0.612770  0.493508  0.46
  H  H2644  1  0.932811  0.612770  0.006492  0.46
  H  H2645  1  0.432811  0.887230  0.506492  0.46
  H  H2646  1  0.567189  0.887230  0.993508  0.46
  H  H2647  1  0.932811  0.387230  0.506492  0.46
  H  H2648  1  0.067189  0.387230  0.993508  0.46
  H  H2649  1  0.597510  0.141874  0.505891  0.46
  H  H2650  1  0.402490  0.141874  0.994109  0.46
  H  H2651  1  0.097510  0.641874  0.505891  0.46
  H  H2652  1  0.902490  0.641874  0.994109  0.46
  H  H2653  1  0.402490  0.858126  0.494109  0.46
  H  H2654  1  0.597510  0.858126  0.005891  0.46
  H  H2655  1  0.902490  0.358126  0.494109  0.46
  H  H2656  1  0.097510  0.358126  0.005891  0.46
  H  H2657  1  0.554944  0.153775  0.500214  0.46
  H  H2658  1  0.445056  0.153775  0.999786  0.46
  H  H2659  1  0.054944  0.653775  0.500214  0.46
  H  H2660  1  0.945056  0.653775  0.999786  0.46
  H  H2661  1  0.445056  0.846225  0.499786  0.46
  H  H2662  1  0.554944  0.846225  0.000214  0.46
  H  H2663  1  0.945056  0.346225  0.499786  0.46
  H  H2664  1  0.054944  0.346225  0.000214  0.46
  H  H2665  1  0.559220  0.302007  0.447245  0.46
  H  H2666  1  0.440780  0.302007  0.052755  0.46
  H  H2667  1  0.059220  0.802007  0.447245  0.46
  H  H2668  1  0.940780  0.802007  0.052755  0.46
  H  H2669  1  0.440780  0.697993  0.552755  0.46
  H  H2670  1  0.559220  0.697993  0.947245  0.46
  H  H2671  1  0.940780  0.197993  0.552755  0.46
  H  H2672  1  0.059220  0.197993  0.947245  0.46
  H  H2673  1  0.528590  0.272246  0.436760  0.46
  H  H2674  1  0.471410  0.272246  0.063240  0.46
  H  H2675  1  0.028590  0.772246  0.436760  0.46
  H  H2676  1  0.971410  0.772246  0.063240  0.46
  H  H2677  1  0.471410  0.727754  0.563240  0.46
  H  H2678  1  0.528590  0.727754  0.936760  0.46
  H  H2679  1  0.971410  0.227754  0.563240  0.46
  H  H2680  1  0.028590  0.227754  0.936760  0.46
  H  H2681  1  0.560956  0.284768  0.490181  0.46
  H  H2682  1  0.439044  0.284768  0.009819  0.46
  H  H2683  1  0.060956  0.784768  0.490181  0.46
  H  H2684  1  0.939044  0.784768  0.009819  0.46
  H  H2685  1  0.439044  0.715232  0.509819  0.46
  H  H2686  1  0.560956  0.715232  0.990181  0.46
  H  H2687  1  0.939044  0.215232  0.509819  0.46
  H  H2688  1  0.060956  0.215232  0.990181  0.46
  H  H2689  1  0.550679  0.243126  0.482551  0.46
  H  H2690  1  0.449321  0.243126  0.017449  0.46
  H  H2691  1  0.050679  0.743126  0.482551  0.46
  H  H2692  1  0.949321  0.743126  0.017449  0.46
  H  H2693  1  0.449321  0.756874  0.517449  0.46
  H  H2694  1  0.550679  0.756874  0.982551  0.46
  H  H2695  1  0.949321  0.256874  0.517449  0.46
  H  H2696  1  0.050679  0.256874  0.982551  0.46
  H  H2697  1  0.493935  0.297945  0.474989  0.46
  H  H2698  1  0.506065  0.297945  0.025011  0.46
  H  H2699  1  0.993935  0.797945  0.474989  0.46
  H  H2700  1  0.006065  0.797945  0.025011  0.46
  H  H2701  1  0.506065  0.702055  0.525011  0.46
  H  H2702  1  0.493935  0.702055  0.974989  0.46
  H  H2703  1  0.006065  0.202055  0.525011  0.46
  H  H2704  1  0.993935  0.202055  0.974989  0.46
  H  H2705  1  0.488438  0.254428  0.479134  0.46
  H  H2706  1  0.511562  0.254428  0.020866  0.46
  H  H2707  1  0.988438  0.754428  0.479134  0.46
  H  H2708  1  0.011562  0.754428  0.020866  0.46
  H  H2709  1  0.511562  0.745572  0.520866  0.46
  H  H2710  1  0.488438  0.745572  0.979134  0.46
  H  H2711  1  0.011562  0.245572  0.520866  0.46
  H  H2712  1  0.988438  0.245572  0.979134  0.46
  H  H2713  1  0.517922  0.305711  0.519944  0.46
  H  H2714  1  0.482078  0.305711  0.980056  0.46
  H  H2715  1  0.017922  0.805711  0.519944  0.46
  H  H2716  1  0.982078  0.805711  0.980056  0.46
  H  H2717  1  0.482078  0.694289  0.480056  0.46
  H  H2718  1  0.517922  0.694289  0.019944  0.46
  H  H2719  1  0.982078  0.194289  0.480056  0.46
  H  H2720  1  0.017922  0.194289  0.019944  0.46
  H  H2721  1  0.524723  0.262539  0.524236  0.46
  H  H2722  1  0.475277  0.262539  0.975764  0.46
  H  H2723  1  0.024723  0.762539  0.524236  0.46
  H  H2724  1  0.975277  0.762539  0.975764  0.46
  H  H2725  1  0.475277  0.737461  0.475764  0.46
  H  H2726  1  0.524723  0.737461  0.024236  0.46
  H  H2727  1  0.975277  0.237461  0.475764  0.46
  H  H2728  1  0.024723  0.237461  0.024236  0.46
  H  H2729  1  0.483508  0.278718  0.522061  0.46
  H  H2730  1  0.516492  0.278718  0.977939  0.46
  H  H2731  1  0.983508  0.778718  0.522061  0.46
  H  H2732  1  0.016492  0.778718  0.977939  0.46
  H  H2733  1  0.516492  0.721282  0.477939  0.46
  H  H2734  1  0.483508  0.721282  0.022061  0.46
  H  H2735  1  0.016492  0.221282  0.477939  0.46
  H  H2736  1  0.983508  0.221282  0.022061  0.46
  H  H2737  1  0.602002  0.280954  0.408693  0.46
  H  H2738  1  0.397998  0.280954  0.091307  0.46
  H  H2739  1  0.102002  0.780954  0.408693  0.46
  H  H2740  1  0.897998  0.780954  0.091307  0.46
  H  H2741  1  0.397998  0.719046  0.591307  0.46
  H  H2742  1  0.602002  0.719046  0.908693  0.46
  H  H2743  1  0.897998  0.219046  0.591307  0.46
  H  H2744  1  0.102002  0.219046  0.908693  0.46
  H  H2745  1  0.603719  0.237934  0.404034  0.46
  H  H2746  1  0.396281  0.237934  0.095966  0.46
  H  H2747  1  0.103719  0.737934  0.404034  0.46
  H  H2748  1  0.896281  0.737934  0.095966  0.46
  H  H2749  1  0.396281  0.762066  0.595966  0.46
  H  H2750  1  0.603719  0.762066  0.904034  0.46
  H  H2751  1  0.896281  0.262066  0.595966  0.46
  H  H2752  1  0.103719  0.262066  0.904034  0.46
  H  H2753  1  0.539377  0.243334  0.391591  0.46
  H  H2754  1  0.460623  0.243334  0.108409  0.46
  H  H2755  1  0.039377  0.743334  0.391591  0.46
  H  H2756  1  0.960623  0.743334  0.108409  0.46
  H  H2757  1  0.460623  0.756666  0.608409  0.46
  H  H2758  1  0.539377  0.756666  0.891591  0.46
  H  H2759  1  0.960623  0.256666  0.608409  0.46
  H  H2760  1  0.039377  0.256666  0.891591  0.46
  H  H2761  1  0.547954  0.285707  0.388907  0.46
  H  H2762  1  0.452046  0.285707  0.111093  0.46
  H  H2763  1  0.047954  0.785707  0.388907  0.46
  H  H2764  1  0.952046  0.785707  0.111093  0.46
  H  H2765  1  0.452046  0.714293  0.611093  0.46
  H  H2766  1  0.547954  0.714293  0.888907  0.46
  H  H2767  1  0.952046  0.214293  0.611093  0.46
  H  H2768  1  0.047954  0.214293  0.888907  0.46
  H  H2769  1  0.566496  0.229958  0.355656  0.46
  H  H2770  1  0.433504  0.229958  0.144344  0.46
  H  H2771  1  0.066496  0.729958  0.355656  0.46
  H  H2772  1  0.933504  0.729958  0.144344  0.46
  H  H2773  1  0.433504  0.770042  0.644344  0.46
  H  H2774  1  0.566496  0.770042  0.855656  0.46
  H  H2775  1  0.933504  0.270042  0.644344  0.46
  H  H2776  1  0.066496  0.270042  0.855656  0.46
  H  H2777  1  0.583426  0.270122  0.354226  0.46
  H  H2778  1  0.416574  0.270122  0.145774  0.46
  H  H2779  1  0.083426  0.770122  0.354226  0.46
  H  H2780  1  0.916574  0.770122  0.145774  0.46
  H  H2781  1  0.416574  0.729878  0.645774  0.46
  H  H2782  1  0.583426  0.729878  0.854226  0.46
  H  H2783  1  0.916574  0.229878  0.645774  0.46
  H  H2784  1  0.083426  0.229878  0.854226  0.46
  H  H2785  1  0.534282  0.292179  0.332752  0.46
  H  H2786  1  0.465718  0.292179  0.167248  0.46
  H  H2787  1  0.034282  0.792179  0.332752  0.46
  H  H2788  1  0.965718  0.792179  0.167248  0.46
  H  H2789  1  0.465718  0.707821  0.667248  0.46
  H  H2790  1  0.534282  0.707821  0.832752  0.46
  H  H2791  1  0.965718  0.207821  0.667248  0.46
  H  H2792  1  0.034282  0.207821  0.832752  0.46
  H  H2793  1  0.507445  0.264449  0.346568  0.46
  H  H2794  1  0.492555  0.264449  0.153432  0.46
  H  H2795  1  0.007445  0.764449  0.346568  0.46
  H  H2796  1  0.992555  0.764449  0.153432  0.46
  H  H2797  1  0.492555  0.735551  0.653432  0.46
  H  H2798  1  0.507445  0.735551  0.846568  0.46
  H  H2799  1  0.992555  0.235551  0.653432  0.46
  H  H2800  1  0.007445  0.235551  0.846568  0.46
  H  H2801  1  0.530571  0.250456  0.322487  0.46
  H  H2802  1  0.469429  0.250456  0.177513  0.46
  H  H2803  1  0.030571  0.750456  0.322487  0.46
  H  H2804  1  0.969429  0.750456  0.177513  0.46
  H  H2805  1  0.469429  0.749544  0.677513  0.46
  H  H2806  1  0.530571  0.749544  0.822487  0.46
  H  H2807  1  0.969429  0.249544  0.677513  0.46
  H  H2808  1  0.030571  0.249544  0.822487  0.46
  H  H2809  1  0.623545  0.242020  0.470186  0.46
  H  H2810  1  0.376455  0.242020  0.029814  0.46
  H  H2811  1  0.123545  0.742020  0.470186  0.46
  H  H2812  1  0.876455  0.742020  0.029814  0.46
  H  H2813  1  0.376455  0.757980  0.529814  0.46
  H  H2814  1  0.623545  0.757980  0.970186  0.46
  H  H2815  1  0.876455  0.257980  0.529814  0.46
  H  H2816  1  0.123545  0.257980  0.970186  0.46
  H  H2817  1  0.623291  0.283448  0.459185  0.46
  H  H2818  1  0.376709  0.283448  0.040815  0.46
  H  H2819  1  0.123291  0.783448  0.459185  0.46
  H  H2820  1  0.876709  0.783448  0.040815  0.46
  H  H2821  1  0.376709  0.716552  0.540815  0.46
  H  H2822  1  0.623291  0.716552  0.959185  0.46
  H  H2823  1  0.876709  0.216552  0.540815  0.46
  H  H2824  1  0.123291  0.216552  0.959185  0.46
  H  H2825  1  0.663352  0.270250  0.429354  0.46
  H  H2826  1  0.336648  0.270250  0.070646  0.46
  H  H2827  1  0.163352  0.770250  0.429354  0.46
  H  H2828  1  0.836648  0.770250  0.070646  0.46
  H  H2829  1  0.336648  0.729750  0.570646  0.46
  H  H2830  1  0.663352  0.729750  0.929354  0.46
  H  H2831  1  0.836648  0.229750  0.570646  0.46
  H  H2832  1  0.163352  0.229750  0.929354  0.46
  H  H2833  1  0.640097  0.234766  0.418256  0.46
  H  H2834  1  0.359903  0.234766  0.081744  0.46
  H  H2835  1  0.140097  0.734766  0.418256  0.46
  H  H2836  1  0.859903  0.734766  0.081744  0.46
  H  H2837  1  0.359903  0.765234  0.581744  0.46
  H  H2838  1  0.640097  0.765234  0.918256  0.46
  H  H2839  1  0.859903  0.265234  0.581744  0.46
  H  H2840  1  0.140097  0.265234  0.918256  0.46
  H  H2841  1  0.671757  0.196421  0.448798  0.46
  H  H2842  1  0.328243  0.196421  0.051202  0.46
  H  H2843  1  0.171757  0.696421  0.448798  0.46
  H  H2844  1  0.828243  0.696421  0.051202  0.46
  H  H2845  1  0.328243  0.803579  0.551202  0.46
  H  H2846  1  0.671757  0.803579  0.948798  0.46
  H  H2847  1  0.828243  0.303579  0.551202  0.46
  H  H2848  1  0.171757  0.303579  0.948798  0.46
  H  H2849  1  0.703978  0.225130  0.444321  0.46
  H  H2850  1  0.296022  0.225130  0.055679  0.46
  H  H2851  1  0.203978  0.725130  0.444321  0.46
  H  H2852  1  0.796022  0.725130  0.055679  0.46
  H  H2853  1  0.296022  0.774870  0.555679  0.46
  H  H2854  1  0.703978  0.774870  0.944321  0.46
  H  H2855  1  0.796022  0.274870  0.555679  0.46
  H  H2856  1  0.203978  0.274870  0.944321  0.46
  H  H2857  1  0.702295  0.214167  0.491650  0.46
  H  H2858  1  0.297705  0.214167  0.008350  0.46
  H  H2859  1  0.202295  0.714167  0.491650  0.46
  H  H2860  1  0.797705  0.714167  0.008350  0.46
  H  H2861  1  0.297705  0.785833  0.508350  0.46
  H  H2862  1  0.702295  0.785833  0.991650  0.46
  H  H2863  1  0.797705  0.285833  0.508350  0.46
  H  H2864  1  0.202295  0.285833  0.991650  0.46
  H  H2865  1  0.692335  0.256324  0.485121  0.46
  H  H2866  1  0.307665  0.256324  0.014879  0.46
  H  H2867  1  0.192335  0.756324  0.485121  0.46
  H  H2868  1  0.807665  0.756324  0.014879  0.46
  H  H2869  1  0.307665  0.743676  0.514879  0.46
  H  H2870  1  0.692335  0.743676  0.985121  0.46
  H  H2871  1  0.807665  0.243676  0.514879  0.46
  H  H2872  1  0.192335  0.243676  0.985121  0.46
  H  H2873  1  0.660100  0.227604  0.489600  0.46
  H  H2874  1  0.339900  0.227604  0.010400  0.46
  H  H2875  1  0.160100  0.727604  0.489600  0.46
  H  H2876  1  0.839900  0.727604  0.010400  0.46
  H  H2877  1  0.339900  0.772396  0.510400  0.46
  H  H2878  1  0.660100  0.772396  0.989600  0.46
  H  H2879  1  0.839900  0.272396  0.510400  0.46
  H  H2880  1  0.160100  0.272396  0.989600  0.46
  C  C2881  1  0.230300  0.289700  0.307500  0.421
  C  C2882  1  0.769700  0.289700  0.192500  0.421
  C  C2883  1  0.730300  0.789700  0.307500  0.421
  C  C2884  1  0.269700  0.789700  0.192500  0.421
  C  C2885  1  0.769700  0.710300  0.692500  0.421
  C  C2886  1  0.230300  0.710300  0.807500  0.421
  C  C2887  1  0.269700  0.210300  0.692500  0.421
  C  C2888  1  0.730300  0.210300  0.807500  0.421
  C  C2889  1  0.265100  0.286000  0.298300  0.421
  C  C2890  1  0.734900  0.286000  0.201700  0.421
  C  C2891  1  0.765100  0.786000  0.298300  0.421
  C  C2892  1  0.234900  0.786000  0.201700  0.421
  C  C2893  1  0.734900  0.714000  0.701700  0.421
  C  C2894  1  0.265100  0.714000  0.798300  0.421
  C  C2895  1  0.234900  0.214000  0.701700  0.421
  C  C2896  1  0.765100  0.214000  0.798300  0.421
  C  C2897  1  0.282200  0.316100  0.287600  0.421
  C  C2898  1  0.717800  0.316100  0.212400  0.421
  C  C2899  1  0.782200  0.816100  0.287600  0.421
  C  C2900  1  0.217800  0.816100  0.212400  0.421
  C  C2901  1  0.717800  0.683900  0.712400  0.421
  C  C2902  1  0.282200  0.683900  0.787600  0.421
  C  C2903  1  0.217800  0.183900  0.712400  0.421
  C  C2904  1  0.782200  0.183900  0.787600  0.421
  C  C2905  1  0.264400  0.350100  0.286100  0.421
  C  C2906  1  0.735600  0.350100  0.213900  0.421
  C  C2907  1  0.764400  0.850100  0.286100  0.421
  C  C2908  1  0.235600  0.850100  0.213900  0.421
  C  C2909  1  0.735600  0.649900  0.713900  0.421
  C  C2910  1  0.264400  0.649900  0.786100  0.421
  C  C2911  1  0.235600  0.149900  0.713900  0.421
  C  C2912  1  0.764400  0.149900  0.786100  0.421
  C  C2913  1  0.229600  0.353800  0.295200  0.421
  C  C2914  1  0.770400  0.353800  0.204800  0.421
  C  C2915  1  0.729600  0.853800  0.295200  0.421
  C  C2916  1  0.270400  0.853800  0.204800  0.421
  C  C2917  1  0.770400  0.646200  0.704800  0.421
  C  C2918  1  0.229600  0.646200  0.795200  0.421
  C  C2919  1  0.270400  0.146200  0.704800  0.421
  C  C2920  1  0.729600  0.146200  0.795200  0.421
  C  C2921  1  0.212600  0.323600  0.305900  0.421
  C  C2922  1  0.787400  0.323600  0.194100  0.421
  C  C2923  1  0.712600  0.823600  0.305900  0.421
  C  C2924  1  0.287400  0.823600  0.194100  0.421
  C  C2925  1  0.787400  0.676400  0.694100  0.421
  C  C2926  1  0.212600  0.676400  0.805900  0.421
  C  C2927  1  0.287400  0.176400  0.694100  0.421
  C  C2928  1  0.712600  0.176400  0.805900  0.421
  C  C2929  1  0.469900  0.973600  0.403500  1.0
  C  C2930  1  0.530100  0.973600  0.096500  1.0
  C  C2931  1  0.969900  0.473600  0.403500  1.0
  C  C2932  1  0.030100  0.473600  0.096500  1.0
  C  C2933  1  0.530100  0.026400  0.596500  1.0
  C  C2934  1  0.469900  0.026400  0.903500  1.0
  C  C2935  1  0.030100  0.526400  0.596500  1.0
  C  C2936  1  0.969900  0.526400  0.903500  1.0
  C  C2937  1  0.452900  0.992400  0.423500  1.0
  C  C2938  1  0.547100  0.992400  0.076500  1.0
  C  C2939  1  0.952900  0.492400  0.423500  1.0
  C  C2940  1  0.047100  0.492400  0.076500  1.0
  C  C2941  1  0.547100  0.007600  0.576500  1.0
  C  C2942  1  0.452900  0.007600  0.923500  1.0
  C  C2943  1  0.047100  0.507600  0.576500  1.0
  C  C2944  1  0.952900  0.507600  0.923500  1.0
  C  C2945  1  0.424800  0.975900  0.436500  1.0
  C  C2946  1  0.575200  0.975900  0.063500  1.0
  C  C2947  1  0.924800  0.475900  0.436500  1.0
  C  C2948  1  0.075200  0.475900  0.063500  1.0
  C  C2949  1  0.575200  0.024100  0.563500  1.0
  C  C2950  1  0.424800  0.024100  0.936500  1.0
  C  C2951  1  0.075200  0.524100  0.563500  1.0
  C  C2952  1  0.924800  0.524100  0.936500  1.0
  C  C2953  1  0.413800  0.941300  0.429000  1.0
  C  C2954  1  0.586200  0.941300  0.071000  1.0
  C  C2955  1  0.913800  0.441300  0.429000  1.0
  C  C2956  1  0.086200  0.441300  0.071000  1.0
  C  C2957  1  0.586200  0.058700  0.571000  1.0
  C  C2958  1  0.413800  0.058700  0.929000  1.0
  C  C2959  1  0.086200  0.558700  0.571000  1.0
  C  C2960  1  0.913800  0.558700  0.929000  1.0
  C  C2961  1  0.429100  0.922400  0.408700  1.0
  C  C2962  1  0.570900  0.922400  0.091300  1.0
  C  C2963  1  0.929100  0.422400  0.408700  1.0
  C  C2964  1  0.070900  0.422400  0.091300  1.0
  C  C2965  1  0.570900  0.077600  0.591300  1.0
  C  C2966  1  0.429100  0.077600  0.908700  1.0
  C  C2967  1  0.070900  0.577600  0.591300  1.0
  C  C2968  1  0.929100  0.577600  0.908700  1.0
  C  C2969  1  0.457200  0.938700  0.396000  1.0
  C  C2970  1  0.542800  0.938700  0.104000  1.0
  C  C2971  1  0.957200  0.438700  0.396000  1.0
  C  C2972  1  0.042800  0.438700  0.104000  1.0
  C  C2973  1  0.542800  0.061300  0.604000  1.0
  C  C2974  1  0.457200  0.061300  0.896000  1.0
  C  C2975  1  0.042800  0.561300  0.604000  1.0
  C  C2976  1  0.957200  0.561300  0.896000  1.0
  C  C2977  1  0.530600  0.967800  0.394100  1.0
  C  C2978  1  0.469400  0.967800  0.105900  1.0
  C  C2979  1  0.030600  0.467800  0.394100  1.0
  C  C2980  1  0.969400  0.467800  0.105900  1.0
  C  C2981  1  0.469400  0.032200  0.605900  1.0
  C  C2982  1  0.530600  0.032200  0.894100  1.0
  C  C2983  1  0.969400  0.532200  0.605900  1.0
  C  C2984  1  0.030600  0.532200  0.894100  1.0
  C  C2985  1  0.564100  0.983000  0.383900  1.0
  C  C2986  1  0.435900  0.983000  0.116100  1.0
  C  C2987  1  0.064100  0.483000  0.383900  1.0
  C  C2988  1  0.935900  0.483000  0.116100  1.0
  C  C2989  1  0.435900  0.017000  0.616100  1.0
  C  C2990  1  0.564100  0.017000  0.883900  1.0
  C  C2991  1  0.935900  0.517000  0.616100  1.0
  C  C2992  1  0.064100  0.517000  0.883900  1.0
  C  C2993  1  0.597000  0.963700  0.384000  1.0
  C  C2994  1  0.403000  0.963700  0.116000  1.0
  C  C2995  1  0.097000  0.463700  0.384000  1.0
  C  C2996  1  0.903000  0.463700  0.116000  1.0
  C  C2997  1  0.403000  0.036300  0.616000  1.0
  C  C2998  1  0.597000  0.036300  0.884000  1.0
  C  C2999  1  0.903000  0.536300  0.616000  1.0
  C  C3000  1  0.097000  0.536300  0.884000  1.0
  C  C3001  1  0.627300  0.981800  0.374800  1.0
  C  C3002  1  0.372700  0.981800  0.125200  1.0
  C  C3003  1  0.127300  0.481800  0.374800  1.0
  C  C3004  1  0.872700  0.481800  0.125200  1.0
  C  C3005  1  0.372700  0.018200  0.625200  1.0
  C  C3006  1  0.627300  0.018200  0.874800  1.0
  C  C3007  1  0.872700  0.518200  0.625200  1.0
  C  C3008  1  0.127300  0.518200  0.874800  1.0
  C  C3009  1  0.623500  0.017500  0.365000  1.0
  C  C3010  1  0.376500  0.017500  0.135000  1.0
  C  C3011  1  0.123500  0.517500  0.365000  1.0
  C  C3012  1  0.876500  0.517500  0.135000  1.0
  C  C3013  1  0.376500  0.982500  0.635000  1.0
  C  C3014  1  0.623500  0.982500  0.865000  1.0
  C  C3015  1  0.876500  0.482500  0.635000  1.0
  C  C3016  1  0.123500  0.482500  0.865000  1.0
  C  C3017  1  0.589200  0.034300  0.365400  1.0
  C  C3018  1  0.410800  0.034300  0.134600  1.0
  C  C3019  1  0.089200  0.534300  0.365400  1.0
  C  C3020  1  0.910800  0.534300  0.134600  1.0
  C  C3021  1  0.410800  0.965700  0.634600  1.0
  C  C3022  1  0.589200  0.965700  0.865400  1.0
  C  C3023  1  0.910800  0.465700  0.634600  1.0
  C  C3024  1  0.089200  0.465700  0.865400  1.0
  C  C3025  1  0.653500  0.037600  0.353000  1.0
  C  C3026  1  0.346500  0.037600  0.147000  1.0
  C  C3027  1  0.153500  0.537600  0.353000  1.0
  C  C3028  1  0.846500  0.537600  0.147000  1.0
  C  C3029  1  0.346500  0.962400  0.647000  1.0
  C  C3030  1  0.653500  0.962400  0.853000  1.0
  C  C3031  1  0.846500  0.462400  0.647000  1.0
  C  C3032  1  0.153500  0.462400  0.853000  1.0
  C  C3033  1  0.688200  0.045600  0.366700  1.0
  C  C3034  1  0.311800  0.045600  0.133300  1.0
  C  C3035  1  0.188200  0.545600  0.366700  1.0
  C  C3036  1  0.811800  0.545600  0.133300  1.0
  C  C3037  1  0.311800  0.954400  0.633300  1.0
  C  C3038  1  0.688200  0.954400  0.866700  1.0
  C  C3039  1  0.811800  0.454400  0.633300  1.0
  C  C3040  1  0.188200  0.454400  0.866700  1.0
  C  C3041  1  0.712400  0.066600  0.352500  1.0
  C  C3042  1  0.287600  0.066600  0.147500  1.0
  C  C3043  1  0.212400  0.566600  0.352500  1.0
  C  C3044  1  0.787600  0.566600  0.147500  1.0
  C  C3045  1  0.287600  0.933400  0.647500  1.0
  C  C3046  1  0.712400  0.933400  0.852500  1.0
  C  C3047  1  0.787600  0.433400  0.647500  1.0
  C  C3048  1  0.212400  0.433400  0.852500  1.0
  C  C3049  1  0.699300  0.079300  0.326400  1.0
  C  C3050  1  0.300700  0.079300  0.173600  1.0
  C  C3051  1  0.199300  0.579300  0.326400  1.0
  C  C3052  1  0.800700  0.579300  0.173600  1.0
  C  C3053  1  0.300700  0.920700  0.673600  1.0
  C  C3054  1  0.699300  0.920700  0.826400  1.0
  C  C3055  1  0.800700  0.420700  0.673600  1.0
  C  C3056  1  0.199300  0.420700  0.826400  1.0
  C  C3057  1  0.731800  0.138900  0.321400  1.0
  C  C3058  1  0.268200  0.138900  0.178600  1.0
  C  C3059  1  0.231800  0.638900  0.321400  1.0
  C  C3060  1  0.768200  0.638900  0.178600  1.0
  C  C3061  1  0.268200  0.861100  0.678600  1.0
  C  C3062  1  0.731800  0.861100  0.821400  1.0
  C  C3063  1  0.768200  0.361100  0.678600  1.0
  C  C3064  1  0.231800  0.361100  0.821400  1.0
  C  C3065  1  0.718900  0.105800  0.310100  1.0
  C  C3066  1  0.281100  0.105800  0.189900  1.0
  C  C3067  1  0.218900  0.605800  0.310100  1.0
  C  C3068  1  0.781100  0.605800  0.189900  1.0
  C  C3069  1  0.281100  0.894200  0.689900  1.0
  C  C3070  1  0.718900  0.894200  0.810100  1.0
  C  C3071  1  0.781100  0.394200  0.689900  1.0
  C  C3072  1  0.218900  0.394200  0.810100  1.0
  C  C3073  1  0.722600  0.099400  0.282500  1.0
  C  C3074  1  0.277400  0.099400  0.217500  1.0
  C  C3075  1  0.222600  0.599400  0.282500  1.0
  C  C3076  1  0.777400  0.599400  0.217500  1.0
  C  C3077  1  0.277400  0.900600  0.717500  1.0
  C  C3078  1  0.722600  0.900600  0.782500  1.0
  C  C3079  1  0.777400  0.400600  0.717500  1.0
  C  C3080  1  0.222600  0.400600  0.782500  1.0
  C  C3081  1  0.738700  0.126200  0.267300  1.0
  C  C3082  1  0.261300  0.126200  0.232700  1.0
  C  C3083  1  0.238700  0.626200  0.267300  1.0
  C  C3084  1  0.761300  0.626200  0.232700  1.0
  C  C3085  1  0.261300  0.873800  0.732700  1.0
  C  C3086  1  0.738700  0.873800  0.767300  1.0
  C  C3087  1  0.761300  0.373800  0.732700  1.0
  C  C3088  1  0.238700  0.373800  0.767300  1.0
  C  C3089  1  0.751300  0.158200  0.280370  1.0
  C  C3090  1  0.248700  0.158200  0.219630  1.0
  C  C3091  1  0.251300  0.658200  0.280370  1.0
  C  C3092  1  0.748700  0.658200  0.219630  1.0
  C  C3093  1  0.248700  0.841800  0.719630  1.0
  C  C3094  1  0.751300  0.841800  0.780370  1.0
  C  C3095  1  0.748700  0.341800  0.719630  1.0
  C  C3096  1  0.251300  0.341800  0.780370  1.0
  C  C3097  1  0.771500  0.187500  0.267300  1.0
  C  C3098  1  0.228500  0.187500  0.232700  1.0
  C  C3099  1  0.271500  0.687500  0.267300  1.0
  C  C3100  1  0.728500  0.687500  0.232700  1.0
  C  C3101  1  0.228500  0.812500  0.732700  1.0
  C  C3102  1  0.771500  0.812500  0.767300  1.0
  C  C3103  1  0.728500  0.312500  0.732700  1.0
  C  C3104  1  0.271500  0.312500  0.767300  1.0
  C  C3105  1  0.803900  0.242800  0.271100  1.0
  C  C3106  1  0.196100  0.242800  0.228900  1.0
  C  C3107  1  0.303900  0.742800  0.271100  1.0
  C  C3108  1  0.696100  0.742800  0.228900  1.0
  C  C3109  1  0.196100  0.757200  0.728900  1.0
  C  C3110  1  0.803900  0.757200  0.771100  1.0
  C  C3111  1  0.696100  0.257200  0.728900  1.0
  C  C3112  1  0.303900  0.257200  0.771100  1.0
  C  C3113  1  0.838700  0.233500  0.263700  1.0
  C  C3114  1  0.161300  0.233500  0.236300  1.0
  C  C3115  1  0.338700  0.733500  0.263700  1.0
  C  C3116  1  0.661300  0.733500  0.236300  1.0
  C  C3117  1  0.161300  0.766500  0.736300  1.0
  C  C3118  1  0.838700  0.766500  0.763700  1.0
  C  C3119  1  0.661300  0.266500  0.736300  1.0
  C  C3120  1  0.338700  0.266500  0.763700  1.0
  C  C3121  1  0.860500  0.260100  0.253200  1.0
  C  C3122  1  0.139500  0.260100  0.246800  1.0
  C  C3123  1  0.360500  0.760100  0.253200  1.0
  C  C3124  1  0.639500  0.760100  0.246800  1.0
  C  C3125  1  0.139500  0.739900  0.746800  1.0
  C  C3126  1  0.860500  0.739900  0.753200  1.0
  C  C3127  1  0.639500  0.239900  0.746800  1.0
  C  C3128  1  0.360500  0.239900  0.753200  1.0
  C  C3129  1  0.847900  0.295200  0.250500  1.0
  C  C3130  1  0.152100  0.295200  0.249500  1.0
  C  C3131  1  0.347900  0.795200  0.250500  1.0
  C  C3132  1  0.652100  0.795200  0.249500  1.0
  C  C3133  1  0.152100  0.704800  0.749500  1.0
  C  C3134  1  0.847900  0.704800  0.750500  1.0
  C  C3135  1  0.652100  0.204800  0.749500  1.0
  C  C3136  1  0.347900  0.204800  0.750500  1.0
  C  C3137  1  0.814300  0.305400  0.257800  1.0
  C  C3138  1  0.185700  0.305400  0.242200  1.0
  C  C3139  1  0.314300  0.805400  0.257800  1.0
  C  C3140  1  0.685700  0.805400  0.242200  1.0
  C  C3141  1  0.185700  0.694600  0.742200  1.0
  C  C3142  1  0.814300  0.694600  0.757800  1.0
  C  C3143  1  0.685700  0.194600  0.742200  1.0
  C  C3144  1  0.314300  0.194600  0.757800  1.0
  C  C3145  1  0.792100  0.279000  0.268000  1.0
  C  C3146  1  0.207900  0.279000  0.232000  1.0
  C  C3147  1  0.292100  0.779000  0.268000  1.0
  C  C3148  1  0.707900  0.779000  0.232000  1.0
  C  C3149  1  0.207900  0.721000  0.732000  1.0
  C  C3150  1  0.792100  0.721000  0.768000  1.0
  C  C3151  1  0.707900  0.221000  0.732000  1.0
  C  C3152  1  0.292100  0.221000  0.768000  1.0
  C  C3153  1  0.698900  0.034500  0.396200  1.0
  C  C3154  1  0.301100  0.034500  0.103800  1.0
  C  C3155  1  0.198900  0.534500  0.396200  1.0
  C  C3156  1  0.801100  0.534500  0.103800  1.0
  C  C3157  1  0.301100  0.965500  0.603800  1.0
  C  C3158  1  0.698900  0.965500  0.896200  1.0
  C  C3159  1  0.801100  0.465500  0.603800  1.0
  C  C3160  1  0.198900  0.465500  0.896200  1.0
  C  C3161  1  0.720200  0.997900  0.400000  1.0
  C  C3162  1  0.279800  0.997900  0.100000  1.0
  C  C3163  1  0.220200  0.497900  0.400000  1.0
  C  C3164  1  0.779800  0.497900  0.100000  1.0
  C  C3165  1  0.279800  0.002100  0.600000  1.0
  C  C3166  1  0.720200  0.002100  0.900000  1.0
  C  C3167  1  0.779800  0.502100  0.600000  1.0
  C  C3168  1  0.220200  0.502100  0.900000  1.0
  C  C3169  1  0.761100  0.999600  0.393000  1.0
  C  C3170  1  0.238900  0.999600  0.107000  1.0
  C  C3171  1  0.261100  0.499600  0.393000  1.0
  C  C3172  1  0.738900  0.499600  0.107000  1.0
  C  C3173  1  0.238900  0.000400  0.607000  1.0
  C  C3174  1  0.761100  0.000400  0.893000  1.0
  C  C3175  1  0.738900  0.500400  0.607000  1.0
  C  C3176  1  0.261100  0.500400  0.893000  1.0
  C  C3177  1  0.763900  0.002200  0.362300  1.0
  C  C3178  1  0.236100  0.002200  0.137700  1.0
  C  C3179  1  0.263900  0.502200  0.362300  1.0
  C  C3180  1  0.736100  0.502200  0.137700  1.0
  C  C3181  1  0.236100  0.997800  0.637700  1.0
  C  C3182  1  0.763900  0.997800  0.862300  1.0
  C  C3183  1  0.736100  0.497800  0.637700  1.0
  C  C3184  1  0.263900  0.497800  0.862300  1.0
  C  C3185  1  0.777800  0.041000  0.354500  1.0
  C  C3186  1  0.222200  0.041000  0.145500  1.0
  C  C3187  1  0.277800  0.541000  0.354500  1.0
  C  C3188  1  0.722200  0.541000  0.145500  1.0
  C  C3189  1  0.222200  0.959000  0.645500  1.0
  C  C3190  1  0.777800  0.959000  0.854500  1.0
  C  C3191  1  0.722200  0.459000  0.645500  1.0
  C  C3192  1  0.277800  0.459000  0.854500  1.0
  C  C3193  1  0.752400  0.071900  0.363900  1.0
  C  C3194  1  0.247600  0.071900  0.136100  1.0
  C  C3195  1  0.252400  0.571900  0.363900  1.0
  C  C3196  1  0.747600  0.571900  0.136100  1.0
  C  C3197  1  0.247600  0.928100  0.636100  1.0
  C  C3198  1  0.752400  0.928100  0.863900  1.0
  C  C3199  1  0.747600  0.428100  0.636100  1.0
  C  C3200  1  0.252400  0.428100  0.863900  1.0
  C  C3201  1  0.374300  0.938200  0.465500  1.0
  C  C3202  1  0.625700  0.938200  0.034500  1.0
  C  C3203  1  0.874300  0.438200  0.465500  1.0
  C  C3204  1  0.125700  0.438200  0.034500  1.0
  C  C3205  1  0.625700  0.061800  0.534500  1.0
  C  C3206  1  0.374300  0.061800  0.965500  1.0
  C  C3207  1  0.125700  0.561800  0.534500  1.0
  C  C3208  1  0.874300  0.561800  0.965500  1.0
  C  C3209  1  0.905300  0.309900  0.232300  1.0
  C  C3210  1  0.094700  0.309900  0.267700  1.0
  C  C3211  1  0.405300  0.809900  0.232300  1.0
  C  C3212  1  0.594700  0.809900  0.267700  1.0
  C  C3213  1  0.094700  0.690100  0.767700  1.0
  C  C3214  1  0.905300  0.690100  0.732300  1.0
  C  C3215  1  0.594700  0.190100  0.767700  1.0
  C  C3216  1  0.405300  0.190100  0.732300  1.0
  C  C3217  1  0.519600  0.976300  0.325600  1.0
  C  C3218  1  0.480400  0.976300  0.174400  1.0
  C  C3219  1  0.019600  0.476300  0.325600  1.0
  C  C3220  1  0.980400  0.476300  0.174400  1.0
  C  C3221  1  0.480400  0.023700  0.674400  1.0
  C  C3222  1  0.519600  0.023700  0.825600  1.0
  C  C3223  1  0.980400  0.523700  0.674400  1.0
  C  C3224  1  0.019600  0.523700  0.825600  1.0
  C  C3225  1  0.512300  0.938900  0.325300  1.0
  C  C3226  1  0.487700  0.938900  0.174700  1.0
  C  C3227  1  0.012300  0.438900  0.325300  1.0
  C  C3228  1  0.987700  0.438900  0.174700  1.0
  C  C3229  1  0.487700  0.061100  0.674700  1.0
  C  C3230  1  0.512300  0.061100  0.825300  1.0
  C  C3231  1  0.987700  0.561100  0.674700  1.0
  C  C3232  1  0.012300  0.561100  0.825300  1.0
  C  C3233  1  0.536800  0.914400  0.314900  1.0
  C  C3234  1  0.463200  0.914400  0.185100  1.0
  C  C3235  1  0.036800  0.414400  0.314900  1.0
  C  C3236  1  0.963200  0.414400  0.185100  1.0
  C  C3237  1  0.463200  0.085600  0.685100  1.0
  C  C3238  1  0.536800  0.085600  0.814900  1.0
  C  C3239  1  0.963200  0.585600  0.685100  1.0
  C  C3240  1  0.036800  0.585600  0.814900  1.0
  C  C3241  1  0.567900  0.928400  0.304900  1.0
  C  C3242  1  0.432100  0.928400  0.195100  1.0
  C  C3243  1  0.067900  0.428400  0.304900  1.0
  C  C3244  1  0.932100  0.428400  0.195100  1.0
  C  C3245  1  0.432100  0.071600  0.695100  1.0
  C  C3246  1  0.567900  0.071600  0.804900  1.0
  C  C3247  1  0.932100  0.571600  0.695100  1.0
  C  C3248  1  0.067900  0.571600  0.804900  1.0
  C  C3249  1  0.575600  0.965300  0.304600  1.0
  C  C3250  1  0.424400  0.965300  0.195400  1.0
  C  C3251  1  0.075600  0.465300  0.304600  1.0
  C  C3252  1  0.924400  0.465300  0.195400  1.0
  C  C3253  1  0.424400  0.034700  0.695400  1.0
  C  C3254  1  0.575600  0.034700  0.804600  1.0
  C  C3255  1  0.924400  0.534700  0.695400  1.0
  C  C3256  1  0.075600  0.534700  0.804600  1.0
  C  C3257  1  0.551200  0.989300  0.315100  1.0
  C  C3258  1  0.448800  0.989300  0.184900  1.0
  C  C3259  1  0.051200  0.489300  0.315100  1.0
  C  C3260  1  0.948800  0.489300  0.184900  1.0
  C  C3261  1  0.448800  0.010700  0.684900  1.0
  C  C3262  1  0.551200  0.010700  0.815100  1.0
  C  C3263  1  0.948800  0.510700  0.684900  1.0
  C  C3264  1  0.051200  0.510700  0.815100  1.0
  C  C3265  1  0.460800  0.001200  0.328200  1.0
  C  C3266  1  0.539200  0.001200  0.171800  1.0
  C  C3267  1  0.960800  0.501200  0.328200  1.0
  C  C3268  1  0.039200  0.501200  0.171800  1.0
  C  C3269  1  0.539200  0.998800  0.671800  1.0
  C  C3270  1  0.460800  0.998800  0.828200  1.0
  C  C3271  1  0.039200  0.498800  0.671800  1.0
  C  C3272  1  0.960800  0.498800  0.828200  1.0
  C  C3273  1  0.436100  0.025500  0.341640  1.0
  C  C3274  1  0.563900  0.025500  0.158360  1.0
  C  C3275  1  0.936100  0.525500  0.341640  1.0
  C  C3276  1  0.063900  0.525500  0.158360  1.0
  C  C3277  1  0.563900  0.974500  0.658360  1.0
  C  C3278  1  0.436100  0.974500  0.841640  1.0
  C  C3279  1  0.063900  0.474500  0.658360  1.0
  C  C3280  1  0.936100  0.474500  0.841640  1.0
  C  C3281  1  0.399000  0.031200  0.332700  1.0
  C  C3282  1  0.601000  0.031200  0.167300  1.0
  C  C3283  1  0.899000  0.531200  0.332700  1.0
  C  C3284  1  0.101000  0.531200  0.167300  1.0
  C  C3285  1  0.601000  0.968800  0.667300  1.0
  C  C3286  1  0.399000  0.968800  0.832700  1.0
  C  C3287  1  0.101000  0.468800  0.667300  1.0
  C  C3288  1  0.899000  0.468800  0.832700  1.0
  C  C3289  1  0.379100  0.056100  0.346500  1.0
  C  C3290  1  0.620900  0.056100  0.153500  1.0
  C  C3291  1  0.879100  0.556100  0.346500  1.0
  C  C3292  1  0.120900  0.556100  0.153500  1.0
  C  C3293  1  0.620900  0.943900  0.653500  1.0
  C  C3294  1  0.379100  0.943900  0.846500  1.0
  C  C3295  1  0.120900  0.443900  0.653500  1.0
  C  C3296  1  0.879100  0.443900  0.846500  1.0
  C  C3297  1  0.395500  0.074300  0.369400  1.0
  C  C3298  1  0.604500  0.074300  0.130600  1.0
  C  C3299  1  0.895500  0.574300  0.369400  1.0
  C  C3300  1  0.104500  0.574300  0.130600  1.0
  C  C3301  1  0.604500  0.925700  0.630600  1.0
  C  C3302  1  0.395500  0.925700  0.869400  1.0
  C  C3303  1  0.104500  0.425700  0.630600  1.0
  C  C3304  1  0.895500  0.425700  0.869400  1.0
  C  C3305  1  0.432900  0.067100  0.377000  1.0
  C  C3306  1  0.567100  0.067100  0.123000  1.0
  C  C3307  1  0.932900  0.567100  0.377000  1.0
  C  C3308  1  0.067100  0.567100  0.123000  1.0
  C  C3309  1  0.567100  0.932900  0.623000  1.0
  C  C3310  1  0.432900  0.932900  0.877000  1.0
  C  C3311  1  0.067100  0.432900  0.623000  1.0
  C  C3312  1  0.932900  0.432900  0.877000  1.0
  C  C3313  1  0.374900  0.101600  0.384530  1.0
  C  C3314  1  0.625100  0.101600  0.115470  1.0
  C  C3315  1  0.874900  0.601600  0.384530  1.0
  C  C3316  1  0.125100  0.601600  0.115470  1.0
  C  C3317  1  0.625100  0.898400  0.615470  1.0
  C  C3318  1  0.374900  0.898400  0.884530  1.0
  C  C3319  1  0.125100  0.398400  0.615470  1.0
  C  C3320  1  0.874900  0.398400  0.884530  1.0
  C  C3321  1  0.368800  0.097300  0.412080  1.0
  C  C3322  1  0.631200  0.097300  0.087920  1.0
  C  C3323  1  0.868800  0.597300  0.412080  1.0
  C  C3324  1  0.131200  0.597300  0.087920  1.0
  C  C3325  1  0.631200  0.902700  0.587920  1.0
  C  C3326  1  0.368800  0.902700  0.912080  1.0
  C  C3327  1  0.131200  0.402700  0.587920  1.0
  C  C3328  1  0.868800  0.402700  0.912080  1.0
  C  C3329  1  0.351400  0.126100  0.424710  1.0
  C  C3330  1  0.648600  0.126100  0.075290  1.0
  C  C3331  1  0.851400  0.626100  0.424710  1.0
  C  C3332  1  0.148600  0.626100  0.075290  1.0
  C  C3333  1  0.648600  0.873900  0.575290  1.0
  C  C3334  1  0.351400  0.873900  0.924710  1.0
  C  C3335  1  0.148600  0.373900  0.575290  1.0
  C  C3336  1  0.851400  0.373900  0.924710  1.0
  C  C3337  1  0.341800  0.156700  0.407810  1.0
  C  C3338  1  0.658200  0.156700  0.092190  1.0
  C  C3339  1  0.841800  0.656700  0.407810  1.0
  C  C3340  1  0.158200  0.656700  0.092190  1.0
  C  C3341  1  0.658200  0.843300  0.592190  1.0
  C  C3342  1  0.341800  0.843300  0.907810  1.0
  C  C3343  1  0.158200  0.343300  0.592190  1.0
  C  C3344  1  0.841800  0.343300  0.907810  1.0
  C  C3345  1  0.340500  0.225000  0.410000  1.0
  C  C3346  1  0.659500  0.225000  0.090000  1.0
  C  C3347  1  0.840500  0.725000  0.410000  1.0
  C  C3348  1  0.159500  0.725000  0.090000  1.0
  C  C3349  1  0.659500  0.775000  0.590000  1.0
  C  C3350  1  0.340500  0.775000  0.910000  1.0
  C  C3351  1  0.159500  0.275000  0.590000  1.0
  C  C3352  1  0.840500  0.275000  0.910000  1.0
  C  C3353  1  0.326100  0.191300  0.417900  1.0
  C  C3354  1  0.673900  0.191300  0.082100  1.0
  C  C3355  1  0.826100  0.691300  0.417900  1.0
  C  C3356  1  0.173900  0.691300  0.082100  1.0
  C  C3357  1  0.673900  0.808700  0.582100  1.0
  C  C3358  1  0.326100  0.808700  0.917900  1.0
  C  C3359  1  0.173900  0.308700  0.582100  1.0
  C  C3360  1  0.826100  0.308700  0.917900  1.0
  C  C3361  1  0.296600  0.192400  0.433900  1.0
  C  C3362  1  0.703400  0.192400  0.066100  1.0
  C  C3363  1  0.796600  0.692400  0.433900  1.0
  C  C3364  1  0.203400  0.692400  0.066100  1.0
  C  C3365  1  0.703400  0.807600  0.566100  1.0
  C  C3366  1  0.296600  0.807600  0.933900  1.0
  C  C3367  1  0.203400  0.307600  0.566100  1.0
  C  C3368  1  0.796600  0.307600  0.933900  1.0
  C  C3369  1  0.282800  0.226100  0.441700  1.0
  C  C3370  1  0.717200  0.226100  0.058300  1.0
  C  C3371  1  0.782800  0.726100  0.441700  1.0
  C  C3372  1  0.217200  0.726100  0.058300  1.0
  C  C3373  1  0.717200  0.773900  0.558300  1.0
  C  C3374  1  0.282800  0.773900  0.941700  1.0
  C  C3375  1  0.217200  0.273900  0.558300  1.0
  C  C3376  1  0.782800  0.273900  0.941700  1.0
  C  C3377  1  0.299000  0.257900  0.433000  1.0
  C  C3378  1  0.701000  0.257900  0.067000  1.0
  C  C3379  1  0.799000  0.757900  0.433000  1.0
  C  C3380  1  0.201000  0.757900  0.067000  1.0
  C  C3381  1  0.701000  0.742100  0.567000  1.0
  C  C3382  1  0.299000  0.742100  0.933000  1.0
  C  C3383  1  0.201000  0.242100  0.567000  1.0
  C  C3384  1  0.799000  0.242100  0.933000  1.0
  C  C3385  1  0.287700  0.295000  0.440500  1.0
  C  C3386  1  0.712300  0.295000  0.059500  1.0
  C  C3387  1  0.787700  0.795000  0.440500  1.0
  C  C3388  1  0.212300  0.795000  0.059500  1.0
  C  C3389  1  0.712300  0.705000  0.559500  1.0
  C  C3390  1  0.287700  0.705000  0.940500  1.0
  C  C3391  1  0.212300  0.205000  0.559500  1.0
  C  C3392  1  0.787700  0.205000  0.940500  1.0
  C  C3393  1  0.293300  0.358200  0.438800  1.0
  C  C3394  1  0.706700  0.358200  0.061200  1.0
  C  C3395  1  0.793300  0.858200  0.438800  1.0
  C  C3396  1  0.206700  0.858200  0.061200  1.0
  C  C3397  1  0.706700  0.641800  0.561200  1.0
  C  C3398  1  0.293300  0.641800  0.938800  1.0
  C  C3399  1  0.206700  0.141800  0.561200  1.0
  C  C3400  1  0.793300  0.141800  0.938800  1.0
  C  C3401  1  0.256200  0.369200  0.437500  1.0
  C  C3402  1  0.743800  0.369200  0.062500  1.0
  C  C3403  1  0.756200  0.869200  0.437500  1.0
  C  C3404  1  0.243800  0.869200  0.062500  1.0
  C  C3405  1  0.743800  0.630800  0.562500  1.0
  C  C3406  1  0.256200  0.630800  0.937500  1.0
  C  C3407  1  0.243800  0.130800  0.562500  1.0
  C  C3408  1  0.756200  0.130800  0.937500  1.0
  C  C3409  1  0.247200  0.403400  0.447400  1.0
  C  C3410  1  0.752800  0.403400  0.052600  1.0
  C  C3411  1  0.747200  0.903400  0.447400  1.0
  C  C3412  1  0.252800  0.903400  0.052600  1.0
  C  C3413  1  0.752800  0.596600  0.552600  1.0
  C  C3414  1  0.247200  0.596600  0.947400  1.0
  C  C3415  1  0.252800  0.096600  0.552600  1.0
  C  C3416  1  0.747200  0.096600  0.947400  1.0
  C  C3417  1  0.274900  0.425800  0.458900  1.0
  C  C3418  1  0.725100  0.425800  0.041100  1.0
  C  C3419  1  0.774900  0.925800  0.458900  1.0
  C  C3420  1  0.225100  0.925800  0.041100  1.0
  C  C3421  1  0.725100  0.574200  0.541100  1.0
  C  C3422  1  0.274900  0.574200  0.958900  1.0
  C  C3423  1  0.225100  0.074200  0.541100  1.0
  C  C3424  1  0.774900  0.074200  0.958900  1.0
  C  C3425  1  0.310900  0.415500  0.461100  1.0
  C  C3426  1  0.689100  0.415500  0.038900  1.0
  C  C3427  1  0.810900  0.915500  0.461100  1.0
  C  C3428  1  0.189100  0.915500  0.038900  1.0
  C  C3429  1  0.689100  0.584500  0.538900  1.0
  C  C3430  1  0.310900  0.584500  0.961100  1.0
  C  C3431  1  0.189100  0.084500  0.538900  1.0
  C  C3432  1  0.810900  0.084500  0.961100  1.0
  C  C3433  1  0.320200  0.381900  0.450600  1.0
  C  C3434  1  0.679800  0.381900  0.049400  1.0
  C  C3435  1  0.820200  0.881900  0.450600  1.0
  C  C3436  1  0.179800  0.881900  0.049400  1.0
  C  C3437  1  0.679800  0.618100  0.549400  1.0
  C  C3438  1  0.320200  0.618100  0.950600  1.0
  C  C3439  1  0.179800  0.118100  0.549400  1.0
  C  C3440  1  0.820200  0.118100  0.950600  1.0
  C  C3441  1  0.378000  0.061300  0.426800  1.0
  C  C3442  1  0.622000  0.061300  0.073200  1.0
  C  C3443  1  0.878000  0.561300  0.426800  1.0
  C  C3444  1  0.122000  0.561300  0.073200  1.0
  C  C3445  1  0.622000  0.938700  0.573200  1.0
  C  C3446  1  0.378000  0.938700  0.926800  1.0
  C  C3447  1  0.122000  0.438700  0.573200  1.0
  C  C3448  1  0.878000  0.438700  0.926800  1.0
  C  C3449  1  0.345600  0.034600  0.420400  1.0
  C  C3450  1  0.654400  0.034600  0.079600  1.0
  C  C3451  1  0.845600  0.534600  0.420400  1.0
  C  C3452  1  0.154400  0.534600  0.079600  1.0
  C  C3453  1  0.654400  0.965400  0.579600  1.0
  C  C3454  1  0.345600  0.965400  0.920400  1.0
  C  C3455  1  0.154400  0.465400  0.579600  1.0
  C  C3456  1  0.845600  0.465400  0.920400  1.0
  C  C3457  1  0.308200  0.047300  0.427100  1.0
  C  C3458  1  0.691800  0.047300  0.072900  1.0
  C  C3459  1  0.808200  0.547300  0.427100  1.0
  C  C3460  1  0.191800  0.547300  0.072900  1.0
  C  C3461  1  0.691800  0.952700  0.572900  1.0
  C  C3462  1  0.308200  0.952700  0.927100  1.0
  C  C3463  1  0.191800  0.452700  0.572900  1.0
  C  C3464  1  0.808200  0.452700  0.927100  1.0
  C  C3465  1  0.307600  0.061400  0.456700  1.0
  C  C3466  1  0.692400  0.061400  0.043300  1.0
  C  C3467  1  0.807600  0.561400  0.456700  1.0
  C  C3468  1  0.192400  0.561400  0.043300  1.0
  C  C3469  1  0.692400  0.938600  0.543300  1.0
  C  C3470  1  0.307600  0.938600  0.956700  1.0
  C  C3471  1  0.192400  0.438600  0.543300  1.0
  C  C3472  1  0.807600  0.438600  0.956700  1.0
  C  C3473  1  0.307700  0.103800  0.460300  1.0
  C  C3474  1  0.692300  0.103800  0.039700  1.0
  C  C3475  1  0.807700  0.603800  0.460300  1.0
  C  C3476  1  0.192300  0.603800  0.039700  1.0
  C  C3477  1  0.692300  0.896200  0.539700  1.0
  C  C3478  1  0.307700  0.896200  0.960300  1.0
  C  C3479  1  0.192300  0.396200  0.539700  1.0
  C  C3480  1  0.807700  0.396200  0.960300  1.0
  C  C3481  1  0.344000  0.122600  0.454490  1.0
  C  C3482  1  0.656000  0.122600  0.045510  1.0
  C  C3483  1  0.844000  0.622600  0.454490  1.0
  C  C3484  1  0.156000  0.622600  0.045510  1.0
  C  C3485  1  0.656000  0.877400  0.545510  1.0
  C  C3486  1  0.344000  0.877400  0.954490  1.0
  C  C3487  1  0.156000  0.377400  0.545510  1.0
  C  C3488  1  0.844000  0.377400  0.954490  1.0
  C  C3489  1  0.627200  0.917400  0.286200  1.0
  C  C3490  1  0.372800  0.917400  0.213800  1.0
  C  C3491  1  0.127200  0.417400  0.286200  1.0
  C  C3492  1  0.872800  0.417400  0.213800  1.0
  C  C3493  1  0.372800  0.082600  0.713800  1.0
  C  C3494  1  0.627200  0.082600  0.786200  1.0
  C  C3495  1  0.872800  0.582600  0.713800  1.0
  C  C3496  1  0.127200  0.582600  0.786200  1.0
  C  C3497  1  0.228600  0.465400  0.472700  1.0
  C  C3498  1  0.771400  0.465400  0.027300  1.0
  C  C3499  1  0.728600  0.965400  0.472700  1.0
  C  C3500  1  0.271400  0.965400  0.027300  1.0
  C  C3501  1  0.771400  0.534600  0.527300  1.0
  C  C3502  1  0.228600  0.534600  0.972700  1.0
  C  C3503  1  0.271400  0.034600  0.527300  1.0
  C  C3504  1  0.728600  0.034600  0.972700  1.0
  C  C3505  1  0.830800  0.159900  0.338000  1.0
  C  C3506  1  0.169200  0.159900  0.162000  1.0
  C  C3507  1  0.330800  0.659900  0.338000  1.0
  C  C3508  1  0.669200  0.659900  0.162000  1.0
  C  C3509  1  0.169200  0.840100  0.662000  1.0
  C  C3510  1  0.830800  0.840100  0.838000  1.0
  C  C3511  1  0.669200  0.340100  0.662000  1.0
  C  C3512  1  0.330800  0.340100  0.838000  1.0
  C  C3513  1  0.844200  0.150000  0.364500  1.0
  C  C3514  1  0.155800  0.150000  0.135500  1.0
  C  C3515  1  0.344200  0.650000  0.364500  1.0
  C  C3516  1  0.655800  0.650000  0.135500  1.0
  C  C3517  1  0.155800  0.850000  0.635500  1.0
  C  C3518  1  0.844200  0.850000  0.864500  1.0
  C  C3519  1  0.655800  0.350000  0.635500  1.0
  C  C3520  1  0.344200  0.350000  0.864500  1.0
  C  C3521  1  0.858500  0.115300  0.370400  1.0
  C  C3522  1  0.141500  0.115300  0.129600  1.0
  C  C3523  1  0.358500  0.615300  0.370400  1.0
  C  C3524  1  0.641500  0.615300  0.129600  1.0
  C  C3525  1  0.141500  0.884700  0.629600  1.0
  C  C3526  1  0.858500  0.884700  0.870400  1.0
  C  C3527  1  0.641500  0.384700  0.629600  1.0
  C  C3528  1  0.358500  0.384700  0.870400  1.0
  C  C3529  1  0.858900  0.090600  0.349300  1.0
  C  C3530  1  0.141100  0.090600  0.150700  1.0
  C  C3531  1  0.358900  0.590600  0.349300  1.0
  C  C3532  1  0.641100  0.590600  0.150700  1.0
  C  C3533  1  0.141100  0.909400  0.650700  1.0
  C  C3534  1  0.858900  0.909400  0.849300  1.0
  C  C3535  1  0.641100  0.409400  0.650700  1.0
  C  C3536  1  0.358900  0.409400  0.849300  1.0
  C  C3537  1  0.845200  0.099000  0.323300  1.0
  C  C3538  1  0.154800  0.099000  0.176700  1.0
  C  C3539  1  0.345200  0.599000  0.323300  1.0
  C  C3540  1  0.654800  0.599000  0.176700  1.0
  C  C3541  1  0.154800  0.901000  0.676700  1.0
  C  C3542  1  0.845200  0.901000  0.823300  1.0
  C  C3543  1  0.654800  0.401000  0.676700  1.0
  C  C3544  1  0.345200  0.401000  0.823300  1.0
  C  C3545  1  0.830400  0.133900  0.317500  1.0
  C  C3546  1  0.169600  0.133900  0.182500  1.0
  C  C3547  1  0.330400  0.633900  0.317500  1.0
  C  C3548  1  0.669600  0.633900  0.182500  1.0
  C  C3549  1  0.169600  0.866100  0.682500  1.0
  C  C3550  1  0.830400  0.866100  0.817500  1.0
  C  C3551  1  0.669600  0.366100  0.682500  1.0
  C  C3552  1  0.330400  0.366100  0.817500  1.0
  C  C3553  1  0.841300  0.223600  0.335900  1.0
  C  C3554  1  0.158700  0.223600  0.164100  1.0
  C  C3555  1  0.341300  0.723600  0.335900  1.0
  C  C3556  1  0.658700  0.723600  0.164100  1.0
  C  C3557  1  0.158700  0.776400  0.664100  1.0
  C  C3558  1  0.841300  0.776400  0.835900  1.0
  C  C3559  1  0.658700  0.276400  0.664100  1.0
  C  C3560  1  0.341300  0.276400  0.835900  1.0
  C  C3561  1  0.826100  0.260800  0.333333  1.0
  C  C3562  1  0.173900  0.260800  0.166667  1.0
  C  C3563  1  0.326100  0.760800  0.333333  1.0
  C  C3564  1  0.673900  0.760800  0.166667  1.0
  C  C3565  1  0.173900  0.739200  0.666667  1.0
  C  C3566  1  0.826100  0.739200  0.833333  1.0
  C  C3567  1  0.673900  0.239200  0.666667  1.0
  C  C3568  1  0.326100  0.239200  0.833333  1.0
  C  C3569  1  0.847800  0.292400  0.336200  1.0
  C  C3570  1  0.152200  0.292400  0.163800  1.0
  C  C3571  1  0.347800  0.792400  0.336200  1.0
  C  C3572  1  0.652200  0.792400  0.163800  1.0
  C  C3573  1  0.152200  0.707600  0.663800  1.0
  C  C3574  1  0.847800  0.707600  0.836200  1.0
  C  C3575  1  0.652200  0.207600  0.663800  1.0
  C  C3576  1  0.347800  0.207600  0.836200  1.0
  C  C3577  1  0.830100  0.326300  0.334600  1.0
  C  C3578  1  0.169900  0.326300  0.165400  1.0
  C  C3579  1  0.330100  0.826300  0.334600  1.0
  C  C3580  1  0.669900  0.826300  0.165400  1.0
  C  C3581  1  0.169900  0.673700  0.665400  1.0
  C  C3582  1  0.830100  0.673700  0.834600  1.0
  C  C3583  1  0.669900  0.173700  0.665400  1.0
  C  C3584  1  0.330100  0.173700  0.834600  1.0
  C  C3585  1  0.791900  0.328200  0.330400  1.0
  C  C3586  1  0.208100  0.328200  0.169600  1.0
  C  C3587  1  0.291900  0.828200  0.330400  1.0
  C  C3588  1  0.708100  0.828200  0.169600  1.0
  C  C3589  1  0.208100  0.671800  0.669600  1.0
  C  C3590  1  0.791900  0.671800  0.830400  1.0
  C  C3591  1  0.708100  0.171800  0.669600  1.0
  C  C3592  1  0.291900  0.171800  0.830400  1.0
  C  C3593  1  0.772600  0.295000  0.327500  1.0
  C  C3594  1  0.227400  0.295000  0.172500  1.0
  C  C3595  1  0.272600  0.795000  0.327500  1.0
  C  C3596  1  0.727400  0.795000  0.172500  1.0
  C  C3597  1  0.227400  0.705000  0.672500  1.0
  C  C3598  1  0.772600  0.705000  0.827500  1.0
  C  C3599  1  0.727400  0.205000  0.672500  1.0
  C  C3600  1  0.272600  0.205000  0.827500  1.0
  C  C3601  1  0.770100  0.362700  0.327400  1.0
  C  C3602  1  0.229900  0.362700  0.172600  1.0
  C  C3603  1  0.270100  0.862700  0.327400  1.0
  C  C3604  1  0.729900  0.862700  0.172600  1.0
  C  C3605  1  0.229900  0.637300  0.672600  1.0
  C  C3606  1  0.770100  0.637300  0.827400  1.0
  C  C3607  1  0.729900  0.137300  0.672600  1.0
  C  C3608  1  0.270100  0.137300  0.827400  1.0
  C  C3609  1  0.771300  0.390800  0.347100  1.0
  C  C3610  1  0.228700  0.390800  0.152900  1.0
  C  C3611  1  0.271300  0.890800  0.347100  1.0
  C  C3612  1  0.728700  0.890800  0.152900  1.0
  C  C3613  1  0.228700  0.609200  0.652900  1.0
  C  C3614  1  0.771300  0.609200  0.847100  1.0
  C  C3615  1  0.728700  0.109200  0.652900  1.0
  C  C3616  1  0.271300  0.109200  0.847100  1.0
  C  C3617  1  0.747200  0.420500  0.341600  1.0
  C  C3618  1  0.252800  0.420500  0.158400  1.0
  C  C3619  1  0.247200  0.920500  0.341600  1.0
  C  C3620  1  0.752800  0.920500  0.158400  1.0
  C  C3621  1  0.252800  0.579500  0.658400  1.0
  C  C3622  1  0.747200  0.579500  0.841600  1.0
  C  C3623  1  0.752800  0.079500  0.658400  1.0
  C  C3624  1  0.247200  0.079500  0.841600  1.0
  C  C3625  1  0.722600  0.418300  0.317700  1.0
  C  C3626  1  0.277400  0.418300  0.182300  1.0
  C  C3627  1  0.222600  0.918300  0.317700  1.0
  C  C3628  1  0.777400  0.918300  0.182300  1.0
  C  C3629  1  0.277400  0.581700  0.682300  1.0
  C  C3630  1  0.722600  0.581700  0.817700  1.0
  C  C3631  1  0.777400  0.081700  0.682300  1.0
  C  C3632  1  0.222600  0.081700  0.817700  1.0
  C  C3633  1  0.666900  0.451500  0.330200  1.0
  C  C3634  1  0.333100  0.451500  0.169800  1.0
  C  C3635  1  0.166900  0.951500  0.330200  1.0
  C  C3636  1  0.833100  0.951500  0.169800  1.0
  C  C3637  1  0.333100  0.548500  0.669800  1.0
  C  C3638  1  0.666900  0.548500  0.830200  1.0
  C  C3639  1  0.833100  0.048500  0.669800  1.0
  C  C3640  1  0.166900  0.048500  0.830200  1.0
  C  C3641  1  0.691500  0.444300  0.311100  1.0
  C  C3642  1  0.308500  0.444300  0.188900  1.0
  C  C3643  1  0.191500  0.944300  0.311100  1.0
  C  C3644  1  0.808500  0.944300  0.188900  1.0
  C  C3645  1  0.308500  0.555700  0.688900  1.0
  C  C3646  1  0.691500  0.555700  0.811100  1.0
  C  C3647  1  0.808500  0.055700  0.688900  1.0
  C  C3648  1  0.191500  0.055700  0.811100  1.0
  C  C3649  1  0.684900  0.460800  0.285400  1.0
  C  C3650  1  0.315100  0.460800  0.214600  1.0
  C  C3651  1  0.184900  0.960800  0.285400  1.0
  C  C3652  1  0.815100  0.960800  0.214600  1.0
  C  C3653  1  0.315100  0.539200  0.714600  1.0
  C  C3654  1  0.684900  0.539200  0.785400  1.0
  C  C3655  1  0.815100  0.039200  0.714600  1.0
  C  C3656  1  0.184900  0.039200  0.785400  1.0
  C  C3657  1  0.654800  0.484300  0.280300  1.0
  C  C3658  1  0.345200  0.484300  0.219700  1.0
  C  C3659  1  0.154800  0.984300  0.280300  1.0
  C  C3660  1  0.845200  0.984300  0.219700  1.0
  C  C3661  1  0.345200  0.515700  0.719700  1.0
  C  C3662  1  0.654800  0.515700  0.780300  1.0
  C  C3663  1  0.845200  0.015700  0.719700  1.0
  C  C3664  1  0.154800  0.015700  0.780300  1.0
  C  C3665  1  0.632000  0.489700  0.301100  1.0
  C  C3666  1  0.368000  0.489700  0.198900  1.0
  C  C3667  1  0.132000  0.989700  0.301100  1.0
  C  C3668  1  0.868000  0.989700  0.198900  1.0
  C  C3669  1  0.368000  0.510300  0.698900  1.0
  C  C3670  1  0.632000  0.510300  0.801100  1.0
  C  C3671  1  0.868000  0.010300  0.698900  1.0
  C  C3672  1  0.132000  0.010300  0.801100  1.0
  C  C3673  1  0.600200  0.514700  0.298100  1.0
  C  C3674  1  0.399800  0.514700  0.201900  1.0
  C  C3675  1  0.100200  0.014700  0.298100  1.0
  C  C3676  1  0.899800  0.014700  0.201900  1.0
  C  C3677  1  0.399800  0.485300  0.701900  1.0
  C  C3678  1  0.600200  0.485300  0.798100  1.0
  C  C3679  1  0.899800  0.985300  0.701900  1.0
  C  C3680  1  0.100200  0.985300  0.798100  1.0
  C  C3681  1  0.551200  0.543400  0.317400  1.0
  C  C3682  1  0.448800  0.543400  0.182600  1.0
  C  C3683  1  0.051200  0.043400  0.317400  1.0
  C  C3684  1  0.948800  0.043400  0.182600  1.0
  C  C3685  1  0.448800  0.456600  0.682600  1.0
  C  C3686  1  0.551200  0.456600  0.817400  1.0
  C  C3687  1  0.948800  0.956600  0.682600  1.0
  C  C3688  1  0.051200  0.956600  0.817400  1.0
  C  C3689  1  0.515100  0.534400  0.321700  1.0
  C  C3690  1  0.484900  0.534400  0.178300  1.0
  C  C3691  1  0.015100  0.034400  0.321700  1.0
  C  C3692  1  0.984900  0.034400  0.178300  1.0
  C  C3693  1  0.484900  0.465600  0.678300  1.0
  C  C3694  1  0.515100  0.465600  0.821700  1.0
  C  C3695  1  0.984900  0.965600  0.678300  1.0
  C  C3696  1  0.015100  0.965600  0.821700  1.0
  C  C3697  1  0.488000  0.561500  0.321800  1.0
  C  C3698  1  0.512000  0.561500  0.178200  1.0
  C  C3699  1  0.988000  0.061500  0.321800  1.0
  C  C3700  1  0.012000  0.061500  0.178200  1.0
  C  C3701  1  0.512000  0.438500  0.678200  1.0
  C  C3702  1  0.488000  0.438500  0.821800  1.0
  C  C3703  1  0.012000  0.938500  0.678200  1.0
  C  C3704  1  0.988000  0.938500  0.821800  1.0
  C  C3705  1  0.497900  0.597200  0.317600  1.0
  C  C3706  1  0.502100  0.597200  0.182400  1.0
  C  C3707  1  0.997900  0.097200  0.317600  1.0
  C  C3708  1  0.002100  0.097200  0.182400  1.0
  C  C3709  1  0.502100  0.402800  0.682400  1.0
  C  C3710  1  0.497900  0.402800  0.817600  1.0
  C  C3711  1  0.002100  0.902800  0.682400  1.0
  C  C3712  1  0.997900  0.902800  0.817600  1.0
  C  C3713  1  0.533000  0.607000  0.313000  1.0
  C  C3714  1  0.467000  0.607000  0.187000  1.0
  C  C3715  1  0.033000  0.107000  0.313000  1.0
  C  C3716  1  0.967000  0.107000  0.187000  1.0
  C  C3717  1  0.467000  0.393000  0.687000  1.0
  C  C3718  1  0.533000  0.393000  0.813000  1.0
  C  C3719  1  0.967000  0.893000  0.687000  1.0
  C  C3720  1  0.033000  0.893000  0.813000  1.0
  C  C3721  1  0.559900  0.580200  0.312800  1.0
  C  C3722  1  0.440100  0.580200  0.187200  1.0
  C  C3723  1  0.059900  0.080200  0.312800  1.0
  C  C3724  1  0.940100  0.080200  0.187200  1.0
  C  C3725  1  0.440100  0.419800  0.687200  1.0
  C  C3726  1  0.559900  0.419800  0.812800  1.0
  C  C3727  1  0.940100  0.919800  0.687200  1.0
  C  C3728  1  0.059900  0.919800  0.812800  1.0
  C  C3729  1  0.794500  0.387600  0.374400  1.0
  C  C3730  1  0.205500  0.387600  0.125600  1.0
  C  C3731  1  0.294500  0.887600  0.374400  1.0
  C  C3732  1  0.705500  0.887600  0.125600  1.0
  C  C3733  1  0.205500  0.612400  0.625600  1.0
  C  C3734  1  0.794500  0.612400  0.874400  1.0
  C  C3735  1  0.705500  0.112400  0.625600  1.0
  C  C3736  1  0.294500  0.112400  0.874400  1.0
  C  C3737  1  0.832700  0.405800  0.375300  1.0
  C  C3738  1  0.167300  0.405800  0.124700  1.0
  C  C3739  1  0.332700  0.905800  0.375300  1.0
  C  C3740  1  0.667300  0.905800  0.124700  1.0
  C  C3741  1  0.167300  0.594200  0.624700  1.0
  C  C3742  1  0.832700  0.594200  0.875300  1.0
  C  C3743  1  0.667300  0.094200  0.624700  1.0
  C  C3744  1  0.332700  0.094200  0.875300  1.0
  C  C3745  1  0.829800  0.448300  0.378600  1.0
  C  C3746  1  0.170200  0.448300  0.121400  1.0
  C  C3747  1  0.329800  0.948300  0.378600  1.0
  C  C3748  1  0.670200  0.948300  0.121400  1.0
  C  C3749  1  0.170200  0.551700  0.621400  1.0
  C  C3750  1  0.829800  0.551700  0.878600  1.0
  C  C3751  1  0.670200  0.051700  0.621400  1.0
  C  C3752  1  0.329800  0.051700  0.878600  1.0
  C  C3753  1  0.818400  0.464700  0.349200  1.0
  C  C3754  1  0.181600  0.464700  0.150800  1.0
  C  C3755  1  0.318400  0.964700  0.349200  1.0
  C  C3756  1  0.681600  0.964700  0.150800  1.0
  C  C3757  1  0.181600  0.535300  0.650800  1.0
  C  C3758  1  0.818400  0.535300  0.849200  1.0
  C  C3759  1  0.681600  0.035300  0.650800  1.0
  C  C3760  1  0.318400  0.035300  0.849200  1.0
  C  C3761  1  0.779300  0.480800  0.347600  1.0
  C  C3762  1  0.220700  0.480800  0.152400  1.0
  C  C3763  1  0.279300  0.980800  0.347600  1.0
  C  C3764  1  0.720700  0.980800  0.152400  1.0
  C  C3765  1  0.220700  0.519200  0.652400  1.0
  C  C3766  1  0.779300  0.519200  0.847600  1.0
  C  C3767  1  0.720700  0.019200  0.652400  1.0
  C  C3768  1  0.279300  0.019200  0.847600  1.0
  C  C3769  1  0.751300  0.454700  0.359300  1.0
  C  C3770  1  0.248700  0.454700  0.140700  1.0
  C  C3771  1  0.251300  0.954700  0.359300  1.0
  C  C3772  1  0.748700  0.954700  0.140700  1.0
  C  C3773  1  0.248700  0.545300  0.640700  1.0
  C  C3774  1  0.751300  0.545300  0.859300  1.0
  C  C3775  1  0.748700  0.045300  0.640700  1.0
  C  C3776  1  0.251300  0.045300  0.859300  1.0
  C  C3777  1  0.874700  0.029100  0.335900  1.0
  C  C3778  1  0.125300  0.029100  0.164100  1.0
  C  C3779  1  0.374700  0.529100  0.335900  1.0
  C  C3780  1  0.625300  0.529100  0.164100  1.0
  C  C3781  1  0.125300  0.970900  0.664100  1.0
  C  C3782  1  0.874700  0.970900  0.835900  1.0
  C  C3783  1  0.625300  0.470900  0.664100  1.0
  C  C3784  1  0.374700  0.470900  0.835900  1.0
  C  C3785  1  0.436100  0.615000  0.324300  1.0
  C  C3786  1  0.563900  0.615000  0.175700  1.0
  C  C3787  1  0.936100  0.115000  0.324300  1.0
  C  C3788  1  0.063900  0.115000  0.175700  1.0
  C  C3789  1  0.563900  0.385000  0.675700  1.0
  C  C3790  1  0.436100  0.385000  0.824300  1.0
  C  C3791  1  0.063900  0.885000  0.675700  1.0
  C  C3792  1  0.936100  0.885000  0.824300  1.0
  C  C3793  1  0.602300  0.551300  0.378900  1.0
  C  C3794  1  0.397700  0.551300  0.121100  1.0
  C  C3795  1  0.102300  0.051300  0.378900  1.0
  C  C3796  1  0.897700  0.051300  0.121100  1.0
  C  C3797  1  0.397700  0.448700  0.621100  1.0
  C  C3798  1  0.602300  0.448700  0.878900  1.0
  C  C3799  1  0.897700  0.948700  0.621100  1.0
  C  C3800  1  0.102300  0.948700  0.878900  1.0
  C  C3801  1  0.565700  0.536400  0.382700  1.0
  C  C3802  1  0.434300  0.536400  0.117300  1.0
  C  C3803  1  0.065700  0.036400  0.382700  1.0
  C  C3804  1  0.934300  0.036400  0.117300  1.0
  C  C3805  1  0.434300  0.463600  0.617300  1.0
  C  C3806  1  0.565700  0.463600  0.882700  1.0
  C  C3807  1  0.934300  0.963600  0.617300  1.0
  C  C3808  1  0.065700  0.963600  0.882700  1.0
  C  C3809  1  0.539300  0.555300  0.395300  1.0
  C  C3810  1  0.460700  0.555300  0.104700  1.0
  C  C3811  1  0.039300  0.055300  0.395300  1.0
  C  C3812  1  0.960700  0.055300  0.104700  1.0
  C  C3813  1  0.460700  0.444700  0.604700  1.0
  C  C3814  1  0.539300  0.444700  0.895300  1.0
  C  C3815  1  0.960700  0.944700  0.604700  1.0
  C  C3816  1  0.039300  0.944700  0.895300  1.0
  C  C3817  1  0.505400  0.538900  0.397900  1.0
  C  C3818  1  0.494600  0.538900  0.102100  1.0
  C  C3819  1  0.005400  0.038900  0.397900  1.0
  C  C3820  1  0.994600  0.038900  0.102100  1.0
  C  C3821  1  0.494600  0.461100  0.602100  1.0
  C  C3822  1  0.505400  0.461100  0.897900  1.0
  C  C3823  1  0.994600  0.961100  0.602100  1.0
  C  C3824  1  0.005400  0.961100  0.897900  1.0
  C  C3825  1  0.498700  0.503400  0.388000  1.0
  C  C3826  1  0.501300  0.503400  0.112000  1.0
  C  C3827  1  0.998700  0.003400  0.388000  1.0
  C  C3828  1  0.001300  0.003400  0.112000  1.0
  C  C3829  1  0.501300  0.496600  0.612000  1.0
  C  C3830  1  0.498700  0.496600  0.888000  1.0
  C  C3831  1  0.001300  0.996600  0.612000  1.0
  C  C3832  1  0.998700  0.996600  0.888000  1.0
  C  C3833  1  0.527300  0.486100  0.375800  1.0
  C  C3834  1  0.472700  0.486100  0.124200  1.0
  C  C3835  1  0.027300  0.986100  0.375800  1.0
  C  C3836  1  0.972700  0.986100  0.124200  1.0
  C  C3837  1  0.472700  0.513900  0.624200  1.0
  C  C3838  1  0.527300  0.513900  0.875800  1.0
  C  C3839  1  0.972700  0.013900  0.624200  1.0
  C  C3840  1  0.027300  0.013900  0.875800  1.0
  C  C3841  1  0.463200  0.483200  0.389000  1.0
  C  C3842  1  0.536800  0.483200  0.111000  1.0
  C  C3843  1  0.963200  0.983200  0.389000  1.0
  C  C3844  1  0.036800  0.983200  0.111000  1.0
  C  C3845  1  0.536800  0.516800  0.611000  1.0
  C  C3846  1  0.463200  0.516800  0.889000  1.0
  C  C3847  1  0.036800  0.016800  0.611000  1.0
  C  C3848  1  0.963200  0.016800  0.889000  1.0
  C  C3849  1  0.444000  0.480200  0.412300  1.0
  C  C3850  1  0.556000  0.480200  0.087700  1.0
  C  C3851  1  0.944000  0.980200  0.412300  1.0
  C  C3852  1  0.056000  0.980200  0.087700  1.0
  C  C3853  1  0.556000  0.519800  0.587700  1.0
  C  C3854  1  0.444000  0.519800  0.912300  1.0
  C  C3855  1  0.056000  0.019800  0.587700  1.0
  C  C3856  1  0.944000  0.019800  0.912300  1.0
  C  C3857  1  0.411900  0.458400  0.409570  1.0
  C  C3858  1  0.588100  0.458400  0.090430  1.0
  C  C3859  1  0.911900  0.958400  0.409570  1.0
  C  C3860  1  0.088100  0.958400  0.090430  1.0
  C  C3861  1  0.588100  0.541600  0.590430  1.0
  C  C3862  1  0.411900  0.541600  0.909570  1.0
  C  C3863  1  0.088100  0.041600  0.590430  1.0
  C  C3864  1  0.911900  0.041600  0.909570  1.0
  C  C3865  1  0.402800  0.441100  0.384310  1.0
  C  C3866  1  0.597200  0.441100  0.115690  1.0
  C  C3867  1  0.902800  0.941100  0.384310  1.0
  C  C3868  1  0.097200  0.941100  0.115690  1.0
  C  C3869  1  0.597200  0.558900  0.615690  1.0
  C  C3870  1  0.402800  0.558900  0.884310  1.0
  C  C3871  1  0.097200  0.058900  0.615690  1.0
  C  C3872  1  0.902800  0.058900  0.884310  1.0
  C  C3873  1  0.370100  0.381800  0.392200  1.0
  C  C3874  1  0.629900  0.381800  0.107800  1.0
  C  C3875  1  0.870100  0.881800  0.392200  1.0
  C  C3876  1  0.129900  0.881800  0.107800  1.0
  C  C3877  1  0.629900  0.618200  0.607800  1.0
  C  C3878  1  0.370100  0.618200  0.892200  1.0
  C  C3879  1  0.129900  0.118200  0.607800  1.0
  C  C3880  1  0.870100  0.118200  0.892200  1.0
  C  C3881  1  0.371200  0.415100  0.378600  1.0
  C  C3882  1  0.628800  0.415100  0.121400  1.0
  C  C3883  1  0.871200  0.915100  0.378600  1.0
  C  C3884  1  0.128800  0.915100  0.121400  1.0
  C  C3885  1  0.628800  0.584900  0.621400  1.0
  C  C3886  1  0.371200  0.584900  0.878600  1.0
  C  C3887  1  0.128800  0.084900  0.621400  1.0
  C  C3888  1  0.871200  0.084900  0.878600  1.0
  C  C3889  1  0.342400  0.422900  0.358400  1.0
  C  C3890  1  0.657600  0.422900  0.141600  1.0
  C  C3891  1  0.842400  0.922900  0.358400  1.0
  C  C3892  1  0.157600  0.922900  0.141600  1.0
  C  C3893  1  0.657600  0.577100  0.641600  1.0
  C  C3894  1  0.342400  0.577100  0.858400  1.0
  C  C3895  1  0.157600  0.077100  0.641600  1.0
  C  C3896  1  0.842400  0.077100  0.858400  1.0
  C  C3897  1  0.313900  0.397900  0.352700  1.0
  C  C3898  1  0.686100  0.397900  0.147300  1.0
  C  C3899  1  0.813900  0.897900  0.352700  1.0
  C  C3900  1  0.186100  0.897900  0.147300  1.0
  C  C3901  1  0.686100  0.602100  0.647300  1.0
  C  C3902  1  0.313900  0.602100  0.852700  1.0
  C  C3903  1  0.186100  0.102100  0.647300  1.0
  C  C3904  1  0.813900  0.102100  0.852700  1.0
  C  C3905  1  0.315000  0.365200  0.367500  1.0
  C  C3906  1  0.685000  0.365200  0.132500  1.0
  C  C3907  1  0.815000  0.865200  0.367500  1.0
  C  C3908  1  0.185000  0.865200  0.132500  1.0
  C  C3909  1  0.685000  0.634800  0.632500  1.0
  C  C3910  1  0.315000  0.634800  0.867500  1.0
  C  C3911  1  0.185000  0.134800  0.632500  1.0
  C  C3912  1  0.815000  0.134800  0.867500  1.0
  C  C3913  1  0.286800  0.336400  0.362800  1.0
  C  C3914  1  0.713200  0.336400  0.137200  1.0
  C  C3915  1  0.786800  0.836400  0.362800  1.0
  C  C3916  1  0.213200  0.836400  0.137200  1.0
  C  C3917  1  0.713200  0.663600  0.637200  1.0
  C  C3918  1  0.286800  0.663600  0.862800  1.0
  C  C3919  1  0.213200  0.163600  0.637200  1.0
  C  C3920  1  0.786800  0.163600  0.862800  1.0
  C  C3921  1  0.264000  0.278800  0.374300  1.0
  C  C3922  1  0.736000  0.278800  0.125700  1.0
  C  C3923  1  0.764000  0.778800  0.374300  1.0
  C  C3924  1  0.236000  0.778800  0.125700  1.0
  C  C3925  1  0.736000  0.721200  0.625700  1.0
  C  C3926  1  0.264000  0.721200  0.874300  1.0
  C  C3927  1  0.236000  0.221200  0.625700  1.0
  C  C3928  1  0.764000  0.221200  0.874300  1.0
  C  C3929  1  0.272100  0.242900  0.367100  1.0
  C  C3930  1  0.727900  0.242900  0.132900  1.0
  C  C3931  1  0.772100  0.742900  0.367100  1.0
  C  C3932  1  0.227900  0.742900  0.132900  1.0
  C  C3933  1  0.727900  0.757100  0.632900  1.0
  C  C3934  1  0.272100  0.757100  0.867100  1.0
  C  C3935  1  0.227900  0.257100  0.632900  1.0
  C  C3936  1  0.772100  0.257100  0.867100  1.0
  C  C3937  1  0.245400  0.215600  0.366800  1.0
  C  C3938  1  0.754600  0.215600  0.133200  1.0
  C  C3939  1  0.745400  0.715600  0.366800  1.0
  C  C3940  1  0.254600  0.715600  0.133200  1.0
  C  C3941  1  0.754600  0.784400  0.633200  1.0
  C  C3942  1  0.245400  0.784400  0.866800  1.0
  C  C3943  1  0.254600  0.284400  0.633200  1.0
  C  C3944  1  0.745400  0.284400  0.866800  1.0
  C  C3945  1  0.211000  0.224500  0.373500  1.0
  C  C3946  1  0.789000  0.224500  0.126500  1.0
  C  C3947  1  0.711000  0.724500  0.373500  1.0
  C  C3948  1  0.289000  0.724500  0.126500  1.0
  C  C3949  1  0.789000  0.775500  0.626500  1.0
  C  C3950  1  0.211000  0.775500  0.873500  1.0
  C  C3951  1  0.289000  0.275500  0.626500  1.0
  C  C3952  1  0.711000  0.275500  0.873500  1.0
  C  C3953  1  0.201900  0.259400  0.380200  1.0
  C  C3954  1  0.798100  0.259400  0.119800  1.0
  C  C3955  1  0.701900  0.759400  0.380200  1.0
  C  C3956  1  0.298100  0.759400  0.119800  1.0
  C  C3957  1  0.798100  0.740600  0.619800  1.0
  C  C3958  1  0.201900  0.740600  0.880200  1.0
  C  C3959  1  0.298100  0.240600  0.619800  1.0
  C  C3960  1  0.701900  0.240600  0.880200  1.0
  C  C3961  1  0.228400  0.286800  0.380700  1.0
  C  C3962  1  0.771600  0.286800  0.119300  1.0
  C  C3963  1  0.728400  0.786800  0.380700  1.0
  C  C3964  1  0.271600  0.786800  0.119300  1.0
  C  C3965  1  0.771600  0.713200  0.619300  1.0
  C  C3966  1  0.228400  0.713200  0.880700  1.0
  C  C3967  1  0.271600  0.213200  0.619300  1.0
  C  C3968  1  0.728400  0.213200  0.880700  1.0
  C  C3969  1  0.455300  0.500100  0.438900  1.0
  C  C3970  1  0.544700  0.500100  0.061100  1.0
  C  C3971  1  0.955300  0.000100  0.438900  1.0
  C  C3972  1  0.044700  0.000100  0.061100  1.0
  C  C3973  1  0.544700  0.499900  0.561100  1.0
  C  C3974  1  0.455300  0.499900  0.938900  1.0
  C  C3975  1  0.044700  0.999900  0.561100  1.0
  C  C3976  1  0.955300  0.999900  0.938900  1.0
  C  C3977  1  0.435800  0.537300  0.442300  1.0
  C  C3978  1  0.564200  0.537300  0.057700  1.0
  C  C3979  1  0.935800  0.037300  0.442300  1.0
  C  C3980  1  0.064200  0.037300  0.057700  1.0
  C  C3981  1  0.564200  0.462700  0.557700  1.0
  C  C3982  1  0.435800  0.462700  0.942300  1.0
  C  C3983  1  0.064200  0.962700  0.557700  1.0
  C  C3984  1  0.935800  0.962700  0.942300  1.0
  C  C3985  1  0.395500  0.536100  0.448800  1.0
  C  C3986  1  0.604500  0.536100  0.051200  1.0
  C  C3987  1  0.895500  0.036100  0.448800  1.0
  C  C3988  1  0.104500  0.036100  0.051200  1.0
  C  C3989  1  0.604500  0.463900  0.551200  1.0
  C  C3990  1  0.395500  0.463900  0.948800  1.0
  C  C3991  1  0.104500  0.963900  0.551200  1.0
  C  C3992  1  0.895500  0.963900  0.948800  1.0
  C  C3993  1  0.368700  0.524700  0.425400  1.0
  C  C3994  1  0.631300  0.524700  0.074600  1.0
  C  C3995  1  0.868700  0.024700  0.425400  1.0
  C  C3996  1  0.131300  0.024700  0.074600  1.0
  C  C3997  1  0.631300  0.475300  0.574600  1.0
  C  C3998  1  0.368700  0.475300  0.925400  1.0
  C  C3999  1  0.131300  0.975300  0.574600  1.0
  C  C4000  1  0.868700  0.975300  0.925400  1.0
  C  C4001  1  0.355800  0.483900  0.428900  1.0
  C  C4002  1  0.644200  0.483900  0.071100  1.0
  C  C4003  1  0.855800  0.983900  0.428900  1.0
  C  C4004  1  0.144200  0.983900  0.071100  1.0
  C  C4005  1  0.644200  0.516100  0.571100  1.0
  C  C4006  1  0.355800  0.516100  0.928900  1.0
  C  C4007  1  0.144200  0.016100  0.571100  1.0
  C  C4008  1  0.855800  0.016100  0.928900  1.0
  C  C4009  1  0.387400  0.455500  0.432600  1.0
  C  C4010  1  0.612600  0.455500  0.067400  1.0
  C  C4011  1  0.887400  0.955500  0.432600  1.0
  C  C4012  1  0.112600  0.955500  0.067400  1.0
  C  C4013  1  0.612600  0.544500  0.567400  1.0
  C  C4014  1  0.387400  0.544500  0.932600  1.0
  C  C4015  1  0.112600  0.044500  0.567400  1.0
  C  C4016  1  0.887400  0.044500  0.932600  1.0
  C  C4017  1  0.393200  0.316900  0.455210  1.0
  C  C4018  1  0.606800  0.316900  0.044790  1.0
  C  C4019  1  0.893200  0.816900  0.455210  1.0
  C  C4020  1  0.106800  0.816900  0.044790  1.0
  C  C4021  1  0.606800  0.683100  0.544790  1.0
  C  C4022  1  0.393200  0.683100  0.955210  1.0
  C  C4023  1  0.106800  0.183100  0.544790  1.0
  C  C4024  1  0.893200  0.183100  0.955210  1.0
  C  C4025  1  0.416000  0.346300  0.463900  1.0
  C  C4026  1  0.584000  0.346300  0.036100  1.0
  C  C4027  1  0.916000  0.846300  0.463900  1.0
  C  C4028  1  0.084000  0.846300  0.036100  1.0
  C  C4029  1  0.584000  0.653700  0.536100  1.0
  C  C4030  1  0.416000  0.653700  0.963900  1.0
  C  C4031  1  0.084000  0.153700  0.536100  1.0
  C  C4032  1  0.916000  0.153700  0.963900  1.0
  C  C4033  1  0.421800  0.354900  0.491600  1.0
  C  C4034  1  0.578200  0.354900  0.008400  1.0
  C  C4035  1  0.921800  0.854900  0.491600  1.0
  C  C4036  1  0.078200  0.854900  0.008400  1.0
  C  C4037  1  0.578200  0.645100  0.508400  1.0
  C  C4038  1  0.421800  0.645100  0.991600  1.0
  C  C4039  1  0.078200  0.145100  0.508400  1.0
  C  C4040  1  0.921800  0.145100  0.991600  1.0
  C  C4041  1  0.404800  0.333700  0.509600  1.0
  C  C4042  1  0.595200  0.333700  0.990400  1.0
  C  C4043  1  0.904800  0.833700  0.509600  1.0
  C  C4044  1  0.095200  0.833700  0.990400  1.0
  C  C4045  1  0.595200  0.666300  0.490400  1.0
  C  C4046  1  0.404800  0.666300  0.009600  1.0
  C  C4047  1  0.095200  0.166300  0.490400  1.0
  C  C4048  1  0.904800  0.166300  0.009600  1.0
  C  C4049  1  0.381600  0.304900  0.502000  1.0
  C  C4050  1  0.618400  0.304900  0.998000  1.0
  C  C4051  1  0.881600  0.804900  0.502000  1.0
  C  C4052  1  0.118400  0.804900  0.998000  1.0
  C  C4053  1  0.618400  0.695100  0.498000  1.0
  C  C4054  1  0.381600  0.695100  0.002000  1.0
  C  C4055  1  0.118400  0.195100  0.498000  1.0
  C  C4056  1  0.881600  0.195100  0.002000  1.0
  C  C4057  1  0.376100  0.296900  0.474200  1.0
  C  C4058  1  0.623900  0.296900  0.025800  1.0
  C  C4059  1  0.876100  0.796900  0.474200  1.0
  C  C4060  1  0.123900  0.796900  0.025800  1.0
  C  C4061  1  0.623900  0.703100  0.525800  1.0
  C  C4062  1  0.376100  0.703100  0.974200  1.0
  C  C4063  1  0.123900  0.203100  0.525800  1.0
  C  C4064  1  0.876100  0.203100  0.974200  1.0
  C  C4065  1  0.415600  0.300600  0.414350  1.0
  C  C4066  1  0.584400  0.300600  0.085650  1.0
  C  C4067  1  0.915600  0.800600  0.414350  1.0
  C  C4068  1  0.084400  0.800600  0.085650  1.0
  C  C4069  1  0.584400  0.699400  0.585650  1.0
  C  C4070  1  0.415600  0.699400  0.914350  1.0
  C  C4071  1  0.084400  0.199400  0.585650  1.0
  C  C4072  1  0.915600  0.199400  0.914350  1.0
  C  C4073  1  0.409400  0.291800  0.385050  1.0
  C  C4074  1  0.590600  0.291800  0.114950  1.0
  C  C4075  1  0.909400  0.791800  0.385050  1.0
  C  C4076  1  0.090600  0.791800  0.114950  1.0
  C  C4077  1  0.590600  0.708200  0.614950  1.0
  C  C4078  1  0.409400  0.708200  0.885050  1.0
  C  C4079  1  0.090600  0.208200  0.614950  1.0
  C  C4080  1  0.909400  0.208200  0.885050  1.0
  C  C4081  1  0.437700  0.285800  0.368860  1.0
  C  C4082  1  0.562300  0.285800  0.131140  1.0
  C  C4083  1  0.937700  0.785800  0.368860  1.0
  C  C4084  1  0.062300  0.785800  0.131140  1.0
  C  C4085  1  0.562300  0.714200  0.631140  1.0
  C  C4086  1  0.437700  0.714200  0.868860  1.0
  C  C4087  1  0.062300  0.214200  0.631140  1.0
  C  C4088  1  0.937700  0.214200  0.868860  1.0
  C  C4089  1  0.429200  0.278400  0.341200  1.0
  C  C4090  1  0.570800  0.278400  0.158800  1.0
  C  C4091  1  0.929200  0.778400  0.341200  1.0
  C  C4092  1  0.070800  0.778400  0.158800  1.0
  C  C4093  1  0.570800  0.721600  0.658800  1.0
  C  C4094  1  0.429200  0.721600  0.841200  1.0
  C  C4095  1  0.070800  0.221600  0.658800  1.0
  C  C4096  1  0.929200  0.221600  0.841200  1.0
  C  C4097  1  0.392000  0.277200  0.330670  1.0
  C  C4098  1  0.608000  0.277200  0.169330  1.0
  C  C4099  1  0.892000  0.777200  0.330670  1.0
  C  C4100  1  0.108000  0.777200  0.169330  1.0
  C  C4101  1  0.608000  0.722800  0.669330  1.0
  C  C4102  1  0.392000  0.722800  0.830670  1.0
  C  C4103  1  0.108000  0.222800  0.669330  1.0
  C  C4104  1  0.892000  0.222800  0.830670  1.0
  C  C4105  1  0.365900  0.283700  0.348920  1.0
  C  C4106  1  0.634100  0.283700  0.151080  1.0
  C  C4107  1  0.865900  0.783700  0.348920  1.0
  C  C4108  1  0.134100  0.783700  0.151080  1.0
  C  C4109  1  0.634100  0.716300  0.651080  1.0
  C  C4110  1  0.365900  0.716300  0.848920  1.0
  C  C4111  1  0.134100  0.216300  0.651080  1.0
  C  C4112  1  0.865900  0.216300  0.848920  1.0
  C  C4113  1  0.302300  0.240700  0.215510  1.0
  C  C4114  1  0.697700  0.240700  0.284490  1.0
  C  C4115  1  0.802300  0.740700  0.215510  1.0
  C  C4116  1  0.197700  0.740700  0.284490  1.0
  C  C4117  1  0.697700  0.759300  0.784490  1.0
  C  C4118  1  0.302300  0.759300  0.715510  1.0
  C  C4119  1  0.197700  0.259300  0.784490  1.0
  C  C4120  1  0.802300  0.259300  0.715510  1.0
  C  C4121  1  0.340300  0.247700  0.220880  1.0
  C  C4122  1  0.659700  0.247700  0.279120  1.0
  C  C4123  1  0.840300  0.747700  0.220880  1.0
  C  C4124  1  0.159700  0.747700  0.279120  1.0
  C  C4125  1  0.659700  0.752300  0.779120  1.0
  C  C4126  1  0.340300  0.752300  0.720880  1.0
  C  C4127  1  0.159700  0.252300  0.779120  1.0
  C  C4128  1  0.840300  0.252300  0.720880  1.0
  C  C4129  1  0.361800  0.245000  0.199360  1.0
  C  C4130  1  0.638200  0.245000  0.300640  1.0
  C  C4131  1  0.861800  0.745000  0.199360  1.0
  C  C4132  1  0.138200  0.745000  0.300640  1.0
  C  C4133  1  0.638200  0.755000  0.800640  1.0
  C  C4134  1  0.361800  0.755000  0.699360  1.0
  C  C4135  1  0.138200  0.255000  0.800640  1.0
  C  C4136  1  0.861800  0.255000  0.699360  1.0
  C  C4137  1  0.345500  0.235700  0.173300  1.0
  C  C4138  1  0.654500  0.235700  0.326700  1.0
  C  C4139  1  0.845500  0.735700  0.173300  1.0
  C  C4140  1  0.154500  0.735700  0.326700  1.0
  C  C4141  1  0.654500  0.764300  0.826700  1.0
  C  C4142  1  0.345500  0.764300  0.673300  1.0
  C  C4143  1  0.154500  0.264300  0.826700  1.0
  C  C4144  1  0.845500  0.264300  0.673300  1.0
  C  C4145  1  0.307500  0.228800  0.170100  1.0
  C  C4146  1  0.692500  0.228800  0.329900  1.0
  C  C4147  1  0.807500  0.728800  0.170100  1.0
  C  C4148  1  0.192500  0.728800  0.329900  1.0
  C  C4149  1  0.692500  0.771200  0.829900  1.0
  C  C4150  1  0.307500  0.771200  0.670100  1.0
  C  C4151  1  0.192500  0.271200  0.829900  1.0
  C  C4152  1  0.807500  0.271200  0.670100  1.0
  C  C4153  1  0.287000  0.218400  0.143800  1.0
  C  C4154  1  0.713000  0.218400  0.356200  1.0
  C  C4155  1  0.787000  0.718400  0.143800  1.0
  C  C4156  1  0.213000  0.718400  0.356200  1.0
  C  C4157  1  0.713000  0.781600  0.856200  1.0
  C  C4158  1  0.287000  0.781600  0.643800  1.0
  C  C4159  1  0.213000  0.281600  0.856200  1.0
  C  C4160  1  0.787000  0.281600  0.643800  1.0
  C  C4161  1  0.233100  0.200800  0.117900  1.0
  C  C4162  1  0.766900  0.200800  0.382100  1.0
  C  C4163  1  0.733100  0.700800  0.117900  1.0
  C  C4164  1  0.266900  0.700800  0.382100  1.0
  C  C4165  1  0.766900  0.799200  0.882100  1.0
  C  C4166  1  0.233100  0.799200  0.617900  1.0
  C  C4167  1  0.266900  0.299200  0.882100  1.0
  C  C4168  1  0.733100  0.299200  0.617900  1.0
  C  C4169  1  0.242500  0.169000  0.104400  1.0
  C  C4170  1  0.757500  0.169000  0.395600  1.0
  C  C4171  1  0.742500  0.669000  0.104400  1.0
  C  C4172  1  0.257500  0.669000  0.395600  1.0
  C  C4173  1  0.757500  0.831000  0.895600  1.0
  C  C4174  1  0.242500  0.831000  0.604400  1.0
  C  C4175  1  0.257500  0.331000  0.895600  1.0
  C  C4176  1  0.742500  0.331000  0.604400  1.0
  C  C4177  1  0.222200  0.158700  0.080100  1.0
  C  C4178  1  0.777800  0.158700  0.419900  1.0
  C  C4179  1  0.722200  0.658700  0.080100  1.0
  C  C4180  1  0.277800  0.658700  0.419900  1.0
  C  C4181  1  0.777800  0.841300  0.919900  1.0
  C  C4182  1  0.222200  0.841300  0.580100  1.0
  C  C4183  1  0.277800  0.341300  0.919900  1.0
  C  C4184  1  0.722200  0.341300  0.580100  1.0
  C  C4185  1  0.193900  0.181200  0.070000  1.0
  C  C4186  1  0.806100  0.181200  0.430000  1.0
  C  C4187  1  0.693900  0.681200  0.070000  1.0
  C  C4188  1  0.306100  0.681200  0.430000  1.0
  C  C4189  1  0.806100  0.818800  0.930000  1.0
  C  C4190  1  0.193900  0.818800  0.570000  1.0
  C  C4191  1  0.306100  0.318800  0.930000  1.0
  C  C4192  1  0.693900  0.318800  0.570000  1.0
  C  C4193  1  0.184300  0.213000  0.081900  1.0
  C  C4194  1  0.815700  0.213000  0.418100  1.0
  C  C4195  1  0.684300  0.713000  0.081900  1.0
  C  C4196  1  0.315700  0.713000  0.418100  1.0
  C  C4197  1  0.815700  0.787000  0.918100  1.0
  C  C4198  1  0.184300  0.787000  0.581900  1.0
  C  C4199  1  0.315700  0.287000  0.918100  1.0
  C  C4200  1  0.684300  0.287000  0.581900  1.0
  C  C4201  1  0.204400  0.222800  0.106600  1.0
  C  C4202  1  0.795600  0.222800  0.393400  1.0
  C  C4203  1  0.704400  0.722800  0.106600  1.0
  C  C4204  1  0.295600  0.722800  0.393400  1.0
  C  C4205  1  0.795600  0.777200  0.893400  1.0
  C  C4206  1  0.204400  0.777200  0.606600  1.0
  C  C4207  1  0.295600  0.277200  0.893400  1.0
  C  C4208  1  0.704400  0.277200  0.606600  1.0
  C  C4209  1  0.410000  0.375800  0.547600  1.0
  C  C4210  1  0.590000  0.375800  0.952400  1.0
  C  C4211  1  0.910000  0.875800  0.547600  1.0
  C  C4212  1  0.090000  0.875800  0.952400  1.0
  C  C4213  1  0.590000  0.624200  0.452400  1.0
  C  C4214  1  0.410000  0.624200  0.047600  1.0
  C  C4215  1  0.090000  0.124200  0.452400  1.0
  C  C4216  1  0.910000  0.124200  0.047600  1.0
  C  C4217  1  0.646900  0.456300  0.402800  1.0
  C  C4218  1  0.353100  0.456300  0.097200  1.0
  C  C4219  1  0.146900  0.956300  0.402800  1.0
  C  C4220  1  0.853100  0.956300  0.097200  1.0
  C  C4221  1  0.353100  0.543700  0.597200  1.0
  C  C4222  1  0.646900  0.543700  0.902800  1.0
  C  C4223  1  0.853100  0.043700  0.597200  1.0
  C  C4224  1  0.146900  0.043700  0.902800  1.0
  C  C4225  1  0.643600  0.483500  0.422100  1.0
  C  C4226  1  0.356400  0.483500  0.077900  1.0
  C  C4227  1  0.143600  0.983500  0.422100  1.0
  C  C4228  1  0.856400  0.983500  0.077900  1.0
  C  C4229  1  0.356400  0.516500  0.577900  1.0
  C  C4230  1  0.643600  0.516500  0.922100  1.0
  C  C4231  1  0.856400  0.016500  0.577900  1.0
  C  C4232  1  0.143600  0.016500  0.922100  1.0
  C  C4233  1  0.672300  0.490000  0.442600  1.0
  C  C4234  1  0.327700  0.490000  0.057400  1.0
  C  C4235  1  0.172300  0.990000  0.442600  1.0
  C  C4236  1  0.827700  0.990000  0.057400  1.0
  C  C4237  1  0.327700  0.510000  0.557400  1.0
  C  C4238  1  0.672300  0.510000  0.942600  1.0
  C  C4239  1  0.827700  0.010000  0.557400  1.0
  C  C4240  1  0.172300  0.010000  0.942600  1.0
  C  C4241  1  0.704100  0.469900  0.443500  1.0
  C  C4242  1  0.295900  0.469900  0.056500  1.0
  C  C4243  1  0.204100  0.969900  0.443500  1.0
  C  C4244  1  0.795900  0.969900  0.056500  1.0
  C  C4245  1  0.295900  0.530100  0.556500  1.0
  C  C4246  1  0.704100  0.530100  0.943500  1.0
  C  C4247  1  0.795900  0.030100  0.556500  1.0
  C  C4248  1  0.204100  0.030100  0.943500  1.0
  C  C4249  1  0.707900  0.441600  0.425800  1.0
  C  C4250  1  0.292100  0.441600  0.074200  1.0
  C  C4251  1  0.207900  0.941600  0.425800  1.0
  C  C4252  1  0.792100  0.941600  0.074200  1.0
  C  C4253  1  0.292100  0.558400  0.574200  1.0
  C  C4254  1  0.707900  0.558400  0.925800  1.0
  C  C4255  1  0.792100  0.058400  0.574200  1.0
  C  C4256  1  0.207900  0.058400  0.925800  1.0
  C  C4257  1  0.679400  0.435100  0.405500  1.0
  C  C4258  1  0.320600  0.435100  0.094500  1.0
  C  C4259  1  0.179400  0.935100  0.405500  1.0
  C  C4260  1  0.820600  0.935100  0.094500  1.0
  C  C4261  1  0.320600  0.564900  0.594500  1.0
  C  C4262  1  0.679400  0.564900  0.905500  1.0
  C  C4263  1  0.820600  0.064900  0.594500  1.0
  C  C4264  1  0.179400  0.064900  0.905500  1.0
  C  C4265  1  0.606600  0.416700  0.376400  1.0
  C  C4266  1  0.393400  0.416700  0.123600  1.0
  C  C4267  1  0.106600  0.916700  0.376400  1.0
  C  C4268  1  0.893400  0.916700  0.123600  1.0
  C  C4269  1  0.393400  0.583300  0.623600  1.0
  C  C4270  1  0.606600  0.583300  0.876400  1.0
  C  C4271  1  0.893400  0.083300  0.623600  1.0
  C  C4272  1  0.106600  0.083300  0.876400  1.0
  C  C4273  1  0.581200  0.409200  0.351680  1.0
  C  C4274  1  0.418800  0.409200  0.148320  1.0
  C  C4275  1  0.081200  0.909200  0.351680  1.0
  C  C4276  1  0.918800  0.909200  0.148320  1.0
  C  C4277  1  0.418800  0.590800  0.648320  1.0
  C  C4278  1  0.581200  0.590800  0.851680  1.0
  C  C4279  1  0.918800  0.090800  0.648320  1.0
  C  C4280  1  0.081200  0.090800  0.851680  1.0
  C  C4281  1  0.568500  0.374300  0.344100  1.0
  C  C4282  1  0.431500  0.374300  0.155900  1.0
  C  C4283  1  0.068500  0.874300  0.344100  1.0
  C  C4284  1  0.931500  0.874300  0.155900  1.0
  C  C4285  1  0.431500  0.625700  0.655900  1.0
  C  C4286  1  0.568500  0.625700  0.844100  1.0
  C  C4287  1  0.931500  0.125700  0.655900  1.0
  C  C4288  1  0.068500  0.125700  0.844100  1.0
  C  C4289  1  0.547500  0.369400  0.319090  1.0
  C  C4290  1  0.452500  0.369400  0.180910  1.0
  C  C4291  1  0.047500  0.869400  0.319090  1.0
  C  C4292  1  0.952500  0.869400  0.180910  1.0
  C  C4293  1  0.452500  0.630600  0.680910  1.0
  C  C4294  1  0.547500  0.630600  0.819090  1.0
  C  C4295  1  0.952500  0.130600  0.680910  1.0
  C  C4296  1  0.047500  0.130600  0.819090  1.0
  C  C4297  1  0.538900  0.399700  0.302650  1.0
  C  C4298  1  0.461100  0.399700  0.197350  1.0
  C  C4299  1  0.038900  0.899700  0.302650  1.0
  C  C4300  1  0.961100  0.899700  0.197350  1.0
  C  C4301  1  0.461100  0.600300  0.697350  1.0
  C  C4302  1  0.538900  0.600300  0.802650  1.0
  C  C4303  1  0.961100  0.100300  0.697350  1.0
  C  C4304  1  0.038900  0.100300  0.802650  1.0
  C  C4305  1  0.552400  0.433600  0.312200  1.0
  C  C4306  1  0.447600  0.433600  0.187800  1.0
  C  C4307  1  0.052400  0.933600  0.312200  1.0
  C  C4308  1  0.947600  0.933600  0.187800  1.0
  C  C4309  1  0.447600  0.566400  0.687800  1.0
  C  C4310  1  0.552400  0.566400  0.812200  1.0
  C  C4311  1  0.947600  0.066400  0.687800  1.0
  C  C4312  1  0.052400  0.066400  0.812200  1.0
  C  C4313  1  0.770000  0.461000  0.463600  1.0
  C  C4314  1  0.230000  0.461000  0.036400  1.0
  C  C4315  1  0.270000  0.961000  0.463600  1.0
  C  C4316  1  0.730000  0.961000  0.036400  1.0
  C  C4317  1  0.230000  0.539000  0.536400  1.0
  C  C4318  1  0.770000  0.539000  0.963600  1.0
  C  C4319  1  0.730000  0.039000  0.536400  1.0
  C  C4320  1  0.270000  0.039000  0.963600  1.0
  C  C4321  1  0.516400  0.064700  0.429600  1.0
  C  C4322  1  0.483600  0.064700  0.070400  1.0
  C  C4323  1  0.016400  0.564700  0.429600  1.0
  C  C4324  1  0.983600  0.564700  0.070400  1.0
  C  C4325  1  0.483600  0.935300  0.570400  1.0
  C  C4326  1  0.516400  0.935300  0.929600  1.0
  C  C4327  1  0.983600  0.435300  0.570400  1.0
  C  C4328  1  0.016400  0.435300  0.929600  1.0
  C  C4329  1  0.537700  0.037200  0.443230  1.0
  C  C4330  1  0.462300  0.037200  0.056770  1.0
  C  C4331  1  0.037700  0.537200  0.443230  1.0
  C  C4332  1  0.962300  0.537200  0.056770  1.0
  C  C4333  1  0.462300  0.962800  0.556770  1.0
  C  C4334  1  0.537700  0.962800  0.943230  1.0
  C  C4335  1  0.962300  0.462800  0.556770  1.0
  C  C4336  1  0.037700  0.462800  0.943230  1.0
  C  C4337  1  0.536500  0.031800  0.471180  1.0
  C  C4338  1  0.463500  0.031800  0.028820  1.0
  C  C4339  1  0.036500  0.531800  0.471180  1.0
  C  C4340  1  0.963500  0.531800  0.028820  1.0
  C  C4341  1  0.463500  0.968200  0.528820  1.0
  C  C4342  1  0.536500  0.968200  0.971180  1.0
  C  C4343  1  0.963500  0.468200  0.528820  1.0
  C  C4344  1  0.036500  0.468200  0.971180  1.0
  C  C4345  1  0.513400  0.053000  0.484950  1.0
  C  C4346  1  0.486600  0.053000  0.015050  1.0
  C  C4347  1  0.013400  0.553000  0.484950  1.0
  C  C4348  1  0.986600  0.553000  0.015050  1.0
  C  C4349  1  0.486600  0.947000  0.515050  1.0
  C  C4350  1  0.513400  0.947000  0.984950  1.0
  C  C4351  1  0.986600  0.447000  0.515050  1.0
  C  C4352  1  0.013400  0.447000  0.984950  1.0
  C  C4353  1  0.491300  0.079700  0.471970  1.0
  C  C4354  1  0.508700  0.079700  0.028030  1.0
  C  C4355  1  0.991300  0.579700  0.471970  1.0
  C  C4356  1  0.008700  0.579700  0.028030  1.0
  C  C4357  1  0.508700  0.920300  0.528030  1.0
  C  C4358  1  0.491300  0.920300  0.971970  1.0
  C  C4359  1  0.008700  0.420300  0.528030  1.0
  C  C4360  1  0.991300  0.420300  0.971970  1.0
  C  C4361  1  0.492900  0.085500  0.444120  1.0
  C  C4362  1  0.507100  0.085500  0.055880  1.0
  C  C4363  1  0.992900  0.585500  0.444120  1.0
  C  C4364  1  0.007100  0.585500  0.055880  1.0
  C  C4365  1  0.507100  0.914500  0.555880  1.0
  C  C4366  1  0.492900  0.914500  0.944120  1.0
  C  C4367  1  0.007100  0.414500  0.555880  1.0
  C  C4368  1  0.992900  0.414500  0.944120  1.0
  C  C4369  1  0.523700  0.103700  0.392830  1.0
  C  C4370  1  0.476300  0.103700  0.107170  1.0
  C  C4371  1  0.023700  0.603700  0.392830  1.0
  C  C4372  1  0.976300  0.603700  0.107170  1.0
  C  C4373  1  0.476300  0.896300  0.607170  1.0
  C  C4374  1  0.523700  0.896300  0.892830  1.0
  C  C4375  1  0.976300  0.396300  0.607170  1.0
  C  C4376  1  0.023700  0.396300  0.892830  1.0
  C  C4377  1  0.521400  0.109900  0.363180  1.0
  C  C4378  1  0.478600  0.109900  0.136820  1.0
  C  C4379  1  0.021400  0.609900  0.363180  1.0
  C  C4380  1  0.978600  0.609900  0.136820  1.0
  C  C4381  1  0.478600  0.890100  0.636820  1.0
  C  C4382  1  0.521400  0.890100  0.863180  1.0
  C  C4383  1  0.978600  0.390100  0.636820  1.0
  C  C4384  1  0.021400  0.390100  0.863180  1.0
  C  C4385  1  0.524600  0.144700  0.352000  1.0
  C  C4386  1  0.475400  0.144700  0.148000  1.0
  C  C4387  1  0.024600  0.644700  0.352000  1.0
  C  C4388  1  0.975400  0.644700  0.148000  1.0
  C  C4389  1  0.475400  0.855300  0.648000  1.0
  C  C4390  1  0.524600  0.855300  0.852000  1.0
  C  C4391  1  0.975400  0.355300  0.648000  1.0
  C  C4392  1  0.024600  0.355300  0.852000  1.0
  C  C4393  1  0.520500  0.148100  0.323730  1.0
  C  C4394  1  0.479500  0.148100  0.176270  1.0
  C  C4395  1  0.020500  0.648100  0.323730  1.0
  C  C4396  1  0.979500  0.648100  0.176270  1.0
  C  C4397  1  0.479500  0.851900  0.676270  1.0
  C  C4398  1  0.520500  0.851900  0.823730  1.0
  C  C4399  1  0.979500  0.351900  0.676270  1.0
  C  C4400  1  0.020500  0.351900  0.823730  1.0
  C  C4401  1  0.512800  0.117100  0.307800  1.0
  C  C4402  1  0.487200  0.117100  0.192200  1.0
  C  C4403  1  0.012800  0.617100  0.307800  1.0
  C  C4404  1  0.987200  0.617100  0.192200  1.0
  C  C4405  1  0.487200  0.882900  0.692200  1.0
  C  C4406  1  0.512800  0.882900  0.807800  1.0
  C  C4407  1  0.987200  0.382900  0.692200  1.0
  C  C4408  1  0.012800  0.382900  0.807800  1.0
  C  C4409  1  0.510500  0.083200  0.320960  1.0
  C  C4410  1  0.489500  0.083200  0.179040  1.0
  C  C4411  1  0.010500  0.583200  0.320960  1.0
  C  C4412  1  0.989500  0.583200  0.179040  1.0
  C  C4413  1  0.489500  0.916800  0.679040  1.0
  C  C4414  1  0.510500  0.916800  0.820960  1.0
  C  C4415  1  0.989500  0.416800  0.679040  1.0
  C  C4416  1  0.010500  0.416800  0.820960  1.0
  C  C4417  1  0.493100  0.068600  0.528600  1.0
  C  C4418  1  0.506900  0.068600  0.971400  1.0
  C  C4419  1  0.993100  0.568600  0.528600  1.0
  C  C4420  1  0.006900  0.568600  0.971400  1.0
  C  C4421  1  0.506900  0.931400  0.471400  1.0
  C  C4422  1  0.493100  0.931400  0.028600  1.0
  C  C4423  1  0.006900  0.431400  0.471400  1.0
  C  C4424  1  0.993100  0.431400  0.028600  1.0
  C  C4425  1  0.163000  0.194000  0.021700  0.4
  C  C4426  1  0.837000  0.194000  0.478300  0.4
  C  C4427  1  0.663000  0.694000  0.021700  0.4
  C  C4428  1  0.337000  0.694000  0.478300  0.4
  C  C4429  1  0.837000  0.806000  0.978300  0.4
  C  C4430  1  0.163000  0.806000  0.521700  0.4
  C  C4431  1  0.337000  0.306000  0.978300  0.4
  C  C4432  1  0.663000  0.306000  0.521700  0.4
  C  C4433  1  0.667100  0.546200  0.359300  0.457
  C  C4434  1  0.332900  0.546200  0.140700  0.457
  C  C4435  1  0.167100  0.046200  0.359300  0.457
  C  C4436  1  0.832900  0.046200  0.140700  0.457
  C  C4437  1  0.332900  0.453800  0.640700  0.457
  C  C4438  1  0.667100  0.453800  0.859300  0.457
  C  C4439  1  0.832900  0.953800  0.640700  0.457
  C  C4440  1  0.167100  0.953800  0.859300  0.457
  C  C4441  1  0.698700  0.528100  0.369900  0.457
  C  C4442  1  0.301300  0.528100  0.130100  0.457
  C  C4443  1  0.198700  0.028100  0.369900  0.457
  C  C4444  1  0.801300  0.028100  0.130100  0.457
  C  C4445  1  0.301300  0.471900  0.630100  0.457
  C  C4446  1  0.698700  0.471900  0.869900  0.457
  C  C4447  1  0.801300  0.971900  0.630100  0.457
  C  C4448  1  0.198700  0.971900  0.869900  0.457
  C  C4449  1  0.733000  0.543100  0.366800  0.457
  C  C4450  1  0.267000  0.543100  0.133200  0.457
  C  C4451  1  0.233000  0.043100  0.366800  0.457
  C  C4452  1  0.767000  0.043100  0.133200  0.457
  C  C4453  1  0.267000  0.456900  0.633200  0.457
  C  C4454  1  0.733000  0.456900  0.866800  0.457
  C  C4455  1  0.767000  0.956900  0.633200  0.457
  C  C4456  1  0.233000  0.956900  0.866800  0.457
  C  C4457  1  0.734400  0.573200  0.350800  0.457
  C  C4458  1  0.265600  0.573200  0.149200  0.457
  C  C4459  1  0.234400  0.073200  0.350800  0.457
  C  C4460  1  0.765600  0.073200  0.149200  0.457
  C  C4461  1  0.265600  0.426800  0.649200  0.457
  C  C4462  1  0.734400  0.426800  0.850800  0.457
  C  C4463  1  0.765600  0.926800  0.649200  0.457
  C  C4464  1  0.234400  0.926800  0.850800  0.457
  C  C4465  1  0.704400  0.595400  0.345300  0.457
  C  C4466  1  0.295600  0.595400  0.154700  0.457
  C  C4467  1  0.204400  0.095400  0.345300  0.457
  C  C4468  1  0.795600  0.095400  0.154700  0.457
  C  C4469  1  0.295600  0.404600  0.654700  0.457
  C  C4470  1  0.704400  0.404600  0.845300  0.457
  C  C4471  1  0.795600  0.904600  0.654700  0.457
  C  C4472  1  0.204400  0.904600  0.845300  0.457
  C  C4473  1  0.668700  0.581800  0.349200  0.457
  C  C4474  1  0.331300  0.581800  0.150800  0.457
  C  C4475  1  0.168700  0.081800  0.349200  0.457
  C  C4476  1  0.831300  0.081800  0.150800  0.457
  C  C4477  1  0.331300  0.418200  0.650800  0.457
  C  C4478  1  0.668700  0.418200  0.849200  0.457
  C  C4479  1  0.831300  0.918200  0.650800  0.457
  C  C4480  1  0.168700  0.918200  0.849200  0.457
  C  C4481  1  0.774400  0.616700  0.330900  0.457
  C  C4482  1  0.225600  0.616700  0.169100  0.457
  C  C4483  1  0.274400  0.116700  0.330900  0.457
  C  C4484  1  0.725600  0.116700  0.169100  0.457
  C  C4485  1  0.225600  0.383300  0.669100  0.457
  C  C4486  1  0.774400  0.383300  0.830900  0.457
  C  C4487  1  0.725600  0.883300  0.669100  0.457
  C  C4488  1  0.274400  0.883300  0.830900  0.457
  C  C4489  1  0.568800  0.212300  0.443300  0.46
  C  C4490  1  0.431200  0.212300  0.056700  0.46
  C  C4491  1  0.068800  0.712300  0.443300  0.46
  C  C4492  1  0.931200  0.712300  0.056700  0.46
  C  C4493  1  0.431200  0.787700  0.556700  0.46
  C  C4494  1  0.568800  0.787700  0.943300  0.46
  C  C4495  1  0.931200  0.287700  0.556700  0.46
  C  C4496  1  0.068800  0.287700  0.943300  0.46
  C  C4497  1  0.592600  0.191100  0.464900  0.46
  C  C4498  1  0.407400  0.191100  0.035100  0.46
  C  C4499  1  0.092600  0.691100  0.464900  0.46
  C  C4500  1  0.907400  0.691100  0.035100  0.46
  C  C4501  1  0.407400  0.808900  0.535100  0.46
  C  C4502  1  0.592600  0.808900  0.964900  0.46
  C  C4503  1  0.907400  0.308900  0.535100  0.46
  C  C4504  1  0.092600  0.308900  0.964900  0.46
  C  C4505  1  0.581000  0.150600  0.464700  0.46
  C  C4506  1  0.419000  0.150600  0.035300  0.46
  C  C4507  1  0.081000  0.650600  0.464700  0.46
  C  C4508  1  0.919000  0.650600  0.035300  0.46
  C  C4509  1  0.419000  0.849400  0.535300  0.46
  C  C4510  1  0.581000  0.849400  0.964700  0.46
  C  C4511  1  0.919000  0.349400  0.535300  0.46
  C  C4512  1  0.081000  0.349400  0.964700  0.46
  C  C4513  1  0.574600  0.138700  0.493700  0.46
  C  C4514  1  0.425400  0.138700  0.006300  0.46
  C  C4515  1  0.074600  0.638700  0.493700  0.46
  C  C4516  1  0.925400  0.638700  0.006300  0.46
  C  C4517  1  0.425400  0.861300  0.506300  0.46
  C  C4518  1  0.574600  0.861300  0.993700  0.46
  C  C4519  1  0.925400  0.361300  0.506300  0.46
  C  C4520  1  0.074600  0.361300  0.993700  0.46
  C  C4521  1  0.551800  0.276000  0.448900  0.46
  C  C4522  1  0.448200  0.276000  0.051100  0.46
  C  C4523  1  0.051800  0.776000  0.448900  0.46
  C  C4524  1  0.948200  0.776000  0.051100  0.46
  C  C4525  1  0.448200  0.724000  0.551100  0.46
  C  C4526  1  0.551800  0.724000  0.948900  0.46
  C  C4527  1  0.948200  0.224000  0.551100  0.46
  C  C4528  1  0.051800  0.224000  0.948900  0.46
  C  C4529  1  0.544200  0.269000  0.478000  0.46
  C  C4530  1  0.455800  0.269000  0.022000  0.46
  C  C4531  1  0.044200  0.769000  0.478000  0.46
  C  C4532  1  0.955800  0.769000  0.022000  0.46
  C  C4533  1  0.455800  0.731000  0.522000  0.46
  C  C4534  1  0.544200  0.731000  0.978000  0.46
  C  C4535  1  0.955800  0.231000  0.522000  0.46
  C  C4536  1  0.044200  0.231000  0.978000  0.46
  C  C4537  1  0.504500  0.276000  0.484600  0.46
  C  C4538  1  0.495500  0.276000  0.015400  0.46
  C  C4539  1  0.004500  0.776000  0.484600  0.46
  C  C4540  1  0.995500  0.776000  0.015400  0.46
  C  C4541  1  0.495500  0.724000  0.515400  0.46
  C  C4542  1  0.504500  0.724000  0.984600  0.46
  C  C4543  1  0.995500  0.224000  0.515400  0.46
  C  C4544  1  0.004500  0.224000  0.984600  0.46
  C  C4545  1  0.508000  0.281200  0.515400  0.46
  C  C4546  1  0.492000  0.281200  0.984600  0.46
  C  C4547  1  0.008000  0.781200  0.515400  0.46
  C  C4548  1  0.992000  0.781200  0.984600  0.46
  C  C4549  1  0.492000  0.718800  0.484600  0.46
  C  C4550  1  0.508000  0.718800  0.015400  0.46
  C  C4551  1  0.992000  0.218800  0.484600  0.46
  C  C4552  1  0.008000  0.218800  0.015400  0.46
  C  C4553  1  0.587400  0.258000  0.409100  0.46
  C  C4554  1  0.412600  0.258000  0.090900  0.46
  C  C4555  1  0.087400  0.758000  0.409100  0.46
  C  C4556  1  0.912600  0.758000  0.090900  0.46
  C  C4557  1  0.412600  0.742000  0.590900  0.46
  C  C4558  1  0.587400  0.742000  0.909100  0.46
  C  C4559  1  0.912600  0.242000  0.590900  0.46
  C  C4560  1  0.087400  0.242000  0.909100  0.46
  C  C4561  1  0.558700  0.261000  0.387100  0.46
  C  C4562  1  0.441300  0.261000  0.112900  0.46
  C  C4563  1  0.058700  0.761000  0.387100  0.46
  C  C4564  1  0.941300  0.761000  0.112900  0.46
  C  C4565  1  0.441300  0.739000  0.612900  0.46
  C  C4566  1  0.558700  0.739000  0.887100  0.46
  C  C4567  1  0.941300  0.239000  0.612900  0.46
  C  C4568  1  0.058700  0.239000  0.887100  0.46
  C  C4569  1  0.561300  0.256300  0.358600  0.46
  C  C4570  1  0.438700  0.256300  0.141400  0.46
  C  C4571  1  0.061300  0.756300  0.358600  0.46
  C  C4572  1  0.938700  0.756300  0.141400  0.46
  C  C4573  1  0.438700  0.743700  0.641400  0.46
  C  C4574  1  0.561300  0.743700  0.858600  0.46
  C  C4575  1  0.938700  0.243700  0.641400  0.46
  C  C4576  1  0.061300  0.243700  0.858600  0.46
  C  C4577  1  0.530900  0.266700  0.338500  0.46
  C  C4578  1  0.469100  0.266700  0.161500  0.46
  C  C4579  1  0.030900  0.766700  0.338500  0.46
  C  C4580  1  0.969100  0.766700  0.161500  0.46
  C  C4581  1  0.469100  0.733300  0.661500  0.46
  C  C4582  1  0.530900  0.733300  0.838500  0.46
  C  C4583  1  0.969100  0.233300  0.661500  0.46
  C  C4584  1  0.030900  0.233300  0.838500  0.46
  C  C4585  1  0.620400  0.257400  0.453400  0.46
  C  C4586  1  0.379600  0.257400  0.046600  0.46
  C  C4587  1  0.120400  0.757400  0.453400  0.46
  C  C4588  1  0.879600  0.757400  0.046600  0.46
  C  C4589  1  0.379600  0.742600  0.546600  0.46
  C  C4590  1  0.620400  0.742600  0.953400  0.46
  C  C4591  1  0.879600  0.242600  0.546600  0.46
  C  C4592  1  0.120400  0.242600  0.953400  0.46
  C  C4593  1  0.651100  0.247600  0.435000  0.46
  C  C4594  1  0.348900  0.247600  0.065000  0.46
  C  C4595  1  0.151100  0.747600  0.435000  0.46
  C  C4596  1  0.848900  0.747600  0.065000  0.46
  C  C4597  1  0.348900  0.752400  0.565000  0.46
  C  C4598  1  0.651100  0.752400  0.935000  0.46
  C  C4599  1  0.848900  0.252400  0.565000  0.46
  C  C4600  1  0.151100  0.252400  0.935000  0.46
  C  C4601  1  0.679600  0.222300  0.451500  0.46
  C  C4602  1  0.320400  0.222300  0.048500  0.46
  C  C4603  1  0.179600  0.722300  0.451500  0.46
  C  C4604  1  0.820400  0.722300  0.048500  0.46
  C  C4605  1  0.320400  0.777700  0.548500  0.46
  C  C4606  1  0.679600  0.777700  0.951500  0.46
  C  C4607  1  0.820400  0.277700  0.548500  0.46
  C  C4608  1  0.179600  0.277700  0.951500  0.46
  C  C4609  1  0.684000  0.230900  0.482200  0.46
  C  C4610  1  0.316000  0.230900  0.017800  0.46
  C  C4611  1  0.184000  0.730900  0.482200  0.46
  C  C4612  1  0.816000  0.730900  0.017800  0.46
  C  C4613  1  0.316000  0.769100  0.517800  0.46
  C  C4614  1  0.684000  0.769100  0.982200  0.46
  C  C4615  1  0.816000  0.269100  0.517800  0.46
  C  C4616  1  0.184000  0.269100  0.982200  0.46
  C  C4617  1  0.380900  0.263600  0.302530  0.5
  C  C4618  1  0.619100  0.263600  0.197470  0.5
  C  C4619  1  0.880900  0.763600  0.302530  0.5
  C  C4620  1  0.119100  0.763600  0.197470  0.5
  C  C4621  1  0.619100  0.736400  0.697470  0.5
  C  C4622  1  0.380900  0.736400  0.802530  0.5
  C  C4623  1  0.119100  0.236400  0.697470  0.5
  C  C4624  1  0.880900  0.236400  0.802530  0.5
  C  C4625  1  0.394800  0.231700  0.290600  0.5
  C  C4626  1  0.605200  0.231700  0.209400  0.5
  C  C4627  1  0.894800  0.731700  0.290600  0.5
  C  C4628  1  0.105200  0.731700  0.209400  0.5
  C  C4629  1  0.605200  0.768300  0.709400  0.5
  C  C4630  1  0.394800  0.768300  0.790600  0.5
  C  C4631  1  0.105200  0.268300  0.709400  0.5
  C  C4632  1  0.894800  0.268300  0.790600  0.5
  C  C4633  1  0.382500  0.225200  0.262900  0.5
  C  C4634  1  0.617500  0.225200  0.237100  0.5
  C  C4635  1  0.882500  0.725200  0.262900  0.5
  C  C4636  1  0.117500  0.725200  0.237100  0.5
  C  C4637  1  0.617500  0.774800  0.737100  0.5
  C  C4638  1  0.382500  0.774800  0.762900  0.5
  C  C4639  1  0.117500  0.274800  0.737100  0.5
  C  C4640  1  0.882500  0.274800  0.762900  0.5
  C  C4641  1  0.357200  0.250800  0.249740  0.5
  C  C4642  1  0.642800  0.250800  0.250260  0.5
  C  C4643  1  0.857200  0.750800  0.249740  0.5
  C  C4644  1  0.142800  0.750800  0.250260  0.5
  C  C4645  1  0.642800  0.749200  0.750260  0.5
  C  C4646  1  0.357200  0.749200  0.749740  0.5
  C  C4647  1  0.142800  0.249200  0.750260  0.5
  C  C4648  1  0.857200  0.249200  0.749740  0.5
  C  C4649  1  0.421500  0.205200  0.306100  0.5
  C  C4650  1  0.578500  0.205200  0.193900  0.5
  C  C4651  1  0.921500  0.705200  0.306100  0.5
  C  C4652  1  0.078500  0.705200  0.193900  0.5
  C  C4653  1  0.578500  0.794800  0.693900  0.5
  C  C4654  1  0.421500  0.794800  0.806100  0.5
  C  C4655  1  0.078500  0.294800  0.693900  0.5
  C  C4656  1  0.921500  0.294800  0.806100  0.5
  C  C4657  1  0.403500  0.170700  0.317100  0.5
  C  C4658  1  0.596500  0.170700  0.182900  0.5
  C  C4659  1  0.903500  0.670700  0.317100  0.5
  C  C4660  1  0.096500  0.670700  0.182900  0.5
  C  C4661  1  0.596500  0.829300  0.682900  0.5
  C  C4662  1  0.403500  0.829300  0.817100  0.5
  C  C4663  1  0.096500  0.329300  0.682900  0.5
  C  C4664  1  0.903500  0.329300  0.817100  0.5
  C  C4665  1  0.388400  0.141500  0.296800  0.5
  C  C4666  1  0.611600  0.141500  0.203200  0.5
  C  C4667  1  0.888400  0.641500  0.296800  0.5
  C  C4668  1  0.111600  0.641500  0.203200  0.5
  C  C4669  1  0.611600  0.858500  0.703200  0.5
  C  C4670  1  0.388400  0.858500  0.796800  0.5
  C  C4671  1  0.111600  0.358500  0.703200  0.5
  C  C4672  1  0.888400  0.358500  0.796800  0.5
  C  C4673  1  0.356700  0.150300  0.275900  0.5
  C  C4674  1  0.643300  0.150300  0.224100  0.5
  C  C4675  1  0.856700  0.650300  0.275900  0.5
  C  C4676  1  0.143300  0.650300  0.224100  0.5
  C  C4677  1  0.643300  0.849700  0.724100  0.5
  C  C4678  1  0.356700  0.849700  0.775900  0.5
  C  C4679  1  0.143300  0.349700  0.724100  0.5
  C  C4680  1  0.856700  0.349700  0.775900  0.5
  C  C4681  1  0.367600  0.160100  0.247500  0.5
  C  C4682  1  0.632400  0.160100  0.252500  0.5
  C  C4683  1  0.867600  0.660100  0.247500  0.5
  C  C4684  1  0.132400  0.660100  0.252500  0.5
  C  C4685  1  0.632400  0.839900  0.752500  0.5
  C  C4686  1  0.367600  0.839900  0.747500  0.5
  C  C4687  1  0.132400  0.339900  0.752500  0.5
  C  C4688  1  0.867600  0.339900  0.747500  0.5
  C  C4689  1  0.396200  0.191600  0.248600  0.5
  C  C4690  1  0.603800  0.191600  0.251400  0.5
  C  C4691  1  0.896200  0.691600  0.248600  0.5
  C  C4692  1  0.103800  0.691600  0.251400  0.5
  C  C4693  1  0.603800  0.808400  0.751400  0.5
  C  C4694  1  0.396200  0.808400  0.748600  0.5
  C  C4695  1  0.103800  0.308400  0.751400  0.5
  C  C4696  1  0.896200  0.308400  0.748600  0.5
  C  C4697  1  0.379900  0.274600  0.300750  0.5
  C  C4698  1  0.620100  0.274600  0.199250  0.5
  C  C4699  1  0.879900  0.774600  0.300750  0.5
  C  C4700  1  0.120100  0.774600  0.199250  0.5
  C  C4701  1  0.620100  0.725400  0.699250  0.5
  C  C4702  1  0.379900  0.725400  0.800750  0.5
  C  C4703  1  0.120100  0.225400  0.699250  0.5
  C  C4704  1  0.879900  0.225400  0.800750  0.5
  C  C4705  1  0.392400  0.298300  0.280830  0.5
  C  C4706  1  0.607600  0.298300  0.219170  0.5
  C  C4707  1  0.892400  0.798300  0.280830  0.5
  C  C4708  1  0.107600  0.798300  0.219170  0.5
  C  C4709  1  0.607600  0.701700  0.719170  0.5
  C  C4710  1  0.392400  0.701700  0.780830  0.5
  C  C4711  1  0.107600  0.201700  0.719170  0.5
  C  C4712  1  0.892400  0.201700  0.780830  0.5
  C  C4713  1  0.378800  0.291900  0.253300  0.5
  C  C4714  1  0.621200  0.291900  0.246700  0.5
  C  C4715  1  0.878800  0.791900  0.253300  0.5
  C  C4716  1  0.121200  0.791900  0.246700  0.5
  C  C4717  1  0.621200  0.708100  0.746700  0.5
  C  C4718  1  0.378800  0.708100  0.753300  0.5
  C  C4719  1  0.121200  0.208100  0.746700  0.5
  C  C4720  1  0.878800  0.208100  0.753300  0.5
  C  C4721  1  0.355100  0.261600  0.248330  0.5
  C  C4722  1  0.644900  0.261600  0.251670  0.5
  C  C4723  1  0.855100  0.761600  0.248330  0.5
  C  C4724  1  0.144900  0.761600  0.251670  0.5
  C  C4725  1  0.644900  0.738400  0.751670  0.5
  C  C4726  1  0.355100  0.738400  0.748330  0.5
  C  C4727  1  0.144900  0.238400  0.751670  0.5
  C  C4728  1  0.855100  0.238400  0.748330  0.5
  C  C4729  1  0.417300  0.331000  0.288300  0.5
  C  C4730  1  0.582700  0.331000  0.211700  0.5
  C  C4731  1  0.917300  0.831000  0.288300  0.5
  C  C4732  1  0.082700  0.831000  0.211700  0.5
  C  C4733  1  0.582700  0.669000  0.711700  0.5
  C  C4734  1  0.417300  0.669000  0.788300  0.5
  C  C4735  1  0.082700  0.169000  0.711700  0.5
  C  C4736  1  0.917300  0.169000  0.788300  0.5
  C  C4737  1  0.397500  0.365300  0.297700  0.5
  C  C4738  1  0.602500  0.365300  0.202300  0.5
  C  C4739  1  0.897500  0.865300  0.297700  0.5
  C  C4740  1  0.102500  0.865300  0.202300  0.5
  C  C4741  1  0.602500  0.634700  0.702300  0.5
  C  C4742  1  0.397500  0.634700  0.797700  0.5
  C  C4743  1  0.102500  0.134700  0.702300  0.5
  C  C4744  1  0.897500  0.134700  0.797700  0.5
  C  C4745  1  0.368200  0.379100  0.276500  0.5
  C  C4746  1  0.631800  0.379100  0.223500  0.5
  C  C4747  1  0.868200  0.879100  0.276500  0.5
  C  C4748  1  0.131800  0.879100  0.223500  0.5
  C  C4749  1  0.631800  0.620900  0.723500  0.5
  C  C4750  1  0.368200  0.620900  0.776500  0.5
  C  C4751  1  0.131800  0.120900  0.723500  0.5
  C  C4752  1  0.868200  0.120900  0.776500  0.5
  C  C4753  1  0.372700  0.382500  0.247200  0.5
  C  C4754  1  0.627300  0.382500  0.252800  0.5
  C  C4755  1  0.872700  0.882500  0.247200  0.5
  C  C4756  1  0.127300  0.882500  0.252800  0.5
  C  C4757  1  0.627300  0.617500  0.752800  0.5
  C  C4758  1  0.372700  0.617500  0.747200  0.5
  C  C4759  1  0.127300  0.117500  0.752800  0.5
  C  C4760  1  0.872700  0.117500  0.747200  0.5
  C  C4761  1  0.362100  0.351300  0.227100  0.5
  C  C4762  1  0.637900  0.351300  0.272900  0.5
  C  C4763  1  0.862100  0.851300  0.227100  0.5
  C  C4764  1  0.137900  0.851300  0.272900  0.5
  C  C4765  1  0.637900  0.648700  0.772900  0.5
  C  C4766  1  0.362100  0.648700  0.727100  0.5
  C  C4767  1  0.137900  0.148700  0.772900  0.5
  C  C4768  1  0.862100  0.148700  0.727100  0.5
  C  C4769  1  0.388200  0.318000  0.231000  0.5
  C  C4770  1  0.611800  0.318000  0.269000  0.5
  C  C4771  1  0.888200  0.818000  0.231000  0.5
  C  C4772  1  0.111800  0.818000  0.269000  0.5
  C  C4773  1  0.611800  0.682000  0.769000  0.5
  C  C4774  1  0.388200  0.682000  0.731000  0.5
  C  C4775  1  0.111800  0.182000  0.769000  0.5
  C  C4776  1  0.888200  0.182000  0.731000  0.5
  C  C4777  1  0.522900  0.396800  0.273620  0.5
  C  C4778  1  0.477100  0.396800  0.226380  0.5
  C  C4779  1  0.022900  0.896800  0.273620  0.5
  C  C4780  1  0.977100  0.896800  0.226380  0.5
  C  C4781  1  0.477100  0.603200  0.726380  0.5
  C  C4782  1  0.522900  0.603200  0.773620  0.5
  C  C4783  1  0.977100  0.103200  0.726380  0.5
  C  C4784  1  0.022900  0.103200  0.773620  0.5
  C  C4785  1  0.538700  0.377100  0.253040  0.5
  C  C4786  1  0.461300  0.377100  0.246960  0.5
  C  C4787  1  0.038700  0.877100  0.253040  0.5
  C  C4788  1  0.961300  0.877100  0.246960  0.5
  C  C4789  1  0.461300  0.622900  0.746960  0.5
  C  C4790  1  0.538700  0.622900  0.753040  0.5
  C  C4791  1  0.961300  0.122900  0.746960  0.5
  C  C4792  1  0.038700  0.122900  0.753040  0.5
  C  C4793  1  0.519800  0.377700  0.226520  0.5
  C  C4794  1  0.480200  0.377700  0.273480  0.5
  C  C4795  1  0.019800  0.877700  0.226520  0.5
  C  C4796  1  0.980200  0.877700  0.273480  0.5
  C  C4797  1  0.480200  0.622300  0.773480  0.5
  C  C4798  1  0.519800  0.622300  0.726520  0.5
  C  C4799  1  0.980200  0.122300  0.773480  0.5
  C  C4800  1  0.019800  0.122300  0.726520  0.5
  C  C4801  1  0.486100  0.397200  0.223210  0.5
  C  C4802  1  0.513900  0.397200  0.276790  0.5
  C  C4803  1  0.986100  0.897200  0.223210  0.5
  C  C4804  1  0.013900  0.897200  0.276790  0.5
  C  C4805  1  0.513900  0.602800  0.776790  0.5
  C  C4806  1  0.486100  0.602800  0.723210  0.5
  C  C4807  1  0.013900  0.102800  0.776790  0.5
  C  C4808  1  0.986100  0.102800  0.723210  0.5
  C  C4809  1  0.574300  0.355700  0.258400  0.5
  C  C4810  1  0.425700  0.355700  0.241600  0.5
  C  C4811  1  0.074300  0.855700  0.258400  0.5
  C  C4812  1  0.925700  0.855700  0.241600  0.5
  C  C4813  1  0.425700  0.644300  0.741600  0.5
  C  C4814  1  0.574300  0.644300  0.758400  0.5
  C  C4815  1  0.925700  0.144300  0.741600  0.5
  C  C4816  1  0.074300  0.144300  0.758400  0.5
  C  C4817  1  0.609100  0.380100  0.259800  0.5
  C  C4818  1  0.390900  0.380100  0.240200  0.5
  C  C4819  1  0.109100  0.880100  0.259800  0.5
  C  C4820  1  0.890900  0.880100  0.240200  0.5
  C  C4821  1  0.390900  0.619900  0.740200  0.5
  C  C4822  1  0.609100  0.619900  0.759800  0.5
  C  C4823  1  0.890900  0.119900  0.740200  0.5
  C  C4824  1  0.109100  0.119900  0.759800  0.5
  C  C4825  1  0.612000  0.401200  0.233500  0.5
  C  C4826  1  0.388000  0.401200  0.266500  0.5
  C  C4827  1  0.112000  0.901200  0.233500  0.5
  C  C4828  1  0.888000  0.901200  0.266500  0.5
  C  C4829  1  0.388000  0.598800  0.766500  0.5
  C  C4830  1  0.612000  0.598800  0.733500  0.5
  C  C4831  1  0.888000  0.098800  0.766500  0.5
  C  C4832  1  0.112000  0.098800  0.733500  0.5
  C  C4833  1  0.605400  0.383400  0.206000  0.5
  C  C4834  1  0.394600  0.383400  0.294000  0.5
  C  C4835  1  0.105400  0.883400  0.206000  0.5
  C  C4836  1  0.894600  0.883400  0.294000  0.5
  C  C4837  1  0.394600  0.616600  0.794000  0.5
  C  C4838  1  0.605400  0.616600  0.706000  0.5
  C  C4839  1  0.894600  0.116600  0.794000  0.5
  C  C4840  1  0.105400  0.116600  0.706000  0.5
  C  C4841  1  0.566700  0.382100  0.190200  0.5
  C  C4842  1  0.433300  0.382100  0.309800  0.5
  C  C4843  1  0.066700  0.882100  0.190200  0.5
  C  C4844  1  0.933300  0.882100  0.309800  0.5
  C  C4845  1  0.433300  0.617900  0.809800  0.5
  C  C4846  1  0.566700  0.617900  0.690200  0.5
  C  C4847  1  0.933300  0.117900  0.809800  0.5
  C  C4848  1  0.066700  0.117900  0.690200  0.5
  C  C4849  1  0.537400  0.359200  0.203400  0.5
  C  C4850  1  0.462600  0.359200  0.296600  0.5
  C  C4851  1  0.037400  0.859200  0.203400  0.5
  C  C4852  1  0.962600  0.859200  0.296600  0.5
  C  C4853  1  0.462600  0.640800  0.796600  0.5
  C  C4854  1  0.537400  0.640800  0.703400  0.5
  C  C4855  1  0.962600  0.140800  0.796600  0.5
  C  C4856  1  0.037400  0.140800  0.703400  0.5
  C  C4857  1  0.508500  0.118400  0.277340  0.5
  C  C4858  1  0.491500  0.118400  0.222660  0.5
  C  C4859  1  0.008500  0.618400  0.277340  0.5
  C  C4860  1  0.991500  0.618400  0.222660  0.5
  C  C4861  1  0.491500  0.881600  0.722660  0.5
  C  C4862  1  0.508500  0.881600  0.777340  0.5
  C  C4863  1  0.991500  0.381600  0.722660  0.5
  C  C4864  1  0.008500  0.381600  0.777340  0.5
  C  C4865  1  0.538900  0.110700  0.262900  0.5
  C  C4866  1  0.461100  0.110700  0.237100  0.5
  C  C4867  1  0.038900  0.610700  0.262900  0.5
  C  C4868  1  0.961100  0.610700  0.237100  0.5
  C  C4869  1  0.461100  0.889300  0.737100  0.5
  C  C4870  1  0.538900  0.889300  0.762900  0.5
  C  C4871  1  0.961100  0.389300  0.737100  0.5
  C  C4872  1  0.038900  0.389300  0.762900  0.5
  C  C4873  1  0.532800  0.111300  0.234400  0.5
  C  C4874  1  0.467200  0.111300  0.265600  0.5
  C  C4875  1  0.032800  0.611300  0.234400  0.5
  C  C4876  1  0.967200  0.611300  0.265600  0.5
  C  C4877  1  0.467200  0.888700  0.765600  0.5
  C  C4878  1  0.532800  0.888700  0.734400  0.5
  C  C4879  1  0.967200  0.388700  0.765600  0.5
  C  C4880  1  0.032800  0.388700  0.734400  0.5
  C  C4881  1  0.496700  0.119200  0.222430  0.5
  C  C4882  1  0.503300  0.119200  0.277570  0.5
  C  C4883  1  0.996700  0.619200  0.222430  0.5
  C  C4884  1  0.003300  0.619200  0.277570  0.5
  C  C4885  1  0.503300  0.880800  0.777570  0.5
  C  C4886  1  0.496700  0.880800  0.722430  0.5
  C  C4887  1  0.003300  0.380800  0.777570  0.5
  C  C4888  1  0.996700  0.380800  0.722430  0.5
  C  C4889  1  0.577800  0.105500  0.276700  0.5
  C  C4890  1  0.422200  0.105500  0.223300  0.5
  C  C4891  1  0.077800  0.605500  0.276700  0.5
  C  C4892  1  0.922200  0.605500  0.223300  0.5
  C  C4893  1  0.422200  0.894500  0.723300  0.5
  C  C4894  1  0.577800  0.894500  0.776700  0.5
  C  C4895  1  0.922200  0.394500  0.723300  0.5
  C  C4896  1  0.077800  0.394500  0.776700  0.5
  C  C4897  1  0.615200  0.156300  0.253700  0.5
  C  C4898  1  0.384800  0.156300  0.246300  0.5
  C  C4899  1  0.115200  0.656300  0.253700  0.5
  C  C4900  1  0.884800  0.656300  0.246300  0.5
  C  C4901  1  0.384800  0.843700  0.746300  0.5
  C  C4902  1  0.615200  0.843700  0.753700  0.5
  C  C4903  1  0.884800  0.343700  0.746300  0.5
  C  C4904  1  0.115200  0.343700  0.753700  0.5
  C  C4905  1  0.579500  0.143800  0.206700  0.5
  C  C4906  1  0.420500  0.143800  0.293300  0.5
  C  C4907  1  0.079500  0.643800  0.206700  0.5
  C  C4908  1  0.920500  0.643800  0.293300  0.5
  C  C4909  1  0.420500  0.856200  0.793300  0.5
  C  C4910  1  0.579500  0.856200  0.706700  0.5
  C  C4911  1  0.920500  0.356200  0.793300  0.5
  C  C4912  1  0.079500  0.356200  0.706700  0.5
  C  C4913  1  0.601400  0.140800  0.279500  0.5
  C  C4914  1  0.398600  0.140800  0.220500  0.5
  C  C4915  1  0.101400  0.640800  0.279500  0.5
  C  C4916  1  0.898600  0.640800  0.220500  0.5
  C  C4917  1  0.398600  0.859200  0.720500  0.5
  C  C4918  1  0.601400  0.859200  0.779500  0.5
  C  C4919  1  0.898600  0.359200  0.720500  0.5
  C  C4920  1  0.101400  0.359200  0.779500  0.5
  C  C4921  1  0.587400  0.172000  0.230600  0.5
  C  C4922  1  0.412600  0.172000  0.269400  0.5
  C  C4923  1  0.087400  0.672000  0.230600  0.5
  C  C4924  1  0.912600  0.672000  0.269400  0.5
  C  C4925  1  0.412600  0.828000  0.769400  0.5
  C  C4926  1  0.587400  0.828000  0.730600  0.5
  C  C4927  1  0.912600  0.328000  0.769400  0.5
  C  C4928  1  0.087400  0.328000  0.730600  0.5
  C  C4929  1  0.565000  0.107200  0.217200  0.5
  C  C4930  1  0.435000  0.107200  0.282800  0.5
  C  C4931  1  0.065000  0.607200  0.217200  0.5
  C  C4932  1  0.935000  0.607200  0.282800  0.5
  C  C4933  1  0.435000  0.892800  0.782800  0.5
  C  C4934  1  0.565000  0.892800  0.717200  0.5
  C  C4935  1  0.935000  0.392800  0.782800  0.5
  C  C4936  1  0.065000  0.392800  0.717200  0.5
  C  C4937  1  0.202500  0.161700  0.436000  0.5
  C  C4938  1  0.797500  0.161700  0.064000  0.5
  C  C4939  1  0.702500  0.661700  0.436000  0.5
  C  C4940  1  0.297500  0.661700  0.064000  0.5
  C  C4941  1  0.797500  0.838300  0.564000  0.5
  C  C4942  1  0.202500  0.838300  0.936000  0.5
  C  C4943  1  0.297500  0.338300  0.564000  0.5
  C  C4944  1  0.702500  0.338300  0.936000  0.5
  C  C4945  1  0.209800  0.162600  0.464400  0.5
  C  C4946  1  0.790200  0.162600  0.035600  0.5
  C  C4947  1  0.709800  0.662600  0.464400  0.5
  C  C4948  1  0.290200  0.662600  0.035600  0.5
  C  C4949  1  0.790200  0.837400  0.535600  0.5
  C  C4950  1  0.209800  0.837400  0.964400  0.5
  C  C4951  1  0.290200  0.337400  0.535600  0.5
  C  C4952  1  0.709800  0.337400  0.964400  0.5
  C  C4953  1  0.210300  0.130100  0.479300  0.5
  C  C4954  1  0.789700  0.130100  0.020700  0.5
  C  C4955  1  0.710300  0.630100  0.479300  0.5
  C  C4956  1  0.289700  0.630100  0.020700  0.5
  C  C4957  1  0.789700  0.869900  0.520700  0.5
  C  C4958  1  0.210300  0.869900  0.979300  0.5
  C  C4959  1  0.289700  0.369900  0.520700  0.5
  C  C4960  1  0.710300  0.369900  0.979300  0.5
  C  C4961  1  0.203600  0.096800  0.465900  0.5
  C  C4962  1  0.796400  0.096800  0.034100  0.5
  C  C4963  1  0.703600  0.596800  0.465900  0.5
  C  C4964  1  0.296400  0.596800  0.034100  0.5
  C  C4965  1  0.796400  0.903200  0.534100  0.5
  C  C4966  1  0.203600  0.903200  0.965900  0.5
  C  C4967  1  0.296400  0.403200  0.534100  0.5
  C  C4968  1  0.703600  0.403200  0.965900  0.5
  C  C4969  1  0.196300  0.095900  0.437500  0.5
  C  C4970  1  0.803700  0.095900  0.062500  0.5
  C  C4971  1  0.696300  0.595900  0.437500  0.5
  C  C4972  1  0.303700  0.595900  0.062500  0.5
  C  C4973  1  0.803700  0.904100  0.562500  0.5
  C  C4974  1  0.196300  0.904100  0.937500  0.5
  C  C4975  1  0.303700  0.404100  0.562500  0.5
  C  C4976  1  0.696300  0.404100  0.937500  0.5
  C  C4977  1  0.195800  0.128400  0.422500  0.5
  C  C4978  1  0.804200  0.128400  0.077500  0.5
  C  C4979  1  0.695800  0.628400  0.422500  0.5
  C  C4980  1  0.304200  0.628400  0.077500  0.5
  C  C4981  1  0.804200  0.871600  0.577500  0.5
  C  C4982  1  0.195800  0.871600  0.922500  0.5
  C  C4983  1  0.304200  0.371600  0.577500  0.5
  C  C4984  1  0.695800  0.371600  0.922500  0.5
  C  C4985  1  0.540400  0.487100  0.239200  0.5
  C  C4986  1  0.459600  0.487100  0.260800  0.5
  C  C4987  1  0.040400  0.987100  0.239200  0.5
  C  C4988  1  0.959600  0.987100  0.260800  0.5
  C  C4989  1  0.459600  0.512900  0.760800  0.5
  C  C4990  1  0.540400  0.512900  0.739200  0.5
  C  C4991  1  0.959600  0.012900  0.760800  0.5
  C  C4992  1  0.040400  0.012900  0.739200  0.5
  C  C4993  1  0.571200  0.505800  0.231700  0.5
  C  C4994  1  0.428800  0.505800  0.268300  0.5
  C  C4995  1  0.071200  0.005800  0.231700  0.5
  C  C4996  1  0.928800  0.005800  0.268300  0.5
  C  C4997  1  0.428800  0.494200  0.768300  0.5
  C  C4998  1  0.571200  0.494200  0.731700  0.5
  C  C4999  1  0.928800  0.994200  0.768300  0.5
  C  C5000  1  0.071200  0.994200  0.731700  0.5
  C  C5001  1  0.572500  0.543900  0.233100  0.5
  C  C5002  1  0.427500  0.543900  0.266900  0.5
  C  C5003  1  0.072500  0.043900  0.233100  0.5
  C  C5004  1  0.927500  0.043900  0.266900  0.5
  C  C5005  1  0.427500  0.456100  0.766900  0.5
  C  C5006  1  0.572500  0.456100  0.733100  0.5
  C  C5007  1  0.927500  0.956100  0.766900  0.5
  C  C5008  1  0.072500  0.956100  0.733100  0.5
  C  C5009  1  0.543100  0.563400  0.242100  0.5
  C  C5010  1  0.456900  0.563400  0.257900  0.5
  C  C5011  1  0.043100  0.063400  0.242100  0.5
  C  C5012  1  0.956900  0.063400  0.257900  0.5
  C  C5013  1  0.456900  0.436600  0.757900  0.5
  C  C5014  1  0.543100  0.436600  0.742100  0.5
  C  C5015  1  0.956900  0.936600  0.757900  0.5
  C  C5016  1  0.043100  0.936600  0.742100  0.5
  C  C5017  1  0.512400  0.544700  0.249700  0.5
  C  C5018  1  0.487600  0.544700  0.250300  0.5
  C  C5019  1  0.012400  0.044700  0.249700  0.5
  C  C5020  1  0.987600  0.044700  0.250300  0.5
  C  C5021  1  0.487600  0.455300  0.750300  0.5
  C  C5022  1  0.512400  0.455300  0.749700  0.5
  C  C5023  1  0.987600  0.955300  0.750300  0.5
  C  C5024  1  0.012400  0.955300  0.749700  0.5
  C  C5025  1  0.511000  0.506500  0.248300  0.5
  C  C5026  1  0.489000  0.506500  0.251700  0.5
  C  C5027  1  0.011000  0.006500  0.248300  0.5
  C  C5028  1  0.989000  0.006500  0.251700  0.5
  C  C5029  1  0.489000  0.493500  0.751700  0.5
  C  C5030  1  0.511000  0.493500  0.748300  0.5
  C  C5031  1  0.989000  0.993500  0.751700  0.5
  C  C5032  1  0.011000  0.993500  0.748300  0.5
  C  C5033  1  0.571900  0.493200  0.212600  0.5
  C  C5034  1  0.428100  0.493200  0.287400  0.5
  C  C5035  1  0.071900  0.993200  0.212600  0.5
  C  C5036  1  0.928100  0.993200  0.287400  0.5
  C  C5037  1  0.428100  0.506800  0.787400  0.5
  C  C5038  1  0.571900  0.506800  0.712600  0.5
  C  C5039  1  0.928100  0.006800  0.787400  0.5
  C  C5040  1  0.071900  0.006800  0.712600  0.5
  C  C5041  1  0.547400  0.467100  0.197500  0.5
  C  C5042  1  0.452600  0.467100  0.302500  0.5
  C  C5043  1  0.047400  0.967100  0.197500  0.5
  C  C5044  1  0.952600  0.967100  0.302500  0.5
  C  C5045  1  0.452600  0.532900  0.802500  0.5
  C  C5046  1  0.547400  0.532900  0.697500  0.5
  C  C5047  1  0.952600  0.032900  0.802500  0.5
  C  C5048  1  0.047400  0.032900  0.697500  0.5
  C  C5049  1  0.190600  0.160100  0.365500  0.52
  C  C5050  1  0.809400  0.160100  0.134500  0.52
  C  C5051  1  0.690600  0.660100  0.365500  0.52
  C  C5052  1  0.309400  0.660100  0.134500  0.52
  C  C5053  1  0.809400  0.839900  0.634500  0.52
  C  C5054  1  0.190600  0.839900  0.865500  0.52
  C  C5055  1  0.309400  0.339900  0.634500  0.52
  C  C5056  1  0.690600  0.339900  0.865500  0.52
  C  C5057  1  0.583100  0.214100  0.441300  0.54
  C  C5058  1  0.416900  0.214100  0.058700  0.54
  C  C5059  1  0.083100  0.714100  0.441300  0.54
  C  C5060  1  0.916900  0.714100  0.058700  0.54
  C  C5061  1  0.416900  0.785900  0.558700  0.54
  C  C5062  1  0.583100  0.785900  0.941300  0.54
  C  C5063  1  0.916900  0.285900  0.558700  0.54
  C  C5064  1  0.083100  0.285900  0.941300  0.54
  C  C5065  1  0.580100  0.197400  0.469000  0.54
  C  C5066  1  0.419900  0.197400  0.031000  0.54
  C  C5067  1  0.080100  0.697400  0.469000  0.54
  C  C5068  1  0.919900  0.697400  0.031000  0.54
  C  C5069  1  0.419900  0.802600  0.531000  0.54
  C  C5070  1  0.580100  0.802600  0.969000  0.54
  C  C5071  1  0.919900  0.302600  0.531000  0.54
  C  C5072  1  0.080100  0.302600  0.969000  0.54
  C  C5073  1  0.567500  0.157500  0.468100  0.54
  C  C5074  1  0.432500  0.157500  0.031900  0.54
  C  C5075  1  0.067500  0.657500  0.468100  0.54
  C  C5076  1  0.932500  0.657500  0.031900  0.54
  C  C5077  1  0.432500  0.842500  0.531900  0.54
  C  C5078  1  0.567500  0.842500  0.968100  0.54
  C  C5079  1  0.932500  0.342500  0.531900  0.54
  C  C5080  1  0.067500  0.342500  0.968100  0.54
  C  C5081  1  0.595000  0.132700  0.484400  0.54
  C  C5082  1  0.405000  0.132700  0.015600  0.54
  C  C5083  1  0.095000  0.632700  0.484400  0.54
  C  C5084  1  0.905000  0.632700  0.015600  0.54
  C  C5085  1  0.405000  0.867300  0.515600  0.54
  C  C5086  1  0.595000  0.867300  0.984400  0.54
  C  C5087  1  0.905000  0.367300  0.515600  0.54
  C  C5088  1  0.095000  0.367300  0.984400  0.54
  C  C5089  1  0.563300  0.269600  0.464800  0.54
  C  C5090  1  0.436700  0.269600  0.035200  0.54
  C  C5091  1  0.063300  0.769600  0.464800  0.54
  C  C5092  1  0.936700  0.769600  0.035200  0.54
  C  C5093  1  0.436700  0.730400  0.535200  0.54
  C  C5094  1  0.563300  0.730400  0.964800  0.54
  C  C5095  1  0.936700  0.230400  0.535200  0.54
  C  C5096  1  0.063300  0.230400  0.964800  0.54
  C  C5097  1  0.522000  0.268400  0.466000  0.54
  C  C5098  1  0.478000  0.268400  0.034000  0.54
  C  C5099  1  0.022000  0.768400  0.466000  0.54
  C  C5100  1  0.978000  0.768400  0.034000  0.54
  C  C5101  1  0.478000  0.731600  0.534000  0.54
  C  C5102  1  0.522000  0.731600  0.966000  0.54
  C  C5103  1  0.978000  0.231600  0.534000  0.54
  C  C5104  1  0.022000  0.231600  0.966000  0.54
  C  C5105  1  0.515100  0.292000  0.492000  0.54
  C  C5106  1  0.484900  0.292000  0.008000  0.54
  C  C5107  1  0.015100  0.792000  0.492000  0.54
  C  C5108  1  0.984900  0.792000  0.008000  0.54
  C  C5109  1  0.484900  0.708000  0.508000  0.54
  C  C5110  1  0.515100  0.708000  0.992000  0.54
  C  C5111  1  0.984900  0.208000  0.508000  0.54
  C  C5112  1  0.015100  0.208000  0.992000  0.54
  C  C5113  1  0.478800  0.278400  0.500600  0.54
  C  C5114  1  0.521200  0.278400  0.999400  0.54
  C  C5115  1  0.978800  0.778400  0.500600  0.54
  C  C5116  1  0.021200  0.778400  0.999400  0.54
  C  C5117  1  0.521200  0.721600  0.499400  0.54
  C  C5118  1  0.478800  0.721600  0.000600  0.54
  C  C5119  1  0.021200  0.221600  0.499400  0.54
  C  C5120  1  0.978800  0.221600  0.000600  0.54
  C  C5121  1  0.558100  0.268400  0.413900  0.54
  C  C5122  1  0.441900  0.268400  0.086100  0.54
  C  C5123  1  0.058100  0.768400  0.413900  0.54
  C  C5124  1  0.941900  0.768400  0.086100  0.54
  C  C5125  1  0.441900  0.731600  0.586100  0.54
  C  C5126  1  0.558100  0.731600  0.913900  0.54
  C  C5127  1  0.941900  0.231600  0.586100  0.54
  C  C5128  1  0.058100  0.231600  0.913900  0.54
  C  C5129  1  0.619700  0.272300  0.439700  0.54
  C  C5130  1  0.380300  0.272300  0.060300  0.54
  C  C5131  1  0.119700  0.772300  0.439700  0.54
  C  C5132  1  0.880300  0.772300  0.060300  0.54
  C  C5133  1  0.380300  0.727700  0.560300  0.54
  C  C5134  1  0.619700  0.727700  0.939700  0.54
  C  C5135  1  0.880300  0.227700  0.560300  0.54
  C  C5136  1  0.119700  0.227700  0.939700  0.54
  C  C5137  1  0.572300  0.258000  0.387400  0.54
  C  C5138  1  0.427700  0.258000  0.112600  0.54
  C  C5139  1  0.072300  0.758000  0.387400  0.54
  C  C5140  1  0.927700  0.758000  0.112600  0.54
  C  C5141  1  0.427700  0.742000  0.612600  0.54
  C  C5142  1  0.572300  0.742000  0.887400  0.54
  C  C5143  1  0.927700  0.242000  0.612600  0.54
  C  C5144  1  0.072300  0.242000  0.887400  0.54
  C  C5145  1  0.543900  0.265100  0.362900  0.54
  C  C5146  1  0.456100  0.265100  0.137100  0.54
  C  C5147  1  0.043900  0.765100  0.362900  0.54
  C  C5148  1  0.956100  0.765100  0.137100  0.54
  C  C5149  1  0.456100  0.734900  0.637100  0.54
  C  C5150  1  0.543900  0.734900  0.862900  0.54
  C  C5151  1  0.956100  0.234900  0.637100  0.54
  C  C5152  1  0.043900  0.234900  0.862900  0.54
  C  C5153  1  0.555800  0.257500  0.336100  0.54
  C  C5154  1  0.444200  0.257500  0.163900  0.54
  C  C5155  1  0.055800  0.757500  0.336100  0.54
  C  C5156  1  0.944200  0.757500  0.163900  0.54
  C  C5157  1  0.444200  0.742500  0.663900  0.54
  C  C5158  1  0.555800  0.742500  0.836100  0.54
  C  C5159  1  0.944200  0.242500  0.663900  0.54
  C  C5160  1  0.055800  0.242500  0.836100  0.54
  C  C5161  1  0.650400  0.248700  0.454800  0.54
  C  C5162  1  0.349600  0.248700  0.045200  0.54
  C  C5163  1  0.150400  0.748700  0.454800  0.54
  C  C5164  1  0.849600  0.748700  0.045200  0.54
  C  C5165  1  0.349600  0.751300  0.545200  0.54
  C  C5166  1  0.650400  0.751300  0.954800  0.54
  C  C5167  1  0.849600  0.251300  0.545200  0.54
  C  C5168  1  0.150400  0.251300  0.954800  0.54
  C  C5169  1  0.687500  0.267200  0.453900  0.54
  C  C5170  1  0.312500  0.267200  0.046100  0.54
  C  C5171  1  0.187500  0.767200  0.453900  0.54
  C  C5172  1  0.812500  0.767200  0.046100  0.54
  C  C5173  1  0.312500  0.732800  0.546100  0.54
  C  C5174  1  0.687500  0.732800  0.953900  0.54
  C  C5175  1  0.812500  0.232800  0.546100  0.54
  C  C5176  1  0.187500  0.232800  0.953900  0.54
  C  C5177  1  0.717700  0.238600  0.448600  0.54
  C  C5178  1  0.282300  0.238600  0.051400  0.54
  C  C5179  1  0.217700  0.738600  0.448600  0.54
  C  C5180  1  0.782300  0.738600  0.051400  0.54
  C  C5181  1  0.282300  0.761400  0.551400  0.54
  C  C5182  1  0.717700  0.761400  0.948600  0.54
  C  C5183  1  0.782300  0.261400  0.551400  0.54
  C  C5184  1  0.217700  0.261400  0.948600  0.54
  C  C5185  1  0.660100  0.542200  0.364700  0.543
  C  C5186  1  0.339900  0.542200  0.135300  0.543
  C  C5187  1  0.160100  0.042200  0.364700  0.543
  C  C5188  1  0.839900  0.042200  0.135300  0.543
  C  C5189  1  0.339900  0.457800  0.635300  0.543
  C  C5190  1  0.660100  0.457800  0.864700  0.543
  C  C5191  1  0.839900  0.957800  0.635300  0.543
  C  C5192  1  0.160100  0.957800  0.864700  0.543
  C  C5193  1  0.673400  0.550500  0.340100  0.543
  C  C5194  1  0.326600  0.550500  0.159900  0.543
  C  C5195  1  0.173400  0.050500  0.340100  0.543
  C  C5196  1  0.826600  0.050500  0.159900  0.543
  C  C5197  1  0.326600  0.449500  0.659900  0.543
  C  C5198  1  0.673400  0.449500  0.840100  0.543
  C  C5199  1  0.826600  0.949500  0.659900  0.543
  C  C5200  1  0.173400  0.949500  0.840100  0.543
  C  C5201  1  0.709200  0.564300  0.340200  0.543
  C  C5202  1  0.290800  0.564300  0.159800  0.543
  C  C5203  1  0.209200  0.064300  0.340200  0.543
  C  C5204  1  0.790800  0.064300  0.159800  0.543
  C  C5205  1  0.290800  0.435700  0.659800  0.543
  C  C5206  1  0.709200  0.435700  0.840200  0.543
  C  C5207  1  0.790800  0.935700  0.659800  0.543
  C  C5208  1  0.209200  0.935700  0.840200  0.543
  C  C5209  1  0.729400  0.568800  0.364800  0.543
  C  C5210  1  0.270600  0.568800  0.135200  0.543
  C  C5211  1  0.229400  0.068800  0.364800  0.543
  C  C5212  1  0.770600  0.068800  0.135200  0.543
  C  C5213  1  0.270600  0.431200  0.635200  0.543
  C  C5214  1  0.729400  0.431200  0.864800  0.543
  C  C5215  1  0.770600  0.931200  0.635200  0.543
  C  C5216  1  0.229400  0.931200  0.864800  0.543
  C  C5217  1  0.717600  0.560100  0.389400  0.543
  C  C5218  1  0.282400  0.560100  0.110600  0.543
  C  C5219  1  0.217600  0.060100  0.389400  0.543
  C  C5220  1  0.782400  0.060100  0.110600  0.543
  C  C5221  1  0.282400  0.439900  0.610600  0.543
  C  C5222  1  0.717600  0.439900  0.889400  0.543
  C  C5223  1  0.782400  0.939900  0.610600  0.543
  C  C5224  1  0.217600  0.939900  0.889400  0.543
  C  C5225  1  0.681800  0.546100  0.389500  0.543
  C  C5226  1  0.318200  0.546100  0.110500  0.543
  C  C5227  1  0.181800  0.046100  0.389500  0.543
  C  C5228  1  0.818200  0.046100  0.110500  0.543
  C  C5229  1  0.318200  0.453900  0.610500  0.543
  C  C5230  1  0.681800  0.453900  0.889500  0.543
  C  C5231  1  0.818200  0.953900  0.610500  0.543
  C  C5232  1  0.181800  0.953900  0.889500  0.543
  C  C5233  1  0.777800  0.591600  0.339700  0.543
  C  C5234  1  0.222200  0.591600  0.160300  0.543
  C  C5235  1  0.277800  0.091600  0.339700  0.543
  C  C5236  1  0.722200  0.091600  0.160300  0.543
  C  C5237  1  0.222200  0.408400  0.660300  0.543
  C  C5238  1  0.777800  0.408400  0.839700  0.543
  C  C5239  1  0.722200  0.908400  0.660300  0.543
  C  C5240  1  0.277800  0.908400  0.839700  0.543
  C  C5241  1  0.228600  0.263000  0.301700  0.579
  C  C5242  1  0.771400  0.263000  0.198300  0.579
  C  C5243  1  0.728600  0.763000  0.301700  0.579
  C  C5244  1  0.271400  0.763000  0.198300  0.579
  C  C5245  1  0.771400  0.737000  0.698300  0.579
  C  C5246  1  0.228600  0.737000  0.801700  0.579
  C  C5247  1  0.271400  0.237000  0.698300  0.579
  C  C5248  1  0.728600  0.237000  0.801700  0.579
  C  C5249  1  0.265700  0.259900  0.297300  0.579
  C  C5250  1  0.734300  0.259900  0.202700  0.579
  C  C5251  1  0.765700  0.759900  0.297300  0.579
  C  C5252  1  0.234300  0.759900  0.202700  0.579
  C  C5253  1  0.734300  0.740100  0.702700  0.579
  C  C5254  1  0.265700  0.740100  0.797300  0.579
  C  C5255  1  0.234300  0.240100  0.702700  0.579
  C  C5256  1  0.765700  0.240100  0.797300  0.579
  C  C5257  1  0.281700  0.225400  0.295700  0.579
  C  C5258  1  0.718300  0.225400  0.204300  0.579
  C  C5259  1  0.781700  0.725400  0.295700  0.579
  C  C5260  1  0.218300  0.725400  0.204300  0.579
  C  C5261  1  0.718300  0.774600  0.704300  0.579
  C  C5262  1  0.281700  0.774600  0.795700  0.579
  C  C5263  1  0.218300  0.274600  0.704300  0.579
  C  C5264  1  0.781700  0.274600  0.795700  0.579
  C  C5265  1  0.260600  0.194000  0.298400  0.579
  C  C5266  1  0.739400  0.194000  0.201600  0.579
  C  C5267  1  0.760600  0.694000  0.298400  0.579
  C  C5268  1  0.239400  0.694000  0.201600  0.579
  C  C5269  1  0.739400  0.806000  0.701600  0.579
  C  C5270  1  0.260600  0.806000  0.798400  0.579
  C  C5271  1  0.239400  0.306000  0.701600  0.579
  C  C5272  1  0.760600  0.306000  0.798400  0.579
  C  C5273  1  0.223500  0.197100  0.302700  0.579
  C  C5274  1  0.776500  0.197100  0.197300  0.579
  C  C5275  1  0.723500  0.697100  0.302700  0.579
  C  C5276  1  0.276500  0.697100  0.197300  0.579
  C  C5277  1  0.776500  0.802900  0.697300  0.579
  C  C5278  1  0.223500  0.802900  0.802700  0.579
  C  C5279  1  0.276500  0.302900  0.697300  0.579
  C  C5280  1  0.723500  0.302900  0.802700  0.579
  C  C5281  1  0.207400  0.231600  0.304400  0.579
  C  C5282  1  0.792600  0.231600  0.195600  0.579
  C  C5283  1  0.707400  0.731600  0.304400  0.579
  C  C5284  1  0.292600  0.731600  0.195600  0.579
  C  C5285  1  0.792600  0.768400  0.695600  0.579
  C  C5286  1  0.207400  0.768400  0.804400  0.579
  C  C5287  1  0.292600  0.268400  0.695600  0.579
  C  C5288  1  0.707400  0.268400  0.804400  0.579
  C  C5289  1  0.175600  0.133500  0.038500  0.6
  C  C5290  1  0.824400  0.133500  0.461500  0.6
  C  C5291  1  0.675600  0.633500  0.038500  0.6
  C  C5292  1  0.324400  0.633500  0.461500  0.6
  C  C5293  1  0.824400  0.866500  0.961500  0.6
  C  C5294  1  0.175600  0.866500  0.538500  0.6
  C  C5295  1  0.324400  0.366500  0.961500  0.6
  C  C5296  1  0.675600  0.366500  0.538500  0.6
  C  C5297  1  0.146900  0.205700  0.380000  0.48
  C  C5298  1  0.853100  0.205700  0.120000  0.48
  C  C5299  1  0.646900  0.705700  0.380000  0.48
  C  C5300  1  0.353100  0.705700  0.120000  0.48
  C  C5301  1  0.853100  0.794300  0.620000  0.48
  C  C5302  1  0.146900  0.794300  0.880000  0.48
  C  C5303  1  0.353100  0.294300  0.620000  0.48
  C  C5304  1  0.646900  0.294300  0.880000  0.48
  N  N5305  1  0.501600  0.988700  0.392430  1.0
  N  N5306  1  0.498400  0.988700  0.107570  1.0
  N  N5307  1  0.001600  0.488700  0.392430  1.0
  N  N5308  1  0.998400  0.488700  0.107570  1.0
  N  N5309  1  0.498400  0.011300  0.607570  1.0
  N  N5310  1  0.501600  0.011300  0.892430  1.0
  N  N5311  1  0.998400  0.511300  0.607570  1.0
  N  N5312  1  0.001600  0.511300  0.892430  1.0
  N  N5313  1  0.559900  0.017600  0.374220  1.0
  N  N5314  1  0.440100  0.017600  0.125780  1.0
  N  N5315  1  0.059900  0.517600  0.374220  1.0
  N  N5316  1  0.940100  0.517600  0.125780  1.0
  N  N5317  1  0.440100  0.982400  0.625780  1.0
  N  N5318  1  0.559900  0.982400  0.874220  1.0
  N  N5319  1  0.940100  0.482400  0.625780  1.0
  N  N5320  1  0.059900  0.482400  0.874220  1.0
  N  N5321  1  0.748000  0.164600  0.307040  1.0
  N  N5322  1  0.252000  0.164600  0.192960  1.0
  N  N5323  1  0.248000  0.664600  0.307040  1.0
  N  N5324  1  0.752000  0.664600  0.192960  1.0
  N  N5325  1  0.252000  0.835400  0.692960  1.0
  N  N5326  1  0.748000  0.835400  0.807040  1.0
  N  N5327  1  0.752000  0.335400  0.692960  1.0
  N  N5328  1  0.248000  0.335400  0.807040  1.0
  N  N5329  1  0.780700  0.215800  0.281800  1.0
  N  N5330  1  0.219300  0.215800  0.218200  1.0
  N  N5331  1  0.280700  0.715800  0.281800  1.0
  N  N5332  1  0.719300  0.715800  0.218200  1.0
  N  N5333  1  0.219300  0.784200  0.718200  1.0
  N  N5334  1  0.780700  0.784200  0.781800  1.0
  N  N5335  1  0.719300  0.284200  0.718200  1.0
  N  N5336  1  0.280700  0.284200  0.781800  1.0
  N  N5337  1  0.643500  0.048700  0.327200  1.0
  N  N5338  1  0.356500  0.048700  0.172800  1.0
  N  N5339  1  0.143500  0.548700  0.327200  1.0
  N  N5340  1  0.856500  0.548700  0.172800  1.0
  N  N5341  1  0.356500  0.951300  0.672800  1.0
  N  N5342  1  0.643500  0.951300  0.827200  1.0
  N  N5343  1  0.856500  0.451300  0.672800  1.0
  N  N5344  1  0.143500  0.451300  0.827200  1.0
  N  N5345  1  0.666100  0.069800  0.313800  1.0
  N  N5346  1  0.333900  0.069800  0.186200  1.0
  N  N5347  1  0.166100  0.569800  0.313800  1.0
  N  N5348  1  0.833900  0.569800  0.186200  1.0
  N  N5349  1  0.333900  0.930200  0.686200  1.0
  N  N5350  1  0.666100  0.930200  0.813800  1.0
  N  N5351  1  0.833900  0.430200  0.686200  1.0
  N  N5352  1  0.166100  0.430200  0.813800  1.0
  N  N5353  1  0.495400  0.001100  0.337370  1.0
  N  N5354  1  0.504600  0.001100  0.162630  1.0
  N  N5355  1  0.995400  0.501100  0.337370  1.0
  N  N5356  1  0.004600  0.501100  0.162630  1.0
  N  N5357  1  0.504600  0.998900  0.662630  1.0
  N  N5358  1  0.495400  0.998900  0.837370  1.0
  N  N5359  1  0.004600  0.498900  0.662630  1.0
  N  N5360  1  0.995400  0.498900  0.837370  1.0
  N  N5361  1  0.452800  0.043500  0.363660  1.0
  N  N5362  1  0.547200  0.043500  0.136340  1.0
  N  N5363  1  0.952800  0.543500  0.363660  1.0
  N  N5364  1  0.047200  0.543500  0.136340  1.0
  N  N5365  1  0.547200  0.956500  0.636340  1.0
  N  N5366  1  0.452800  0.956500  0.863660  1.0
  N  N5367  1  0.047200  0.456500  0.636340  1.0
  N  N5368  1  0.952800  0.456500  0.863660  1.0
  N  N5369  1  0.326800  0.257400  0.416910  1.0
  N  N5370  1  0.673200  0.257400  0.083090  1.0
  N  N5371  1  0.826800  0.757400  0.416910  1.0
  N  N5372  1  0.173200  0.757400  0.083090  1.0
  N  N5373  1  0.673200  0.742600  0.583090  1.0
  N  N5374  1  0.326800  0.742600  0.916910  1.0
  N  N5375  1  0.173200  0.242600  0.583090  1.0
  N  N5376  1  0.826800  0.242600  0.916910  1.0
  N  N5377  1  0.304300  0.322600  0.430800  1.0
  N  N5378  1  0.695700  0.322600  0.069200  1.0
  N  N5379  1  0.804300  0.822600  0.430800  1.0
  N  N5380  1  0.195700  0.822600  0.069200  1.0
  N  N5381  1  0.695700  0.677400  0.569200  1.0
  N  N5382  1  0.304300  0.677400  0.930800  1.0
  N  N5383  1  0.195700  0.177400  0.569200  1.0
  N  N5384  1  0.804300  0.177400  0.930800  1.0
  N  N5385  1  0.363500  0.130800  0.369250  1.0
  N  N5386  1  0.636500  0.130800  0.130750  1.0
  N  N5387  1  0.863500  0.630800  0.369250  1.0
  N  N5388  1  0.136500  0.630800  0.130750  1.0
  N  N5389  1  0.636500  0.869200  0.630750  1.0
  N  N5390  1  0.363500  0.869200  0.869250  1.0
  N  N5391  1  0.136500  0.369200  0.630750  1.0
  N  N5392  1  0.863500  0.369200  0.869250  1.0
  N  N5393  1  0.346800  0.158300  0.381110  1.0
  N  N5394  1  0.653200  0.158300  0.118890  1.0
  N  N5395  1  0.846800  0.658300  0.381110  1.0
  N  N5396  1  0.153200  0.658300  0.118890  1.0
  N  N5397  1  0.653200  0.841700  0.618890  1.0
  N  N5398  1  0.346800  0.841700  0.881110  1.0
  N  N5399  1  0.153200  0.341700  0.618890  1.0
  N  N5400  1  0.846800  0.341700  0.881110  1.0
  N  N5401  1  0.818000  0.196800  0.333000  1.0
  N  N5402  1  0.182000  0.196800  0.167000  1.0
  N  N5403  1  0.318000  0.696800  0.333000  1.0
  N  N5404  1  0.682000  0.696800  0.167000  1.0
  N  N5405  1  0.182000  0.803200  0.667000  1.0
  N  N5406  1  0.818000  0.803200  0.833000  1.0
  N  N5407  1  0.682000  0.303200  0.667000  1.0
  N  N5408  1  0.318000  0.303200  0.833000  1.0
  N  N5409  1  0.789000  0.262100  0.328500  1.0
  N  N5410  1  0.211000  0.262100  0.171500  1.0
  N  N5411  1  0.289000  0.762100  0.328500  1.0
  N  N5412  1  0.711000  0.762100  0.171500  1.0
  N  N5413  1  0.211000  0.737900  0.671500  1.0
  N  N5414  1  0.789000  0.737900  0.828500  1.0
  N  N5415  1  0.711000  0.237900  0.671500  1.0
  N  N5416  1  0.289000  0.237900  0.828500  1.0
  N  N5417  1  0.637400  0.473400  0.325970  1.0
  N  N5418  1  0.362600  0.473400  0.174030  1.0
  N  N5419  1  0.137400  0.973400  0.325970  1.0
  N  N5420  1  0.862600  0.973400  0.174030  1.0
  N  N5421  1  0.362600  0.526600  0.674030  1.0
  N  N5422  1  0.637400  0.526600  0.825970  1.0
  N  N5423  1  0.862600  0.026600  0.674030  1.0
  N  N5424  1  0.137400  0.026600  0.825970  1.0
  N  N5425  1  0.580300  0.517100  0.318300  1.0
  N  N5426  1  0.419700  0.517100  0.181700  1.0
  N  N5427  1  0.080300  0.017100  0.318300  1.0
  N  N5428  1  0.919700  0.017100  0.181700  1.0
  N  N5429  1  0.419700  0.482900  0.681700  1.0
  N  N5430  1  0.580300  0.482900  0.818300  1.0
  N  N5431  1  0.919700  0.982900  0.681700  1.0
  N  N5432  1  0.080300  0.982900  0.818300  1.0
  N  N5433  1  0.747200  0.363600  0.303800  1.0
  N  N5434  1  0.252800  0.363600  0.196200  1.0
  N  N5435  1  0.247200  0.863600  0.303800  1.0
  N  N5436  1  0.752800  0.863600  0.196200  1.0
  N  N5437  1  0.252800  0.636400  0.696200  1.0
  N  N5438  1  0.747200  0.636400  0.803800  1.0
  N  N5439  1  0.752800  0.136400  0.696200  1.0
  N  N5440  1  0.247200  0.136400  0.803800  1.0
  N  N5441  1  0.723300  0.391600  0.299300  1.0
  N  N5442  1  0.276700  0.391600  0.200700  1.0
  N  N5443  1  0.223300  0.891600  0.299300  1.0
  N  N5444  1  0.776700  0.891600  0.200700  1.0
  N  N5445  1  0.276700  0.608400  0.700700  1.0
  N  N5446  1  0.723300  0.608400  0.799300  1.0
  N  N5447  1  0.776700  0.108400  0.700700  1.0
  N  N5448  1  0.223300  0.108400  0.799300  1.0
  N  N5449  1  0.623500  0.530200  0.366300  1.0
  N  N5450  1  0.376500  0.530200  0.133700  1.0
  N  N5451  1  0.123500  0.030200  0.366300  1.0
  N  N5452  1  0.876500  0.030200  0.133700  1.0
  N  N5453  1  0.376500  0.469800  0.633700  1.0
  N  N5454  1  0.623500  0.469800  0.866300  1.0
  N  N5455  1  0.876500  0.969800  0.633700  1.0
  N  N5456  1  0.123500  0.969800  0.866300  1.0
  N  N5457  1  0.559700  0.502100  0.372480  1.0
  N  N5458  1  0.440300  0.502100  0.127520  1.0
  N  N5459  1  0.059700  0.002100  0.372480  1.0
  N  N5460  1  0.940300  0.002100  0.127520  1.0
  N  N5461  1  0.440300  0.497900  0.627520  1.0
  N  N5462  1  0.559700  0.497900  0.872480  1.0
  N  N5463  1  0.940300  0.997900  0.627520  1.0
  N  N5464  1  0.059700  0.997900  0.872480  1.0
  N  N5465  1  0.342900  0.356900  0.386940  1.0
  N  N5466  1  0.657100  0.356900  0.113060  1.0
  N  N5467  1  0.842900  0.856900  0.386940  1.0
  N  N5468  1  0.157100  0.856900  0.113060  1.0
  N  N5469  1  0.657100  0.643100  0.613060  1.0
  N  N5470  1  0.342900  0.643100  0.886940  1.0
  N  N5471  1  0.157100  0.143100  0.613060  1.0
  N  N5472  1  0.842900  0.143100  0.886940  1.0
  N  N5473  1  0.291700  0.306600  0.376300  1.0
  N  N5474  1  0.708300  0.306600  0.123700  1.0
  N  N5475  1  0.791700  0.806600  0.376300  1.0
  N  N5476  1  0.208300  0.806600  0.123700  1.0
  N  N5477  1  0.708300  0.693400  0.623700  1.0
  N  N5478  1  0.291700  0.693400  0.876300  1.0
  N  N5479  1  0.208300  0.193400  0.623700  1.0
  N  N5480  1  0.791700  0.193400  0.876300  1.0
  N  N5481  1  0.451800  0.467600  0.364880  1.0
  N  N5482  1  0.548200  0.467600  0.135120  1.0
  N  N5483  1  0.951800  0.967600  0.364880  1.0
  N  N5484  1  0.048200  0.967600  0.135120  1.0
  N  N5485  1  0.548200  0.532400  0.635120  1.0
  N  N5486  1  0.451800  0.532400  0.864880  1.0
  N  N5487  1  0.048200  0.032400  0.635120  1.0
  N  N5488  1  0.951800  0.032400  0.864880  1.0
  N  N5489  1  0.421200  0.446500  0.362410  1.0
  N  N5490  1  0.578800  0.446500  0.137590  1.0
  N  N5491  1  0.921200  0.946500  0.362410  1.0
  N  N5492  1  0.078800  0.946500  0.137590  1.0
  N  N5493  1  0.578800  0.553500  0.637590  1.0
  N  N5494  1  0.421200  0.553500  0.862410  1.0
  N  N5495  1  0.078800  0.053500  0.637590  1.0
  N  N5496  1  0.921200  0.053500  0.862410  1.0
  N  N5497  1  0.387200  0.308100  0.426820  1.0
  N  N5498  1  0.612800  0.308100  0.073180  1.0
  N  N5499  1  0.887200  0.808100  0.426820  1.0
  N  N5500  1  0.112800  0.808100  0.073180  1.0
  N  N5501  1  0.612800  0.691900  0.573180  1.0
  N  N5502  1  0.387200  0.691900  0.926820  1.0
  N  N5503  1  0.112800  0.191900  0.573180  1.0
  N  N5504  1  0.887200  0.191900  0.926820  1.0
  N  N5505  1  0.373320  0.290900  0.375410  1.0
  N  N5506  1  0.626680  0.290900  0.124590  1.0
  N  N5507  1  0.873320  0.790900  0.375410  1.0
  N  N5508  1  0.126680  0.790900  0.124590  1.0
  N  N5509  1  0.626680  0.709100  0.624590  1.0
  N  N5510  1  0.373320  0.709100  0.875410  1.0
  N  N5511  1  0.126680  0.209100  0.624590  1.0
  N  N5512  1  0.873320  0.209100  0.875410  1.0
  N  N5513  1  0.286100  0.231200  0.190800  1.0
  N  N5514  1  0.713900  0.231200  0.309200  1.0
  N  N5515  1  0.786100  0.731200  0.190800  1.0
  N  N5516  1  0.213900  0.731200  0.309200  1.0
  N  N5517  1  0.713900  0.768800  0.809200  1.0
  N  N5518  1  0.286100  0.768800  0.690800  1.0
  N  N5519  1  0.213900  0.268800  0.809200  1.0
  N  N5520  1  0.786100  0.268800  0.690800  1.0
  N  N5521  1  0.251800  0.211000  0.143800  1.0
  N  N5522  1  0.748200  0.211000  0.356200  1.0
  N  N5523  1  0.751800  0.711000  0.143800  1.0
  N  N5524  1  0.248200  0.711000  0.356200  1.0
  N  N5525  1  0.748200  0.789000  0.856200  1.0
  N  N5526  1  0.251800  0.789000  0.643800  1.0
  N  N5527  1  0.248200  0.289000  0.856200  1.0
  N  N5528  1  0.751800  0.289000  0.643800  1.0
  N  N5529  1  0.619200  0.449800  0.380200  1.0
  N  N5530  1  0.380800  0.449800  0.119800  1.0
  N  N5531  1  0.119200  0.949800  0.380200  1.0
  N  N5532  1  0.880800  0.949800  0.119800  1.0
  N  N5533  1  0.380800  0.550200  0.619800  1.0
  N  N5534  1  0.619200  0.550200  0.880200  1.0
  N  N5535  1  0.880800  0.050200  0.619800  1.0
  N  N5536  1  0.119200  0.050200  0.880200  1.0
  N  N5537  1  0.572600  0.439200  0.336060  1.0
  N  N5538  1  0.427400  0.439200  0.163940  1.0
  N  N5539  1  0.072600  0.939200  0.336060  1.0
  N  N5540  1  0.927400  0.939200  0.163940  1.0
  N  N5541  1  0.427400  0.560800  0.663940  1.0
  N  N5542  1  0.572600  0.560800  0.836060  1.0
  N  N5543  1  0.927400  0.060800  0.663940  1.0
  N  N5544  1  0.072600  0.060800  0.836060  1.0
  N  N5545  1  0.517600  0.070600  0.400940  1.0
  N  N5546  1  0.482400  0.070600  0.099060  1.0
  N  N5547  1  0.017600  0.570600  0.400940  1.0
  N  N5548  1  0.982400  0.570600  0.099060  1.0
  N  N5549  1  0.482400  0.929400  0.599060  1.0
  N  N5550  1  0.517600  0.929400  0.900940  1.0
  N  N5551  1  0.982400  0.429400  0.599060  1.0
  N  N5552  1  0.017600  0.429400  0.900940  1.0
  N  N5553  1  0.514800  0.079070  0.348070  1.0
  N  N5554  1  0.485200  0.079070  0.151930  1.0
  N  N5555  1  0.014800  0.579070  0.348070  1.0
  N  N5556  1  0.985200  0.579070  0.151930  1.0
  N  N5557  1  0.485200  0.920930  0.651930  1.0
  N  N5558  1  0.514800  0.920930  0.848070  1.0
  N  N5559  1  0.985200  0.420930  0.651930  1.0
  N  N5560  1  0.014800  0.420930  0.848070  1.0
  N  N5561  1  0.581800  0.251700  0.439000  0.46
  N  N5562  1  0.418200  0.251700  0.061000  0.46
  N  N5563  1  0.081800  0.751700  0.439000  0.46
  N  N5564  1  0.918200  0.751700  0.061000  0.46
  N  N5565  1  0.418200  0.748300  0.561000  0.46
  N  N5566  1  0.581800  0.748300  0.939000  0.46
  N  N5567  1  0.918200  0.248300  0.561000  0.46
  N  N5568  1  0.081800  0.248300  0.939000  0.46
  N  N5569  1  0.357500  0.286100  0.288700  0.5
  N  N5570  1  0.642500  0.286100  0.211300  0.5
  N  N5571  1  0.857500  0.786100  0.288700  0.5
  N  N5572  1  0.142500  0.786100  0.211300  0.5
  N  N5573  1  0.642500  0.713900  0.711300  0.5
  N  N5574  1  0.357500  0.713900  0.788700  0.5
  N  N5575  1  0.142500  0.213900  0.711300  0.5
  N  N5576  1  0.857500  0.213900  0.788700  0.5
  N  N5577  1  0.345300  0.279800  0.262700  0.5
  N  N5578  1  0.654700  0.279800  0.237300  0.5
  N  N5579  1  0.845300  0.779800  0.262700  0.5
  N  N5580  1  0.154700  0.779800  0.237300  0.5
  N  N5581  1  0.654700  0.720200  0.737300  0.5
  N  N5582  1  0.345300  0.720200  0.762700  0.5
  N  N5583  1  0.154700  0.220200  0.737300  0.5
  N  N5584  1  0.845300  0.220200  0.762700  0.5
  N  N5585  1  0.355900  0.247900  0.294370  0.5
  N  N5586  1  0.644100  0.247900  0.205630  0.5
  N  N5587  1  0.855900  0.747900  0.294370  0.5
  N  N5588  1  0.144100  0.747900  0.205630  0.5
  N  N5589  1  0.644100  0.752100  0.705630  0.5
  N  N5590  1  0.355900  0.752100  0.794370  0.5
  N  N5591  1  0.144100  0.252100  0.705630  0.5
  N  N5592  1  0.855900  0.252100  0.794370  0.5
  N  N5593  1  0.343200  0.242300  0.268600  0.5
  N  N5594  1  0.656800  0.242300  0.231400  0.5
  N  N5595  1  0.843200  0.742300  0.268600  0.5
  N  N5596  1  0.156800  0.742300  0.231400  0.5
  N  N5597  1  0.656800  0.757700  0.731400  0.5
  N  N5598  1  0.343200  0.757700  0.768600  0.5
  N  N5599  1  0.156800  0.257700  0.731400  0.5
  N  N5600  1  0.843200  0.257700  0.768600  0.5
  N  N5601  1  0.491500  0.415800  0.269000  0.5
  N  N5602  1  0.508500  0.415800  0.231000  0.5
  N  N5603  1  0.991500  0.915800  0.269000  0.5
  N  N5604  1  0.008500  0.915800  0.231000  0.5
  N  N5605  1  0.508500  0.584200  0.731000  0.5
  N  N5606  1  0.491500  0.584200  0.769000  0.5
  N  N5607  1  0.008500  0.084200  0.731000  0.5
  N  N5608  1  0.991500  0.084200  0.769000  0.5
  N  N5609  1  0.473500  0.415600  0.243860  0.5
  N  N5610  1  0.526500  0.415600  0.256140  0.5
  N  N5611  1  0.973500  0.915600  0.243860  0.5
  N  N5612  1  0.026500  0.915600  0.256140  0.5
  N  N5613  1  0.526500  0.584400  0.756140  0.5
  N  N5614  1  0.473500  0.584400  0.743860  0.5
  N  N5615  1  0.026500  0.084400  0.756140  0.5
  N  N5616  1  0.973500  0.084400  0.743860  0.5
  N  N5617  1  0.475300  0.126800  0.265000  0.5
  N  N5618  1  0.524700  0.126800  0.235000  0.5
  N  N5619  1  0.975300  0.626800  0.265000  0.5
  N  N5620  1  0.024700  0.626800  0.235000  0.5
  N  N5621  1  0.524700  0.873200  0.735000  0.5
  N  N5622  1  0.475300  0.873200  0.765000  0.5
  N  N5623  1  0.024700  0.373200  0.735000  0.5
  N  N5624  1  0.975300  0.373200  0.765000  0.5
  N  N5625  1  0.469200  0.127000  0.237200  0.5
  N  N5626  1  0.530800  0.127000  0.262800  0.5
  N  N5627  1  0.969200  0.627000  0.237200  0.5
  N  N5628  1  0.030800  0.627000  0.262800  0.5
  N  N5629  1  0.530800  0.873000  0.762800  0.5
  N  N5630  1  0.469200  0.873000  0.737200  0.5
  N  N5631  1  0.030800  0.373000  0.762800  0.5
  N  N5632  1  0.969200  0.373000  0.737200  0.5
  N  N5633  1  0.587500  0.516500  0.225800  0.5
  N  N5634  1  0.412500  0.516500  0.274200  0.5
  N  N5635  1  0.087500  0.016500  0.225800  0.5
  N  N5636  1  0.912500  0.016500  0.274200  0.5
  N  N5637  1  0.412500  0.483500  0.774200  0.5
  N  N5638  1  0.587500  0.483500  0.725800  0.5
  N  N5639  1  0.912500  0.983500  0.774200  0.5
  N  N5640  1  0.087500  0.983500  0.725800  0.5
  N  N5641  1  0.581200  0.256000  0.440100  0.54
  N  N5642  1  0.418800  0.256000  0.059900  0.54
  N  N5643  1  0.081200  0.756000  0.440100  0.54
  N  N5644  1  0.918800  0.756000  0.059900  0.54
  N  N5645  1  0.418800  0.744000  0.559900  0.54
  N  N5646  1  0.581200  0.744000  0.940100  0.54
  N  N5647  1  0.918800  0.244000  0.559900  0.54
  N  N5648  1  0.081200  0.244000  0.940100  0.54
  O  O5649  1  0.386600  0.923500  0.441500  1.0
  O  O5650  1  0.613400  0.923500  0.058500  1.0
  O  O5651  1  0.886600  0.423500  0.441500  1.0
  O  O5652  1  0.113400  0.423500  0.058500  1.0
  O  O5653  1  0.613400  0.076500  0.558500  1.0
  O  O5654  1  0.386600  0.076500  0.941500  1.0
  O  O5655  1  0.113400  0.576500  0.558500  1.0
  O  O5656  1  0.886600  0.576500  0.941500  1.0
  O  O5657  1  0.869500  0.321300  0.239300  1.0
  O  O5658  1  0.130500  0.321300  0.260700  1.0
  O  O5659  1  0.369500  0.821300  0.239300  1.0
  O  O5660  1  0.630500  0.821300  0.260700  1.0
  O  O5661  1  0.130500  0.678700  0.760700  1.0
  O  O5662  1  0.869500  0.678700  0.739300  1.0
  O  O5663  1  0.630500  0.178700  0.760700  1.0
  O  O5664  1  0.369500  0.178700  0.739300  1.0
  O  O5665  1  0.592100  0.904200  0.294400  1.0
  O  O5666  1  0.407900  0.904200  0.205600  1.0
  O  O5667  1  0.092100  0.404200  0.294400  1.0
  O  O5668  1  0.907900  0.404200  0.205600  1.0
  O  O5669  1  0.407900  0.095800  0.705600  1.0
  O  O5670  1  0.592100  0.095800  0.794400  1.0
  O  O5671  1  0.907900  0.595800  0.705600  1.0
  O  O5672  1  0.092100  0.595800  0.794400  1.0
  O  O5673  1  0.267100  0.459400  0.469800  1.0
  O  O5674  1  0.732900  0.459400  0.030200  1.0
  O  O5675  1  0.767100  0.959400  0.469800  1.0
  O  O5676  1  0.232900  0.959400  0.030200  1.0
  O  O5677  1  0.732900  0.540600  0.530200  1.0
  O  O5678  1  0.267100  0.540600  0.969800  1.0
  O  O5679  1  0.232900  0.040600  0.530200  1.0
  O  O5680  1  0.767100  0.040600  0.969800  1.0
  O  O5681  1  0.874600  0.056600  0.355800  1.0
  O  O5682  1  0.125400  0.056600  0.144200  1.0
  O  O5683  1  0.374600  0.556600  0.355800  1.0
  O  O5684  1  0.625400  0.556600  0.144200  1.0
  O  O5685  1  0.125400  0.943400  0.644200  1.0
  O  O5686  1  0.874600  0.943400  0.855800  1.0
  O  O5687  1  0.625400  0.443400  0.644200  1.0
  O  O5688  1  0.374600  0.443400  0.855800  1.0
  O  O5689  1  0.472100  0.625100  0.317600  1.0
  O  O5690  1  0.527900  0.625100  0.182400  1.0
  O  O5691  1  0.972100  0.125100  0.317600  1.0
  O  O5692  1  0.027900  0.125100  0.182400  1.0
  O  O5693  1  0.527900  0.374900  0.682400  1.0
  O  O5694  1  0.472100  0.374900  0.817600  1.0
  O  O5695  1  0.027900  0.874900  0.682400  1.0
  O  O5696  1  0.972100  0.874900  0.817600  1.0
  O  O5697  1  0.184000  0.197500  0.373300  1.0
  O  O5698  1  0.816000  0.197500  0.126700  1.0
  O  O5699  1  0.684000  0.697500  0.373300  1.0
  O  O5700  1  0.316000  0.697500  0.126700  1.0
  O  O5701  1  0.816000  0.802500  0.626700  1.0
  O  O5702  1  0.184000  0.802500  0.873300  1.0
  O  O5703  1  0.316000  0.302500  0.626700  1.0
  O  O5704  1  0.684000  0.302500  0.873300  1.0
  O  O5705  1  0.413300  0.339000  0.537700  1.0
  O  O5706  1  0.586700  0.339000  0.962300  1.0
  O  O5707  1  0.913300  0.839000  0.537700  1.0
  O  O5708  1  0.086700  0.839000  0.962300  1.0
  O  O5709  1  0.586700  0.661000  0.462300  1.0
  O  O5710  1  0.413300  0.661000  0.037700  1.0
  O  O5711  1  0.086700  0.161000  0.462300  1.0
  O  O5712  1  0.913300  0.161000  0.037700  1.0
  O  O5713  1  0.174800  0.171700  0.044800  1.0
  O  O5714  1  0.825200  0.171700  0.455200  1.0
  O  O5715  1  0.674800  0.671700  0.044800  1.0
  O  O5716  1  0.325200  0.671700  0.455200  1.0
  O  O5717  1  0.825200  0.828300  0.955200  1.0
  O  O5718  1  0.174800  0.828300  0.544800  1.0
  O  O5719  1  0.325200  0.328300  0.955200  1.0
  O  O5720  1  0.674800  0.328300  0.544800  1.0
  O  O5721  1  0.734500  0.479900  0.461900  1.0
  O  O5722  1  0.265500  0.479900  0.038100  1.0
  O  O5723  1  0.234500  0.979900  0.461900  1.0
  O  O5724  1  0.765500  0.979900  0.038100  1.0
  O  O5725  1  0.265500  0.520100  0.538100  1.0
  O  O5726  1  0.734500  0.520100  0.961900  1.0
  O  O5727  1  0.765500  0.020100  0.538100  1.0
  O  O5728  1  0.234500  0.020100  0.961900  1.0
  O  O5729  1  0.513600  0.045400  0.512510  1.0
  O  O5730  1  0.486400  0.045400  0.987490  1.0
  O  O5731  1  0.013600  0.545400  0.512510  1.0
  O  O5732  1  0.986400  0.545400  0.987490  1.0
  O  O5733  1  0.486400  0.954600  0.487490  1.0
  O  O5734  1  0.513600  0.954600  0.012510  1.0
  O  O5735  1  0.986400  0.454600  0.487490  1.0
  O  O5736  1  0.013600  0.454600  0.012510  1.0
  O  O5737  1  0.765000  0.583800  0.365400  0.543
  O  O5738  1  0.235000  0.583800  0.134600  0.543
  O  O5739  1  0.265000  0.083800  0.365400  0.543
  O  O5740  1  0.735000  0.083800  0.134600  0.543
  O  O5741  1  0.235000  0.416200  0.634600  0.543
  O  O5742  1  0.765000  0.416200  0.865400  0.543
  O  O5743  1  0.735000  0.916200  0.634600  0.543
  O  O5744  1  0.265000  0.916200  0.865400  0.543
  O  O5745  1  0.770500  0.588500  0.350100  0.457
  O  O5746  1  0.229500  0.588500  0.149900  0.457
  O  O5747  1  0.270500  0.088500  0.350100  0.457
  O  O5748  1  0.729500  0.088500  0.149900  0.457
  O  O5749  1  0.229500  0.411500  0.649900  0.457
  O  O5750  1  0.770500  0.411500  0.850100  0.457
  O  O5751  1  0.729500  0.911500  0.649900  0.457
  O  O5752  1  0.270500  0.911500  0.850100  0.457
  F  F5753  1  0.654300  0.959500  0.443200  0.2
  F  F5754  1  0.345700  0.959500  0.056800  0.2
  F  F5755  1  0.154300  0.459500  0.443200  0.2
  F  F5756  1  0.845700  0.459500  0.056800  0.2
  F  F5757  1  0.345700  0.040500  0.556800  0.2
  F  F5758  1  0.654300  0.040500  0.943200  0.2
  F  F5759  1  0.845700  0.540500  0.556800  0.2
  F  F5760  1  0.154300  0.540500  0.943200  0.2
  F  F5761  1  0.615700  0.916200  0.447000  0.2
  F  F5762  1  0.384300  0.916200  0.053000  0.2
  F  F5763  1  0.115700  0.416200  0.447000  0.2
  F  F5764  1  0.884300  0.416200  0.053000  0.2
  F  F5765  1  0.384300  0.083800  0.553000  0.2
  F  F5766  1  0.615700  0.083800  0.947000  0.2
  F  F5767  1  0.884300  0.583800  0.553000  0.2
  F  F5768  1  0.115700  0.583800  0.947000  0.2
  F  F5769  1  0.610700  0.937400  0.489700  0.2
  F  F5770  1  0.389300  0.937400  0.010300  0.2
  F  F5771  1  0.110700  0.437400  0.489700  0.2
  F  F5772  1  0.889300  0.437400  0.010300  0.2
  F  F5773  1  0.389300  0.062600  0.510300  0.2
  F  F5774  1  0.610700  0.062600  0.989700  0.2
  F  F5775  1  0.889300  0.562600  0.510300  0.2
  F  F5776  1  0.110700  0.562600  0.989700  0.2
  F  F5777  1  0.663100  0.924700  0.474400  0.2
  F  F5778  1  0.336900  0.924700  0.025600  0.2
  F  F5779  1  0.163100  0.424700  0.474400  0.2
  F  F5780  1  0.836900  0.424700  0.025600  0.2
  F  F5781  1  0.336900  0.075300  0.525600  0.2
  F  F5782  1  0.663100  0.075300  0.974400  0.2
  F  F5783  1  0.836900  0.575300  0.525600  0.2
  F  F5784  1  0.163100  0.575300  0.974400  0.2
  F  F5785  1  0.651100  0.984800  0.480800  0.2
  F  F5786  1  0.348900  0.984800  0.019200  0.2
  F  F5787  1  0.151100  0.484800  0.480800  0.2
  F  F5788  1  0.848900  0.484800  0.019200  0.2
  F  F5789  1  0.348900  0.015200  0.519200  0.2
  F  F5790  1  0.651100  0.015200  0.980800  0.2
  F  F5791  1  0.848900  0.515200  0.519200  0.2
  F  F5792  1  0.151100  0.515200  0.980800  0.2
  F  F5793  1  0.599000  0.972100  0.453200  0.2
  F  F5794  1  0.401000  0.972100  0.046800  0.2
  F  F5795  1  0.099000  0.472100  0.453200  0.2
  F  F5796  1  0.901000  0.472100  0.046800  0.2
  F  F5797  1  0.401000  0.027900  0.546800  0.2
  F  F5798  1  0.599000  0.027900  0.953200  0.2
  F  F5799  1  0.901000  0.527900  0.546800  0.2
  F  F5800  1  0.099000  0.527900  0.953200  0.2
  F  F5801  1  0.579000  0.561900  0.498000  0.2
  F  F5802  1  0.421000  0.561900  0.002000  0.2
  F  F5803  1  0.079000  0.061900  0.498000  0.2
  F  F5804  1  0.921000  0.061900  0.002000  0.2
  F  F5805  1  0.421000  0.438100  0.502000  0.2
  F  F5806  1  0.579000  0.438100  0.998000  0.2
  F  F5807  1  0.921000  0.938100  0.502000  0.2
  F  F5808  1  0.079000  0.938100  0.998000  0.2
  F  F5809  1  0.600600  0.506200  0.487700  0.2
  F  F5810  1  0.399400  0.506200  0.012300  0.2
  F  F5811  1  0.100600  0.006200  0.487700  0.2
  F  F5812  1  0.899400  0.006200  0.012300  0.2
  F  F5813  1  0.399400  0.493800  0.512300  0.2
  F  F5814  1  0.600600  0.493800  0.987700  0.2
  F  F5815  1  0.899400  0.993800  0.512300  0.2
  F  F5816  1  0.100600  0.993800  0.987700  0.2
  F  F5817  1  0.595400  0.550700  0.455800  0.2
  F  F5818  1  0.404600  0.550700  0.044200  0.2
  F  F5819  1  0.095400  0.050700  0.455800  0.2
  F  F5820  1  0.904600  0.050700  0.044200  0.2
  F  F5821  1  0.404600  0.449300  0.544200  0.2
  F  F5822  1  0.595400  0.449300  0.955800  0.2
  F  F5823  1  0.904600  0.949300  0.544200  0.2
  F  F5824  1  0.095400  0.949300  0.955800  0.2
  F  F5825  1  0.557200  0.501900  0.451500  0.2
  F  F5826  1  0.442800  0.501900  0.048500  0.2
  F  F5827  1  0.057200  0.001900  0.451500  0.2
  F  F5828  1  0.942800  0.001900  0.048500  0.2
  F  F5829  1  0.442800  0.498100  0.548500  0.2
  F  F5830  1  0.557200  0.498100  0.951500  0.2
  F  F5831  1  0.942800  0.998100  0.548500  0.2
  F  F5832  1  0.057200  0.998100  0.951500  0.2
  F  F5833  1  0.533800  0.556600  0.462200  0.2
  F  F5834  1  0.466200  0.556600  0.037800  0.2
  F  F5835  1  0.033800  0.056600  0.462200  0.2
  F  F5836  1  0.966200  0.056600  0.037800  0.2
  F  F5837  1  0.466200  0.443400  0.537800  0.2
  F  F5838  1  0.533800  0.443400  0.962200  0.2
  F  F5839  1  0.966200  0.943400  0.537800  0.2
  F  F5840  1  0.033800  0.943400  0.962200  0.2
  F  F5841  1  0.540600  0.511700  0.493700  0.2
  F  F5842  1  0.459400  0.511700  0.006300  0.2
  F  F5843  1  0.040600  0.011700  0.493700  0.2
  F  F5844  1  0.959400  0.011700  0.006300  0.2
  F  F5845  1  0.459400  0.488300  0.506300  0.2
  F  F5846  1  0.540600  0.488300  0.993700  0.2
  F  F5847  1  0.959400  0.988300  0.506300  0.2
  F  F5848  1  0.040600  0.988300  0.993700  0.2
  F  F5849  1  0.636800  0.972800  0.466600  0.25
  F  F5850  1  0.363200  0.972800  0.033400  0.25
  F  F5851  1  0.136800  0.472800  0.466600  0.25
  F  F5852  1  0.863200  0.472800  0.033400  0.25
  F  F5853  1  0.363200  0.027200  0.533400  0.25
  F  F5854  1  0.636800  0.027200  0.966600  0.25
  F  F5855  1  0.863200  0.527200  0.533400  0.25
  F  F5856  1  0.136800  0.527200  0.966600  0.25
  F  F5857  1  0.635200  0.924100  0.443900  0.25
  F  F5858  1  0.364800  0.924100  0.056100  0.25
  F  F5859  1  0.135200  0.424100  0.443900  0.25
  F  F5860  1  0.864800  0.424100  0.056100  0.25
  F  F5861  1  0.364800  0.075900  0.556100  0.25
  F  F5862  1  0.635200  0.075900  0.943900  0.25
  F  F5863  1  0.864800  0.575900  0.556100  0.25
  F  F5864  1  0.135200  0.575900  0.943900  0.25
  F  F5865  1  0.594100  0.902000  0.472300  0.25
  F  F5866  1  0.405900  0.902000  0.027700  0.25
  F  F5867  1  0.094100  0.402000  0.472300  0.25
  F  F5868  1  0.905900  0.402000  0.027700  0.25
  F  F5869  1  0.405900  0.098000  0.527700  0.25
  F  F5870  1  0.594100  0.098000  0.972300  0.25
  F  F5871  1  0.905900  0.598000  0.527700  0.25
  F  F5872  1  0.094100  0.598000  0.972300  0.25
  F  F5873  1  0.647900  0.924800  0.486400  0.25
  F  F5874  1  0.352100  0.924800  0.013600  0.25
  F  F5875  1  0.147900  0.424800  0.486400  0.25
  F  F5876  1  0.852100  0.424800  0.013600  0.25
  F  F5877  1  0.352100  0.075200  0.513600  0.25
  F  F5878  1  0.647900  0.075200  0.986400  0.25
  F  F5879  1  0.852100  0.575200  0.513600  0.25
  F  F5880  1  0.147900  0.575200  0.986400  0.25
  F  F5881  1  0.599100  0.959900  0.494100  0.25
  F  F5882  1  0.400900  0.959900  0.005900  0.25
  F  F5883  1  0.099100  0.459900  0.494100  0.25
  F  F5884  1  0.900900  0.459900  0.005900  0.25
  F  F5885  1  0.400900  0.040100  0.505900  0.25
  F  F5886  1  0.599100  0.040100  0.994100  0.25
  F  F5887  1  0.900900  0.540100  0.505900  0.25
  F  F5888  1  0.099100  0.540100  0.994100  0.25
  F  F5889  1  0.583800  0.952600  0.448500  0.25
  F  F5890  1  0.416200  0.952600  0.051500  0.25
  F  F5891  1  0.083800  0.452600  0.448500  0.25
  F  F5892  1  0.916200  0.452600  0.051500  0.25
  F  F5893  1  0.416200  0.047400  0.551500  0.25
  F  F5894  1  0.583800  0.047400  0.948500  0.25
  F  F5895  1  0.916200  0.547400  0.551500  0.25
  F  F5896  1  0.083800  0.547400  0.948500  0.25
  F  F5897  1  0.847100  0.076300  0.219300  0.3
  F  F5898  1  0.152900  0.076300  0.280700  0.3
  F  F5899  1  0.347100  0.576300  0.219300  0.3
  F  F5900  1  0.652900  0.576300  0.280700  0.3
  F  F5901  1  0.152900  0.923700  0.780700  0.3
  F  F5902  1  0.847100  0.923700  0.719300  0.3
  F  F5903  1  0.652900  0.423700  0.780700  0.3
  F  F5904  1  0.347100  0.423700  0.719300  0.3
  F  F5905  1  0.881000  0.102600  0.246400  0.3
  F  F5906  1  0.119000  0.102600  0.253600  0.3
  F  F5907  1  0.381000  0.602600  0.246400  0.3
  F  F5908  1  0.619000  0.602600  0.253600  0.3
  F  F5909  1  0.119000  0.897400  0.753600  0.3
  F  F5910  1  0.881000  0.897400  0.746400  0.3
  F  F5911  1  0.619000  0.397400  0.753600  0.3
  F  F5912  1  0.381000  0.397400  0.746400  0.3
  F  F5913  1  0.856400  0.128800  0.205200  0.3
  F  F5914  1  0.143600  0.128800  0.294800  0.3
  F  F5915  1  0.356400  0.628800  0.205200  0.3
  F  F5916  1  0.643600  0.628800  0.294800  0.3
  F  F5917  1  0.143600  0.871200  0.794800  0.3
  F  F5918  1  0.856400  0.871200  0.705200  0.3
  F  F5919  1  0.643600  0.371200  0.794800  0.3
  F  F5920  1  0.356400  0.371200  0.705200  0.3
  F  F5921  1  0.842500  0.150400  0.245800  0.3
  F  F5922  1  0.157500  0.150400  0.254200  0.3
  F  F5923  1  0.342500  0.650400  0.245800  0.3
  F  F5924  1  0.657500  0.650400  0.254200  0.3
  F  F5925  1  0.157500  0.849600  0.754200  0.3
  F  F5926  1  0.842500  0.849600  0.745800  0.3
  F  F5927  1  0.657500  0.349600  0.754200  0.3
  F  F5928  1  0.342500  0.349600  0.745800  0.3
  F  F5929  1  0.800400  0.118600  0.218800  0.3
  F  F5930  1  0.199600  0.118600  0.281200  0.3
  F  F5931  1  0.300400  0.618600  0.218800  0.3
  F  F5932  1  0.699600  0.618600  0.281200  0.3
  F  F5933  1  0.199600  0.881400  0.781200  0.3
  F  F5934  1  0.800400  0.881400  0.718800  0.3
  F  F5935  1  0.699600  0.381400  0.781200  0.3
  F  F5936  1  0.300400  0.381400  0.718800  0.3
  F  F5937  1  0.827700  0.098700  0.257400  0.3
  F  F5938  1  0.172300  0.098700  0.242600  0.3
  F  F5939  1  0.327700  0.598700  0.257400  0.3
  F  F5940  1  0.672300  0.598700  0.242600  0.3
  F  F5941  1  0.172300  0.901300  0.742600  0.3
  F  F5942  1  0.827700  0.901300  0.757400  0.3
  F  F5943  1  0.672300  0.401300  0.742600  0.3
  F  F5944  1  0.327700  0.401300  0.757400  0.3
  F  F5945  1  0.825400  0.064900  0.221400  0.3
  F  F5946  1  0.174600  0.064900  0.278600  0.3
  F  F5947  1  0.325400  0.564900  0.221400  0.3
  F  F5948  1  0.674600  0.564900  0.278600  0.3
  F  F5949  1  0.174600  0.935100  0.778600  0.3
  F  F5950  1  0.825400  0.935100  0.721400  0.3
  F  F5951  1  0.674600  0.435100  0.778600  0.3
  F  F5952  1  0.325400  0.435100  0.721400  0.3
  F  F5953  1  0.859700  0.069600  0.255500  0.3
  F  F5954  1  0.140300  0.069600  0.244500  0.3
  F  F5955  1  0.359700  0.569600  0.255500  0.3
  F  F5956  1  0.640300  0.569600  0.244500  0.3
  F  F5957  1  0.140300  0.930400  0.744500  0.3
  F  F5958  1  0.859700  0.930400  0.755500  0.3
  F  F5959  1  0.640300  0.430400  0.744500  0.3
  F  F5960  1  0.359700  0.430400  0.755500  0.3
  F  F5961  1  0.862500  0.107300  0.218000  0.3
  F  F5962  1  0.137500  0.107300  0.282000  0.3
  F  F5963  1  0.362500  0.607300  0.218000  0.3
  F  F5964  1  0.637500  0.607300  0.282000  0.3
  F  F5965  1  0.137500  0.892700  0.782000  0.3
  F  F5966  1  0.862500  0.892700  0.718000  0.3
  F  F5967  1  0.637500  0.392700  0.782000  0.3
  F  F5968  1  0.362500  0.392700  0.718000  0.3
  F  F5969  1  0.847500  0.129200  0.258300  0.3
  F  F5970  1  0.152500  0.129200  0.241700  0.3
  F  F5971  1  0.347500  0.629200  0.258300  0.3
  F  F5972  1  0.652500  0.629200  0.241700  0.3
  F  F5973  1  0.152500  0.870800  0.741700  0.3
  F  F5974  1  0.847500  0.870800  0.758300  0.3
  F  F5975  1  0.652500  0.370800  0.741700  0.3
  F  F5976  1  0.347500  0.370800  0.758300  0.3
  F  F5977  1  0.804500  0.124400  0.223200  0.3
  F  F5978  1  0.195500  0.124400  0.276800  0.3
  F  F5979  1  0.304500  0.624400  0.223200  0.3
  F  F5980  1  0.695500  0.624400  0.276800  0.3
  F  F5981  1  0.195500  0.875600  0.776800  0.3
  F  F5982  1  0.804500  0.875600  0.723200  0.3
  F  F5983  1  0.695500  0.375600  0.776800  0.3
  F  F5984  1  0.304500  0.375600  0.723200  0.3
  F  F5985  1  0.808500  0.088600  0.259700  0.3
  F  F5986  1  0.191500  0.088600  0.240300  0.3
  F  F5987  1  0.308500  0.588600  0.259700  0.3
  F  F5988  1  0.691500  0.588600  0.240300  0.3
  F  F5989  1  0.191500  0.911400  0.740300  0.3
  F  F5990  1  0.808500  0.911400  0.759700  0.3
  F  F5991  1  0.691500  0.411400  0.740300  0.3
  F  F5992  1  0.308500  0.411400  0.759700  0.3
  F  F5993  1  0.601400  0.558600  0.498300  0.3
  F  F5994  1  0.398600  0.558600  0.001700  0.3
  F  F5995  1  0.101400  0.058600  0.498300  0.3
  F  F5996  1  0.898600  0.058600  0.001700  0.3
  F  F5997  1  0.398600  0.441400  0.501700  0.3
  F  F5998  1  0.601400  0.441400  0.998300  0.3
  F  F5999  1  0.898600  0.941400  0.501700  0.3
  F  F6000  1  0.101400  0.941400  0.998300  0.3
  F  F6001  1  0.621000  0.503700  0.484500  0.3
  F  F6002  1  0.379000  0.503700  0.015500  0.3
  F  F6003  1  0.121000  0.003700  0.484500  0.3
  F  F6004  1  0.879000  0.003700  0.015500  0.3
  F  F6005  1  0.379000  0.496300  0.515500  0.3
  F  F6006  1  0.621000  0.496300  0.984500  0.3
  F  F6007  1  0.879000  0.996300  0.515500  0.3
  F  F6008  1  0.121000  0.996300  0.984500  0.3
  F  F6009  1  0.611300  0.550100  0.454200  0.3
  F  F6010  1  0.388700  0.550100  0.045800  0.3
  F  F6011  1  0.111300  0.050100  0.454200  0.3
  F  F6012  1  0.888700  0.050100  0.045800  0.3
  F  F6013  1  0.388700  0.449900  0.545800  0.3
  F  F6014  1  0.611300  0.449900  0.954200  0.3
  F  F6015  1  0.888700  0.949900  0.545800  0.3
  F  F6016  1  0.111300  0.949900  0.954200  0.3
  F  F6017  1  0.573300  0.501100  0.451400  0.3
  F  F6018  1  0.426700  0.501100  0.048600  0.3
  F  F6019  1  0.073300  0.001100  0.451400  0.3
  F  F6020  1  0.926700  0.001100  0.048600  0.3
  F  F6021  1  0.426700  0.498900  0.548600  0.3
  F  F6022  1  0.573300  0.498900  0.951400  0.3
  F  F6023  1  0.926700  0.998900  0.548600  0.3
  F  F6024  1  0.073300  0.998900  0.951400  0.3
  F  F6025  1  0.551800  0.555200  0.465400  0.3
  F  F6026  1  0.448200  0.555200  0.034600  0.3
  F  F6027  1  0.051800  0.055200  0.465400  0.3
  F  F6028  1  0.948200  0.055200  0.034600  0.3
  F  F6029  1  0.448200  0.444800  0.534600  0.3
  F  F6030  1  0.551800  0.444800  0.965400  0.3
  F  F6031  1  0.948200  0.944800  0.534600  0.3
  F  F6032  1  0.051800  0.944800  0.965400  0.3
  F  F6033  1  0.562500  0.508800  0.495400  0.3
  F  F6034  1  0.437500  0.508800  0.004600  0.3
  F  F6035  1  0.062500  0.008800  0.495400  0.3
  F  F6036  1  0.937500  0.008800  0.004600  0.3
  F  F6037  1  0.437500  0.491200  0.504600  0.3
  F  F6038  1  0.562500  0.491200  0.995400  0.3
  F  F6039  1  0.937500  0.991200  0.504600  0.3
  F  F6040  1  0.062500  0.991200  0.995400  0.3
  F  F6041  1  0.475200  0.231600  0.419200  0.361
  F  F6042  1  0.524800  0.231600  0.080800  0.361
  F  F6043  1  0.975200  0.731600  0.419200  0.361
  F  F6044  1  0.024800  0.731600  0.080800  0.361
  F  F6045  1  0.524800  0.768400  0.580800  0.361
  F  F6046  1  0.475200  0.768400  0.919200  0.361
  F  F6047  1  0.024800  0.268400  0.580800  0.361
  F  F6048  1  0.975200  0.268400  0.919200  0.361
  F  F6049  1  0.450300  0.148800  0.401800  0.361
  F  F6050  1  0.549700  0.148800  0.098200  0.361
  F  F6051  1  0.950300  0.648800  0.401800  0.361
  F  F6052  1  0.049700  0.648800  0.098200  0.361
  F  F6053  1  0.549700  0.851200  0.598200  0.361
  F  F6054  1  0.450300  0.851200  0.901800  0.361
  F  F6055  1  0.049700  0.351200  0.598200  0.361
  F  F6056  1  0.950300  0.351200  0.901800  0.361
  F  F6057  1  0.419500  0.202400  0.407500  0.361
  F  F6058  1  0.580500  0.202400  0.092500  0.361
  F  F6059  1  0.919500  0.702400  0.407500  0.361
  F  F6060  1  0.080500  0.702400  0.092500  0.361
  F  F6061  1  0.580500  0.797600  0.592500  0.361
  F  F6062  1  0.419500  0.797600  0.907500  0.361
  F  F6063  1  0.080500  0.297600  0.592500  0.361
  F  F6064  1  0.919500  0.297600  0.907500  0.361
  F  F6065  1  0.464600  0.203100  0.377500  0.361
  F  F6066  1  0.535400  0.203100  0.122500  0.361
  F  F6067  1  0.964600  0.703100  0.377500  0.361
  F  F6068  1  0.035400  0.703100  0.122500  0.361
  F  F6069  1  0.535400  0.796900  0.622500  0.361
  F  F6070  1  0.464600  0.796900  0.877500  0.361
  F  F6071  1  0.035400  0.296900  0.622500  0.361
  F  F6072  1  0.964600  0.296900  0.877500  0.361
  F  F6073  1  0.464800  0.179300  0.440900  0.361
  F  F6074  1  0.535200  0.179300  0.059100  0.361
  F  F6075  1  0.964800  0.679300  0.440900  0.361
  F  F6076  1  0.035200  0.679300  0.059100  0.361
  F  F6077  1  0.535200  0.820700  0.559100  0.361
  F  F6078  1  0.464800  0.820700  0.940900  0.361
  F  F6079  1  0.035200  0.320700  0.559100  0.361
  F  F6080  1  0.964800  0.320700  0.940900  0.361
  F  F6081  1  0.504500  0.180300  0.409300  0.361
  F  F6082  1  0.495500  0.180300  0.090700  0.361
  F  F6083  1  0.004500  0.680300  0.409300  0.361
  F  F6084  1  0.995500  0.680300  0.090700  0.361
  F  F6085  1  0.495500  0.819700  0.590700  0.361
  F  F6086  1  0.504500  0.819700  0.909300  0.361
  F  F6087  1  0.995500  0.319700  0.590700  0.361
  F  F6088  1  0.004500  0.319700  0.909300  0.361
  F  F6089  1  0.361600  0.319300  0.155500  0.41
  F  F6090  1  0.638400  0.319300  0.344500  0.41
  F  F6091  1  0.861600  0.819300  0.155500  0.41
  F  F6092  1  0.138400  0.819300  0.344500  0.41
  F  F6093  1  0.638400  0.680700  0.844500  0.41
  F  F6094  1  0.361600  0.680700  0.655500  0.41
  F  F6095  1  0.138400  0.180700  0.844500  0.41
  F  F6096  1  0.861600  0.180700  0.655500  0.41
  F  F6097  1  0.298700  0.320000  0.149100  0.41
  F  F6098  1  0.701300  0.320000  0.350900  0.41
  F  F6099  1  0.798700  0.820000  0.149100  0.41
  F  F6100  1  0.201300  0.820000  0.350900  0.41
  F  F6101  1  0.701300  0.680000  0.850900  0.41
  F  F6102  1  0.298700  0.680000  0.649100  0.41
  F  F6103  1  0.201300  0.180000  0.850900  0.41
  F  F6104  1  0.798700  0.180000  0.649100  0.41
  F  F6105  1  0.331100  0.370500  0.141500  0.41
  F  F6106  1  0.668900  0.370500  0.358500  0.41
  F  F6107  1  0.831100  0.870500  0.141500  0.41
  F  F6108  1  0.168900  0.870500  0.358500  0.41
  F  F6109  1  0.668900  0.629500  0.858500  0.41
  F  F6110  1  0.331100  0.629500  0.641500  0.41
  F  F6111  1  0.168900  0.129500  0.858500  0.41
  F  F6112  1  0.831100  0.129500  0.641500  0.41
  F  F6113  1  0.301800  0.339600  0.106200  0.41
  F  F6114  1  0.698200  0.339600  0.393800  0.41
  F  F6115  1  0.801800  0.839600  0.106200  0.41
  F  F6116  1  0.198200  0.839600  0.393800  0.41
  F  F6117  1  0.698200  0.660400  0.893800  0.41
  F  F6118  1  0.301800  0.660400  0.606200  0.41
  F  F6119  1  0.198200  0.160400  0.893800  0.41
  F  F6120  1  0.801800  0.160400  0.606200  0.41
  F  F6121  1  0.363700  0.338700  0.113300  0.41
  F  F6122  1  0.636300  0.338700  0.386700  0.41
  F  F6123  1  0.863700  0.838700  0.113300  0.41
  F  F6124  1  0.136300  0.838700  0.386700  0.41
  F  F6125  1  0.636300  0.661300  0.886700  0.41
  F  F6126  1  0.363700  0.661300  0.613300  0.41
  F  F6127  1  0.136300  0.161300  0.886700  0.41
  F  F6128  1  0.863700  0.161300  0.613300  0.41
  F  F6129  1  0.331200  0.288100  0.120800  0.41
  F  F6130  1  0.668800  0.288100  0.379200  0.41
  F  F6131  1  0.831200  0.788100  0.120800  0.41
  F  F6132  1  0.168800  0.788100  0.379200  0.41
  F  F6133  1  0.668800  0.711900  0.879200  0.41
  F  F6134  1  0.331200  0.711900  0.620800  0.41
  F  F6135  1  0.168800  0.211900  0.879200  0.41
  F  F6136  1  0.831200  0.211900  0.620800  0.41
  F  F6137  1  0.372400  0.108100  0.121600  0.458
  F  F6138  1  0.627600  0.108100  0.378400  0.458
  F  F6139  1  0.872400  0.608100  0.121600  0.458
  F  F6140  1  0.127600  0.608100  0.378400  0.458
  F  F6141  1  0.627600  0.891900  0.878400  0.458
  F  F6142  1  0.372400  0.891900  0.621600  0.458
  F  F6143  1  0.127600  0.391900  0.878400  0.458
  F  F6144  1  0.872400  0.391900  0.621600  0.458
  F  F6145  1  0.400600  0.154300  0.101200  0.458
  F  F6146  1  0.599400  0.154300  0.398800  0.458
  F  F6147  1  0.900600  0.654300  0.101200  0.458
  F  F6148  1  0.099400  0.654300  0.398800  0.458
  F  F6149  1  0.599400  0.845700  0.898800  0.458
  F  F6150  1  0.400600  0.845700  0.601200  0.458
  F  F6151  1  0.099400  0.345700  0.898800  0.458
  F  F6152  1  0.900600  0.345700  0.601200  0.458
  F  F6153  1  0.342700  0.143700  0.085800  0.458
  F  F6154  1  0.657300  0.143700  0.414200  0.458
  F  F6155  1  0.842700  0.643700  0.085800  0.458
  F  F6156  1  0.157300  0.643700  0.414200  0.458
  F  F6157  1  0.657300  0.856300  0.914200  0.458
  F  F6158  1  0.342700  0.856300  0.585800  0.458
  F  F6159  1  0.157300  0.356300  0.914200  0.458
  F  F6160  1  0.842700  0.356300  0.585800  0.458
  F  F6161  1  0.356800  0.192500  0.113500  0.458
  F  F6162  1  0.643200  0.192500  0.386500  0.458
  F  F6163  1  0.856800  0.692500  0.113500  0.458
  F  F6164  1  0.143200  0.692500  0.386500  0.458
  F  F6165  1  0.643200  0.807500  0.886500  0.458
  F  F6166  1  0.356800  0.807500  0.613500  0.458
  F  F6167  1  0.143200  0.307500  0.886500  0.458
  F  F6168  1  0.856800  0.307500  0.613500  0.458
  F  F6169  1  0.325900  0.144700  0.129500  0.458
  F  F6170  1  0.674100  0.144700  0.370500  0.458
  F  F6171  1  0.825900  0.644700  0.129500  0.458
  F  F6172  1  0.174100  0.644700  0.370500  0.458
  F  F6173  1  0.674100  0.855300  0.870500  0.458
  F  F6174  1  0.325900  0.855300  0.629500  0.458
  F  F6175  1  0.174100  0.355300  0.870500  0.458
  F  F6176  1  0.825900  0.355300  0.629500  0.458
  F  F6177  1  0.384500  0.156800  0.144600  0.458
  F  F6178  1  0.615500  0.156800  0.355400  0.458
  F  F6179  1  0.884500  0.656800  0.144600  0.458
  F  F6180  1  0.115500  0.656800  0.355400  0.458
  F  F6181  1  0.615500  0.843200  0.855400  0.458
  F  F6182  1  0.384500  0.843200  0.644600  0.458
  F  F6183  1  0.115500  0.343200  0.855400  0.458
  F  F6184  1  0.884500  0.343200  0.644600  0.458
  F  F6185  1  0.460400  0.375900  0.410300  0.495
  F  F6186  1  0.539600  0.375900  0.089700  0.495
  F  F6187  1  0.960400  0.875900  0.410300  0.495
  F  F6188  1  0.039600  0.875900  0.089700  0.495
  F  F6189  1  0.539600  0.624100  0.589700  0.495
  F  F6190  1  0.460400  0.624100  0.910300  0.495
  F  F6191  1  0.039600  0.124100  0.589700  0.495
  F  F6192  1  0.960400  0.124100  0.910300  0.495
  F  F6193  1  0.547800  0.375100  0.405700  0.495
  F  F6194  1  0.452200  0.375100  0.094300  0.495
  F  F6195  1  0.047800  0.875100  0.405700  0.495
  F  F6196  1  0.952200  0.875100  0.094300  0.495
  F  F6197  1  0.452200  0.624900  0.594300  0.495
  F  F6198  1  0.547800  0.624900  0.905700  0.495
  F  F6199  1  0.952200  0.124900  0.594300  0.495
  F  F6200  1  0.047800  0.124900  0.905700  0.495
  F  F6201  1  0.509000  0.360700  0.438400  0.495
  F  F6202  1  0.491000  0.360700  0.061600  0.495
  F  F6203  1  0.009000  0.860700  0.438400  0.495
  F  F6204  1  0.991000  0.860700  0.061600  0.495
  F  F6205  1  0.491000  0.639300  0.561600  0.495
  F  F6206  1  0.509000  0.639300  0.938400  0.495
  F  F6207  1  0.991000  0.139300  0.561600  0.495
  F  F6208  1  0.009000  0.139300  0.938400  0.495
  F  F6209  1  0.501800  0.335900  0.394200  0.495
  F  F6210  1  0.498200  0.335900  0.105800  0.495
  F  F6211  1  0.001800  0.835900  0.394200  0.495
  F  F6212  1  0.998200  0.835900  0.105800  0.495
  F  F6213  1  0.498200  0.664100  0.605800  0.495
  F  F6214  1  0.501800  0.664100  0.894200  0.495
  F  F6215  1  0.998200  0.164100  0.605800  0.495
  F  F6216  1  0.001800  0.164100  0.894200  0.495
  F  F6217  1  0.499500  0.392000  0.375900  0.495
  F  F6218  1  0.500500  0.392000  0.124100  0.495
  F  F6219  1  0.999500  0.892000  0.375900  0.495
  F  F6220  1  0.000500  0.892000  0.124100  0.495
  F  F6221  1  0.500500  0.608000  0.624100  0.495
  F  F6222  1  0.499500  0.608000  0.875900  0.495
  F  F6223  1  0.000500  0.108000  0.624100  0.495
  F  F6224  1  0.999500  0.108000  0.875900  0.495
  F  F6225  1  0.509300  0.416800  0.417700  0.495
  F  F6226  1  0.490700  0.416800  0.082300  0.495
  F  F6227  1  0.009300  0.916800  0.417700  0.495
  F  F6228  1  0.990700  0.916800  0.082300  0.495
  F  F6229  1  0.490700  0.583200  0.582300  0.495
  F  F6230  1  0.509300  0.583200  0.917700  0.495
  F  F6231  1  0.990700  0.083200  0.582300  0.495
  F  F6232  1  0.009300  0.083200  0.917700  0.495
  F  F6233  1  0.521100  0.275400  0.225300  0.5
  F  F6234  1  0.478900  0.275400  0.274700  0.5
  F  F6235  1  0.021100  0.775400  0.225300  0.5
  F  F6236  1  0.978900  0.775400  0.274700  0.5
  F  F6237  1  0.478900  0.724600  0.774700  0.5
  F  F6238  1  0.521100  0.724600  0.725300  0.5
  F  F6239  1  0.978900  0.224600  0.774700  0.5
  F  F6240  1  0.021100  0.224600  0.725300  0.5
  F  F6241  1  0.510100  0.297100  0.266300  0.5
  F  F6242  1  0.489900  0.297100  0.233700  0.5
  F  F6243  1  0.010100  0.797100  0.266300  0.5
  F  F6244  1  0.989900  0.797100  0.233700  0.5
  F  F6245  1  0.489900  0.702900  0.733700  0.5
  F  F6246  1  0.510100  0.702900  0.766300  0.5
  F  F6247  1  0.989900  0.202900  0.733700  0.5
  F  F6248  1  0.010100  0.202900  0.766300  0.5
  F  F6249  1  0.493500  0.222400  0.234800  0.5
  F  F6250  1  0.506500  0.222400  0.265200  0.5
  F  F6251  1  0.993500  0.722400  0.234800  0.5
  F  F6252  1  0.006500  0.722400  0.265200  0.5
  F  F6253  1  0.506500  0.777600  0.765200  0.5
  F  F6254  1  0.493500  0.777600  0.734800  0.5
  F  F6255  1  0.006500  0.277600  0.765200  0.5
  F  F6256  1  0.993500  0.277600  0.734800  0.5
  F  F6257  1  0.541100  0.245600  0.264300  0.5
  F  F6258  1  0.458900  0.245600  0.235700  0.5
  F  F6259  1  0.041100  0.745600  0.264300  0.5
  F  F6260  1  0.958900  0.745600  0.235700  0.5
  F  F6261  1  0.458900  0.754400  0.735700  0.5
  F  F6262  1  0.541100  0.754400  0.764300  0.5
  F  F6263  1  0.958900  0.254400  0.735700  0.5
  F  F6264  1  0.041100  0.254400  0.764300  0.5
  F  F6265  1  0.464200  0.275300  0.237500  0.5
  F  F6266  1  0.535800  0.275300  0.262500  0.5
  F  F6267  1  0.964200  0.775300  0.237500  0.5
  F  F6268  1  0.035800  0.775300  0.262500  0.5
  F  F6269  1  0.535800  0.724700  0.762500  0.5
  F  F6270  1  0.464200  0.724700  0.737500  0.5
  F  F6271  1  0.035800  0.224700  0.762500  0.5
  F  F6272  1  0.964200  0.224700  0.737500  0.5
  F  F6273  1  0.482900  0.244200  0.276100  0.5
  F  F6274  1  0.517100  0.244200  0.223900  0.5
  F  F6275  1  0.982900  0.744200  0.276100  0.5
  F  F6276  1  0.017100  0.744200  0.223900  0.5
  F  F6277  1  0.517100  0.755800  0.723900  0.5
  F  F6278  1  0.482900  0.755800  0.776100  0.5
  F  F6279  1  0.017100  0.255800  0.723900  0.5
  F  F6280  1  0.982900  0.255800  0.776100  0.5
  F  F6281  1  0.227600  0.286800  0.487800  0.5
  F  F6282  1  0.772400  0.286800  0.012200  0.5
  F  F6283  1  0.727600  0.786800  0.487800  0.5
  F  F6284  1  0.272400  0.786800  0.012200  0.5
  F  F6285  1  0.772400  0.713200  0.512200  0.5
  F  F6286  1  0.227600  0.713200  0.987800  0.5
  F  F6287  1  0.272400  0.213200  0.512200  0.5
  F  F6288  1  0.727600  0.213200  0.987800  0.5
  F  F6289  1  0.183700  0.250900  0.496200  0.5
  F  F6290  1  0.816300  0.250900  0.003800  0.5
  F  F6291  1  0.683700  0.750900  0.496200  0.5
  F  F6292  1  0.316300  0.750900  0.003800  0.5
  F  F6293  1  0.816300  0.749100  0.503800  0.5
  F  F6294  1  0.183700  0.749100  0.996200  0.5
  F  F6295  1  0.316300  0.249100  0.503800  0.5
  F  F6296  1  0.683700  0.249100  0.996200  0.5
  F  F6297  1  0.146900  0.275900  0.462300  0.5
  F  F6298  1  0.853100  0.275900  0.037700  0.5
  F  F6299  1  0.646900  0.775900  0.462300  0.5
  F  F6300  1  0.353100  0.775900  0.037700  0.5
  F  F6301  1  0.853100  0.724100  0.537700  0.5
  F  F6302  1  0.146900  0.724100  0.962300  0.5
  F  F6303  1  0.353100  0.224100  0.537700  0.5
  F  F6304  1  0.646900  0.224100  0.962300  0.5
  F  F6305  1  0.174500  0.310200  0.494500  0.5
  F  F6306  1  0.825500  0.310200  0.005500  0.5
  F  F6307  1  0.674500  0.810200  0.494500  0.5
  F  F6308  1  0.325500  0.810200  0.005500  0.5
  F  F6309  1  0.825500  0.689800  0.505500  0.5
  F  F6310  1  0.174500  0.689800  0.994500  0.5
  F  F6311  1  0.325500  0.189800  0.505500  0.5
  F  F6312  1  0.674500  0.189800  0.994500  0.5
  F  F6313  1  0.194500  0.256400  0.456100  0.5
  F  F6314  1  0.805500  0.256400  0.043900  0.5
  F  F6315  1  0.694500  0.756400  0.456100  0.5
  F  F6316  1  0.305500  0.756400  0.043900  0.5
  F  F6317  1  0.805500  0.743600  0.543900  0.5
  F  F6318  1  0.194500  0.743600  0.956100  0.5
  F  F6319  1  0.305500  0.243600  0.543900  0.5
  F  F6320  1  0.694500  0.243600  0.956100  0.5
  F  F6321  1  0.188900  0.312200  0.452500  0.5
  F  F6322  1  0.811100  0.312200  0.047500  0.5
  F  F6323  1  0.688900  0.812200  0.452500  0.5
  F  F6324  1  0.311100  0.812200  0.047500  0.5
  F  F6325  1  0.811100  0.687800  0.547500  0.5
  F  F6326  1  0.188900  0.687800  0.952500  0.5
  F  F6327  1  0.311100  0.187800  0.547500  0.5
  F  F6328  1  0.688900  0.187800  0.952500  0.5
  F  F6329  1  0.458300  0.371400  0.397600  0.505
  F  F6330  1  0.541700  0.371400  0.102400  0.505
  F  F6331  1  0.958300  0.871400  0.397600  0.505
  F  F6332  1  0.041700  0.871400  0.102400  0.505
  F  F6333  1  0.541700  0.628600  0.602400  0.505
  F  F6334  1  0.458300  0.628600  0.897600  0.505
  F  F6335  1  0.041700  0.128600  0.602400  0.505
  F  F6336  1  0.958300  0.128600  0.897600  0.505
  F  F6337  1  0.546300  0.362900  0.409600  0.505
  F  F6338  1  0.453700  0.362900  0.090400  0.505
  F  F6339  1  0.046300  0.862900  0.409600  0.505
  F  F6340  1  0.953700  0.862900  0.090400  0.505
  F  F6341  1  0.453700  0.637100  0.590400  0.505
  F  F6342  1  0.546300  0.637100  0.909600  0.505
  F  F6343  1  0.953700  0.137100  0.590400  0.505
  F  F6344  1  0.046300  0.137100  0.909600  0.505
  F  F6345  1  0.496700  0.328500  0.418700  0.505
  F  F6346  1  0.503300  0.328500  0.081300  0.505
  F  F6347  1  0.996700  0.828500  0.418700  0.505
  F  F6348  1  0.003300  0.828500  0.081300  0.505
  F  F6349  1  0.503300  0.671500  0.581300  0.505
  F  F6350  1  0.496700  0.671500  0.918700  0.505
  F  F6351  1  0.003300  0.171500  0.581300  0.505
  F  F6352  1  0.996700  0.171500  0.918700  0.505
  F  F6353  1  0.502600  0.350900  0.376200  0.505
  F  F6354  1  0.497400  0.350900  0.123800  0.505
  F  F6355  1  0.002600  0.850900  0.376200  0.505
  F  F6356  1  0.997400  0.850900  0.123800  0.505
  F  F6357  1  0.497400  0.649100  0.623800  0.505
  F  F6358  1  0.502600  0.649100  0.876200  0.505
  F  F6359  1  0.997400  0.149100  0.623800  0.505
  F  F6360  1  0.002600  0.149100  0.876200  0.505
  F  F6361  1  0.507500  0.408800  0.393400  0.505
  F  F6362  1  0.492500  0.408800  0.106600  0.505
  F  F6363  1  0.007500  0.908800  0.393400  0.505
  F  F6364  1  0.992500  0.908800  0.106600  0.505
  F  F6365  1  0.492500  0.591200  0.606600  0.505
  F  F6366  1  0.507500  0.591200  0.893400  0.505
  F  F6367  1  0.992500  0.091200  0.606600  0.505
  F  F6368  1  0.007500  0.091200  0.893400  0.505
  F  F6369  1  0.504900  0.386000  0.436300  0.505
  F  F6370  1  0.495100  0.386000  0.063700  0.505
  F  F6371  1  0.004900  0.886000  0.436300  0.505
  F  F6372  1  0.995100  0.886000  0.063700  0.505
  F  F6373  1  0.495100  0.614000  0.563700  0.505
  F  F6374  1  0.504900  0.614000  0.936300  0.505
  F  F6375  1  0.995100  0.114000  0.563700  0.505
  F  F6376  1  0.004900  0.114000  0.936300  0.505
  F  F6377  1  0.389500  0.118200  0.142800  0.542
  F  F6378  1  0.610500  0.118200  0.357200  0.542
  F  F6379  1  0.889500  0.618200  0.142800  0.542
  F  F6380  1  0.110500  0.618200  0.357200  0.542
  F  F6381  1  0.610500  0.881800  0.857200  0.542
  F  F6382  1  0.389500  0.881800  0.642800  0.542
  F  F6383  1  0.110500  0.381800  0.857200  0.542
  F  F6384  1  0.889500  0.381800  0.642800  0.542
  F  F6385  1  0.399700  0.143200  0.102400  0.542
  F  F6386  1  0.600300  0.143200  0.397600  0.542
  F  F6387  1  0.899700  0.643200  0.102400  0.542
  F  F6388  1  0.100300  0.643200  0.397600  0.542
  F  F6389  1  0.600300  0.856800  0.897600  0.542
  F  F6390  1  0.399700  0.856800  0.602400  0.542
  F  F6391  1  0.100300  0.356800  0.897600  0.542
  F  F6392  1  0.899700  0.356800  0.602400  0.542
  F  F6393  1  0.347700  0.114300  0.105700  0.542
  F  F6394  1  0.652300  0.114300  0.394300  0.542
  F  F6395  1  0.847700  0.614300  0.105700  0.542
  F  F6396  1  0.152300  0.614300  0.394300  0.542
  F  F6397  1  0.652300  0.885700  0.894300  0.542
  F  F6398  1  0.347700  0.885700  0.605700  0.542
  F  F6399  1  0.152300  0.385700  0.894300  0.542
  F  F6400  1  0.847700  0.385700  0.605700  0.542
  F  F6401  1  0.347300  0.175900  0.102500  0.542
  F  F6402  1  0.652700  0.175900  0.397500  0.542
  F  F6403  1  0.847300  0.675900  0.102500  0.542
  F  F6404  1  0.152700  0.675900  0.397500  0.542
  F  F6405  1  0.652700  0.824100  0.897500  0.542
  F  F6406  1  0.347300  0.824100  0.602500  0.542
  F  F6407  1  0.152700  0.324100  0.897500  0.542
  F  F6408  1  0.847300  0.324100  0.602500  0.542
  F  F6409  1  0.336900  0.150600  0.142700  0.542
  F  F6410  1  0.663100  0.150600  0.357300  0.542
  F  F6411  1  0.836900  0.650600  0.142700  0.542
  F  F6412  1  0.163100  0.650600  0.357300  0.542
  F  F6413  1  0.663100  0.849400  0.857300  0.542
  F  F6414  1  0.336900  0.849400  0.642700  0.542
  F  F6415  1  0.163100  0.349400  0.857300  0.542
  F  F6416  1  0.836900  0.349400  0.642700  0.542
  F  F6417  1  0.391100  0.178700  0.138700  0.542
  F  F6418  1  0.608900  0.178700  0.361300  0.542
  F  F6419  1  0.891100  0.678700  0.138700  0.542
  F  F6420  1  0.108900  0.678700  0.361300  0.542
  F  F6421  1  0.608900  0.821300  0.861300  0.542
  F  F6422  1  0.391100  0.821300  0.638700  0.542
  F  F6423  1  0.108900  0.321300  0.861300  0.542
  F  F6424  1  0.891100  0.321300  0.638700  0.542
  F  F6425  1  0.364400  0.310500  0.144600  0.59
  F  F6426  1  0.635600  0.310500  0.355400  0.59
  F  F6427  1  0.864400  0.810500  0.144600  0.59
  F  F6428  1  0.135600  0.810500  0.355400  0.59
  F  F6429  1  0.635600  0.689500  0.855400  0.59
  F  F6430  1  0.364400  0.689500  0.644600  0.59
  F  F6431  1  0.135600  0.189500  0.855400  0.59
  F  F6432  1  0.864400  0.189500  0.644600  0.59
  F  F6433  1  0.313400  0.315500  0.165900  0.59
  F  F6434  1  0.686600  0.315500  0.334100  0.59
  F  F6435  1  0.813400  0.815500  0.165900  0.59
  F  F6436  1  0.186600  0.815500  0.334100  0.59
  F  F6437  1  0.686600  0.684500  0.834100  0.59
  F  F6438  1  0.313400  0.684500  0.665900  0.59
  F  F6439  1  0.186600  0.184500  0.834100  0.59
  F  F6440  1  0.813400  0.184500  0.665900  0.59
  F  F6441  1  0.339300  0.365400  0.151800  0.59
  F  F6442  1  0.660700  0.365400  0.348200  0.59
  F  F6443  1  0.839300  0.865400  0.151800  0.59
  F  F6444  1  0.160700  0.865400  0.348200  0.59
  F  F6445  1  0.660700  0.634600  0.848200  0.59
  F  F6446  1  0.339300  0.634600  0.651800  0.59
  F  F6447  1  0.160700  0.134600  0.848200  0.59
  F  F6448  1  0.839300  0.134600  0.651800  0.59
  F  F6449  1  0.285400  0.342700  0.128000  0.59
  F  F6450  1  0.714600  0.342700  0.372000  0.59
  F  F6451  1  0.785400  0.842700  0.128000  0.59
  F  F6452  1  0.214600  0.842700  0.372000  0.59
  F  F6453  1  0.714600  0.657300  0.872000  0.59
  F  F6454  1  0.285400  0.657300  0.628000  0.59
  F  F6455  1  0.214600  0.157300  0.872000  0.59
  F  F6456  1  0.785400  0.157300  0.628000  0.59
  F  F6457  1  0.336900  0.341200  0.108900  0.59
  F  F6458  1  0.663100  0.341200  0.391100  0.59
  F  F6459  1  0.836900  0.841200  0.108900  0.59
  F  F6460  1  0.163100  0.841200  0.391100  0.59
  F  F6461  1  0.663100  0.658800  0.891100  0.59
  F  F6462  1  0.336900  0.658800  0.608900  0.59
  F  F6463  1  0.163100  0.158800  0.891100  0.59
  F  F6464  1  0.836900  0.158800  0.608900  0.59
  F  F6465  1  0.312600  0.289300  0.122000  0.59
  F  F6466  1  0.687400  0.289300  0.378000  0.59
  F  F6467  1  0.812600  0.789300  0.122000  0.59
  F  F6468  1  0.187400  0.789300  0.378000  0.59
  F  F6469  1  0.687400  0.710700  0.878000  0.59
  F  F6470  1  0.312600  0.710700  0.622000  0.59
  F  F6471  1  0.187400  0.210700  0.878000  0.59
  F  F6472  1  0.812600  0.210700  0.622000  0.59
  F  F6473  1  0.455100  0.230700  0.423500  0.639
  F  F6474  1  0.544900  0.230700  0.076500  0.639
  F  F6475  1  0.955100  0.730700  0.423500  0.639
  F  F6476  1  0.044900  0.730700  0.076500  0.639
  F  F6477  1  0.544900  0.769300  0.576500  0.639
  F  F6478  1  0.455100  0.769300  0.923500  0.639
  F  F6479  1  0.044900  0.269300  0.576500  0.639
  F  F6480  1  0.955100  0.269300  0.923500  0.639
  F  F6481  1  0.455300  0.152900  0.392500  0.639
  F  F6482  1  0.544700  0.152900  0.107500  0.639
  F  F6483  1  0.955300  0.652900  0.392500  0.639
  F  F6484  1  0.044700  0.652900  0.107500  0.639
  F  F6485  1  0.544700  0.847100  0.607500  0.639
  F  F6486  1  0.455300  0.847100  0.892500  0.639
  F  F6487  1  0.044700  0.347100  0.607500  0.639
  F  F6488  1  0.955300  0.347100  0.892500  0.639
  F  F6489  1  0.422400  0.176700  0.427200  0.639
  F  F6490  1  0.577600  0.176700  0.072800  0.639
  F  F6491  1  0.922400  0.676700  0.427200  0.639
  F  F6492  1  0.077600  0.676700  0.072800  0.639
  F  F6493  1  0.577600  0.823300  0.572800  0.639
  F  F6494  1  0.422400  0.823300  0.927200  0.639
  F  F6495  1  0.077600  0.323300  0.572800  0.639
  F  F6496  1  0.922400  0.323300  0.927200  0.639
  F  F6497  1  0.422000  0.205800  0.386040  0.639
  F  F6498  1  0.578000  0.205800  0.113960  0.639
  F  F6499  1  0.922000  0.705800  0.386040  0.639
  F  F6500  1  0.078000  0.705800  0.113960  0.639
  F  F6501  1  0.578000  0.794200  0.613960  0.639
  F  F6502  1  0.422000  0.794200  0.886040  0.639
  F  F6503  1  0.078000  0.294200  0.613960  0.639
  F  F6504  1  0.922000  0.294200  0.886040  0.639
  F  F6505  1  0.485400  0.176400  0.431700  0.639
  F  F6506  1  0.514600  0.176400  0.068300  0.639
  F  F6507  1  0.985400  0.676400  0.431700  0.639
  F  F6508  1  0.014600  0.676400  0.068300  0.639
  F  F6509  1  0.514600  0.823600  0.568300  0.639
  F  F6510  1  0.485400  0.823600  0.931700  0.639
  F  F6511  1  0.014600  0.323600  0.568300  0.639
  F  F6512  1  0.985400  0.323600  0.931700  0.639
  F  F6513  1  0.485000  0.206800  0.391000  0.639
  F  F6514  1  0.515000  0.206800  0.109000  0.639
  F  F6515  1  0.985000  0.706800  0.391000  0.639
  F  F6516  1  0.015000  0.706800  0.109000  0.639
  F  F6517  1  0.515000  0.793200  0.609000  0.639
  F  F6518  1  0.485000  0.793200  0.891000  0.639
  F  F6519  1  0.015000  0.293200  0.609000  0.639
  F  F6520  1  0.985000  0.293200  0.891000  0.639
