
#######################################################################
#
#                 Cambridge Crystallographic Data Centre
#                                CCDC 
#
#######################################################################
#
# If this CIF has been generated from an entry in the Cambridge 
# Structural Database, then it will include bibliographic, chemical, 
# crystal, experimental, refinement or atomic coordinate data resulting 
# from the CCDC's data processing and validation procedures.
#
#######################################################################

data_PIHVUZ
_chemical_formula_moiety         
'C184 H152 N32 O32 Ti4 Zn4,4(C3 H7 N1 O1),4(C1 H4 O1)'
_chemical_name_systematic        
'octakis(\m~2~-3-((3-((3-(Pyridin-2-yl)-1H-pyrazol-1-yl)methyl)phenyl)carbamoyl)benzene-1,2-diolato)-octakis(methanolato)-tetra-titanium(iv)-tetra-zinc(ii) N,N-dimethylformamide methanol unknown solvate'
_symmetry_cell_setting           monoclinic
_symmetry_space_group_name_H-M   'C 2/c'
_symmetry_Int_Tables_number      15
_space_group_name_Hall           '-C 2yn'
loop_
_symmetry_equiv_pos_site_id
_symmetry_equiv_pos_as_xyz
1 x,y,z
2 -x,y,1/2-z
3 1/2+x,1/2+y,z
4 1/2-x,1/2+y,1/2-z
5 -x,-y,-z
6 x,-y,1/2+z
7 1/2-x,1/2-y,-z
8 1/2+x,1/2-y,1/2+z
_cell_length_a                   45.96(3)
_cell_length_b                   14.997(8)
_cell_length_c                   34.57(2)
_cell_angle_alpha                90
_cell_angle_beta                 119.729(8)
_cell_angle_gamma                90
_cell_volume                     20691.6
_exptl_crystal_colour            yellow
_exptl_crystal_description       blade
_cell_formula_units_Z            4
_chemical_properties_physical    air-sensitive
loop_
_atom_site_label
_atom_site_type_symbol
_atom_site_fract_x
_atom_site_fract_y
_atom_site_fract_z
Zn1 Zn 0.03644(2) 0.73127(7) 0.46396(3)
Zn2 Zn 0.19289(3) 0.57223(7) 0.31506(3)
Ti1 Ti 0.06954(4) 0.54021(11) 0.47394(6)
Ti2 Ti -0.19448(3) 0.75550(10) 0.23140(5)
N1 N 0.00766(12) 0.7660(4) 0.49465(18)
C1 C -0.02373(12) 0.7262(4) 0.47614(16)
C2 C -0.04219(11) 0.7313(4) 0.49799(19)
H1 H -0.0632 0.7046 0.4856
C3 C -0.02927(13) 0.7762(4) 0.53835(19)
H2 H -0.0416 0.7797 0.5530
C4 C 0.00212(14) 0.8161(4) 0.55686(16)
H3 H 0.0108 0.8461 0.5839
C5 C 0.02059(11) 0.8109(4) 0.53501(19)
H4 H 0.0416 0.8376 0.5474
N2 N -0.02870(14) 0.6204(5) 0.37925(18)
N3 N -0.01354(11) 0.6773(4) 0.41705(19)
C6 C -0.03446(14) 0.6791(5) 0.43648(18)
C7 C -0.06254(13) 0.6235(5) 0.4107(2)
H5 H -0.0802 0.6126 0.4160
C8 C -0.05898(13) 0.5872(4) 0.3753(2)
H6 H -0.0739 0.5484 0.3534
C9 C -0.0162(3) 0.6071(9) 0.3496(4)
H7 H -0.0266 0.5547 0.3316
H8 H 0.0078 0.5964 0.3667
C10 C -0.02270(18) 0.6863(5) 0.3195(3)
C11 C -0.05380(14) 0.7279(6) 0.2977(3)
H9 H -0.0718 0.7038 0.2992
C12 C -0.05794(14) 0.8056(6) 0.2736(3)
C13 C -0.03099(18) 0.8417(5) 0.2713(3)
H10 H -0.0338 0.8937 0.2551
C14 C 0.00011(15) 0.8001(6) 0.2930(3)
H11 H 0.0181 0.8242 0.2915
C15 C 0.00425(14) 0.7223(6) 0.3172(3)
H12 H 0.0251 0.6945 0.3317
N4 N -0.0900(2) 0.8502(7) 0.2532(3)
H13 H -0.1066 0.8165 0.2483
C16 C -0.0982(3) 0.9348(9) 0.2406(4)
O1 O -0.07684(19) 0.9890(6) 0.2433(3)
C17 C -0.13454(11) 0.9626(4) 0.2233(2)
C18 C -0.15859(14) 0.9044(3) 0.2218(2)
C19 C -0.19131(12) 0.9335(4) 0.2057(2)
C20 C -0.19997(11) 1.0209(4) 0.1911(2)
H14 H -0.2219 1.0404 0.1804
C21 C -0.17591(15) 1.0792(3) 0.1926(2)
H15 H -0.1817 1.1377 0.1828
C22 C -0.14319(14) 1.0500(4) 0.2087(2)
H16 H -0.1271 1.0890 0.2097
O2 O -0.15340(13) 0.8167(4) 0.23617(19)
O3 O -0.21250(13) 0.8732(4) 0.20753(18)
O4 O 0.05279(14) 0.6136(4) 0.5042(2)
C23 C 0.0403(2) 0.5811(7) 0.5322(3)
H17 H 0.0510 0.5254 0.5452
H18 H 0.0166 0.5725 0.5148
H19 H 0.0452 0.6236 0.5554
N5 N 0.08508(10) 0.7945(4) 0.50785(18)
C24 C 0.09127(11) 0.8717(4) 0.49090(18)
C25 C 0.12360(13) 0.9058(3) 0.5100(2)
H20 H 0.1277 0.9575 0.4987
C26 C 0.14975(10) 0.8626(4) 0.5461(2)
H21 H 0.1714 0.8854 0.5589
C27 C 0.14356(11) 0.7853(4) 0.56303(18)
H22 H 0.1611 0.7565 0.5872
C28 C 0.11123(13) 0.7513(3) 0.54392(19)
H23 H 0.1071 0.6996 0.5553
N6 N 0.00810(10) 0.9185(4) 0.40119(18)
N7 N 0.03264(12) 0.8641(3) 0.43549(19)
C29 C 0.06354(10) 0.9110(4) 0.45535(19)
C30 C 0.05809(12) 0.9944(4) 0.4333(2)
H24 H 0.0742 1.0383 0.4397
C31 C 0.02383(13) 0.9990(3) 0.3999(2)
H25 H 0.0135 1.0464 0.3805
C32 C -0.0255(2) 0.8945(7) 0.3773(3)
H26 H -0.0267 0.8323 0.3689
H27 H -0.0360 0.9292 0.3501
C33 C -0.04625(11) 0.9064(4) 0.40102(18)
C34 C -0.07782(12) 0.8674(4) 0.38162(15)
H28 H -0.0856 0.8342 0.3556
C35 C -0.09781(10) 0.8782(4) 0.40104(17)
C36 C -0.08622(11) 0.9279(4) 0.43987(17)
H29 H -0.0996 0.9350 0.4529
C37 C -0.05464(12) 0.9668(4) 0.45928(15)
H30 H -0.0469 1.0001 0.4853
C38 C -0.03465(10) 0.9561(4) 0.43986(18)
H31 H -0.0135 0.9822 0.4528
N8 N -0.13042(16) 0.8379(5) 0.3786(2)
H32 H -0.1362 0.8152 0.3530
C39 C -0.1537(2) 0.8304(6) 0.3924(3)
O5 O -0.14891(14) 0.8558(5) 0.4288(2)
C40 C -0.18771(9) 0.7874(4) 0.35737(14)
C41 C -0.19551(10) 0.7703(4) 0.31375(16)
C42 C -0.22726(12) 0.7398(4) 0.28295(12)
C43 C -0.25121(9) 0.7263(4) 0.29576(14)
H33 H -0.2725 0.7059 0.2752
C44 C -0.24341(10) 0.7435(4) 0.33938(16)
H34 H -0.2594 0.7345 0.3480
C45 C -0.21166(12) 0.7740(4) 0.37019(12)
H35 H -0.2064 0.7854 0.3994
O6 O -0.17472(13) 0.7826(4) 0.29671(17)
O7 O -0.23303(13) 0.7271(4) 0.23992(18)
O8 O 0.05973(14) 0.6504(4) 0.4379(2)
C46 C 0.0800(2) 0.6877(6) 0.4213(3)
H36 H 0.0996 0.7144 0.4454
H37 H 0.0674 0.7323 0.3994
H38 H 0.0865 0.6415 0.4080
N9 N 0.16249(12) 0.4528(3) 0.29158(19)
C47 C 0.13162(14) 0.4569(3) 0.2898(2)
C48 C 0.10941(12) 0.3858(4) 0.2724(2)
H39 H 0.0888 0.3886 0.2712
C49 C 0.11806(14) 0.3105(3) 0.2569(2)
H40 H 0.1032 0.2629 0.2454
C50 C 0.14893(16) 0.3064(3) 0.2588(2)
H41 H 0.1547 0.2560 0.2484
C51 C 0.17114(12) 0.3775(4) 0.2761(2)
H42 H 0.1918 0.3747 0.2773
N10 N 0.13647(12) 0.6773(3) 0.33436(18)
N11 N 0.15022(10) 0.6018(3) 0.32441(18)
C52 C 0.12478(14) 0.5358(3) 0.3050(2)
C53 C 0.09532(11) 0.5706(4) 0.3030(2)
H43 H 0.0749 0.5413 0.2918
C54 C 0.10255(12) 0.6581(3) 0.3211(2)
H44 H 0.0877 0.6961 0.3238
C55 C 0.1548(2) 0.7564(6) 0.3536(3)
H45 H 0.1394 0.8066 0.3429
H46 H 0.1709 0.7647 0.3436
C56 C 0.17342(13) 0.7569(4) 0.40484(13)
C57 C 0.16388(12) 0.7030(3) 0.42934(16)
H47 H 0.1460 0.6636 0.4148
C58 C 0.18101(13) 0.7079(3) 0.47558(16)
C59 C 0.20769(13) 0.7667(4) 0.49731(13)
H48 H 0.2191 0.7700 0.5282
C60 C 0.21722(12) 0.8207(4) 0.47280(17)
H49 H 0.2351 0.8600 0.4873
C61 C 0.20009(14) 0.8157(4) 0.42657(17)
H50 H 0.2065 0.8518 0.4102
N12 N 0.17147(17) 0.6500(5) 0.5005(2)
H51 H 0.1503 0.6425 0.4901
C62 C 0.1922(2) 0.6059(6) 0.5386(3)
O9 O 0.22348(14) 0.6130(4) 0.5573(2)
C63 C 0.17518(12) 0.5476(4) 0.55799(18)
C64 C 0.14080(11) 0.5328(4) 0.53547(15)
C65 C 0.12681(9) 0.4742(4) 0.55290(18)
C66 C 0.14720(12) 0.4304(4) 0.59285(19)
H52 H 0.1378 0.3913 0.6045
C67 C 0.18158(12) 0.4453(4) 0.61536(16)
H53 H 0.1952 0.4160 0.6421
C68 C 0.19557(9) 0.5038(4) 0.59793(18)
H54 H 0.2186 0.5137 0.6130
O10 O 0.11786(13) 0.5744(4) 0.49730(19)
O11 O 0.09265(13) 0.4607(4) 0.5267(2)
O12 O 0.21515(13) 0.7009(4) 0.32694(18)
C69 C 0.2447(2) 0.7305(6) 0.3678(3)
H55 H 0.2644 0.7042 0.3697
H56 H 0.2428 0.7123 0.3931
H57 H 0.2463 0.7942 0.3676
N13 N 0.23121(11) 0.5237(4) 0.30085(18)
C70 C 0.26206(14) 0.5072(4) 0.33841(14)
C71 C 0.29004(11) 0.4908(4) 0.33401(16)
H58 H 0.3107 0.4797 0.3591
C72 C 0.28717(12) 0.4908(4) 0.29204(19)
H59 H 0.3059 0.4798 0.2891
C73 C 0.25631(15) 0.5073(4) 0.25448(15)
H60 H 0.2544 0.5073 0.2264
C74 C 0.22833(11) 0.5237(4) 0.25888(15)
H61 H 0.2077 0.5348 0.2337
N14 N 0.23757(12) 0.5123(4) 0.42267(17)
N15 N 0.23214(11) 0.5239(4) 0.37881(14)
C75 C 0.26218(14) 0.5008(4) 0.37902(16)
C76 C 0.28617(11) 0.4749(4) 0.42301(19)
H62 H 0.3080 0.4565 0.4325
C77 C 0.27096(13) 0.4820(4) 0.44998(14)
H63 H 0.2811 0.4690 0.4802
C78 C 0.2107(2) 0.5141(6) 0.4314(3)
H64 H 0.1979 0.5682 0.4188
H65 H 0.2197 0.5161 0.4634
C79 C 0.18756(13) 0.4341(3) 0.4124(2)
C80 C 0.15574(14) 0.4406(3) 0.4076(2)
H66 H 0.1494 0.4924 0.4162
C81 C 0.13347(11) 0.3697(4) 0.3898(2)
C82 C 0.14302(13) 0.2923(3) 0.3769(2)
H67 H 0.1281 0.2448 0.3651
C83 C 0.17483(15) 0.2858(3) 0.3818(2)
H68 H 0.1812 0.2340 0.3732
C84 C 0.19710(12) 0.3567(4) 0.3995(2)
H69 H 0.2184 0.3524 0.4028
N16 N 0.1019(2) 0.3792(5) 0.3874(3)
H70 H 0.1010 0.4180 0.4050
C85 C 0.0724(3) 0.3337(7) 0.3602(4)
O13 O 0.06952(19) 0.2812(5) 0.3297(3)
C86 C 0.04386(13) 0.3538(5) 0.3694(2)
C87 C 0.04684(12) 0.4116(4) 0.4026(2)
C88 C 0.01994(15) 0.4242(4) 0.4098(2)
C89 C -0.00995(13) 0.3788(5) 0.3838(2)
H71 H -0.0279 0.3872 0.3887
C90 C -0.01293(13) 0.3210(5) 0.3506(2)
H72 H -0.0329 0.2906 0.3333
C91 C 0.01397(16) 0.3084(4) 0.3434(2)
H73 H 0.0120 0.2697 0.3212
O14 O 0.07427(14) 0.4626(4) 0.4295(2)
O15 O 0.02626(15) 0.4798(4) 0.4443(2)
O16 O 0.16955(13) 0.6439(4) 0.25395(19)
C92 C 0.1378(2) 0.6213(7) 0.2151(3)
H74 H 0.1215 0.6095 0.2241
H75 H 0.1406 0.5693 0.2011
H76 H 0.1304 0.6702 0.1945
Zn1A Zn -0.03644(2) 0.73127(7) 0.03604(3)
Zn2A Zn -0.19289(3) 0.57223(7) 0.18494(3)
Ti1A Ti -0.06954(4) 0.54021(11) 0.02606(6)
Ti2A Ti 0.19448(3) 0.75550(10) 0.26860(5)
N1A N -0.00766(12) 0.7660(4) 0.00535(18)
C1A C 0.02373(12) 0.7262(4) 0.02386(16)
C2A C 0.04219(11) 0.7313(4) 0.00201(19)
H1A H 0.0632 0.7046 0.0144
C3A C 0.02927(13) 0.7762(4) -0.03835(19)
H2A H 0.0416 0.7797 -0.0530
C4A C -0.00212(14) 0.8161(4) -0.05686(16)
H3A H -0.0108 0.8461 -0.0839
C5A C -0.02059(11) 0.8109(4) -0.03501(19)
H4A H -0.0416 0.8376 -0.0474
N2A N 0.02870(14) 0.6204(5) 0.12075(18)
N3A N 0.01354(11) 0.6773(4) 0.08295(19)
C6A C 0.03446(14) 0.6791(5) 0.06352(18)
C7A C 0.06254(13) 0.6235(5) 0.0893(2)
H5A H 0.0802 0.6126 0.0840
C8A C 0.05898(13) 0.5872(4) 0.1247(2)
H6A H 0.0739 0.5484 0.1466
C9A C 0.0162(3) 0.6071(9) 0.1504(4)
H7A H 0.0266 0.5547 0.1684
H8A H -0.0078 0.5964 0.1333
C10A C 0.02270(18) 0.6863(5) 0.1805(3)
C11A C 0.05380(14) 0.7279(6) 0.2023(3)
H9A H 0.0718 0.7038 0.2008
C12A C 0.05794(14) 0.8056(6) 0.2264(3)
C13A C 0.03099(18) 0.8417(5) 0.2287(3)
H10A H 0.0338 0.8937 0.2449
C14A C -0.00011(15) 0.8001(6) 0.2070(3)
H11A H -0.0181 0.8242 0.2085
C15A C -0.00425(14) 0.7223(6) 0.1828(3)
H12A H -0.0251 0.6945 0.1683
N4A N 0.0900(2) 0.8502(7) 0.2468(3)
H13A H 0.1066 0.8165 0.2517
C16A C 0.0982(3) 0.9348(9) 0.2594(4)
O1A O 0.07684(19) 0.9890(6) 0.2567(3)
C17A C 0.13454(11) 0.9626(4) 0.2767(2)
C18A C 0.15859(14) 0.9044(3) 0.2782(2)
C19A C 0.19131(12) 0.9335(4) 0.2943(2)
C20A C 0.19997(11) 1.0209(4) 0.3089(2)
H14A H 0.2219 1.0404 0.3196
C21A C 0.17591(15) 1.0792(3) 0.3074(2)
H15A H 0.1817 1.1377 0.3172
C22A C 0.14319(14) 1.0500(4) 0.2913(2)
H16A H 0.1271 1.0890 0.2903
O2A O 0.15340(13) 0.8167(4) 0.26383(19)
O3A O 0.21250(13) 0.8732(4) 0.29247(18)
O4A O -0.05279(14) 0.6136(4) -0.0042(2)
C23A C -0.0403(2) 0.5811(7) -0.0322(3)
H17A H -0.0510 0.5254 -0.0452
H18A H -0.0166 0.5725 -0.0148
H19A H -0.0452 0.6236 -0.0554
N5A N -0.08508(10) 0.7945(4) -0.00785(18)
C24A C -0.09127(11) 0.8717(4) 0.00910(18)
C25A C -0.12360(13) 0.9058(3) -0.0100(2)
H20A H -0.1277 0.9575 0.0013
C26A C -0.14975(10) 0.8626(4) -0.0461(2)
H21A H -0.1714 0.8854 -0.0589
C27A C -0.14356(11) 0.7853(4) -0.06303(18)
H22A H -0.1611 0.7565 -0.0872
C28A C -0.11123(13) 0.7513(3) -0.04392(19)
H23A H -0.1071 0.6996 -0.0553
N6A N -0.00810(10) 0.9185(4) 0.09881(18)
N7A N -0.03264(12) 0.8641(3) 0.06451(19)
C29A C -0.06354(10) 0.9110(4) 0.04465(19)
C30A C -0.05809(12) 0.9944(4) 0.0667(2)
H24A H -0.0742 1.0383 0.0603
C31A C -0.02383(13) 0.9990(3) 0.1001(2)
H25A H -0.0135 1.0464 0.1195
C32A C 0.0255(2) 0.8945(7) 0.1227(3)
H26A H 0.0267 0.8323 0.1311
H27A H 0.0360 0.9292 0.1499
C33A C 0.04625(11) 0.9064(4) 0.09898(18)
C34A C 0.07782(12) 0.8674(4) 0.11838(15)
H28A H 0.0856 0.8342 0.1444
C35A C 0.09781(10) 0.8782(4) 0.09896(17)
C36A C 0.08622(11) 0.9279(4) 0.06013(17)
H29A H 0.0996 0.9350 0.0471
C37A C 0.05464(12) 0.9668(4) 0.04072(15)
H30A H 0.0469 1.0001 0.0147
C38A C 0.03465(10) 0.9561(4) 0.06014(18)
H31A H 0.0135 0.9822 0.0472
N8A N 0.13042(16) 0.8379(5) 0.1214(2)
H32A H 0.1362 0.8152 0.1470
C39A C 0.1537(2) 0.8304(6) 0.1076(3)
O5A O 0.14891(14) 0.8558(5) 0.0712(2)
C40A C 0.18771(9) 0.7874(4) 0.14263(14)
C41A C 0.19551(10) 0.7703(4) 0.18625(16)
C42A C 0.22726(12) 0.7398(4) 0.21705(12)
C43A C 0.25121(9) 0.7263(4) 0.20424(14)
H33A H 0.2725 0.7059 0.2248
C44A C 0.24341(10) 0.7435(4) 0.16062(16)
H34A H 0.2594 0.7345 0.1520
C45A C 0.21166(12) 0.7740(4) 0.12981(12)
H35A H 0.2064 0.7854 0.1006
O6A O 0.17472(13) 0.7826(4) 0.20329(17)
O7A O 0.23303(13) 0.7271(4) 0.26008(18)
O8A O -0.05973(14) 0.6504(4) 0.0621(2)
C46A C -0.0800(2) 0.6877(6) 0.0787(3)
H36A H -0.0996 0.7144 0.0546
H37A H -0.0674 0.7323 0.1006
H38A H -0.0865 0.6415 0.0920
N9A N -0.16249(12) 0.4528(3) 0.20842(19)
C47A C -0.13162(14) 0.4569(3) 0.2102(2)
C48A C -0.10941(12) 0.3858(4) 0.2276(2)
H39A H -0.0888 0.3886 0.2288
C49A C -0.11806(14) 0.3105(3) 0.2431(2)
H40A H -0.1032 0.2629 0.2546
C50A C -0.14893(16) 0.3064(3) 0.2412(2)
H41A H -0.1547 0.2560 0.2516
C51A C -0.17114(12) 0.3775(4) 0.2239(2)
H42A H -0.1918 0.3747 0.2227
N10A N -0.13647(12) 0.6773(3) 0.16564(18)
N11A N -0.15022(10) 0.6018(3) 0.17559(18)
C52A C -0.12478(14) 0.5358(3) 0.1950(2)
C53A C -0.09532(11) 0.5706(4) 0.1970(2)
H43A H -0.0749 0.5413 0.2082
C54A C -0.10255(12) 0.6581(3) 0.1789(2)
H44A H -0.0877 0.6961 0.1762
C55A C -0.1548(2) 0.7564(6) 0.1464(3)
H45A H -0.1394 0.8066 0.1571
H46A H -0.1709 0.7647 0.1564
C56A C -0.17342(13) 0.7569(4) 0.09516(13)
C57A C -0.16388(12) 0.7030(3) 0.07066(16)
H47A H -0.1460 0.6636 0.0852
C58A C -0.18101(13) 0.7079(3) 0.02442(16)
C59A C -0.20769(13) 0.7667(4) 0.00269(13)
H48A H -0.2191 0.7700 -0.0282
C60A C -0.21722(12) 0.8207(4) 0.02720(17)
H49A H -0.2351 0.8600 0.0127
C61A C -0.20009(14) 0.8157(4) 0.07343(17)
H50A H -0.2065 0.8518 0.0898
N12A N -0.17147(17) 0.6500(5) -0.0005(2)
H51A H -0.1503 0.6425 0.0099
C62A C -0.1922(2) 0.6059(6) -0.0386(3)
O9A O -0.22348(14) 0.6130(4) -0.0573(2)
C63A C -0.17518(12) 0.5476(4) -0.05799(18)
C64A C -0.14080(11) 0.5328(4) -0.03547(15)
C65A C -0.12681(9) 0.4742(4) -0.05290(18)
C66A C -0.14720(12) 0.4304(4) -0.09285(19)
H52A H -0.1378 0.3913 -0.1045
C67A C -0.18158(12) 0.4453(4) -0.11536(16)
H53A H -0.1952 0.4160 -0.1421
C68A C -0.19557(9) 0.5038(4) -0.09793(18)
H54A H -0.2186 0.5137 -0.1130
O10A O -0.11786(13) 0.5744(4) 0.00270(19)
O11A O -0.09265(13) 0.4607(4) -0.0267(2)
O12A O -0.21515(13) 0.7009(4) 0.17306(18)
C69A C -0.2447(2) 0.7305(6) 0.1322(3)
H55A H -0.2644 0.7042 0.1303
H56A H -0.2428 0.7123 0.1069
H57A H -0.2463 0.7942 0.1324
N13A N -0.23121(11) 0.5237(4) 0.19915(18)
C70A C -0.26206(14) 0.5072(4) 0.16159(14)
C71A C -0.29004(11) 0.4908(4) 0.16599(16)
H58A H -0.3107 0.4797 0.1409
C72A C -0.28717(12) 0.4908(4) 0.20796(19)
H59A H -0.3059 0.4798 0.2109
C73A C -0.25631(15) 0.5073(4) 0.24552(15)
H60A H -0.2544 0.5073 0.2736
C74A C -0.22833(11) 0.5237(4) 0.24112(15)
H61A H -0.2077 0.5348 0.2663
N14A N -0.23757(12) 0.5123(4) 0.07733(17)
N15A N -0.23214(11) 0.5239(4) 0.12119(14)
C75A C -0.26218(14) 0.5008(4) 0.12098(16)
C76A C -0.28617(11) 0.4749(4) 0.07699(19)
H62A H -0.3080 0.4565 0.0675
C77A C -0.27096(13) 0.4820(4) 0.05002(14)
H63A H -0.2811 0.4690 0.0198
C78A C -0.2107(2) 0.5141(6) 0.0686(3)
H64A H -0.1979 0.5682 0.0812
H65A H -0.2197 0.5161 0.0366
C79A C -0.18756(13) 0.4341(3) 0.0876(2)
C80A C -0.15574(14) 0.4406(3) 0.0924(2)
H66A H -0.1494 0.4924 0.0838
C81A C -0.13347(11) 0.3697(4) 0.1102(2)
C82A C -0.14302(13) 0.2923(3) 0.1231(2)
H67A H -0.1281 0.2448 0.1349
C83A C -0.17483(15) 0.2858(3) 0.1182(2)
H68A H -0.1812 0.2340 0.1268
C84A C -0.19710(12) 0.3567(4) 0.1005(2)
H69A H -0.2184 0.3524 0.0972
N16A N -0.1019(2) 0.3792(5) 0.1126(3)
H70A H -0.1010 0.4180 0.0950
C85A C -0.0724(3) 0.3337(7) 0.1398(4)
O13A O -0.06952(19) 0.2812(5) 0.1703(3)
C86A C -0.04386(13) 0.3538(5) 0.1306(2)
C87A C -0.04684(12) 0.4116(4) 0.0974(2)
C88A C -0.01994(15) 0.4242(4) 0.0902(2)
C89A C 0.00995(13) 0.3788(5) 0.1162(2)
H71A H 0.0279 0.3872 0.1113
C90A C 0.01293(13) 0.3210(5) 0.1494(2)
H72A H 0.0329 0.2906 0.1667
C91A C -0.01397(16) 0.3084(4) 0.1566(2)
H73A H -0.0120 0.2697 0.1788
O14A O -0.07427(14) 0.4626(4) 0.0705(2)
O15A O -0.02626(15) 0.4798(4) 0.0557(2)
O16A O -0.16955(13) 0.6439(4) 0.24605(19)
C92A C -0.1378(2) 0.6213(7) 0.2849(3)
H74A H -0.1215 0.6095 0.2759
H75A H -0.1406 0.5693 0.2989
H76A H -0.1304 0.6702 0.3055
C93 C 0.1575(5) 0.3301(11) 0.5065(6)
H77 H 0.1433 0.3408 0.5191
H78 H 0.1526 0.3730 0.4835
H79 H 0.1805 0.3356 0.5293
C94 C 0.1834(4) 0.2232(13) 0.4906(6)
H80 H 0.1828 0.1642 0.4794
H81 H 0.2010 0.2268 0.5211
H82 H 0.1874 0.2658 0.4731
N17 N 0.1516(3) 0.2423(9) 0.4881(5)
C95 C 0.1255(4) 0.1858(10) 0.4784(6)
H83 H 0.1059 0.2006 0.4786
O17 O 0.1324(3) 0.1106(9) 0.4692(5)
C96 C 0.1289(4) 0.9695(12) 0.3948(5)
H84 H 0.1311 0.9110 0.4071
H85 H 0.1367 1.0130 0.4182
H86 H 0.1422 0.9732 0.3803
C97 C 0.0834(5) 1.0746(10) 0.3540(6)
H87 H 0.0905 1.1017 0.3349
H88 H 0.0920 1.1082 0.3811
H89 H 0.0594 1.0740 0.3392
N18 N 0.0957(3) 0.9858(9) 0.3640(5)
C98 C 0.0734(4) 0.9187(8) 0.3447(6)
H90 H 0.0506 0.9303 0.3273
O18 O 0.0842(2) 0.8417(6) 0.3507(3)
O19 O 0.2442(3) 0.0305(7) 0.4611(3)
H91 H 0.2570 -0.0047 0.4590
C99 C 0.2392(4) 0.1035(10) 0.4338(5)
H92 H 0.2297 0.1516 0.4423
H93 H 0.2242 0.0874 0.4034
H94 H 0.2603 0.1220 0.4370
O20 O 0.1998(2) 0.2355(5) 0.1772(3)
H95 H 0.1906 0.2155 0.1904
C100 C 0.1989(3) 0.3301(6) 0.1776(4)
H96 H 0.1952 0.3497 0.2012
H97 H 0.1811 0.3512 0.1496
H98 H 0.2199 0.3534 0.1822
loop_
_geom_bond_atom_site_label_1
_geom_bond_atom_site_label_2
_geom_bond_site_symmetry_1
_geom_bond_site_symmetry_2
Zn1 Ti1 1_555 1_555
Zn2 N9 1_555 1_555
Ti1 O4 1_555 1_555
Ti2 O2 1_555 1_555
N1 Zn1 1_555 1_555
C1 N1 1_555 1_555
C2 C1 1_555 1_555
H1 C2 1_555 1_555
C3 C2 1_555 1_555
H2 C3 1_555 1_555
C4 C3 1_555 1_555
H3 C4 1_555 1_555
C5 N1 1_555 1_555
H4 C5 1_555 1_555
N2 N3 1_555 1_555
N3 Zn1 1_555 1_555
C6 C1 1_555 1_555
C7 C6 1_555 1_555
H5 C7 1_555 1_555
C8 N2 1_555 1_555
H6 C8 1_555 1_555
C9 N2 1_555 1_555
H7 C9 1_555 1_555
H8 C9 1_555 1_555
C10 C9 1_555 1_555
C11 C10 1_555 1_555
H9 C11 1_555 1_555
C12 C11 1_555 1_555
C13 C12 1_555 1_555
H10 C13 1_555 1_555
C14 C13 1_555 1_555
H11 C14 1_555 1_555
C15 C10 1_555 1_555
H12 C15 1_555 1_555
N4 C12 1_555 1_555
H13 N4 1_555 1_555
C16 N4 1_555 1_555
O1 C16 1_555 1_555
C17 C16 1_555 1_555
C18 C17 1_555 1_555
C19 C18 1_555 1_555
C20 C19 1_555 1_555
H14 C20 1_555 1_555
C21 C20 1_555 1_555
H15 C21 1_555 1_555
C22 C17 1_555 1_555
H16 C22 1_555 1_555
O2 C18 1_555 1_555
O3 Ti2 1_555 1_555
O4 Zn1 1_555 1_555
C23 O4 1_555 1_555
H17 C23 1_555 1_555
H18 C23 1_555 1_555
H19 C23 1_555 1_555
N5 Zn1 1_555 1_555
C24 N5 1_555 1_555
C25 C24 1_555 1_555
H20 C25 1_555 1_555
C26 C25 1_555 1_555
H21 C26 1_555 1_555
C27 C26 1_555 1_555
H22 C27 1_555 1_555
C28 N5 1_555 1_555
H23 C28 1_555 1_555
N6 N7 1_555 1_555
N7 Zn1 1_555 1_555
C29 C24 1_555 1_555
C30 C29 1_555 1_555
H24 C30 1_555 1_555
C31 N6 1_555 1_555
H25 C31 1_555 1_555
C32 N6 1_555 1_555
H26 C32 1_555 1_555
H27 C32 1_555 1_555
C33 C32 1_555 1_555
C34 C33 1_555 1_555
H28 C34 1_555 1_555
C35 C34 1_555 1_555
C36 C35 1_555 1_555
H29 C36 1_555 1_555
C37 C36 1_555 1_555
H30 C37 1_555 1_555
C38 C33 1_555 1_555
H31 C38 1_555 1_555
N8 C35 1_555 1_555
H32 N8 1_555 1_555
C39 N8 1_555 1_555
O5 C39 1_555 1_555
C40 C39 1_555 1_555
C41 C40 1_555 1_555
C42 C41 1_555 1_555
C43 C42 1_555 1_555
H33 C43 1_555 1_555
C44 C43 1_555 1_555
H34 C44 1_555 1_555
C45 C40 1_555 1_555
H35 C45 1_555 1_555
O6 Ti2 1_555 1_555
O7 Ti2 1_555 1_555
O8 Zn1 1_555 1_555
C46 O8 1_555 1_555
H36 C46 1_555 1_555
H37 C46 1_555 1_555
H38 C46 1_555 1_555
N9 C47 1_555 1_555
C47 C48 1_555 1_555
C48 H39 1_555 1_555
C49 C48 1_555 1_555
H40 C49 1_555 1_555
C50 C49 1_555 1_555
H41 C50 1_555 1_555
C51 N9 1_555 1_555
H42 C51 1_555 1_555
N10 N11 1_555 1_555
N11 Zn2 1_555 1_555
C52 C47 1_555 1_555
C53 C52 1_555 1_555
H43 C53 1_555 1_555
C54 N10 1_555 1_555
H44 C54 1_555 1_555
C55 N10 1_555 1_555
H45 C55 1_555 1_555
H46 C55 1_555 1_555
C56 C55 1_555 1_555
C57 C56 1_555 1_555
H47 C57 1_555 1_555
C58 C57 1_555 1_555
C59 C58 1_555 1_555
H48 C59 1_555 1_555
C60 C59 1_555 1_555
H49 C60 1_555 1_555
C61 C56 1_555 1_555
H50 C61 1_555 1_555
N12 C58 1_555 1_555
H51 N12 1_555 1_555
C62 N12 1_555 1_555
O9 C62 1_555 1_555
C63 C62 1_555 1_555
C64 C63 1_555 1_555
C65 C64 1_555 1_555
C66 C65 1_555 1_555
H52 C66 1_555 1_555
C67 C66 1_555 1_555
H53 C67 1_555 1_555
C68 C63 1_555 1_555
H54 C68 1_555 1_555
O10 Ti1 1_555 1_555
O11 Ti1 1_555 1_555
O12 Zn2 1_555 1_555
C69 O12 1_555 1_555
H55 C69 1_555 1_555
H56 C69 1_555 1_555
H57 C69 1_555 1_555
N13 Zn2 1_555 1_555
C70 N13 1_555 1_555
C71 C70 1_555 1_555
H58 C71 1_555 1_555
C72 C71 1_555 1_555
H59 C72 1_555 1_555
C73 C72 1_555 1_555
H60 C73 1_555 1_555
C74 N13 1_555 1_555
H61 C74 1_555 1_555
N14 N15 1_555 1_555
N15 Zn2 1_555 1_555
C75 C70 1_555 1_555
C76 C75 1_555 1_555
H62 C76 1_555 1_555
C77 N14 1_555 1_555
H63 C77 1_555 1_555
C78 N14 1_555 1_555
H64 C78 1_555 1_555
H65 C78 1_555 1_555
C79 C78 1_555 1_555
C80 C79 1_555 1_555
H66 C80 1_555 1_555
C81 C80 1_555 1_555
C82 C81 1_555 1_555
H67 C82 1_555 1_555
C83 C82 1_555 1_555
H68 C83 1_555 1_555
C84 C79 1_555 1_555
H69 C84 1_555 1_555
N16 C81 1_555 1_555
H70 N16 1_555 1_555
C85 N16 1_555 1_555
O13 C85 1_555 1_555
C86 C85 1_555 1_555
C87 C86 1_555 1_555
C88 C87 1_555 1_555
C89 C88 1_555 1_555
H71 C89 1_555 1_555
C90 C89 1_555 1_555
H72 C90 1_555 1_555
C91 C86 1_555 1_555
H73 C91 1_555 1_555
O14 Ti1 1_555 1_555
O15 Ti1 1_555 1_555
O16 Zn2 1_555 1_555
C92 O16 1_555 1_555
H74 C92 1_555 1_555
H75 C92 1_555 1_555
H76 C92 1_555 1_555
C93 H77 1_555 1_555
H78 C93 1_555 1_555
H79 C93 1_555 1_555
C94 H80 1_555 1_555
H81 C94 1_555 1_555
H82 C94 1_555 1_555
N17 C93 1_555 1_555
C95 N17 1_555 1_555
H83 C95 1_555 1_555
O17 C95 1_555 1_555
C96 H84 1_555 1_555
H85 C96 1_555 1_555
H86 C96 1_555 1_555
C97 H87 1_555 1_555
H88 C97 1_555 1_555
H89 C97 1_555 1_555
N18 C96 1_555 1_555
C98 N18 1_555 1_555
H90 C98 1_555 1_555
O18 C98 1_555 1_555
O19 H91 1_555 1_555
C99 O19 1_555 1_555
H92 C99 1_555 1_555
H93 C99 1_555 1_555
H94 C99 1_555 1_555
O20 H95 1_555 1_555
C100 O20 1_555 1_555
H96 C100 1_555 1_555
H97 C100 1_555 1_555
H98 C100 1_555 1_555
Zn1A Ti1A 1_555 1_555
Zn2A Ti2 1_555 1_555
Ti1A O4A 1_555 1_555
Ti2A Zn2 1_555 1_555
N1A Zn1A 1_555 1_555
C1A N1A 1_555 1_555
C2A C1A 1_555 1_555
H1A C2A 1_555 1_555
C3A C2A 1_555 1_555
H2A C3A 1_555 1_555
C4A C3A 1_555 1_555
H3A C4A 1_555 1_555
C5A N1A 1_555 1_555
H4A C5A 1_555 1_555
N2A N3A 1_555 1_555
N3A Zn1A 1_555 1_555
C6A C1A 1_555 1_555
C7A C6A 1_555 1_555
H5A C7A 1_555 1_555
C8A N2A 1_555 1_555
H6A C8A 1_555 1_555
C9A N2A 1_555 1_555
H7A C9A 1_555 1_555
H8A C9A 1_555 1_555
C10A C9A 1_555 1_555
C11A C10A 1_555 1_555
H9A C11A 1_555 1_555
C12A C11A 1_555 1_555
C13A C12A 1_555 1_555
H10A C13A 1_555 1_555
C14A C13A 1_555 1_555
H11A C14A 1_555 1_555
C15A C10A 1_555 1_555
H12A C15A 1_555 1_555
N4A C12A 1_555 1_555
H13A N4A 1_555 1_555
C16A N4A 1_555 1_555
O1A C16A 1_555 1_555
C17A C16A 1_555 1_555
C18A C17A 1_555 1_555
C19A C18A 1_555 1_555
C20A C19A 1_555 1_555
H14A C20A 1_555 1_555
C21A C20A 1_555 1_555
H15A C21A 1_555 1_555
C22A C17A 1_555 1_555
H16A C22A 1_555 1_555
O2A Ti2A 1_555 1_555
O3A Ti2A 1_555 1_555
O4A Zn1A 1_555 1_555
C23A O4A 1_555 1_555
H17A C23A 1_555 1_555
H18A C23A 1_555 1_555
H19A C23A 1_555 1_555
N5A Zn1A 1_555 1_555
C24A N5A 1_555 1_555
C25A C24A 1_555 1_555
H20A C25A 1_555 1_555
C26A C25A 1_555 1_555
H21A C26A 1_555 1_555
C27A C26A 1_555 1_555
H22A C27A 1_555 1_555
C28A N5A 1_555 1_555
H23A C28A 1_555 1_555
N6A N7A 1_555 1_555
N7A Zn1A 1_555 1_555
C29A C24A 1_555 1_555
C30A C29A 1_555 1_555
H24A C30A 1_555 1_555
C31A N6A 1_555 1_555
H25A C31A 1_555 1_555
C32A N6A 1_555 1_555
H26A C32A 1_555 1_555
H27A C32A 1_555 1_555
C33A C32A 1_555 1_555
C34A C33A 1_555 1_555
H28A C34A 1_555 1_555
C35A C34A 1_555 1_555
C36A C35A 1_555 1_555
H29A C36A 1_555 1_555
C37A C36A 1_555 1_555
H30A C37A 1_555 1_555
C38A C33A 1_555 1_555
H31A C38A 1_555 1_555
N8A C35A 1_555 1_555
H32A N8A 1_555 1_555
C39A N8A 1_555 1_555
O5A C39A 1_555 1_555
C40A C39A 1_555 1_555
C41A C40A 1_555 1_555
C42A C41A 1_555 1_555
C43A C42A 1_555 1_555
H33A C43A 1_555 1_555
C44A C43A 1_555 1_555
H34A C44A 1_555 1_555
C45A C40A 1_555 1_555
H35A C45A 1_555 1_555
O6A Ti2A 1_555 1_555
O7A Ti2A 1_555 1_555
O8A Zn1A 1_555 1_555
C46A O8A 1_555 1_555
H36A C46A 1_555 1_555
H37A C46A 1_555 1_555
H38A C46A 1_555 1_555
N9A Zn2A 1_555 1_555
C47A N9A 1_555 1_555
C48A C47A 1_555 1_555
H39A C48A 1_555 1_555
C49A C48A 1_555 1_555
H40A C49A 1_555 1_555
C50A C49A 1_555 1_555
H41A C50A 1_555 1_555
C51A N9A 1_555 1_555
H42A C51A 1_555 1_555
N10A N11A 1_555 1_555
N11A Zn2A 1_555 1_555
C52A C47A 1_555 1_555
C53A C52A 1_555 1_555
H43A C53A 1_555 1_555
C54A N10A 1_555 1_555
H44A C54A 1_555 1_555
C55A N10A 1_555 1_555
H45A C55A 1_555 1_555
H46A C55A 1_555 1_555
C56A C55A 1_555 1_555
C57A C56A 1_555 1_555
H47A C57A 1_555 1_555
C58A C57A 1_555 1_555
C59A C58A 1_555 1_555
H48A C59A 1_555 1_555
C60A C59A 1_555 1_555
H49A C60A 1_555 1_555
C61A C56A 1_555 1_555
H50A C61A 1_555 1_555
N12A C58A 1_555 1_555
H51A N12A 1_555 1_555
C62A N12A 1_555 1_555
O9A C62A 1_555 1_555
C63A C62A 1_555 1_555
C64A C63A 1_555 1_555
C65A C64A 1_555 1_555
C66A C65A 1_555 1_555
H52A C66A 1_555 1_555
C67A C66A 1_555 1_555
H53A C67A 1_555 1_555
C68A C63A 1_555 1_555
H54A C68A 1_555 1_555
O10A Ti1A 1_555 1_555
O11A Ti1A 1_555 1_555
O12A Ti2 1_555 1_555
C69A O12A 1_555 1_555
H55A C69A 1_555 1_555
H56A C69A 1_555 1_555
H57A C69A 1_555 1_555
N13A Zn2A 1_555 1_555
C70A N13A 1_555 1_555
C71A C70A 1_555 1_555
H58A C71A 1_555 1_555
C72A C71A 1_555 1_555
H59A C72A 1_555 1_555
C73A C72A 1_555 1_555
H60A C73A 1_555 1_555
C74A N13A 1_555 1_555
H61A C74A 1_555 1_555
N14A N15A 1_555 1_555
N15A Zn2A 1_555 1_555
C75A C70A 1_555 1_555
C76A C75A 1_555 1_555
H62A C76A 1_555 1_555
C77A N14A 1_555 1_555
H63A C77A 1_555 1_555
C78A N14A 1_555 1_555
H64A C78A 1_555 1_555
H65A C78A 1_555 1_555
C79A C78A 1_555 1_555
C80A C79A 1_555 1_555
H66A C80A 1_555 1_555
C81A C80A 1_555 1_555
C82A C81A 1_555 1_555
H67A C82A 1_555 1_555
C83A C82A 1_555 1_555
H68A C83A 1_555 1_555
C84A C79A 1_555 1_555
H69A C84A 1_555 1_555
N16A C81A 1_555 1_555
H70A N16A 1_555 1_555
C85A N16A 1_555 1_555
O13A C85A 1_555 1_555
C86A C85A 1_555 1_555
C87A C86A 1_555 1_555
C88A C87A 1_555 1_555
C89A C88A 1_555 1_555
H71A C89A 1_555 1_555
C90A C89A 1_555 1_555
H72A C90A 1_555 1_555
C91A C86A 1_555 1_555
H73A C91A 1_555 1_555
O14A Ti1A 1_555 1_555
O15A Ti1A 1_555 1_555
O16A Ti2 1_555 1_555
C92A O16A 1_555 1_555
H74A C92A 1_555 1_555
H75A C92A 1_555 1_555
H76A C92A 1_555 1_555
Ti1 O8 1_555 1_555
C4 C5 1_555 1_555
N3 C6 1_555 1_555
C7 C8 1_555 1_555
C14 C15 1_555 1_555
C19 O3 1_555 1_555
C21 C22 1_555 1_555
C27 C28 1_555 1_555
N7 C29 1_555 1_555
C30 C31 1_555 1_555
C37 C38 1_555 1_555
C41 O6 1_555 1_555
C42 O7 1_555 1_555
C44 C45 1_555 1_555
C50 C51 1_555 1_555
N11 C52 1_555 1_555
C53 C54 1_555 1_555
C60 C61 1_555 1_555
C64 O10 1_555 1_555
C65 O11 1_555 1_555
C67 C68 1_555 1_555
O12 Ti2A 1_555 1_555
C73 C74 1_555 1_555
N15 C75 1_555 1_555
C76 C77 1_555 1_555
C83 C84 1_555 1_555
C87 O14 1_555 1_555
C88 O15 1_555 1_555
C90 C91 1_555 1_555
O16 Ti2A 1_555 1_555
C94 N17 1_555 1_555
C97 N18 1_555 1_555
Zn2A O12A 1_555 1_555
Zn2A O16A 1_555 1_555
Ti1A O8A 1_555 1_555
C4A C5A 1_555 1_555
N3A C6A 1_555 1_555
C7A C8A 1_555 1_555
C14A C15A 1_555 1_555
C18A O2A 1_555 1_555
C19A O3A 1_555 1_555
C21A C22A 1_555 1_555
C27A C28A 1_555 1_555
N7A C29A 1_555 1_555
C30A C31A 1_555 1_555
C37A C38A 1_555 1_555
C41A O6A 1_555 1_555
C42A O7A 1_555 1_555
C44A C45A 1_555 1_555
C50A C51A 1_555 1_555
N11A C52A 1_555 1_555
C53A C54A 1_555 1_555
C60A C61A 1_555 1_555
C64A O10A 1_555 1_555
C65A O11A 1_555 1_555
C67A C68A 1_555 1_555
C73A C74A 1_555 1_555
N15A C75A 1_555 1_555
C76A C77A 1_555 1_555
C83A C84A 1_555 1_555
C87A O14A 1_555 1_555
C88A O15A 1_555 1_555
C90A C91A 1_555 1_555

#END
