# generated using pymatgen
data_TiZnH49C50N9O10
_symmetry_space_group_name_H-M   'P 1'
_cell_length_a   14.99700000
_cell_length_b   24.17246165
_cell_length_c   31.48795327
_cell_angle_alpha   75.51690831
_cell_angle_beta   76.22328955
_cell_angle_gamma   71.92821154
_symmetry_Int_Tables_number   1
_chemical_formula_structural   TiZnH49C50N9O10
_chemical_formula_sum   'Ti8 Zn8 H392 C400 N72 O80'
_cell_volume   10345.79628040
_cell_formula_units_Z   8
loop_
 _symmetry_equiv_pos_site_id
 _symmetry_equiv_pos_as_xyz
  1  'x, y, z'
loop_
 _atom_site_type_symbol
 _atom_site_label
 _atom_site_symmetry_multiplicity
 _atom_site_fract_x
 _atom_site_fract_y
 _atom_site_fract_z
 _atom_site_occupancy
  C  C1  1  0.512400  0.808500  0.506500  1
  C  C2  1  0.827400  0.691500  0.993500  1
  C  C3  1  0.487600  0.191500  0.493500  1
  C  C4  1  0.172600  0.308500  0.006500  1
  C  C5  1  0.593400  0.876200  0.490600  1
  C  C6  1  0.960200  0.623800  0.009400  1
  C  C7  1  0.406600  0.123800  0.509400  1
  C  C8  1  0.039800  0.376200  0.990600  1
  C  C9  1  0.688700  0.772600  0.478400  1
  C  C10  1  0.939700  0.727400  0.021600  1
  C  C11  1  0.311300  0.227400  0.521600  1
  C  C12  1  0.060300  0.272600  0.978400  1
  C  C13  1  0.901600  0.863000  0.394800  1
  C  C14  1  0.159400  0.637000  0.105200  1
  C  C15  1  0.098400  0.137000  0.605200  1
  C  C16  1  0.840600  0.363000  0.894800  1
  C  C17  1  0.842000  0.812800  0.354000  1
  C  C18  1  0.008800  0.687200  0.146000  1
  C  C19  1  0.158000  0.187200  0.646000  1
  C  C20  1  0.991200  0.312800  0.854000  1
  C  C21  1  0.007900  0.802100  0.344700  1
  C  C22  1  0.154700  0.697900  0.155300  1
  C  C23  1  0.992100  0.197900  0.655300  1
  C  C24  1  0.845300  0.302100  0.844700  1
  C  C25  1  0.657300  0.044600  0.433800  1
  C  C26  1  0.135700  0.455400  0.066200  1
  C  C27  1  0.342700  0.955400  0.566200  1
  C  C28  1  0.864300  0.544600  0.933800  1
  C  C29  1  0.471000  0.220200  0.177600  1
  C  C30  1  0.868800  0.279800  0.322400  1
  C  C31  1  0.529000  0.779800  0.822400  1
  C  C32  1  0.131200  0.720200  0.677600  1
  C  C33  1  0.297530  0.476400  0.476140  1.0
  C  C34  1  0.250070  0.023600  0.023860  1.0
  C  C35  1  0.702470  0.523600  0.523860  1.0
  C  C36  1  0.749930  0.976400  0.976140  1.0
  C  C37  1  0.310890  0.417630  0.497990  1.0
  C  C38  1  0.226510  0.082370  0.002010  1.0
  C  C39  1  0.689110  0.582370  0.502010  1.0
  C  C40  1  0.773490  0.917630  0.997990  1.0
  C  C41  1  0.253070  0.403110  0.538350  1.0
  C  C42  1  0.194530  0.096890  0.961650  1.0
  C  C43  1  0.746930  0.596890  0.461650  1.0
  C  C44  1  0.805470  0.903110  0.038350  1.0
  C  C45  1  0.181780  0.447380  0.556860  1.0
  C  C46  1  0.186020  0.052620  0.943140  1.0
  C  C47  1  0.818220  0.552620  0.443140  1.0
  C  C48  1  0.813980  0.947380  0.056860  1.0
  C  C49  1  0.168510  0.506170  0.535010  1.0
  C  C50  1  0.209690  0.993830  0.964990  1.0
  C  C51  1  0.831490  0.493830  0.464990  1.0
  C  C52  1  0.790310  0.006170  0.035010  1.0
  C  C53  1  0.355360  0.494600  0.436480  1.0
  C  C54  1  0.286440  0.005400  0.063520  1.0
  C  C55  1  0.644640  0.505400  0.563520  1.0
  C  C56  1  0.713560  0.994600  0.936480  1.0
  C  C57  1  0.439040  0.464220  0.410700  1.0
  C  C58  1  0.313960  0.035780  0.089300  1.0
  C  C59  1  0.560960  0.535780  0.589300  1.0
  C  C60  1  0.686040  0.964220  0.910700  1.0
  C  C61  1  0.471780  0.506740  0.375300  1.0
  C  C62  1  0.353820  0.993260  0.124700  1.0
  C  C63  1  0.528220  0.493260  0.624700  1.0
  C  C64  1  0.646180  0.006740  0.875300  1.0
  C  C65  1  0.409100  0.618000  0.349600  1.0
  C  C66  1  0.376700  0.882000  0.150400  1.0
  C  C67  1  0.590900  0.382000  0.650400  1.0
  C  C68  1  0.623300  0.118000  0.849600  1.0
  C  C69  1  0.336400  0.635100  0.319500  1.0
  C  C70  1  0.291000  0.864900  0.180500  1.0
  C  C71  1  0.663600  0.364900  0.680500  1.0
  C  C72  1  0.709000  0.135100  0.819500  1.0
  C  C73  1  0.325900  0.594700  0.297700  1.0
  C  C74  1  0.218300  0.905300  0.202300  1.0
  C  C75  1  0.674100  0.405300  0.702300  1.0
  C  C76  1  0.781700  0.094700  0.797700  1.0
  C  C77  1  0.252340  0.610520  0.273600  1.0
  C  C78  1  0.136460  0.889480  0.226400  1.0
  C  C79  1  0.747660  0.389480  0.726400  1.0
  C  C80  1  0.863540  0.110520  0.773600  1.0
  C  C81  1  0.189290  0.666720  0.271300  1.0
  C  C82  1  0.127310  0.833280  0.228700  1.0
  C  C83  1  0.810710  0.333280  0.728700  1.0
  C  C84  1  0.872690  0.166720  0.771300  1.0
  C  C85  1  0.199790  0.707220  0.293000  1.0
  C  C86  1  0.200010  0.792780  0.207000  1.0
  C  C87  1  0.800210  0.292780  0.707000  1.0
  C  C88  1  0.799990  0.207220  0.793000  1.0
  C  C89  1  0.273450  0.691300  0.317200  1.0
  C  C90  1  0.281950  0.808700  0.182800  1.0
  C  C91  1  0.726550  0.308700  0.682800  1.0
  C  C92  1  0.718050  0.191300  0.817200  1.0
  C  C93  1  0.163400  0.563000  0.240600  1.0
  C  C94  1  0.967000  0.937000  0.259400  1.0
  C  C95  1  0.836600  0.437000  0.759400  1.0
  C  C96  1  0.033000  0.063000  0.740600  1.0
  C  C97  1  0.171940  0.507620  0.223300  1.0
  C  C98  1  0.902860  0.992380  0.276700  1.0
  C  C99  1  0.828060  0.492380  0.776700  1.0
  C  C100  1  0.097140  0.007620  0.723300  1.0
  C  C101  1  0.254190  0.461020  0.221800  1.0
  C  C102  1  0.937010  0.038980  0.278200  1.0
  C  C103  1  0.745810  0.538980  0.778200  1.0
  C  C104  1  0.062990  0.961020  0.721800  1.0
  C  C105  1  0.257810  0.411680  0.205700  1.0
  C  C106  1  0.875190  0.088320  0.294300  1.0
  C  C107  1  0.742190  0.588320  0.794300  1.0
  C  C108  1  0.124810  0.911680  0.705700  1.0
  C  C109  1  0.179070  0.408960  0.191100  1.0
  C  C110  1  0.779130  0.091040  0.308900  1.0
  C  C111  1  0.820930  0.591040  0.808900  1.0
  C  C112  1  0.220870  0.908960  0.691100  1.0
  C  C113  1  0.096710  0.455580  0.192600  1.0
  C  C114  1  0.744890  0.044420  0.307400  1.0
  C  C115  1  0.903290  0.544420  0.807400  1.0
  C  C116  1  0.255110  0.955580  0.692600  1.0
  C  C117  1  0.093190  0.504920  0.208700  1.0
  C  C118  1  0.806810  0.995080  0.291300  1.0
  C  C119  1  0.906810  0.495080  0.791300  1.0
  C  C120  1  0.193190  0.004920  0.708700  1.0
  C  C121  1  0.378600  0.548400  0.532200  1.0
  C  C122  1  0.459200  0.951600  0.967800  1.0
  C  C123  1  0.621400  0.451600  0.467800  1.0
  C  C124  1  0.540800  0.048400  0.032200  1.0
  C  C125  1  0.037030  0.691640  0.490900  1.0
  C  C126  1  0.219570  0.808360  0.009100  1.0
  C  C127  1  0.962970  0.308360  0.509100  1.0
  C  C128  1  0.780430  0.191640  0.990900  1.0
  C  C129  1  0.970600  0.737200  0.510000  1.0
  C  C130  1  0.217800  0.762800  0.990000  1.0
  C  C131  1  0.029400  0.262800  0.490000  1.0
  C  C132  1  0.782200  0.237200  0.010000  1.0
  C  C133  1  0.987650  0.753400  0.546100  1.0
  C  C134  1  0.287150  0.746600  0.953900  1.0
  C  C135  1  0.012350  0.246600  0.453900  1.0
  C  C136  1  0.712850  0.253400  0.046100  1.0
  C  C137  1  0.071140  0.724090  0.563030  1.0
  C  C138  1  0.358260  0.775910  0.936970  1.0
  C  C139  1  0.928860  0.275910  0.436970  1.0
  C  C140  1  0.641740  0.224090  0.063030  1.0
  C  C141  1  0.137470  0.678540  0.543920  1.0
  C  C142  1  0.359930  0.821460  0.956080  1.0
  C  C143  1  0.862530  0.321460  0.456080  1.0
  C  C144  1  0.640070  0.178540  0.043920  1.0
  C  C145  1  0.025460  0.671730  0.455350  1.0
  C  C146  1  0.152540  0.828270  0.044650  1.0
  C  C147  1  0.974540  0.328270  0.544650  1.0
  C  C148  1  0.847460  0.171730  0.955350  1.0
  C  C149  1  0.947510  0.682880  0.433300  1.0
  C  C150  1  0.063690  0.817120  0.066700  1.0
  C  C151  1  0.052490  0.317120  0.566700  1.0
  C  C152  1  0.936310  0.182880  0.933300  1.0
  C  C153  1  0.977170  0.647760  0.399900  1.0
  C  C154  1  0.024830  0.852240  0.100100  1.0
  C  C155  1  0.022830  0.352240  0.600100  1.0
  C  C156  1  0.975170  0.147760  0.899900  1.0
  C  C157  1  0.131000  0.571700  0.377300  1.0
  C  C158  1  0.080000  0.928300  0.122700  1.0
  C  C159  1  0.869000  0.428300  0.622700  1.0
  C  C160  1  0.920000  0.071700  0.877300  1.0
  C  C161  1  0.139850  0.506480  0.401020  1.0
  C  C162  1  0.047350  0.993520  0.098980  1.0
  C  C163  1  0.860150  0.493520  0.598980  1.0
  C  C164  1  0.952650  0.006480  0.901020  1.0
  C  C165  1  0.210420  0.462740  0.381620  1.0
  C  C166  1  0.054780  0.037260  0.118380  1.0
  C  C167  1  0.789580  0.537260  0.618380  1.0
  C  C168  1  0.945220  0.962740  0.881620  1.0
  C  C169  1  0.219610  0.403340  0.401040  1.0
  C  C170  1  0.023990  0.096660  0.098960  1.0
  C  C171  1  0.780390  0.596660  0.598960  1.0
  C  C172  1  0.976010  0.903340  0.901040  1.0
  C  C173  1  0.158320  0.387690  0.439870  1.0
  C  C174  1  0.985880  0.112310  0.060130  1.0
  C  C175  1  0.841680  0.612310  0.560130  1.0
  C  C176  1  0.014120  0.887690  0.939870  1.0
  C  C177  1  0.087840  0.431440  0.459280  1.0
  C  C178  1  0.978560  0.068560  0.040720  1.0
  C  C179  1  0.912160  0.568560  0.540720  1.0
  C  C180  1  0.021440  0.931440  0.959280  1.0
  C  C181  1  0.078550  0.490840  0.439860  1.0
  C  C182  1  0.009250  0.009160  0.060140  1.0
  C  C183  1  0.921450  0.509160  0.560140  1.0
  C  C184  1  0.990750  0.990840  0.939860  1.0
  C  C185  1  0.323300  0.300200  0.392400  1.0
  C  C186  1  0.015900  0.199800  0.107600  1.0
  C  C187  1  0.676700  0.699800  0.607600  1.0
  C  C188  1  0.984100  0.800200  0.892400  1.0
  C  C189  1  0.400310  0.267210  0.357370  1.0
  C  C190  1  0.024890  0.232790  0.142630  1.0
  C  C191  1  0.599690  0.732790  0.642630  1.0
  C  C192  1  0.975110  0.767210  0.857370  1.0
  C  C193  1  0.425210  0.295230  0.313750  1.0
  C  C194  1  0.034190  0.204770  0.186250  1.0
  C  C195  1  0.574790  0.704770  0.686250  1.0
  C  C196  1  0.965810  0.795230  0.813750  1.0
  C  C197  1  0.487460  0.262530  0.282950  1.0
  C  C198  1  0.032940  0.237470  0.217050  1.0
  C  C199  1  0.512540  0.737470  0.717050  1.0
  C  C200  1  0.967060  0.762530  0.782950  1.0
  C  C201  1  0.524910  0.201820  0.295760  1.0
  C  C202  1  0.022490  0.298180  0.204240  1.0
  C  C203  1  0.475090  0.798180  0.704240  1.0
  C  C204  1  0.977510  0.701820  0.795760  1.0
  C  C205  1  0.499910  0.173800  0.339380  1.0
  C  C206  1  0.013090  0.326200  0.160620  1.0
  C  C207  1  0.500090  0.826200  0.660620  1.0
  C  C208  1  0.986910  0.673800  0.839380  1.0
  C  C209  1  0.437660  0.206490  0.370190  1.0
  C  C210  1  0.014340  0.293510  0.129810  1.0
  C  C211  1  0.562340  0.793510  0.629810  1.0
  C  C212  1  0.985660  0.706490  0.870190  1.0
  C  C213  1  0.232300  0.738700  0.421300  1.0
  C  C214  1  0.392300  0.761300  0.078700  1.0
  C  C215  1  0.767700  0.261300  0.578700  1.0
  C  C216  1  0.607700  0.238700  0.921300  1.0
  C  C217  1  0.411480  0.973440  0.289800  1.0
  C  C218  1  0.674720  0.526560  0.210200  1.0
  C  C219  1  0.588520  0.026560  0.710200  1.0
  C  C220  1  0.325280  0.473440  0.789800  1.0
  C  C221  1  0.504790  0.946420  0.272400  1.0
  C  C222  1  0.723610  0.553580  0.227600  1.0
  C  C223  1  0.495210  0.053580  0.727600  1.0
  C  C224  1  0.276390  0.446420  0.772400  1.0
  C  C225  1  0.571440  0.979220  0.256900  1.0
  C  C226  1  0.807560  0.520780  0.243100  1.0
  C  C227  1  0.428560  0.020780  0.743100  1.0
  C  C228  1  0.192440  0.479220  0.756900  1.0
  C  C229  1  0.544670  0.039060  0.258800  1.0
  C  C230  1  0.842530  0.460940  0.241200  1.0
  C  C231  1  0.455330  0.960940  0.741200  1.0
  C  C232  1  0.157470  0.539060  0.758800  1.0
  C  C233  1  0.451360  0.066180  0.276100  1.0
  C  C234  1  0.793640  0.433820  0.223900  1.0
  C  C235  1  0.548640  0.933820  0.723900  1.0
  C  C236  1  0.206360  0.566180  0.776100  1.0
  C  C237  1  0.339420  0.944560  0.305000  1.0
  C  C238  1  0.588980  0.555440  0.195000  1.0
  C  C239  1  0.660580  0.055440  0.695000  1.0
  C  C240  1  0.411020  0.444560  0.805000  1.0
  C  C241  1  0.334080  0.887640  0.303000  1.0
  C  C242  1  0.524720  0.612360  0.197000  1.0
  C  C243  1  0.665920  0.112360  0.697000  1.0
  C  C244  1  0.475280  0.387640  0.803000  1.0
  C  C245  1  0.239350  0.884000  0.321100  1.0
  C  C246  1  0.444450  0.616000  0.178900  1.0
  C  C247  1  0.760650  0.116000  0.678900  1.0
  C  C248  1  0.555550  0.384000  0.821100  1.0
  C  C249  1  0.088800  0.956000  0.353600  1.0
  C  C250  1  0.398400  0.544000  0.146400  1.0
  C  C251  1  0.911200  0.044000  0.646400  1.0
  C  C252  1  0.601600  0.456000  0.853600  1.0
  C  C253  1  0.069680  0.942000  0.404840  1.0
  C  C254  1  0.416520  0.558000  0.095160  1.0
  C  C255  1  0.930320  0.058000  0.595160  1.0
  C  C256  1  0.583480  0.442000  0.904840  1.0
  C  C257  1  0.133120  0.898420  0.429340  1.0
  C  C258  1  0.460880  0.601580  0.070660  1.0
  C  C259  1  0.866880  0.101580  0.570660  1.0
  C  C260  1  0.539120  0.398420  0.929340  1.0
  C  C261  1  0.111090  0.886440  0.475580  1.0
  C  C262  1  0.473110  0.613560  0.024420  1.0
  C  C263  1  0.888910  0.113560  0.524420  1.0
  C  C264  1  0.526890  0.386440  0.975580  1.0
  C  C265  1  0.025610  0.918070  0.497310  1.0
  C  C266  1  0.440990  0.581930  0.002690  1.0
  C  C267  1  0.974390  0.081930  0.502690  1.0
  C  C268  1  0.559010  0.418070  0.997310  1.0
  C  C269  1  0.962080  0.961640  0.472800  1.0
  C  C270  1  0.396520  0.538360  0.027200  1.0
  C  C271  1  0.037920  0.038360  0.527200  1.0
  C  C272  1  0.603480  0.461640  0.972800  1.0
  C  C273  1  0.984210  0.973610  0.426570  1.0
  C  C274  1  0.384390  0.526390  0.073430  1.0
  C  C275  1  0.015790  0.026390  0.573430  1.0
  C  C276  1  0.615610  0.473610  0.926570  1.0
  C  C277  1  0.201900  0.845800  0.538600  1.0
  C  C278  1  0.586300  0.654200  0.961400  1.0
  C  C279  1  0.798100  0.154200  0.461400  1.0
  C  C280  1  0.413700  0.345800  0.038600  1.0
  C  C281  1  0.277220  0.792370  0.557990  1.0
  C  C282  1  0.627580  0.707630  0.942010  1.0
  C  C283  1  0.722780  0.207630  0.442010  1.0
  C  C284  1  0.372420  0.292370  0.057990  1.0
  C  C285  1  0.326400  0.746130  0.535470  1.0
  C  C286  1  0.608000  0.753870  0.964530  1.0
  C  C287  1  0.673600  0.253870  0.464530  1.0
  C  C288  1  0.392000  0.246130  0.035470  1.0
  C  C289  1  0.398990  0.700720  0.552900  1.0
  C  C290  1  0.652610  0.799280  0.947100  1.0
  C  C291  1  0.601010  0.299280  0.447100  1.0
  C  C292  1  0.347390  0.200720  0.052900  1.0
  C  C293  1  0.422400  0.701550  0.592850  1.0
  C  C294  1  0.716800  0.798450  0.907150  1.0
  C  C295  1  0.577600  0.298450  0.407150  1.0
  C  C296  1  0.283200  0.201550  0.092850  1.0
  C  C297  1  0.373120  0.747800  0.615360  1.0
  C  C298  1  0.736280  0.752200  0.884640  1.0
  C  C299  1  0.626880  0.252200  0.384640  1.0
  C  C300  1  0.263720  0.247800  0.115360  1.0
  C  C301  1  0.300630  0.793210  0.597930  1.0
  C  C302  1  0.691770  0.706790  0.902070  1.0
  C  C303  1  0.699370  0.206790  0.402070  1.0
  C  C304  1  0.308230  0.293210  0.097930  1.0
  C  C305  1  0.024800  0.121600  0.367800  1.0
  C  C306  1  0.514200  0.378400  0.132200  1.0
  C  C307  1  0.975200  0.878400  0.632200  1.0
  C  C308  1  0.485800  0.621600  0.867800  1.0
  C  C309  1  0.230740  0.185710  0.338410  1.0
  C  C310  1  0.754860  0.314290  0.161590  1.0
  C  C311  1  0.769260  0.814290  0.661590  1.0
  C  C312  1  0.245140  0.685710  0.838410  1.0
  C  C313  1  0.219160  0.246070  0.334010  1.0
  C  C314  1  0.799240  0.253930  0.165990  1.0
  C  C315  1  0.780840  0.753930  0.665990  1.0
  C  C316  1  0.200760  0.746070  0.834010  1.0
  C  C317  1  0.222030  0.282300  0.292040  1.0
  C  C318  1  0.796370  0.217700  0.207960  1.0
  C  C319  1  0.777970  0.717700  0.707960  1.0
  C  C320  1  0.203630  0.782300  0.792040  1.0
  C  C321  1  0.236390  0.258140  0.254480  1.0
  C  C322  1  0.749010  0.241860  0.245520  1.0
  C  C323  1  0.763610  0.741860  0.745520  1.0
  C  C324  1  0.250990  0.758140  0.754480  1.0
  C  C325  1  0.247970  0.197780  0.258880  1.0
  C  C326  1  0.704630  0.302220  0.241120  1.0
  C  C327  1  0.752030  0.802220  0.741120  1.0
  C  C328  1  0.295370  0.697780  0.758880  1.0
  C  C329  1  0.237020  0.145340  0.379020  1.0
  C  C330  1  0.761380  0.354660  0.120980  1.0
  C  C331  1  0.762980  0.854660  0.620980  1.0
  C  C332  1  0.238620  0.645340  0.879020  1.0
  C  C333  1  0.238930  0.149330  0.423010  1.0
  C  C334  1  0.811270  0.350670  0.076990  1.0
  C  C335  1  0.761070  0.850670  0.576990  1.0
  C  C336  1  0.188730  0.649330  0.923010  1.0
  C  C337  1  0.247040  0.091940  0.449980  1.0
  C  C338  1  0.788960  0.408060  0.050020  1.0
  C  C339  1  0.752960  0.908060  0.550020  1.0
  C  C340  1  0.211040  0.591940  0.949980  1.0
  C  C341  1  0.275200  0.990000  0.431400  1.0
  C  C342  1  0.696600  0.510000  0.068600  1.0
  C  C343  1  0.724800  0.010000  0.568600  1.0
  C  C344  1  0.303400  0.490000  0.931400  1.0
  C  C345  1  0.378340  0.962720  0.412400  1.0
  C  C346  1  0.753460  0.537280  0.087600  1.0
  C  C347  1  0.621660  0.037280  0.587600  1.0
  C  C348  1  0.246540  0.462720  0.912400  1.0
  C  C349  1  0.403660  0.903880  0.407600  1.0
  C  C350  1  0.715140  0.596120  0.092400  1.0
  C  C351  1  0.596340  0.096120  0.592400  1.0
  C  C352  1  0.284860  0.403880  0.907600  1.0
  C  C353  1  0.496830  0.877140  0.389800  1.0
  C  C354  1  0.763770  0.622860  0.110200  1.0
  C  C355  1  0.503170  0.122860  0.610200  1.0
  C  C356  1  0.236230  0.377140  0.889800  1.0
  C  C357  1  0.564680  0.909140  0.376900  1.0
  C  C358  1  0.850720  0.590860  0.123100  1.0
  C  C359  1  0.435320  0.090860  0.623100  1.0
  C  C360  1  0.149280  0.409140  0.876900  1.0
  C  C361  1  0.539370  0.967860  0.381800  1.0
  C  C362  1  0.889030  0.532140  0.118200  1.0
  C  C363  1  0.460630  0.032140  0.618200  1.0
  C  C364  1  0.110970  0.467860  0.881800  1.0
  C  C365  1  0.446200  0.994700  0.399500  1.0
  C  C366  1  0.840400  0.505300  0.100500  1.0
  C  C367  1  0.553800  0.005300  0.600500  1.0
  C  C368  1  0.159600  0.494700  0.899500  1.0
  C  C369  1  0.593900  0.784600  0.360200  1.0
  C  C370  1  0.738700  0.715400  0.139800  1.0
  C  C371  1  0.406100  0.215400  0.639800  1.0
  C  C372  1  0.261300  0.284600  0.860200  1.0
  C  C373  1  0.602340  0.718320  0.369400  1.0
  C  C374  1  0.690060  0.781680  0.130600  1.0
  C  C375  1  0.397660  0.281680  0.630600  1.0
  C  C376  1  0.309940  0.218320  0.869400  1.0
  C  C377  1  0.541560  0.691080  0.402600  1.0
  C  C378  1  0.635240  0.808920  0.097400  1.0
  C  C379  1  0.458440  0.308920  0.597400  1.0
  C  C380  1  0.364760  0.191080  0.902600  1.0
  C  C381  1  0.555860  0.630080  0.409800  1.0
  C  C382  1  0.595740  0.869920  0.090200  1.0
  C  C383  1  0.444140  0.369920  0.590200  1.0
  C  C384  1  0.404260  0.130080  0.909800  1.0
  C  C385  1  0.631150  0.596300  0.383800  1.0
  C  C386  1  0.611250  0.903700  0.116200  1.0
  C  C387  1  0.368850  0.403700  0.616200  1.0
  C  C388  1  0.388750  0.096300  0.883800  1.0
  C  C389  1  0.691930  0.623540  0.350600  1.0
  C  C390  1  0.666070  0.876460  0.149400  1.0
  C  C391  1  0.308070  0.376460  0.649400  1.0
  C  C392  1  0.333930  0.123540  0.850600  1.0
  C  C393  1  0.677630  0.684540  0.343400  1.0
  C  C394  1  0.705570  0.815460  0.156600  1.0
  C  C395  1  0.322370  0.315460  0.656600  1.0
  C  C396  1  0.294430  0.184540  0.843400  1.0
  C  C397  1  0.240900  0.060500  0.215100  1.0
  C  C398  1  0.516500  0.439500  0.284900  1.0
  C  C399  1  0.759100  0.939500  0.784900  1.0
  C  C400  1  0.483500  0.560500  0.715100  1.0
  H  H401  1  0.515900  0.767500  0.519100  1
  H  H402  1  0.802500  0.732500  0.980900  1
  H  H403  1  0.484100  0.232500  0.480900  1
  H  H404  1  0.197500  0.267500  0.019100  1
  H  H405  1  0.474400  0.821700  0.483500  1
  H  H406  1  0.779600  0.678300  0.016500  1
  H  H407  1  0.525600  0.178300  0.516500  1
  H  H408  1  0.220400  0.321700  0.983500  1
  H  H409  1  0.483900  0.831700  0.529300  1
  H  H410  1  0.844900  0.668300  0.970700  1
  H  H411  1  0.516100  0.168300  0.470700  1
  H  H412  1  0.155100  0.331700  0.029300  1
  H  H413  1  0.653000  0.886200  0.479400  1
  H  H414  1  0.018600  0.613800  0.020600  1
  H  H415  1  0.347000  0.113800  0.520600  1
  H  H416  1  0.981400  0.386200  0.979400  1
  H  H417  1  0.572200  0.880900  0.521100  1
  H  H418  1  0.974200  0.619100  0.978900  1
  H  H419  1  0.427800  0.119100  0.478900  1
  H  H420  1  0.025800  0.380900  0.021100  1
  H  H421  1  0.546800  0.901700  0.473100  1
  H  H422  1  0.921600  0.598300  0.026900  1
  H  H423  1  0.453200  0.098300  0.526900  1
  H  H424  1  0.078400  0.401700  0.973100  1
  H  H425  1  0.693500  0.733200  0.478600  1
  H  H426  1  0.905300  0.766800  0.021400  1
  H  H427  1  0.306500  0.266800  0.521400  1
  H  H428  1  0.094700  0.233200  0.978600  1
  H  H429  1  0.957900  0.855100  0.407100  1
  H  H430  1  0.220100  0.644900  0.092900  1
  H  H431  1  0.042100  0.144900  0.592900  1
  H  H432  1  0.779900  0.355100  0.907100  1
  H  H433  1  0.850300  0.855200  0.418200  1
  H  H434  1  0.123700  0.644800  0.081800  1
  H  H435  1  0.149700  0.144800  0.581800  1
  H  H436  1  0.876300  0.355200  0.918200  1
  H  H437  1  0.884600  0.904100  0.380300  1
  H  H438  1  0.169000  0.595900  0.119700  1
  H  H439  1  0.115400  0.095900  0.619700  1
  H  H440  1  0.831000  0.404100  0.880300  1
  H  H441  1  0.807800  0.846100  0.334900  1
  H  H442  1  0.988800  0.653900  0.165100  1
  H  H443  1  0.192200  0.153900  0.665100  1
  H  H444  1  0.011200  0.346100  0.834900  1
  H  H445  1  0.799800  0.802900  0.381100  1
  H  H446  1  0.983800  0.697100  0.118900  1
  H  H447  1  0.200200  0.197100  0.618900  1
  H  H448  1  0.016200  0.302900  0.881100  1
  H  H449  1  0.866600  0.779600  0.339200  1
  H  H450  1  0.985400  0.720400  0.160800  1
  H  H451  1  0.133400  0.220400  0.660800  1
  H  H452  1  0.014600  0.279600  0.839200  1
  H  H453  1  0.019100  0.773900  0.327300  1
  H  H454  1  0.120300  0.726100  0.172700  1
  H  H455  1  0.980900  0.226100  0.672700  1
  H  H456  1  0.879700  0.273900  0.827300  1
  H  H457  1  0.747700  0.055000  0.459000  1
  H  H458  1  0.261700  0.445000  0.041000  1
  H  H459  1  0.252300  0.945000  0.541000  1
  H  H460  1  0.738300  0.555000  0.959000  1
  H  H461  1  0.618700  0.017100  0.442300  1
  H  H462  1  0.078100  0.482900  0.057700  1
  H  H463  1  0.381300  0.982900  0.557700  1
  H  H464  1  0.921900  0.517100  0.942300  1
  H  H465  1  0.688400  0.045000  0.403400  1
  H  H466  1  0.136800  0.455000  0.096600  1
  H  H467  1  0.311600  0.955000  0.596600  1
  H  H468  1  0.863200  0.545000  0.903400  1
  H  H469  1  0.617700  0.083600  0.437000  1
  H  H470  1  0.138300  0.416400  0.063000  1
  H  H471  1  0.382300  0.916400  0.563000  1
  H  H472  1  0.861700  0.583600  0.937000  1
  H  H473  1  0.593900  0.190800  0.190400  1
  H  H474  1  0.975100  0.309200  0.309600  1
  H  H475  1  0.406100  0.809200  0.809600  1
  H  H476  1  0.024900  0.690800  0.690400  1
  H  H477  1  0.455100  0.189200  0.201200  1
  H  H478  1  0.845500  0.310800  0.298800  1
  H  H479  1  0.544900  0.810800  0.798800  1
  H  H480  1  0.154500  0.689200  0.701200  1
  H  H481  1  0.467700  0.212600  0.149600  1
  H  H482  1  0.829900  0.287400  0.350400  1
  H  H483  1  0.532300  0.787400  0.850400  1
  H  H484  1  0.170100  0.712600  0.649600  1
  H  H485  1  0.426700  0.257600  0.182200  1
  H  H486  1  0.866500  0.242400  0.317800  1
  H  H487  1  0.573300  0.742400  0.817800  1
  H  H488  1  0.133500  0.757600  0.682200  1
  H  H489  1  0.358600  0.388000  0.485600  1.0
  H  H490  1  0.232200  0.112000  0.014400  1.0
  H  H491  1  0.641400  0.612000  0.514400  1.0
  H  H492  1  0.767800  0.888000  0.985600  1.0
  H  H493  1  0.261900  0.363800  0.553000  1.0
  H  H494  1  0.178700  0.136200  0.947000  1.0
  H  H495  1  0.738100  0.636200  0.447000  1.0
  H  H496  1  0.821300  0.863800  0.053000  1.0
  H  H497  1  0.143100  0.437700  0.583900  1.0
  H  H498  1  0.164700  0.062300  0.916100  1.0
  H  H499  1  0.856900  0.562300  0.416100  1.0
  H  H500  1  0.835300  0.937700  0.083900  1.0
  H  H501  1  0.120800  0.535800  0.547400  1.0
  H  H502  1  0.204000  0.964200  0.952600  1.0
  H  H503  1  0.879200  0.464200  0.452600  1.0
  H  H504  1  0.796000  0.035800  0.047400  1.0
  H  H505  1  0.467600  0.423600  0.416000  1.0
  H  H506  1  0.307200  0.076400  0.084000  1.0
  H  H507  1  0.532400  0.576400  0.584000  1.0
  H  H508  1  0.692800  0.923600  0.916000  1.0
  H  H509  1  0.525500  0.498800  0.353400  1.0
  H  H510  1  0.377700  0.001200  0.146600  1.0
  H  H511  1  0.474500  0.501200  0.646600  1.0
  H  H512  1  0.622300  0.998800  0.853400  1.0
  H  H513  1  0.471900  0.615200  0.331600  1.0
  H  H514  1  0.418700  0.884800  0.168400  1.0
  H  H515  1  0.528100  0.384800  0.668400  1.0
  H  H516  1  0.581300  0.115200  0.831600  1.0
  H  H517  1  0.395800  0.648900  0.366700  1.0
  H  H518  1  0.411400  0.851100  0.133300  1.0
  H  H519  1  0.604200  0.351100  0.633300  1.0
  H  H520  1  0.588600  0.148900  0.866700  1.0
  H  H521  1  0.368000  0.557200  0.299200  1.0
  H  H522  1  0.224400  0.942800  0.200800  1.0
  H  H523  1  0.632000  0.442800  0.700800  1.0
  H  H524  1  0.775600  0.057200  0.799200  1.0
  H  H525  1  0.140100  0.677300  0.255100  1.0
  H  H526  1  0.072500  0.822700  0.244900  1.0
  H  H527  1  0.859900  0.322700  0.744900  1.0
  H  H528  1  0.927500  0.177300  0.755100  1.0
  H  H529  1  0.157700  0.744700  0.291500  1.0
  H  H530  1  0.193900  0.755300  0.208500  1.0
  H  H531  1  0.842300  0.255300  0.708500  1.0
  H  H532  1  0.806100  0.244700  0.791500  1.0
  H  H533  1  0.280400  0.718500  0.331700  1.0
  H  H534  1  0.330600  0.781500  0.168300  1.0
  H  H535  1  0.719600  0.281500  0.668300  1.0
  H  H536  1  0.669400  0.218500  0.831700  1.0
  H  H537  1  0.290100  0.538500  0.248300  1.0
  H  H538  1  0.076900  0.961500  0.251700  1.0
  H  H539  1  0.709900  0.461500  0.751700  1.0
  H  H540  1  0.923100  0.038500  0.748300  1.0
  H  H541  1  0.181500  0.375800  0.180400  1.0
  H  H542  1  0.737700  0.124200  0.319600  1.0
  H  H543  1  0.818500  0.624200  0.819600  1.0
  H  H544  1  0.262300  0.875800  0.680400  1.0
  H  H545  1  0.044000  0.453800  0.182800  1.0
  H  H546  1  0.680600  0.046200  0.317200  1.0
  H  H547  1  0.956000  0.546200  0.817200  1.0
  H  H548  1  0.319400  0.953800  0.682800  1.0
  H  H549  1  0.038100  0.536100  0.209700  1.0
  H  H550  1  0.783900  0.963900  0.290300  1.0
  H  H551  1  0.961900  0.463900  0.790300  1.0
  H  H552  1  0.216100  0.036100  0.709700  1.0
  H  H553  1  0.423600  0.556800  0.545200  1.0
  H  H554  1  0.525600  0.943200  0.954800  1.0
  H  H555  1  0.576400  0.443200  0.454800  1.0
  H  H556  1  0.474400  0.056800  0.045200  1.0
  H  H557  1  0.410900  0.518400  0.514800  1.0
  H  H558  1  0.444100  0.981600  0.985200  1.0
  H  H559  1  0.589100  0.481600  0.485200  1.0
  H  H560  1  0.555900  0.018400  0.014800  1.0
  H  H561  1  0.331200  0.535000  0.555400  1.0
  H  H562  1  0.421600  0.965000  0.944600  1.0
  H  H563  1  0.668800  0.465000  0.444600  1.0
  H  H564  1  0.578400  0.035000  0.055400  1.0
  H  H565  1  0.914800  0.756700  0.498700  1.0
  H  H566  1  0.170200  0.743300  0.001300  1.0
  H  H567  1  0.085200  0.243300  0.501300  1.0
  H  H568  1  0.829800  0.256700  0.998700  1.0
  H  H569  1  0.943200  0.783900  0.558900  1.0
  H  H570  1  0.286000  0.716100  0.941100  1.0
  H  H571  1  0.056800  0.216100  0.441100  1.0
  H  H572  1  0.714000  0.283900  0.058900  1.0
  H  H573  1  0.082400  0.735000  0.587200  1.0
  H  H574  1  0.404600  0.765000  0.912800  1.0
  H  H575  1  0.917600  0.265000  0.412800  1.0
  H  H576  1  0.595400  0.235000  0.087200  1.0
  H  H577  1  0.193300  0.658900  0.555300  1.0
  H  H578  1  0.407500  0.841100  0.944700  1.0
  H  H579  1  0.806700  0.341100  0.444700  1.0
  H  H580  1  0.592500  0.158900  0.055300  1.0
  H  H581  1  0.887500  0.708700  0.439700  1.0
  H  H582  1  0.035900  0.791300  0.060300  1.0
  H  H583  1  0.112500  0.291300  0.560300  1.0
  H  H584  1  0.964100  0.208700  0.939700  1.0
  H  H585  1  0.940100  0.646500  0.380500  1.0
  H  H586  1  0.967100  0.853500  0.119500  1.0
  H  H587  1  0.059900  0.353500  0.619500  1.0
  H  H588  1  0.032900  0.146500  0.880500  1.0
  H  H589  1  0.194400  0.577700  0.368900  1.0
  H  H590  1  0.141000  0.922300  0.131100  1.0
  H  H591  1  0.805600  0.422300  0.631100  1.0
  H  H592  1  0.859000  0.077700  0.868900  1.0
  H  H593  1  0.106800  0.577900  0.350100  1.0
  H  H594  1  0.034800  0.922100  0.149900  1.0
  H  H595  1  0.893200  0.422100  0.649900  1.0
  H  H596  1  0.965200  0.077900  0.850100  1.0
  H  H597  1  0.251400  0.473200  0.355600  1.0
  H  H598  1  0.080200  0.026800  0.144400  1.0
  H  H599  1  0.748600  0.526800  0.644400  1.0
  H  H600  1  0.919800  0.973200  0.855600  1.0
  H  H601  1  0.164600  0.347900  0.452900  1.0
  H  H602  1  0.965400  0.152100  0.047100  1.0
  H  H603  1  0.835400  0.652100  0.547100  1.0
  H  H604  1  0.034600  0.847900  0.952900  1.0
  H  H605  1  0.046800  0.420900  0.485300  1.0
  H  H606  1  0.953000  0.079100  0.014700  1.0
  H  H607  1  0.953200  0.579100  0.514700  1.0
  H  H608  1  0.047000  0.920900  0.985300  1.0
  H  H609  1  0.031300  0.520200  0.452800  1.0
  H  H610  1  0.004300  0.979800  0.047200  1.0
  H  H611  1  0.968700  0.479800  0.547200  1.0
  H  H612  1  0.995700  0.020200  0.952800  1.0
  H  H613  1  0.321000  0.374600  0.353000  1.0
  H  H614  1  0.048600  0.125400  0.147000  1.0
  H  H615  1  0.679000  0.625400  0.647000  1.0
  H  H616  1  0.951400  0.874600  0.853000  1.0
  H  H617  1  0.566600  0.179800  0.275200  1.0
  H  H618  1  0.021600  0.320200  0.224800  1.0
  H  H619  1  0.433400  0.820200  0.724800  1.0
  H  H620  1  0.978400  0.679800  0.775200  1.0
  H  H621  1  0.524900  0.133200  0.348000  1.0
  H  H622  1  0.006100  0.366800  0.152000  1.0
  H  H623  1  0.475100  0.866800  0.652000  1.0
  H  H624  1  0.993900  0.633200  0.848000  1.0
  H  H625  1  0.421000  0.187800  0.399400  1.0
  H  H626  1  0.008200  0.312200  0.100600  1.0
  H  H627  1  0.579000  0.812200  0.600600  1.0
  H  H628  1  0.991800  0.687800  0.899400  1.0
  H  H629  1  0.186000  0.753800  0.445400  1.0
  H  H630  1  0.385200  0.746200  0.054600  1.0
  H  H631  1  0.814000  0.246200  0.554600  1.0
  H  H632  1  0.614800  0.253800  0.945400  1.0
  H  H633  1  0.200300  0.735400  0.399400  1.0
  H  H634  1  0.335100  0.764600  0.100600  1.0
  H  H635  1  0.799700  0.264600  0.600600  1.0
  H  H636  1  0.664900  0.235400  0.899400  1.0
  H  H637  1  0.272000  0.765000  0.408000  1.0
  H  H638  1  0.445000  0.735000  0.092000  1.0
  H  H639  1  0.728000  0.235000  0.592000  1.0
  H  H640  1  0.555000  0.265000  0.908000  1.0
  H  H641  1  0.522600  0.906400  0.271200  1.0
  H  H642  1  0.700200  0.593600  0.228800  1.0
  H  H643  1  0.477400  0.093600  0.728800  1.0
  H  H644  1  0.299800  0.406400  0.771200  1.0
  H  H645  1  0.633900  0.961000  0.245400  1.0
  H  H646  1  0.840300  0.539000  0.254600  1.0
  H  H647  1  0.366100  0.039000  0.754600  1.0
  H  H648  1  0.159700  0.461000  0.745400  1.0
  H  H649  1  0.589300  0.061000  0.248400  1.0
  H  H650  1  0.898700  0.439000  0.251600  1.0
  H  H651  1  0.410700  0.939000  0.751600  1.0
  H  H652  1  0.101300  0.561000  0.748400  1.0
  H  H653  1  0.433500  0.106300  0.277300  1.0
  H  H654  1  0.817100  0.393700  0.222700  1.0
  H  H655  1  0.566500  0.893700  0.722700  1.0
  H  H656  1  0.182900  0.606300  0.777300  1.0
  H  H657  1  0.383800  0.858000  0.291800  1.0
  H  H658  1  0.533600  0.642000  0.208200  1.0
  H  H659  1  0.616200  0.142000  0.708200  1.0
  H  H660  1  0.466400  0.358000  0.791800  1.0
  H  H661  1  0.216200  0.851600  0.323800  1.0
  H  H662  1  0.391600  0.648400  0.176200  1.0
  H  H663  1  0.783800  0.148400  0.676200  1.0
  H  H664  1  0.608400  0.351600  0.823800  1.0
  H  H665  1  0.054000  0.935900  0.342900  1.0
  H  H666  1  0.332800  0.564100  0.157100  1.0
  H  H667  1  0.946000  0.064100  0.657100  1.0
  H  H668  1  0.667200  0.435900  0.842900  1.0
  H  H669  1  0.064400  0.998200  0.343600  1.0
  H  H670  1  0.406200  0.501800  0.156400  1.0
  H  H671  1  0.935600  0.001800  0.656400  1.0
  H  H672  1  0.593800  0.498200  0.843600  1.0
  H  H673  1  0.190400  0.877200  0.414800  1.0
  H  H674  1  0.482400  0.622800  0.085200  1.0
  H  H675  1  0.809600  0.122800  0.585200  1.0
  H  H676  1  0.517600  0.377200  0.914800  1.0
  H  H677  1  0.010900  0.910000  0.528200  1.0
  H  H678  1  0.449100  0.590000  0.971800  1.0
  H  H679  1  0.989100  0.090000  0.471800  1.0
  H  H680  1  0.550900  0.410000  0.028200  1.0
  H  H681  1  0.904900  0.982900  0.487300  1.0
  H  H682  1  0.375100  0.517100  0.012700  1.0
  H  H683  1  0.095100  0.017100  0.512700  1.0
  H  H684  1  0.624900  0.482900  0.987300  1.0
  H  H685  1  0.941700  0.002800  0.410200  1.0
  H  H686  1  0.354700  0.497200  0.089800  1.0
  H  H687  1  0.058300  0.997200  0.589800  1.0
  H  H688  1  0.645300  0.502800  0.910200  1.0
  H  H689  1  0.207200  0.810500  0.490100  1.0
  H  H690  1  0.507800  0.689500  0.009900  1.0
  H  H691  1  0.792800  0.189500  0.509900  1.0
  H  H692  1  0.492200  0.310500  0.990100  1.0
  H  H693  1  0.470900  0.671100  0.604500  1.0
  H  H694  1  0.746500  0.828900  0.895500  1.0
  H  H695  1  0.529100  0.328900  0.395500  1.0
  H  H696  1  0.253500  0.171100  0.104500  1.0
  H  H697  1  0.388800  0.748300  0.642100  1.0
  H  H698  1  0.779200  0.751700  0.857900  1.0
  H  H699  1  0.611200  0.251700  0.357900  1.0
  H  H700  1  0.220800  0.248300  0.142100  1.0
  H  H701  1  0.267700  0.824200  0.613000  1.0
  H  H702  1  0.704900  0.675800  0.887000  1.0
  H  H703  1  0.732300  0.175800  0.387000  1.0
  H  H704  1  0.295100  0.324200  0.113000  1.0
  H  H705  1  0.031400  0.159100  0.369700  1.0
  H  H706  1  0.560200  0.340900  0.130300  1.0
  H  H707  1  0.968600  0.840900  0.630300  1.0
  H  H708  1  0.439800  0.659100  0.869700  1.0
  H  H709  1  0.044900  0.092500  0.393100  1.0
  H  H710  1  0.530500  0.407500  0.106900  1.0
  H  H711  1  0.955100  0.907500  0.606900  1.0
  H  H712  1  0.469500  0.592500  0.893100  1.0
  H  H713  1  0.959500  0.125000  0.367600  1.0
  H  H714  1  0.452100  0.375000  0.132400  1.0
  H  H715  1  0.040500  0.875000  0.632400  1.0
  H  H716  1  0.547900  0.625000  0.867600  1.0
  H  H717  1  0.209600  0.262300  0.359100  1.0
  H  H718  1  0.831000  0.237700  0.140900  1.0
  H  H719  1  0.790400  0.737700  0.640900  1.0
  H  H720  1  0.169000  0.762300  0.859100  1.0
  H  H721  1  0.214300  0.322700  0.289100  1.0
  H  H722  1  0.826100  0.177300  0.210900  1.0
  H  H723  1  0.785700  0.677300  0.710900  1.0
  H  H724  1  0.173900  0.822700  0.789100  1.0
  H  H725  1  0.238300  0.282400  0.226400  1.0
  H  H726  1  0.747100  0.217600  0.273600  1.0
  H  H727  1  0.761700  0.717600  0.773600  1.0
  H  H728  1  0.252900  0.782400  0.726400  1.0
  H  H729  1  0.257500  0.181700  0.233700  1.0
  H  H730  1  0.672900  0.318300  0.266300  1.0
  H  H731  1  0.742500  0.818300  0.766300  1.0
  H  H732  1  0.327100  0.681700  0.733700  1.0
  H  H733  1  0.235500  0.183500  0.432500  1.0
  H  H734  1  0.851500  0.316500  0.067500  1.0
  H  H735  1  0.764500  0.816500  0.567500  1.0
  H  H736  1  0.148500  0.683500  0.932500  1.0
  H  H737  1  0.249900  0.082000  0.480200  1.0
  H  H738  1  0.812100  0.418000  0.019800  1.0
  H  H739  1  0.750100  0.918000  0.519800  1.0
  H  H740  1  0.187900  0.582000  0.980200  1.0
  H  H741  1  0.233900  0.977000  0.418800  1.0
  H  H742  1  0.629700  0.523000  0.081200  1.0
  H  H743  1  0.766100  0.023000  0.581200  1.0
  H  H744  1  0.370300  0.477000  0.918800  1.0
  H  H745  1  0.264200  0.976000  0.463400  1.0
  H  H746  1  0.703600  0.524000  0.036600  1.0
  H  H747  1  0.735800  0.024000  0.536600  1.0
  H  H748  1  0.296400  0.476000  0.963400  1.0
  H  H749  1  0.358200  0.882600  0.416200  1.0
  H  H750  1  0.657000  0.617400  0.083800  1.0
  H  H751  1  0.641800  0.117400  0.583800  1.0
  H  H752  1  0.343000  0.382600  0.916200  1.0
  H  H753  1  0.627100  0.891100  0.365100  1.0
  H  H754  1  0.883300  0.608900  0.134900  1.0
  H  H755  1  0.372900  0.108900  0.634900  1.0
  H  H756  1  0.116700  0.391100  0.865100  1.0
  H  H757  1  0.584800  0.989200  0.373200  1.0
  H  H758  1  0.947200  0.510800  0.126800  1.0
  H  H759  1  0.415200  0.010800  0.626800  1.0
  H  H760  1  0.052800  0.489200  0.873200  1.0
  H  H761  1  0.429200  0.034000  0.402800  1.0
  H  H762  1  0.866000  0.466000  0.097200  1.0
  H  H763  1  0.570800  0.966000  0.597200  1.0
  H  H764  1  0.134000  0.534000  0.902800  1.0
  H  H765  1  0.481000  0.797000  0.405000  1.0
  H  H766  1  0.683000  0.703000  0.095000  1.0
  H  H767  1  0.519000  0.203000  0.595000  1.0
  H  H768  1  0.317000  0.297000  0.905000  1.0
  H  H769  1  0.640700  0.555500  0.388700  1.0
  H  H770  1  0.584900  0.944500  0.111300  1.0
  H  H771  1  0.359300  0.444500  0.611300  1.0
  H  H772  1  0.415100  0.055500  0.888700  1.0
  H  H773  1  0.742300  0.600867  0.333333  1.0
  H  H774  1  0.676500  0.899133  0.166667  1.0
  H  H775  1  0.257700  0.399133  0.666667  1.0
  H  H776  1  0.323500  0.100867  0.833333  1.0
  H  H777  1  0.718300  0.702800  0.321200  1.0
  H  H778  1  0.742300  0.797200  0.178800  1.0
  H  H779  1  0.281700  0.297200  0.678800  1.0
  H  H780  1  0.257700  0.202800  0.821200  1.0
  H  H781  1  0.269000  0.018900  0.224100  1.0
  H  H782  1  0.512000  0.481100  0.275900  1.0
  H  H783  1  0.731000  0.981100  0.775900  1.0
  H  H784  1  0.488000  0.518900  0.724100  1.0
  H  H785  1  0.290100  0.080100  0.201100  1.0
  H  H786  1  0.571300  0.419900  0.298900  1.0
  H  H787  1  0.709900  0.919900  0.798900  1.0
  H  H788  1  0.428700  0.580100  0.701100  1.0
  H  H789  1  0.199400  0.066300  0.194500  1.0
  H  H790  1  0.460200  0.433700  0.305500  1.0
  H  H791  1  0.800600  0.933700  0.805500  1.0
  H  H792  1  0.539800  0.566300  0.694500  1.0
  N  N793  1  0.606100  0.815100  0.488100  1
  N  N794  1  0.909300  0.684900  0.011900  1
  N  N795  1  0.393900  0.184900  0.511900  1
  N  N796  1  0.090700  0.315100  0.988100  1
  N  N797  1  0.918500  0.827400  0.364000  1
  N  N798  1  0.109900  0.672600  0.136000  1
  N  N799  1  0.081500  0.172600  0.636000  1
  N  N800  1  0.890100  0.327400  0.864000  1
  N  N801  1  0.226340  0.520670  0.494650  1.0
  N  N802  1  0.241660  0.979330  0.005350  1.0
  N  N803  1  0.773660  0.479330  0.505350  1.0
  N  N804  1  0.758340  0.020670  0.994650  1.0
  N  N805  1  0.408300  0.563350  0.379250  1.0
  N  N806  1  0.350900  0.936650  0.120750  1.0
  N  N807  1  0.591700  0.436650  0.620750  1.0
  N  N808  1  0.649100  0.063350  0.879250  1.0
  N  N809  1  0.336240  0.555870  0.417050  1.0
  N  N810  1  0.309160  0.944130  0.082950  1.0
  N  N811  1  0.663760  0.444130  0.582950  1.0
  N  N812  1  0.690840  0.055870  0.917050  1.0
  N  N813  1  0.239800  0.566800  0.253200  1.0
  N  N814  1  0.059800  0.933200  0.246800  1.0
  N  N815  1  0.760200  0.433200  0.746800  1.0
  N  N816  1  0.940200  0.066800  0.753200  1.0
  N  N817  1  0.120420  0.662310  0.507850  1.0
  N  N818  1  0.290580  0.837690  0.992150  1.0
  N  N819  1  0.879580  0.337690  0.492150  1.0
  N  N820  1  0.709420  0.162310  0.007850  1.0
  N  N821  1  0.073400  0.615010  0.401190  1.0
  N  N822  1  0.089600  0.884990  0.098810  1.0
  N  N823  1  0.926600  0.384990  0.598810  1.0
  N  N824  1  0.910400  0.115010  0.901190  1.0
  N  N825  1  0.103260  0.629790  0.435490  1.0
  N  N826  1  0.168540  0.870210  0.064510  1.0
  N  N827  1  0.896740  0.370210  0.564510  1.0
  N  N828  1  0.831460  0.129790  0.935490  1.0
  N  N829  1  0.292520  0.360560  0.378600  1.0
  N  N830  1  0.031680  0.139440  0.121400  1.0
  N  N831  1  0.707480  0.639440  0.621400  1.0
  N  N832  1  0.968320  0.860560  0.878600  1.0
  N  N833  1  0.384710  0.033400  0.291580  1.0
  N  N834  1  0.709690  0.466600  0.208420  1.0
  N  N835  1  0.615290  0.966600  0.708420  1.0
  N  N836  1  0.290310  0.533400  0.791580  1.0
  N  N837  1  0.186230  0.938580  0.334360  1.0
  N  N838  1  0.459170  0.561420  0.165640  1.0
  N  N839  1  0.813770  0.061420  0.665640  1.0
  N  N840  1  0.540830  0.438580  0.834360  1.0
  N  N841  1  0.247980  0.976030  0.324410  1.0
  N  N842  1  0.548420  0.523970  0.175590  1.0
  N  N843  1  0.752020  0.023970  0.675590  1.0
  N  N844  1  0.451580  0.476030  0.824410  1.0
  N  N845  1  0.178530  0.842440  0.500500  1.0
  N  N846  1  0.521470  0.657560  0.999500  1.0
  N  N847  1  0.821470  0.157560  0.499500  1.0
  N  N848  1  0.478530  0.342440  0.000500  1.0
  N  N849  1  0.245090  0.161570  0.300850  1.0
  N  N850  1  0.707510  0.338430  0.199150  1.0
  N  N851  1  0.754910  0.838430  0.699150  1.0
  N  N852  1  0.292490  0.661570  0.800850  1.0
  N  N853  1  0.250130  0.052470  0.422670  1.0
  N  N854  1  0.725270  0.447530  0.077330  1.0
  N  N855  1  0.749870  0.947530  0.577330  1.0
  N  N856  1  0.274730  0.552470  0.922670  1.0
  N  N857  1  0.243960  0.085470  0.378810  1.0
  N  N858  1  0.708240  0.414530  0.121190  1.0
  N  N859  1  0.756040  0.914530  0.621190  1.0
  N  N860  1  0.291760  0.585470  0.878810  1.0
  N  N861  1  0.518900  0.816400  0.387400  1.0
  N  N862  1  0.722700  0.683600  0.112600  1.0
  N  N863  1  0.481100  0.183600  0.612600  1.0
  N  N864  1  0.277300  0.316400  0.887400  1.0
  O  O865  1  0.757000  0.795600  0.469200  1
  O  O866  1  0.021800  0.704400  0.030800  1
  O  O867  1  0.243000  0.204400  0.530800  1
  O  O868  1  0.978200  0.295600  0.969200  1
  O  O869  1  0.074100  0.817700  0.350700  1
  O  O870  1  0.242500  0.682300  0.149300  1
  O  O871  1  0.925900  0.182300  0.649300  1
  O  O872  1  0.757500  0.317700  0.850700  1
  O  O873  1  0.725300  0.027300  0.461100  1
  O  O874  1  0.213700  0.472700  0.038900  1
  O  O875  1  0.274700  0.972700  0.538900  1
  O  O876  1  0.786300  0.527300  0.961100  1
  O  O877  1  0.564700  0.222400  0.177200  1
  O  O878  1  0.964300  0.277600  0.322800  1
  O  O879  1  0.435300  0.777600  0.822800  1
  O  O880  1  0.035700  0.722400  0.677200  1
  O  O881  1  0.087840  0.603020  0.243300  1.0
  O  O882  1  0.934160  0.896980  0.256700  1.0
  O  O883  1  0.912160  0.396980  0.756700  1.0
  O  O884  1  0.065840  0.103020  0.743300  1.0
  O  O885  1  0.336700  0.457030  0.236170  1.0
  O  O886  1  0.029900  0.042970  0.263830  1.0
  O  O887  1  0.663300  0.542970  0.763830  1.0
  O  O888  1  0.970100  0.957030  0.736170  1.0
  O  O889  1  0.339300  0.367470  0.207530  1.0
  O  O890  1  0.914300  0.132530  0.292470  1.0
  O  O891  1  0.660700  0.632530  0.792470  1.0
  O  O892  1  0.085700  0.867470  0.707530  1.0
  O  O893  1  0.333610  0.601380  0.504200  1.0
  O  O894  1  0.439190  0.898620  0.995800  1.0
  O  O895  1  0.666390  0.398620  0.495800  1.0
  O  O896  1  0.560810  0.101380  0.004200  1.0
  O  O897  1  0.293110  0.273380  0.428800  1.0
  O  O898  1  0.995290  0.226620  0.071200  1.0
  O  O899  1  0.706890  0.726620  0.571200  1.0
  O  O900  1  0.004710  0.773380  0.928800  1.0
  O  O901  1  0.392120  0.353850  0.296710  1.0
  O  O902  1  0.042680  0.146150  0.203290  1.0
  O  O903  1  0.607880  0.646150  0.703290  1.0
  O  O904  1  0.957320  0.853850  0.796710  1.0
  O  O905  1  0.505930  0.294020  0.239920  1.0
  O  O906  1  0.039870  0.205980  0.260080  1.0
  O  O907  1  0.494070  0.705980  0.760080  1.0
  O  O908  1  0.960130  0.794020  0.739920  1.0
  O  O909  1  0.289870  0.681560  0.437900  1.0
  O  O910  1  0.409330  0.818440  0.062100  1.0
  O  O911  1  0.710130  0.318440  0.562100  1.0
  O  O912  1  0.590670  0.181560  0.937900  1.0
  O  O913  1  0.163520  0.889660  0.557300  1.0
  O  O914  1  0.610480  0.610340  0.942700  1.0
  O  O915  1  0.836480  0.110340  0.442700  1.0
  O  O916  1  0.389520  0.389660  0.057300  1.0
  O  O917  1  0.307740  0.738420  0.497300  1.0
  O  O918  1  0.543460  0.761580  0.002700  1.0
  O  O919  1  0.692260  0.261580  0.502700  1.0
  O  O920  1  0.456540  0.238420  0.997300  1.0
  O  O921  1  0.446650  0.658600  0.526700  1.0
  O  O922  1  0.631950  0.841400  0.973300  1.0
  O  O923  1  0.553350  0.341400  0.473300  1.0
  O  O924  1  0.368050  0.158600  0.026700  1.0
  O  O925  1  0.083950  0.103360  0.326940  1.0
  O  O926  1  0.514250  0.396640  0.173060  1.0
  O  O927  1  0.916050  0.896640  0.673060  1.0
  O  O928  1  0.485750  0.603360  0.826940  1.0
  O  O929  1  0.649280  0.809340  0.329700  1.0
  O  O930  1  0.788320  0.690660  0.170300  1.0
  O  O931  1  0.350720  0.190660  0.670300  1.0
  O  O932  1  0.211680  0.309340  0.829700  1.0
  O  O933  1  0.463130  0.719040  0.429500  1.0
  O  O934  1  0.611670  0.780960  0.070500  1.0
  O  O935  1  0.536870  0.280960  0.570500  1.0
  O  O936  1  0.388330  0.219040  0.929500  1.0
  O  O937  1  0.493940  0.608220  0.444300  1.0
  O  O938  1  0.546460  0.891780  0.055700  1.0
  O  O939  1  0.506060  0.391780  0.555700  1.0
  O  O940  1  0.453540  0.108220  0.944300  1.0
  O  O941  1  0.186550  0.085150  0.253950  1.0
  O  O942  1  0.525650  0.414850  0.246050  1.0
  O  O943  1  0.813450  0.914850  0.746050  1.0
  O  O944  1  0.474350  0.585150  0.753950  1.0
  Ti  Ti945  1  0.390250  0.665140  0.473940  1.0
  Ti  Ti946  1  0.529330  0.834860  0.026060  1.0
  Ti  Ti947  1  0.609750  0.334860  0.526060  1.0
  Ti  Ti948  1  0.470670  0.165140  0.973940  1.0
  Ti  Ti949  1  0.438980  0.379640  0.231400  1.0
  Ti  Ti950  1  0.050020  0.120360  0.268600  1.0
  Ti  Ti951  1  0.561020  0.620360  0.768600  1.0
  Ti  Ti952  1  0.949980  0.879640  0.731400  1.0
  Zn  Zn953  1  0.232290  0.608920  0.463960  1.0
  Zn  Zn954  1  0.305170  0.891080  0.036040  1.0
  Zn  Zn955  1  0.767710  0.391080  0.536040  1.0
  Zn  Zn956  1  0.694830  0.108920  0.963960  1.0
  Zn  Zn957  1  0.234880  0.070720  0.315060  1.0
  Zn  Zn958  1  0.620660  0.429280  0.184940  1.0
  Zn  Zn959  1  0.765120  0.929280  0.684940  1.0
  Zn  Zn960  1  0.379340  0.570720  0.815060  1.0
