# generated using pymatgen
data_B2H70PdC100N8(OF2)2
_symmetry_space_group_name_H-M   'P 1'
_cell_length_a   31.29900000
_cell_length_b   32.75000000
_cell_length_c   33.36400000
_cell_angle_alpha   89.73000000
_cell_angle_beta   64.73000000
_cell_angle_gamma   65.45000000
_symmetry_Int_Tables_number   1
_chemical_formula_structural   B2H70PdC100N8(OF2)2
_chemical_formula_sum   'B12 H420 Pd6 C600 N48 O12 F24'
_cell_volume   27504.34842784
_cell_formula_units_Z   6
loop_
 _symmetry_equiv_pos_site_id
 _symmetry_equiv_pos_as_xyz
  1  'x, y, z'
loop_
 _atom_site_type_symbol
 _atom_site_label
 _atom_site_symmetry_multiplicity
 _atom_site_fract_x
 _atom_site_fract_y
 _atom_site_fract_z
 _atom_site_occupancy
  B  B1  1  0.644500  0.065300  0.719800  1.0
  B  B2  1  0.355500  0.934700  0.280200  1.0
  B  B3  1  0.997500  0.794300  0.972700  1.0
  B  B4  1  0.002500  0.205700  0.027300  1.0
  B  B5  1  0.783800  0.399100  0.455300  1.0
  B  B6  1  0.216200  0.600900  0.544700  1.0
  B  B7  1  0.342100  0.381500  0.573700  1.0
  B  B8  1  0.657900  0.618500  0.426300  1.0
  B  B9  1  0.583400  0.480600  0.664400  1.0
  B  B10  1  0.416600  0.519400  0.335600  1.0
  B  B11  1  0.477400  0.687700  0.636300  1.0
  B  B12  1  0.522600  0.312300  0.363700  1.0
  H  H13  1  0.752300  0.521900  0.596400  1.0
  H  H14  1  0.247700  0.478100  0.403600  1.0
  H  H15  1  0.846400  0.555700  0.621400  1.0
  H  H16  1  0.153600  0.444300  0.378600  1.0
  H  H17  1  0.883900  0.485200  0.639200  1.0
  H  H18  1  0.116100  0.514800  0.360800  1.0
  H  H19  1  0.852000  0.431700  0.637800  1.0
  H  H20  1  0.148000  0.568300  0.362200  1.0
  H  H21  1  0.695200  0.417700  0.582600  1.0
  H  H22  1  0.304800  0.582300  0.417400  1.0
  H  H23  1  0.664300  0.364500  0.579700  1.0
  H  H24  1  0.335700  0.635500  0.420300  1.0
  H  H25  1  0.759100  0.278900  0.628500  1.0
  H  H26  1  0.240900  0.721100  0.371500  1.0
  H  H27  1  0.789400  0.332400  0.631600  1.0
  H  H28  1  0.210600  0.667600  0.368400  1.0
  H  H29  1  0.580800  0.155600  0.612800  1.0
  H  H30  1  0.419200  0.844400  0.387200  1.0
  H  H31  1  0.670800  0.194500  0.645500  1.0
  H  H32  1  0.329200  0.805500  0.354500  1.0
  H  H33  1  0.495000  0.165100  0.527000  1.0
  H  H34  1  0.505000  0.834900  0.473000  1.0
  H  H35  1  0.431200  0.183900  0.502200  1.0
  H  H36  1  0.568800  0.816100  0.497800  1.0
  H  H37  1  0.432800  0.305300  0.483900  1.0
  H  H38  1  0.567200  0.694700  0.516100  1.0
  H  H39  1  0.490500  0.290100  0.514600  1.0
  H  H40  1  0.509500  0.709900  0.485400  1.0
  H  H41  1  0.312900  0.339400  0.431600  1.0
  H  H42  1  0.687100  0.660600  0.568400  1.0
  H  H43  1  0.229600  0.305300  0.390100  1.0
  H  H44  1  0.770400  0.694700  0.609900  1.0
  H  H45  1  0.266700  0.231000  0.400300  1.0
  H  H46  1  0.733300  0.769000  0.599700  1.0
  H  H47  1  0.326400  0.211200  0.430700  1.0
  H  H48  1  0.673600  0.788800  0.569300  1.0
  H  H49  1  0.485400  0.194400  0.799900  1.0
  H  H50  1  0.514600  0.805600  0.200100  1.0
  H  H51  1  0.779800  0.005900  0.572800  1.0
  H  H52  1  0.220200  0.994100  0.427200  1.0
  H  H53  1  0.633400  0.291100  0.499600  1.0
  H  H54  1  0.366600  0.708900  0.500400  1.0
  H  H55  1  0.679400  0.258300  0.511200  1.0
  H  H56  1  0.320600  0.741700  0.488800  1.0
  H  H57  1  0.652000  0.237100  0.492600  1.0
  H  H58  1  0.348000  0.762900  0.507400  1.0
  H  H59  1  0.509800  0.127700  0.840100  1.0
  H  H60  1  0.490200  0.872300  0.159900  1.0
  H  H61  1  0.545500  0.078900  0.805700  1.0
  H  H62  1  0.454500  0.921100  0.194300  1.0
  H  H63  1  0.572500  0.102200  0.822500  1.0
  H  H64  1  0.427500  0.897800  0.177500  1.0
  H  H65  1  0.543000  0.229400  0.688600  1.0
  H  H66  1  0.457000  0.770600  0.311400  1.0
  H  H67  1  0.484600  0.236400  0.722400  1.0
  H  H68  1  0.515400  0.763600  0.277600  1.0
  H  H69  1  0.514300  0.255300  0.740400  1.0
  H  H70  1  0.485700  0.744700  0.259600  1.0
  H  H71  1  0.778600  0.952600  0.636000  1.0
  H  H72  1  0.221400  0.047400  0.364000  1.0
  H  H73  1  0.753800  0.984300  0.684400  1.0
  H  H74  1  0.246200  0.015700  0.315600  1.0
  H  H75  1  0.718800  0.966700  0.673100  1.0
  H  H76  1  0.281200  0.033300  0.326900  1.0
  H  H77  1  0.700500  0.127400  0.567800  1.0
  H  H78  1  0.299500  0.872600  0.432200  1.0
  H  H79  1  0.763100  0.095100  0.547400  1.0
  H  H80  1  0.236900  0.904900  0.452600  1.0
  H  H81  1  0.728200  0.079200  0.534000  1.0
  H  H82  1  0.271800  0.920800  0.466000  1.0
  H  H83  1  0.657400  0.618600  0.653300  1.0
  H  H84  1  0.342600  0.381400  0.346700  1.0
  H  H85  1  0.750900  0.641100  0.688400  1.0
  H  H86  1  0.249100  0.358900  0.311600  1.0
  H  H87  1  0.686900  0.670200  0.762500  1.0
  H  H88  1  0.313100  0.329800  0.237500  1.0
  H  H89  1  0.602200  0.674800  0.783900  1.0
  H  H90  1  0.397800  0.325200  0.216100  1.0
  H  H91  1  0.500900  0.613100  0.695100  1.0
  H  H92  1  0.499100  0.386900  0.304900  1.0
  H  H93  1  0.420100  0.613100  0.714400  1.0
  H  H94  1  0.579900  0.386900  0.285600  1.0
  H  H95  1  0.360900  0.683000  0.840800  1.0
  H  H96  1  0.639100  0.317000  0.159200  1.0
  H  H97  1  0.442800  0.681000  0.822200  1.0
  H  H98  1  0.557200  0.319000  0.177800  1.0
  H  H99  1  0.107000  0.669400  0.827800  1.0
  H  H100  1  0.893000  0.330600  0.172200  1.0
  H  H101  1  0.196600  0.706500  0.863100  1.0
  H  H102  1  0.803400  0.293500  0.136900  1.0
  H  H103  1  0.095200  0.572600  0.739800  1.0
  H  H104  1  0.904800  0.427400  0.260200  1.0
  H  H105  1  0.087900  0.534800  0.685300  1.0
  H  H106  1  0.912100  0.465200  0.314700  1.0
  H  H107  1  0.237300  0.507100  0.592800  1.0
  H  H108  1  0.762700  0.492900  0.407200  1.0
  H  H109  1  0.243700  0.547300  0.645600  1.0
  H  H110  1  0.756300  0.452700  0.354400  1.0
  H  H111  1  0.214300  0.439700  0.489800  1.0
  H  H112  1  0.785700  0.560300  0.510200  1.0
  H  H113  1  0.136500  0.390100  0.456800  1.0
  H  H114  1  0.863500  0.609900  0.543200  1.0
  H  H115  1  0.067100  0.417800  0.530300  1.0
  H  H116  1  0.932900  0.582200  0.469700  1.0
  H  H117  1  0.070200  0.459800  0.584300  1.0
  H  H118  1  0.929800  0.540200  0.415700  1.0
  H  H119  1  0.044600  0.863000  0.851700  1.0
  H  H120  1  0.955400  0.137000  0.148300  1.0
  H  H121  1  0.064000  0.652400  0.007600  1.0
  H  H122  1  0.936000  0.347600  0.992400  1.0
  H  H123  1  0.332900  0.583400  0.680000  1.0
  H  H124  1  0.667100  0.416600  0.320000  1.0
  H  H125  1  0.274900  0.623100  0.692500  1.0
  H  H126  1  0.725100  0.376900  0.307500  1.0
  H  H127  1  0.311400  0.632700  0.709200  1.0
  H  H128  1  0.688600  0.367300  0.290800  1.0
  H  H129  1  0.956800  0.912400  0.925200  1.0
  H  H130  1  0.043200  0.087600  0.074800  1.0
  H  H131  1  0.929400  0.881000  0.948700  1.0
  H  H132  1  0.070600  0.119000  0.051300  1.0
  H  H133  1  0.959300  0.896100  0.969700  1.0
  H  H134  1  0.040700  0.103900  0.030300  1.0
  H  H135  1  0.149100  0.739700  0.801000  1.0
  H  H136  1  0.850900  0.260300  0.199000  1.0
  H  H137  1  0.111400  0.775500  0.783200  1.0
  H  H138  1  0.888600  0.224500  0.216800  1.0
  H  H139  1  0.150200  0.787700  0.794300  1.0
  H  H140  1  0.849800  0.212300  0.205700  1.0
  H  H141  1  0.978600  0.723100  0.072400  1.0
  H  H142  1  0.021400  0.276900  0.927600  1.0
  H  H143  1  0.980700  0.770500  0.064100  1.0
  H  H144  1  0.019300  0.229500  0.935900  1.0
  H  H145  1  0.944000  0.756900  0.051100  1.0
  H  H146  1  0.056000  0.243100  0.948900  1.0
  H  H147  1  0.160900  0.630000  0.882500  1.0
  H  H148  1  0.839100  0.370000  0.117500  1.0
  H  H149  1  0.170500  0.614200  0.924700  1.0
  H  H150  1  0.829500  0.385800  0.075300  1.0
  H  H151  1  0.134200  0.600200  0.911500  1.0
  H  H152  1  0.865800  0.399800  0.088500  1.0
  H  H153  1  0.981200  0.405700  0.927600  1.0
  H  H154  1  0.018800  0.594300  0.072400  1.0
  H  H155  1  0.078000  0.403100  0.803900  1.0
  H  H156  1  0.922000  0.596900  0.196100  1.0
  H  H157  1  0.148000  0.376900  0.820800  1.0
  H  H158  1  0.852000  0.623100  0.179200  1.0
  H  H159  1  0.135800  0.360400  0.892200  1.0
  H  H160  1  0.864200  0.639600  0.107800  1.0
  H  H161  1  0.083500  0.277800  0.015500  1.0
  H  H162  1  0.916500  0.722200  0.984500  1.0
  H  H163  1  0.065800  0.257100  0.085900  1.0
  H  H164  1  0.934200  0.742900  0.914100  1.0
  H  H165  1  0.944700  0.384900  0.148200  1.0
  H  H166  1  0.055300  0.615100  0.851800  1.0
  H  H167  1  0.964200  0.406200  0.078400  1.0
  H  H168  1  0.035800  0.593800  0.921600  1.0
  H  H169  1  0.920500  0.248000  0.356200  1.0
  H  H170  1  0.079500  0.752000  0.643800  1.0
  H  H171  1  0.909900  0.344900  0.279400  1.0
  H  H172  1  0.090100  0.655100  0.720600  1.0
  H  H173  1  0.944300  0.111700  0.365700  1.0
  H  H174  1  0.055700  0.888300  0.634300  1.0
  H  H175  1  0.965000  0.039300  0.382700  1.0
  H  H176  1  0.035000  0.960700  0.617300  1.0
  H  H177  1  0.115000  0.990500  0.280000  1.0
  H  H178  1  0.885000  0.009500  0.720000  1.0
  H  H179  1  0.094900  0.063900  0.263500  1.0
  H  H180  1  0.905100  0.936100  0.736500  1.0
  H  H181  1  0.986600  0.912100  0.414000  1.0
  H  H182  1  0.013400  0.087900  0.586000  1.0
  H  H183  1  0.064300  0.782900  0.414500  1.0
  H  H184  1  0.935700  0.217100  0.585500  1.0
  H  H185  1  0.143200  0.778700  0.361500  1.0
  H  H186  1  0.856800  0.221300  0.638500  1.0
  H  H187  1  0.144900  0.844200  0.332700  1.0
  H  H188  1  0.855100  0.155800  0.667300  1.0
  H  H189  1  0.710600  0.344900  0.388100  1.0
  H  H190  1  0.289400  0.655100  0.611900  1.0
  H  H191  1  0.945300  0.397500  0.415800  1.0
  H  H192  1  0.054700  0.602500  0.584200  1.0
  H  H193  1  0.088200  0.157600  0.155500  1.0
  H  H194  1  0.911800  0.842400  0.844500  1.0
  H  H195  1  0.080300  0.208500  0.166600  1.0
  H  H196  1  0.919700  0.791500  0.833400  1.0
  H  H197  1  0.093700  0.173000  0.197800  1.0
  H  H198  1  0.906300  0.827000  0.802200  1.0
  H  H199  1  0.646700  0.405400  0.465700  1.0
  H  H200  1  0.353300  0.594600  0.534300  1.0
  H  H201  1  0.676200  0.398900  0.496000  1.0
  H  H202  1  0.323800  0.601100  0.504000  1.0
  H  H203  1  0.668600  0.440600  0.470000  1.0
  H  H204  1  0.331400  0.559400  0.530000  1.0
  H  H205  1  0.855100  0.286100  0.301400  1.0
  H  H206  1  0.144900  0.713900  0.698600  1.0
  H  H207  1  0.810900  0.268600  0.322900  1.0
  H  H208  1  0.189100  0.731400  0.677100  1.0
  H  H209  1  0.801400  0.310500  0.297300  1.0
  H  H210  1  0.198600  0.689500  0.702700  1.0
  H  H211  1  0.857900  0.452100  0.494900  1.0
  H  H212  1  0.142100  0.547900  0.505100  1.0
  H  H213  1  0.805600  0.469600  0.488800  1.0
  H  H214  1  0.194400  0.530400  0.511200  1.0
  H  H215  1  0.819900  0.428100  0.514000  1.0
  H  H216  1  0.180100  0.571900  0.486000  1.0
  H  H217  1  0.978900  0.314900  0.316200  1.0
  H  H218  1  0.021100  0.685100  0.683800  1.0
  H  H219  1  0.994300  0.355200  0.319100  1.0
  H  H220  1  0.005700  0.644800  0.680900  1.0
  H  H221  1  0.009800  0.313800  0.344200  1.0
  H  H222  1  0.990200  0.686200  0.655800  1.0
  H  H223  1  0.081500  0.486400  0.073500  1.0
  H  H224  1  0.918500  0.513600  0.926500  1.0
  H  H225  1  0.994100  0.506500  0.204400  1.0
  H  H226  1  0.005900  0.493500  0.795600  1.0
  H  H227  1  0.001200  0.434000  0.198500  1.0
  H  H228  1  0.998800  0.566000  0.801500  1.0
  H  H229  1  0.053900  0.383600  0.126600  1.0
  H  H230  1  0.946100  0.616400  0.873400  1.0
  H  H231  1  0.181000  0.297100  0.969600  1.0
  H  H232  1  0.819000  0.702900  0.030400  1.0
  H  H233  1  0.238700  0.261100  0.893400  1.0
  H  H234  1  0.761300  0.738900  0.106600  1.0
  H  H235  1  0.233200  0.382900  0.863200  1.0
  H  H236  1  0.766800  0.617100  0.136800  1.0
  H  H237  1  0.173200  0.419500  0.939100  1.0
  H  H238  1  0.826800  0.580500  0.060900  1.0
  H  H239  1  0.433700  0.222900  0.613000  1.0
  H  H240  1  0.566300  0.777100  0.387000  1.0
  H  H241  1  0.308200  0.324400  0.718700  1.0
  H  H242  1  0.691800  0.675600  0.281300  1.0
  H  H243  1  0.575800  0.087600  0.557400  1.0
  H  H244  1  0.424200  0.912400  0.442600  1.0
  H  H245  1  0.658600  0.023700  0.530300  1.0
  H  H246  1  0.341400  0.976300  0.469700  1.0
  H  H247  1  0.622500  0.000300  0.657300  1.0
  H  H248  1  0.377500  0.999700  0.342700  1.0
  H  H249  1  0.543700  0.069100  0.685600  1.0
  H  H250  1  0.456300  0.930900  0.314400  1.0
  H  H251  1  0.835900  0.912000  0.507300  1.0
  H  H252  1  0.164100  0.088000  0.492700  1.0
  H  H253  1  0.914100  0.783600  0.511200  1.0
  H  H254  1  0.085900  0.216400  0.488800  1.0
  H  H255  1  0.836400  0.781900  0.560400  1.0
  H  H256  1  0.163600  0.218100  0.439600  1.0
  H  H257  1  0.754900  0.848000  0.584400  1.0
  H  H258  1  0.245100  0.152000  0.415600  1.0
  H  H259  1  0.453100  0.390500  0.625800  1.0
  H  H260  1  0.546900  0.609500  0.374200  1.0
  H  H261  1  0.254500  0.295100  0.583300  1.0
  H  H262  1  0.745500  0.704900  0.416700  1.0
  H  H263  1  0.382000  0.142500  0.775400  1.0
  H  H264  1  0.618000  0.857500  0.224600  1.0
  H  H265  1  0.335500  0.178300  0.766000  1.0
  H  H266  1  0.664500  0.821700  0.234000  1.0
  H  H267  1  0.390300  0.142000  0.724600  1.0
  H  H268  1  0.609700  0.858000  0.275400  1.0
  H  H269  1  0.423700  0.449000  0.577600  1.0
  H  H270  1  0.576300  0.551000  0.422400  1.0
  H  H271  1  0.413200  0.427800  0.541700  1.0
  H  H272  1  0.586800  0.572200  0.458300  1.0
  H  H273  1  0.364300  0.460900  0.588500  1.0
  H  H274  1  0.635700  0.539100  0.411500  1.0
  H  H275  1  0.433800  0.292700  0.673700  1.0
  H  H276  1  0.566200  0.707300  0.326300  1.0
  H  H277  1  0.485200  0.300200  0.646500  1.0
  H  H278  1  0.514800  0.699800  0.353500  1.0
  H  H279  1  0.436900  0.335700  0.692400  1.0
  H  H280  1  0.563100  0.664300  0.307600  1.0
  H  H281  1  0.243900  0.359100  0.536400  1.0
  H  H282  1  0.756100  0.640900  0.463600  1.0
  H  H283  1  0.245700  0.401500  0.557900  1.0
  H  H284  1  0.754300  0.598500  0.442100  1.0
  H  H285  1  0.296300  0.365900  0.513100  1.0
  H  H286  1  0.703700  0.634100  0.486900  1.0
  H  H287  1  0.323900  0.244100  0.652100  1.0
  H  H288  1  0.676100  0.755900  0.347900  1.0
  H  H289  1  0.266800  0.254900  0.657200  1.0
  H  H290  1  0.733200  0.745100  0.342800  1.0
  H  H291  1  0.319600  0.221300  0.612600  1.0
  H  H292  1  0.680400  0.778700  0.387400  1.0
  H  H293  1  0.156300  0.516000  0.098400  1.0
  H  H294  1  0.843700  0.484000  0.901600  1.0
  H  H295  1  0.055500  0.542000  0.227100  1.0
  H  H296  1  0.944500  0.458000  0.772900  1.0
  H  H297  1  0.124300  0.509400  0.245300  1.0
  H  H298  1  0.875700  0.490600  0.754700  1.0
  H  H299  1  0.213100  0.477400  0.187700  1.0
  H  H300  1  0.786900  0.522600  0.812300  1.0
  H  H301  1  0.365000  0.374800  0.037800  1.0
  H  H302  1  0.635000  0.625200  0.962200  1.0
  H  H303  1  0.445200  0.341800  0.971000  1.0
  H  H304  1  0.554800  0.658200  0.029000  1.0
  H  H305  1  0.390400  0.452100  0.918400  1.0
  H  H306  1  0.609600  0.547900  0.081600  1.0
  H  H307  1  0.310900  0.485400  0.985800  1.0
  H  H308  1  0.689100  0.514600  0.014200  1.0
  H  H309  1  0.660200  0.316300  0.693900  1.0
  H  H310  1  0.339800  0.683700  0.306100  1.0
  H  H311  1  0.520100  0.408900  0.796200  1.0
  H  H312  1  0.479900  0.591100  0.203800  1.0
  H  H313  1  0.773500  0.172300  0.626600  1.0
  H  H314  1  0.226500  0.827700  0.373400  1.0
  H  H315  1  0.838300  0.097900  0.588000  1.0
  H  H316  1  0.161700  0.902100  0.412000  1.0
  H  H317  1  0.783500  0.052100  0.702900  1.0
  H  H318  1  0.216500  0.947900  0.297100  1.0
  H  H319  1  0.720000  0.126800  0.741400  1.0
  H  H320  1  0.280000  0.873200  0.258600  1.0
  H  H321  1  0.898300  0.936100  0.526400  1.0
  H  H322  1  0.101700  0.063900  0.473600  1.0
  H  H323  1  0.009800  0.815500  0.514200  1.0
  H  H324  1  0.990200  0.184500  0.485800  1.0
  H  H325  1  0.016000  0.840900  0.575400  1.0
  H  H326  1  0.984000  0.159100  0.424600  1.0
  H  H327  1  0.958700  0.918300  0.614200  1.0
  H  H328  1  0.041300  0.081700  0.385800  1.0
  H  H329  1  0.681500  0.470000  0.738500  1.0
  H  H330  1  0.318500  0.530000  0.261500  1.0
  H  H331  1  0.516000  0.391900  0.629400  1.0
  H  H332  1  0.484000  0.608100  0.370600  1.0
  H  H333  1  0.563300  0.221300  0.833600  1.0
  H  H334  1  0.436700  0.778700  0.166400  1.0
  H  H335  1  0.525800  0.265600  0.822700  1.0
  H  H336  1  0.474200  0.734400  0.177300  1.0
  H  H337  1  0.580500  0.227800  0.782400  1.0
  H  H338  1  0.419500  0.772200  0.217600  1.0
  H  H339  1  0.670700  0.532000  0.688800  1.0
  H  H340  1  0.329300  0.468000  0.311200  1.0
  H  H341  1  0.668000  0.513700  0.646000  1.0
  H  H342  1  0.332000  0.486300  0.354000  1.0
  H  H343  1  0.615000  0.550700  0.688300  1.0
  H  H344  1  0.385000  0.449300  0.311700  1.0
  H  H345  1  0.640700  0.376400  0.772700  1.0
  H  H346  1  0.359300  0.623600  0.227300  1.0
  H  H347  1  0.695800  0.378000  0.757300  1.0
  H  H348  1  0.304200  0.622000  0.242700  1.0
  H  H349  1  0.643400  0.414000  0.800700  1.0
  H  H350  1  0.356600  0.586000  0.199300  1.0
  H  H351  1  0.515400  0.460000  0.589500  1.0
  H  H352  1  0.484600  0.540000  0.410500  1.0
  H  H353  1  0.507100  0.502100  0.621100  1.0
  H  H354  1  0.492900  0.497900  0.378900  1.0
  H  H355  1  0.564900  0.468800  0.580900  1.0
  H  H356  1  0.435100  0.531200  0.419100  1.0
  H  H357  1  0.549700  0.337400  0.716900  1.0
  H  H358  1  0.450300  0.662600  0.283100  1.0
  H  H359  1  0.497600  0.354800  0.710500  1.0
  H  H360  1  0.502400  0.645200  0.289500  1.0
  H  H361  1  0.553800  0.318200  0.670700  1.0
  H  H362  1  0.446200  0.681800  0.329300  1.0
  H  H363  1  0.086600  0.111600  0.600400  1.0
  H  H364  1  0.913400  0.888400  0.399600  1.0
  H  H365  1  0.030500  0.237300  0.582500  1.0
  H  H366  1  0.969500  0.762700  0.417500  1.0
  H  H367  1  0.029400  0.264900  0.646600  1.0
  H  H368  1  0.970600  0.735100  0.353400  1.0
  H  H369  1  0.059000  0.213900  0.689400  1.0
  H  H370  1  0.941000  0.786100  0.310600  1.0
  H  H371  1  0.089800  0.084300  0.772000  1.0
  H  H372  1  0.910200  0.915700  0.228000  1.0
  H  H373  1  0.124100  0.021900  0.802300  1.0
  H  H374  1  0.875900  0.978100  0.197700  1.0
  H  H375  1  0.222900  0.944100  0.675100  1.0
  H  H376  1  0.777100  0.055900  0.324900  1.0
  H  H377  1  0.191300  0.007000  0.644800  1.0
  H  H378  1  0.808700  0.993000  0.355200  1.0
  H  H379  1  0.313500  0.742100  0.799100  1.0
  H  H380  1  0.686500  0.257900  0.200900  1.0
  H  H381  1  0.310400  0.834200  0.717500  1.0
  H  H382  1  0.689600  0.165800  0.282500  1.0
  H  H383  1  0.249500  0.698100  0.925300  1.0
  H  H384  1  0.750500  0.301900  0.074700  1.0
  H  H385  1  0.207300  0.668100  0.984400  1.0
  H  H386  1  0.792700  0.331900  0.015600  1.0
  H  H387  1  0.068500  0.784000  0.025900  1.0
  H  H388  1  0.931500  0.216000  0.974100  1.0
  H  H389  1  0.110000  0.812700  0.964900  1.0
  H  H390  1  0.890000  0.187300  0.035100  1.0
  H  H391  1  0.080900  0.617800  0.093000  1.0
  H  H392  1  0.919100  0.382200  0.907000  1.0
  H  H393  1  0.987100  0.643800  0.223900  1.0
  H  H394  1  0.012900  0.356200  0.776100  1.0
  H  H395  1  0.984100  0.715400  0.233000  1.0
  H  H396  1  0.015900  0.284600  0.767000  1.0
  H  H397  1  0.033100  0.738100  0.169800  1.0
  H  H398  1  0.966900  0.261900  0.830200  1.0
  H  H399  1  0.498400  0.774900  0.727200  1.0
  H  H400  1  0.501600  0.225100  0.272800  1.0
  H  H401  1  0.344500  0.656700  0.641400  1.0
  H  H402  1  0.655500  0.343300  0.358600  1.0
  H  H403  1  0.123100  0.929700  0.898000  1.0
  H  H404  1  0.876900  0.070300  0.102000  1.0
  H  H405  1  0.180400  0.898200  0.893900  1.0
  H  H406  1  0.819600  0.101800  0.106100  1.0
  H  H407  1  0.174800  0.929300  0.857600  1.0
  H  H408  1  0.825200  0.070700  0.142400  1.0
  H  H409  1  0.583000  0.717300  0.652000  1.0
  H  H410  1  0.417000  0.282700  0.348000  1.0
  H  H411  1  0.576800  0.673100  0.641100  1.0
  H  H412  1  0.423200  0.326900  0.358900  1.0
  H  H413  1  0.566100  0.713200  0.613700  1.0
  H  H414  1  0.433900  0.286800  0.386300  1.0
  H  H415  1  0.352000  0.816000  0.789200  1.0
  H  H416  1  0.648000  0.184000  0.210800  1.0
  H  H417  1  0.396700  0.802400  0.805200  1.0
  H  H418  1  0.603300  0.197600  0.194800  1.0
  H  H419  1  0.388400  0.841600  0.776400  1.0
  H  H420  1  0.611600  0.158400  0.223600  1.0
  H  H421  1  0.444600  0.600700  0.582600  1.0
  H  H422  1  0.555400  0.399300  0.417400  1.0
  H  H423  1  0.480900  0.626400  0.567200  1.0
  H  H424  1  0.519100  0.373600  0.432800  1.0
  H  H425  1  0.481900  0.596500  0.605200  1.0
  H  H426  1  0.518100  0.403500  0.394800  1.0
  H  H427  1  0.266800  0.756700  0.739400  1.0
  H  H428  1  0.733200  0.243300  0.260600  1.0
  H  H429  1  0.256100  0.743100  0.699800  1.0
  H  H430  1  0.743900  0.256900  0.300200  1.0
  H  H431  1  0.265400  0.708900  0.733000  1.0
  H  H432  1  0.734600  0.291100  0.267000  1.0
  Pd  Pd433  1  0.236490  0.391490  0.400570  1.0
  Pd  Pd434  1  0.763510  0.608510  0.599430  1.0
  Pd  Pd435  1  0.949920  0.849150  0.462820  1.0
  Pd  Pd436  1  0.050080  0.150850  0.537180  1.0
  Pd  Pd437  1  0.037470  0.562380  0.148600  1.0
  Pd  Pd438  1  0.962530  0.437620  0.851400  1.0
  C  C439  1  0.798000  0.471600  0.617300  1.0
  C  C440  1  0.202000  0.528400  0.382700  1.0
  C  C441  1  0.778300  0.514500  0.606600  1.0
  C  C442  1  0.221700  0.485500  0.393400  1.0
  C  C443  1  0.833600  0.534200  0.620800  1.0
  C  C444  1  0.166400  0.465800  0.379200  1.0
  C  C445  1  0.856300  0.492300  0.631300  1.0
  C  C446  1  0.143700  0.507700  0.368700  1.0
  C  C447  1  0.837700  0.460500  0.630100  1.0
  C  C448  1  0.162300  0.539500  0.369900  1.0
  C  C449  1  0.779000  0.439500  0.614100  1.0
  C  C450  1  0.221000  0.560500  0.385900  1.0
  C  C451  1  0.762900  0.413200  0.610700  1.0
  C  C452  1  0.237100  0.586800  0.389300  1.0
  C  C453  1  0.744700  0.380200  0.608000  1.0
  C  C454  1  0.255300  0.619800  0.392000  1.0
  C  C455  1  0.707800  0.389700  0.592200  1.0
  C  C456  1  0.292200  0.610300  0.407800  1.0
  C  C457  1  0.689600  0.358100  0.590500  1.0
  C  C458  1  0.310400  0.641900  0.409500  1.0
  C  C459  1  0.708000  0.316800  0.604500  1.0
  C  C460  1  0.292000  0.683200  0.395500  1.0
  C  C461  1  0.745700  0.307200  0.619500  1.0
  C  C462  1  0.254300  0.692800  0.380500  1.0
  C  C463  1  0.763800  0.338900  0.621200  1.0
  C  C464  1  0.236200  0.661100  0.378800  1.0
  C  C465  1  0.687600  0.285000  0.603900  1.0
  C  C466  1  0.312400  0.715000  0.396100  1.0
  C  C467  1  0.668600  0.260700  0.601700  1.0
  C  C468  1  0.331400  0.739300  0.398300  1.0
  C  C469  1  0.645100  0.230900  0.603600  1.0
  C  C470  1  0.354900  0.769100  0.396400  1.0
  C  C471  1  0.616900  0.235700  0.579900  1.0
  C  C472  1  0.383100  0.764300  0.420100  1.0
  C  C473  1  0.593400  0.206900  0.583200  1.0
  C  C474  1  0.406600  0.793100  0.416800  1.0
  C  C475  1  0.597900  0.174400  0.610200  1.0
  C  C476  1  0.402100  0.825600  0.389800  1.0
  C  C477  1  0.627100  0.169200  0.633300  1.0
  C  C478  1  0.372900  0.830800  0.366700  1.0
  C  C479  1  0.650700  0.197600  0.629900  1.0
  C  C480  1  0.349300  0.802400  0.370100  1.0
  C  C481  1  0.561100  0.212300  0.561400  1.0
  C  C482  1  0.438900  0.787700  0.438600  1.0
  C  C483  1  0.533200  0.216600  0.544300  1.0
  C  C484  1  0.466800  0.783400  0.455700  1.0
  C  C485  1  0.499000  0.226000  0.523800  1.0
  C  C486  1  0.501000  0.774000  0.476200  1.0
  C  C487  1  0.481600  0.194100  0.519200  1.0
  C  C488  1  0.518400  0.805900  0.480800  1.0
  C  C489  1  0.444700  0.204800  0.503300  1.0
  C  C490  1  0.555300  0.795200  0.496700  1.0
  C  C491  1  0.427300  0.245600  0.488900  1.0
  C  C492  1  0.572700  0.754400  0.511100  1.0
  C  C493  1  0.444900  0.277000  0.493300  1.0
  C  C494  1  0.555100  0.723000  0.506700  1.0
  C  C495  1  0.479600  0.267900  0.511000  1.0
  C  C496  1  0.520400  0.732100  0.489000  1.0
  C  C497  1  0.392500  0.254200  0.469100  1.0
  C  C498  1  0.607500  0.745800  0.530900  1.0
  C  C499  1  0.361400  0.263400  0.454200  1.0
  C  C500  1  0.638600  0.736600  0.545800  1.0
  C  C501  1  0.325200  0.273900  0.435700  1.0
  C  C502  1  0.674800  0.726100  0.564300  1.0
  C  C503  1  0.302900  0.317100  0.426100  1.0
  C  C504  1  0.697100  0.682900  0.573900  1.0
  C  C505  1  0.254900  0.297000  0.401100  1.0
  C  C506  1  0.745100  0.703000  0.598900  1.0
  C  C507  1  0.276100  0.252900  0.407700  1.0
  C  C508  1  0.723900  0.747100  0.592300  1.0
  C  C509  1  0.311600  0.241300  0.425500  1.0
  C  C510  1  0.688400  0.758700  0.574500  1.0
  C  C511  1  0.631600  0.134700  0.662400  1.0
  C  C512  1  0.368400  0.865300  0.337600  1.0
  C  C513  1  0.591800  0.145200  0.707100  1.0
  C  C514  1  0.408200  0.854800  0.292900  1.0
  C  C515  1  0.552400  0.131500  0.775000  1.0
  C  C516  1  0.447600  0.868500  0.225000  1.0
  C  C517  1  0.519000  0.174700  0.775200  1.0
  C  C518  1  0.481000  0.825300  0.224800  1.0
  C  C519  1  0.542500  0.185500  0.732700  1.0
  C  C520  1  0.457500  0.814500  0.267300  1.0
  C  C521  1  0.675800  0.091800  0.643000  1.0
  C  C522  1  0.324200  0.908200  0.357000  1.0
  C  C523  1  0.726600  0.019600  0.641900  1.0
  C  C524  1  0.273400  0.980400  0.358100  1.0
  C  C525  1  0.748700  0.027800  0.598200  1.0
  C  C526  1  0.251300  0.972200  0.401800  1.0
  C  C527  1  0.718500  0.072400  0.597900  1.0
  C  C528  1  0.281500  0.927600  0.402100  1.0
  C  C529  1  0.646100  0.263600  0.511500  1.0
  C  C530  1  0.353900  0.736400  0.488500  1.0
  C  C531  1  0.544300  0.108000  0.814200  1.0
  C  C532  1  0.455700  0.892000  0.185800  1.0
  C  C533  1  0.519100  0.230600  0.719900  1.0
  C  C534  1  0.480900  0.769400  0.280100  1.0
  C  C535  1  0.746200  0.977000  0.660500  1.0
  C  C536  1  0.253800  0.023000  0.339500  1.0
  C  C537  1  0.728400  0.095500  0.558300  1.0
  C  C538  1  0.271600  0.904500  0.441700  1.0
  C  C539  1  0.621800  0.646100  0.719900  1.0
  C  C540  1  0.378200  0.353900  0.280100  1.0
  C  C541  1  0.663400  0.629400  0.675900  1.0
  C  C542  1  0.336600  0.370600  0.324100  1.0
  C  C543  1  0.717200  0.642600  0.696300  1.0
  C  C544  1  0.282800  0.357400  0.303700  1.0
  C  C545  1  0.679400  0.660000  0.740800  1.0
  C  C546  1  0.320600  0.340000  0.259200  1.0
  C  C547  1  0.629800  0.662500  0.753600  1.0
  C  C548  1  0.370200  0.337500  0.246400  1.0
  C  C549  1  0.572500  0.645500  0.730900  1.0
  C  C550  1  0.427500  0.354500  0.269100  1.0
  C  C551  1  0.530000  0.646800  0.743400  1.0
  C  C552  1  0.470000  0.353200  0.256600  1.0
  C  C553  1  0.479500  0.647500  0.756500  1.0
  C  C554  1  0.520500  0.352500  0.243500  1.0
  C  C555  1  0.472400  0.627200  0.724900  1.0
  C  C556  1  0.527600  0.372800  0.275100  1.0
  C  C557  1  0.424400  0.627100  0.736300  1.0
  C  C558  1  0.575600  0.372900  0.263700  1.0
  C  C559  1  0.382400  0.647800  0.780200  1.0
  C  C560  1  0.617600  0.352200  0.219800  1.0
  C  C561  1  0.389700  0.668300  0.811200  1.0
  C  C562  1  0.610300  0.331700  0.188800  1.0
  C  C563  1  0.438100  0.667700  0.800100  1.0
  C  C564  1  0.561900  0.332300  0.199900  1.0
  C  C565  1  0.332200  0.648700  0.792000  1.0
  C  C566  1  0.667800  0.351300  0.208000  1.0
  C  C567  1  0.289500  0.651900  0.801300  1.0
  C  C568  1  0.710500  0.348100  0.198700  1.0
  C  C569  1  0.239800  0.656500  0.805800  1.0
  C  C570  1  0.760200  0.343500  0.194200  1.0
  C  C571  1  0.235200  0.630600  0.777300  1.0
  C  C572  1  0.764800  0.369400  0.222700  1.0
  C  C573  1  0.186600  0.635300  0.784500  1.0
  C  C574  1  0.813400  0.364700  0.215500  1.0
  C  C575  1  0.140700  0.666300  0.822300  1.0
  C  C576  1  0.859300  0.333700  0.177700  1.0
  C  C577  1  0.144400  0.692600  0.852000  1.0
  C  C578  1  0.855600  0.307400  0.148000  1.0
  C  C579  1  0.194000  0.688000  0.843300  1.0
  C  C580  1  0.806000  0.312000  0.156700  1.0
  C  C581  1  0.180500  0.608700  0.755200  1.0
  C  C582  1  0.819500  0.391300  0.244800  1.0
  C  C583  1  0.174700  0.588300  0.730000  1.0
  C  C584  1  0.825300  0.411700  0.270000  1.0
  C  C585  1  0.169800  0.563900  0.697800  1.0
  C  C586  1  0.830200  0.436100  0.302200  1.0
  C  C587  1  0.123700  0.559900  0.709900  1.0
  C  C588  1  0.876300  0.440100  0.290100  1.0
  C  C589  1  0.119700  0.537000  0.677500  1.0
  C  C590  1  0.880300  0.463000  0.322500  1.0
  C  C591  1  0.161800  0.517300  0.634100  1.0
  C  C592  1  0.838200  0.482700  0.365900  1.0
  C  C593  1  0.208300  0.520900  0.622400  1.0
  C  C594  1  0.791700  0.479100  0.377600  1.0
  C  C595  1  0.212200  0.544400  0.653800  1.0
  C  C596  1  0.787800  0.455600  0.346200  1.0
  C  C597  1  0.158200  0.492600  0.601300  1.0
  C  C598  1  0.841800  0.507400  0.398700  1.0
  C  C599  1  0.150500  0.476100  0.574700  1.0
  C  C600  1  0.849500  0.523900  0.425300  1.0
  C  C601  1  0.143400  0.454200  0.542700  1.0
  C  C602  1  0.856600  0.545800  0.457300  1.0
  C  C603  1  0.183300  0.435900  0.498200  1.0
  C  C604  1  0.816700  0.564100  0.501800  1.0
  C  C605  1  0.138400  0.406700  0.478800  1.0
  C  C606  1  0.861600  0.593300  0.521200  1.0
  C  C607  1  0.097000  0.423300  0.522400  1.0
  C  C608  1  0.903000  0.576700  0.477600  1.0
  C  C609  1  0.099000  0.447600  0.554500  1.0
  C  C610  1  0.901000  0.552400  0.445500  1.0
  C  C611  1  0.096100  0.726600  0.892300  1.0
  C  C612  1  0.903900  0.273400  0.107700  1.0
  C  C613  1  0.071600  0.772100  0.888800  1.0
  C  C614  1  0.928400  0.227900  0.111200  1.0
  C  C615  1  0.010200  0.845200  0.912700  1.0
  C  C616  1  0.989800  0.154800  0.087300  1.0
  C  C617  1  0.046000  0.839400  0.868400  1.0
  C  C618  1  0.954000  0.160600  0.131600  1.0
  C  C619  1  0.084400  0.793900  0.851600  1.0
  C  C620  1  0.915600  0.206100  0.148400  1.0
  C  C621  1  0.076700  0.712000  0.932600  1.0
  C  C622  1  0.923300  0.288000  0.067400  1.0
  C  C623  1  0.023200  0.721300  0.005500  1.0
  C  C624  1  0.976800  0.278700  0.994500  1.0
  C  C625  1  0.061700  0.675200  0.989800  1.0
  C  C626  1  0.938300  0.324800  0.010200  1.0
  C  C627  1  0.096000  0.668200  0.944200  1.0
  C  C628  1  0.904000  0.331800  0.055800  1.0
  C  C629  1  0.301400  0.609600  0.703200  1.0
  C  C630  1  0.698600  0.390400  0.296800  1.0
  C  C631  1  0.959600  0.887300  0.941600  1.0
  C  C632  1  0.040400  0.112700  0.058400  1.0
  C  C633  1  0.127600  0.772300  0.803300  1.0
  C  C634  1  0.872400  0.227700  0.196700  1.0
  C  C635  1  0.977600  0.745000  0.052400  1.0
  C  C636  1  0.022400  0.255000  0.947600  1.0
  C  C637  1  0.144800  0.624200  0.912900  1.0
  C  C638  1  0.855200  0.375800  0.087100  1.0
  C  C639  1  0.056400  0.379900  0.917600  1.0
  C  C640  1  0.943600  0.620100  0.082400  1.0
  C  C641  1  0.016200  0.398500  0.905300  1.0
  C  C642  1  0.983800  0.601500  0.094700  1.0
  C  C643  1  0.071900  0.398000  0.833500  1.0
  C  C644  1  0.928100  0.602000  0.166500  1.0
  C  C645  1  0.114000  0.381600  0.843200  1.0
  C  C646  1  0.886000  0.618400  0.156800  1.0
  C  C647  1  0.106900  0.372100  0.885400  1.0
  C  C648  1  0.893100  0.627900  0.114600  1.0
  C  C649  1  0.047100  0.367500  0.960800  1.0
  C  C650  1  0.952900  0.632500  0.039200  1.0
  C  C651  1  0.036800  0.357300  0.997000  1.0
  C  C652  1  0.963200  0.642700  0.003000  1.0
  C  C653  1  0.025200  0.343800  0.039900  1.0
  C  C654  1  0.974800  0.656200  0.960100  1.0
  C  C655  1  0.055300  0.299700  0.042500  1.0
  C  C656  1  0.944700  0.700300  0.957500  1.0
  C  C657  1  0.044600  0.287200  0.084200  1.0
  C  C658  1  0.955400  0.712800  0.915800  1.0
  C  C659  1  0.002500  0.319000  0.123800  1.0
  C  C660  1  0.997500  0.681000  0.876200  1.0
  C  C661  1  0.973000  0.363100  0.121300  1.0
  C  C662  1  0.027000  0.636900  0.878700  1.0
  C  C663  1  0.984300  0.375600  0.079800  1.0
  C  C664  1  0.015700  0.624400  0.920200  1.0
  C  C665  1  0.990300  0.305200  0.166400  1.0
  C  C666  1  0.009700  0.694800  0.833600  1.0
  C  C667  1  0.978700  0.294100  0.201600  1.0
  C  C668  1  0.021300  0.705900  0.798400  1.0
  C  C669  1  0.964500  0.279300  0.243800  1.0
  C  C670  1  0.035500  0.720700  0.756200  1.0
  C  C671  1  0.988000  0.233500  0.245300  1.0
  C  C672  1  0.012000  0.766500  0.754700  1.0
  C  C673  1  0.971000  0.223100  0.288100  1.0
  C  C674  1  0.029000  0.776900  0.711900  1.0
  C  C675  1  0.931400  0.256400  0.327600  1.0
  C  C676  1  0.068600  0.743600  0.672400  1.0
  C  C677  1  0.908000  0.302400  0.324200  1.0
  C  C678  1  0.092000  0.697600  0.675800  1.0
  C  C679  1  0.925000  0.313900  0.282100  1.0
  C  C680  1  0.075000  0.686100  0.717900  1.0
  C  C681  1  0.990700  0.176200  0.292700  1.0
  C  C682  1  0.009300  0.823800  0.707300  1.0
  C  C683  1  0.002700  0.139300  0.301900  1.0
  C  C684  1  0.997300  0.860700  0.698100  1.0
  C  C685  1  0.017400  0.094400  0.312400  1.0
  C  C686  1  0.982600  0.905600  0.687600  1.0
  C  C687  1  0.979000  0.087100  0.348300  1.0
  C  C688  1  0.021000  0.912900  0.651700  1.0
  C  C689  1  0.991400  0.044300  0.358400  1.0
  C  C690  1  0.008600  0.955700  0.641600  1.0
  C  C691  1  0.042400  0.007800  0.333400  1.0
  C  C692  1  0.957600  0.992200  0.666600  1.0
  C  C693  1  0.080500  0.015200  0.297600  1.0
  C  C694  1  0.919500  0.984800  0.702400  1.0
  C  C695  1  0.068500  0.058700  0.287400  1.0
  C  C696  1  0.931500  0.941300  0.712600  1.0
  C  C697  1  0.054000  0.964400  0.347100  1.0
  C  C698  1  0.946000  0.035600  0.652900  1.0
  C  C699  1  0.063500  0.927300  0.355700  1.0
  C  C700  1  0.936500  0.072700  0.644300  1.0
  C  C701  1  0.065100  0.885700  0.371000  1.0
  C  C702  1  0.934900  0.114300  0.629000  1.0
  C  C703  1  0.019200  0.884700  0.403000  1.0
  C  C704  1  0.980800  0.115300  0.597000  1.0
  C  C705  1  0.064300  0.809600  0.403300  1.0
  C  C706  1  0.935700  0.190400  0.596700  1.0
  C  C707  1  0.111400  0.806700  0.371800  1.0
  C  C708  1  0.888600  0.193300  0.628200  1.0
  C  C709  1  0.112600  0.845300  0.354800  1.0
  C  C710  1  0.887400  0.154700  0.645200  1.0
  C  C711  1  0.866600  0.337300  0.365800  1.0
  C  C712  1  0.133400  0.662700  0.634200  1.0
  C  C713  1  0.814200  0.345600  0.380600  1.0
  C  C714  1  0.185800  0.654400  0.619400  1.0
  C  C715  1  0.727300  0.378700  0.428000  1.0
  C  C716  1  0.272700  0.621300  0.572000  1.0
  C  C717  1  0.736900  0.349700  0.391500  1.0
  C  C718  1  0.263100  0.650300  0.608500  1.0
  C  C719  1  0.790900  0.328900  0.360700  1.0
  C  C720  1  0.209100  0.671100  0.639300  1.0
  C  C721  1  0.881000  0.360200  0.388700  1.0
  C  C722  1  0.119000  0.639800  0.611300  1.0
  C  C723  1  0.866000  0.408900  0.445000  1.0
  C  C724  1  0.134000  0.591100  0.555000  1.0
  C  C725  1  0.920000  0.390400  0.413200  1.0
  C  C726  1  0.080000  0.609600  0.586800  1.0
  C  C727  1  0.930400  0.360400  0.377900  1.0
  C  C728  1  0.069600  0.639600  0.622100  1.0
  C  C729  1  0.074700  0.183200  0.179800  1.0
  C  C730  1  0.925300  0.816800  0.820200  1.0
  C  C731  1  0.675200  0.408500  0.468400  1.0
  C  C732  1  0.324800  0.591500  0.531600  1.0
  C  C733  1  0.816800  0.295600  0.316700  1.0
  C  C734  1  0.183200  0.704400  0.683300  1.0
  C  C735  1  0.834600  0.442600  0.489600  1.0
  C  C736  1  0.165400  0.557400  0.510400  1.0
  C  C737  1  0.983000  0.333700  0.335600  1.0
  C  C738  1  0.017000  0.666300  0.664400  1.0
  C  C739  1  0.073300  0.430300  0.092300  1.0
  C  C740  1  0.926700  0.569700  0.907700  1.0
  C  C741  1  0.065900  0.475200  0.099300  1.0
  C  C742  1  0.934100  0.524800  0.900700  1.0
  C  C743  1  0.014800  0.486800  0.175300  1.0
  C  C744  1  0.985200  0.513200  0.824700  1.0
  C  C745  1  0.018900  0.443700  0.172300  1.0
  C  C746  1  0.981100  0.556300  0.827700  1.0
  C  C747  1  0.049500  0.414100  0.129800  1.0
  C  C748  1  0.950500  0.585900  0.870200  1.0
  C  C749  1  0.106500  0.402100  0.047500  1.0
  C  C750  1  0.893500  0.597900  0.952500  1.0
  C  C751  1  0.135000  0.384400  0.008200  1.0
  C  C752  1  0.865000  0.615600  0.991800  1.0
  C  C753  1  0.171400  0.361300  0.961600  1.0
  C  C754  1  0.828600  0.638700  0.038400  1.0
  C  C755  1  0.191100  0.314600  0.947900  1.0
  C  C756  1  0.808900  0.685400  0.052100  1.0
  C  C757  1  0.225600  0.293100  0.902800  1.0
  C  C758  1  0.774400  0.706900  0.097200  1.0
  C  C759  1  0.241000  0.318800  0.871000  1.0
  C  C760  1  0.759000  0.681200  0.129000  1.0
  C  C761  1  0.222000  0.365700  0.884700  1.0
  C  C762  1  0.778000  0.634300  0.115300  1.0
  C  C763  1  0.186800  0.387400  0.929800  1.0
  C  C764  1  0.813200  0.612600  0.070200  1.0
  C  C765  1  0.276200  0.297100  0.824000  1.0
  C  C766  1  0.723800  0.702900  0.176000  1.0
  C  C767  1  0.305400  0.283100  0.784400  1.0
  C  C768  1  0.694600  0.716900  0.215600  1.0
  C  C769  1  0.342800  0.265700  0.737200  1.0
  C  C770  1  0.657200  0.734300  0.262800  1.0
  C  C771  1  0.384800  0.221100  0.721000  1.0
  C  C772  1  0.615200  0.778900  0.279000  1.0
  C  C773  1  0.418000  0.205900  0.675000  1.0
  C  C774  1  0.582000  0.794100  0.325000  1.0
  C  C775  1  0.410800  0.234100  0.644600  1.0
  C  C776  1  0.589200  0.765900  0.355400  1.0
  C  C777  1  0.370100  0.278800  0.661000  1.0
  C  C778  1  0.629900  0.721200  0.339000  1.0
  C  C779  1  0.336400  0.293900  0.707300  1.0
  C  C780  1  0.663600  0.706100  0.292700  1.0
  C  C781  1  0.463700  0.161700  0.657900  1.0
  C  C782  1  0.536300  0.838300  0.342100  1.0
  C  C783  1  0.502700  0.126000  0.642300  1.0
  C  C784  1  0.497300  0.874000  0.357700  1.0
  C  C785  1  0.552100  0.084600  0.624700  1.0
  C  C786  1  0.447900  0.915400  0.375300  1.0
  C  C787  1  0.586000  0.070700  0.577700  1.0
  C  C788  1  0.414000  0.929300  0.422300  1.0
  C  C789  1  0.634300  0.032100  0.561700  1.0
  C  C790  1  0.365700  0.967900  0.438300  1.0
  C  C791  1  0.648300  0.005200  0.590900  1.0
  C  C792  1  0.351700  0.994800  0.409100  1.0
  C  C793  1  0.613700  0.018600  0.637200  1.0
  C  C794  1  0.386300  0.981400  0.362800  1.0
  C  C795  1  0.566400  0.059000  0.653900  1.0
  C  C796  1  0.433600  0.941000  0.346100  1.0
  C  C797  1  0.697600  0.963300  0.573500  1.0
  C  C798  1  0.302400  0.036700  0.426500  1.0
  C  C799  1  0.737800  0.928700  0.561900  1.0
  C  C800  1  0.262200  0.071300  0.438100  1.0
  C  C801  1  0.786700  0.887500  0.548000  1.0
  C  C802  1  0.213300  0.112500  0.452000  1.0
  C  C803  1  0.835500  0.885300  0.518200  1.0
  C  C804  1  0.164500  0.114700  0.481800  1.0
  C  C805  1  0.881300  0.810400  0.520400  1.0
  C  C806  1  0.118700  0.189600  0.479600  1.0
  C  C807  1  0.835300  0.809100  0.549800  1.0
  C  C808  1  0.164700  0.190900  0.450200  1.0
  C  C809  1  0.787200  0.848100  0.564000  1.0
  C  C810  1  0.212800  0.151900  0.436000  1.0
  C  C811  1  0.362000  0.311900  0.630900  1.0
  C  C812  1  0.638000  0.688100  0.369100  1.0
  C  C813  1  0.387000  0.340200  0.623000  1.0
  C  C814  1  0.613000  0.659800  0.377000  1.0
  C  C815  1  0.405400  0.396500  0.595600  1.0
  C  C816  1  0.594600  0.603500  0.404400  1.0
  C  C817  1  0.431600  0.379600  0.621000  1.0
  C  C818  1  0.568400  0.620400  0.379000  1.0
  C  C819  1  0.421600  0.343700  0.638400  1.0
  C  C820  1  0.578400  0.656300  0.361600  1.0
  C  C821  1  0.329000  0.314800  0.612000  1.0
  C  C822  1  0.671000  0.685200  0.388000  1.0
  C  C823  1  0.287500  0.340500  0.570800  1.0
  C  C824  1  0.712500  0.659500  0.429200  1.0
  C  C825  1  0.276300  0.305500  0.588300  1.0
  C  C826  1  0.723700  0.694500  0.411700  1.0
  C  C827  1  0.301500  0.288500  0.613900  1.0
  C  C828  1  0.698500  0.711500  0.386100  1.0
  C  C829  1  0.374000  0.161600  0.754400  1.0
  C  C830  1  0.626000  0.838400  0.245600  1.0
  C  C831  1  0.401300  0.437000  0.574000  1.0
  C  C832  1  0.598700  0.563000  0.426000  1.0
  C  C833  1  0.446500  0.315700  0.665000  1.0
  C  C834  1  0.553500  0.684300  0.335000  1.0
  C  C835  1  0.266500  0.369300  0.542000  1.0
  C  C836  1  0.733500  0.630700  0.458000  1.0
  C  C837  1  0.303100  0.248800  0.635800  1.0
  C  C838  1  0.696900  0.751200  0.364200  1.0
  C  C839  1  0.193300  0.492700  0.136500  1.0
  C  C840  1  0.806700  0.507300  0.863500  1.0
  C  C841  1  0.149600  0.514500  0.128800  1.0
  C  C842  1  0.850400  0.485500  0.871200  1.0
  C  C843  1  0.091000  0.530100  0.203400  1.0
  C  C844  1  0.909000  0.469900  0.796600  1.0
  C  C845  1  0.132000  0.510100  0.214600  1.0
  C  C846  1  0.868000  0.489900  0.785400  1.0
  C  C847  1  0.184400  0.491000  0.180800  1.0
  C  C848  1  0.815600  0.509000  0.819200  1.0
  C  C849  1  0.246500  0.470300  0.099100  1.0
  C  C850  1  0.753500  0.529700  0.900900  1.0
  C  C851  1  0.282700  0.455300  0.061600  1.0
  C  C852  1  0.717300  0.544700  0.938400  1.0
  C  C853  1  0.330700  0.433600  0.018700  1.0
  C  C854  1  0.669300  0.566400  0.981300  1.0
  C  C855  1  0.370300  0.390700  0.013700  1.0
  C  C856  1  0.629700  0.609300  0.986300  1.0
  C  C857  1  0.417700  0.370800  0.973700  1.0
  C  C858  1  0.582300  0.629200  0.026300  1.0
  C  C859  1  0.425100  0.393100  0.937600  1.0
  C  C860  1  0.574900  0.606900  0.062400  1.0
  C  C861  1  0.385200  0.436300  0.942600  1.0
  C  C862  1  0.614800  0.563700  0.057400  1.0
  C  C863  1  0.338200  0.456200  0.982800  1.0
  C  C864  1  0.661800  0.543800  0.017200  1.0
  C  C865  1  0.472100  0.369800  0.894500  1.0
  C  C866  1  0.527900  0.630200  0.105500  1.0
  C  C867  1  0.506700  0.358200  0.856400  1.0
  C  C868  1  0.493300  0.641800  0.143600  1.0
  C  C869  1  0.549300  0.346100  0.811300  1.0
  C  C870  1  0.450700  0.653900  0.188700  1.0
  C  C871  1  0.591400  0.300800  0.793200  1.0
  C  C872  1  0.408600  0.699200  0.206800  1.0
  C  C873  1  0.631200  0.290000  0.748900  1.0
  C  C874  1  0.368800  0.710000  0.251100  1.0
  C  C875  1  0.631800  0.323800  0.723600  1.0
  C  C876  1  0.368200  0.676200  0.276400  1.0
  C  C877  1  0.591000  0.368400  0.741400  1.0
  C  C878  1  0.409000  0.631600  0.258600  1.0
  C  C879  1  0.549100  0.378900  0.784700  1.0
  C  C880  1  0.450900  0.621100  0.215300  1.0
  C  C881  1  0.670400  0.243300  0.725900  1.0
  C  C882  1  0.329600  0.756700  0.274100  1.0
  C  C883  1  0.701300  0.203700  0.710300  1.0
  C  C884  1  0.298700  0.796300  0.289700  1.0
  C  C885  1  0.740600  0.157000  0.687800  1.0
  C  C886  1  0.259400  0.843000  0.312200  1.0
  C  C887  1  0.775700  0.147800  0.642200  1.0
  C  C888  1  0.224300  0.852200  0.357800  1.0
  C  C889  1  0.813900  0.103600  0.619100  1.0
  C  C890  1  0.186100  0.896400  0.380900  1.0
  C  C891  1  0.816800  0.067300  0.641500  1.0
  C  C892  1  0.183200  0.932700  0.358500  1.0
  C  C893  1  0.781600  0.076600  0.687200  1.0
  C  C894  1  0.218400  0.923400  0.312800  1.0
  C  C895  1  0.743900  0.120900  0.710100  1.0
  C  C896  1  0.256100  0.879100  0.289900  1.0
  C  C897  1  0.855100  0.021500  0.616300  1.0
  C  C898  1  0.144900  0.978500  0.383700  1.0
  C  C899  1  0.885700  0.982100  0.598900  1.0
  C  C900  1  0.114300  0.017900  0.401100  1.0
  C  C901  1  0.921500  0.935400  0.574500  1.0
  C  C902  1  0.078500  0.064600  0.425500  1.0
  C  C903  1  0.921800  0.916800  0.537100  1.0
  C  C904  1  0.078200  0.083200  0.462900  1.0
  C  C905  1  0.987000  0.846600  0.529900  1.0
  C  C906  1  0.013000  0.153400  0.470100  1.0
  C  C907  1  0.991200  0.861100  0.566300  1.0
  C  C908  1  0.008800  0.138900  0.433700  1.0
  C  C909  1  0.957500  0.906600  0.588900  1.0
  C  C910  1  0.042500  0.093400  0.411100  1.0
  C  C911  1  0.590900  0.404600  0.714900  1.0
  C  C912  1  0.409100  0.595400  0.285100  1.0
  C  C913  1  0.614300  0.431900  0.717800  1.0
  C  C914  1  0.385700  0.568100  0.282200  1.0
  C  C915  1  0.640600  0.485700  0.700700  1.0
  C  C916  1  0.359400  0.514300  0.299300  1.0
  C  C917  1  0.660300  0.463200  0.728800  1.0
  C  C918  1  0.339700  0.536800  0.271200  1.0
  C  C919  1  0.644600  0.429500  0.740500  1.0
  C  C920  1  0.355400  0.570500  0.259500  1.0
  C  C921  1  0.567500  0.409700  0.686400  1.0
  C  C922  1  0.432500  0.590300  0.313600  1.0
  C  C923  1  0.542400  0.440000  0.635900  1.0
  C  C924  1  0.457600  0.560000  0.364100  1.0
  C  C925  1  0.531200  0.402400  0.643700  1.0
  C  C926  1  0.468800  0.597600  0.356300  1.0
  C  C927  1  0.545800  0.383400  0.675400  1.0
  C  C928  1  0.454200  0.616600  0.324600  1.0
  C  C929  1  0.562700  0.243800  0.814000  1.0
  C  C930  1  0.437300  0.756200  0.186000  1.0
  C  C931  1  0.649300  0.523800  0.679100  1.0
  C  C932  1  0.350700  0.476200  0.320900  1.0
  C  C933  1  0.657200  0.396600  0.770400  1.0
  C  C934  1  0.342800  0.603400  0.229600  1.0
  C  C935  1  0.531500  0.470300  0.604100  1.0
  C  C936  1  0.468500  0.529700  0.395900  1.0
  C  C937  1  0.535900  0.345200  0.695100  1.0
  C  C938  1  0.464100  0.654800  0.304900  1.0
  C  C939  1  0.078500  0.156100  0.647500  1.0
  C  C940  1  0.921500  0.843900  0.352500  1.0
  C  C941  1  0.075500  0.143200  0.609600  1.0
  C  C942  1  0.924500  0.856800  0.390400  1.0
  C  C943  1  0.042300  0.216000  0.599500  1.0
  C  C944  1  0.957700  0.784000  0.400500  1.0
  C  C945  1  0.041800  0.232900  0.637700  1.0
  C  C946  1  0.958200  0.767100  0.362300  1.0
  C  C947  1  0.059600  0.203000  0.662700  1.0
  C  C948  1  0.940400  0.797000  0.337300  1.0
  C  C949  1  0.101400  0.123200  0.670300  1.0
  C  C950  1  0.898600  0.876800  0.329700  1.0
  C  C951  1  0.118400  0.091100  0.686000  1.0
  C  C952  1  0.881600  0.908900  0.314000  1.0
  C  C953  1  0.137000  0.052600  0.705500  1.0
  C  C954  1  0.863000  0.947400  0.294500  1.0
  C  C955  1  0.117500  0.055900  0.752200  1.0
  C  C956  1  0.882500  0.944100  0.247800  1.0
  C  C957  1  0.137500  0.018800  0.770400  1.0
  C  C958  1  0.862500  0.981200  0.229600  1.0
  C  C959  1  0.177000  0.977000  0.741600  1.0
  C  C960  1  0.823000  0.023000  0.258400  1.0
  C  C961  1  0.196300  0.972900  0.694800  1.0
  C  C962  1  0.803700  0.027100  0.305200  1.0
  C  C963  1  0.177200  0.010100  0.676700  1.0
  C  C964  1  0.822800  0.989900  0.323300  1.0
  C  C965  1  0.198900  0.937000  0.758600  1.0
  C  C966  1  0.801100  0.063000  0.241400  1.0
  C  C967  1  0.218700  0.901200  0.768100  1.0
  C  C968  1  0.781300  0.098800  0.231900  1.0
  C  C969  1  0.243600  0.857600  0.778100  1.0
  C  C970  1  0.756400  0.142400  0.221900  1.0
  C  C971  1  0.218100  0.846200  0.819100  1.0
  C  C972  1  0.781900  0.153800  0.180900  1.0
  C  C973  1  0.245400  0.803300  0.826300  1.0
  C  C974  1  0.754600  0.196700  0.173700  1.0
  C  C975  1  0.295900  0.771300  0.793400  1.0
  C  C976  1  0.704100  0.228700  0.206600  1.0
  C  C977  1  0.320100  0.782600  0.752300  1.0
  C  C978  1  0.679900  0.217400  0.247700  1.0
  C  C979  1  0.293700  0.826000  0.745300  1.0
  C  C980  1  0.706300  0.174000  0.254700  1.0
  C  C981  1  0.224600  0.788400  0.867500  1.0
  C  C982  1  0.775400  0.211600  0.132500  1.0
  C  C983  1  0.208300  0.773900  0.900400  1.0
  C  C984  1  0.791700  0.226100  0.099600  1.0
  C  C985  1  0.183300  0.758100  0.939600  1.0
  C  C986  1  0.816700  0.241900  0.060400  1.0
  C  C987  1  0.212600  0.715300  0.945500  1.0
  C  C988  1  0.787400  0.284700  0.054500  1.0
  C  C989  1  0.187700  0.697900  0.980900  1.0
  C  C990  1  0.812300  0.302100  0.019100  1.0
  C  C991  1  0.134000  0.723700  0.011800  1.0
  C  C992  1  0.866000  0.276300  0.988200  1.0
  C  C993  1  0.105300  0.766400  0.005400  1.0
  C  C994  1  0.894700  0.233600  0.994600  1.0
  C  C995  1  0.129800  0.783600  0.969300  1.0
  C  C996  1  0.870200  0.216400  0.030700  1.0
  C  C997  1  0.109700  0.706700  0.050800  1.0
  C  C998  1  0.890300  0.293300  0.949200  1.0
  C  C999  1  0.087800  0.694100  0.083600  1.0
  C  C1000  1  0.912200  0.305900  0.916400  1.0
  C  C1001  1  0.061000  0.680500  0.124100  1.0
  C  C1002  1  0.939000  0.319500  0.875900  1.0
  C  C1003  1  0.060800  0.638100  0.121800  1.0
  C  C1004  1  0.939200  0.361900  0.878200  1.0
  C  C1005  1  0.006400  0.652900  0.198000  1.0
  C  C1006  1  0.993600  0.347100  0.802000  1.0
  C  C1007  1  0.004500  0.695700  0.203800  1.0
  C  C1008  1  0.995500  0.304300  0.796200  1.0
  C  C1009  1  0.032900  0.709400  0.166500  1.0
  C  C1010  1  0.967100  0.290600  0.833500  1.0
  C  C1011  1  0.372500  0.749600  0.715500  1.0
  C  C1012  1  0.627500  0.250400  0.284500  1.0
  C  C1013  1  0.419000  0.750200  0.711100  1.0
  C  C1014  1  0.581000  0.249800  0.288900  1.0
  C  C1015  1  0.505500  0.729900  0.678100  1.0
  C  C1016  1  0.494500  0.270100  0.321900  1.0
  C  C1017  1  0.480800  0.763300  0.716900  1.0
  C  C1018  1  0.519200  0.236700  0.283100  1.0
  C  C1019  1  0.426800  0.777000  0.738100  1.0
  C  C1020  1  0.573200  0.223000  0.261900  1.0
  C  C1021  1  0.374700  0.718400  0.685600  1.0
  C  C1022  1  0.625300  0.281600  0.314400  1.0
  C  C1023  1  0.415000  0.658600  0.629000  1.0
  C  C1024  1  0.585000  0.341400  0.371000  1.0
  C  C1025  1  0.360800  0.671300  0.650100  1.0
  C  C1026  1  0.639200  0.328700  0.349900  1.0
  C  C1027  1  0.334600  0.708200  0.685400  1.0
  C  C1028  1  0.665400  0.291800  0.314600  1.0
  C  C1029  1  0.160700  0.910600  0.876800  1.0
  C  C1030  1  0.839300  0.089400  0.123200  1.0
  C  C1031  1  0.562800  0.706300  0.643200  1.0
  C  C1032  1  0.437200  0.293700  0.356800  1.0
  C  C1033  1  0.387600  0.812300  0.780900  1.0
  C  C1034  1  0.612400  0.187700  0.219100  1.0
  C  C1035  1  0.459500  0.616900  0.592900  1.0
  C  C1036  1  0.540500  0.383100  0.407100  1.0
  C  C1037  1  0.275500  0.731300  0.717200  1.0
  C  C1038  1  0.724500  0.268700  0.282800  1.0
  N  N1039  1  0.794300  0.545700  0.609900  1.0
  N  N1040  1  0.205700  0.454300  0.390100  1.0
  N  N1041  1  0.268200  0.328900  0.409500  1.0
  N  N1042  1  0.731800  0.671100  0.590500  1.0
  N  N1043  1  0.596200  0.113200  0.734300  1.0
  N  N1044  1  0.403800  0.886800  0.265700  1.0
  N  N1045  1  0.682400  0.058200  0.668900  1.0
  N  N1046  1  0.317600  0.941800  0.331100  1.0
  N  N1047  1  0.711000  0.627400  0.662900  1.0
  N  N1048  1  0.289000  0.372600  0.337100  1.0
  N  N1049  1  0.181200  0.413500  0.466800  1.0
  N  N1050  1  0.818800  0.586500  0.533200  1.0
  N  N1051  1  0.025600  0.804600  0.925900  1.0
  N  N1052  1  0.974400  0.195400  0.074100  1.0
  N  N1053  1  0.031600  0.743200  0.971100  1.0
  N  N1054  1  0.968400  0.256800  0.028900  1.0
  N  N1055  1  0.023100  0.407000  0.864300  1.0
  N  N1056  1  0.976900  0.593000  0.135700  1.0
  N  N1057  1  0.017900  0.847800  0.419400  1.0
  N  N1058  1  0.982100  0.152200  0.580600  1.0
  N  N1059  1  0.774200  0.375500  0.421900  1.0
  N  N1060  1  0.225800  0.624500  0.578100  1.0
  N  N1061  1  0.842500  0.390800  0.430000  1.0
  N  N1062  1  0.157500  0.609200  0.570000  1.0
  N  N1063  1  0.038400  0.503300  0.139600  1.0
  N  N1064  1  0.961600  0.496700  0.860400  1.0
  N  N1065  1  0.882100  0.847400  0.504200  1.0
  N  N1066  1  0.117900  0.152600  0.495800  1.0
  N  N1067  1  0.378900  0.372400  0.596300  1.0
  N  N1068  1  0.621100  0.627600  0.403700  1.0
  N  N1069  1  0.319800  0.346100  0.584500  1.0
  N  N1070  1  0.680200  0.653900  0.415500  1.0
  N  N1071  1  0.098800  0.533400  0.161000  1.0
  N  N1072  1  0.901200  0.466600  0.839000  1.0
  N  N1073  1  0.953600  0.872800  0.515400  1.0
  N  N1074  1  0.046400  0.127200  0.484600  1.0
  N  N1075  1  0.612500  0.467100  0.693700  1.0
  N  N1076  1  0.387500  0.532900  0.306300  1.0
  N  N1077  1  0.564400  0.444200  0.661500  1.0
  N  N1078  1  0.435600  0.555800  0.338500  1.0
  N  N1079  1  0.058200  0.171800  0.585100  1.0
  N  N1080  1  0.941800  0.828200  0.414900  1.0
  N  N1081  1  0.033900  0.624100  0.157800  1.0
  N  N1082  1  0.966100  0.375900  0.842200  1.0
  N  N1083  1  0.468200  0.721400  0.674800  1.0
  N  N1084  1  0.531800  0.278600  0.325200  1.0
  N  N1085  1  0.423400  0.687800  0.649600  1.0
  N  N1086  1  0.576600  0.312200  0.350400  1.0
  O  O1087  1  0.608600  0.269700  0.555300  1.0
  O  O1088  1  0.391400  0.730300  0.444700  1.0
  O  O1089  1  0.280300  0.595000  0.742600  1.0
  O  O1090  1  0.719700  0.405000  0.257400  1.0
  O  O1091  1  0.020000  0.198300  0.208000  1.0
  O  O1092  1  0.980000  0.801700  0.792000  1.0
  O  O1093  1  0.394800  0.193400  0.750200  1.0
  O  O1094  1  0.605200  0.806600  0.249800  1.0
  O  O1095  1  0.589900  0.268300  0.819200  1.0
  O  O1096  1  0.410100  0.731700  0.180800  1.0
  O  O1097  1  0.166300  0.874500  0.849600  1.0
  O  O1098  1  0.833700  0.125500  0.150400  1.0
  F  F1099  1  0.669500  0.062700  0.745900  1.0
  F  F1100  1  0.330500  0.937300  0.254100  1.0
  F  F1101  1  0.628600  0.031400  0.725300  1.0
  F  F1102  1  0.371400  0.968600  0.274700  1.0
  F  F1103  1  0.993900  0.820800  0.007000  1.0
  F  F1104  1  0.006100  0.179200  0.993000  1.0
  F  F1105  1  0.946200  0.802500  0.982700  1.0
  F  F1106  1  0.053800  0.197500  0.017300  1.0
  F  F1107  1  0.749600  0.445400  0.466000  1.0
  F  F1108  1  0.250400  0.554600  0.534000  1.0
  F  F1109  1  0.778500  0.377300  0.492100  1.0
  F  F1110  1  0.221500  0.622700  0.507900  1.0
  F  F1111  1  0.301900  0.426500  0.592700  1.0
  F  F1112  1  0.698100  0.573500  0.407300  1.0
  F  F1113  1  0.369700  0.377100  0.527500  1.0
  F  F1114  1  0.630300  0.622900  0.472500  1.0
  F  F1115  1  0.538300  0.522900  0.684000  1.0
  F  F1116  1  0.461700  0.477100  0.316000  1.0
  F  F1117  1  0.614700  0.483000  0.620900  1.0
  F  F1118  1  0.385300  0.517000  0.379100  1.0
  F  F1119  1  0.492500  0.704000  0.596500  1.0
  F  F1120  1  0.507500  0.296000  0.403500  1.0
  F  F1121  1  0.515200  0.643100  0.629800  1.0
  F  F1122  1  0.484800  0.356900  0.370200  1.0
