
#######################################################################
#
#                 Cambridge Crystallographic Data Centre
#                                CCDC 
#
#######################################################################
#
# If this CIF has been generated from an entry in the Cambridge 
# Structural Database, then it will include bibliographic, chemical, 
# crystal, experimental, refinement or atomic coordinate data resulting 
# from the CCDC's data processing and validation procedures.
#
#######################################################################

data_PIKDEV
_chemical_formula_moiety         'C110 H82 Cu4 N2 O24'
_chemical_name_systematic        
"tetrakis(\m-3,3'-[(5-ethoxy-1,3-phenylene)di(ethyne-2,1-diyl)]dibenzoato)-diaqua-bis(N,N-dimethylformamide)-tetra-copper unknown solvate"
_symmetry_cell_setting           triclinic
_symmetry_space_group_name_H-M   'P -1'
_symmetry_Int_Tables_number      2
_space_group_name_Hall           '-P 1'
loop_
_symmetry_equiv_pos_site_id
_symmetry_equiv_pos_as_xyz
1 x,y,z
2 -x,-y,-z
_cell_length_a                   15.9653(3)
_cell_length_b                   17.6910(4)
_cell_length_c                   18.2258(5)
_cell_angle_alpha                61.811(2)
_cell_angle_beta                 88.110(2)
_cell_angle_gamma                64.125(2)
_cell_volume                     3983.8
_exptl_crystal_colour            blue
_exptl_crystal_description       block
_cell_formula_units_Z            1
loop_
_atom_site_label
_atom_site_type_symbol
_atom_site_fract_x
_atom_site_fract_y
_atom_site_fract_z
Cu1 Cu 0.74633(2) -0.17654(2) 0.82356(2)
Cu2 Cu 1.15945(2) 0.10571(2) 0.28730(2)
O1 O 0.48901(11) 0.12406(11) -0.02290(10)
O2 O 1.18111(10) 0.17372(11) 0.09300(9)
O3 O 0.73224(11) 0.01828(10) 0.69105(10)
O4 O 0.65056(10) -0.04051(10) 0.78420(9)
O5 O 0.67288(11) -0.24700(11) 0.90598(10)
O6 O 1.09693(10) 0.12038(11) 0.18675(10)
O7 O 0.36597(12) 0.77450(11) 0.19339(10)
O8 O 1.06687(11) 0.24210(11) 0.24994(10)
O9 O 0.76466(11) -0.10394(12) 0.62815(10)
O10 O 1.14555(12) 0.30080(11) 0.15272(11)
O11 O 0.68646(12) -0.16581(13) 0.72351(10)
C1 C 0.55157(17) 0.05550(17) 0.12736(15)
H1 H 0.496009 0.051158 0.143773
C2 C 0.55829(16) 0.09199(16) 0.04225(15)
C3 C 0.66130(15) 0.02804(15) 0.72469(13)
C4 C 1.06310(15) 0.14749(15) 0.04929(14)
O12 O 1.08550(15) 0.03622(16) 0.36891(13)
H2 H 1.081526 0.025586 0.420950
H3 H 1.052461 0.011751 0.359178
C5 C 0.58099(15) 0.12988(15) 0.68853(14)
C6 C 0.93819(17) 0.12142(19) 0.01098(16)
C7 C 1.11801(14) 0.14725(14) 0.11442(14)
C8 C 0.99059(16) 0.12207(17) 0.07004(15)
H4 H 0.976858 0.105036 0.125069
C9 C 0.28011(16) 0.79892(17) 0.22535(16)
H5 H 0.294718 0.784679 0.284250
H6 H 0.249638 0.760586 0.225711
C10 C 0.40625(15) 0.11080(17) -0.00219(15)
H7 H 0.372053 0.145575 0.027794
H8 H 0.425488 0.040641 0.034902
C11 C 0.58373(16) 0.20538(16) 0.61413(15)
H9 H 0.638420 0.192486 0.590038
C12 C 0.63935(17) 0.10017(18) 0.01792(15)
H10 H 0.643463 0.125266 -0.040281
C13 C 0.34367(16) 0.15258(18) -0.08602(16)
H11 H 0.322273 0.222767 -0.120588
H12 H 0.288111 0.141881 -0.075509
H13 H 0.379911 0.120267 -0.116505
C14 C 0.62783(19) 0.0252(2) 0.18872(16)
C15 C 0.21501(17) 0.90642(17) 0.16638(16)
H14 H 0.247100 0.943205 0.164921
H15 H 0.156314 0.926972 0.187025
H16 H 0.199251 0.919027 0.108838
C16 C 1.00156(18) 0.41329(17) 0.16017(15)
C17 C 0.50139(17) 0.14971(17) 0.72430(15)
H17 H 0.499801 0.099201 0.775615
C18 C 0.86116(18) 0.0991(2) 0.03304(16)
C19 C 0.50657(18) 0.29929(17) 0.57533(16)
C20 C 1.07729(16) 0.31112(16) 0.19030(14)
C21 C 0.70438(18) -0.13368(18) 0.65015(15)
C22 C 0.71398(18) 0.0716(2) 0.07874(16)
C23 C 0.92119(18) 0.43120(17) 0.19517(16)
H18 H 0.915875 0.378256 0.240630
C24 C 0.44069(18) 0.68268(17) 0.24125(16)
C25 C 0.51003(18) 0.37664(17) 0.49868(17)
C26 C 0.96068(19) 0.1436(2) -0.06895(17)
H19 H 0.926385 0.141829 -0.109247
C27 C 0.6222(2) -0.0145(2) 0.27733(17)
C28 C 1.08373(17) 0.17104(19) -0.03090(16)
H20 H 1.132404 0.189196 -0.045829
C29 C 0.43612(19) 0.60839(17) 0.31410(17)
H21 H 0.378126 0.619256 0.333236
C30 C 0.42628(19) 0.31698(18) 0.61124(18)
H22 H 0.372630 0.380424 0.584475
C31 C 1.0095(2) 0.49169(18) 0.09435(17)
H23 H 1.064860 0.480331 0.071133
C32 C 0.60581(19) 0.57557(18) 0.25662(17)
C33 C 0.79462(19) 0.0854(2) 0.05346(16)
C34 C 0.52469(18) 0.66681(17) 0.21164(16)
H24 H 0.526858 0.717756 0.161113
C35 C 0.6933(2) 0.55915(18) 0.22580(18)
C36 C 0.9366(2) 0.58576(18) 0.06309(17)
H25 H 0.941939 0.638685 0.017668
C37 C 0.84829(19) 0.52672(18) 0.16371(17)
C38 C 0.8565(2) 0.60419(18) 0.09648(17)
H26 H 0.806768 0.669324 0.074009
C39 C 0.7641(2) 0.54444(18) 0.19913(18)
C40 C 0.42472(19) 0.24270(19) 0.68530(18)
H27 H 0.370318 0.255645 0.709748
C41 C 0.7085(2) 0.0332(2) 0.16469(17)
H28 H 0.759777 0.012649 0.206503
C42 C 1.0332(2) 0.1681(2) -0.08929(18)
H29 H 1.048510 0.182967 -0.143600
C43 C 0.51435(19) 0.43969(18) 0.43575(18)
C44 C 0.6347(4) -0.1121(4) 0.5779(4)
C45 C 0.60245(19) 0.50059(17) 0.33020(17)
H30 H 0.657629 0.438459 0.360421
C46 C 0.51834(19) 0.51668(17) 0.35942(17)
C47 C 0.5919(4) -0.0657(4) 0.4315(4)
C48 C 0.4961(5) -0.1121(6) 0.5296(4)
H31 H 0.442485 -0.122680 0.541223
C49 C 0.5132(5) -0.0811(5) 0.4484(3)
H32 H 0.471708 -0.070422 0.404335
C50 C 0.5557(4) -0.1279(5) 0.5937(3)
H33 H 0.543285 -0.149771 0.649424
C51 C 0.6510(6) -0.0795(5) 0.4961(6)
H34 H 0.703194 -0.066505 0.483940
C52 C 0.6064(7) -0.0321(5) 0.3470(5)
N1 N 0.5675(2) -0.3037(2) 0.92885(17)
C53 C 0.6118(2) -0.2571(2) 0.88055(19)
H35 H 0.594144 -0.228974 0.820693
C54 C 0.5830(3) -0.3417(3) 1.0174(2)
H36 H 0.602037 -0.411411 1.046931
H37 H 0.524058 -0.307315 1.031899
H38 H 0.633622 -0.332712 1.035097
C55 C 0.4853(4) -0.3027(5) 0.8920(3)
H39 H 0.428810 -0.272971 0.911623
H40 H 0.500058 -0.369805 0.910456
H41 H 0.472701 -0.264796 0.829616
Cu1A Cu 1.25367(2) 0.17654(2) 0.17644(2)
Cu2A Cu 0.84055(2) -0.10571(2) 0.71270(2)
O1A O 1.51099(11) -0.12406(11) 1.02290(10)
O2A O 0.81889(10) -0.17372(11) 0.90700(9)
O3A O 1.26776(11) -0.01828(10) 0.30895(10)
O4A O 1.34944(10) 0.04051(10) 0.21580(9)
O5A O 1.32712(11) 0.24700(11) 0.09402(10)
O6A O 0.90307(10) -0.12038(11) 0.81325(10)
O7A O 1.63403(12) -0.77450(11) 0.80661(10)
O8A O 0.93313(11) -0.24210(11) 0.75006(10)
O9A O 1.23534(11) 0.10394(12) 0.37185(10)
O10A O 0.85445(12) -0.30080(11) 0.84728(11)
O11A O 1.31354(12) 0.16581(13) 0.27649(10)
C1A C 1.44843(17) -0.05550(17) 0.87264(15)
H1A H 1.503991 -0.051158 0.856227
C2A C 1.44171(16) -0.09199(16) 0.95775(15)
C3A C 1.33870(15) -0.02804(15) 0.27531(13)
C4A C 0.93690(15) -0.14749(15) 0.95071(14)
O12A O 0.91450(15) -0.03622(16) 0.63109(13)
H2A H 0.918474 -0.025586 0.579050
H3A H 0.947539 -0.011751 0.640822
C5A C 1.41901(15) -0.12988(15) 0.31147(14)
C6A C 1.06181(17) -0.12142(19) 0.98902(16)
C7A C 0.88199(14) -0.14725(14) 0.88558(14)
C8A C 1.00941(16) -0.12207(17) 0.92996(15)
H4A H 1.023142 -0.105036 0.874931
C9A C 1.71989(16) -0.79892(17) 0.77465(16)
H5A H 1.705282 -0.784679 0.715750
H6A H 1.750362 -0.760586 0.774289
C10A C 1.59375(15) -0.11080(17) 1.00219(15)
H7A H 1.627947 -0.145575 0.972206
H8A H 1.574512 -0.040641 0.965098
C11A C 1.41627(16) -0.20538(16) 0.38587(15)
H9A H 1.361580 -0.192486 0.409962
C12A C 1.36065(17) -0.10017(18) 0.98208(15)
H10A H 1.356537 -0.125266 1.040281
C13A C 1.65633(16) -0.15258(18) 1.08602(16)
H11A H 1.677727 -0.222767 1.120588
H12A H 1.711889 -0.141881 1.075509
H13A H 1.620089 -0.120267 1.116505
C14A C 1.37217(19) -0.0252(2) 0.81128(16)
C15A C 1.78499(17) -0.90642(17) 0.83362(16)
H14A H 1.752900 -0.943205 0.835079
H15A H 1.843686 -0.926972 0.812975
H16A H 1.800749 -0.919027 0.891162
C16A C 0.99844(18) -0.41329(17) 0.83983(15)
C17A C 1.49861(17) -0.14971(17) 0.27570(15)
H17A H 1.500199 -0.099201 0.224385
C18A C 1.13884(18) -0.0991(2) 0.96696(16)
C19A C 1.49343(18) -0.29929(17) 0.42467(16)
C20A C 0.92271(16) -0.31112(16) 0.80970(14)
C21A C 1.29562(18) 0.13368(18) 0.34985(15)
C22A C 1.28602(18) -0.0716(2) 0.92126(16)
C23A C 1.07881(18) -0.43120(17) 0.80483(16)
H18A H 1.084125 -0.378256 0.759370
C24A C 1.55931(18) -0.68268(17) 0.75875(16)
C25A C 1.48997(18) -0.37664(17) 0.50132(17)
C26A C 1.03932(19) -0.1436(2) 1.06895(17)
H19A H 1.073615 -0.141829 1.109247
C27A C 1.3778(2) 0.0145(2) 0.72267(17)
C28A C 0.91627(17) -0.17104(19) 1.03090(16)
H20A H 0.867596 -0.189196 1.045829
C29A C 1.56388(19) -0.60839(17) 0.68590(17)
H21A H 1.621874 -0.619256 0.666764
C30A C 1.57372(19) -0.31698(18) 0.38876(18)
H22A H 1.627370 -0.380424 0.415525
C31A C 0.9905(2) -0.49169(18) 0.90565(17)
H23A H 0.935140 -0.480331 0.928867
C32A C 1.39419(19) -0.57557(18) 0.74338(17)
C33A C 1.20538(19) -0.0854(2) 0.94654(16)
C34A C 1.47531(18) -0.66681(17) 0.78836(16)
H24A H 1.473142 -0.717756 0.838887
C35A C 1.3067(2) -0.55915(18) 0.77420(18)
C36A C 1.0634(2) -0.58576(18) 0.93691(17)
H25A H 1.058061 -0.638685 0.982332
C37A C 1.15171(19) -0.52672(18) 0.83629(17)
C38A C 1.1435(2) -0.60419(18) 0.90352(17)
H26A H 1.193232 -0.669324 0.925991
C39A C 1.2359(2) -0.54444(18) 0.80087(18)
C40A C 1.57528(19) -0.24270(19) 0.31470(18)
H27A H 1.629682 -0.255645 0.290252
C41A C 1.2915(2) -0.0332(2) 0.83531(17)
H28A H 1.240223 -0.012649 0.793497
C42A C 0.9668(2) -0.1681(2) 1.08929(18)
H29A H 0.951490 -0.182967 1.143600
C43A C 1.48565(19) -0.43969(18) 0.56425(18)
C44A C 1.3653(4) 0.1121(4) 0.4221(4)
C45A C 1.39755(19) -0.50059(17) 0.66980(17)
H30A H 1.342371 -0.438459 0.639579
C46A C 1.48166(19) -0.51668(17) 0.64058(17)
C47A C 1.4081(4) 0.0657(4) 0.5685(4)
C48A C 1.5039(5) 0.1121(6) 0.4704(4)
H31A H 1.557515 0.122680 0.458777
C49A C 1.4868(5) 0.0811(5) 0.5516(3)
H32A H 1.528292 0.070422 0.595665
C50A C 1.4443(4) 0.1279(5) 0.4063(3)
H33A H 1.456715 0.149771 0.350576
C51A C 1.3490(6) 0.0795(5) 0.5039(6)
H34A H 1.296806 0.066505 0.516060
C52A C 1.3936(7) 0.0321(5) 0.6530(5)
N1A N 1.4325(2) 0.3037(2) 0.07115(17)
C53A C 1.3882(2) 0.2571(2) 0.11945(19)
H35A H 1.405856 0.228974 0.179307
C54A C 1.4170(3) 0.3417(3) -0.0174(2)
H36A H 1.397963 0.411411 -0.046931
H37A H 1.475942 0.307315 -0.031899
H38A H 1.366378 0.332712 -0.035097
C55A C 1.5147(4) 0.3027(5) 0.1080(3)
H39A H 1.571190 0.272971 0.088377
H40A H 1.499942 0.369805 0.089544
H41A H 1.527299 0.264796 0.170384
loop_
_geom_bond_atom_site_label_1
_geom_bond_atom_site_label_2
_geom_bond_site_symmetry_1
_geom_bond_site_symmetry_2
Cu1 O4 1_555 1_555
Cu2 O6 1_555 1_555
O1 C2 1_555 1_555
O2 C7 1_555 1_555
O3 C3 1_555 1_555
O4 C3 1_555 1_555
O5 Cu1 1_555 1_555
O6 C7 1_555 1_555
O7 C9 1_555 1_555
O8 Cu2 1_555 1_555
O9 C21 1_555 1_555
O10 C20 1_555 1_555
O11 Cu1 1_555 1_555
C1 H1 1_555 1_555
C2 C1 1_555 1_555
C3 C5 1_555 1_555
C4 C7 1_555 1_555
O12 Cu2 1_555 1_555
H2 O12 1_555 1_555
H3 O12 1_555 1_555
C5 C11 1_555 1_555
C6 C8 1_555 1_555
C8 C4 1_555 1_555
H4 C8 1_555 1_555
C9 H5 1_555 1_555
H6 C9 1_555 1_555
C10 O1 1_555 1_555
H7 C10 1_555 1_555
H8 C10 1_555 1_555
C11 H9 1_555 1_555
C12 C2 1_555 1_555
H10 C12 1_555 1_555
C13 C10 1_555 1_555
H11 C13 1_555 1_555
H12 C13 1_555 1_555
H13 C13 1_555 1_555
C14 C1 1_555 1_555
C15 C9 1_555 1_555
H14 C15 1_555 1_555
H15 C15 1_555 1_555
H16 C15 1_555 1_555
C16 C20 1_555 1_555
C17 C5 1_555 1_555
H17 C17 1_555 1_555
C18 C6 1_555 1_555
C19 C11 1_555 1_555
C20 O8 1_555 1_555
C21 O11 1_555 1_555
C22 C12 1_555 1_555
C23 C16 1_555 1_555
H18 C23 1_555 1_555
C24 O7 1_555 1_555
C25 C19 1_555 1_555
C26 C6 1_555 1_555
H19 C26 1_555 1_555
C27 C14 1_555 1_555
C28 C4 1_555 1_555
H20 C28 1_555 1_555
C29 C24 1_555 1_555
H21 C29 1_555 1_555
C30 C19 1_555 1_555
H22 C30 1_555 1_555
C31 C16 1_555 1_555
H23 C31 1_555 1_555
C32 C34 1_555 1_555
C33 C18 1_555 1_555
C34 C24 1_555 1_555
H24 C34 1_555 1_555
C35 C32 1_555 1_555
C36 C31 1_555 1_555
H25 C36 1_555 1_555
C37 C23 1_555 1_555
C38 C36 1_555 1_555
H26 C38 1_555 1_555
C39 C35 1_555 1_555
C40 C17 1_555 1_555
H27 C40 1_555 1_555
C41 C14 1_555 1_555
H28 C41 1_555 1_555
C42 C26 1_555 1_555
H29 C42 1_555 1_555
C43 C25 1_555 1_555
C44 C21 1_555 1_555
C45 C32 1_555 1_555
H30 C45 1_555 1_555
C46 C29 1_555 1_555
C47 C49 1_555 1_555
C48 H31 1_555 1_555
C49 C48 1_555 1_555
H32 C49 1_555 1_555
C50 C44 1_555 1_555
H33 C50 1_555 1_555
C51 C44 1_555 1_555
H34 C51 1_555 1_555
C52 C27 1_555 1_555
N1 C53 1_555 1_555
C53 O5 1_555 1_555
H35 C53 1_555 1_555
C54 N1 1_555 1_555
H36 C54 1_555 1_555
H37 C54 1_555 1_555
H38 C54 1_555 1_555
C55 N1 1_555 1_555
H39 C55 1_555 1_555
H40 C55 1_555 1_555
H41 C55 1_555 1_555
Cu1A O2 1_555 1_555
Cu2A O3 1_555 1_555
O1A C2A 1_555 1_555
O2A Cu1 1_555 1_555
O3A Cu2 1_555 1_555
O4A Cu1A 1_555 1_555
O5A Cu1A 1_555 1_555
O6A Cu2A 1_555 1_555
O7A C9A 1_555 1_555
O8A Cu2A 1_555 1_555
O9A Cu2 1_555 1_555
O10A Cu1 1_555 1_555
O11A Cu1A 1_555 1_555
C1A H1A 1_555 1_555
C2A C1A 1_555 1_555
C3A O3A 1_555 1_555
C4A C7A 1_555 1_555
O12A Cu2A 1_555 1_555
H2A O12A 1_555 1_555
H3A O12A 1_555 1_555
C5A C3A 1_555 1_555
C6A C8A 1_555 1_555
C7A O2A 1_555 1_555
C8A C4A 1_555 1_555
H4A C8A 1_555 1_555
C9A H5A 1_555 1_555
H6A C9A 1_555 1_555
C10A O1A 1_555 1_555
H7A C10A 1_555 1_555
H8A C10A 1_555 1_555
C11A C5A 1_555 1_555
H9A C11A 1_555 1_555
C12A C2A 1_555 1_555
H10A C12A 1_555 1_555
C13A C10A 1_555 1_555
H11A C13A 1_555 1_555
H12A C13A 1_555 1_555
H13A C13A 1_555 1_555
C14A C1A 1_555 1_555
C15A C9A 1_555 1_555
H14A C15A 1_555 1_555
H15A C15A 1_555 1_555
H16A C15A 1_555 1_555
C16A C20A 1_555 1_555
C17A C5A 1_555 1_555
H17A C17A 1_555 1_555
C18A C6A 1_555 1_555
C19A C11A 1_555 1_555
C20A O8A 1_555 1_555
C21A O9A 1_555 1_555
C22A C12A 1_555 1_555
C23A C16A 1_555 1_555
H18A C23A 1_555 1_555
C24A O7A 1_555 1_555
C25A C19A 1_555 1_555
C26A C6A 1_555 1_555
H19A C26A 1_555 1_555
C27A C14A 1_555 1_555
C28A C4A 1_555 1_555
H20A C28A 1_555 1_555
C29A C24A 1_555 1_555
H21A C29A 1_555 1_555
C30A C19A 1_555 1_555
H22A C30A 1_555 1_555
C31A C16A 1_555 1_555
H23A C31A 1_555 1_555
C32A C34A 1_555 1_555
C33A C18A 1_555 1_555
C34A C24A 1_555 1_555
H24A C34A 1_555 1_555
C35A C32A 1_555 1_555
C36A C31A 1_555 1_555
H25A C36A 1_555 1_555
C37A C23A 1_555 1_555
C38A C36A 1_555 1_555
H26A C38A 1_555 1_555
C39A C35A 1_555 1_555
C40A C17A 1_555 1_555
H27A C40A 1_555 1_555
C41A C14A 1_555 1_555
H28A C41A 1_555 1_555
C42A C26A 1_555 1_555
H29A C42A 1_555 1_555
C43A C25A 1_555 1_555
C44A C21A 1_555 1_555
C45A C32A 1_555 1_555
H30A C45A 1_555 1_555
C46A C29A 1_555 1_555
C47A C49A 1_555 1_555
C48A H31A 1_555 1_555
C49A C48A 1_555 1_555
H32A C49A 1_555 1_555
C50A C44A 1_555 1_555
H33A C50A 1_555 1_555
C51A C44A 1_555 1_555
H34A C51A 1_555 1_555
C52A C27A 1_555 1_555
N1A C53A 1_555 1_555
C53A O5A 1_555 1_555
H35A C53A 1_555 1_555
C54A N1A 1_555 1_555
H36A C54A 1_555 1_555
H37A C54A 1_555 1_555
H38A C54A 1_555 1_555
C55A N1A 1_555 1_555
H39A C55A 1_555 1_555
H40A C55A 1_555 1_555
H41A C55A 1_555 1_555
O9 Cu2A 1_555 1_555
O10 Cu1A 1_555 1_555
C22 C33 1_555 1_555
C22 C41 1_555 1_555
C28 C42 1_555 1_555
C30 C40 1_555 1_555
C37 C38 1_555 1_555
C37 C39 1_555 1_555
C43 C46 1_555 1_555
C45 C46 1_555 1_555
C47 C51 1_555 1_555
C47 C52 1_555 1_555
C48 C50 1_555 1_555
O4A C3A 1_555 1_555
O6A C7A 1_555 1_555
O10A C20A 1_555 1_555
O11A C21A 1_555 1_555
C22A C33A 1_555 1_555
C22A C41A 1_555 1_555
C28A C42A 1_555 1_555
C30A C40A 1_555 1_555
C37A C38A 1_555 1_555
C37A C39A 1_555 1_555
C43A C46A 1_555 1_555
C45A C46A 1_555 1_555
C47A C51A 1_555 1_555
C47A C52A 1_555 1_555
C48A C50A 1_555 1_555

#END
