
#######################################################################
#
#                 Cambridge Crystallographic Data Centre
#                                CCDC 
#
#######################################################################
#
# If this CIF has been generated from an entry in the Cambridge 
# Structural Database, then it will include bibliographic, chemical, 
# crystal, experimental, refinement or atomic coordinate data resulting 
# from the CCDC's data processing and validation procedures.
#
#######################################################################

data_PIKDOF
_chemical_formula_moiety         'C112 H86 N2 O24 Rh4,C108 H80 O24 Rh4'
_chemical_name_systematic        
"tetrakis(\m-3,3'-[(5-ethoxy-1,3-phenylene)di(ethyne-2,1-diyl)]dibenzoato)-diaqua-bis(N,N-dimethylacetamide)-tetra-rhodium tetrakis(\m-3,3'-[(5-ethoxy-1,3-phenylene)di(ethyne-2,1-diyl)]dibenzoato)-tetrakis(methanol)-tetra-rhodium unknown solvate"
_symmetry_cell_setting           triclinic
_symmetry_space_group_name_H-M   'P -1'
_symmetry_Int_Tables_number      2
_space_group_name_Hall           '-P 1'
loop_
_symmetry_equiv_pos_site_id
_symmetry_equiv_pos_as_xyz
1 x,y,z
2 -x,-y,-z
_cell_length_a                   17.9146(2)
_cell_length_b                   18.0902(3)
_cell_length_c                   27.6891(3)
_cell_angle_alpha                77.3450(10)
_cell_angle_beta                 83.1250(10)
_cell_angle_gamma                61.9470(10)
_cell_volume                     7725.35
_exptl_crystal_colour            green
_exptl_crystal_description       plate
_cell_formula_units_Z            1
loop_
_atom_site_label
_atom_site_type_symbol
_atom_site_fract_x
_atom_site_fract_y
_atom_site_fract_z
Rh1 Rh 0.69399(2) 0.52397(2) 0.58467(2)
Rh2 Rh 0.20272(2) 0.46299(2) 0.37563(2)
O1 O 0.25043(16) 0.45427(16) 0.48154(9)
O2 O 0.15038(16) 0.44698(16) 0.44331(9)
O3 O 0.86820(16) 0.40770(16) 0.63262(9)
O4 O 0.64483(17) 0.50166(18) 0.65286(9)
O5 O 0.73991(17) 0.51828(18) 0.69022(10)
O6 O 0.27827(17) 0.33594(17) 0.38573(10)
O7 O 0.77178(17) 0.39782(16) 0.59180(10)
O8 O 0.37938(16) 0.34755(17) 0.42102(10)
O9 O 0.9596(2) -0.22465(19) 0.50763(14)
C1 C 0.1854(2) 0.4439(2) 0.48077(13)
C2 C 0.1764(2) 0.4262(2) 0.57301(13)
H1 H 0.222667 0.438435 0.571994
C3 C 0.1460(2) 0.4258(2) 0.52973(14)
C4 C 0.0701(3) 0.3927(3) 0.61914(15)
H2 H 0.043222 0.382718 0.649809
C5 C 0.0779(2) 0.4073(3) 0.53090(14)
H3 H 0.057815 0.405898 0.501047
C6 C 0.1392(2) 0.4087(2) 0.61818(14)
C7 C 0.0405(3) 0.3912(3) 0.57555(15)
H4 H -0.005865 0.379093 0.576528
C8 C 0.9000(3) 0.2737(2) 0.61582(15)
C9 C 0.5791(3) 0.4556(3) 0.74267(14)
H5 H 0.551130 0.463447 0.713509
C10 C 0.1738(3) 0.4044(3) 0.66384(15)
C11 C 0.8426(3) 0.3661(2) 0.61401(14)
C12 C 0.9776(3) 0.2351(3) 0.63867(18)
H6 H 0.992940 0.266672 0.655203
C13 C 0.3495(2) 0.3059(2) 0.40586(15)
C14 C 0.8777(3) 0.2272(3) 0.59254(17)
H7 H 0.824328 0.253402 0.577225
C15 C 0.2053(3) 0.3952(3) 0.70134(15)
C16 C 0.9087(3) -0.1404(3) 0.5075(2)
C17 C 0.4033(3) 0.2117(3) 0.4118(2)
C18 C 0.6795(3) 0.5003(3) 0.68979(14)
C19 C 0.6478(3) 0.4731(3) 0.73920(15)
C20 C 0.4845(3) 0.1742(3) 0.42910(17)
H8 H 0.505709 0.208088 0.438531
C21 C 0.5514(3) 0.4268(3) 0.78831(16)
C22 C 0.4815(3) 0.4083(3) 0.79170(14)
C23 C 1.0398(3) -0.2628(3) 0.52998(19)
H9 H 1.032742 -0.259569 0.565589
H10 H 1.073074 -0.232910 0.513862
C24 C 1.0844(3) -0.3544(3) 0.52353(19)
H11 H 1.088944 -0.356734 0.488217
H12 H 1.052068 -0.383860 0.540834
H13 H 1.141109 -0.382219 0.537351
C25 C 0.4231(3) 0.3933(3) 0.79357(15)
C26 C 0.9320(3) -0.0900(3) 0.5273(2)
H14 H 0.985573 -0.114006 0.542099
C27 C 0.3511(3) 0.3791(3) 0.79297(15)
C28 C 0.3130(3) 0.3959(3) 0.74786(15)
H15 H 0.334929 0.416349 0.717896
C29 C 0.9123(4) 0.0914(3) 0.5672(2)
C30 C 0.2427(3) 0.3824(3) 0.74733(15)
C31 C 1.0324(3) 0.1507(3) 0.6373(2)
H16 H 1.085270 0.124498 0.653216
C32 C 0.9337(3) 0.1413(3) 0.59139(19)
C33 C 0.8300(3) -0.1055(3) 0.4863(2)
H17 H 0.814895 -0.140088 0.472435
C34 C 0.8971(3) 0.0483(3) 0.5474(2)
C35 C 0.8753(4) -0.0033(3) 0.5253(2)
C36 C 0.6902(4) 0.0164(3) 0.4649(2)
C37 C 0.6912(4) 0.4572(5) 0.78191(19)
H18 H 0.739669 0.466363 0.779633
C38 C 0.7736(4) -0.0203(3) 0.4852(2)
C39 C 0.6208(4) 0.0489(3) 0.4504(2)
C40 C 1.0124(3) 0.1040(3) 0.6135(2)
H19 H 1.051745 0.046474 0.612002
C41 C 0.7963(4) 0.0317(3) 0.5042(2)
H20 H 0.758192 0.090489 0.502692
C42 C 0.5941(4) 0.4139(5) 0.83034(18)
H21 H 0.575266 0.394770 0.861887
C43 C 0.3762(9) 0.1631(7) 0.3916(6)
H22 H 0.321741 0.189154 0.377628
C44 C 0.5354(4) 0.0869(3) 0.4328(3)
C45 C 0.1649(17) 0.264(2) 0.8762(8)
C46 C 0.6646(5) 0.4287(6) 0.8266(2)
H23 H 0.694056 0.418777 0.855612
C47 C 0.148(2) 0.230(3) 0.9295(8)
C48 C 0.5109(8) 0.0395(7) 0.4095(6)
H24 H 0.549922 -0.017089 0.405718
C49 C 0.4299(8) 0.0766(7) 0.3924(7)
H25 H 0.410250 0.043059 0.381020
O10 O 0.10908(19) 0.43392(19) 0.34101(11)
O11 O 0.59561(19) 0.5132(2) 0.54536(11)
C50 C 0.0688(4) 0.3926(4) 0.3782(2)
C51 C 0.6304(8) 0.4570(8) 0.5092(4)
O12 O 0.2129(4) 0.3218(5) 0.88162(17)
C52 C 0.2431(4) 0.3448(5) 0.8362(2)
C53 C 0.2053(5) 0.3589(5) 0.7921(2)
H26 H 0.155416 0.353004 0.791816
C54 C 0.3149(5) 0.3549(5) 0.8374(2)
H27 H 0.339382 0.345476 0.868106
Rh1A Rh 0.30601(2) 0.47603(2) 0.41533(2)
Rh2A Rh 0.79728(2) 0.53701(2) 0.62437(2)
O1A O 0.74957(16) 0.54573(16) 0.51846(9)
O2A O 0.84962(16) 0.55302(16) 0.55669(9)
O3A O 0.13180(16) 0.59230(16) 0.36738(9)
O4A O 0.35517(17) 0.49834(18) 0.34714(9)
O5A O 0.26009(17) 0.48172(18) 0.30978(10)
O6A O 0.72173(17) 0.66406(17) 0.61427(10)
O7A O 0.22822(17) 0.60218(16) 0.40820(10)
O8A O 0.62062(16) 0.65245(17) 0.57898(10)
O9A O 0.0404(2) 1.22465(19) 0.49237(14)
C1A C 0.8146(2) 0.5561(2) 0.51923(13)
C2A C 0.8236(2) 0.5738(2) 0.42699(13)
H1A H 0.777333 0.561565 0.428006
C3A C 0.8540(2) 0.5742(2) 0.47027(14)
C4A C 0.9299(3) 0.6073(3) 0.38086(15)
H2A H 0.956778 0.617282 0.350191
C5A C 0.9221(2) 0.5927(3) 0.46910(14)
H3A H 0.942185 0.594102 0.498953
C6A C 0.8608(2) 0.5913(2) 0.38182(14)
C7A C 0.9595(3) 0.6088(3) 0.42445(15)
H4A H 1.005865 0.620907 0.423472
C8A C 0.1000(3) 0.7263(2) 0.38418(15)
C9A C 0.4209(3) 0.5444(3) 0.25733(14)
H5A H 0.448870 0.536553 0.286491
C10A C 0.8262(3) 0.5956(3) 0.33616(15)
C11A C 0.1574(3) 0.6339(2) 0.38599(14)
C12A C 0.0224(3) 0.7649(3) 0.36133(18)
H6A H 0.007060 0.733328 0.344797
C13A C 0.6505(2) 0.6941(2) 0.59414(15)
C14A C 0.1223(3) 0.7728(3) 0.40746(17)
H7A H 0.175672 0.746598 0.422775
C15A C 0.7947(3) 0.6048(3) 0.29866(15)
C16A C 0.0913(3) 1.1404(3) 0.4925(2)
C17A C 0.5967(3) 0.7883(3) 0.5882(2)
C18A C 0.3205(3) 0.4997(3) 0.31021(14)
C19A C 0.3522(3) 0.5269(3) 0.26080(15)
C20A C 0.5155(3) 0.8258(3) 0.57090(17)
H8A H 0.494291 0.791912 0.561469
C21A C 0.4486(3) 0.5732(3) 0.21169(16)
C22A C 0.5185(3) 0.5917(3) 0.20830(14)
C23A C -0.0398(3) 1.2628(3) 0.47002(19)
H9A H -0.032742 1.259569 0.434411
H10A H -0.073074 1.232910 0.486138
C24A C -0.0844(3) 1.3544(3) 0.47647(19)
H11A H -0.088944 1.356734 0.511783
H12A H -0.052068 1.383860 0.459166
H13A H -0.141109 1.382219 0.462649
C25A C 0.5769(3) 0.6067(3) 0.20643(15)
C26A C 0.0680(3) 1.0900(3) 0.4727(2)
H14A H 0.014427 1.114006 0.457901
C27A C 0.6489(3) 0.6209(3) 0.20703(15)
C28A C 0.6870(3) 0.6041(3) 0.25214(15)
H15A H 0.665071 0.583651 0.282104
C29A C 0.0877(4) 0.9086(3) 0.4328(2)
C30A C 0.7573(3) 0.6176(3) 0.25267(15)
C31A C -0.0324(3) 0.8493(3) 0.3627(2)
H16A H -0.085270 0.875502 0.346784
C32A C 0.0663(3) 0.8587(3) 0.40861(19)
C33A C 0.1700(3) 1.1055(3) 0.5137(2)
H17A H 0.185105 1.140088 0.527565
C34A C 0.1029(3) 0.9517(3) 0.4526(2)
C35A C 0.1247(4) 1.0033(3) 0.4747(2)
C36A C 0.3098(4) 0.9836(3) 0.5351(2)
C37A C 0.3088(4) 0.5428(5) 0.21809(19)
H18A H 0.260331 0.533637 0.220367
C38A C 0.2264(4) 1.0203(3) 0.5148(2)
C39A C 0.3792(4) 0.9511(3) 0.5496(2)
C40A C -0.0124(3) 0.8960(3) 0.3865(2)
H19A H -0.051745 0.953526 0.387998
C41A C 0.2037(4) 0.9683(3) 0.4958(2)
H20A H 0.241808 0.909511 0.497308
C42A C 0.4059(4) 0.5861(5) 0.16966(18)
H21A H 0.424734 0.605230 0.138113
C43A C 0.6238(9) 0.8369(7) 0.6084(6)
H22A H 0.678259 0.810846 0.622372
C44A C 0.4646(4) 0.9131(3) 0.5672(3)
C45A C 0.8351(17) 0.736(2) 0.1238(8)
C46A C 0.3354(5) 0.5713(6) 0.1734(2)
H23A H 0.305944 0.581223 0.144388
C47A C 0.852(2) 0.770(3) 0.0705(8)
C48A C 0.4891(8) 0.9605(7) 0.5905(6)
H24A H 0.450078 1.017089 0.594282
C49A C 0.5701(8) 0.9234(7) 0.6076(7)
H25A H 0.589750 0.956941 0.618980
O10A O 0.89092(19) 0.56608(19) 0.65899(11)
O11A O 0.40439(19) 0.4868(2) 0.45464(11)
C50A C 0.9312(4) 0.6074(4) 0.6218(2)
C51A C 0.3696(8) 0.5430(8) 0.4908(4)
O12A O 0.7871(4) 0.6782(5) 0.11838(17)
C52A C 0.7569(4) 0.6552(5) 0.1638(2)
C53A C 0.7947(5) 0.6411(5) 0.2079(2)
H26A H 0.844584 0.646996 0.208184
C54A C 0.6851(5) 0.6451(5) 0.1626(2)
H27A H 0.660618 0.654524 0.131894
Rh3 Rh 0.78179(2) 0.43371(2) 1.00199(2)
Rh4 Rh 1.14589(2) -0.28302(2) 0.99336(2)
O13 O 0.81758(17) 0.44563(16) 0.92983(10)
O14 O 1.25026(18) -0.41335(16) 0.92502(10)
O15 O 0.89428(17) 0.30386(16) 0.93513(10)
O16 O 0.67751(17) 0.43175(17) 0.98289(11)
O17 O 0.74770(17) 0.29107(17) 0.98155(10)
O18 O 1.10972(18) -0.42654(16) 0.97800(10)
O19 O 1.18956(18) -0.27117(16) 0.92234(10)
O20 O 1.04416(17) -0.28341(16) 0.96820(10)
O21 O 1.2996(2) 0.12303(18) 0.61059(12)
C55 C 0.9722(3) -0.3517(3) 0.94670(14)
C56 C 0.9732(3) -0.4273(3) 0.94259(15)
H28 H 1.021792 -0.480068 0.952163
C57 C 0.8669(2) 0.3797(2) 0.91218(14)
C58 C 0.6040(3) 0.3674(3) 0.95971(14)
C59 C 0.9566(3) 0.3288(3) 0.83836(15)
H29 H 0.978340 0.271970 0.856346
C60 C 1.2299(3) -0.3372(2) 0.90308(15)
C61 C 0.8969(3) 0.3949(2) 0.86010(14)
C62 C 1.0478(3) -0.3536(2) 0.96604(13)
C63 C 0.9852(3) 0.3448(3) 0.79027(16)
C64 C 0.9010(3) -0.2751(3) 0.93311(17)
H30 H 0.899627 -0.223470 0.936763
C65 C 1.2037(3) 0.1751(3) 0.67858(16)
H31 H 1.194651 0.231979 0.666668
C66 C 0.6822(3) 0.3629(2) 0.97638(13)
C67 C 0.6036(3) 0.2965(3) 0.94965(17)
H32 H 0.653280 0.243279 0.954188
C68 C 1.0498(3) 0.2769(3) 0.76734(15)
C69 C 0.5310(3) 0.4453(3) 0.95294(18)
H33 H 0.531599 0.495008 0.958539
C70 C 0.8633(3) 0.4777(3) 0.83296(15)
H34 H 0.820974 0.523361 0.847506
C71 C 0.8314(3) -0.2729(3) 0.91417(18)
C72 C 1.1026(3) 0.2227(3) 0.74700(16)
C73 C 0.4567(3) 0.3799(3) 0.92785(16)
H35 H 0.406050 0.383952 0.917473
C74 C 0.8329(3) -0.3486(3) 0.91005(18)
H36 H 0.785553 -0.347850 0.897284
C75 C 1.2423(3) -0.2439(3) 0.82504(18)
H37 H 1.217358 -0.197302 0.842049
C76 C 1.2560(3) -0.3249(3) 0.85017(16)
C77 C 0.5296(3) 0.3029(3) 0.93264(18)
C78 C 0.9043(3) -0.4261(3) 0.92476(17)
H38 H 0.905153 -0.478086 0.922399
C79 C 1.1628(3) 0.1554(3) 0.72198(16)
C80 C 0.9523(3) 0.4277(3) 0.76354(17)
H39 H 0.971676 0.438669 0.730597
C81 C 1.1772(3) 0.0719(3) 0.73996(17)
H40 H 1.149751 0.058865 0.769694
C82 C 1.2572(3) 0.1111(3) 0.65316(17)
C83 C 0.8913(4) 0.4940(3) 0.78481(17)
H41 H 0.868584 0.550620 0.766520
C84 C 1.2802(3) 0.2089(3) 0.58773(18)
H42 H 1.295205 0.235983 0.609813
H43 H 1.219008 0.242668 0.580890
C85 C 0.4572(3) 0.4501(4) 0.9380(2)
H44 H 0.406786 0.502672 0.934752
C86 C 1.2314(3) 0.0078(3) 0.71458(18)
C87 C 1.2713(3) 0.0271(3) 0.67060(19)
H45 H 1.307711 -0.016556 0.652730
C88 C 1.2647(4) -0.2312(3) 0.7755(2)
C89 C 1.2442(4) -0.0781(3) 0.7328(2)
C90 C 1.2532(4) -0.1480(3) 0.7510(2)
C91 C 0.5314(4) 0.2318(4) 0.9174(3)
C92 C 0.7569(3) -0.1918(4) 0.8996(2)
C93 C 1.2919(4) -0.3927(3) 0.82453(19)
H46 H 1.302400 -0.448310 0.841455
C94 C 1.3314(4) 0.2052(3) 0.5399(2)
H47 H 1.321932 0.171392 0.520395
H48 H 1.391642 0.178795 0.547393
H49 H 1.313854 0.263146 0.520953
C95 C 0.6960(4) -0.1263(4) 0.8885(2)
C96 C 0.6225(4) -0.0448(4) 0.8763(3)
C97 C 0.5356(4) 0.1741(4) 0.9019(3)
C98 C 1.2996(5) -0.3002(4) 0.7503(2)
H50 H 1.314306 -0.291407 0.716129
C99 C 1.3124(6) -0.3793(4) 0.7743(2)
H51 H 1.335307 -0.425319 0.756788
C100 C 0.6146(4) 0.0239(4) 0.8944(3)
H52 H 0.657311 0.017636 0.914556
C101 C 0.5437(5) 0.1025(4) 0.8828(3)
C102 C 0.5685(8) -0.0364(7) 0.8391(5)
H53 H 0.579687 -0.082632 0.823639
O22 O 0.4370(7) 0.0430(6) 0.7999(5)
C103 C 0.4979(8) 0.0438(7) 0.8266(6)
C104 C 0.3585(9) 0.1193(9) 0.7890(5)
C105 C 0.3939(12) 0.1597(12) 0.7410(6)
O23 O 0.71570(18) 0.57609(18) 0.99775(10)
O24 O 1.0770(2) -0.1394(2) 0.98801(13)
N1 N 0.6399(5) 0.7166(5) 0.9824(3)
C106 C 0.6641(7) 0.6316(7) 0.9734(4)
C107 C 0.6031(8) 0.6353(9) 0.9327(5)
C108 C 0.6810(8) 0.7301(8) 1.0166(5)
C109 C 0.5647(8) 0.7858(8) 0.9546(4)
C110 C 0.4887(8) 0.1142(8) 0.8443(5)
H54 H 0.446655 0.169702 0.831091
Rh3A Rh 1.21821(2) -0.43371(2) 0.99801(2)
Rh4A Rh 0.85411(2) 0.28302(2) 1.00664(2)
O13A O 1.18242(17) -0.44563(16) 1.07017(10)
O14A O 0.74974(18) 0.41335(16) 1.07498(10)
O15A O 1.10572(17) -0.30386(16) 1.06487(10)
O16A O 1.32249(17) -0.43175(17) 1.01711(11)
O17A O 1.25230(17) -0.29107(17) 1.01845(10)
O18A O 0.89028(18) 0.42654(16) 1.02200(10)
O19A O 0.81044(18) 0.27117(16) 1.07766(10)
O20A O 0.95584(17) 0.28341(16) 1.03180(10)
O21A O 0.7004(2) -0.12303(18) 1.38941(12)
C55A C 1.0278(3) 0.3517(3) 1.05330(14)
C56A C 1.0268(3) 0.4273(3) 1.05741(15)
H28A H 0.978208 0.480068 1.047837
C57A C 1.1331(2) -0.3797(2) 1.08782(14)
C58A C 1.3960(3) -0.3674(3) 1.04029(14)
C59A C 1.0434(3) -0.3288(3) 1.16164(15)
H29A H 1.021660 -0.271970 1.143654
C60A C 0.7701(3) 0.3372(2) 1.09692(15)
C61A C 1.1031(3) -0.3949(2) 1.13990(14)
C62A C 0.9522(3) 0.3536(2) 1.03396(13)
C63A C 1.0148(3) -0.3448(3) 1.20973(16)
C64A C 1.0990(3) 0.2751(3) 1.06689(17)
H30A H 1.100373 0.223470 1.063237
C65A C 0.7963(3) -0.1751(3) 1.32142(16)
H31A H 0.805349 -0.231979 1.333332
C66A C 1.3178(3) -0.3629(2) 1.02362(13)
C67A C 1.3964(3) -0.2965(3) 1.05035(17)
H32A H 1.346720 -0.243279 1.045812
C68A C 0.9502(3) -0.2769(3) 1.23266(15)
C69A C 1.4690(3) -0.4453(3) 1.04706(18)
H33A H 1.468401 -0.495008 1.041461
C70A C 1.1367(3) -0.4777(3) 1.16704(15)
H34A H 1.179026 -0.523361 1.152494
C71A C 1.1686(3) 0.2729(3) 1.08583(18)
C72A C 0.8974(3) -0.2227(3) 1.25300(16)
C73A C 1.5433(3) -0.3799(3) 1.07215(16)
H35A H 1.593950 -0.383952 1.082527
C74A C 1.1671(3) 0.3486(3) 1.08995(18)
H36A H 1.214447 0.347850 1.102716
C75A C 0.7577(3) 0.2439(3) 1.17496(18)
H37A H 0.782642 0.197302 1.157951
C76A C 0.7440(3) 0.3249(3) 1.14983(16)
C77A C 1.4704(3) -0.3029(3) 1.06736(18)
C78A C 1.0957(3) 0.4261(3) 1.07524(17)
H38A H 1.094847 0.478086 1.077601
C79A C 0.8372(3) -0.1554(3) 1.27802(16)
C80A C 1.0477(3) -0.4277(3) 1.23646(17)
H39A H 1.028324 -0.438669 1.269403
C81A C 0.8228(3) -0.0719(3) 1.26004(17)
H40A H 0.850249 -0.058865 1.230306
C82A C 0.7428(3) -0.1111(3) 1.34684(17)
C83A C 1.1087(4) -0.4940(3) 1.21519(17)
H41A H 1.131416 -0.550620 1.233480
C84A C 0.7198(3) -0.2089(3) 1.41227(18)
H42A H 0.704795 -0.235983 1.390187
H43A H 0.780992 -0.242668 1.419110
C85A C 1.5428(3) -0.4501(4) 1.0620(2)
H44A H 1.593214 -0.502672 1.065248
C86A C 0.7686(3) -0.0078(3) 1.28542(18)
C87A C 0.7287(3) -0.0271(3) 1.32940(19)
H45A H 0.692289 0.016556 1.347270
C88A C 0.7353(4) 0.2312(3) 1.2245(2)
C89A C 0.7558(4) 0.0781(3) 1.2672(2)
C90A C 0.7468(4) 0.1480(3) 1.2490(2)
C91A C 1.4686(4) -0.2318(4) 1.0826(3)
C92A C 1.2431(3) 0.1918(4) 1.1004(2)
C93A C 0.7081(4) 0.3927(3) 1.17547(19)
H46A H 0.697600 0.448310 1.158545
C94A C 0.6686(4) -0.2052(3) 1.4601(2)
H47A H 0.678068 -0.171392 1.479605
H48A H 0.608358 -0.178795 1.452607
H49A H 0.686146 -0.263146 1.479047
C95A C 1.3040(4) 0.1263(4) 1.1115(2)
C96A C 1.3775(4) 0.0448(4) 1.1237(3)
C97A C 1.4644(4) -0.1741(4) 1.0981(3)
C98A C 0.7004(5) 0.3002(4) 1.2497(2)
H50A H 0.685694 0.291407 1.283871
C99A C 0.6876(6) 0.3793(4) 1.2257(2)
H51A H 0.664693 0.425319 1.243212
C100A C 1.3854(4) -0.0239(4) 1.1056(3)
H52A H 1.342689 -0.017636 1.085444
C101A C 1.4563(5) -0.1025(4) 1.1172(3)
C102A C 1.4315(8) 0.0364(7) 1.1609(5)
H53A H 1.420313 0.082632 1.176361
O22A O 1.5630(7) -0.0430(6) 1.2001(5)
C103A C 1.5021(8) -0.0438(7) 1.1734(6)
C104A C 1.6415(9) -0.1193(9) 1.2110(5)
C105A C 1.6061(12) -0.1597(12) 1.2590(6)
O23A O 1.28430(18) -0.57609(18) 1.00225(10)
O24A O 0.9230(2) 0.1394(2) 1.01199(13)
N1A N 1.3601(5) -0.7166(5) 1.0176(3)
C106A C 1.3359(7) -0.6316(7) 1.0266(4)
C107A C 1.3969(8) -0.6353(9) 1.0673(5)
C108A C 1.3190(8) -0.7301(8) 0.9834(5)
C109A C 1.4353(8) -0.7858(8) 1.0454(4)
C110A C 1.5113(8) -0.1142(8) 1.1557(5)
H54A H 1.553345 -0.169702 1.168909
loop_
_geom_bond_atom_site_label_1
_geom_bond_atom_site_label_2
_geom_bond_site_symmetry_1
_geom_bond_site_symmetry_2
Rh1 O4 1_555 1_555
Rh2 O2 1_555 1_555
O1 C1 1_555 1_555
O2 C1 1_555 1_555
O3 C11 1_555 1_555
O4 C18 1_555 1_555
O5 C18 1_555 1_555
O6 Rh2 1_555 1_555
O7 Rh1 1_555 1_555
O8 C13 1_555 1_555
O9 C16 1_555 1_555
C1 C3 1_555 1_555
C2 H1 1_555 1_555
C3 C2 1_555 1_555
C4 H2 1_555 1_555
C5 C3 1_555 1_555
H3 C5 1_555 1_555
C6 C2 1_555 1_555
C7 C4 1_555 1_555
H4 C7 1_555 1_555
C8 C11 1_555 1_555
C9 H5 1_555 1_555
C10 C6 1_555 1_555
C11 O7 1_555 1_555
C12 C8 1_555 1_555
H6 C12 1_555 1_555
C13 O6 1_555 1_555
C14 C8 1_555 1_555
H7 C14 1_555 1_555
C15 C10 1_555 1_555
C16 C26 1_555 1_555
C17 C13 1_555 1_555
C18 C19 1_555 1_555
C19 C9 1_555 1_555
C20 C17 1_555 1_555
H8 C20 1_555 1_555
C21 C9 1_555 1_555
C22 C21 1_555 1_555
C23 O9 1_555 1_555
H9 C23 1_555 1_555
H10 C23 1_555 1_555
C24 C23 1_555 1_555
H11 C24 1_555 1_555
H12 C24 1_555 1_555
H13 C24 1_555 1_555
C25 C22 1_555 1_555
C26 H14 1_555 1_555
C27 C25 1_555 1_555
C28 C27 1_555 1_555
H15 C28 1_555 1_555
C29 C32 1_555 1_555
C30 C15 1_555 1_555
C31 C12 1_555 1_555
H16 C31 1_555 1_555
C32 C14 1_555 1_555
C33 C16 1_555 1_555
H17 C33 1_555 1_555
C34 C29 1_555 1_555
C35 C26 1_555 1_555
C36 C38 1_555 1_555
C37 C19 1_555 1_555
H18 C37 1_555 1_555
C38 C33 1_555 1_555
C39 C36 1_555 1_555
C40 C31 1_555 1_555
H19 C40 1_555 1_555
C41 C35 1_555 1_555
H20 C41 1_555 1_555
C42 C21 1_555 1_555
H21 C42 1_555 1_555
C43 C17 1_555 1_555
H22 C43 1_555 1_555
C44 C20 1_555 1_555
C45 C47 1_555 1_555
C46 C37 1_555 1_555
H23 C46 1_555 1_555
C48 C44 1_555 1_555
H24 C48 1_555 1_555
C49 C43 1_555 1_555
H25 C49 1_555 1_555
O10 Rh2 1_555 1_555
O11 Rh1 1_555 1_555
C50 O10 1_555 1_555
C51 O11 1_555 1_555
O12 C45 1_555 1_555
C52 O12 1_555 1_555
C53 C30 1_555 1_555
H26 C53 1_555 1_555
C54 C27 1_555 1_555
H27 C54 1_555 1_555
Rh3 O13 1_555 1_555
Rh4 O19 1_555 1_555
O13 C57 1_555 1_555
O14 C60 1_555 1_555
O15 C57 1_555 1_555
O16 Rh3 1_555 1_555
O17 C66 1_555 1_555
O18 C62 1_555 1_555
O19 C60 1_555 1_555
O20 Rh4 1_555 1_555
O21 C82 1_555 1_555
C55 C56 1_555 1_555
C56 H28 1_555 1_555
C57 C61 1_555 1_555
C58 C66 1_555 1_555
C59 H29 1_555 1_555
C60 C76 1_555 1_555
C61 C59 1_555 1_555
C62 O20 1_555 1_555
C63 C59 1_555 1_555
C64 C55 1_555 1_555
H30 C64 1_555 1_555
C65 H31 1_555 1_555
C66 O16 1_555 1_555
C67 C58 1_555 1_555
H32 C67 1_555 1_555
C68 C63 1_555 1_555
C69 C58 1_555 1_555
H33 C69 1_555 1_555
C70 C61 1_555 1_555
H34 C70 1_555 1_555
C71 C64 1_555 1_555
C72 C68 1_555 1_555
C73 H35 1_555 1_555
C74 C71 1_555 1_555
H36 C74 1_555 1_555
C75 H37 1_555 1_555
C76 C75 1_555 1_555
C77 C67 1_555 1_555
C78 C56 1_555 1_555
H38 C78 1_555 1_555
C79 C65 1_555 1_555
C80 C63 1_555 1_555
H39 C80 1_555 1_555
C81 C79 1_555 1_555
H40 C81 1_555 1_555
C82 C65 1_555 1_555
C83 C70 1_555 1_555
H41 C83 1_555 1_555
C84 O21 1_555 1_555
H42 C84 1_555 1_555
H43 C84 1_555 1_555
C85 C69 1_555 1_555
H44 C85 1_555 1_555
C86 C81 1_555 1_555
C87 C82 1_555 1_555
H45 C87 1_555 1_555
C88 C75 1_555 1_555
C89 C86 1_555 1_555
C90 C88 1_555 1_555
C91 C77 1_555 1_555
C92 C71 1_555 1_555
C93 C76 1_555 1_555
H46 C93 1_555 1_555
C94 C84 1_555 1_555
H47 C94 1_555 1_555
H48 C94 1_555 1_555
H49 C94 1_555 1_555
C95 C92 1_555 1_555
C96 C95 1_555 1_555
C97 C91 1_555 1_555
C98 C88 1_555 1_555
H50 C98 1_555 1_555
C99 C93 1_555 1_555
H51 C99 1_555 1_555
C100 C96 1_555 1_555
H52 C100 1_555 1_555
C101 C97 1_555 1_555
C102 C96 1_555 1_555
H53 C102 1_555 1_555
O22 C103 1_555 1_555
C103 C102 1_555 1_555
C104 O22 1_555 1_555
C105 C104 1_555 1_555
O23 Rh3 1_555 1_555
O24 Rh4 1_555 1_555
N1 C106 1_555 1_555
C106 O23 1_555 1_555
C107 C106 1_555 1_555
C108 N1 1_555 1_555
C109 N1 1_555 1_555
C110 C101 1_555 1_555
H54 C110 1_555 1_555
Rh1A O1 1_555 1_555
Rh2A O3 1_555 1_555
O1A Rh1 1_555 1_555
O2A Rh2A 1_555 1_555
O3A Rh2 1_555 1_555
O4A Rh1A 1_555 1_555
O5A Rh2 1_555 1_555
O6A Rh2A 1_555 1_555
O7A Rh1A 1_555 1_555
O8A Rh1 1_555 1_555
O9A C16A 1_555 1_555
C1A O1A 1_555 1_555
C2A H1A 1_555 1_555
C3A C1A 1_555 1_555
C4A H2A 1_555 1_555
C5A C3A 1_555 1_555
H3A C5A 1_555 1_555
C6A C2A 1_555 1_555
C7A C4A 1_555 1_555
H4A C7A 1_555 1_555
C8A C11A 1_555 1_555
C9A H5A 1_555 1_555
C10A C6A 1_555 1_555
C11A O3A 1_555 1_555
C12A C8A 1_555 1_555
H6A C12A 1_555 1_555
C13A O6A 1_555 1_555
C14A C8A 1_555 1_555
H7A C14A 1_555 1_555
C15A C10A 1_555 1_555
C16A C26A 1_555 1_555
C17A C13A 1_555 1_555
C18A O4A 1_555 1_555
C19A C9A 1_555 1_555
C20A C17A 1_555 1_555
H8A C20A 1_555 1_555
C21A C9A 1_555 1_555
C22A C21A 1_555 1_555
C23A O9A 1_555 1_555
H9A C23A 1_555 1_555
H10A C23A 1_555 1_555
C24A C23A 1_555 1_555
H11A C24A 1_555 1_555
H12A C24A 1_555 1_555
H13A C24A 1_555 1_555
C25A C22A 1_555 1_555
C26A H14A 1_555 1_555
C27A C25A 1_555 1_555
C28A C27A 1_555 1_555
H15A C28A 1_555 1_555
C29A C32A 1_555 1_555
C30A C15A 1_555 1_555
C31A C12A 1_555 1_555
H16A C31A 1_555 1_555
C32A C14A 1_555 1_555
C33A C16A 1_555 1_555
H17A C33A 1_555 1_555
C34A C29A 1_555 1_555
C35A C26A 1_555 1_555
C36A C38A 1_555 1_555
C37A C19A 1_555 1_555
H18A C37A 1_555 1_555
C38A C33A 1_555 1_555
C39A C36A 1_555 1_555
C40A C31A 1_555 1_555
H19A C40A 1_555 1_555
C41A C35A 1_555 1_555
H20A C41A 1_555 1_555
C42A C21A 1_555 1_555
H21A C42A 1_555 1_555
C43A C17A 1_555 1_555
H22A C43A 1_555 1_555
C44A C20A 1_555 1_555
C45A C47A 1_555 1_555
C46A C37A 1_555 1_555
H23A C46A 1_555 1_555
C48A C44A 1_555 1_555
H24A C48A 1_555 1_555
C49A C43A 1_555 1_555
H25A C49A 1_555 1_555
O10A Rh2A 1_555 1_555
O11A Rh1A 1_555 1_555
C50A O10A 1_555 1_555
C51A O11A 1_555 1_555
O12A C45A 1_555 1_555
C52A O12A 1_555 1_555
C53A C30A 1_555 1_555
H26A C53A 1_555 1_555
C54A C27A 1_555 1_555
H27A C54A 1_555 1_555
Rh3A O14 1_555 1_555
Rh4A O15 1_555 1_555
O13A Rh3A 1_555 1_555
O14A Rh3 1_555 1_555
O15A Rh4 1_555 1_555
O16A Rh3A 1_555 1_555
O17A Rh4 1_555 1_555
O18A Rh3 1_555 1_555
O19A Rh4A 1_555 1_555
O20A Rh4A 1_555 1_555
O21A C82A 1_555 1_555
C55A C56A 1_555 1_555
C56A H28A 1_555 1_555
C57A O13A 1_555 1_555
C58A C66A 1_555 1_555
C59A H29A 1_555 1_555
C60A O14A 1_555 1_555
C61A C57A 1_555 1_555
C62A O18A 1_555 1_555
C63A C59A 1_555 1_555
C64A C55A 1_555 1_555
H30A C64A 1_555 1_555
C65A H31A 1_555 1_555
C66A O16A 1_555 1_555
C67A C58A 1_555 1_555
H32A C67A 1_555 1_555
C68A C63A 1_555 1_555
C69A C58A 1_555 1_555
H33A C69A 1_555 1_555
C70A C61A 1_555 1_555
H34A C70A 1_555 1_555
C71A C64A 1_555 1_555
C72A C68A 1_555 1_555
C73A H35A 1_555 1_555
C74A C71A 1_555 1_555
H36A C74A 1_555 1_555
C75A H37A 1_555 1_555
C76A C60A 1_555 1_555
C77A C67A 1_555 1_555
C78A C56A 1_555 1_555
H38A C78A 1_555 1_555
C79A C65A 1_555 1_555
C80A C63A 1_555 1_555
H39A C80A 1_555 1_555
C81A C79A 1_555 1_555
H40A C81A 1_555 1_555
C82A C65A 1_555 1_555
C83A C70A 1_555 1_555
H41A C83A 1_555 1_555
C84A O21A 1_555 1_555
H42A C84A 1_555 1_555
H43A C84A 1_555 1_555
C85A C69A 1_555 1_555
H44A C85A 1_555 1_555
C86A C81A 1_555 1_555
C87A C82A 1_555 1_555
H45A C87A 1_555 1_555
C88A C75A 1_555 1_555
C89A C86A 1_555 1_555
C90A C88A 1_555 1_555
C91A C77A 1_555 1_555
C92A C71A 1_555 1_555
C93A C76A 1_555 1_555
H46A C93A 1_555 1_555
C94A C84A 1_555 1_555
H47A C94A 1_555 1_555
H48A C94A 1_555 1_555
H49A C94A 1_555 1_555
C95A C92A 1_555 1_555
C96A C95A 1_555 1_555
C97A C91A 1_555 1_555
C98A C88A 1_555 1_555
H50A C98A 1_555 1_555
C99A C93A 1_555 1_555
H51A C99A 1_555 1_555
C100A C96A 1_555 1_555
H52A C100A 1_555 1_555
C101A C97A 1_555 1_555
C102A C96A 1_555 1_555
H53A C102A 1_555 1_555
O22A C103A 1_555 1_555
C103A C102A 1_555 1_555
C104A O22A 1_555 1_555
C105A C104A 1_555 1_555
O23A Rh3A 1_555 1_555
O24A Rh4A 1_555 1_555
N1A C106A 1_555 1_555
C106A O23A 1_555 1_555
C107A C106A 1_555 1_555
C108A N1A 1_555 1_555
C109A N1A 1_555 1_555
C110A C101A 1_555 1_555
H54A C110A 1_555 1_555
O5 Rh2A 1_555 1_555
O8 Rh1A 1_555 1_555
C4 C6 1_555 1_555
C5 C7 1_555 1_555
C28 C30 1_555 1_555
C32 C40 1_555 1_555
C34 C35 1_555 1_555
C38 C41 1_555 1_555
C39 C44 1_555 1_555
C42 C46 1_555 1_555
C48 C49 1_555 1_555
C52 C53 1_555 1_555
C52 C54 1_555 1_555
O17 Rh4A 1_555 1_555
O18 Rh3A 1_555 1_555
C55 C62 1_555 1_555
C72 C79 1_555 1_555
C73 C77 1_555 1_555
C73 C85 1_555 1_555
C74 C78 1_555 1_555
C80 C83 1_555 1_555
C86 C87 1_555 1_555
C89 C90 1_555 1_555
C98 C99 1_555 1_555
C100 C101 1_555 1_555
C103 C110 1_555 1_555
O2A C1A 1_555 1_555
O5A C18A 1_555 1_555
O7A C11A 1_555 1_555
O8A C13A 1_555 1_555
C2A C3A 1_555 1_555
C4A C6A 1_555 1_555
C5A C7A 1_555 1_555
C18A C19A 1_555 1_555
C28A C30A 1_555 1_555
C32A C40A 1_555 1_555
C34A C35A 1_555 1_555
C38A C41A 1_555 1_555
C39A C44A 1_555 1_555
C42A C46A 1_555 1_555
C48A C49A 1_555 1_555
C52A C53A 1_555 1_555
C52A C54A 1_555 1_555
O15A C57A 1_555 1_555
O17A C66A 1_555 1_555
O19A C60A 1_555 1_555
O20A C62A 1_555 1_555
C55A C62A 1_555 1_555
C59A C61A 1_555 1_555
C72A C79A 1_555 1_555
C73A C77A 1_555 1_555
C73A C85A 1_555 1_555
C74A C78A 1_555 1_555
C75A C76A 1_555 1_555
C80A C83A 1_555 1_555
C86A C87A 1_555 1_555
C89A C90A 1_555 1_555
C98A C99A 1_555 1_555
C100A C101A 1_555 1_555
C103A C110A 1_555 1_555

#END
