
#######################################################################
#
#                 Cambridge Crystallographic Data Centre
#                                CCDC 
#
#######################################################################
#
# If this CIF has been generated from an entry in the Cambridge 
# Structural Database, then it will include bibliographic, chemical, 
# crystal, experimental, refinement or atomic coordinate data resulting 
# from the CCDC's data processing and validation procedures.
#
#######################################################################

data_PIKDIZ
_chemical_formula_moiety         'C112 H84 Cu4 O24,10(C4 H8 O1)'
_chemical_name_systematic        
"tetrakis(\m-3,3'-[(5-ethoxy-1,3-phenylene)di(ethyne-2,1-diyl)]dibenzoato)-diaqua-bis(tetrahydrofuran)-tetra-copper tetrahydrofuran unknown solvate"
_symmetry_cell_setting           monoclinic
_symmetry_space_group_name_H-M   'P 21/n'
_symmetry_Int_Tables_number      14
_space_group_name_Hall           '-P 2yn'
loop_
_symmetry_equiv_pos_site_id
_symmetry_equiv_pos_as_xyz
1 x,y,z
2 1/2-x,1/2+y,1/2-z
3 -x,-y,-z
4 1/2+x,1/2-y,1/2+z
_cell_length_a                   18.5382(15)
_cell_length_b                   25.3600(16)
_cell_length_c                   19.6509(16)
_cell_angle_alpha                90
_cell_angle_beta                 116.080(10)
_cell_angle_gamma                90
_cell_volume                     8297.8
_exptl_crystal_colour            'light blue'
_exptl_crystal_description       block
_cell_formula_units_Z            2
_exptl_crystal_recrystallization_method 
'Re-crystallisation from solvent: tetrahydrofuran'
loop_
_atom_site_label
_atom_site_type_symbol
_atom_site_fract_x
_atom_site_fract_y
_atom_site_fract_z
Cu1 Cu 0.86423(2) 0.36193(2) 0.56489(2)
Cu2 Cu 0.26322(2) 0.58421(2) 0.45082(2)
O1 O 0.91380(9) 0.43128(6) 0.57251(9)
O2 O 0.81549(9) 0.36619(7) 0.45364(9)
O3 O 0.79920(9) 0.47636(6) 0.54217(9)
O4 O 0.09910(9) 0.63641(6) 0.32481(9)
O5 O 0.80850(9) 0.89099(6) 0.47148(10)
O6 O 0.95980(9) 0.31312(6) 0.56540(9)
O7 O 0.30676(9) 0.65222(6) 0.43960(9)
O8 O 0.69904(9) 0.40267(7) 0.43972(8)
O9 O 0.19985(9) 0.58136(6) 0.33905(9)
O10 O 0.20380(9) 0.69919(6) 0.44018(9)
O11 O 0.19016(11) 0.34953(7) -0.08888(10)
O12 O 0.36325(11) 0.53876(8) 0.45822(11)
H1 H 0.390430 0.556008 0.439166
H2 H 0.346634 0.511197 0.429496
C1 C 0.91609(13) 0.52345(9) 0.56072(12)
C2 C 0.63313(13) 0.39233(9) 0.28305(13)
H3 H 0.600540 0.404686 0.304498
C3 C 0.71328(13) 0.37964(9) 0.32961(12)
C4 C 0.10449(13) 0.60246(9) 0.21500(12)
C5 C 0.87502(13) 0.57103(9) 0.54732(13)
H4 H 0.821182 0.571440 0.537567
C6 C 0.25747(14) 0.78889(9) 0.39423(13)
H5 H 0.204192 0.788426 0.386318
C7 C 0.99484(14) 0.61704(10) 0.56120(13)
H6 H 1.020858 0.648264 0.560574
C8 C 0.91417(14) 0.61815(9) 0.54842(13)
C9 C 0.41819(13) 0.79069(9) 0.42072(12)
C10 C 0.30485(13) 0.74406(9) 0.42121(12)
C11 C 0.14502(14) 0.57131(9) 0.18540(13)
H7 H 0.191659 0.553982 0.218070
C12 C 0.50195(14) 0.79202(9) 0.43677(13)
C13 C 0.38516(13) 0.74471(9) 0.43435(12)
H8 H 0.416607 0.714632 0.452139
C14 C 0.32005(14) 0.37582(10) 0.01197(13)
H9 H 0.347414 0.349312 0.000254
C15 C 0.87333(13) 0.47309(9) 0.55863(12)
C16 C 0.99723(13) 0.52296(9) 0.57524(12)
H10 H 1.025219 0.491254 0.585213
C17 C 0.76263(14) 0.36213(9) 0.29742(13)
H11 H 0.815736 0.353064 0.328289
C18 C 0.36155(14) 0.40984(10) 0.07315(13)
C19 C 0.74479(13) 0.38343(9) 0.41420(12)
C20 C 0.26923(13) 0.69455(9) 0.43537(12)
C21 C 0.78354(14) 0.75337(10) 0.50427(13)
C22 C 0.03452(14) 0.62861(9) 0.16589(13)
H12 H 0.005977 0.648814 0.185278
C23 C 0.23797(14) 0.45651(10) 0.04529(13)
C24 C 0.44683(15) 0.40287(10) 0.11842(13)
C25 C 0.57170(14) 0.79388(10) 0.45170(13)
C26 C 0.65195(14) 0.36995(10) 0.17235(13)
H13 H 0.631812 0.366718 0.120049
C27 C 0.76984(14) 0.84667(9) 0.47714(13)
C28 C 0.15814(15) 0.52943(10) 0.07969(13)
C29 C 0.11684(14) 0.56542(10) 0.10670(13)
C30 C 0.73229(15) 0.35821(10) 0.21885(13)
H14 H 0.765795 0.347728 0.197377
C31 C 0.19480(15) 0.49678(10) 0.06354(13)
C32 C 0.70236(14) 0.75107(10) 0.48972(13)
H15 H 0.679943 0.719203 0.494109
C33 C 0.36977(14) 0.83549(10) 0.39248(13)
H16 H 0.391276 0.866060 0.382665
C34 C 0.23738(15) 0.38201(10) -0.03121(13)
C35 C 0.81681(14) 0.80156(10) 0.49861(13)
H17 H 0.870852 0.803437 0.509321
C36 C 0.13652(13) 0.60731(9) 0.29958(12)
C37 C 0.65541(14) 0.79651(10) 0.46872(13)
C38 C 0.28963(14) 0.83425(10) 0.37913(13)
H18 H 0.257534 0.863928 0.360033
C39 C 0.83090(15) 0.70632(10) 0.52229(14)
C40 C 1.03571(14) 0.56970(10) 0.57472(13)
H19 H 1.089268 0.569203 0.583497
C41 C 0.60155(14) 0.38659(10) 0.20432(13)
C42 C 0.68890(14) 0.84494(10) 0.46210(13)
H20 H 0.657624 0.875304 0.447945
C43 C 0.32076(15) 0.44990(10) 0.09030(13)
H21 H 0.348189 0.472121 0.131292
C44 C 0.19703(15) 0.42301(10) -0.01565(13)
H22 H 0.142479 0.428026 -0.046121
C45 C 0.51730(15) 0.39641(10) 0.15656(13)
C46 C 0.00763(15) 0.62434(10) 0.08789(13)
H23 H -0.037976 0.642746 0.055473
C47 C 0.76173(15) 0.93716(10) 0.43929(15)
H24 H 0.736416 0.949297 0.470399
H25 H 0.720173 0.929753 0.388808
C48 C 0.22605(17) 0.30151(11) -0.09921(16)
H26 H 0.251874 0.282377 -0.051784
H27 H 0.265904 0.309366 -0.117227
C49 C 0.87017(14) 0.66693(10) 0.53455(14)
C50 C 0.04790(15) 0.59301(10) 0.05781(13)
H28 H 0.029298 0.590330 0.005604
C51 C 0.81884(18) 0.97836(11) 0.43616(17)
H29 H 0.840159 0.967036 0.402030
H30 H 0.862016 0.983183 0.485841
H31 H 0.790708 1.011086 0.418626
C52 C 0.93980(16) 0.26114(11) 0.53267(17)
H32 H 0.903013 0.263202 0.479227
H33 H 0.915176 0.240311 0.558211
C53 C 1.04216(15) 0.31505(12) 0.62074(16)
H34 H 1.045869 0.322784 0.670518
H35 H 1.071063 0.342022 0.607718
C54 C 1.01758(17) 0.23765(12) 0.54362(18)
H36 H 1.031485 0.248003 0.503355
H37 H 1.016078 0.199468 0.545730
C55 C 1.07657(18) 0.26074(13) 0.61975(18)
H38 H 1.078795 0.239293 0.661501
H39 H 1.130088 0.263428 0.622758
C56 C 0.1581(2) 0.26922(14) -0.1574(2)
H40 H 0.131597 0.289292 -0.203181
H41 H 0.120272 0.260563 -0.137896
H42 H 0.179284 0.237363 -0.167898
Cu1B Cu 0.13577(2) 0.63807(2) 0.43511(2)
Cu2B Cu 0.73678(2) 0.41579(2) 0.54918(2)
O1B O 0.08620(9) 0.56872(6) 0.42749(9)
O2B O 0.18451(9) 0.63381(7) 0.54636(9)
O3B O 0.20080(9) 0.52364(6) 0.45783(9)
O4B O 0.90090(9) 0.36359(6) 0.67519(9)
O5B O 0.19150(9) 0.10901(6) 0.52852(10)
O6B O 0.04020(9) 0.68688(6) 0.43460(9)
O7B O 0.69324(9) 0.34778(6) 0.56040(9)
O8B O 0.30096(9) 0.59733(7) 0.56028(8)
O9B O 0.80015(9) 0.41864(6) 0.66095(9)
O10B O 0.79620(9) 0.30081(6) 0.55982(9)
O11B O 0.80984(11) 0.65047(7) 1.08888(10)
O12B O 0.63675(11) 0.46124(8) 0.54178(11)
H1B H 0.609570 0.443992 0.560834
H2B H 0.653366 0.488803 0.570504
C1B C 0.08391(13) 0.47655(9) 0.43928(12)
C2B C 0.36687(13) 0.60767(9) 0.71695(13)
H3B H 0.399460 0.595314 0.695502
C3B C 0.28672(13) 0.62036(9) 0.67039(12)
C4B C 0.89551(13) 0.39754(9) 0.78500(12)
C5B C 0.12498(13) 0.42897(9) 0.45268(13)
H4B H 0.178818 0.428560 0.462433
C6B C 0.74253(14) 0.21111(9) 0.60577(13)
H5B H 0.795808 0.211574 0.613682
C7B C 0.00516(14) 0.38296(10) 0.43880(13)
H6B H -0.020858 0.351736 0.439426
C8B C 0.08583(14) 0.38185(9) 0.45158(13)
C9B C 0.58181(13) 0.20931(9) 0.57928(12)
C10B C 0.69515(13) 0.25594(9) 0.57879(12)
C11B C 0.85498(14) 0.42869(9) 0.81460(13)
H7B H 0.808341 0.446018 0.781930
C12B C 0.49805(14) 0.20798(9) 0.56323(13)
C13B C 0.61484(13) 0.25529(9) 0.56565(12)
H8B H 0.583393 0.285368 0.547861
C14B C 0.67995(14) 0.62418(10) 0.98803(13)
H9B H 0.652586 0.650688 0.999746
C15B C 0.12667(13) 0.52691(9) 0.44137(12)
C16B C 0.00277(13) 0.47704(9) 0.42476(12)
H10B H -0.025219 0.508746 0.414787
C17B C 0.23737(14) 0.63787(9) 0.70258(13)
H11B H 0.184264 0.646936 0.671711
C18B C 0.63845(14) 0.59016(10) 0.92685(13)
C19B C 0.25521(13) 0.61657(9) 0.58580(12)
C20B C 0.73077(13) 0.30545(9) 0.56463(12)
C21B C 0.21646(14) 0.24663(10) 0.49573(13)
C22B C 0.96548(14) 0.37139(9) 0.83411(13)
H12B H 0.994023 0.351186 0.814722
C23B C 0.76203(14) 0.54349(10) 0.95471(13)
C24B C 0.55317(15) 0.59713(10) 0.88158(13)
C25B C 0.42830(14) 0.20612(10) 0.54830(13)
C26B C 0.34805(14) 0.63005(10) 0.82765(13)
H13B H 0.368188 0.633282 0.879951
C27B C 0.23016(14) 0.15333(9) 0.52286(13)
C28B C 0.84186(15) 0.47057(10) 0.92031(13)
C29B C 0.88316(14) 0.43458(10) 0.89330(13)
C30B C 0.26771(15) 0.64179(10) 0.78115(13)
H14B H 0.234205 0.652272 0.802623
C31B C 0.80520(15) 0.50322(10) 0.93646(13)
C32B C 0.29764(14) 0.24893(10) 0.51028(13)
H15B H 0.320057 0.280797 0.505891
C33B C 0.63023(14) 0.16451(10) 0.60752(13)
H16B H 0.608724 0.133940 0.617335
C34B C 0.76262(15) 0.61799(10) 1.03121(13)
C35B C 0.18319(14) 0.19844(10) 0.50139(13)
H17B H 0.129148 0.196563 0.490679
C36B C 0.86348(13) 0.39269(9) 0.70042(12)
C37B C 0.34459(14) 0.20349(10) 0.53128(13)
C38B C 0.71037(14) 0.16575(10) 0.62087(13)
H18B H 0.742466 0.136072 0.639967
C39B C 0.16910(15) 0.29368(10) 0.47771(14)
C40B C -0.03571(14) 0.43030(10) 0.42528(13)
H19B H -0.089268 0.430797 0.416503
C41B C 0.39845(14) 0.61341(10) 0.79568(13)
C42B C 0.31110(14) 0.15506(10) 0.53790(13)
H20B H 0.342376 0.124696 0.552055
C43B C 0.67924(15) 0.55010(10) 0.90970(13)
H21B H 0.651811 0.527879 0.868708
C44B C 0.80297(15) 0.57699(10) 1.01565(13)
H22B H 0.857521 0.571974 1.046121
C45B C 0.48270(15) 0.60359(10) 0.84344(13)
C46B C 0.99237(15) 0.37566(10) 0.91211(13)
H23B H 1.037976 0.357254 0.944527
C47B C 0.23827(15) 0.06284(10) 0.56071(15)
H24B H 0.263584 0.050703 0.529601
H25B H 0.279827 0.070247 0.611192
C48B C 0.77395(17) 0.69849(11) 1.09921(16)
H26B H 0.748126 0.717623 1.051784
H27B H 0.734096 0.690634 1.117227
C49B C 0.12983(14) 0.33307(10) 0.46545(14)
C50B C 0.95210(15) 0.40699(10) 0.94219(13)
H28B H 0.970702 0.409670 0.994396
C51B C 0.18116(18) 0.02164(11) 0.56384(17)
H29B H 0.159841 0.032964 0.597970
H30B H 0.137984 0.016817 0.514159
H31B H 0.209292 -0.011086 0.581374
C52B C 0.06020(16) 0.73886(11) 0.46733(17)
H32B H 0.096987 0.736798 0.520773
H33B H 0.084824 0.759689 0.441789
C53B C -0.04216(15) 0.68495(12) 0.37926(16)
H34B H -0.045869 0.677216 0.329482
H35B H -0.071063 0.657978 0.392282
C54B C -0.01758(17) 0.76235(12) 0.45638(18)
H36B H -0.031485 0.751997 0.496645
H37B H -0.016078 0.800532 0.454270
C55B C -0.07657(18) 0.73926(13) 0.38025(18)
H38B H -0.078795 0.760707 0.338499
H39B H -0.130088 0.736572 0.377242
C56B C 0.8419(2) 0.73078(14) 1.1574(2)
H40B H 0.868403 0.710708 1.203181
H41B H 0.879728 0.739437 1.137896
H42B H 0.820716 0.762637 1.167898
O13 O 1.01885(14) 0.57944(8) 0.87210(11)
C57 C 1.00394(18) 0.60794(11) 0.80454(15)
H43 H 1.034199 0.640619 0.816776
H44 H 0.947275 0.616270 0.777062
C58 C 1.0297(2) 0.57339(12) 0.75793(16)
H45 H 1.085672 0.579324 0.769604
H46 H 0.996921 0.579197 0.704230
C59 C 1.0206(3) 0.52511(13) 0.85681(19)
H47 H 0.975345 0.507473 0.859133
H48 H 1.069592 0.509445 0.894644
C60 C 1.0171(3) 0.51826(14) 0.7814(2)
H49 H 0.965305 0.504298 0.746173
H50 H 1.058877 0.494476 0.783248
O14 O 0.46259(17) 0.31622(11) 0.41581(16)
C61 C 0.4461(2) 0.26606(15) 0.38012(19)
H51 H 0.404083 0.248408 0.388208
H52 H 0.493862 0.244182 0.400825
C62 C 0.4194(2) 0.27528(16) 0.2965(2)
H53 H 0.361506 0.278949 0.269639
H54 H 0.436443 0.246717 0.274097
C63 C 0.5027(3) 0.3429(2) 0.3793(3)
H55 H 0.558955 0.333085 0.401807
H56 H 0.498926 0.380737 0.384252
C64 C 0.4617(3) 0.3268(3) 0.2956(3)
H57 H 0.423402 0.353354 0.265165
H58 H 0.500860 0.321372 0.275982
O15 O 0.78592(17) 0.61013(11) 0.28005(19)
C65 C 0.7952(2) 0.51784(15) 0.27448(19)
H59 H 0.745482 0.506798 0.232422
H60 H 0.834906 0.490139 0.285940
C66 C 0.7822(2) 0.53158(16) 0.3430(2)
H61 H 0.739695 0.510296 0.344932
H62 H 0.830999 0.526361 0.389330
C67 C 0.8255(3) 0.57031(16) 0.2570(3)
H63 H 0.883404 0.573161 0.285425
H64 H 0.811270 0.573231 0.203392
C68 C 0.7592(3) 0.58838(19) 0.3319(3)
H65 H 0.701366 0.591923 0.311878
H66 H 0.783950 0.606899 0.379930
O16 O 0.60942(18) 0.75732(15) 0.17063(15)
C69 C 0.6631(2) 0.72670(18) 0.2947(2)
H67 H 0.673574 0.691989 0.317773
H68 H 0.699720 0.751692 0.330738
C70 C 0.6736(3) 0.72631(17) 0.2249(2)
H69 H 0.725123 0.741388 0.233993
H70 H 0.671101 0.690522 0.206569
C71 C 0.5801(2) 0.74211(19) 0.2727(2)
H71 H 0.577163 0.767119 0.308762
H72 H 0.547833 0.711523 0.270765
C72 C 0.5510(3) 0.76656(16) 0.1967(2)
H73 H 0.500168 0.751065 0.162252
H74 H 0.543320 0.804150 0.199871
C73 C 0.5131(2) 0.62538(17) 0.0966(2)
H75 H 0.538067 0.659897 0.109257
H76 H 0.473331 0.624742 0.044032
O17 O 0.4798(3) 0.5504(2) 0.1544(3)
C74 C 0.4792(4) 0.6081(3) 0.1500(3)
H77 H 0.511102 0.622739 0.199938
H78 H 0.424629 0.620967 0.132111
C75 C 0.5441(5) 0.5332(4) 0.1398(6)
H79 H 0.525562 0.506774 0.100071
H80 H 0.585971 0.517730 0.185100
C76 C 0.5759(4) 0.5800(2) 0.1158(5)
H81 H 0.584176 0.571448 0.071593
H82 H 0.626918 0.590875 0.156217
loop_
_geom_bond_atom_site_label_1
_geom_bond_atom_site_label_2
_geom_bond_site_symmetry_1
_geom_bond_site_symmetry_2
Cu1 O1 1_555 1_555
Cu2 O7 1_555 1_555
O1 C15 1_555 1_555
O2 Cu1 1_555 1_555
O3 C15 1_555 1_555
O4 C36 1_555 1_555
O5 C27 1_555 1_555
O6 Cu1 1_555 1_555
O7 C20 1_555 1_555
O8 C19 1_555 1_555
O9 Cu2 1_555 1_555
O10 C20 1_555 1_555
O11 C34 1_555 1_555
O12 Cu2 1_555 1_555
H1 O12 1_555 1_555
H2 O12 1_555 1_555
C1 C5 1_555 1_555
C2 H3 1_555 1_555
C3 C2 1_555 1_555
C4 C11 1_555 1_555
C5 H4 1_555 1_555
C6 H5 1_555 1_555
C7 H6 1_555 1_555
C8 C5 1_555 1_555
C9 C12 1_555 1_555
C10 C6 1_555 1_555
C11 H7 1_555 1_555
C12 C25 1_555 1_555
C13 C9 1_555 1_555
H8 C13 1_555 1_555
C14 H9 1_555 1_555
C15 C1 1_555 1_555
C16 C1 1_555 1_555
H10 C16 1_555 1_555
C17 C3 1_555 1_555
H11 C17 1_555 1_555
C18 C14 1_555 1_555
C19 O2 1_555 1_555
C20 C10 1_555 1_555
C21 C32 1_555 1_555
C22 C4 1_555 1_555
H12 C22 1_555 1_555
C23 C31 1_555 1_555
C24 C18 1_555 1_555
C25 C37 1_555 1_555
C26 H13 1_555 1_555
C27 C35 1_555 1_555
C28 C29 1_555 1_555
C29 C11 1_555 1_555
C30 C17 1_555 1_555
H14 C30 1_555 1_555
C31 C28 1_555 1_555
C32 H15 1_555 1_555
C33 C9 1_555 1_555
H16 C33 1_555 1_555
C34 C14 1_555 1_555
C35 C21 1_555 1_555
H17 C35 1_555 1_555
C36 O9 1_555 1_555
C37 C32 1_555 1_555
C38 C6 1_555 1_555
H18 C38 1_555 1_555
C39 C21 1_555 1_555
C40 C7 1_555 1_555
H19 C40 1_555 1_555
C41 C2 1_555 1_555
C42 C27 1_555 1_555
H20 C42 1_555 1_555
C43 C18 1_555 1_555
H21 C43 1_555 1_555
C44 C23 1_555 1_555
H22 C44 1_555 1_555
C45 C24 1_555 1_555
C46 C22 1_555 1_555
H23 C46 1_555 1_555
C47 O5 1_555 1_555
H24 C47 1_555 1_555
H25 C47 1_555 1_555
C48 O11 1_555 1_555
H26 C48 1_555 1_555
H27 C48 1_555 1_555
C49 C8 1_555 1_555
C50 C29 1_555 1_555
H28 C50 1_555 1_555
C51 C47 1_555 1_555
H29 C51 1_555 1_555
H30 C51 1_555 1_555
H31 C51 1_555 1_555
C52 O6 1_555 1_555
H32 C52 1_555 1_555
H33 C52 1_555 1_555
C53 O6 1_555 1_555
H34 C53 1_555 1_555
H35 C53 1_555 1_555
C54 C52 1_555 1_555
H36 C54 1_555 1_555
H37 C54 1_555 1_555
C55 C53 1_555 1_555
H38 C55 1_555 1_555
H39 C55 1_555 1_555
C56 C48 1_555 1_555
H40 C56 1_555 1_555
H41 C56 1_555 1_555
H42 C56 1_555 1_555
O13 C57 1_555 1_555
C57 H43 1_555 1_555
H44 C57 1_555 1_555
C58 C57 1_555 1_555
H45 C58 1_555 1_555
H46 C58 1_555 1_555
C59 O13 1_555 1_555
H47 C59 1_555 1_555
H48 C59 1_555 1_555
C60 C58 1_555 1_555
H49 C60 1_555 1_555
H50 C60 1_555 1_555
O14 C61 1_555 1_555
C61 H51 1_555 1_555
H52 C61 1_555 1_555
C62 C61 1_555 1_555
H53 C62 1_555 1_555
H54 C62 1_555 1_555
C63 O14 1_555 1_555
H55 C63 1_555 1_555
H56 C63 1_555 1_555
C64 C62 1_555 1_555
H57 C64 1_555 1_555
H58 C64 1_555 1_555
O15 C67 1_555 1_555
C65 H59 1_555 1_555
H60 C65 1_555 1_555
C66 C65 1_555 1_555
H61 C66 1_555 1_555
H62 C66 1_555 1_555
C67 C65 1_555 1_555
H63 C67 1_555 1_555
H64 C67 1_555 1_555
C68 O15 1_555 1_555
H65 C68 1_555 1_555
H66 C68 1_555 1_555
O16 C70 1_555 1_555
C69 H67 1_555 1_555
H68 C69 1_555 1_555
C70 C69 1_555 1_555
H69 C70 1_555 1_555
H70 C70 1_555 1_555
C71 C69 1_555 1_555
H71 C71 1_555 1_555
H72 C71 1_555 1_555
C72 O16 1_555 1_555
H73 C72 1_555 1_555
H74 C72 1_555 1_555
C73 H75 1_555 1_555
H76 C73 1_555 1_555
O17 C74 1_555 1_555
C74 C73 1_555 1_555
H77 C74 1_555 1_555
H78 C74 1_555 1_555
C75 O17 1_555 1_555
H79 C75 1_555 1_555
H80 C75 1_555 1_555
C76 C73 1_555 1_555
H81 C76 1_555 1_555
H82 C76 1_555 1_555
Cu1B O4 1_555 1_555
Cu2B O3 1_555 1_555
O1B Cu1B 1_555 1_555
O2B Cu1B 1_555 1_555
O3B Cu2 1_555 1_555
O4B Cu1 1_555 1_555
O5B C27B 1_555 1_555
O6B Cu1B 1_555 1_555
O7B Cu2B 1_555 1_555
O8B Cu2 1_555 1_555
O9B Cu2B 1_555 1_555
O10B Cu1 1_555 1_555
O11B C34B 1_555 1_555
O12B Cu2B 1_555 1_555
H1B O12B 1_555 1_555
H2B O12B 1_555 1_555
C1B C5B 1_555 1_555
C2B H3B 1_555 1_555
C3B C2B 1_555 1_555
C4B C11B 1_555 1_555
C5B H4B 1_555 1_555
C6B H5B 1_555 1_555
C7B H6B 1_555 1_555
C8B C5B 1_555 1_555
C9B C12B 1_555 1_555
C10B C6B 1_555 1_555
C11B H7B 1_555 1_555
C12B C25B 1_555 1_555
C13B C9B 1_555 1_555
H8B C13B 1_555 1_555
C14B H9B 1_555 1_555
C15B O1B 1_555 1_555
C16B C1B 1_555 1_555
H10B C16B 1_555 1_555
C17B C3B 1_555 1_555
H11B C17B 1_555 1_555
C18B C14B 1_555 1_555
C19B O2B 1_555 1_555
C20B O7B 1_555 1_555
C21B C32B 1_555 1_555
C22B C4B 1_555 1_555
H12B C22B 1_555 1_555
C23B C31B 1_555 1_555
C24B C18B 1_555 1_555
C25B C37B 1_555 1_555
C26B H13B 1_555 1_555
C27B C35B 1_555 1_555
C28B C29B 1_555 1_555
C29B C11B 1_555 1_555
C30B C17B 1_555 1_555
H14B C30B 1_555 1_555
C31B C28B 1_555 1_555
C32B H15B 1_555 1_555
C33B C9B 1_555 1_555
H16B C33B 1_555 1_555
C34B C14B 1_555 1_555
C35B C21B 1_555 1_555
H17B C35B 1_555 1_555
C36B O4B 1_555 1_555
C37B C32B 1_555 1_555
C38B C6B 1_555 1_555
H18B C38B 1_555 1_555
C39B C21B 1_555 1_555
C40B C7B 1_555 1_555
H19B C40B 1_555 1_555
C41B C2B 1_555 1_555
C42B C27B 1_555 1_555
H20B C42B 1_555 1_555
C43B C18B 1_555 1_555
H21B C43B 1_555 1_555
C44B C23B 1_555 1_555
H22B C44B 1_555 1_555
C45B C24B 1_555 1_555
C46B C22B 1_555 1_555
H23B C46B 1_555 1_555
C47B O5B 1_555 1_555
H24B C47B 1_555 1_555
H25B C47B 1_555 1_555
C48B O11B 1_555 1_555
H26B C48B 1_555 1_555
H27B C48B 1_555 1_555
C49B C8B 1_555 1_555
C50B C29B 1_555 1_555
H28B C50B 1_555 1_555
C51B C47B 1_555 1_555
H29B C51B 1_555 1_555
H30B C51B 1_555 1_555
H31B C51B 1_555 1_555
C52B O6B 1_555 1_555
H32B C52B 1_555 1_555
H33B C52B 1_555 1_555
C53B O6B 1_555 1_555
H34B C53B 1_555 1_555
H35B C53B 1_555 1_555
C54B C52B 1_555 1_555
H36B C54B 1_555 1_555
H37B C54B 1_555 1_555
C55B C53B 1_555 1_555
H38B C55B 1_555 1_555
H39B C55B 1_555 1_555
C56B C48B 1_555 1_555
H40B C56B 1_555 1_555
H41B C56B 1_555 1_555
H42B C56B 1_555 1_555
O8 Cu2B 1_555 1_555
O10 Cu1B 1_555 1_555
C3 C19 1_555 1_555
C4 C36 1_555 1_555
C7 C8 1_555 1_555
C10 C13 1_555 1_555
C16 C40 1_555 1_555
C23 C43 1_555 1_555
C26 C30 1_555 1_555
C26 C41 1_555 1_555
C33 C38 1_555 1_555
C34 C44 1_555 1_555
C37 C42 1_555 1_555
C39 C49 1_555 1_555
C41 C45 1_555 1_555
C46 C50 1_555 1_555
C54 C55 1_555 1_555
C59 C60 1_555 1_555
C63 C64 1_555 1_555
C66 C68 1_555 1_555
C71 C72 1_555 1_555
C75 C76 1_555 1_555
O3B C15B 1_555 1_555
O8B C19B 1_555 1_555
O9B C36B 1_555 1_555
O10B C20B 1_555 1_555
C1B C15B 1_555 1_555
C3B C19B 1_555 1_555
C4B C36B 1_555 1_555
C7B C8B 1_555 1_555
C10B C13B 1_555 1_555
C10B C20B 1_555 1_555
C16B C40B 1_555 1_555
C23B C43B 1_555 1_555
C26B C30B 1_555 1_555
C26B C41B 1_555 1_555
C33B C38B 1_555 1_555
C34B C44B 1_555 1_555
C37B C42B 1_555 1_555
C39B C49B 1_555 1_555
C41B C45B 1_555 1_555
C46B C50B 1_555 1_555
C54B C55B 1_555 1_555

#END
