# generated using pymatgen
data_V12H40C52N8(ClO45)3
_symmetry_space_group_name_H-M   'P 1'
_cell_length_a   21.12560000
_cell_length_b   21.12560000
_cell_length_c   27.41180000
_cell_angle_alpha   90.00000000
_cell_angle_beta   90.00000000
_cell_angle_gamma   90.00000000
_symmetry_Int_Tables_number   1
_chemical_formula_structural   V12H40C52N8(ClO45)3
_chemical_formula_sum   'V48 H160 C208 N32 Cl12 O540'
_cell_volume   12233.63895837
_cell_formula_units_Z   4
loop_
 _symmetry_equiv_pos_site_id
 _symmetry_equiv_pos_as_xyz
  1  'x, y, z'
loop_
 _atom_site_type_symbol
 _atom_site_label
 _atom_site_symmetry_multiplicity
 _atom_site_fract_x
 _atom_site_fract_y
 _atom_site_fract_z
 _atom_site_occupancy
  V  V1  1  0.008960  0.382440  0.500000  1.0
  V  V2  1  0.991040  0.617560  0.500000  1.0
  V  V3  1  0.617560  0.008960  0.500000  1.0
  V  V4  1  0.382440  0.991040  0.500000  1.0
  V  V5  1  0.508960  0.882440  0.000000  1.0
  V  V6  1  0.491040  0.117560  0.000000  1.0
  V  V7  1  0.117560  0.508960  0.000000  1.0
  V  V8  1  0.882440  0.491040  0.000000  1.0
  V  V9  1  0.683250  0.215350  0.500000  1.0
  V  V10  1  0.316750  0.784650  0.500000  1.0
  V  V11  1  0.784650  0.683250  0.500000  1.0
  V  V12  1  0.215350  0.316750  0.500000  1.0
  V  V13  1  0.183250  0.715350  0.000000  1.0
  V  V14  1  0.816750  0.284650  0.000000  1.0
  V  V15  1  0.284650  0.183250  0.000000  1.0
  V  V16  1  0.715350  0.816750  0.000000  1.0
  V  V17  1  0.033340  0.104050  0.215400  1.0
  V  V18  1  0.966660  0.895950  0.215400  1.0
  V  V19  1  0.895950  0.033340  0.215400  1.0
  V  V20  1  0.104050  0.966660  0.215400  1.0
  V  V21  1  0.533340  0.604050  0.715400  1.0
  V  V22  1  0.466660  0.395950  0.715400  1.0
  V  V23  1  0.395950  0.533340  0.715400  1.0
  V  V24  1  0.604050  0.466660  0.715400  1.0
  V  V25  1  0.966660  0.895950  0.784600  1.0
  V  V26  1  0.033340  0.104050  0.784600  1.0
  V  V27  1  0.104050  0.966660  0.784600  1.0
  V  V28  1  0.895950  0.033340  0.784600  1.0
  V  V29  1  0.466660  0.395950  0.284600  1.0
  V  V30  1  0.533340  0.604050  0.284600  1.0
  V  V31  1  0.604050  0.466660  0.284600  1.0
  V  V32  1  0.395950  0.533340  0.284600  1.0
  V  V33  1  0.112440  0.350770  0.415230  1.0
  V  V34  1  0.887560  0.649230  0.415230  1.0
  V  V35  1  0.649230  0.112440  0.415230  1.0
  V  V36  1  0.350770  0.887560  0.415230  1.0
  V  V37  1  0.612440  0.850770  0.915230  1.0
  V  V38  1  0.387560  0.149230  0.915230  1.0
  V  V39  1  0.149230  0.612440  0.915230  1.0
  V  V40  1  0.850770  0.387560  0.915230  1.0
  V  V41  1  0.887560  0.649230  0.584770  1.0
  V  V42  1  0.112440  0.350770  0.584770  1.0
  V  V43  1  0.350770  0.887560  0.584770  1.0
  V  V44  1  0.649230  0.112440  0.584770  1.0
  V  V45  1  0.387560  0.149230  0.084770  1.0
  V  V46  1  0.612440  0.850770  0.084770  1.0
  V  V47  1  0.850770  0.387560  0.084770  1.0
  V  V48  1  0.149230  0.612440  0.084770  1.0
  H  H49  1  0.208000  0.568200  0.561800  1
  H  H50  1  0.792000  0.431800  0.561800  1
  H  H51  1  0.431800  0.208000  0.561800  1
  H  H52  1  0.568200  0.792000  0.561800  1
  H  H53  1  0.708000  0.068200  0.061800  1
  H  H54  1  0.292000  0.931800  0.061800  1
  H  H55  1  0.931800  0.708000  0.061800  1
  H  H56  1  0.068200  0.292000  0.061800  1
  H  H57  1  0.792000  0.431800  0.438200  1
  H  H58  1  0.208000  0.568200  0.438200  1
  H  H59  1  0.568200  0.792000  0.438200  1
  H  H60  1  0.431800  0.208000  0.438200  1
  H  H61  1  0.292000  0.931800  0.938200  1
  H  H62  1  0.708000  0.068200  0.938200  1
  H  H63  1  0.068200  0.292000  0.938200  1
  H  H64  1  0.931800  0.708000  0.938200  1
  H  H65  1  0.251600  0.560800  0.520800  1
  H  H66  1  0.748400  0.439200  0.520800  1
  H  H67  1  0.439200  0.251600  0.520800  1
  H  H68  1  0.560800  0.748400  0.520800  1
  H  H69  1  0.751600  0.060800  0.020800  1
  H  H70  1  0.248400  0.939200  0.020800  1
  H  H71  1  0.939200  0.751600  0.020800  1
  H  H72  1  0.060800  0.248400  0.020800  1
  H  H73  1  0.748400  0.439200  0.479200  1
  H  H74  1  0.251600  0.560800  0.479200  1
  H  H75  1  0.560800  0.748400  0.479200  1
  H  H76  1  0.439200  0.251600  0.479200  1
  H  H77  1  0.248400  0.939200  0.979200  1
  H  H78  1  0.751600  0.060800  0.979200  1
  H  H79  1  0.060800  0.248400  0.979200  1
  H  H80  1  0.939200  0.751600  0.979200  1
  H  H81  1  0.928900  0.491100  0.351700  1.0
  H  H82  1  0.071100  0.508900  0.351700  1.0
  H  H83  1  0.508900  0.928900  0.351700  1.0
  H  H84  1  0.491100  0.071100  0.351700  1.0
  H  H85  1  0.428900  0.991100  0.851700  1.0
  H  H86  1  0.571100  0.008900  0.851700  1.0
  H  H87  1  0.008900  0.428900  0.851700  1.0
  H  H88  1  0.991100  0.571100  0.851700  1.0
  H  H89  1  0.071100  0.508900  0.648300  1.0
  H  H90  1  0.928900  0.491100  0.648300  1.0
  H  H91  1  0.491100  0.071100  0.648300  1.0
  H  H92  1  0.508900  0.928900  0.648300  1.0
  H  H93  1  0.571100  0.008900  0.148300  1.0
  H  H94  1  0.428900  0.991100  0.148300  1.0
  H  H95  1  0.991100  0.571100  0.148300  1.0
  H  H96  1  0.008900  0.428900  0.148300  1.0
  H  H97  1  0.925900  0.439700  0.394600  1.0
  H  H98  1  0.074100  0.560300  0.394600  1.0
  H  H99  1  0.560300  0.925900  0.394600  1.0
  H  H100  1  0.439700  0.074100  0.394600  1.0
  H  H101  1  0.425900  0.939700  0.894600  1.0
  H  H102  1  0.574100  0.060300  0.894600  1.0
  H  H103  1  0.060300  0.425900  0.894600  1.0
  H  H104  1  0.939700  0.574100  0.894600  1.0
  H  H105  1  0.074100  0.560300  0.605400  1.0
  H  H106  1  0.925900  0.439700  0.605400  1.0
  H  H107  1  0.439700  0.074100  0.605400  1.0
  H  H108  1  0.560300  0.925900  0.605400  1.0
  H  H109  1  0.574100  0.060300  0.105400  1.0
  H  H110  1  0.425900  0.939700  0.105400  1.0
  H  H111  1  0.939700  0.574100  0.105400  1.0
  H  H112  1  0.060300  0.425900  0.105400  1.0
  H  H113  1  0.976700  0.432300  0.351700  1.0
  H  H114  1  0.023300  0.567700  0.351700  1.0
  H  H115  1  0.567700  0.976700  0.351700  1.0
  H  H116  1  0.432300  0.023300  0.351700  1.0
  H  H117  1  0.476700  0.932300  0.851700  1.0
  H  H118  1  0.523300  0.067700  0.851700  1.0
  H  H119  1  0.067700  0.476700  0.851700  1.0
  H  H120  1  0.932300  0.523300  0.851700  1.0
  H  H121  1  0.023300  0.567700  0.648300  1.0
  H  H122  1  0.976700  0.432300  0.648300  1.0
  H  H123  1  0.432300  0.023300  0.648300  1.0
  H  H124  1  0.567700  0.976700  0.648300  1.0
  H  H125  1  0.523300  0.067700  0.148300  1.0
  H  H126  1  0.476700  0.932300  0.148300  1.0
  H  H127  1  0.932300  0.523300  0.148300  1.0
  H  H128  1  0.067700  0.476700  0.148300  1.0
  H  H129  1  0.977900  0.527200  0.420700  1.0
  H  H130  1  0.022100  0.472800  0.420700  1.0
  H  H131  1  0.472800  0.977900  0.420700  1.0
  H  H132  1  0.527200  0.022100  0.420700  1.0
  H  H133  1  0.477900  0.027200  0.920700  1.0
  H  H134  1  0.522100  0.972800  0.920700  1.0
  H  H135  1  0.972800  0.477900  0.920700  1.0
  H  H136  1  0.027200  0.522100  0.920700  1.0
  H  H137  1  0.022100  0.472800  0.579300  1.0
  H  H138  1  0.977900  0.527200  0.579300  1.0
  H  H139  1  0.527200  0.022100  0.579300  1.0
  H  H140  1  0.472800  0.977900  0.579300  1.0
  H  H141  1  0.522100  0.972800  0.079300  1.0
  H  H142  1  0.477900  0.027200  0.079300  1.0
  H  H143  1  0.027200  0.522100  0.079300  1.0
  H  H144  1  0.972800  0.477900  0.079300  1.0
  H  H145  1  0.240400  0.560800  0.526800  1.0
  H  H146  1  0.759600  0.439200  0.526800  1.0
  H  H147  1  0.439200  0.240400  0.526800  1.0
  H  H148  1  0.560800  0.759600  0.526800  1.0
  H  H149  1  0.740400  0.060800  0.026800  1.0
  H  H150  1  0.259600  0.939200  0.026800  1.0
  H  H151  1  0.939200  0.740400  0.026800  1.0
  H  H152  1  0.060800  0.259600  0.026800  1.0
  H  H153  1  0.759600  0.439200  0.473200  1.0
  H  H154  1  0.240400  0.560800  0.473200  1.0
  H  H155  1  0.560800  0.759600  0.473200  1.0
  H  H156  1  0.439200  0.240400  0.473200  1.0
  H  H157  1  0.259600  0.939200  0.973200  1.0
  H  H158  1  0.740400  0.060800  0.973200  1.0
  H  H159  1  0.060800  0.259600  0.973200  1.0
  H  H160  1  0.939200  0.740400  0.973200  1.0
  H  H161  1  0.990000  0.224000  0.336500  1.0
  H  H162  1  0.010000  0.776000  0.336500  1.0
  H  H163  1  0.776000  0.990000  0.336500  1.0
  H  H164  1  0.224000  0.010000  0.336500  1.0
  H  H165  1  0.490000  0.724000  0.836500  1.0
  H  H166  1  0.510000  0.276000  0.836500  1.0
  H  H167  1  0.276000  0.490000  0.836500  1.0
  H  H168  1  0.724000  0.510000  0.836500  1.0
  H  H169  1  0.010000  0.776000  0.663500  1.0
  H  H170  1  0.990000  0.224000  0.663500  1.0
  H  H171  1  0.224000  0.010000  0.663500  1.0
  H  H172  1  0.776000  0.990000  0.663500  1.0
  H  H173  1  0.510000  0.276000  0.163500  1.0
  H  H174  1  0.490000  0.724000  0.163500  1.0
  H  H175  1  0.724000  0.510000  0.163500  1.0
  H  H176  1  0.276000  0.490000  0.163500  1.0
  H  H177  1  0.821000  0.139000  0.338100  1.0
  H  H178  1  0.179000  0.861000  0.338100  1.0
  H  H179  1  0.861000  0.821000  0.338100  1.0
  H  H180  1  0.139000  0.179000  0.338100  1.0
  H  H181  1  0.321000  0.639000  0.838100  1.0
  H  H182  1  0.679000  0.361000  0.838100  1.0
  H  H183  1  0.361000  0.321000  0.838100  1.0
  H  H184  1  0.639000  0.679000  0.838100  1.0
  H  H185  1  0.179000  0.861000  0.661900  1.0
  H  H186  1  0.821000  0.139000  0.661900  1.0
  H  H187  1  0.139000  0.179000  0.661900  1.0
  H  H188  1  0.861000  0.821000  0.661900  1.0
  H  H189  1  0.679000  0.361000  0.161900  1.0
  H  H190  1  0.321000  0.639000  0.161900  1.0
  H  H191  1  0.639000  0.679000  0.161900  1.0
  H  H192  1  0.361000  0.321000  0.161900  1.0
  H  H193  1  0.863000  0.264000  0.442000  1.0
  H  H194  1  0.137000  0.736000  0.442000  1.0
  H  H195  1  0.736000  0.863000  0.442000  1.0
  H  H196  1  0.264000  0.137000  0.442000  1.0
  H  H197  1  0.363000  0.764000  0.942000  1.0
  H  H198  1  0.637000  0.236000  0.942000  1.0
  H  H199  1  0.236000  0.363000  0.942000  1.0
  H  H200  1  0.764000  0.637000  0.942000  1.0
  H  H201  1  0.137000  0.736000  0.558000  1.0
  H  H202  1  0.863000  0.264000  0.558000  1.0
  H  H203  1  0.264000  0.137000  0.558000  1.0
  H  H204  1  0.736000  0.863000  0.558000  1.0
  H  H205  1  0.637000  0.236000  0.058000  1.0
  H  H206  1  0.363000  0.764000  0.058000  1.0
  H  H207  1  0.764000  0.637000  0.058000  1.0
  H  H208  1  0.236000  0.363000  0.058000  1.0
  C  C209  1  0.181800  0.501600  0.500000  1
  C  C210  1  0.818200  0.498400  0.500000  1
  C  C211  1  0.498400  0.181800  0.500000  1
  C  C212  1  0.501600  0.818200  0.500000  1
  C  C213  1  0.681800  0.001600  0.000000  1
  C  C214  1  0.318200  0.998400  0.000000  1
  C  C215  1  0.998400  0.681800  0.000000  1
  C  C216  1  0.001600  0.318200  0.000000  1
  C  C217  1  0.187500  0.626200  0.500000  1
  C  C218  1  0.812500  0.373800  0.500000  1
  C  C219  1  0.373800  0.187500  0.500000  1
  C  C220  1  0.626200  0.812500  0.500000  1
  C  C221  1  0.687500  0.126200  0.000000  1
  C  C222  1  0.312500  0.873800  0.000000  1
  C  C223  1  0.873800  0.687500  0.000000  1
  C  C224  1  0.126200  0.312500  0.000000  1
  C  C225  1  0.184800  0.507900  0.518900  1
  C  C226  1  0.815200  0.492100  0.518900  1
  C  C227  1  0.492100  0.184800  0.518900  1
  C  C228  1  0.507900  0.815200  0.518900  1
  C  C229  1  0.684800  0.007900  0.018900  1
  C  C230  1  0.315200  0.992100  0.018900  1
  C  C231  1  0.992100  0.684800  0.018900  1
  C  C232  1  0.007900  0.315200  0.018900  1
  C  C233  1  0.815200  0.492100  0.481100  1
  C  C234  1  0.184800  0.507900  0.481100  1
  C  C235  1  0.507900  0.815200  0.481100  1
  C  C236  1  0.492100  0.184800  0.481100  1
  C  C237  1  0.315200  0.992100  0.981100  1
  C  C238  1  0.684800  0.007900  0.981100  1
  C  C239  1  0.007900  0.315200  0.981100  1
  C  C240  1  0.992100  0.684800  0.981100  1
  C  C241  1  0.196300  0.620700  0.514200  1
  C  C242  1  0.803700  0.379300  0.514200  1
  C  C243  1  0.379300  0.196300  0.514200  1
  C  C244  1  0.620700  0.803700  0.514200  1
  C  C245  1  0.696300  0.120700  0.014200  1
  C  C246  1  0.303700  0.879300  0.014200  1
  C  C247  1  0.879300  0.696300  0.014200  1
  C  C248  1  0.120700  0.303700  0.014200  1
  C  C249  1  0.803700  0.379300  0.485800  1
  C  C250  1  0.196300  0.620700  0.485800  1
  C  C251  1  0.620700  0.803700  0.485800  1
  C  C252  1  0.379300  0.196300  0.485800  1
  C  C253  1  0.303700  0.879300  0.985800  1
  C  C254  1  0.696300  0.120700  0.985800  1
  C  C255  1  0.120700  0.303700  0.985800  1
  C  C256  1  0.879300  0.696300  0.985800  1
  C  C257  1  0.954000  0.462600  0.372300  1.0
  C  C258  1  0.046000  0.537400  0.372300  1.0
  C  C259  1  0.537400  0.954000  0.372300  1.0
  C  C260  1  0.462600  0.046000  0.372300  1.0
  C  C261  1  0.454000  0.962600  0.872300  1.0
  C  C262  1  0.546000  0.037400  0.872300  1.0
  C  C263  1  0.037400  0.454000  0.872300  1.0
  C  C264  1  0.962600  0.546000  0.872300  1.0
  C  C265  1  0.046000  0.537400  0.627700  1.0
  C  C266  1  0.954000  0.462600  0.627700  1.0
  C  C267  1  0.462600  0.046000  0.627700  1.0
  C  C268  1  0.537400  0.954000  0.627700  1.0
  C  C269  1  0.546000  0.037400  0.127700  1.0
  C  C270  1  0.454000  0.962600  0.127700  1.0
  C  C271  1  0.962600  0.546000  0.127700  1.0
  C  C272  1  0.037400  0.454000  0.127700  1.0
  C  C273  1  0.979430  0.297100  0.414700  1.0
  C  C274  1  0.020570  0.702900  0.414700  1.0
  C  C275  1  0.702900  0.979430  0.414700  1.0
  C  C276  1  0.297100  0.020570  0.414700  1.0
  C  C277  1  0.479430  0.797100  0.914700  1.0
  C  C278  1  0.520570  0.202900  0.914700  1.0
  C  C279  1  0.202900  0.479430  0.914700  1.0
  C  C280  1  0.797100  0.520570  0.914700  1.0
  C  C281  1  0.020570  0.702900  0.585300  1.0
  C  C282  1  0.979430  0.297100  0.585300  1.0
  C  C283  1  0.297100  0.020570  0.585300  1.0
  C  C284  1  0.702900  0.979430  0.585300  1.0
  C  C285  1  0.520570  0.202900  0.085300  1.0
  C  C286  1  0.479430  0.797100  0.085300  1.0
  C  C287  1  0.797100  0.520570  0.085300  1.0
  C  C288  1  0.202900  0.479430  0.085300  1.0
  C  C289  1  0.933100  0.253560  0.391050  1.0
  C  C290  1  0.066900  0.746440  0.391050  1.0
  C  C291  1  0.746440  0.933100  0.391050  1.0
  C  C292  1  0.253560  0.066900  0.391050  1.0
  C  C293  1  0.433100  0.753560  0.891050  1.0
  C  C294  1  0.566900  0.246440  0.891050  1.0
  C  C295  1  0.246440  0.433100  0.891050  1.0
  C  C296  1  0.753560  0.566900  0.891050  1.0
  C  C297  1  0.066900  0.746440  0.608950  1.0
  C  C298  1  0.933100  0.253560  0.608950  1.0
  C  C299  1  0.253560  0.066900  0.608950  1.0
  C  C300  1  0.746440  0.933100  0.608950  1.0
  C  C301  1  0.566900  0.246440  0.108950  1.0
  C  C302  1  0.433100  0.753560  0.108950  1.0
  C  C303  1  0.753560  0.566900  0.108950  1.0
  C  C304  1  0.246440  0.433100  0.108950  1.0
  C  C305  1  0.950300  0.219960  0.349330  1.0
  C  C306  1  0.049700  0.780040  0.349330  1.0
  C  C307  1  0.780040  0.950300  0.349330  1.0
  C  C308  1  0.219960  0.049700  0.349330  1.0
  C  C309  1  0.450300  0.719960  0.849330  1.0
  C  C310  1  0.549700  0.280040  0.849330  1.0
  C  C311  1  0.280040  0.450300  0.849330  1.0
  C  C312  1  0.719960  0.549700  0.849330  1.0
  C  C313  1  0.049700  0.780040  0.650670  1.0
  C  C314  1  0.950300  0.219960  0.650670  1.0
  C  C315  1  0.219960  0.049700  0.650670  1.0
  C  C316  1  0.780040  0.950300  0.650670  1.0
  C  C317  1  0.549700  0.280040  0.150670  1.0
  C  C318  1  0.450300  0.719960  0.150670  1.0
  C  C319  1  0.719960  0.549700  0.150670  1.0
  C  C320  1  0.280040  0.450300  0.150670  1.0
  C  C321  1  0.908300  0.177150  0.328340  1.0
  C  C322  1  0.091700  0.822850  0.328340  1.0
  C  C323  1  0.822850  0.908300  0.328340  1.0
  C  C324  1  0.177150  0.091700  0.328340  1.0
  C  C325  1  0.408300  0.677150  0.828340  1.0
  C  C326  1  0.591700  0.322850  0.828340  1.0
  C  C327  1  0.322850  0.408300  0.828340  1.0
  C  C328  1  0.677150  0.591700  0.828340  1.0
  C  C329  1  0.091700  0.822850  0.671660  1.0
  C  C330  1  0.908300  0.177150  0.671660  1.0
  C  C331  1  0.177150  0.091700  0.671660  1.0
  C  C332  1  0.822850  0.908300  0.671660  1.0
  C  C333  1  0.591700  0.322850  0.171660  1.0
  C  C334  1  0.408300  0.677150  0.171660  1.0
  C  C335  1  0.677150  0.591700  0.171660  1.0
  C  C336  1  0.322850  0.408300  0.171660  1.0
  C  C337  1  0.848900  0.168000  0.349210  1.0
  C  C338  1  0.151100  0.832000  0.349210  1.0
  C  C339  1  0.832000  0.848900  0.349210  1.0
  C  C340  1  0.168000  0.151100  0.349210  1.0
  C  C341  1  0.348900  0.668000  0.849210  1.0
  C  C342  1  0.651100  0.332000  0.849210  1.0
  C  C343  1  0.332000  0.348900  0.849210  1.0
  C  C344  1  0.668000  0.651100  0.849210  1.0
  C  C345  1  0.151100  0.832000  0.650790  1.0
  C  C346  1  0.848900  0.168000  0.650790  1.0
  C  C347  1  0.168000  0.151100  0.650790  1.0
  C  C348  1  0.832000  0.848900  0.650790  1.0
  C  C349  1  0.651100  0.332000  0.150790  1.0
  C  C350  1  0.348900  0.668000  0.150790  1.0
  C  C351  1  0.668000  0.651100  0.150790  1.0
  C  C352  1  0.332000  0.348900  0.150790  1.0
  C  C353  1  0.831640  0.201300  0.390580  1.0
  C  C354  1  0.168360  0.798700  0.390580  1.0
  C  C355  1  0.798700  0.831640  0.390580  1.0
  C  C356  1  0.201300  0.168360  0.390580  1.0
  C  C357  1  0.331640  0.701300  0.890580  1.0
  C  C358  1  0.668360  0.298700  0.890580  1.0
  C  C359  1  0.298700  0.331640  0.890580  1.0
  C  C360  1  0.701300  0.668360  0.890580  1.0
  C  C361  1  0.168360  0.798700  0.609420  1.0
  C  C362  1  0.831640  0.201300  0.609420  1.0
  C  C363  1  0.201300  0.168360  0.609420  1.0
  C  C364  1  0.798700  0.831640  0.609420  1.0
  C  C365  1  0.668360  0.298700  0.109420  1.0
  C  C366  1  0.331640  0.701300  0.109420  1.0
  C  C367  1  0.701300  0.668360  0.109420  1.0
  C  C368  1  0.298700  0.331640  0.109420  1.0
  C  C369  1  0.874000  0.244250  0.411370  1.0
  C  C370  1  0.126000  0.755750  0.411370  1.0
  C  C371  1  0.755750  0.874000  0.411370  1.0
  C  C372  1  0.244250  0.126000  0.411370  1.0
  C  C373  1  0.374000  0.744250  0.911370  1.0
  C  C374  1  0.626000  0.255750  0.911370  1.0
  C  C375  1  0.255750  0.374000  0.911370  1.0
  C  C376  1  0.744250  0.626000  0.911370  1.0
  C  C377  1  0.126000  0.755750  0.588630  1.0
  C  C378  1  0.874000  0.244250  0.588630  1.0
  C  C379  1  0.244250  0.126000  0.588630  1.0
  C  C380  1  0.755750  0.874000  0.588630  1.0
  C  C381  1  0.626000  0.255750  0.088630  1.0
  C  C382  1  0.374000  0.744250  0.088630  1.0
  C  C383  1  0.744250  0.626000  0.088630  1.0
  C  C384  1  0.255750  0.374000  0.088630  1.0
  C  C385  1  0.768950  0.189300  0.414230  1.0
  C  C386  1  0.231050  0.810700  0.414230  1.0
  C  C387  1  0.810700  0.768950  0.414230  1.0
  C  C388  1  0.189300  0.231050  0.414230  1.0
  C  C389  1  0.268950  0.689300  0.914230  1.0
  C  C390  1  0.731050  0.310700  0.914230  1.0
  C  C391  1  0.310700  0.268950  0.914230  1.0
  C  C392  1  0.689300  0.731050  0.914230  1.0
  C  C393  1  0.231050  0.810700  0.585770  1.0
  C  C394  1  0.768950  0.189300  0.585770  1.0
  C  C395  1  0.189300  0.231050  0.585770  1.0
  C  C396  1  0.810700  0.768950  0.585770  1.0
  C  C397  1  0.731050  0.310700  0.085770  1.0
  C  C398  1  0.268950  0.689300  0.085770  1.0
  C  C399  1  0.689300  0.731050  0.085770  1.0
  C  C400  1  0.310700  0.268950  0.085770  1.0
  C  C401  1  0.928450  0.139080  0.285150  1.0
  C  C402  1  0.071550  0.860920  0.285150  1.0
  C  C403  1  0.860920  0.928450  0.285150  1.0
  C  C404  1  0.139080  0.071550  0.285150  1.0
  C  C405  1  0.428450  0.639080  0.785150  1.0
  C  C406  1  0.571550  0.360920  0.785150  1.0
  C  C407  1  0.360920  0.428450  0.785150  1.0
  C  C408  1  0.639080  0.571550  0.785150  1.0
  C  C409  1  0.071550  0.860920  0.714850  1.0
  C  C410  1  0.928450  0.139080  0.714850  1.0
  C  C411  1  0.139080  0.071550  0.714850  1.0
  C  C412  1  0.860920  0.928450  0.714850  1.0
  C  C413  1  0.571550  0.360920  0.214850  1.0
  C  C414  1  0.428450  0.639080  0.214850  1.0
  C  C415  1  0.639080  0.571550  0.214850  1.0
  C  C416  1  0.360920  0.428450  0.214850  1.0
  N  N417  1  0.000000  0.500000  0.400800  1
  N  N418  1  0.500000  0.000000  0.400800  1
  N  N419  1  0.500000  0.000000  0.900800  1
  N  N420  1  0.000000  0.500000  0.900800  1
  N  N421  1  0.000000  0.500000  0.599200  1
  N  N422  1  0.500000  0.000000  0.599200  1
  N  N423  1  0.500000  0.000000  0.099200  1
  N  N424  1  0.000000  0.500000  0.099200  1
  N  N425  1  0.214200  0.562100  0.500000  1
  N  N426  1  0.785800  0.437900  0.500000  1
  N  N427  1  0.437900  0.214200  0.500000  1
  N  N428  1  0.562100  0.785800  0.500000  1
  N  N429  1  0.714200  0.062100  0.000000  1
  N  N430  1  0.285800  0.937900  0.000000  1
  N  N431  1  0.937900  0.714200  0.000000  1
  N  N432  1  0.062100  0.285800  0.000000  1
  N  N433  1  0.209400  0.565300  0.528400  1
  N  N434  1  0.790600  0.434700  0.528400  1
  N  N435  1  0.434700  0.209400  0.528400  1
  N  N436  1  0.565300  0.790600  0.528400  1
  N  N437  1  0.709400  0.065300  0.028400  1
  N  N438  1  0.290600  0.934700  0.028400  1
  N  N439  1  0.934700  0.709400  0.028400  1
  N  N440  1  0.065300  0.290600  0.028400  1
  N  N441  1  0.790600  0.434700  0.471600  1
  N  N442  1  0.209400  0.565300  0.471600  1
  N  N443  1  0.565300  0.790600  0.471600  1
  N  N444  1  0.434700  0.209400  0.471600  1
  N  N445  1  0.290600  0.934700  0.971600  1
  N  N446  1  0.709400  0.065300  0.971600  1
  N  N447  1  0.065300  0.290600  0.971600  1
  N  N448  1  0.934700  0.709400  0.971600  1
  Cl  Cl449  1  0.500000  0.500000  0.775620  1
  Cl  Cl450  1  0.000000  0.000000  0.275620  1
  Cl  Cl451  1  0.500000  0.500000  0.224380  1
  Cl  Cl452  1  0.000000  0.000000  0.724380  1
  Cl  Cl453  1  0.088070  0.276370  0.500000  1
  Cl  Cl454  1  0.911930  0.723630  0.500000  1
  Cl  Cl455  1  0.723630  0.088070  0.500000  1
  Cl  Cl456  1  0.276370  0.911930  0.500000  1
  Cl  Cl457  1  0.588070  0.776370  0.000000  1
  Cl  Cl458  1  0.411930  0.223630  0.000000  1
  Cl  Cl459  1  0.223630  0.588070  0.000000  1
  Cl  Cl460  1  0.776370  0.411930  0.000000  1
  O  O461  1  0.500000  0.500000  0.406600  1
  O  O462  1  0.000000  0.000000  0.906600  1
  O  O463  1  0.500000  0.500000  0.593400  1
  O  O464  1  0.000000  0.000000  0.093400  1
  O  O465  1  0.139000  0.768000  0.808000  1
  O  O466  1  0.861000  0.232000  0.808000  1
  O  O467  1  0.232000  0.139000  0.808000  1
  O  O468  1  0.768000  0.861000  0.808000  1
  O  O469  1  0.639000  0.268000  0.308000  1
  O  O470  1  0.361000  0.732000  0.308000  1
  O  O471  1  0.732000  0.639000  0.308000  1
  O  O472  1  0.268000  0.361000  0.308000  1
  O  O473  1  0.861000  0.232000  0.192000  1
  O  O474  1  0.139000  0.768000  0.192000  1
  O  O475  1  0.768000  0.861000  0.192000  1
  O  O476  1  0.232000  0.139000  0.192000  1
  O  O477  1  0.361000  0.732000  0.692000  1
  O  O478  1  0.639000  0.268000  0.692000  1
  O  O479  1  0.268000  0.361000  0.692000  1
  O  O480  1  0.732000  0.639000  0.692000  1
  O  O481  1  0.168300  0.823200  0.882100  1
  O  O482  1  0.831700  0.176800  0.882100  1
  O  O483  1  0.176800  0.168300  0.882100  1
  O  O484  1  0.823200  0.831700  0.882100  1
  O  O485  1  0.668300  0.323200  0.382100  1
  O  O486  1  0.331700  0.676800  0.382100  1
  O  O487  1  0.676800  0.668300  0.382100  1
  O  O488  1  0.323200  0.331700  0.382100  1
  O  O489  1  0.831700  0.176800  0.117900  1
  O  O490  1  0.168300  0.823200  0.117900  1
  O  O491  1  0.823200  0.831700  0.117900  1
  O  O492  1  0.176800  0.168300  0.117900  1
  O  O493  1  0.331700  0.676800  0.617900  1
  O  O494  1  0.668300  0.323200  0.617900  1
  O  O495  1  0.323200  0.331700  0.617900  1
  O  O496  1  0.676800  0.668300  0.617900  1
  O  O497  1  0.078000  0.857000  0.906000  1
  O  O498  1  0.922000  0.143000  0.906000  1
  O  O499  1  0.143000  0.078000  0.906000  1
  O  O500  1  0.857000  0.922000  0.906000  1
  O  O501  1  0.578000  0.357000  0.406000  1
  O  O502  1  0.422000  0.643000  0.406000  1
  O  O503  1  0.643000  0.578000  0.406000  1
  O  O504  1  0.357000  0.422000  0.406000  1
  O  O505  1  0.922000  0.143000  0.094000  1
  O  O506  1  0.078000  0.857000  0.094000  1
  O  O507  1  0.857000  0.922000  0.094000  1
  O  O508  1  0.143000  0.078000  0.094000  1
  O  O509  1  0.422000  0.643000  0.594000  1
  O  O510  1  0.578000  0.357000  0.594000  1
  O  O511  1  0.357000  0.422000  0.594000  1
  O  O512  1  0.643000  0.578000  0.594000  1
  O  O513  1  0.261000  0.811000  0.793000  1
  O  O514  1  0.739000  0.189000  0.793000  1
  O  O515  1  0.189000  0.261000  0.793000  1
  O  O516  1  0.811000  0.739000  0.793000  1
  O  O517  1  0.761000  0.311000  0.293000  1
  O  O518  1  0.239000  0.689000  0.293000  1
  O  O519  1  0.689000  0.761000  0.293000  1
  O  O520  1  0.311000  0.239000  0.293000  1
  O  O521  1  0.739000  0.189000  0.207000  1
  O  O522  1  0.261000  0.811000  0.207000  1
  O  O523  1  0.811000  0.739000  0.207000  1
  O  O524  1  0.189000  0.261000  0.207000  1
  O  O525  1  0.239000  0.689000  0.707000  1
  O  O526  1  0.761000  0.311000  0.707000  1
  O  O527  1  0.311000  0.239000  0.707000  1
  O  O528  1  0.689000  0.761000  0.707000  1
  O  O529  1  0.525900  0.581200  0.890800  1
  O  O530  1  0.474100  0.418800  0.890800  1
  O  O531  1  0.418800  0.525900  0.890800  1
  O  O532  1  0.581200  0.474100  0.890800  1
  O  O533  1  0.025900  0.081200  0.390800  1
  O  O534  1  0.974100  0.918800  0.390800  1
  O  O535  1  0.918800  0.025900  0.390800  1
  O  O536  1  0.081200  0.974100  0.390800  1
  O  O537  1  0.474100  0.418800  0.109200  1
  O  O538  1  0.525900  0.581200  0.109200  1
  O  O539  1  0.581200  0.474100  0.109200  1
  O  O540  1  0.418800  0.525900  0.109200  1
  O  O541  1  0.974100  0.918800  0.609200  1
  O  O542  1  0.025900  0.081200  0.609200  1
  O  O543  1  0.081200  0.974100  0.609200  1
  O  O544  1  0.918800  0.025900  0.609200  1
  O  O545  1  0.125000  0.572000  0.746000  1
  O  O546  1  0.875000  0.428000  0.746000  1
  O  O547  1  0.428000  0.125000  0.746000  1
  O  O548  1  0.572000  0.875000  0.746000  1
  O  O549  1  0.625000  0.072000  0.246000  1
  O  O550  1  0.375000  0.928000  0.246000  1
  O  O551  1  0.928000  0.625000  0.246000  1
  O  O552  1  0.072000  0.375000  0.246000  1
  O  O553  1  0.875000  0.428000  0.254000  1
  O  O554  1  0.125000  0.572000  0.254000  1
  O  O555  1  0.572000  0.875000  0.254000  1
  O  O556  1  0.428000  0.125000  0.254000  1
  O  O557  1  0.375000  0.928000  0.754000  1
  O  O558  1  0.625000  0.072000  0.754000  1
  O  O559  1  0.072000  0.375000  0.754000  1
  O  O560  1  0.928000  0.625000  0.754000  1
  O  O561  1  0.895000  0.127000  0.500000  1
  O  O562  1  0.105000  0.873000  0.500000  1
  O  O563  1  0.873000  0.895000  0.500000  1
  O  O564  1  0.127000  0.105000  0.500000  1
  O  O565  1  0.395000  0.627000  0.000000  1
  O  O566  1  0.605000  0.373000  0.000000  1
  O  O567  1  0.373000  0.395000  0.000000  1
  O  O568  1  0.627000  0.605000  0.000000  1
  O  O569  1  0.196000  0.614000  0.641600  1
  O  O570  1  0.804000  0.386000  0.641600  1
  O  O571  1  0.386000  0.196000  0.641600  1
  O  O572  1  0.614000  0.804000  0.641600  1
  O  O573  1  0.696000  0.114000  0.141600  1
  O  O574  1  0.304000  0.886000  0.141600  1
  O  O575  1  0.886000  0.696000  0.141600  1
  O  O576  1  0.114000  0.304000  0.141600  1
  O  O577  1  0.804000  0.386000  0.358400  1
  O  O578  1  0.196000  0.614000  0.358400  1
  O  O579  1  0.614000  0.804000  0.358400  1
  O  O580  1  0.386000  0.196000  0.358400  1
  O  O581  1  0.304000  0.886000  0.858400  1
  O  O582  1  0.696000  0.114000  0.858400  1
  O  O583  1  0.114000  0.304000  0.858400  1
  O  O584  1  0.886000  0.696000  0.858400  1
  O  O585  1  0.150000  0.680000  0.717100  1
  O  O586  1  0.850000  0.320000  0.717100  1
  O  O587  1  0.320000  0.150000  0.717100  1
  O  O588  1  0.680000  0.850000  0.717100  1
  O  O589  1  0.650000  0.180000  0.217100  1
  O  O590  1  0.350000  0.820000  0.217100  1
  O  O591  1  0.820000  0.650000  0.217100  1
  O  O592  1  0.180000  0.350000  0.217100  1
  O  O593  1  0.850000  0.320000  0.282900  1
  O  O594  1  0.150000  0.680000  0.282900  1
  O  O595  1  0.680000  0.850000  0.282900  1
  O  O596  1  0.320000  0.150000  0.282900  1
  O  O597  1  0.350000  0.820000  0.782900  1
  O  O598  1  0.650000  0.180000  0.782900  1
  O  O599  1  0.180000  0.350000  0.782900  1
  O  O600  1  0.820000  0.650000  0.782900  1
  O  O601  1  0.647000  0.469000  0.500000  1
  O  O602  1  0.353000  0.531000  0.500000  1
  O  O603  1  0.531000  0.647000  0.500000  1
  O  O604  1  0.469000  0.353000  0.500000  1
  O  O605  1  0.147000  0.969000  0.000000  1
  O  O606  1  0.853000  0.031000  0.000000  1
  O  O607  1  0.031000  0.147000  0.000000  1
  O  O608  1  0.969000  0.853000  0.000000  1
  O  O609  1  0.212400  0.595100  0.770500  1
  O  O610  1  0.787600  0.404900  0.770500  1
  O  O611  1  0.404900  0.212400  0.770500  1
  O  O612  1  0.595100  0.787600  0.770500  1
  O  O613  1  0.712400  0.095100  0.270500  1
  O  O614  1  0.287600  0.904900  0.270500  1
  O  O615  1  0.904900  0.712400  0.270500  1
  O  O616  1  0.095100  0.287600  0.270500  1
  O  O617  1  0.787600  0.404900  0.229500  1
  O  O618  1  0.212400  0.595100  0.229500  1
  O  O619  1  0.595100  0.787600  0.229500  1
  O  O620  1  0.404900  0.212400  0.229500  1
  O  O621  1  0.287600  0.904900  0.729500  1
  O  O622  1  0.712400  0.095100  0.729500  1
  O  O623  1  0.095100  0.287600  0.729500  1
  O  O624  1  0.904900  0.712400  0.729500  1
  O  O625  1  0.182700  0.620900  0.728700  1
  O  O626  1  0.817300  0.379100  0.728700  1
  O  O627  1  0.379100  0.182700  0.728700  1
  O  O628  1  0.620900  0.817300  0.728700  1
  O  O629  1  0.682700  0.120900  0.228700  1
  O  O630  1  0.317300  0.879100  0.228700  1
  O  O631  1  0.879100  0.682700  0.228700  1
  O  O632  1  0.120900  0.317300  0.228700  1
  O  O633  1  0.817300  0.379100  0.271300  1
  O  O634  1  0.182700  0.620900  0.271300  1
  O  O635  1  0.620900  0.817300  0.271300  1
  O  O636  1  0.379100  0.182700  0.271300  1
  O  O637  1  0.317300  0.879100  0.771300  1
  O  O638  1  0.682700  0.120900  0.771300  1
  O  O639  1  0.120900  0.317300  0.771300  1
  O  O640  1  0.879100  0.682700  0.771300  1
  O  O641  1  0.255000  0.617000  0.591000  1
  O  O642  1  0.745000  0.383000  0.591000  1
  O  O643  1  0.383000  0.255000  0.591000  1
  O  O644  1  0.617000  0.745000  0.591000  1
  O  O645  1  0.755000  0.117000  0.091000  1
  O  O646  1  0.245000  0.883000  0.091000  1
  O  O647  1  0.883000  0.755000  0.091000  1
  O  O648  1  0.117000  0.245000  0.091000  1
  O  O649  1  0.745000  0.383000  0.409000  1
  O  O650  1  0.255000  0.617000  0.409000  1
  O  O651  1  0.617000  0.745000  0.409000  1
  O  O652  1  0.383000  0.255000  0.409000  1
  O  O653  1  0.245000  0.883000  0.909000  1
  O  O654  1  0.755000  0.117000  0.909000  1
  O  O655  1  0.117000  0.245000  0.909000  1
  O  O656  1  0.883000  0.755000  0.909000  1
  O  O657  1  0.234000  0.506000  0.581800  1
  O  O658  1  0.766000  0.494000  0.581800  1
  O  O659  1  0.494000  0.234000  0.581800  1
  O  O660  1  0.506000  0.766000  0.581800  1
  O  O661  1  0.734000  0.006000  0.081800  1
  O  O662  1  0.266000  0.994000  0.081800  1
  O  O663  1  0.994000  0.734000  0.081800  1
  O  O664  1  0.006000  0.266000  0.081800  1
  O  O665  1  0.766000  0.494000  0.418200  1
  O  O666  1  0.234000  0.506000  0.418200  1
  O  O667  1  0.506000  0.766000  0.418200  1
  O  O668  1  0.494000  0.234000  0.418200  1
  O  O669  1  0.266000  0.994000  0.918200  1
  O  O670  1  0.734000  0.006000  0.918200  1
  O  O671  1  0.006000  0.266000  0.918200  1
  O  O672  1  0.994000  0.734000  0.918200  1
  O  O673  1  0.539800  0.626300  0.934500  1
  O  O674  1  0.460200  0.373700  0.934500  1
  O  O675  1  0.373700  0.539800  0.934500  1
  O  O676  1  0.626300  0.460200  0.934500  1
  O  O677  1  0.039800  0.126300  0.434500  1
  O  O678  1  0.960200  0.873700  0.434500  1
  O  O679  1  0.873700  0.039800  0.434500  1
  O  O680  1  0.126300  0.960200  0.434500  1
  O  O681  1  0.460200  0.373700  0.065500  1
  O  O682  1  0.539800  0.626300  0.065500  1
  O  O683  1  0.626300  0.460200  0.065500  1
  O  O684  1  0.373700  0.539800  0.065500  1
  O  O685  1  0.960200  0.873700  0.565500  1
  O  O686  1  0.039800  0.126300  0.565500  1
  O  O687  1  0.126300  0.960200  0.565500  1
  O  O688  1  0.873700  0.039800  0.565500  1
  O  O689  1  0.162000  0.526000  0.775000  1
  O  O690  1  0.838000  0.474000  0.775000  1
  O  O691  1  0.474000  0.162000  0.775000  1
  O  O692  1  0.526000  0.838000  0.775000  1
  O  O693  1  0.662000  0.026000  0.275000  1
  O  O694  1  0.338000  0.974000  0.275000  1
  O  O695  1  0.974000  0.662000  0.275000  1
  O  O696  1  0.026000  0.338000  0.275000  1
  O  O697  1  0.838000  0.474000  0.225000  1
  O  O698  1  0.162000  0.526000  0.225000  1
  O  O699  1  0.526000  0.838000  0.225000  1
  O  O700  1  0.474000  0.162000  0.225000  1
  O  O701  1  0.338000  0.974000  0.725000  1
  O  O702  1  0.662000  0.026000  0.725000  1
  O  O703  1  0.026000  0.338000  0.725000  1
  O  O704  1  0.974000  0.662000  0.725000  1
  O  O705  1  0.071000  0.783000  0.877700  1
  O  O706  1  0.929000  0.217000  0.877700  1
  O  O707  1  0.217000  0.071000  0.877700  1
  O  O708  1  0.783000  0.929000  0.877700  1
  O  O709  1  0.571000  0.283000  0.377700  1
  O  O710  1  0.429000  0.717000  0.377700  1
  O  O711  1  0.717000  0.571000  0.377700  1
  O  O712  1  0.283000  0.429000  0.377700  1
  O  O713  1  0.929000  0.217000  0.122300  1
  O  O714  1  0.071000  0.783000  0.122300  1
  O  O715  1  0.783000  0.929000  0.122300  1
  O  O716  1  0.217000  0.071000  0.122300  1
  O  O717  1  0.429000  0.717000  0.622300  1
  O  O718  1  0.571000  0.283000  0.622300  1
  O  O719  1  0.283000  0.429000  0.622300  1
  O  O720  1  0.717000  0.571000  0.622300  1
  O  O721  1  0.202000  0.796000  0.837000  1
  O  O722  1  0.798000  0.204000  0.837000  1
  O  O723  1  0.204000  0.202000  0.837000  1
  O  O724  1  0.796000  0.798000  0.837000  1
  O  O725  1  0.702000  0.296000  0.337000  1
  O  O726  1  0.298000  0.704000  0.337000  1
  O  O727  1  0.704000  0.702000  0.337000  1
  O  O728  1  0.296000  0.298000  0.337000  1
  O  O729  1  0.798000  0.204000  0.163000  1
  O  O730  1  0.202000  0.796000  0.163000  1
  O  O731  1  0.796000  0.798000  0.163000  1
  O  O732  1  0.204000  0.202000  0.163000  1
  O  O733  1  0.298000  0.704000  0.663000  1
  O  O734  1  0.702000  0.296000  0.663000  1
  O  O735  1  0.296000  0.298000  0.663000  1
  O  O736  1  0.704000  0.702000  0.663000  1
  O  O737  1  0.132000  0.792300  0.853000  1
  O  O738  1  0.868000  0.207700  0.853000  1
  O  O739  1  0.207700  0.132000  0.853000  1
  O  O740  1  0.792300  0.868000  0.853000  1
  O  O741  1  0.632000  0.292300  0.353000  1
  O  O742  1  0.368000  0.707700  0.353000  1
  O  O743  1  0.707700  0.632000  0.353000  1
  O  O744  1  0.292300  0.368000  0.353000  1
  O  O745  1  0.868000  0.207700  0.147000  1
  O  O746  1  0.132000  0.792300  0.147000  1
  O  O747  1  0.792300  0.868000  0.147000  1
  O  O748  1  0.207700  0.132000  0.147000  1
  O  O749  1  0.368000  0.707700  0.647000  1
  O  O750  1  0.632000  0.292300  0.647000  1
  O  O751  1  0.292300  0.368000  0.647000  1
  O  O752  1  0.707700  0.632000  0.647000  1
  O  O753  1  0.092600  0.767300  0.826400  1
  O  O754  1  0.907400  0.232700  0.826400  1
  O  O755  1  0.232700  0.092600  0.826400  1
  O  O756  1  0.767300  0.907400  0.826400  1
  O  O757  1  0.592600  0.267300  0.326400  1
  O  O758  1  0.407400  0.732700  0.326400  1
  O  O759  1  0.732700  0.592600  0.326400  1
  O  O760  1  0.267300  0.407400  0.326400  1
  O  O761  1  0.907400  0.232700  0.173600  1
  O  O762  1  0.092600  0.767300  0.173600  1
  O  O763  1  0.767300  0.907400  0.173600  1
  O  O764  1  0.232700  0.092600  0.173600  1
  O  O765  1  0.407400  0.732700  0.673600  1
  O  O766  1  0.592600  0.267300  0.673600  1
  O  O767  1  0.267300  0.407400  0.673600  1
  O  O768  1  0.732700  0.592600  0.673600  1
  O  O769  1  0.098000  0.822000  0.880900  1
  O  O770  1  0.902000  0.178000  0.880900  1
  O  O771  1  0.178000  0.098000  0.880900  1
  O  O772  1  0.822000  0.902000  0.880900  1
  O  O773  1  0.598000  0.322000  0.380900  1
  O  O774  1  0.402000  0.678000  0.380900  1
  O  O775  1  0.678000  0.598000  0.380900  1
  O  O776  1  0.322000  0.402000  0.380900  1
  O  O777  1  0.902000  0.178000  0.119100  1
  O  O778  1  0.098000  0.822000  0.119100  1
  O  O779  1  0.822000  0.902000  0.119100  1
  O  O780  1  0.178000  0.098000  0.119100  1
  O  O781  1  0.402000  0.678000  0.619100  1
  O  O782  1  0.598000  0.322000  0.619100  1
  O  O783  1  0.322000  0.402000  0.619100  1
  O  O784  1  0.678000  0.598000  0.619100  1
  O  O785  1  0.052000  0.561800  0.747700  1
  O  O786  1  0.948000  0.438200  0.747700  1
  O  O787  1  0.438200  0.052000  0.747700  1
  O  O788  1  0.561800  0.948000  0.747700  1
  O  O789  1  0.552000  0.061800  0.247700  1
  O  O790  1  0.448000  0.938200  0.247700  1
  O  O791  1  0.938200  0.552000  0.247700  1
  O  O792  1  0.061800  0.448000  0.247700  1
  O  O793  1  0.948000  0.438200  0.252300  1
  O  O794  1  0.052000  0.561800  0.252300  1
  O  O795  1  0.561800  0.948000  0.252300  1
  O  O796  1  0.438200  0.052000  0.252300  1
  O  O797  1  0.448000  0.938200  0.752300  1
  O  O798  1  0.552000  0.061800  0.752300  1
  O  O799  1  0.061800  0.448000  0.752300  1
  O  O800  1  0.938200  0.552000  0.752300  1
  O  O801  1  0.960000  0.158000  0.500000  1
  O  O802  1  0.040000  0.842000  0.500000  1
  O  O803  1  0.842000  0.960000  0.500000  1
  O  O804  1  0.158000  0.040000  0.500000  1
  O  O805  1  0.460000  0.658000  0.000000  1
  O  O806  1  0.540000  0.342000  0.000000  1
  O  O807  1  0.342000  0.460000  0.000000  1
  O  O808  1  0.658000  0.540000  0.000000  1
  O  O809  1  0.959190  0.438770  0.500000  1.0
  O  O810  1  0.040810  0.561230  0.500000  1.0
  O  O811  1  0.561230  0.959190  0.500000  1.0
  O  O812  1  0.438770  0.040810  0.500000  1.0
  O  O813  1  0.459190  0.938770  0.000000  1.0
  O  O814  1  0.540810  0.061230  0.000000  1.0
  O  O815  1  0.061230  0.459190  0.000000  1.0
  O  O816  1  0.938770  0.540810  0.000000  1.0
  O  O817  1  0.664500  0.288800  0.500000  1.0
  O  O818  1  0.335500  0.711200  0.500000  1.0
  O  O819  1  0.711200  0.664500  0.500000  1.0
  O  O820  1  0.288800  0.335500  0.500000  1.0
  O  O821  1  0.164500  0.788800  0.000000  1.0
  O  O822  1  0.835500  0.211200  0.000000  1.0
  O  O823  1  0.211200  0.164500  0.000000  1.0
  O  O824  1  0.788800  0.835500  0.000000  1.0
  O  O825  1  0.961230  0.324150  0.453410  1.0
  O  O826  1  0.038770  0.675850  0.453410  1.0
  O  O827  1  0.675850  0.961230  0.453410  1.0
  O  O828  1  0.324150  0.038770  0.453410  1.0
  O  O829  1  0.461230  0.824150  0.953410  1.0
  O  O830  1  0.538770  0.175850  0.953410  1.0
  O  O831  1  0.175850  0.461230  0.953410  1.0
  O  O832  1  0.824150  0.538770  0.953410  1.0
  O  O833  1  0.038770  0.675850  0.546590  1.0
  O  O834  1  0.961230  0.324150  0.546590  1.0
  O  O835  1  0.324150  0.038770  0.546590  1.0
  O  O836  1  0.675850  0.961230  0.546590  1.0
  O  O837  1  0.538770  0.175850  0.046590  1.0
  O  O838  1  0.461230  0.824150  0.046590  1.0
  O  O839  1  0.824150  0.538770  0.046590  1.0
  O  O840  1  0.175850  0.461230  0.046590  1.0
  O  O841  1  0.032890  0.302680  0.394600  1.0
  O  O842  1  0.967110  0.697320  0.394600  1.0
  O  O843  1  0.697320  0.032890  0.394600  1.0
  O  O844  1  0.302680  0.967110  0.394600  1.0
  O  O845  1  0.532890  0.802680  0.894600  1.0
  O  O846  1  0.467110  0.197320  0.894600  1.0
  O  O847  1  0.197320  0.532890  0.894600  1.0
  O  O848  1  0.802680  0.467110  0.894600  1.0
  O  O849  1  0.967110  0.697320  0.605400  1.0
  O  O850  1  0.032890  0.302680  0.605400  1.0
  O  O851  1  0.302680  0.967110  0.605400  1.0
  O  O852  1  0.697320  0.032890  0.605400  1.0
  O  O853  1  0.467110  0.197320  0.105400  1.0
  O  O854  1  0.532890  0.802680  0.105400  1.0
  O  O855  1  0.802680  0.467110  0.105400  1.0
  O  O856  1  0.197320  0.532890  0.105400  1.0
  O  O857  1  0.983540  0.148450  0.268880  1.0
  O  O858  1  0.016460  0.851550  0.268880  1.0
  O  O859  1  0.851550  0.983540  0.268880  1.0
  O  O860  1  0.148450  0.016460  0.268880  1.0
  O  O861  1  0.483540  0.648450  0.768880  1.0
  O  O862  1  0.516460  0.351550  0.768880  1.0
  O  O863  1  0.351550  0.483540  0.768880  1.0
  O  O864  1  0.648450  0.516460  0.768880  1.0
  O  O865  1  0.016460  0.851550  0.731120  1.0
  O  O866  1  0.983540  0.148450  0.731120  1.0
  O  O867  1  0.148450  0.016460  0.731120  1.0
  O  O868  1  0.851550  0.983540  0.731120  1.0
  O  O869  1  0.516460  0.351550  0.231120  1.0
  O  O870  1  0.483540  0.648450  0.231120  1.0
  O  O871  1  0.648450  0.516460  0.231120  1.0
  O  O872  1  0.351550  0.483540  0.231120  1.0
  O  O873  1  0.888720  0.099520  0.269010  1.0
  O  O874  1  0.111280  0.900480  0.269010  1.0
  O  O875  1  0.900480  0.888720  0.269010  1.0
  O  O876  1  0.099520  0.111280  0.269010  1.0
  O  O877  1  0.388720  0.599520  0.769010  1.0
  O  O878  1  0.611280  0.400480  0.769010  1.0
  O  O879  1  0.400480  0.388720  0.769010  1.0
  O  O880  1  0.599520  0.611280  0.769010  1.0
  O  O881  1  0.111280  0.900480  0.730990  1.0
  O  O882  1  0.888720  0.099520  0.730990  1.0
  O  O883  1  0.099520  0.111280  0.730990  1.0
  O  O884  1  0.900480  0.888720  0.730990  1.0
  O  O885  1  0.611280  0.400480  0.230990  1.0
  O  O886  1  0.388720  0.599520  0.230990  1.0
  O  O887  1  0.599520  0.611280  0.230990  1.0
  O  O888  1  0.400480  0.388720  0.230990  1.0
  O  O889  1  0.733610  0.148780  0.393780  1.0
  O  O890  1  0.266390  0.851220  0.393780  1.0
  O  O891  1  0.851220  0.733610  0.393780  1.0
  O  O892  1  0.148780  0.266390  0.393780  1.0
  O  O893  1  0.233610  0.648780  0.893780  1.0
  O  O894  1  0.766390  0.351220  0.893780  1.0
  O  O895  1  0.351220  0.233610  0.893780  1.0
  O  O896  1  0.648780  0.766390  0.893780  1.0
  O  O897  1  0.266390  0.851220  0.606220  1.0
  O  O898  1  0.733610  0.148780  0.606220  1.0
  O  O899  1  0.148780  0.266390  0.606220  1.0
  O  O900  1  0.851220  0.733610  0.606220  1.0
  O  O901  1  0.766390  0.351220  0.106220  1.0
  O  O902  1  0.233610  0.648780  0.106220  1.0
  O  O903  1  0.648780  0.766390  0.106220  1.0
  O  O904  1  0.351220  0.233610  0.106220  1.0
  O  O905  1  0.757130  0.219830  0.452600  1.0
  O  O906  1  0.242870  0.780170  0.452600  1.0
  O  O907  1  0.780170  0.757130  0.452600  1.0
  O  O908  1  0.219830  0.242870  0.452600  1.0
  O  O909  1  0.257130  0.719830  0.952600  1.0
  O  O910  1  0.742870  0.280170  0.952600  1.0
  O  O911  1  0.280170  0.257130  0.952600  1.0
  O  O912  1  0.719830  0.742870  0.952600  1.0
  O  O913  1  0.242870  0.780170  0.547400  1.0
  O  O914  1  0.757130  0.219830  0.547400  1.0
  O  O915  1  0.219830  0.242870  0.547400  1.0
  O  O916  1  0.780170  0.757130  0.547400  1.0
  O  O917  1  0.742870  0.280170  0.047400  1.0
  O  O918  1  0.257130  0.719830  0.047400  1.0
  O  O919  1  0.719830  0.742870  0.047400  1.0
  O  O920  1  0.280170  0.257130  0.047400  1.0
  O  O921  1  0.123100  0.389750  0.365880  1.0
  O  O922  1  0.876900  0.610250  0.365880  1.0
  O  O923  1  0.610250  0.123100  0.365880  1.0
  O  O924  1  0.389750  0.876900  0.365880  1.0
  O  O925  1  0.623100  0.889750  0.865880  1.0
  O  O926  1  0.376900  0.110250  0.865880  1.0
  O  O927  1  0.110250  0.623100  0.865880  1.0
  O  O928  1  0.889750  0.376900  0.865880  1.0
  O  O929  1  0.876900  0.610250  0.634120  1.0
  O  O930  1  0.123100  0.389750  0.634120  1.0
  O  O931  1  0.389750  0.876900  0.634120  1.0
  O  O932  1  0.610250  0.123100  0.634120  1.0
  O  O933  1  0.376900  0.110250  0.134120  1.0
  O  O934  1  0.623100  0.889750  0.134120  1.0
  O  O935  1  0.889750  0.376900  0.134120  1.0
  O  O936  1  0.110250  0.623100  0.134120  1.0
  O  O937  1  0.053030  0.165200  0.184640  1.0
  O  O938  1  0.946970  0.834800  0.184640  1.0
  O  O939  1  0.834800  0.053030  0.184640  1.0
  O  O940  1  0.165200  0.946970  0.184640  1.0
  O  O941  1  0.553030  0.665200  0.684640  1.0
  O  O942  1  0.446970  0.334800  0.684640  1.0
  O  O943  1  0.334800  0.553030  0.684640  1.0
  O  O944  1  0.665200  0.446970  0.684640  1.0
  O  O945  1  0.946970  0.834800  0.815360  1.0
  O  O946  1  0.053030  0.165200  0.815360  1.0
  O  O947  1  0.165200  0.946970  0.815360  1.0
  O  O948  1  0.834800  0.053030  0.815360  1.0
  O  O949  1  0.446970  0.334800  0.315360  1.0
  O  O950  1  0.553030  0.665200  0.315360  1.0
  O  O951  1  0.665200  0.446970  0.315360  1.0
  O  O952  1  0.334800  0.553030  0.315360  1.0
  O  O953  1  0.958090  0.081680  0.188570  1.0
  O  O954  1  0.041910  0.918320  0.188570  1.0
  O  O955  1  0.918320  0.958090  0.188570  1.0
  O  O956  1  0.081680  0.041910  0.188570  1.0
  O  O957  1  0.458090  0.581680  0.688570  1.0
  O  O958  1  0.541910  0.418320  0.688570  1.0
  O  O959  1  0.418320  0.458090  0.688570  1.0
  O  O960  1  0.581680  0.541910  0.688570  1.0
  O  O961  1  0.041910  0.918320  0.811430  1.0
  O  O962  1  0.958090  0.081680  0.811430  1.0
  O  O963  1  0.081680  0.041910  0.811430  1.0
  O  O964  1  0.918320  0.958090  0.811430  1.0
  O  O965  1  0.541910  0.418320  0.311430  1.0
  O  O966  1  0.458090  0.581680  0.311430  1.0
  O  O967  1  0.581680  0.541910  0.311430  1.0
  O  O968  1  0.418320  0.458090  0.311430  1.0
  O  O969  1  0.635790  0.183370  0.449450  1.0
  O  O970  1  0.364210  0.816630  0.449450  1.0
  O  O971  1  0.816630  0.635790  0.449450  1.0
  O  O972  1  0.183370  0.364210  0.449450  1.0
  O  O973  1  0.135790  0.683370  0.949450  1.0
  O  O974  1  0.864210  0.316630  0.949450  1.0
  O  O975  1  0.316630  0.135790  0.949450  1.0
  O  O976  1  0.683370  0.864210  0.949450  1.0
  O  O977  1  0.364210  0.816630  0.550550  1.0
  O  O978  1  0.635790  0.183370  0.550550  1.0
  O  O979  1  0.183370  0.364210  0.550550  1.0
  O  O980  1  0.816630  0.635790  0.550550  1.0
  O  O981  1  0.864210  0.316630  0.050550  1.0
  O  O982  1  0.135790  0.683370  0.050550  1.0
  O  O983  1  0.683370  0.864210  0.050550  1.0
  O  O984  1  0.316630  0.135790  0.050550  1.0
  O  O985  1  0.059340  0.403550  0.449860  1.0
  O  O986  1  0.940660  0.596450  0.449860  1.0
  O  O987  1  0.596450  0.059340  0.449860  1.0
  O  O988  1  0.403550  0.940660  0.449860  1.0
  O  O989  1  0.559340  0.903550  0.949860  1.0
  O  O990  1  0.440660  0.096450  0.949860  1.0
  O  O991  1  0.096450  0.559340  0.949860  1.0
  O  O992  1  0.903550  0.440660  0.949860  1.0
  O  O993  1  0.940660  0.596450  0.550140  1.0
  O  O994  1  0.059340  0.403550  0.550140  1.0
  O  O995  1  0.403550  0.940660  0.550140  1.0
  O  O996  1  0.596450  0.059340  0.550140  1.0
  O  O997  1  0.440660  0.096450  0.050140  1.0
  O  O998  1  0.559340  0.903550  0.050140  1.0
  O  O999  1  0.903550  0.440660  0.050140  1.0
  O  O1000  1  0.096450  0.559340  0.050140  1.0
