
#######################################################################
#
#                 Cambridge Crystallographic Data Centre
#                                CCDC 
#
#######################################################################
#
# If this CIF has been generated from an entry in the Cambridge 
# Structural Database, then it will include bibliographic, chemical, 
# crystal, experimental, refinement or atomic coordinate data resulting 
# from the CCDC's data processing and validation procedures.
#
#######################################################################

data_PIWDUW
_chemical_formula_moiety         
'C72 H24 Cl6 O102 V30 8-,8(C2 H8 N1 1+),37(H2 O1)'
_chemical_name_systematic        
'octakis(dimethylammonium) octakis(\m-benzene-1,3,5-tricarboxylato)-hexakis(\m-chloro)-tetracosakis(\m-oxo)-triacontaoxo-triaconta-vanadium heptatriacontahydrate'
_symmetry_cell_setting           tetragonal
_symmetry_space_group_name_H-M   'I 4/m'
_symmetry_Int_Tables_number      87
_space_group_name_Hall           '-I 4'
loop_
_symmetry_equiv_pos_site_id
_symmetry_equiv_pos_as_xyz
1 x,y,z
2 -y,x,z
3 -x,-y,z
4 y,-x,z
5 1/2+x,1/2+y,1/2+z
6 1/2-y,1/2+x,1/2+z
7 1/2-x,1/2-y,1/2+z
8 1/2+y,1/2-x,1/2+z
9 -x,-y,-z
10 y,-x,-z
11 x,y,-z
12 -y,x,-z
13 1/2-x,1/2-y,1/2-z
14 1/2+y,1/2-x,1/2-z
15 1/2+x,1/2+y,1/2-z
16 1/2-y,1/2+x,1/2-z
_cell_length_a                   21.1683(5)
_cell_length_b                   21.1683(5)
_cell_length_c                   27.3991(15)
_cell_angle_alpha                90
_cell_angle_beta                 90
_cell_angle_gamma                90
_cell_volume                     12277.5
_exptl_crystal_colour            green
_exptl_crystal_description       rhombic
_cell_formula_units_Z            2
loop_
_atom_site_label
_atom_site_type_symbol
_atom_site_fract_x
_atom_site_fract_y
_atom_site_fract_z
V1 V 0.11777(7) 0.50612(8) 0.5000
V2 V 0.5000 0.5000 0.84026(17)
V3 V 0.18407(8) 0.71602(8) 0.5000
V4 V 0.46584(6) 0.39231(6) 0.78511(5)
V5 V 0.14937(5) 0.61126(6) 0.58649(5)
V6 V 0.0834(2) 0.6354(2) 0.5000
O1 O 0.3985(2) 0.3881(2) 0.73311(18)
O2 O 0.4225(2) 0.4596(2) 0.81519(18)
O3 O 0.1961(2) 0.5316(2) 0.60609(17)
O4 O 0.4469(3) 0.3320(3) 0.81708(19)
O5 O 0.2808(2) 0.2574(2) 0.54836(18)
O6 O 0.1092(2) 0.6219(2) 0.6349(2)
O7 O 0.0952(2) 0.5614(2) 0.54914(19)
O8 O 0.5000 0.5000 0.8995(6)
O9 O 0.1750(2) 0.4601(2) 0.54742(19)
O10 O 0.3498(2) 0.4816(2) 0.73348(17)
O11 O 0.0107(10) 0.6640(11) 0.5000
O12 O 0.3508(2) 0.2331(2) 0.60691(17)
O13 O 0.1334(2) 0.6816(2) 0.54903(19)
O14 O 0.0612(3) 0.4575(3) 0.5000
O15 O 0.1650(3) 0.7884(3) 0.5000
C1 C 0.2794(3) 0.4491(3) 0.6512(3)
H1 H 0.2733 0.4889 0.6647
C2 C 0.3222(3) 0.4073(3) 0.6730(3)
C3 C 0.3316(3) 0.3488(3) 0.6520(3)
H2 H 0.3603 0.3208 0.6659
C4 C 0.2013(3) 0.4784(3) 0.5855(3)
C5 C 0.3593(3) 0.4274(3) 0.7165(3)
C6 C 0.2987(3) 0.3313(3) 0.6104(3)
C7 C 0.2562(3) 0.3736(3) 0.5889(3)
H3 H 0.2348 0.3623 0.5605
C8 C 0.2460(3) 0.4319(3) 0.6096(3)
C9 C 0.3111(3) 0.2690(3) 0.5864(3)
Cl1 Cl 0.22379(10) 0.58697(11) 0.5000
Cl2 Cl 0.5000 0.5000 0.72500(13)
V1A V 0.49388(8) 0.11777(7) 0.5000
V3A V 0.28398(8) 0.18407(8) 0.5000
V4A V 0.60769(6) 0.46584(6) 0.78511(5)
V5A V 0.38874(6) 0.14937(5) 0.58649(5)
V6A V 0.3646(2) 0.0834(2) 0.5000
O1A O 0.6119(2) 0.3985(2) 0.73311(18)
O2A O 0.5404(2) 0.4225(2) 0.81519(18)
O3A O 0.4684(2) 0.1961(2) 0.60609(17)
O4A O 0.6680(3) 0.4469(3) 0.81708(19)
O5A O 0.7426(2) 0.2808(2) 0.54836(18)
O6A O 0.3781(2) 0.1092(2) 0.6349(2)
O7A O 0.4386(2) 0.0952(2) 0.54914(19)
O9A O 0.5399(2) 0.1750(2) 0.54742(19)
O10A O 0.5184(2) 0.3498(2) 0.73348(17)
O11A O 0.3360(11) 0.0107(10) 0.5000
O12A O 0.7669(2) 0.3508(2) 0.60691(17)
O13A O 0.3184(2) 0.1334(2) 0.54903(19)
O14A O 0.5425(3) 0.0612(3) 0.5000
O15A O 0.2116(3) 0.1650(3) 0.5000
C1A C 0.5509(3) 0.2794(3) 0.6512(3)
H1A H 0.5111 0.2733 0.6647
C2A C 0.5927(3) 0.3222(3) 0.6730(3)
C3A C 0.6512(3) 0.3316(3) 0.6520(3)
H2A H 0.6792 0.3603 0.6659
C4A C 0.5216(3) 0.2013(3) 0.5855(3)
C5A C 0.5726(3) 0.3593(3) 0.7165(3)
C6A C 0.6687(3) 0.2987(3) 0.6104(3)
C7A C 0.6264(3) 0.2562(3) 0.5889(3)
H3A H 0.6377 0.2348 0.5605
C8A C 0.5681(3) 0.2460(3) 0.6096(3)
C9A C 0.7310(3) 0.3111(3) 0.5864(3)
Cl1A Cl 0.41303(11) 0.22379(10) 0.5000
V1B V 0.88223(7) 0.49388(8) 0.5000
V3B V 0.81593(8) 0.28398(8) 0.5000
V4B V 0.53416(6) 0.60769(6) 0.78511(5)
V5B V 0.85063(5) 0.38874(6) 0.58649(5)
V6B V 0.9166(2) 0.3646(2) 0.5000
O1B O 0.6015(2) 0.6119(2) 0.73311(18)
O2B O 0.5775(2) 0.5404(2) 0.81519(18)
O3B O 0.8039(2) 0.4684(2) 0.60609(17)
O4B O 0.5531(3) 0.6680(3) 0.81708(19)
O5B O 0.7192(2) 0.7426(2) 0.54836(18)
O6B O 0.8908(2) 0.3781(2) 0.6349(2)
O7B O 0.9048(2) 0.4386(2) 0.54914(19)
O9B O 0.8250(2) 0.5399(2) 0.54742(19)
O10B O 0.6502(2) 0.5184(2) 0.73348(17)
O11B O 0.9893(10) 0.3360(11) 0.5000
O12B O 0.6492(2) 0.7669(2) 0.60691(17)
O13B O 0.8666(2) 0.3184(2) 0.54903(19)
O14B O 0.9388(3) 0.5425(3) 0.5000
O15B O 0.8350(3) 0.2116(3) 0.5000
C1B C 0.7206(3) 0.5509(3) 0.6512(3)
H1B H 0.7267 0.5111 0.6647
C2B C 0.6778(3) 0.5927(3) 0.6730(3)
C3B C 0.6684(3) 0.6512(3) 0.6520(3)
H2B H 0.6397 0.6792 0.6659
C4B C 0.7987(3) 0.5216(3) 0.5855(3)
C5B C 0.6407(3) 0.5726(3) 0.7165(3)
C6B C 0.7013(3) 0.6687(3) 0.6104(3)
C7B C 0.7438(3) 0.6264(3) 0.5889(3)
H3B H 0.7652 0.6377 0.5605
C8B C 0.7540(3) 0.5681(3) 0.6096(3)
C9B C 0.6889(3) 0.7310(3) 0.5864(3)
Cl1B Cl 0.77621(10) 0.41303(11) 0.5000
V1C V 0.50612(8) 0.88223(7) 0.5000
V3C V 0.71602(8) 0.81593(8) 0.5000
V4C V 0.39231(6) 0.53416(6) 0.78511(5)
V5C V 0.61126(6) 0.85063(5) 0.58649(5)
V6C V 0.6354(2) 0.9166(2) 0.5000
O1C O 0.3881(2) 0.6015(2) 0.73311(18)
O2C O 0.4596(2) 0.5775(2) 0.81519(18)
O3C O 0.5316(2) 0.8039(2) 0.60609(17)
O4C O 0.3320(3) 0.5531(3) 0.81708(19)
O5C O 0.2574(2) 0.7192(2) 0.54836(18)
O6C O 0.6219(2) 0.8908(2) 0.6349(2)
O7C O 0.5614(2) 0.9048(2) 0.54914(19)
O9C O 0.4601(2) 0.8250(2) 0.54742(19)
O10C O 0.4816(2) 0.6502(2) 0.73348(17)
O11C O 0.6640(11) 0.9893(10) 0.5000
O12C O 0.2331(2) 0.6492(2) 0.60691(17)
O13C O 0.6816(2) 0.8666(2) 0.54903(19)
O14C O 0.4575(3) 0.9388(3) 0.5000
O15C O 0.7884(3) 0.8350(3) 0.5000
C1C C 0.4491(3) 0.7206(3) 0.6512(3)
H1C H 0.4889 0.7267 0.6647
C2C C 0.4073(3) 0.6778(3) 0.6730(3)
C3C C 0.3488(3) 0.6684(3) 0.6520(3)
H2C H 0.3208 0.6397 0.6659
C4C C 0.4784(3) 0.7987(3) 0.5855(3)
C5C C 0.4274(3) 0.6407(3) 0.7165(3)
C6C C 0.3313(3) 0.7013(3) 0.6104(3)
C7C C 0.3736(3) 0.7438(3) 0.5889(3)
H3C H 0.3623 0.7652 0.5605
C8C C 0.4319(3) 0.7540(3) 0.6096(3)
C9C C 0.2690(3) 0.6889(3) 0.5864(3)
Cl1C Cl 0.58697(11) 0.77621(10) 0.5000
V2H V 0.5000 0.5000 0.15974(17)
V4I V 0.39231(6) 0.53416(6) 0.21489(5)
V5I V 0.61126(6) 0.85063(5) 0.41351(5)
O1I O 0.3881(2) 0.6015(2) 0.26689(18)
O2I O 0.4596(2) 0.5775(2) 0.18481(18)
O3I O 0.5316(2) 0.8039(2) 0.39391(17)
O4I O 0.3320(3) 0.5531(3) 0.18292(19)
O5I O 0.2574(2) 0.7192(2) 0.45164(18)
O6I O 0.6219(2) 0.8908(2) 0.3651(2)
O7I O 0.5614(2) 0.9048(2) 0.45086(19)
O8H O 0.5000 0.5000 0.1005(6)
O9I O 0.4601(2) 0.8250(2) 0.45258(19)
O10I O 0.4816(2) 0.6502(2) 0.26652(17)
O12I O 0.2331(2) 0.6492(2) 0.39309(17)
O13I O 0.6816(2) 0.8666(2) 0.45097(19)
C1I C 0.4491(3) 0.7206(3) 0.3488(3)
H1I H 0.4889 0.7267 0.3353
C2I C 0.4073(3) 0.6778(3) 0.3270(3)
C3I C 0.3488(3) 0.6684(3) 0.3480(3)
H2I H 0.3208 0.6397 0.3341
C4I C 0.4784(3) 0.7987(3) 0.4145(3)
C5I C 0.4274(3) 0.6407(3) 0.2835(3)
C6I C 0.3313(3) 0.7013(3) 0.3896(3)
C7I C 0.3736(3) 0.7438(3) 0.4111(3)
H3I H 0.3623 0.7652 0.4395
C8I C 0.4319(3) 0.7540(3) 0.3904(3)
C9I C 0.2690(3) 0.6889(3) 0.4136(3)
Cl2H Cl 0.5000 0.5000 0.27500(13)
V4J V 0.46584(6) 0.39231(6) 0.21489(5)
V5J V 0.14937(5) 0.61126(6) 0.41351(5)
O1J O 0.3985(2) 0.3881(2) 0.26689(18)
O2J O 0.4225(2) 0.4596(2) 0.18481(18)
O3J O 0.1961(2) 0.5316(2) 0.39391(17)
O4J O 0.4469(3) 0.3320(3) 0.18292(19)
O5J O 0.2808(2) 0.2574(2) 0.45164(18)
O6J O 0.1092(2) 0.6219(2) 0.3651(2)
O7J O 0.0952(2) 0.5614(2) 0.45086(19)
O9J O 0.1750(2) 0.4601(2) 0.45258(19)
O10J O 0.3498(2) 0.4816(2) 0.26652(17)
O12J O 0.3508(2) 0.2331(2) 0.39309(17)
O13J O 0.1334(2) 0.6816(2) 0.45097(19)
C1J C 0.2794(3) 0.4491(3) 0.3488(3)
H1J H 0.2733 0.4889 0.3353
C2J C 0.3222(3) 0.4073(3) 0.3270(3)
C3J C 0.3316(3) 0.3488(3) 0.3480(3)
H2J H 0.3603 0.3208 0.3341
C4J C 0.2013(3) 0.4784(3) 0.4145(3)
C5J C 0.3593(3) 0.4274(3) 0.2835(3)
C6J C 0.2987(3) 0.3313(3) 0.3896(3)
C7J C 0.2562(3) 0.3736(3) 0.4111(3)
H3J H 0.2348 0.3623 0.4395
C8J C 0.2460(3) 0.4319(3) 0.3904(3)
C9J C 0.3111(3) 0.2690(3) 0.4136(3)
V4K V 0.60769(6) 0.46584(6) 0.21489(5)
V5K V 0.38874(6) 0.14937(5) 0.41351(5)
O1K O 0.6119(2) 0.3985(2) 0.26689(18)
O2K O 0.5404(2) 0.4225(2) 0.18481(18)
O3K O 0.4684(2) 0.1961(2) 0.39391(17)
O4K O 0.6680(3) 0.4469(3) 0.18292(19)
O5K O 0.7426(2) 0.2808(2) 0.45164(18)
O6K O 0.3781(2) 0.1092(2) 0.3651(2)
O7K O 0.4386(2) 0.0952(2) 0.45086(19)
O9K O 0.5399(2) 0.1750(2) 0.45258(19)
O10K O 0.5184(2) 0.3498(2) 0.26652(17)
O12K O 0.7669(2) 0.3508(2) 0.39309(17)
O13K O 0.3184(2) 0.1334(2) 0.45097(19)
C1K C 0.5509(3) 0.2794(3) 0.3488(3)
H1K H 0.5111 0.2733 0.3353
C2K C 0.5927(3) 0.3222(3) 0.3270(3)
C3K C 0.6512(3) 0.3316(3) 0.3480(3)
H2K H 0.6792 0.3603 0.3341
C4K C 0.5216(3) 0.2013(3) 0.4145(3)
C5K C 0.5726(3) 0.3593(3) 0.2835(3)
C6K C 0.6687(3) 0.2987(3) 0.3896(3)
C7K C 0.6264(3) 0.2562(3) 0.4111(3)
H3K H 0.6377 0.2348 0.4395
C8K C 0.5681(3) 0.2460(3) 0.3904(3)
C9K C 0.7310(3) 0.3111(3) 0.4136(3)
V4H V 0.53416(6) 0.60769(6) 0.21489(5)
V5H V 0.85063(5) 0.38874(6) 0.41351(5)
O1H O 0.6015(2) 0.6119(2) 0.26689(18)
O2H O 0.5775(2) 0.5404(2) 0.18481(18)
O3H O 0.8039(2) 0.4684(2) 0.39391(17)
O4H O 0.5531(3) 0.6680(3) 0.18292(19)
O5H O 0.7192(2) 0.7426(2) 0.45164(18)
O6H O 0.8908(2) 0.3781(2) 0.3651(2)
O7H O 0.9048(2) 0.4386(2) 0.45086(19)
O9H O 0.8250(2) 0.5399(2) 0.45258(19)
O10H O 0.6502(2) 0.5184(2) 0.26652(17)
O12H O 0.6492(2) 0.7669(2) 0.39309(17)
O13H O 0.8666(2) 0.3184(2) 0.45097(19)
C1H C 0.7206(3) 0.5509(3) 0.3488(3)
H1H H 0.7267 0.5111 0.3353
C2H C 0.6778(3) 0.5927(3) 0.3270(3)
C3H C 0.6684(3) 0.6512(3) 0.3480(3)
H2H H 0.6397 0.6792 0.3341
C4H C 0.7987(3) 0.5216(3) 0.4145(3)
C5H C 0.6407(3) 0.5726(3) 0.2835(3)
C6H C 0.7013(3) 0.6687(3) 0.3896(3)
C7H C 0.7438(3) 0.6264(3) 0.4111(3)
H3H H 0.7652 0.6377 0.4395
C8H C 0.7540(3) 0.5681(3) 0.3904(3)
C9H C 0.6889(3) 0.7310(3) 0.4136(3)
C10 C 0.4009(14) 0.2097(12) 0.7300(10)
N1 N 0.3889(15) 0.1720(14) 0.7734(11)
C11 C 0.330(2) 0.194(3) 0.796(2)
O16 O 0.534(4) 0.341(4) 0.5000
C12 C 0.5440(7) 0.0366(5) 0.6286(5)
H4 H 0.5713 0.0605 0.6076
H5 H 0.5689 0.0086 0.6483
H6 H 0.5208 0.0649 0.6493
N2 N 0.5000 0.0000 0.5992(4)
H7 H 0.5220 -0.0264 0.5799
C12B C 0.4560(7) -0.0366(5) 0.6286(5)
H4B H 0.4287 -0.0605 0.6076
H5B H 0.4311 -0.0086 0.6483
H6B H 0.4792 -0.0649 0.6493
H7B H 0.4780 0.0264 0.5799
O17? O 0.457(2) 0.361(2) 0.4276(18)
O18? O 0.4713(17) 0.4175(17) 0.3850(14)
O19? O 0.610(3) 0.379(3) 0.5000
O20? O 0.452(5) 0.389(4) 0.471(3)
O21? O 0.508(8) 0.393(6) 0.457(5)
O22? O 0.456(3) 0.481(5) 0.407(3)
O23? O -0.009(3) 0.685(3) 0.477(2)
O24? O -0.039(4) 0.814(4) 0.541(3)
O25? O 0.047(3) 0.774(3) 0.609(2)
O26? O 0.074(3) 0.873(3) 0.569(2)
O27? O -0.007(4) 0.733(4) 0.588(3)
O28? O 0.130(4) 0.766(4) 0.684(3)
O29? O 0.291(5) 0.266(5) 0.814(4)
O30? O 0.493(3) 0.189(3) 0.792(2)
O31? O 0.298(4) 0.233(5) 0.765(4)
O32? O 0.409(4) 0.181(4) 0.830(3)
O33? O 0.323(4) 0.143(4) 0.764(3)
O34? O 0.355(4) 0.220(4) 0.854(3)
O35? O 0.468(5) 0.153(4) 0.744(3)
O36? O 0.434(4) 0.435(5) 0.436(3)
O37? O 0.173(2) 0.821(2) 0.6222(16)
O38? O 0.117(3) 0.884(3) 0.584(2)
O39? O 0.1139(17) 0.7979(16) 0.6368(14)
O40? O 0.031(2) 0.817(2) 0.5724(19)
O41? O 0.075(2) 0.828(3) 0.6007(19)
O42? O -0.1211(16) 0.6970(15) 0.5000
O43? O -0.061(3) 0.721(2) 0.5000
O44? O -0.083(3) 0.722(3) 0.454(2)
C13? C 0.419(3) 0.1090(17) 0.765(2)
loop_
_geom_bond_atom_site_label_1
_geom_bond_atom_site_label_2
_geom_bond_site_symmetry_1
_geom_bond_site_symmetry_2
V1 O7 1_555 1_555
V2 O2 1_555 1_555
V3 O13 1_555 1_555
V4 O1 1_555 1_555
V5 O3 1_555 1_555
V6 O7 1_555 1_555
O1 C5 1_555 1_555
O2 V4 1_555 1_555
O3 C4 1_555 1_555
O4 V4 1_555 1_555
O5 C9 1_555 1_555
O6 V5 1_555 1_555
O7 V5 1_555 1_555
O8 V2 1_555 1_555
O9 V1 1_555 1_555
O10 C5 1_555 1_555
O11 V6 1_555 1_555
O12 C9 1_555 1_555
O13 V5 1_555 1_555
O14 V1 1_555 1_555
O15 V3 1_555 1_555
C1 H1 1_555 1_555
C2 C1 1_555 1_555
C3 C2 1_555 1_555
H2 C3 1_555 1_555
C4 O9 1_555 1_555
C5 C2 1_555 1_555
C6 C3 1_555 1_555
C7 C6 1_555 1_555
H3 C7 1_555 1_555
C8 C1 1_555 1_555
C9 C6 1_555 1_555
Cl1 V1 1_555 1_555
Cl2 V4 1_555 1_555
C10 N1 1_555 1_555
N1 C11 1_555 1_555
C12 H4 1_555 1_555
H5 C12 1_555 1_555
H6 C12 1_555 1_555
N2 C12 1_555 1_555
H7 N2 1_555 1_555
V1A O7A 1_555 1_555
V3A O5 1_555 1_555
V4A Cl2 1_555 1_555
V5A O12 1_555 1_555
V6A O7A 1_555 1_555
O1A V4A 1_555 1_555
O2A V2 1_555 1_555
O3A V5A 1_555 1_555
O4A V4A 1_555 1_555
O5A C9A 1_555 1_555
O6A V5A 1_555 1_555
O7A V5A 1_555 1_555
O9A V1A 1_555 1_555
O10A V4 1_555 1_555
O11A V6A 1_555 1_555
O12A C9A 1_555 1_555
O13A V3A 1_555 1_555
O14A V1A 1_555 1_555
O15A V3A 1_555 1_555
C1A H1A 1_555 1_555
C2A C1A 1_555 1_555
C3A C2A 1_555 1_555
H2A C3A 1_555 1_555
C4A O3A 1_555 1_555
C5A O1A 1_555 1_555
C6A C3A 1_555 1_555
C7A C6A 1_555 1_555
H3A C7A 1_555 1_555
C8A C1A 1_555 1_555
C9A C6A 1_555 1_555
Cl1A V1A 1_555 1_555
V1B O7B 1_555 1_555
V3B O5A 1_555 1_555
V4B Cl2 1_555 1_555
V5B O12A 1_555 1_555
V6B O7B 1_555 1_555
O1B V4B 1_555 1_555
O2B V2 1_555 1_555
O3B V5B 1_555 1_555
O4B V4B 1_555 1_555
O5B C9B 1_555 1_555
O6B V5B 1_555 1_555
O7B V5B 1_555 1_555
O9B V1B 1_555 1_555
O10B V4A 1_555 1_555
O11B V6B 1_555 1_555
O12B C9B 1_555 1_555
O13B V3B 1_555 1_555
O14B V1B 1_555 1_555
O15B V3B 1_555 1_555
C1B H1B 1_555 1_555
C2B C1B 1_555 1_555
C3B C2B 1_555 1_555
H2B C3B 1_555 1_555
C4B O3B 1_555 1_555
C5B O1B 1_555 1_555
C6B C3B 1_555 1_555
C7B C6B 1_555 1_555
H3B C7B 1_555 1_555
C8B C1B 1_555 1_555
C9B C6B 1_555 1_555
Cl1B V1B 1_555 1_555
V1C O7C 1_555 1_555
V3C O5B 1_555 1_555
V4C O2 1_555 1_555
V5C O12B 1_555 1_555
V6C O7C 1_555 1_555
O1C V4C 1_555 1_555
O2C V2 1_555 1_555
O3C V5C 1_555 1_555
O4C V4C 1_555 1_555
O5C V3 1_555 1_555
O6C V5C 1_555 1_555
O7C V5C 1_555 1_555
O9C V1C 1_555 1_555
O10C V4B 1_555 1_555
O11C V6C 1_555 1_555
O12C V5 1_555 1_555
O13C V3C 1_555 1_555
O14C V1C 1_555 1_555
O15C V3C 1_555 1_555
C1C H1C 1_555 1_555
C2C C1C 1_555 1_555
C3C C2C 1_555 1_555
H2C C3C 1_555 1_555
C4C O3C 1_555 1_555
C5C O1C 1_555 1_555
C6C C3C 1_555 1_555
C7C C6C 1_555 1_555
H3C C7C 1_555 1_555
C8C C1C 1_555 1_555
C9C O5C 1_555 1_555
Cl1C V1C 1_555 1_555
V2H O2I 1_555 1_555
V4I O1I 1_555 1_555
V5I Cl1C 1_555 1_555
O1I C5I 1_555 1_555
O2I V4I 1_555 1_555
O3I V5I 1_555 1_555
O4I V4I 1_555 1_555
O5I V3 1_555 1_555
O6I V5I 1_555 1_555
O7I V1C 1_555 1_555
O8H V2H 1_555 1_555
O9I V1C 1_555 1_555
O10I C5I 1_555 1_555
O12I C9I 1_555 1_555
O13I V3C 1_555 1_555
C1I H1I 1_555 1_555
C2I C1I 1_555 1_555
C3I C2I 1_555 1_555
H2I C3I 1_555 1_555
C4I O3I 1_555 1_555
C5I C2I 1_555 1_555
C6I C3I 1_555 1_555
C7I C6I 1_555 1_555
H3I C7I 1_555 1_555
C8I C1I 1_555 1_555
C9I O5I 1_555 1_555
Cl2H V4I 1_555 1_555
V4J Cl2H 1_555 1_555
V5J Cl1 1_555 1_555
O1J V4J 1_555 1_555
O2J V2H 1_555 1_555
O3J V5J 1_555 1_555
O4J V4J 1_555 1_555
O5J V3A 1_555 1_555
O6J V5J 1_555 1_555
O7J V1 1_555 1_555
O9J V1 1_555 1_555
O10J V4I 1_555 1_555
O12J C9J 1_555 1_555
O13J V3 1_555 1_555
C1J H1J 1_555 1_555
C2J C1J 1_555 1_555
C3J C2J 1_555 1_555
H2J C3J 1_555 1_555
C4J O3J 1_555 1_555
C5J O1J 1_555 1_555
C6J C3J 1_555 1_555
C7J C6J 1_555 1_555
H3J C7J 1_555 1_555
C8J C1J 1_555 1_555
C9J O5J 1_555 1_555
V4K Cl2H 1_555 1_555
V5K Cl1A 1_555 1_555
O1K V4K 1_555 1_555
O2K V2H 1_555 1_555
O3K V5K 1_555 1_555
O4K V4K 1_555 1_555
O5K V3B 1_555 1_555
O6K V5K 1_555 1_555
O7K V1A 1_555 1_555
O9K V1A 1_555 1_555
O10K V4J 1_555 1_555
O12K C9K 1_555 1_555
O13K V3A 1_555 1_555
C1K H1K 1_555 1_555
C2K C1K 1_555 1_555
C3K C2K 1_555 1_555
H2K C3K 1_555 1_555
C4K O3K 1_555 1_555
C5K O1K 1_555 1_555
C6K C3K 1_555 1_555
C7K C6K 1_555 1_555
H3K C7K 1_555 1_555
C8K C1K 1_555 1_555
C9K O5K 1_555 1_555
V4H O2I 1_555 1_555
V5H Cl1B 1_555 1_555
O1H V4H 1_555 1_555
O2H V2H 1_555 1_555
O3H V5H 1_555 1_555
O4H V4H 1_555 1_555
O5H V3C 1_555 1_555
O6H V5H 1_555 1_555
O7H V1B 1_555 1_555
O9H V1B 1_555 1_555
O10H V4K 1_555 1_555
O12H V5I 1_555 1_555
O13H V3B 1_555 1_555
C1H H1H 1_555 1_555
C2H C1H 1_555 1_555
C3H C2H 1_555 1_555
H2H C3H 1_555 1_555
C4H O3H 1_555 1_555
C5H O1H 1_555 1_555
C6H C3H 1_555 1_555
C7H C6H 1_555 1_555
H3H C7H 1_555 1_555
C8H C1H 1_555 1_555
C9H O5H 1_555 1_555
C12B N2 1_555 1_555
H4B C12B 1_555 1_555
H5B C12B 1_555 1_555
H6B C12B 1_555 1_555
H7B N2 1_555 1_555
V3 Cl1 1_555 1_555
V4 O2A 1_555 1_555
V5 Cl1 1_555 1_555
V6 O13 1_555 1_555
V6 O7J 1_555 1_555
V6 O13J 1_555 1_555
O10 V4C 1_555 1_555
C4 C8 1_555 1_555
C7 C8 1_555 1_555
Cl2 V4C 1_555 1_555
V3A Cl1A 1_555 1_555
V4A O2A 1_555 1_555
V4A O2B 1_555 1_555
V5A O13A 1_555 1_555
V5A Cl1A 1_555 1_555
V6A O13A 1_555 1_555
V6A O7K 1_555 1_555
V6A O13K 1_555 1_555
O9A C4A 1_555 1_555
O10A C5A 1_555 1_555
C2A C5A 1_555 1_555
C4A C8A 1_555 1_555
C7A C8A 1_555 1_555
V3B Cl1B 1_555 1_555
V4B O2B 1_555 1_555
V4B O2C 1_555 1_555
V5B O13B 1_555 1_555
V5B Cl1B 1_555 1_555
V6B O13B 1_555 1_555
V6B O7H 1_555 1_555
V6B O13H 1_555 1_555
O9B C4B 1_555 1_555
O10B C5B 1_555 1_555
C2B C5B 1_555 1_555
C4B C8B 1_555 1_555
C7B C8B 1_555 1_555
V3C Cl1C 1_555 1_555
V4C O2C 1_555 1_555
V5C O13C 1_555 1_555
V5C Cl1C 1_555 1_555
V6C O13C 1_555 1_555
V6C O7I 1_555 1_555
V6C O13I 1_555 1_555
O9C C4C 1_555 1_555
O10C C5C 1_555 1_555
O12C C9C 1_555 1_555
C2C C5C 1_555 1_555
C4C C8C 1_555 1_555
C6C C9C 1_555 1_555
C7C C8C 1_555 1_555
V4I O2J 1_555 1_555
V5I O7I 1_555 1_555
V5I O13I 1_555 1_555
O9I C4I 1_555 1_555
O10I V4H 1_555 1_555
O12I V5J 1_555 1_555
C4I C8I 1_555 1_555
C6I C9I 1_555 1_555
C7I C8I 1_555 1_555
Cl2H V4H 1_555 1_555
V4J O2J 1_555 1_555
V4J O2K 1_555 1_555
V5J O7J 1_555 1_555
V5J O13J 1_555 1_555
O9J C4J 1_555 1_555
O10J C5J 1_555 1_555
O12J V5K 1_555 1_555
C2J C5J 1_555 1_555
C4J C8J 1_555 1_555
C6J C9J 1_555 1_555
C7J C8J 1_555 1_555
V4K O2K 1_555 1_555
V4K O2H 1_555 1_555
V5K O7K 1_555 1_555
V5K O13K 1_555 1_555
O9K C4K 1_555 1_555
O10K C5K 1_555 1_555
O12K V5H 1_555 1_555
C2K C5K 1_555 1_555
C4K C8K 1_555 1_555
C6K C9K 1_555 1_555
C7K C8K 1_555 1_555
V4H O2H 1_555 1_555
V5H O7H 1_555 1_555
V5H O13H 1_555 1_555
O9H C4H 1_555 1_555
O10H C5H 1_555 1_555
O12H C9H 1_555 1_555
C2H C5H 1_555 1_555
C4H C8H 1_555 1_555
C6H C9H 1_555 1_555
C7H C8H 1_555 1_555

#END
