# generated using pymatgen
data_H54Ru2C38NClO9
_symmetry_space_group_name_H-M   'P 1'
_cell_length_a   29.68200000
_cell_length_b   29.68200000
_cell_length_c   41.88200000
_cell_angle_alpha   90.00000000
_cell_angle_beta   90.00000000
_cell_angle_gamma   90.00000000
_symmetry_Int_Tables_number   1
_chemical_formula_structural   H54Ru2C38NClO9
_chemical_formula_sum   'H1296 Ru48 C912 N24 Cl24 O216'
_cell_volume   36898.92671537
_cell_formula_units_Z   24
loop_
 _symmetry_equiv_pos_site_id
 _symmetry_equiv_pos_as_xyz
  1  'x, y, z'
loop_
 _atom_site_type_symbol
 _atom_site_label
 _atom_site_symmetry_multiplicity
 _atom_site_fract_x
 _atom_site_fract_y
 _atom_site_fract_z
 _atom_site_occupancy
  H  H1  1  0.067700  0.251600  0.323400  1
  H  H2  1  0.748400  0.067700  0.323400  1
  H  H3  1  0.932300  0.748400  0.323400  1
  H  H4  1  0.251600  0.932300  0.323400  1
  H  H5  1  0.567700  0.751600  0.823400  1
  H  H6  1  0.248400  0.567700  0.823400  1
  H  H7  1  0.432300  0.248400  0.823400  1
  H  H8  1  0.751600  0.432300  0.823400  1
  H  H9  1  0.932300  0.748400  0.676600  1
  H  H10  1  0.251600  0.932300  0.676600  1
  H  H11  1  0.067700  0.251600  0.676600  1
  H  H12  1  0.748400  0.067700  0.676600  1
  H  H13  1  0.432300  0.248400  0.176600  1
  H  H14  1  0.751600  0.432300  0.176600  1
  H  H15  1  0.567700  0.751600  0.176600  1
  H  H16  1  0.248400  0.567700  0.176600  1
  H  H17  1  0.073600  0.275500  0.289800  1
  H  H18  1  0.724500  0.073600  0.289800  1
  H  H19  1  0.926400  0.724500  0.289800  1
  H  H20  1  0.275500  0.926400  0.289800  1
  H  H21  1  0.573600  0.775500  0.789800  1
  H  H22  1  0.224500  0.573600  0.789800  1
  H  H23  1  0.426400  0.224500  0.789800  1
  H  H24  1  0.775500  0.426400  0.789800  1
  H  H25  1  0.926400  0.724500  0.710200  1
  H  H26  1  0.275500  0.926400  0.710200  1
  H  H27  1  0.073600  0.275500  0.710200  1
  H  H28  1  0.724500  0.073600  0.710200  1
  H  H29  1  0.426400  0.224500  0.210200  1
  H  H30  1  0.775500  0.426400  0.210200  1
  H  H31  1  0.573600  0.775500  0.210200  1
  H  H32  1  0.224500  0.573600  0.210200  1
  H  H33  1  0.086700  0.224100  0.293900  1
  H  H34  1  0.775900  0.086700  0.293900  1
  H  H35  1  0.913300  0.775900  0.293900  1
  H  H36  1  0.224100  0.913300  0.293900  1
  H  H37  1  0.586700  0.724100  0.793900  1
  H  H38  1  0.275900  0.586700  0.793900  1
  H  H39  1  0.413300  0.275900  0.793900  1
  H  H40  1  0.724100  0.413300  0.793900  1
  H  H41  1  0.913300  0.775900  0.706100  1
  H  H42  1  0.224100  0.913300  0.706100  1
  H  H43  1  0.086700  0.224100  0.706100  1
  H  H44  1  0.775900  0.086700  0.706100  1
  H  H45  1  0.413300  0.275900  0.206100  1
  H  H46  1  0.724100  0.413300  0.206100  1
  H  H47  1  0.586700  0.724100  0.206100  1
  H  H48  1  0.275900  0.586700  0.206100  1
  H  H49  1  0.958300  0.275000  0.279300  1
  H  H50  1  0.725000  0.958300  0.279300  1
  H  H51  1  0.041700  0.725000  0.279300  1
  H  H52  1  0.275000  0.041700  0.279300  1
  H  H53  1  0.458300  0.775000  0.779300  1
  H  H54  1  0.225000  0.458300  0.779300  1
  H  H55  1  0.541700  0.225000  0.779300  1
  H  H56  1  0.775000  0.541700  0.779300  1
  H  H57  1  0.041700  0.725000  0.720700  1
  H  H58  1  0.275000  0.041700  0.720700  1
  H  H59  1  0.958300  0.275000  0.720700  1
  H  H60  1  0.725000  0.958300  0.720700  1
  H  H61  1  0.541700  0.225000  0.220700  1
  H  H62  1  0.775000  0.541700  0.220700  1
  H  H63  1  0.458300  0.775000  0.220700  1
  H  H64  1  0.225000  0.458300  0.220700  1
  H  H65  1  0.003600  0.298600  0.268200  1
  H  H66  1  0.701400  0.003600  0.268200  1
  H  H67  1  0.996400  0.701400  0.268200  1
  H  H68  1  0.298600  0.996400  0.268200  1
  H  H69  1  0.503600  0.798600  0.768200  1
  H  H70  1  0.201400  0.503600  0.768200  1
  H  H71  1  0.496400  0.201400  0.768200  1
  H  H72  1  0.798600  0.496400  0.768200  1
  H  H73  1  0.996400  0.701400  0.731800  1
  H  H74  1  0.298600  0.996400  0.731800  1
  H  H75  1  0.003600  0.298600  0.731800  1
  H  H76  1  0.701400  0.003600  0.731800  1
  H  H77  1  0.496400  0.201400  0.231800  1
  H  H78  1  0.798600  0.496400  0.231800  1
  H  H79  1  0.503600  0.798600  0.231800  1
  H  H80  1  0.201400  0.503600  0.231800  1
  H  H81  1  0.989400  0.299400  0.304700  1
  H  H82  1  0.700600  0.989400  0.304700  1
  H  H83  1  0.010600  0.700600  0.304700  1
  H  H84  1  0.299400  0.010600  0.304700  1
  H  H85  1  0.489400  0.799400  0.804700  1
  H  H86  1  0.200600  0.489400  0.804700  1
  H  H87  1  0.510600  0.200600  0.804700  1
  H  H88  1  0.799400  0.510600  0.804700  1
  H  H89  1  0.010600  0.700600  0.695300  1
  H  H90  1  0.299400  0.010600  0.695300  1
  H  H91  1  0.989400  0.299400  0.695300  1
  H  H92  1  0.700600  0.989400  0.695300  1
  H  H93  1  0.510600  0.200600  0.195300  1
  H  H94  1  0.799400  0.510600  0.195300  1
  H  H95  1  0.489400  0.799400  0.195300  1
  H  H96  1  0.200600  0.489400  0.195300  1
  H  H97  1  0.995100  0.173700  0.308800  1
  H  H98  1  0.826300  0.995100  0.308800  1
  H  H99  1  0.004900  0.826300  0.308800  1
  H  H100  1  0.173700  0.004900  0.308800  1
  H  H101  1  0.495100  0.673700  0.808800  1
  H  H102  1  0.326300  0.495100  0.808800  1
  H  H103  1  0.504900  0.326300  0.808800  1
  H  H104  1  0.673700  0.504900  0.808800  1
  H  H105  1  0.004900  0.826300  0.691200  1
  H  H106  1  0.173700  0.004900  0.691200  1
  H  H107  1  0.995100  0.173700  0.691200  1
  H  H108  1  0.826300  0.995100  0.691200  1
  H  H109  1  0.504900  0.326300  0.191200  1
  H  H110  1  0.673700  0.504900  0.191200  1
  H  H111  1  0.495100  0.673700  0.191200  1
  H  H112  1  0.326300  0.495100  0.191200  1
  H  H113  1  0.956400  0.210300  0.306500  1
  H  H114  1  0.789700  0.956400  0.306500  1
  H  H115  1  0.043600  0.789700  0.306500  1
  H  H116  1  0.210300  0.043600  0.306500  1
  H  H117  1  0.456400  0.710300  0.806500  1
  H  H118  1  0.289700  0.456400  0.806500  1
  H  H119  1  0.543600  0.289700  0.806500  1
  H  H120  1  0.710300  0.543600  0.806500  1
  H  H121  1  0.043600  0.789700  0.693500  1
  H  H122  1  0.210300  0.043600  0.693500  1
  H  H123  1  0.956400  0.210300  0.693500  1
  H  H124  1  0.789700  0.956400  0.693500  1
  H  H125  1  0.543600  0.289700  0.193500  1
  H  H126  1  0.710300  0.543600  0.193500  1
  H  H127  1  0.456400  0.710300  0.193500  1
  H  H128  1  0.289700  0.456400  0.193500  1
  H  H129  1  0.992600  0.213100  0.334200  1
  H  H130  1  0.786900  0.992600  0.334200  1
  H  H131  1  0.007400  0.786900  0.334200  1
  H  H132  1  0.213100  0.007400  0.334200  1
  H  H133  1  0.492600  0.713100  0.834200  1
  H  H134  1  0.286900  0.492600  0.834200  1
  H  H135  1  0.507400  0.286900  0.834200  1
  H  H136  1  0.713100  0.507400  0.834200  1
  H  H137  1  0.007400  0.786900  0.665800  1
  H  H138  1  0.213100  0.007400  0.665800  1
  H  H139  1  0.992600  0.213100  0.665800  1
  H  H140  1  0.786900  0.992600  0.665800  1
  H  H141  1  0.507400  0.286900  0.165800  1
  H  H142  1  0.713100  0.507400  0.165800  1
  H  H143  1  0.492600  0.713100  0.165800  1
  H  H144  1  0.286900  0.492600  0.165800  1
  H  H145  1  0.827600  0.416700  0.069500  1
  H  H146  1  0.583300  0.827600  0.069500  1
  H  H147  1  0.172400  0.583300  0.069500  1
  H  H148  1  0.416700  0.172400  0.069500  1
  H  H149  1  0.327600  0.916700  0.569500  1
  H  H150  1  0.083300  0.327600  0.569500  1
  H  H151  1  0.672400  0.083300  0.569500  1
  H  H152  1  0.916700  0.672400  0.569500  1
  H  H153  1  0.172400  0.583300  0.930500  1
  H  H154  1  0.416700  0.172400  0.930500  1
  H  H155  1  0.827600  0.416700  0.930500  1
  H  H156  1  0.583300  0.827600  0.930500  1
  H  H157  1  0.672400  0.083300  0.430500  1
  H  H158  1  0.916700  0.672400  0.430500  1
  H  H159  1  0.327600  0.916700  0.430500  1
  H  H160  1  0.083300  0.327600  0.430500  1
  H  H161  1  0.859900  0.458500  0.074600  1
  H  H162  1  0.541500  0.859900  0.074600  1
  H  H163  1  0.140100  0.541500  0.074600  1
  H  H164  1  0.458500  0.140100  0.074600  1
  H  H165  1  0.359900  0.958500  0.574600  1
  H  H166  1  0.041500  0.359900  0.574600  1
  H  H167  1  0.640100  0.041500  0.574600  1
  H  H168  1  0.958500  0.640100  0.574600  1
  H  H169  1  0.140100  0.541500  0.925400  1
  H  H170  1  0.458500  0.140100  0.925400  1
  H  H171  1  0.859900  0.458500  0.925400  1
  H  H172  1  0.541500  0.859900  0.925400  1
  H  H173  1  0.640100  0.041500  0.425400  1
  H  H174  1  0.958500  0.640100  0.425400  1
  H  H175  1  0.359900  0.958500  0.425400  1
  H  H176  1  0.041500  0.359900  0.425400  1
  H  H177  1  0.812200  0.457400  0.091500  1
  H  H178  1  0.542600  0.812200  0.091500  1
  H  H179  1  0.187800  0.542600  0.091500  1
  H  H180  1  0.457400  0.187800  0.091500  1
  H  H181  1  0.312200  0.957400  0.591500  1
  H  H182  1  0.042600  0.312200  0.591500  1
  H  H183  1  0.687800  0.042600  0.591500  1
  H  H184  1  0.957400  0.687800  0.591500  1
  H  H185  1  0.187800  0.542600  0.908500  1
  H  H186  1  0.457400  0.187800  0.908500  1
  H  H187  1  0.812200  0.457400  0.908500  1
  H  H188  1  0.542600  0.812200  0.908500  1
  H  H189  1  0.687800  0.042600  0.408500  1
  H  H190  1  0.957400  0.687800  0.408500  1
  H  H191  1  0.312200  0.957400  0.408500  1
  H  H192  1  0.042600  0.312200  0.408500  1
  H  H193  1  0.893300  0.475100  0.134800  1
  H  H194  1  0.524900  0.893300  0.134800  1
  H  H195  1  0.106700  0.524900  0.134800  1
  H  H196  1  0.475100  0.106700  0.134800  1
  H  H197  1  0.393300  0.975100  0.634800  1
  H  H198  1  0.024900  0.393300  0.634800  1
  H  H199  1  0.606700  0.024900  0.634800  1
  H  H200  1  0.975100  0.606700  0.634800  1
  H  H201  1  0.106700  0.524900  0.865200  1
  H  H202  1  0.475100  0.106700  0.865200  1
  H  H203  1  0.893300  0.475100  0.865200  1
  H  H204  1  0.524900  0.893300  0.865200  1
  H  H205  1  0.606700  0.024900  0.365200  1
  H  H206  1  0.975100  0.606700  0.365200  1
  H  H207  1  0.393300  0.975100  0.365200  1
  H  H208  1  0.024900  0.393300  0.365200  1
  H  H209  1  0.917900  0.458400  0.103400  1
  H  H210  1  0.541600  0.917900  0.103400  1
  H  H211  1  0.082100  0.541600  0.103400  1
  H  H212  1  0.458400  0.082100  0.103400  1
  H  H213  1  0.417900  0.958400  0.603400  1
  H  H214  1  0.041600  0.417900  0.603400  1
  H  H215  1  0.582100  0.041600  0.603400  1
  H  H216  1  0.958400  0.582100  0.603400  1
  H  H217  1  0.082100  0.541600  0.896600  1
  H  H218  1  0.458400  0.082100  0.896600  1
  H  H219  1  0.917900  0.458400  0.896600  1
  H  H220  1  0.541600  0.917900  0.896600  1
  H  H221  1  0.582100  0.041600  0.396600  1
  H  H222  1  0.958400  0.582100  0.396600  1
  H  H223  1  0.417900  0.958400  0.396600  1
  H  H224  1  0.041600  0.417900  0.396600  1
  H  H225  1  0.925200  0.432300  0.136000  1
  H  H226  1  0.567700  0.925200  0.136000  1
  H  H227  1  0.074800  0.567700  0.136000  1
  H  H228  1  0.432300  0.074800  0.136000  1
  H  H229  1  0.425200  0.932300  0.636000  1
  H  H230  1  0.067700  0.425200  0.636000  1
  H  H231  1  0.574800  0.067700  0.636000  1
  H  H232  1  0.932300  0.574800  0.636000  1
  H  H233  1  0.074800  0.567700  0.864000  1
  H  H234  1  0.432300  0.074800  0.864000  1
  H  H235  1  0.925200  0.432300  0.864000  1
  H  H236  1  0.567700  0.925200  0.864000  1
  H  H237  1  0.574800  0.067700  0.364000  1
  H  H238  1  0.932300  0.574800  0.364000  1
  H  H239  1  0.425200  0.932300  0.364000  1
  H  H240  1  0.067700  0.425200  0.364000  1
  H  H241  1  0.805900  0.400800  0.143300  1
  H  H242  1  0.599200  0.805900  0.143300  1
  H  H243  1  0.194100  0.599200  0.143300  1
  H  H244  1  0.400800  0.194100  0.143300  1
  H  H245  1  0.305900  0.900800  0.643300  1
  H  H246  1  0.099200  0.305900  0.643300  1
  H  H247  1  0.694100  0.099200  0.643300  1
  H  H248  1  0.900800  0.694100  0.643300  1
  H  H249  1  0.194100  0.599200  0.856700  1
  H  H250  1  0.400800  0.194100  0.856700  1
  H  H251  1  0.805900  0.400800  0.856700  1
  H  H252  1  0.599200  0.805900  0.856700  1
  H  H253  1  0.694100  0.099200  0.356700  1
  H  H254  1  0.900800  0.694100  0.356700  1
  H  H255  1  0.305900  0.900800  0.356700  1
  H  H256  1  0.099200  0.305900  0.356700  1
  H  H257  1  0.831600  0.445300  0.153600  1
  H  H258  1  0.554700  0.831600  0.153600  1
  H  H259  1  0.168400  0.554700  0.153600  1
  H  H260  1  0.445300  0.168400  0.153600  1
  H  H261  1  0.331600  0.945300  0.653600  1
  H  H262  1  0.054700  0.331600  0.653600  1
  H  H263  1  0.668400  0.054700  0.653600  1
  H  H264  1  0.945300  0.668400  0.653600  1
  H  H265  1  0.168400  0.554700  0.846400  1
  H  H266  1  0.445300  0.168400  0.846400  1
  H  H267  1  0.831600  0.445300  0.846400  1
  H  H268  1  0.554700  0.831600  0.846400  1
  H  H269  1  0.668400  0.054700  0.346400  1
  H  H270  1  0.945300  0.668400  0.346400  1
  H  H271  1  0.331600  0.945300  0.346400  1
  H  H272  1  0.054700  0.331600  0.346400  1
  H  H273  1  0.852700  0.397500  0.161300  1
  H  H274  1  0.602500  0.852700  0.161300  1
  H  H275  1  0.147300  0.602500  0.161300  1
  H  H276  1  0.397500  0.147300  0.161300  1
  H  H277  1  0.352700  0.897500  0.661300  1
  H  H278  1  0.102500  0.352700  0.661300  1
  H  H279  1  0.647300  0.102500  0.661300  1
  H  H280  1  0.897500  0.647300  0.661300  1
  H  H281  1  0.147300  0.602500  0.838700  1
  H  H282  1  0.397500  0.147300  0.838700  1
  H  H283  1  0.852700  0.397500  0.838700  1
  H  H284  1  0.602500  0.852700  0.838700  1
  H  H285  1  0.647300  0.102500  0.338700  1
  H  H286  1  0.897500  0.647300  0.338700  1
  H  H287  1  0.352700  0.897500  0.338700  1
  H  H288  1  0.102500  0.352700  0.338700  1
  H  H289  1  0.637900  0.245300  0.147000  1
  H  H290  1  0.754700  0.637900  0.147000  1
  H  H291  1  0.362100  0.754700  0.147000  1
  H  H292  1  0.245300  0.362100  0.147000  1
  H  H293  1  0.137900  0.745300  0.647000  1
  H  H294  1  0.254700  0.137900  0.647000  1
  H  H295  1  0.862100  0.254700  0.647000  1
  H  H296  1  0.745300  0.862100  0.647000  1
  H  H297  1  0.362100  0.754700  0.853000  1
  H  H298  1  0.245300  0.362100  0.853000  1
  H  H299  1  0.637900  0.245300  0.853000  1
  H  H300  1  0.754700  0.637900  0.853000  1
  H  H301  1  0.862100  0.254700  0.353000  1
  H  H302  1  0.745300  0.862100  0.353000  1
  H  H303  1  0.137900  0.745300  0.353000  1
  H  H304  1  0.254700  0.137900  0.353000  1
  H  H305  1  0.625600  0.200800  0.166000  1
  H  H306  1  0.799200  0.625600  0.166000  1
  H  H307  1  0.374400  0.799200  0.166000  1
  H  H308  1  0.200800  0.374400  0.166000  1
  H  H309  1  0.125600  0.700800  0.666000  1
  H  H310  1  0.299200  0.125600  0.666000  1
  H  H311  1  0.874400  0.299200  0.666000  1
  H  H312  1  0.700800  0.874400  0.666000  1
  H  H313  1  0.374400  0.799200  0.834000  1
  H  H314  1  0.200800  0.374400  0.834000  1
  H  H315  1  0.625600  0.200800  0.834000  1
  H  H316  1  0.799200  0.625600  0.834000  1
  H  H317  1  0.874400  0.299200  0.334000  1
  H  H318  1  0.700800  0.874400  0.334000  1
  H  H319  1  0.125600  0.700800  0.334000  1
  H  H320  1  0.299200  0.125600  0.334000  1
  H  H321  1  0.587200  0.235600  0.156800  1
  H  H322  1  0.764400  0.587200  0.156800  1
  H  H323  1  0.412800  0.764400  0.156800  1
  H  H324  1  0.235600  0.412800  0.156800  1
  H  H325  1  0.087200  0.735600  0.656800  1
  H  H326  1  0.264400  0.087200  0.656800  1
  H  H327  1  0.912800  0.264400  0.656800  1
  H  H328  1  0.735600  0.912800  0.656800  1
  H  H329  1  0.412800  0.764400  0.843200  1
  H  H330  1  0.235600  0.412800  0.843200  1
  H  H331  1  0.587200  0.235600  0.843200  1
  H  H332  1  0.764400  0.587200  0.843200  1
  H  H333  1  0.912800  0.264400  0.343200  1
  H  H334  1  0.735600  0.912800  0.343200  1
  H  H335  1  0.087200  0.735600  0.343200  1
  H  H336  1  0.264400  0.087200  0.343200  1
  H  H337  1  0.540500  0.170700  0.128800  1
  H  H338  1  0.829300  0.540500  0.128800  1
  H  H339  1  0.459500  0.829300  0.128800  1
  H  H340  1  0.170700  0.459500  0.128800  1
  H  H341  1  0.040500  0.670700  0.628800  1
  H  H342  1  0.329300  0.040500  0.628800  1
  H  H343  1  0.959500  0.329300  0.628800  1
  H  H344  1  0.670700  0.959500  0.628800  1
  H  H345  1  0.459500  0.829300  0.871200  1
  H  H346  1  0.170700  0.459500  0.871200  1
  H  H347  1  0.540500  0.170700  0.871200  1
  H  H348  1  0.829300  0.540500  0.871200  1
  H  H349  1  0.959500  0.329300  0.371200  1
  H  H350  1  0.670700  0.959500  0.371200  1
  H  H351  1  0.040500  0.670700  0.371200  1
  H  H352  1  0.329300  0.040500  0.371200  1
  H  H353  1  0.578100  0.145000  0.148600  1
  H  H354  1  0.855000  0.578100  0.148600  1
  H  H355  1  0.421900  0.855000  0.148600  1
  H  H356  1  0.145000  0.421900  0.148600  1
  H  H357  1  0.078100  0.645000  0.648600  1
  H  H358  1  0.355000  0.078100  0.648600  1
  H  H359  1  0.921900  0.355000  0.648600  1
  H  H360  1  0.645000  0.921900  0.648600  1
  H  H361  1  0.421900  0.855000  0.851400  1
  H  H362  1  0.145000  0.421900  0.851400  1
  H  H363  1  0.578100  0.145000  0.851400  1
  H  H364  1  0.855000  0.578100  0.851400  1
  H  H365  1  0.921900  0.355000  0.351400  1
  H  H366  1  0.645000  0.921900  0.351400  1
  H  H367  1  0.078100  0.645000  0.351400  1
  H  H368  1  0.355000  0.078100  0.351400  1
  H  H369  1  0.570700  0.133500  0.112100  1
  H  H370  1  0.866500  0.570700  0.112100  1
  H  H371  1  0.429300  0.866500  0.112100  1
  H  H372  1  0.133500  0.429300  0.112100  1
  H  H373  1  0.070700  0.633500  0.612100  1
  H  H374  1  0.366500  0.070700  0.612100  1
  H  H375  1  0.929300  0.366500  0.612100  1
  H  H376  1  0.633500  0.929300  0.612100  1
  H  H377  1  0.429300  0.866500  0.887900  1
  H  H378  1  0.133500  0.429300  0.887900  1
  H  H379  1  0.570700  0.133500  0.887900  1
  H  H380  1  0.866500  0.570700  0.887900  1
  H  H381  1  0.929300  0.366500  0.387900  1
  H  H382  1  0.633500  0.929300  0.387900  1
  H  H383  1  0.070700  0.633500  0.387900  1
  H  H384  1  0.366500  0.070700  0.387900  1
  H  H385  1  0.560500  0.237100  0.097300  1
  H  H386  1  0.762900  0.560500  0.097300  1
  H  H387  1  0.439500  0.762900  0.097300  1
  H  H388  1  0.237100  0.439500  0.097300  1
  H  H389  1  0.060500  0.737100  0.597300  1
  H  H390  1  0.262900  0.060500  0.597300  1
  H  H391  1  0.939500  0.262900  0.597300  1
  H  H392  1  0.737100  0.939500  0.597300  1
  H  H393  1  0.439500  0.762900  0.902700  1
  H  H394  1  0.237100  0.439500  0.902700  1
  H  H395  1  0.560500  0.237100  0.902700  1
  H  H396  1  0.762900  0.560500  0.902700  1
  H  H397  1  0.939500  0.262900  0.402700  1
  H  H398  1  0.737100  0.939500  0.402700  1
  H  H399  1  0.060500  0.737100  0.402700  1
  H  H400  1  0.262900  0.060500  0.402700  1
  H  H401  1  0.579300  0.199800  0.073700  1
  H  H402  1  0.800200  0.579300  0.073700  1
  H  H403  1  0.420700  0.800200  0.073700  1
  H  H404  1  0.199800  0.420700  0.073700  1
  H  H405  1  0.079300  0.699800  0.573700  1
  H  H406  1  0.300200  0.079300  0.573700  1
  H  H407  1  0.920700  0.300200  0.573700  1
  H  H408  1  0.699800  0.920700  0.573700  1
  H  H409  1  0.420700  0.800200  0.926300  1
  H  H410  1  0.199800  0.420700  0.926300  1
  H  H411  1  0.579300  0.199800  0.926300  1
  H  H412  1  0.800200  0.579300  0.926300  1
  H  H413  1  0.920700  0.300200  0.426300  1
  H  H414  1  0.699800  0.920700  0.426300  1
  H  H415  1  0.079300  0.699800  0.426300  1
  H  H416  1  0.300200  0.079300  0.426300  1
  H  H417  1  0.608900  0.242800  0.081700  1
  H  H418  1  0.757200  0.608900  0.081700  1
  H  H419  1  0.391100  0.757200  0.081700  1
  H  H420  1  0.242800  0.391100  0.081700  1
  H  H421  1  0.108900  0.742800  0.581700  1
  H  H422  1  0.257200  0.108900  0.581700  1
  H  H423  1  0.891100  0.257200  0.581700  1
  H  H424  1  0.742800  0.891100  0.581700  1
  H  H425  1  0.391100  0.757200  0.918300  1
  H  H426  1  0.242800  0.391100  0.918300  1
  H  H427  1  0.608900  0.242800  0.918300  1
  H  H428  1  0.757200  0.608900  0.918300  1
  H  H429  1  0.891100  0.257200  0.418300  1
  H  H430  1  0.742800  0.891100  0.418300  1
  H  H431  1  0.108900  0.742800  0.418300  1
  H  H432  1  0.257200  0.108900  0.418300  1
  H  H433  1  0.825700  0.203000  0.263800  1
  H  H434  1  0.797000  0.825700  0.263800  1
  H  H435  1  0.174300  0.797000  0.263800  1
  H  H436  1  0.203000  0.174300  0.263800  1
  H  H437  1  0.325700  0.703000  0.763800  1
  H  H438  1  0.297000  0.325700  0.763800  1
  H  H439  1  0.674300  0.297000  0.763800  1
  H  H440  1  0.703000  0.674300  0.763800  1
  H  H441  1  0.174300  0.797000  0.736200  1
  H  H442  1  0.203000  0.174300  0.736200  1
  H  H443  1  0.825700  0.203000  0.736200  1
  H  H444  1  0.797000  0.825700  0.736200  1
  H  H445  1  0.674300  0.297000  0.236200  1
  H  H446  1  0.703000  0.674300  0.236200  1
  H  H447  1  0.325700  0.703000  0.236200  1
  H  H448  1  0.297000  0.325700  0.236200  1
  H  H449  1  0.822800  0.247100  0.285000  1
  H  H450  1  0.752900  0.822800  0.285000  1
  H  H451  1  0.177200  0.752900  0.285000  1
  H  H452  1  0.247100  0.177200  0.285000  1
  H  H453  1  0.322800  0.747100  0.785000  1
  H  H454  1  0.252900  0.322800  0.785000  1
  H  H455  1  0.677200  0.252900  0.785000  1
  H  H456  1  0.747100  0.677200  0.785000  1
  H  H457  1  0.177200  0.752900  0.715000  1
  H  H458  1  0.247100  0.177200  0.715000  1
  H  H459  1  0.822800  0.247100  0.715000  1
  H  H460  1  0.752900  0.822800  0.715000  1
  H  H461  1  0.677200  0.252900  0.215000  1
  H  H462  1  0.747100  0.677200  0.215000  1
  H  H463  1  0.322800  0.747100  0.215000  1
  H  H464  1  0.252900  0.322800  0.215000  1
  H  H465  1  0.864800  0.239300  0.262200  1
  H  H466  1  0.760700  0.864800  0.262200  1
  H  H467  1  0.135200  0.760700  0.262200  1
  H  H468  1  0.239300  0.135200  0.262200  1
  H  H469  1  0.364800  0.739300  0.762200  1
  H  H470  1  0.260700  0.364800  0.762200  1
  H  H471  1  0.635200  0.260700  0.762200  1
  H  H472  1  0.739300  0.635200  0.762200  1
  H  H473  1  0.135200  0.760700  0.737800  1
  H  H474  1  0.239300  0.135200  0.737800  1
  H  H475  1  0.864800  0.239300  0.737800  1
  H  H476  1  0.760700  0.864800  0.737800  1
  H  H477  1  0.635200  0.260700  0.237800  1
  H  H478  1  0.739300  0.635200  0.237800  1
  H  H479  1  0.364800  0.739300  0.237800  1
  H  H480  1  0.260700  0.364800  0.237800  1
  H  H481  1  0.761800  0.272100  0.181000  1
  H  H482  1  0.727900  0.761800  0.181000  1
  H  H483  1  0.238200  0.727900  0.181000  1
  H  H484  1  0.272100  0.238200  0.181000  1
  H  H485  1  0.261800  0.772100  0.681000  1
  H  H486  1  0.227900  0.261800  0.681000  1
  H  H487  1  0.738200  0.227900  0.681000  1
  H  H488  1  0.772100  0.738200  0.681000  1
  H  H489  1  0.238200  0.727900  0.819000  1
  H  H490  1  0.272100  0.238200  0.819000  1
  H  H491  1  0.761800  0.272100  0.819000  1
  H  H492  1  0.727900  0.761800  0.819000  1
  H  H493  1  0.738200  0.227900  0.319000  1
  H  H494  1  0.772100  0.738200  0.319000  1
  H  H495  1  0.261800  0.772100  0.319000  1
  H  H496  1  0.227900  0.261800  0.319000  1
  H  H497  1  0.784500  0.319200  0.188500  1
  H  H498  1  0.680800  0.784500  0.188500  1
  H  H499  1  0.215500  0.680800  0.188500  1
  H  H500  1  0.319200  0.215500  0.188500  1
  H  H501  1  0.284500  0.819200  0.688500  1
  H  H502  1  0.180800  0.284500  0.688500  1
  H  H503  1  0.715500  0.180800  0.688500  1
  H  H504  1  0.819200  0.715500  0.688500  1
  H  H505  1  0.215500  0.680800  0.811500  1
  H  H506  1  0.319200  0.215500  0.811500  1
  H  H507  1  0.784500  0.319200  0.811500  1
  H  H508  1  0.680800  0.784500  0.811500  1
  H  H509  1  0.715500  0.180800  0.311500  1
  H  H510  1  0.819200  0.715500  0.311500  1
  H  H511  1  0.284500  0.819200  0.311500  1
  H  H512  1  0.180800  0.284500  0.311500  1
  H  H513  1  0.737600  0.306700  0.204100  1
  H  H514  1  0.693300  0.737600  0.204100  1
  H  H515  1  0.262400  0.693300  0.204100  1
  H  H516  1  0.306700  0.262400  0.204100  1
  H  H517  1  0.237600  0.806700  0.704100  1
  H  H518  1  0.193300  0.237600  0.704100  1
  H  H519  1  0.762400  0.193300  0.704100  1
  H  H520  1  0.806700  0.762400  0.704100  1
  H  H521  1  0.262400  0.693300  0.795900  1
  H  H522  1  0.306700  0.262400  0.795900  1
  H  H523  1  0.737600  0.306700  0.795900  1
  H  H524  1  0.693300  0.737600  0.795900  1
  H  H525  1  0.762400  0.193300  0.295900  1
  H  H526  1  0.806700  0.762400  0.295900  1
  H  H527  1  0.237600  0.806700  0.295900  1
  H  H528  1  0.193300  0.237600  0.295900  1
  H  H529  1  0.831200  0.329900  0.283300  1
  H  H530  1  0.670100  0.831200  0.283300  1
  H  H531  1  0.168800  0.670100  0.283300  1
  H  H532  1  0.329900  0.168800  0.283300  1
  H  H533  1  0.331200  0.829900  0.783300  1
  H  H534  1  0.170100  0.331200  0.783300  1
  H  H535  1  0.668800  0.170100  0.783300  1
  H  H536  1  0.829900  0.668800  0.783300  1
  H  H537  1  0.168800  0.670100  0.716700  1
  H  H538  1  0.329900  0.168800  0.716700  1
  H  H539  1  0.831200  0.329900  0.716700  1
  H  H540  1  0.670100  0.831200  0.716700  1
  H  H541  1  0.668800  0.170100  0.216700  1
  H  H542  1  0.829900  0.668800  0.216700  1
  H  H543  1  0.331200  0.829900  0.216700  1
  H  H544  1  0.170100  0.331200  0.216700  1
  H  H545  1  0.809100  0.286800  0.299200  1
  H  H546  1  0.713200  0.809100  0.299200  1
  H  H547  1  0.190900  0.713200  0.299200  1
  H  H548  1  0.286800  0.190900  0.299200  1
  H  H549  1  0.309100  0.786800  0.799200  1
  H  H550  1  0.213200  0.309100  0.799200  1
  H  H551  1  0.690900  0.213200  0.799200  1
  H  H552  1  0.786800  0.690900  0.799200  1
  H  H553  1  0.190900  0.713200  0.700800  1
  H  H554  1  0.286800  0.190900  0.700800  1
  H  H555  1  0.809100  0.286800  0.700800  1
  H  H556  1  0.713200  0.809100  0.700800  1
  H  H557  1  0.690900  0.213200  0.200800  1
  H  H558  1  0.786800  0.690900  0.200800  1
  H  H559  1  0.309100  0.786800  0.200800  1
  H  H560  1  0.213200  0.309100  0.200800  1
  H  H561  1  0.779100  0.329700  0.291500  1
  H  H562  1  0.670300  0.779100  0.291500  1
  H  H563  1  0.220900  0.670300  0.291500  1
  H  H564  1  0.329700  0.220900  0.291500  1
  H  H565  1  0.279100  0.829700  0.791500  1
  H  H566  1  0.170300  0.279100  0.791500  1
  H  H567  1  0.720900  0.170300  0.791500  1
  H  H568  1  0.829700  0.720900  0.791500  1
  H  H569  1  0.220900  0.670300  0.708500  1
  H  H570  1  0.329700  0.220900  0.708500  1
  H  H571  1  0.779100  0.329700  0.708500  1
  H  H572  1  0.670300  0.779100  0.708500  1
  H  H573  1  0.720900  0.170300  0.208500  1
  H  H574  1  0.829700  0.720900  0.208500  1
  H  H575  1  0.279100  0.829700  0.208500  1
  H  H576  1  0.170300  0.279100  0.208500  1
  H  H577  1  0.762700  0.348400  0.234700  1
  H  H578  1  0.651600  0.762700  0.234700  1
  H  H579  1  0.237300  0.651600  0.234700  1
  H  H580  1  0.348400  0.237300  0.234700  1
  H  H581  1  0.262700  0.848400  0.734700  1
  H  H582  1  0.151600  0.262700  0.734700  1
  H  H583  1  0.737300  0.151600  0.734700  1
  H  H584  1  0.848400  0.737300  0.734700  1
  H  H585  1  0.237300  0.651600  0.765300  1
  H  H586  1  0.348400  0.237300  0.765300  1
  H  H587  1  0.762700  0.348400  0.765300  1
  H  H588  1  0.651600  0.762700  0.765300  1
  H  H589  1  0.737300  0.151600  0.265300  1
  H  H590  1  0.848400  0.737300  0.265300  1
  H  H591  1  0.262700  0.848400  0.265300  1
  H  H592  1  0.151600  0.262700  0.265300  1
  H  H593  1  0.799400  0.360200  0.260900  1
  H  H594  1  0.639800  0.799400  0.260900  1
  H  H595  1  0.200600  0.639800  0.260900  1
  H  H596  1  0.360200  0.200600  0.260900  1
  H  H597  1  0.299400  0.860200  0.760900  1
  H  H598  1  0.139800  0.299400  0.760900  1
  H  H599  1  0.700600  0.139800  0.760900  1
  H  H600  1  0.860200  0.700600  0.760900  1
  H  H601  1  0.200600  0.639800  0.739100  1
  H  H602  1  0.360200  0.200600  0.739100  1
  H  H603  1  0.799400  0.360200  0.739100  1
  H  H604  1  0.639800  0.799400  0.739100  1
  H  H605  1  0.700600  0.139800  0.239100  1
  H  H606  1  0.860200  0.700600  0.239100  1
  H  H607  1  0.299400  0.860200  0.239100  1
  H  H608  1  0.139800  0.299400  0.239100  1
  H  H609  1  0.752300  0.339800  0.271300  1
  H  H610  1  0.660200  0.752300  0.271300  1
  H  H611  1  0.247700  0.660200  0.271300  1
  H  H612  1  0.339800  0.247700  0.271300  1
  H  H613  1  0.252300  0.839800  0.771300  1
  H  H614  1  0.160200  0.252300  0.771300  1
  H  H615  1  0.747700  0.160200  0.771300  1
  H  H616  1  0.839800  0.747700  0.771300  1
  H  H617  1  0.247700  0.660200  0.728700  1
  H  H618  1  0.339800  0.247700  0.728700  1
  H  H619  1  0.752300  0.339800  0.728700  1
  H  H620  1  0.660200  0.752300  0.728700  1
  H  H621  1  0.747700  0.160200  0.228700  1
  H  H622  1  0.839800  0.747700  0.228700  1
  H  H623  1  0.252300  0.839800  0.228700  1
  H  H624  1  0.160200  0.252300  0.228700  1
  H  H625  1  0.048600  0.190000  0.312100  1.0
  H  H626  1  0.810000  0.048600  0.312100  1.0
  H  H627  1  0.951400  0.810000  0.312100  1.0
  H  H628  1  0.190000  0.951400  0.312100  1.0
  H  H629  1  0.548600  0.690000  0.812100  1.0
  H  H630  1  0.310000  0.548600  0.812100  1.0
  H  H631  1  0.451400  0.310000  0.812100  1.0
  H  H632  1  0.690000  0.451400  0.812100  1.0
  H  H633  1  0.951400  0.810000  0.687900  1.0
  H  H634  1  0.190000  0.951400  0.687900  1.0
  H  H635  1  0.048600  0.190000  0.687900  1.0
  H  H636  1  0.810000  0.048600  0.687900  1.0
  H  H637  1  0.451400  0.310000  0.187900  1.0
  H  H638  1  0.690000  0.451400  0.187900  1.0
  H  H639  1  0.548600  0.690000  0.187900  1.0
  H  H640  1  0.310000  0.548600  0.187900  1.0
  H  H641  1  0.058900  0.239100  0.325000  1.0
  H  H642  1  0.760900  0.058900  0.325000  1.0
  H  H643  1  0.941100  0.760900  0.325000  1.0
  H  H644  1  0.239100  0.941100  0.325000  1.0
  H  H645  1  0.558900  0.739100  0.825000  1.0
  H  H646  1  0.260900  0.558900  0.825000  1.0
  H  H647  1  0.441100  0.260900  0.825000  1.0
  H  H648  1  0.739100  0.441100  0.825000  1.0
  H  H649  1  0.941100  0.760900  0.675000  1.0
  H  H650  1  0.239100  0.941100  0.675000  1.0
  H  H651  1  0.058900  0.239100  0.675000  1.0
  H  H652  1  0.760900  0.058900  0.675000  1.0
  H  H653  1  0.441100  0.260900  0.175000  1.0
  H  H654  1  0.739100  0.441100  0.175000  1.0
  H  H655  1  0.558900  0.739100  0.175000  1.0
  H  H656  1  0.260900  0.558900  0.175000  1.0
  H  H657  1  0.085300  0.220200  0.294900  1.0
  H  H658  1  0.779800  0.085300  0.294900  1.0
  H  H659  1  0.914700  0.779800  0.294900  1.0
  H  H660  1  0.220200  0.914700  0.294900  1.0
  H  H661  1  0.585300  0.720200  0.794900  1.0
  H  H662  1  0.279800  0.585300  0.794900  1.0
  H  H663  1  0.414700  0.279800  0.794900  1.0
  H  H664  1  0.720200  0.414700  0.794900  1.0
  H  H665  1  0.914700  0.779800  0.705100  1.0
  H  H666  1  0.220200  0.914700  0.705100  1.0
  H  H667  1  0.085300  0.220200  0.705100  1.0
  H  H668  1  0.779800  0.085300  0.705100  1.0
  H  H669  1  0.414700  0.279800  0.205100  1.0
  H  H670  1  0.720200  0.414700  0.205100  1.0
  H  H671  1  0.585300  0.720200  0.205100  1.0
  H  H672  1  0.279800  0.585300  0.205100  1.0
  H  H673  1  0.042600  0.291300  0.254900  1.0
  H  H674  1  0.708700  0.042600  0.254900  1.0
  H  H675  1  0.957400  0.708700  0.254900  1.0
  H  H676  1  0.291300  0.957400  0.254900  1.0
  H  H677  1  0.542600  0.791300  0.754900  1.0
  H  H678  1  0.208700  0.542600  0.754900  1.0
  H  H679  1  0.457400  0.208700  0.754900  1.0
  H  H680  1  0.791300  0.457400  0.754900  1.0
  H  H681  1  0.957400  0.708700  0.745100  1.0
  H  H682  1  0.291300  0.957400  0.745100  1.0
  H  H683  1  0.042600  0.291300  0.745100  1.0
  H  H684  1  0.708700  0.042600  0.745100  1.0
  H  H685  1  0.457400  0.208700  0.245100  1.0
  H  H686  1  0.791300  0.457400  0.245100  1.0
  H  H687  1  0.542600  0.791300  0.245100  1.0
  H  H688  1  0.208700  0.542600  0.245100  1.0
  H  H689  1  0.054900  0.298700  0.291300  1.0
  H  H690  1  0.701300  0.054900  0.291300  1.0
  H  H691  1  0.945100  0.701300  0.291300  1.0
  H  H692  1  0.298700  0.945100  0.291300  1.0
  H  H693  1  0.554900  0.798700  0.791300  1.0
  H  H694  1  0.201300  0.554900  0.791300  1.0
  H  H695  1  0.445100  0.201300  0.791300  1.0
  H  H696  1  0.798700  0.445100  0.791300  1.0
  H  H697  1  0.945100  0.701300  0.708700  1.0
  H  H698  1  0.298700  0.945100  0.708700  1.0
  H  H699  1  0.054900  0.298700  0.708700  1.0
  H  H700  1  0.701300  0.054900  0.708700  1.0
  H  H701  1  0.445100  0.201300  0.208700  1.0
  H  H702  1  0.798700  0.445100  0.208700  1.0
  H  H703  1  0.554900  0.798700  0.208700  1.0
  H  H704  1  0.201300  0.554900  0.208700  1.0
  H  H705  1  0.005100  0.307400  0.279300  1.0
  H  H706  1  0.692600  0.005100  0.279300  1.0
  H  H707  1  0.994900  0.692600  0.279300  1.0
  H  H708  1  0.307400  0.994900  0.279300  1.0
  H  H709  1  0.505100  0.807400  0.779300  1.0
  H  H710  1  0.192600  0.505100  0.779300  1.0
  H  H711  1  0.494900  0.192600  0.779300  1.0
  H  H712  1  0.807400  0.494900  0.779300  1.0
  H  H713  1  0.994900  0.692600  0.720700  1.0
  H  H714  1  0.307400  0.994900  0.720700  1.0
  H  H715  1  0.005100  0.307400  0.720700  1.0
  H  H716  1  0.692600  0.005100  0.720700  1.0
  H  H717  1  0.494900  0.192600  0.220700  1.0
  H  H718  1  0.807400  0.494900  0.220700  1.0
  H  H719  1  0.505100  0.807400  0.220700  1.0
  H  H720  1  0.192600  0.505100  0.220700  1.0
  H  H721  1  0.957700  0.266800  0.302700  1.0
  H  H722  1  0.733200  0.957700  0.302700  1.0
  H  H723  1  0.042300  0.733200  0.302700  1.0
  H  H724  1  0.266800  0.042300  0.302700  1.0
  H  H725  1  0.457700  0.766800  0.802700  1.0
  H  H726  1  0.233200  0.457700  0.802700  1.0
  H  H727  1  0.542300  0.233200  0.802700  1.0
  H  H728  1  0.766800  0.542300  0.802700  1.0
  H  H729  1  0.042300  0.733200  0.697300  1.0
  H  H730  1  0.266800  0.042300  0.697300  1.0
  H  H731  1  0.957700  0.266800  0.697300  1.0
  H  H732  1  0.733200  0.957700  0.697300  1.0
  H  H733  1  0.542300  0.233200  0.197300  1.0
  H  H734  1  0.766800  0.542300  0.197300  1.0
  H  H735  1  0.457700  0.766800  0.197300  1.0
  H  H736  1  0.233200  0.457700  0.197300  1.0
  H  H737  1  0.979000  0.230400  0.325900  1.0
  H  H738  1  0.769600  0.979000  0.325900  1.0
  H  H739  1  0.021000  0.769600  0.325900  1.0
  H  H740  1  0.230400  0.021000  0.325900  1.0
  H  H741  1  0.479000  0.730400  0.825900  1.0
  H  H742  1  0.269600  0.479000  0.825900  1.0
  H  H743  1  0.521000  0.269600  0.825900  1.0
  H  H744  1  0.730400  0.521000  0.825900  1.0
  H  H745  1  0.021000  0.769600  0.674100  1.0
  H  H746  1  0.230400  0.021000  0.674100  1.0
  H  H747  1  0.979000  0.230400  0.674100  1.0
  H  H748  1  0.769600  0.979000  0.674100  1.0
  H  H749  1  0.521000  0.269600  0.174100  1.0
  H  H750  1  0.730400  0.521000  0.174100  1.0
  H  H751  1  0.479000  0.730400  0.174100  1.0
  H  H752  1  0.269600  0.479000  0.174100  1.0
  H  H753  1  0.953200  0.214900  0.294600  1.0
  H  H754  1  0.785100  0.953200  0.294600  1.0
  H  H755  1  0.046800  0.785100  0.294600  1.0
  H  H756  1  0.214900  0.046800  0.294600  1.0
  H  H757  1  0.453200  0.714900  0.794600  1.0
  H  H758  1  0.285100  0.453200  0.794600  1.0
  H  H759  1  0.546800  0.285100  0.794600  1.0
  H  H760  1  0.714900  0.546800  0.794600  1.0
  H  H761  1  0.046800  0.785100  0.705400  1.0
  H  H762  1  0.214900  0.046800  0.705400  1.0
  H  H763  1  0.953200  0.214900  0.705400  1.0
  H  H764  1  0.785100  0.953200  0.705400  1.0
  H  H765  1  0.546800  0.285100  0.205400  1.0
  H  H766  1  0.714900  0.546800  0.205400  1.0
  H  H767  1  0.453200  0.714900  0.205400  1.0
  H  H768  1  0.285100  0.453200  0.205400  1.0
  H  H769  1  0.083800  0.205600  0.247700  1.0
  H  H770  1  0.794400  0.083800  0.247700  1.0
  H  H771  1  0.916200  0.794400  0.247700  1.0
  H  H772  1  0.205600  0.916200  0.247700  1.0
  H  H773  1  0.583800  0.705600  0.747700  1.0
  H  H774  1  0.294400  0.583800  0.747700  1.0
  H  H775  1  0.416200  0.294400  0.747700  1.0
  H  H776  1  0.705600  0.416200  0.747700  1.0
  H  H777  1  0.916200  0.794400  0.752300  1.0
  H  H778  1  0.205600  0.916200  0.752300  1.0
  H  H779  1  0.083800  0.205600  0.752300  1.0
  H  H780  1  0.794400  0.083800  0.752300  1.0
  H  H781  1  0.416200  0.294400  0.252300  1.0
  H  H782  1  0.705600  0.416200  0.252300  1.0
  H  H783  1  0.583800  0.705600  0.252300  1.0
  H  H784  1  0.294400  0.583800  0.252300  1.0
  H  H785  1  0.012000  0.157900  0.174500  1.0
  H  H786  1  0.842100  0.012000  0.174500  1.0
  H  H787  1  0.988000  0.842100  0.174500  1.0
  H  H788  1  0.157900  0.988000  0.174500  1.0
  H  H789  1  0.512000  0.657900  0.674500  1.0
  H  H790  1  0.342100  0.512000  0.674500  1.0
  H  H791  1  0.488000  0.342100  0.674500  1.0
  H  H792  1  0.657900  0.488000  0.674500  1.0
  H  H793  1  0.988000  0.842100  0.825500  1.0
  H  H794  1  0.157900  0.988000  0.825500  1.0
  H  H795  1  0.012000  0.157900  0.825500  1.0
  H  H796  1  0.842100  0.012000  0.825500  1.0
  H  H797  1  0.488000  0.342100  0.325500  1.0
  H  H798  1  0.657900  0.488000  0.325500  1.0
  H  H799  1  0.512000  0.657900  0.325500  1.0
  H  H800  1  0.342100  0.512000  0.325500  1.0
  H  H801  1  0.949500  0.218500  0.247700  1.0
  H  H802  1  0.781500  0.949500  0.247700  1.0
  H  H803  1  0.050500  0.781500  0.247700  1.0
  H  H804  1  0.218500  0.050500  0.247700  1.0
  H  H805  1  0.449500  0.718500  0.747700  1.0
  H  H806  1  0.281500  0.449500  0.747700  1.0
  H  H807  1  0.550500  0.281500  0.747700  1.0
  H  H808  1  0.718500  0.550500  0.747700  1.0
  H  H809  1  0.050500  0.781500  0.752300  1.0
  H  H810  1  0.218500  0.050500  0.752300  1.0
  H  H811  1  0.949500  0.218500  0.752300  1.0
  H  H812  1  0.781500  0.949500  0.752300  1.0
  H  H813  1  0.550500  0.281500  0.252300  1.0
  H  H814  1  0.718500  0.550500  0.252300  1.0
  H  H815  1  0.449500  0.718500  0.252300  1.0
  H  H816  1  0.281500  0.449500  0.252300  1.0
  H  H817  1  0.923600  0.258300  0.078500  1.0
  H  H818  1  0.741700  0.923600  0.078500  1.0
  H  H819  1  0.076400  0.741700  0.078500  1.0
  H  H820  1  0.258300  0.076400  0.078500  1.0
  H  H821  1  0.423600  0.758300  0.578500  1.0
  H  H822  1  0.241700  0.423600  0.578500  1.0
  H  H823  1  0.576400  0.241700  0.578500  1.0
  H  H824  1  0.758300  0.576400  0.578500  1.0
  H  H825  1  0.076400  0.741700  0.921500  1.0
  H  H826  1  0.258300  0.076400  0.921500  1.0
  H  H827  1  0.923600  0.258300  0.921500  1.0
  H  H828  1  0.741700  0.923600  0.921500  1.0
  H  H829  1  0.576400  0.241700  0.421500  1.0
  H  H830  1  0.758300  0.576400  0.421500  1.0
  H  H831  1  0.423600  0.758300  0.421500  1.0
  H  H832  1  0.241700  0.423600  0.421500  1.0
  H  H833  1  0.917300  0.393100  0.070300  1.0
  H  H834  1  0.606900  0.917300  0.070300  1.0
  H  H835  1  0.082700  0.606900  0.070300  1.0
  H  H836  1  0.393100  0.082700  0.070300  1.0
  H  H837  1  0.417300  0.893100  0.570300  1.0
  H  H838  1  0.106900  0.417300  0.570300  1.0
  H  H839  1  0.582700  0.106900  0.570300  1.0
  H  H840  1  0.893100  0.582700  0.570300  1.0
  H  H841  1  0.082700  0.606900  0.929700  1.0
  H  H842  1  0.393100  0.082700  0.929700  1.0
  H  H843  1  0.917300  0.393100  0.929700  1.0
  H  H844  1  0.606900  0.917300  0.929700  1.0
  H  H845  1  0.582700  0.106900  0.429700  1.0
  H  H846  1  0.893100  0.582700  0.429700  1.0
  H  H847  1  0.417300  0.893100  0.429700  1.0
  H  H848  1  0.106900  0.417300  0.429700  1.0
  H  H849  1  0.846100  0.330000  0.138600  1.0
  H  H850  1  0.670000  0.846100  0.138600  1.0
  H  H851  1  0.153900  0.670000  0.138600  1.0
  H  H852  1  0.330000  0.153900  0.138600  1.0
  H  H853  1  0.346100  0.830000  0.638600  1.0
  H  H854  1  0.170000  0.346100  0.638600  1.0
  H  H855  1  0.653900  0.170000  0.638600  1.0
  H  H856  1  0.830000  0.653900  0.638600  1.0
  H  H857  1  0.153900  0.670000  0.861400  1.0
  H  H858  1  0.330000  0.153900  0.861400  1.0
  H  H859  1  0.846100  0.330000  0.861400  1.0
  H  H860  1  0.670000  0.846100  0.861400  1.0
  H  H861  1  0.653900  0.170000  0.361400  1.0
  H  H862  1  0.830000  0.653900  0.361400  1.0
  H  H863  1  0.346100  0.830000  0.361400  1.0
  H  H864  1  0.170000  0.346100  0.361400  1.0
  H  H865  1  0.908000  0.460000  0.102500  1.0
  H  H866  1  0.540000  0.908000  0.102500  1.0
  H  H867  1  0.092000  0.540000  0.102500  1.0
  H  H868  1  0.460000  0.092000  0.102500  1.0
  H  H869  1  0.408000  0.960000  0.602500  1.0
  H  H870  1  0.040000  0.408000  0.602500  1.0
  H  H871  1  0.592000  0.040000  0.602500  1.0
  H  H872  1  0.960000  0.592000  0.602500  1.0
  H  H873  1  0.092000  0.540000  0.897500  1.0
  H  H874  1  0.460000  0.092000  0.897500  1.0
  H  H875  1  0.908000  0.460000  0.897500  1.0
  H  H876  1  0.540000  0.908000  0.897500  1.0
  H  H877  1  0.592000  0.040000  0.397500  1.0
  H  H878  1  0.960000  0.592000  0.397500  1.0
  H  H879  1  0.408000  0.960000  0.397500  1.0
  H  H880  1  0.040000  0.408000  0.397500  1.0
  H  H881  1  0.859400  0.481300  0.106400  1.0
  H  H882  1  0.518700  0.859400  0.106400  1.0
  H  H883  1  0.140600  0.518700  0.106400  1.0
  H  H884  1  0.481300  0.140600  0.106400  1.0
  H  H885  1  0.359400  0.981300  0.606400  1.0
  H  H886  1  0.018700  0.359400  0.606400  1.0
  H  H887  1  0.640600  0.018700  0.606400  1.0
  H  H888  1  0.981300  0.640600  0.606400  1.0
  H  H889  1  0.140600  0.518700  0.893600  1.0
  H  H890  1  0.481300  0.140600  0.893600  1.0
  H  H891  1  0.859400  0.481300  0.893600  1.0
  H  H892  1  0.518700  0.859400  0.893600  1.0
  H  H893  1  0.640600  0.018700  0.393600  1.0
  H  H894  1  0.981300  0.640600  0.393600  1.0
  H  H895  1  0.359400  0.981300  0.393600  1.0
  H  H896  1  0.018700  0.359400  0.393600  1.0
  H  H897  1  0.869900  0.448800  0.077300  1.0
  H  H898  1  0.551200  0.869900  0.077300  1.0
  H  H899  1  0.130100  0.551200  0.077300  1.0
  H  H900  1  0.448800  0.130100  0.077300  1.0
  H  H901  1  0.369900  0.948800  0.577300  1.0
  H  H902  1  0.051200  0.369900  0.577300  1.0
  H  H903  1  0.630100  0.051200  0.577300  1.0
  H  H904  1  0.948800  0.630100  0.577300  1.0
  H  H905  1  0.130100  0.551200  0.922700  1.0
  H  H906  1  0.448800  0.130100  0.922700  1.0
  H  H907  1  0.869900  0.448800  0.922700  1.0
  H  H908  1  0.551200  0.869900  0.922700  1.0
  H  H909  1  0.630100  0.051200  0.422700  1.0
  H  H910  1  0.948800  0.630100  0.422700  1.0
  H  H911  1  0.369900  0.948800  0.422700  1.0
  H  H912  1  0.051200  0.369900  0.422700  1.0
  H  H913  1  0.868300  0.396900  0.167800  1.0
  H  H914  1  0.603100  0.868300  0.167800  1.0
  H  H915  1  0.131700  0.603100  0.167800  1.0
  H  H916  1  0.396900  0.131700  0.167800  1.0
  H  H917  1  0.368300  0.896900  0.667800  1.0
  H  H918  1  0.103100  0.368300  0.667800  1.0
  H  H919  1  0.631700  0.103100  0.667800  1.0
  H  H920  1  0.896900  0.631700  0.667800  1.0
  H  H921  1  0.131700  0.603100  0.832200  1.0
  H  H922  1  0.396900  0.131700  0.832200  1.0
  H  H923  1  0.868300  0.396900  0.832200  1.0
  H  H924  1  0.603100  0.868300  0.832200  1.0
  H  H925  1  0.631700  0.103100  0.332200  1.0
  H  H926  1  0.896900  0.631700  0.332200  1.0
  H  H927  1  0.368300  0.896900  0.332200  1.0
  H  H928  1  0.103100  0.368300  0.332200  1.0
  H  H929  1  0.862400  0.449400  0.162300  1.0
  H  H930  1  0.550600  0.862400  0.162300  1.0
  H  H931  1  0.137600  0.550600  0.162300  1.0
  H  H932  1  0.449400  0.137600  0.162300  1.0
  H  H933  1  0.362400  0.949400  0.662300  1.0
  H  H934  1  0.050600  0.362400  0.662300  1.0
  H  H935  1  0.637600  0.050600  0.662300  1.0
  H  H936  1  0.949400  0.637600  0.662300  1.0
  H  H937  1  0.137600  0.550600  0.837700  1.0
  H  H938  1  0.449400  0.137600  0.837700  1.0
  H  H939  1  0.862400  0.449400  0.837700  1.0
  H  H940  1  0.550600  0.862400  0.837700  1.0
  H  H941  1  0.637600  0.050600  0.337700  1.0
  H  H942  1  0.949400  0.637600  0.337700  1.0
  H  H943  1  0.362400  0.949400  0.337700  1.0
  H  H944  1  0.050600  0.362400  0.337700  1.0
  H  H945  1  0.909200  0.425900  0.154700  1.0
  H  H946  1  0.574100  0.909200  0.154700  1.0
  H  H947  1  0.090800  0.574100  0.154700  1.0
  H  H948  1  0.425900  0.090800  0.154700  1.0
  H  H949  1  0.409200  0.925900  0.654700  1.0
  H  H950  1  0.074100  0.409200  0.654700  1.0
  H  H951  1  0.590800  0.074100  0.654700  1.0
  H  H952  1  0.925900  0.590800  0.654700  1.0
  H  H953  1  0.090800  0.574100  0.845300  1.0
  H  H954  1  0.425900  0.090800  0.845300  1.0
  H  H955  1  0.909200  0.425900  0.845300  1.0
  H  H956  1  0.574100  0.909200  0.845300  1.0
  H  H957  1  0.590800  0.074100  0.345300  1.0
  H  H958  1  0.925900  0.590800  0.345300  1.0
  H  H959  1  0.409200  0.925900  0.345300  1.0
  H  H960  1  0.074100  0.409200  0.345300  1.0
  H  H961  1  0.795200  0.399200  0.100100  1.0
  H  H962  1  0.600800  0.795200  0.100100  1.0
  H  H963  1  0.204800  0.600800  0.100100  1.0
  H  H964  1  0.399200  0.204800  0.100100  1.0
  H  H965  1  0.295200  0.899200  0.600100  1.0
  H  H966  1  0.100800  0.295200  0.600100  1.0
  H  H967  1  0.704800  0.100800  0.600100  1.0
  H  H968  1  0.899200  0.704800  0.600100  1.0
  H  H969  1  0.204800  0.600800  0.899900  1.0
  H  H970  1  0.399200  0.204800  0.899900  1.0
  H  H971  1  0.795200  0.399200  0.899900  1.0
  H  H972  1  0.600800  0.795200  0.899900  1.0
  H  H973  1  0.704800  0.100800  0.399900  1.0
  H  H974  1  0.899200  0.704800  0.399900  1.0
  H  H975  1  0.295200  0.899200  0.399900  1.0
  H  H976  1  0.100800  0.295200  0.399900  1.0
  H  H977  1  0.793500  0.440500  0.124000  1.0
  H  H978  1  0.559500  0.793500  0.124000  1.0
  H  H979  1  0.206500  0.559500  0.124000  1.0
  H  H980  1  0.440500  0.206500  0.124000  1.0
  H  H981  1  0.293500  0.940500  0.624000  1.0
  H  H982  1  0.059500  0.293500  0.624000  1.0
  H  H983  1  0.706500  0.059500  0.624000  1.0
  H  H984  1  0.940500  0.706500  0.624000  1.0
  H  H985  1  0.206500  0.559500  0.876000  1.0
  H  H986  1  0.440500  0.206500  0.876000  1.0
  H  H987  1  0.793500  0.440500  0.876000  1.0
  H  H988  1  0.559500  0.793500  0.876000  1.0
  H  H989  1  0.706500  0.059500  0.376000  1.0
  H  H990  1  0.940500  0.706500  0.376000  1.0
  H  H991  1  0.293500  0.940500  0.376000  1.0
  H  H992  1  0.059500  0.293500  0.376000  1.0
  H  H993  1  0.796100  0.390700  0.137500  1.0
  H  H994  1  0.609300  0.796100  0.137500  1.0
  H  H995  1  0.203900  0.609300  0.137500  1.0
  H  H996  1  0.390700  0.203900  0.137500  1.0
  H  H997  1  0.296100  0.890700  0.637500  1.0
  H  H998  1  0.109300  0.296100  0.637500  1.0
  H  H999  1  0.703900  0.109300  0.637500  1.0
  H  H1000  1  0.890700  0.703900  0.637500  1.0
  H  H1001  1  0.203900  0.609300  0.862500  1.0
  H  H1002  1  0.390700  0.203900  0.862500  1.0
  H  H1003  1  0.796100  0.390700  0.862500  1.0
  H  H1004  1  0.609300  0.796100  0.862500  1.0
  H  H1005  1  0.703900  0.109300  0.362500  1.0
  H  H1006  1  0.890700  0.703900  0.362500  1.0
  H  H1007  1  0.296100  0.890700  0.362500  1.0
  H  H1008  1  0.109300  0.296100  0.362500  1.0
  H  H1009  1  0.756700  0.111000  0.080100  1.0
  H  H1010  1  0.889000  0.756700  0.080100  1.0
  H  H1011  1  0.243300  0.889000  0.080100  1.0
  H  H1012  1  0.111000  0.243300  0.080100  1.0
  H  H1013  1  0.256700  0.611000  0.580100  1.0
  H  H1014  1  0.389000  0.256700  0.580100  1.0
  H  H1015  1  0.743300  0.389000  0.580100  1.0
  H  H1016  1  0.611000  0.743300  0.580100  1.0
  H  H1017  1  0.243300  0.889000  0.919900  1.0
  H  H1018  1  0.111000  0.243300  0.919900  1.0
  H  H1019  1  0.756700  0.111000  0.919900  1.0
  H  H1020  1  0.889000  0.756700  0.919900  1.0
  H  H1021  1  0.743300  0.389000  0.419900  1.0
  H  H1022  1  0.611000  0.743300  0.419900  1.0
  H  H1023  1  0.256700  0.611000  0.419900  1.0
  H  H1024  1  0.389000  0.256700  0.419900  1.0
  H  H1025  1  0.622800  0.129500  0.074300  1.0
  H  H1026  1  0.870500  0.622800  0.074300  1.0
  H  H1027  1  0.377200  0.870500  0.074300  1.0
  H  H1028  1  0.129500  0.377200  0.074300  1.0
  H  H1029  1  0.122800  0.629500  0.574300  1.0
  H  H1030  1  0.370500  0.122800  0.574300  1.0
  H  H1031  1  0.877200  0.370500  0.574300  1.0
  H  H1032  1  0.629500  0.877200  0.574300  1.0
  H  H1033  1  0.377200  0.870500  0.925700  1.0
  H  H1034  1  0.129500  0.377200  0.925700  1.0
  H  H1035  1  0.622800  0.129500  0.925700  1.0
  H  H1036  1  0.870500  0.622800  0.925700  1.0
  H  H1037  1  0.877200  0.370500  0.425700  1.0
  H  H1038  1  0.629500  0.877200  0.425700  1.0
  H  H1039  1  0.122800  0.629500  0.425700  1.0
  H  H1040  1  0.370500  0.122800  0.425700  1.0
  H  H1041  1  0.694300  0.194400  0.141200  1.0
  H  H1042  1  0.805600  0.694300  0.141200  1.0
  H  H1043  1  0.305700  0.805600  0.141200  1.0
  H  H1044  1  0.194400  0.305700  0.141200  1.0
  H  H1045  1  0.194300  0.694400  0.641200  1.0
  H  H1046  1  0.305600  0.194300  0.641200  1.0
  H  H1047  1  0.805700  0.305600  0.641200  1.0
  H  H1048  1  0.694400  0.805700  0.641200  1.0
  H  H1049  1  0.305700  0.805600  0.858800  1.0
  H  H1050  1  0.194400  0.305700  0.858800  1.0
  H  H1051  1  0.694300  0.194400  0.858800  1.0
  H  H1052  1  0.805600  0.694300  0.858800  1.0
  H  H1053  1  0.805700  0.305600  0.358800  1.0
  H  H1054  1  0.694400  0.805700  0.358800  1.0
  H  H1055  1  0.194300  0.694400  0.358800  1.0
  H  H1056  1  0.305600  0.194300  0.358800  1.0
  H  H1057  1  0.588400  0.249700  0.140300  1.0
  H  H1058  1  0.750300  0.588400  0.140300  1.0
  H  H1059  1  0.411600  0.750300  0.140300  1.0
  H  H1060  1  0.249700  0.411600  0.140300  1.0
  H  H1061  1  0.088400  0.749700  0.640300  1.0
  H  H1062  1  0.250300  0.088400  0.640300  1.0
  H  H1063  1  0.911600  0.250300  0.640300  1.0
  H  H1064  1  0.749700  0.911600  0.640300  1.0
  H  H1065  1  0.411600  0.750300  0.859700  1.0
  H  H1066  1  0.249700  0.411600  0.859700  1.0
  H  H1067  1  0.588400  0.249700  0.859700  1.0
  H  H1068  1  0.750300  0.588400  0.859700  1.0
  H  H1069  1  0.911600  0.250300  0.359700  1.0
  H  H1070  1  0.749700  0.911600  0.359700  1.0
  H  H1071  1  0.088400  0.749700  0.359700  1.0
  H  H1072  1  0.250300  0.088400  0.359700  1.0
  H  H1073  1  0.611200  0.250600  0.106100  1.0
  H  H1074  1  0.749400  0.611200  0.106100  1.0
  H  H1075  1  0.388800  0.749400  0.106100  1.0
  H  H1076  1  0.250600  0.388800  0.106100  1.0
  H  H1077  1  0.111200  0.750600  0.606100  1.0
  H  H1078  1  0.249400  0.111200  0.606100  1.0
  H  H1079  1  0.888800  0.249400  0.606100  1.0
  H  H1080  1  0.750600  0.888800  0.606100  1.0
  H  H1081  1  0.388800  0.749400  0.893900  1.0
  H  H1082  1  0.250600  0.388800  0.893900  1.0
  H  H1083  1  0.611200  0.250600  0.893900  1.0
  H  H1084  1  0.749400  0.611200  0.893900  1.0
  H  H1085  1  0.888800  0.249400  0.393900  1.0
  H  H1086  1  0.750600  0.888800  0.393900  1.0
  H  H1087  1  0.111200  0.750600  0.393900  1.0
  H  H1088  1  0.249400  0.111200  0.393900  1.0
  H  H1089  1  0.641300  0.244400  0.137000  1.0
  H  H1090  1  0.755600  0.641300  0.137000  1.0
  H  H1091  1  0.358700  0.755600  0.137000  1.0
  H  H1092  1  0.244400  0.358700  0.137000  1.0
  H  H1093  1  0.141300  0.744400  0.637000  1.0
  H  H1094  1  0.255600  0.141300  0.637000  1.0
  H  H1095  1  0.858700  0.255600  0.637000  1.0
  H  H1096  1  0.744400  0.858700  0.637000  1.0
  H  H1097  1  0.358700  0.755600  0.863000  1.0
  H  H1098  1  0.244400  0.358700  0.863000  1.0
  H  H1099  1  0.641300  0.244400  0.863000  1.0
  H  H1100  1  0.755600  0.641300  0.863000  1.0
  H  H1101  1  0.858700  0.255600  0.363000  1.0
  H  H1102  1  0.744400  0.858700  0.363000  1.0
  H  H1103  1  0.141300  0.744400  0.363000  1.0
  H  H1104  1  0.255600  0.141300  0.363000  1.0
  H  H1105  1  0.622400  0.151300  0.166000  1.0
  H  H1106  1  0.848700  0.622400  0.166000  1.0
  H  H1107  1  0.377600  0.848700  0.166000  1.0
  H  H1108  1  0.151300  0.377600  0.166000  1.0
  H  H1109  1  0.122400  0.651300  0.666000  1.0
  H  H1110  1  0.348700  0.122400  0.666000  1.0
  H  H1111  1  0.877600  0.348700  0.666000  1.0
  H  H1112  1  0.651300  0.877600  0.666000  1.0
  H  H1113  1  0.377600  0.848700  0.834000  1.0
  H  H1114  1  0.151300  0.377600  0.834000  1.0
  H  H1115  1  0.622400  0.151300  0.834000  1.0
  H  H1116  1  0.848700  0.622400  0.834000  1.0
  H  H1117  1  0.877600  0.348700  0.334000  1.0
  H  H1118  1  0.651300  0.877600  0.334000  1.0
  H  H1119  1  0.122400  0.651300  0.334000  1.0
  H  H1120  1  0.348700  0.122400  0.334000  1.0
  H  H1121  1  0.571600  0.144800  0.155500  1.0
  H  H1122  1  0.855200  0.571600  0.155500  1.0
  H  H1123  1  0.428400  0.855200  0.155500  1.0
  H  H1124  1  0.144800  0.428400  0.155500  1.0
  H  H1125  1  0.071600  0.644800  0.655500  1.0
  H  H1126  1  0.355200  0.071600  0.655500  1.0
  H  H1127  1  0.928400  0.355200  0.655500  1.0
  H  H1128  1  0.644800  0.928400  0.655500  1.0
  H  H1129  1  0.428400  0.855200  0.844500  1.0
  H  H1130  1  0.144800  0.428400  0.844500  1.0
  H  H1131  1  0.571600  0.144800  0.844500  1.0
  H  H1132  1  0.855200  0.571600  0.844500  1.0
  H  H1133  1  0.928400  0.355200  0.344500  1.0
  H  H1134  1  0.644800  0.928400  0.344500  1.0
  H  H1135  1  0.071600  0.644800  0.344500  1.0
  H  H1136  1  0.355200  0.071600  0.344500  1.0
  H  H1137  1  0.587000  0.190300  0.171900  1.0
  H  H1138  1  0.809700  0.587000  0.171900  1.0
  H  H1139  1  0.413000  0.809700  0.171900  1.0
  H  H1140  1  0.190300  0.413000  0.171900  1.0
  H  H1141  1  0.087000  0.690300  0.671900  1.0
  H  H1142  1  0.309700  0.087000  0.671900  1.0
  H  H1143  1  0.913000  0.309700  0.671900  1.0
  H  H1144  1  0.690300  0.913000  0.671900  1.0
  H  H1145  1  0.413000  0.809700  0.828100  1.0
  H  H1146  1  0.190300  0.413000  0.828100  1.0
  H  H1147  1  0.587000  0.190300  0.828100  1.0
  H  H1148  1  0.809700  0.587000  0.828100  1.0
  H  H1149  1  0.913000  0.309700  0.328100  1.0
  H  H1150  1  0.690300  0.913000  0.328100  1.0
  H  H1151  1  0.087000  0.690300  0.328100  1.0
  H  H1152  1  0.309700  0.087000  0.328100  1.0
  H  H1153  1  0.562100  0.142300  0.099000  1.0
  H  H1154  1  0.857700  0.562100  0.099000  1.0
  H  H1155  1  0.437900  0.857700  0.099000  1.0
  H  H1156  1  0.142300  0.437900  0.099000  1.0
  H  H1157  1  0.062100  0.642300  0.599000  1.0
  H  H1158  1  0.357700  0.062100  0.599000  1.0
  H  H1159  1  0.937900  0.357700  0.599000  1.0
  H  H1160  1  0.642300  0.937900  0.599000  1.0
  H  H1161  1  0.437900  0.857700  0.901000  1.0
  H  H1162  1  0.142300  0.437900  0.901000  1.0
  H  H1163  1  0.562100  0.142300  0.901000  1.0
  H  H1164  1  0.857700  0.562100  0.901000  1.0
  H  H1165  1  0.937900  0.357700  0.401000  1.0
  H  H1166  1  0.642300  0.937900  0.401000  1.0
  H  H1167  1  0.062100  0.642300  0.401000  1.0
  H  H1168  1  0.357700  0.062100  0.401000  1.0
  H  H1169  1  0.573700  0.186100  0.079000  1.0
  H  H1170  1  0.813900  0.573700  0.079000  1.0
  H  H1171  1  0.426300  0.813900  0.079000  1.0
  H  H1172  1  0.186100  0.426300  0.079000  1.0
  H  H1173  1  0.073700  0.686100  0.579000  1.0
  H  H1174  1  0.313900  0.073700  0.579000  1.0
  H  H1175  1  0.926300  0.313900  0.579000  1.0
  H  H1176  1  0.686100  0.926300  0.579000  1.0
  H  H1177  1  0.426300  0.813900  0.921000  1.0
  H  H1178  1  0.186100  0.426300  0.921000  1.0
  H  H1179  1  0.573700  0.186100  0.921000  1.0
  H  H1180  1  0.813900  0.573700  0.921000  1.0
  H  H1181  1  0.926300  0.313900  0.421000  1.0
  H  H1182  1  0.686100  0.926300  0.421000  1.0
  H  H1183  1  0.073700  0.686100  0.421000  1.0
  H  H1184  1  0.313900  0.073700  0.421000  1.0
  H  H1185  1  0.538700  0.188800  0.107500  1.0
  H  H1186  1  0.811200  0.538700  0.107500  1.0
  H  H1187  1  0.461300  0.811200  0.107500  1.0
  H  H1188  1  0.188800  0.461300  0.107500  1.0
  H  H1189  1  0.038700  0.688800  0.607500  1.0
  H  H1190  1  0.311200  0.038700  0.607500  1.0
  H  H1191  1  0.961300  0.311200  0.607500  1.0
  H  H1192  1  0.688800  0.961300  0.607500  1.0
  H  H1193  1  0.461300  0.811200  0.892500  1.0
  H  H1194  1  0.188800  0.461300  0.892500  1.0
  H  H1195  1  0.538700  0.188800  0.892500  1.0
  H  H1196  1  0.811200  0.538700  0.892500  1.0
  H  H1197  1  0.961300  0.311200  0.392500  1.0
  H  H1198  1  0.688800  0.961300  0.392500  1.0
  H  H1199  1  0.038700  0.688800  0.392500  1.0
  H  H1200  1  0.311200  0.038700  0.392500  1.0
  H  H1201  1  0.564100  0.077300  0.948100  1.0
  H  H1202  1  0.922700  0.564100  0.948100  1.0
  H  H1203  1  0.435900  0.922700  0.948100  1.0
  H  H1204  1  0.077300  0.435900  0.948100  1.0
  H  H1205  1  0.064100  0.577300  0.448100  1.0
  H  H1206  1  0.422700  0.064100  0.448100  1.0
  H  H1207  1  0.935900  0.422700  0.448100  1.0
  H  H1208  1  0.577300  0.935900  0.448100  1.0
  H  H1209  1  0.435900  0.922700  0.051900  1.0
  H  H1210  1  0.077300  0.435900  0.051900  1.0
  H  H1211  1  0.564100  0.077300  0.051900  1.0
  H  H1212  1  0.922700  0.564100  0.051900  1.0
  H  H1213  1  0.935900  0.422700  0.551900  1.0
  H  H1214  1  0.577300  0.935900  0.551900  1.0
  H  H1215  1  0.064100  0.577300  0.551900  1.0
  H  H1216  1  0.422700  0.064100  0.551900  1.0
  H  H1217  1  0.517100  0.054000  0.941200  1.0
  H  H1218  1  0.946000  0.517100  0.941200  1.0
  H  H1219  1  0.482900  0.946000  0.941200  1.0
  H  H1220  1  0.054000  0.482900  0.941200  1.0
  H  H1221  1  0.017100  0.554000  0.441200  1.0
  H  H1222  1  0.446000  0.017100  0.441200  1.0
  H  H1223  1  0.982900  0.446000  0.441200  1.0
  H  H1224  1  0.554000  0.982900  0.441200  1.0
  H  H1225  1  0.482900  0.946000  0.058800  1.0
  H  H1226  1  0.054000  0.482900  0.058800  1.0
  H  H1227  1  0.517100  0.054000  0.058800  1.0
  H  H1228  1  0.946000  0.517100  0.058800  1.0
  H  H1229  1  0.982900  0.446000  0.558800  1.0
  H  H1230  1  0.554000  0.982900  0.558800  1.0
  H  H1231  1  0.017100  0.554000  0.558800  1.0
  H  H1232  1  0.446000  0.017100  0.558800  1.0
  H  H1233  1  0.561100  0.024200  0.944900  1.0
  H  H1234  1  0.975800  0.561100  0.944900  1.0
  H  H1235  1  0.438900  0.975800  0.944900  1.0
  H  H1236  1  0.024200  0.438900  0.944900  1.0
  H  H1237  1  0.061100  0.524200  0.444900  1.0
  H  H1238  1  0.475800  0.061100  0.444900  1.0
  H  H1239  1  0.938900  0.475800  0.444900  1.0
  H  H1240  1  0.524200  0.938900  0.444900  1.0
  H  H1241  1  0.438900  0.975800  0.055100  1.0
  H  H1242  1  0.024200  0.438900  0.055100  1.0
  H  H1243  1  0.561100  0.024200  0.055100  1.0
  H  H1244  1  0.975800  0.561100  0.055100  1.0
  H  H1245  1  0.938900  0.475800  0.555100  1.0
  H  H1246  1  0.524200  0.938900  0.555100  1.0
  H  H1247  1  0.061100  0.524200  0.555100  1.0
  H  H1248  1  0.475800  0.061100  0.555100  1.0
  H  H1249  1  0.490300  0.057900  0.047200  1.0
  H  H1250  1  0.942100  0.490300  0.047200  1.0
  H  H1251  1  0.509700  0.942100  0.047200  1.0
  H  H1252  1  0.057900  0.509700  0.047200  1.0
  H  H1253  1  0.990300  0.557900  0.547200  1.0
  H  H1254  1  0.442100  0.990300  0.547200  1.0
  H  H1255  1  0.009700  0.442100  0.547200  1.0
  H  H1256  1  0.557900  0.009700  0.547200  1.0
  H  H1257  1  0.509700  0.942100  0.952800  1.0
  H  H1258  1  0.057900  0.509700  0.952800  1.0
  H  H1259  1  0.490300  0.057900  0.952800  1.0
  H  H1260  1  0.942100  0.490300  0.952800  1.0
  H  H1261  1  0.009700  0.442100  0.452800  1.0
  H  H1262  1  0.557900  0.009700  0.452800  1.0
  H  H1263  1  0.990300  0.557900  0.452800  1.0
  H  H1264  1  0.442100  0.990300  0.452800  1.0
  H  H1265  1  0.443700  0.057400  0.028700  1.0
  H  H1266  1  0.942600  0.443700  0.028700  1.0
  H  H1267  1  0.556300  0.942600  0.028700  1.0
  H  H1268  1  0.057400  0.556300  0.028700  1.0
  H  H1269  1  0.943700  0.557400  0.528700  1.0
  H  H1270  1  0.442600  0.943700  0.528700  1.0
  H  H1271  1  0.056300  0.442600  0.528700  1.0
  H  H1272  1  0.557400  0.056300  0.528700  1.0
  H  H1273  1  0.556300  0.942600  0.971300  1.0
  H  H1274  1  0.057400  0.556300  0.971300  1.0
  H  H1275  1  0.443700  0.057400  0.971300  1.0
  H  H1276  1  0.942600  0.443700  0.971300  1.0
  H  H1277  1  0.056300  0.442600  0.471300  1.0
  H  H1278  1  0.557400  0.056300  0.471300  1.0
  H  H1279  1  0.943700  0.557400  0.471300  1.0
  H  H1280  1  0.442600  0.943700  0.471300  1.0
  H  H1281  1  0.471900  0.102600  0.031200  1.0
  H  H1282  1  0.897400  0.471900  0.031200  1.0
  H  H1283  1  0.528100  0.897400  0.031200  1.0
  H  H1284  1  0.102600  0.528100  0.031200  1.0
  H  H1285  1  0.971900  0.602600  0.531200  1.0
  H  H1286  1  0.397400  0.971900  0.531200  1.0
  H  H1287  1  0.028100  0.397400  0.531200  1.0
  H  H1288  1  0.602600  0.028100  0.531200  1.0
  H  H1289  1  0.528100  0.897400  0.968800  1.0
  H  H1290  1  0.102600  0.528100  0.968800  1.0
  H  H1291  1  0.471900  0.102600  0.968800  1.0
  H  H1292  1  0.897400  0.471900  0.968800  1.0
  H  H1293  1  0.028100  0.397400  0.468800  1.0
  H  H1294  1  0.602600  0.028100  0.468800  1.0
  H  H1295  1  0.971900  0.602600  0.468800  1.0
  H  H1296  1  0.397400  0.971900  0.468800  1.0
  Ru  Ru1297  1  0.720114  0.019498  0.000000  1.0
  Ru  Ru1298  1  0.980502  0.720114  0.000000  1.0
  Ru  Ru1299  1  0.279886  0.980502  0.000000  1.0
  Ru  Ru1300  1  0.019498  0.279886  0.000000  1.0
  Ru  Ru1301  1  0.220114  0.519498  0.500000  1.0
  Ru  Ru1302  1  0.480502  0.220114  0.500000  1.0
  Ru  Ru1303  1  0.779886  0.480502  0.500000  1.0
  Ru  Ru1304  1  0.519498  0.779886  0.500000  1.0
  Ru  Ru1305  1  0.643580  0.025442  0.000000  1.0
  Ru  Ru1306  1  0.974558  0.643580  0.000000  1.0
  Ru  Ru1307  1  0.356420  0.974558  0.000000  1.0
  Ru  Ru1308  1  0.025442  0.356420  0.000000  1.0
  Ru  Ru1309  1  0.143580  0.525442  0.500000  1.0
  Ru  Ru1310  1  0.474558  0.143580  0.500000  1.0
  Ru  Ru1311  1  0.856420  0.474558  0.500000  1.0
  Ru  Ru1312  1  0.525442  0.856420  0.500000  1.0
  Ru  Ru1313  1  0.870536  0.150733  0.142006  1.0
  Ru  Ru1314  1  0.849267  0.870536  0.142006  1.0
  Ru  Ru1315  1  0.129464  0.849267  0.142006  1.0
  Ru  Ru1316  1  0.150733  0.129464  0.142006  1.0
  Ru  Ru1317  1  0.370536  0.650733  0.642006  1.0
  Ru  Ru1318  1  0.349267  0.370536  0.642006  1.0
  Ru  Ru1319  1  0.629464  0.349267  0.642006  1.0
  Ru  Ru1320  1  0.650733  0.629464  0.642006  1.0
  Ru  Ru1321  1  0.129464  0.849267  0.857994  1.0
  Ru  Ru1322  1  0.150733  0.129464  0.857994  1.0
  Ru  Ru1323  1  0.870536  0.150733  0.857994  1.0
  Ru  Ru1324  1  0.849267  0.870536  0.857994  1.0
  Ru  Ru1325  1  0.629464  0.349267  0.357994  1.0
  Ru  Ru1326  1  0.650733  0.629464  0.357994  1.0
  Ru  Ru1327  1  0.370536  0.650733  0.357994  1.0
  Ru  Ru1328  1  0.349267  0.370536  0.357994  1.0
  Ru  Ru1329  1  0.834924  0.192263  0.180133  1.0
  Ru  Ru1330  1  0.807737  0.834924  0.180133  1.0
  Ru  Ru1331  1  0.165076  0.807737  0.180133  1.0
  Ru  Ru1332  1  0.192263  0.165076  0.180133  1.0
  Ru  Ru1333  1  0.334924  0.692263  0.680133  1.0
  Ru  Ru1334  1  0.307737  0.334924  0.680133  1.0
  Ru  Ru1335  1  0.665076  0.307737  0.680133  1.0
  Ru  Ru1336  1  0.692263  0.665076  0.680133  1.0
  Ru  Ru1337  1  0.165076  0.807737  0.819867  1.0
  Ru  Ru1338  1  0.192263  0.165076  0.819867  1.0
  Ru  Ru1339  1  0.834924  0.192263  0.819867  1.0
  Ru  Ru1340  1  0.807737  0.834924  0.819867  1.0
  Ru  Ru1341  1  0.665076  0.307737  0.319867  1.0
  Ru  Ru1342  1  0.692263  0.665076  0.319867  1.0
  Ru  Ru1343  1  0.334924  0.692263  0.319867  1.0
  Ru  Ru1344  1  0.307737  0.334924  0.319867  1.0
  C  C1345  1  0.017220  0.233710  0.291220  1
  C  C1346  1  0.766290  0.017220  0.291220  1
  C  C1347  1  0.982780  0.766290  0.291220  1
  C  C1348  1  0.233710  0.982780  0.291220  1
  C  C1349  1  0.517220  0.733710  0.791220  1
  C  C1350  1  0.266290  0.517220  0.791220  1
  C  C1351  1  0.482780  0.266290  0.791220  1
  C  C1352  1  0.733710  0.482780  0.791220  1
  C  C1353  1  0.982780  0.766290  0.708780  1
  C  C1354  1  0.233710  0.982780  0.708780  1
  C  C1355  1  0.017220  0.233710  0.708780  1
  C  C1356  1  0.766290  0.017220  0.708780  1
  C  C1357  1  0.482780  0.266290  0.208780  1
  C  C1358  1  0.733710  0.482780  0.208780  1
  C  C1359  1  0.517220  0.733710  0.208780  1
  C  C1360  1  0.266290  0.517220  0.208780  1
  C  C1361  1  0.065860  0.247530  0.300430  1
  C  C1362  1  0.752470  0.065860  0.300430  1
  C  C1363  1  0.934140  0.752470  0.300430  1
  C  C1364  1  0.247530  0.934140  0.300430  1
  C  C1365  1  0.565860  0.747530  0.800430  1
  C  C1366  1  0.252470  0.565860  0.800430  1
  C  C1367  1  0.434140  0.252470  0.800430  1
  C  C1368  1  0.747530  0.434140  0.800430  1
  C  C1369  1  0.934140  0.752470  0.699570  1
  C  C1370  1  0.247530  0.934140  0.699570  1
  C  C1371  1  0.065860  0.247530  0.699570  1
  C  C1372  1  0.752470  0.065860  0.699570  1
  C  C1373  1  0.434140  0.252470  0.199570  1
  C  C1374  1  0.747530  0.434140  0.199570  1
  C  C1375  1  0.565860  0.747530  0.199570  1
  C  C1376  1  0.252470  0.565860  0.199570  1
  C  C1377  1  0.989190  0.281700  0.285240  1
  C  C1378  1  0.718300  0.989190  0.285240  1
  C  C1379  1  0.010810  0.718300  0.285240  1
  C  C1380  1  0.281700  0.010810  0.285240  1
  C  C1381  1  0.489190  0.781700  0.785240  1
  C  C1382  1  0.218300  0.489190  0.785240  1
  C  C1383  1  0.510810  0.218300  0.785240  1
  C  C1384  1  0.781700  0.510810  0.785240  1
  C  C1385  1  0.010810  0.718300  0.714760  1
  C  C1386  1  0.281700  0.010810  0.714760  1
  C  C1387  1  0.989190  0.281700  0.714760  1
  C  C1388  1  0.718300  0.989190  0.714760  1
  C  C1389  1  0.510810  0.218300  0.214760  1
  C  C1390  1  0.781700  0.510810  0.214760  1
  C  C1391  1  0.489190  0.781700  0.214760  1
  C  C1392  1  0.218300  0.489190  0.214760  1
  C  C1393  1  0.987750  0.205170  0.312020  1
  C  C1394  1  0.794830  0.987750  0.312020  1
  C  C1395  1  0.012250  0.794830  0.312020  1
  C  C1396  1  0.205170  0.012250  0.312020  1
  C  C1397  1  0.487750  0.705170  0.812020  1
  C  C1398  1  0.294830  0.487750  0.812020  1
  C  C1399  1  0.512250  0.294830  0.812020  1
  C  C1400  1  0.705170  0.512250  0.812020  1
  C  C1401  1  0.012250  0.794830  0.687980  1
  C  C1402  1  0.205170  0.012250  0.687980  1
  C  C1403  1  0.987750  0.205170  0.687980  1
  C  C1404  1  0.794830  0.987750  0.687980  1
  C  C1405  1  0.512250  0.294830  0.187980  1
  C  C1406  1  0.705170  0.512250  0.187980  1
  C  C1407  1  0.487750  0.705170  0.187980  1
  C  C1408  1  0.294830  0.487750  0.187980  1
  C  C1409  1  0.859410  0.415340  0.114600  1
  C  C1410  1  0.584660  0.859410  0.114600  1
  C  C1411  1  0.140590  0.584660  0.114600  1
  C  C1412  1  0.415340  0.140590  0.114600  1
  C  C1413  1  0.359410  0.915340  0.614600  1
  C  C1414  1  0.084660  0.359410  0.614600  1
  C  C1415  1  0.640590  0.084660  0.614600  1
  C  C1416  1  0.915340  0.640590  0.614600  1
  C  C1417  1  0.140590  0.584660  0.885400  1
  C  C1418  1  0.415340  0.140590  0.885400  1
  C  C1419  1  0.859410  0.415340  0.885400  1
  C  C1420  1  0.584660  0.859410  0.885400  1
  C  C1421  1  0.640590  0.084660  0.385400  1
  C  C1422  1  0.915340  0.640590  0.385400  1
  C  C1423  1  0.359410  0.915340  0.385400  1
  C  C1424  1  0.084660  0.359410  0.385400  1
  C  C1425  1  0.837680  0.439290  0.084650  1
  C  C1426  1  0.560710  0.837680  0.084650  1
  C  C1427  1  0.162320  0.560710  0.084650  1
  C  C1428  1  0.439290  0.162320  0.084650  1
  C  C1429  1  0.337680  0.939290  0.584650  1
  C  C1430  1  0.060710  0.337680  0.584650  1
  C  C1431  1  0.662320  0.060710  0.584650  1
  C  C1432  1  0.939290  0.662320  0.584650  1
  C  C1433  1  0.162320  0.560710  0.915350  1
  C  C1434  1  0.439290  0.162320  0.915350  1
  C  C1435  1  0.837680  0.439290  0.915350  1
  C  C1436  1  0.560710  0.837680  0.915350  1
  C  C1437  1  0.662320  0.060710  0.415350  1
  C  C1438  1  0.939290  0.662320  0.415350  1
  C  C1439  1  0.337680  0.939290  0.415350  1
  C  C1440  1  0.060710  0.337680  0.415350  1
  C  C1441  1  0.903620  0.448830  0.123080  1
  C  C1442  1  0.551170  0.903620  0.123080  1
  C  C1443  1  0.096380  0.551170  0.123080  1
  C  C1444  1  0.448830  0.096380  0.123080  1
  C  C1445  1  0.403620  0.948830  0.623080  1
  C  C1446  1  0.051170  0.403620  0.623080  1
  C  C1447  1  0.596380  0.051170  0.623080  1
  C  C1448  1  0.948830  0.596380  0.623080  1
  C  C1449  1  0.096380  0.551170  0.876920  1
  C  C1450  1  0.448830  0.096380  0.876920  1
  C  C1451  1  0.903620  0.448830  0.876920  1
  C  C1452  1  0.551170  0.903620  0.876920  1
  C  C1453  1  0.596380  0.051170  0.376920  1
  C  C1454  1  0.948830  0.596380  0.376920  1
  C  C1455  1  0.403620  0.948830  0.376920  1
  C  C1456  1  0.051170  0.403620  0.376920  1
  C  C1457  1  0.835280  0.414690  0.145960  1
  C  C1458  1  0.585310  0.835280  0.145960  1
  C  C1459  1  0.164720  0.585310  0.145960  1
  C  C1460  1  0.414690  0.164720  0.145960  1
  C  C1461  1  0.335280  0.914690  0.645960  1
  C  C1462  1  0.085310  0.335280  0.645960  1
  C  C1463  1  0.664720  0.085310  0.645960  1
  C  C1464  1  0.914690  0.664720  0.645960  1
  C  C1465  1  0.164720  0.585310  0.854040  1
  C  C1466  1  0.414690  0.164720  0.854040  1
  C  C1467  1  0.835280  0.414690  0.854040  1
  C  C1468  1  0.585310  0.835280  0.854040  1
  C  C1469  1  0.664720  0.085310  0.354040  1
  C  C1470  1  0.914690  0.664720  0.354040  1
  C  C1471  1  0.335280  0.914690  0.354040  1
  C  C1472  1  0.085310  0.335280  0.354040  1
  C  C1473  1  0.607920  0.196880  0.117850  1
  C  C1474  1  0.803120  0.607920  0.117850  1
  C  C1475  1  0.392080  0.803120  0.117850  1
  C  C1476  1  0.196880  0.392080  0.117850  1
  C  C1477  1  0.107920  0.696880  0.617850  1
  C  C1478  1  0.303120  0.107920  0.617850  1
  C  C1479  1  0.892080  0.303120  0.617850  1
  C  C1480  1  0.696880  0.892080  0.617850  1
  C  C1481  1  0.392080  0.803120  0.882150  1
  C  C1482  1  0.196880  0.392080  0.882150  1
  C  C1483  1  0.607920  0.196880  0.882150  1
  C  C1484  1  0.803120  0.607920  0.882150  1
  C  C1485  1  0.892080  0.303120  0.382150  1
  C  C1486  1  0.696880  0.892080  0.382150  1
  C  C1487  1  0.107920  0.696880  0.382150  1
  C  C1488  1  0.303120  0.107920  0.382150  1
  C  C1489  1  0.615360  0.222000  0.149910  1
  C  C1490  1  0.778000  0.615360  0.149910  1
  C  C1491  1  0.384640  0.778000  0.149910  1
  C  C1492  1  0.222000  0.384640  0.149910  1
  C  C1493  1  0.115360  0.722000  0.649910  1
  C  C1494  1  0.278000  0.115360  0.649910  1
  C  C1495  1  0.884640  0.278000  0.649910  1
  C  C1496  1  0.722000  0.884640  0.649910  1
  C  C1497  1  0.384640  0.778000  0.850090  1
  C  C1498  1  0.222000  0.384640  0.850090  1
  C  C1499  1  0.615360  0.222000  0.850090  1
  C  C1500  1  0.778000  0.615360  0.850090  1
  C  C1501  1  0.884640  0.278000  0.350090  1
  C  C1502  1  0.722000  0.884640  0.350090  1
  C  C1503  1  0.115360  0.722000  0.350090  1
  C  C1504  1  0.278000  0.115360  0.350090  1
  C  C1505  1  0.570380  0.157380  0.127880  1
  C  C1506  1  0.842620  0.570380  0.127880  1
  C  C1507  1  0.429620  0.842620  0.127880  1
  C  C1508  1  0.157380  0.429620  0.127880  1
  C  C1509  1  0.070380  0.657380  0.627880  1
  C  C1510  1  0.342620  0.070380  0.627880  1
  C  C1511  1  0.929620  0.342620  0.627880  1
  C  C1512  1  0.657380  0.929620  0.627880  1
  C  C1513  1  0.429620  0.842620  0.872120  1
  C  C1514  1  0.157380  0.429620  0.872120  1
  C  C1515  1  0.570380  0.157380  0.872120  1
  C  C1516  1  0.842620  0.570380  0.872120  1
  C  C1517  1  0.929620  0.342620  0.372120  1
  C  C1518  1  0.657380  0.929620  0.372120  1
  C  C1519  1  0.070380  0.657380  0.372120  1
  C  C1520  1  0.342620  0.070380  0.372120  1
  C  C1521  1  0.587360  0.221290  0.090220  1
  C  C1522  1  0.778710  0.587360  0.090220  1
  C  C1523  1  0.412640  0.778710  0.090220  1
  C  C1524  1  0.221290  0.412640  0.090220  1
  C  C1525  1  0.087360  0.721290  0.590220  1
  C  C1526  1  0.278710  0.087360  0.590220  1
  C  C1527  1  0.912640  0.278710  0.590220  1
  C  C1528  1  0.721290  0.912640  0.590220  1
  C  C1529  1  0.412640  0.778710  0.909780  1
  C  C1530  1  0.221290  0.412640  0.909780  1
  C  C1531  1  0.587360  0.221290  0.909780  1
  C  C1532  1  0.778710  0.587360  0.909780  1
  C  C1533  1  0.912640  0.278710  0.409780  1
  C  C1534  1  0.721290  0.912640  0.409780  1
  C  C1535  1  0.087360  0.721290  0.409780  1
  C  C1536  1  0.278710  0.087360  0.409780  1
  C  C1537  1  0.808410  0.258600  0.238190  1
  C  C1538  1  0.741400  0.808410  0.238190  1
  C  C1539  1  0.191590  0.741400  0.238190  1
  C  C1540  1  0.258600  0.191590  0.238190  1
  C  C1541  1  0.308410  0.758600  0.738190  1
  C  C1542  1  0.241400  0.308410  0.738190  1
  C  C1543  1  0.691590  0.241400  0.738190  1
  C  C1544  1  0.758600  0.691590  0.738190  1
  C  C1545  1  0.191590  0.741400  0.761810  1
  C  C1546  1  0.258600  0.191590  0.761810  1
  C  C1547  1  0.808410  0.258600  0.761810  1
  C  C1548  1  0.741400  0.808410  0.761810  1
  C  C1549  1  0.691590  0.241400  0.261810  1
  C  C1550  1  0.758600  0.691590  0.261810  1
  C  C1551  1  0.308410  0.758600  0.261810  1
  C  C1552  1  0.241400  0.308410  0.261810  1
  C  C1553  1  0.832540  0.234920  0.264600  1
  C  C1554  1  0.765080  0.832540  0.264600  1
  C  C1555  1  0.167460  0.765080  0.264600  1
  C  C1556  1  0.234920  0.167460  0.264600  1
  C  C1557  1  0.332540  0.734920  0.764600  1
  C  C1558  1  0.265080  0.332540  0.764600  1
  C  C1559  1  0.667460  0.265080  0.764600  1
  C  C1560  1  0.734920  0.667460  0.764600  1
  C  C1561  1  0.167460  0.765080  0.735400  1
  C  C1562  1  0.234920  0.167460  0.735400  1
  C  C1563  1  0.832540  0.234920  0.735400  1
  C  C1564  1  0.765080  0.832540  0.735400  1
  C  C1565  1  0.667460  0.265080  0.235400  1
  C  C1566  1  0.734920  0.667460  0.235400  1
  C  C1567  1  0.332540  0.734920  0.235400  1
  C  C1568  1  0.265080  0.332540  0.235400  1
  C  C1569  1  0.792200  0.272900  0.227260  1
  C  C1570  1  0.727100  0.792200  0.227260  1
  C  C1571  1  0.207800  0.727100  0.227260  1
  C  C1572  1  0.272900  0.207800  0.227260  1
  C  C1573  1  0.292200  0.772900  0.727260  1
  C  C1574  1  0.227100  0.292200  0.727260  1
  C  C1575  1  0.707800  0.227100  0.727260  1
  C  C1576  1  0.772900  0.707800  0.727260  1
  C  C1577  1  0.207800  0.727100  0.772740  1
  C  C1578  1  0.272900  0.207800  0.772740  1
  C  C1579  1  0.792200  0.272900  0.772740  1
  C  C1580  1  0.727100  0.792200  0.772740  1
  C  C1581  1  0.707800  0.227100  0.272740  1
  C  C1582  1  0.772900  0.707800  0.272740  1
  C  C1583  1  0.292200  0.772900  0.272740  1
  C  C1584  1  0.227100  0.292200  0.272740  1
  C  C1585  1  0.766460  0.294950  0.197220  1
  C  C1586  1  0.705050  0.766460  0.197220  1
  C  C1587  1  0.233540  0.705050  0.197220  1
  C  C1588  1  0.294950  0.233540  0.197220  1
  C  C1589  1  0.266460  0.794950  0.697220  1
  C  C1590  1  0.205050  0.266460  0.697220  1
  C  C1591  1  0.733540  0.205050  0.697220  1
  C  C1592  1  0.794950  0.733540  0.697220  1
  C  C1593  1  0.233540  0.705050  0.802780  1
  C  C1594  1  0.294950  0.233540  0.802780  1
  C  C1595  1  0.766460  0.294950  0.802780  1
  C  C1596  1  0.705050  0.766460  0.802780  1
  C  C1597  1  0.733540  0.205050  0.302780  1
  C  C1598  1  0.794950  0.733540  0.302780  1
  C  C1599  1  0.266460  0.794950  0.302780  1
  C  C1600  1  0.205050  0.266460  0.302780  1
  C  C1601  1  0.804300  0.311440  0.284300  1
  C  C1602  1  0.688560  0.804300  0.284300  1
  C  C1603  1  0.195700  0.688560  0.284300  1
  C  C1604  1  0.311440  0.195700  0.284300  1
  C  C1605  1  0.304300  0.811440  0.784300  1
  C  C1606  1  0.188560  0.304300  0.784300  1
  C  C1607  1  0.695700  0.188560  0.784300  1
  C  C1608  1  0.811440  0.695700  0.784300  1
  C  C1609  1  0.195700  0.688560  0.715700  1
  C  C1610  1  0.311440  0.195700  0.715700  1
  C  C1611  1  0.804300  0.311440  0.715700  1
  C  C1612  1  0.688560  0.804300  0.715700  1
  C  C1613  1  0.695700  0.188560  0.215700  1
  C  C1614  1  0.811440  0.695700  0.215700  1
  C  C1615  1  0.304300  0.811440  0.215700  1
  C  C1616  1  0.188560  0.304300  0.215700  1
  C  C1617  1  0.775520  0.339400  0.255050  1
  C  C1618  1  0.660600  0.775520  0.255050  1
  C  C1619  1  0.224480  0.660600  0.255050  1
  C  C1620  1  0.339400  0.224480  0.255050  1
  C  C1621  1  0.275520  0.839400  0.755050  1
  C  C1622  1  0.160600  0.275520  0.755050  1
  C  C1623  1  0.724480  0.160600  0.755050  1
  C  C1624  1  0.839400  0.724480  0.755050  1
  C  C1625  1  0.224480  0.660600  0.744950  1
  C  C1626  1  0.339400  0.224480  0.744950  1
  C  C1627  1  0.775520  0.339400  0.744950  1
  C  C1628  1  0.660600  0.775520  0.744950  1
  C  C1629  1  0.724480  0.160600  0.244950  1
  C  C1630  1  0.839400  0.724480  0.244950  1
  C  C1631  1  0.275520  0.839400  0.244950  1
  C  C1632  1  0.160600  0.275520  0.244950  1
  C  C1633  1  0.019760  0.239880  0.283640  1.0
  C  C1634  1  0.760120  0.019760  0.283640  1.0
  C  C1635  1  0.980240  0.760120  0.283640  1.0
  C  C1636  1  0.239880  0.980240  0.283640  1.0
  C  C1637  1  0.519760  0.739880  0.783640  1.0
  C  C1638  1  0.260120  0.519760  0.783640  1.0
  C  C1639  1  0.480240  0.260120  0.783640  1.0
  C  C1640  1  0.739880  0.480240  0.783640  1.0
  C  C1641  1  0.980240  0.760120  0.716360  1.0
  C  C1642  1  0.239880  0.980240  0.716360  1.0
  C  C1643  1  0.019760  0.239880  0.716360  1.0
  C  C1644  1  0.760120  0.019760  0.716360  1.0
  C  C1645  1  0.480240  0.260120  0.216360  1.0
  C  C1646  1  0.739880  0.480240  0.216360  1.0
  C  C1647  1  0.519760  0.739880  0.216360  1.0
  C  C1648  1  0.260120  0.519760  0.216360  1.0
  C  C1649  1  0.056580  0.220470  0.306000  1.0
  C  C1650  1  0.779530  0.056580  0.306000  1.0
  C  C1651  1  0.943420  0.779530  0.306000  1.0
  C  C1652  1  0.220470  0.943420  0.306000  1.0
  C  C1653  1  0.556580  0.720470  0.806000  1.0
  C  C1654  1  0.279530  0.556580  0.806000  1.0
  C  C1655  1  0.443420  0.279530  0.806000  1.0
  C  C1656  1  0.720470  0.443420  0.806000  1.0
  C  C1657  1  0.943420  0.779530  0.694000  1.0
  C  C1658  1  0.220470  0.943420  0.694000  1.0
  C  C1659  1  0.056580  0.220470  0.694000  1.0
  C  C1660  1  0.779530  0.056580  0.694000  1.0
  C  C1661  1  0.443420  0.279530  0.194000  1.0
  C  C1662  1  0.720470  0.443420  0.194000  1.0
  C  C1663  1  0.556580  0.720470  0.194000  1.0
  C  C1664  1  0.279530  0.556580  0.194000  1.0
  C  C1665  1  0.031650  0.288770  0.276630  1.0
  C  C1666  1  0.711230  0.031650  0.276630  1.0
  C  C1667  1  0.968350  0.711230  0.276630  1.0
  C  C1668  1  0.288770  0.968350  0.276630  1.0
  C  C1669  1  0.531650  0.788770  0.776630  1.0
  C  C1670  1  0.211230  0.531650  0.776630  1.0
  C  C1671  1  0.468350  0.211230  0.776630  1.0
  C  C1672  1  0.788770  0.468350  0.776630  1.0
  C  C1673  1  0.968350  0.711230  0.723370  1.0
  C  C1674  1  0.288770  0.968350  0.723370  1.0
  C  C1675  1  0.031650  0.288770  0.723370  1.0
  C  C1676  1  0.711230  0.031650  0.723370  1.0
  C  C1677  1  0.468350  0.211230  0.223370  1.0
  C  C1678  1  0.788770  0.468350  0.223370  1.0
  C  C1679  1  0.531650  0.788770  0.223370  1.0
  C  C1680  1  0.211230  0.531650  0.223370  1.0
  C  C1681  1  0.972600  0.237780  0.303750  1.0
  C  C1682  1  0.762220  0.972600  0.303750  1.0
  C  C1683  1  0.027400  0.762220  0.303750  1.0
  C  C1684  1  0.237780  0.027400  0.303750  1.0
  C  C1685  1  0.472600  0.737780  0.803750  1.0
  C  C1686  1  0.262220  0.472600  0.803750  1.0
  C  C1687  1  0.527400  0.262220  0.803750  1.0
  C  C1688  1  0.737780  0.527400  0.803750  1.0
  C  C1689  1  0.027400  0.762220  0.696250  1.0
  C  C1690  1  0.237780  0.027400  0.696250  1.0
  C  C1691  1  0.972600  0.237780  0.696250  1.0
  C  C1692  1  0.762220  0.972600  0.696250  1.0
  C  C1693  1  0.527400  0.262220  0.196250  1.0
  C  C1694  1  0.737780  0.527400  0.196250  1.0
  C  C1695  1  0.472600  0.737780  0.196250  1.0
  C  C1696  1  0.262220  0.472600  0.196250  1.0
  C  C1697  1  0.016410  0.215170  0.253720  1.0
  C  C1698  1  0.784830  0.016410  0.253720  1.0
  C  C1699  1  0.983590  0.784830  0.253720  1.0
  C  C1700  1  0.215170  0.983590  0.253720  1.0
  C  C1701  1  0.516410  0.715170  0.753720  1.0
  C  C1702  1  0.284830  0.516410  0.753720  1.0
  C  C1703  1  0.483590  0.284830  0.753720  1.0
  C  C1704  1  0.715170  0.483590  0.753720  1.0
  C  C1705  1  0.983590  0.784830  0.746280  1.0
  C  C1706  1  0.215170  0.983590  0.746280  1.0
  C  C1707  1  0.016410  0.215170  0.746280  1.0
  C  C1708  1  0.784830  0.016410  0.746280  1.0
  C  C1709  1  0.483590  0.284830  0.246280  1.0
  C  C1710  1  0.715170  0.483590  0.246280  1.0
  C  C1711  1  0.516410  0.715170  0.246280  1.0
  C  C1712  1  0.284830  0.516410  0.246280  1.0
  C  C1713  1  0.055760  0.200890  0.237830  1.0
  C  C1714  1  0.799110  0.055760  0.237830  1.0
  C  C1715  1  0.944240  0.799110  0.237830  1.0
  C  C1716  1  0.200890  0.944240  0.237830  1.0
  C  C1717  1  0.555760  0.700890  0.737830  1.0
  C  C1718  1  0.299110  0.555760  0.737830  1.0
  C  C1719  1  0.444240  0.299110  0.737830  1.0
  C  C1720  1  0.700890  0.444240  0.737830  1.0
  C  C1721  1  0.944240  0.799110  0.762170  1.0
  C  C1722  1  0.200890  0.944240  0.762170  1.0
  C  C1723  1  0.055760  0.200890  0.762170  1.0
  C  C1724  1  0.799110  0.055760  0.762170  1.0
  C  C1725  1  0.444240  0.299110  0.262170  1.0
  C  C1726  1  0.700890  0.444240  0.262170  1.0
  C  C1727  1  0.555760  0.700890  0.262170  1.0
  C  C1728  1  0.299110  0.555760  0.262170  1.0
  C  C1729  1  0.054500  0.180480  0.208600  1.0
  C  C1730  1  0.819520  0.054500  0.208600  1.0
  C  C1731  1  0.945500  0.819520  0.208600  1.0
  C  C1732  1  0.180480  0.945500  0.208600  1.0
  C  C1733  1  0.554500  0.680480  0.708600  1.0
  C  C1734  1  0.319520  0.554500  0.708600  1.0
  C  C1735  1  0.445500  0.319520  0.708600  1.0
  C  C1736  1  0.680480  0.445500  0.708600  1.0
  C  C1737  1  0.945500  0.819520  0.791400  1.0
  C  C1738  1  0.180480  0.945500  0.791400  1.0
  C  C1739  1  0.054500  0.180480  0.791400  1.0
  C  C1740  1  0.819520  0.054500  0.791400  1.0
  C  C1741  1  0.445500  0.319520  0.291400  1.0
  C  C1742  1  0.680480  0.445500  0.291400  1.0
  C  C1743  1  0.554500  0.680480  0.291400  1.0
  C  C1744  1  0.319520  0.554500  0.291400  1.0
  C  C1745  1  0.013300  0.172930  0.194260  1.0
  C  C1746  1  0.827070  0.013300  0.194260  1.0
  C  C1747  1  0.986700  0.827070  0.194260  1.0
  C  C1748  1  0.172930  0.986700  0.194260  1.0
  C  C1749  1  0.513300  0.672930  0.694260  1.0
  C  C1750  1  0.327070  0.513300  0.694260  1.0
  C  C1751  1  0.486700  0.327070  0.694260  1.0
  C  C1752  1  0.672930  0.486700  0.694260  1.0
  C  C1753  1  0.986700  0.827070  0.805740  1.0
  C  C1754  1  0.172930  0.986700  0.805740  1.0
  C  C1755  1  0.013300  0.172930  0.805740  1.0
  C  C1756  1  0.827070  0.013300  0.805740  1.0
  C  C1757  1  0.486700  0.327070  0.305740  1.0
  C  C1758  1  0.672930  0.486700  0.305740  1.0
  C  C1759  1  0.513300  0.672930  0.305740  1.0
  C  C1760  1  0.327070  0.513300  0.305740  1.0
  C  C1761  1  0.974690  0.187020  0.208340  1.0
  C  C1762  1  0.812980  0.974690  0.208340  1.0
  C  C1763  1  0.025310  0.812980  0.208340  1.0
  C  C1764  1  0.187020  0.025310  0.208340  1.0
  C  C1765  1  0.474690  0.687020  0.708340  1.0
  C  C1766  1  0.312980  0.474690  0.708340  1.0
  C  C1767  1  0.525310  0.312980  0.708340  1.0
  C  C1768  1  0.687020  0.525310  0.708340  1.0
  C  C1769  1  0.025310  0.812980  0.791660  1.0
  C  C1770  1  0.187020  0.025310  0.791660  1.0
  C  C1771  1  0.974690  0.187020  0.791660  1.0
  C  C1772  1  0.812980  0.974690  0.791660  1.0
  C  C1773  1  0.525310  0.312980  0.291660  1.0
  C  C1774  1  0.687020  0.525310  0.291660  1.0
  C  C1775  1  0.474690  0.687020  0.291660  1.0
  C  C1776  1  0.312980  0.474690  0.291660  1.0
  C  C1777  1  0.976360  0.208480  0.238160  1.0
  C  C1778  1  0.791520  0.976360  0.238160  1.0
  C  C1779  1  0.023640  0.791520  0.238160  1.0
  C  C1780  1  0.208480  0.023640  0.238160  1.0
  C  C1781  1  0.476360  0.708480  0.738160  1.0
  C  C1782  1  0.291520  0.476360  0.738160  1.0
  C  C1783  1  0.523640  0.291520  0.738160  1.0
  C  C1784  1  0.708480  0.523640  0.738160  1.0
  C  C1785  1  0.023640  0.791520  0.761840  1.0
  C  C1786  1  0.208480  0.023640  0.761840  1.0
  C  C1787  1  0.976360  0.208480  0.761840  1.0
  C  C1788  1  0.791520  0.976360  0.761840  1.0
  C  C1789  1  0.523640  0.291520  0.261840  1.0
  C  C1790  1  0.708480  0.523640  0.261840  1.0
  C  C1791  1  0.476360  0.708480  0.261840  1.0
  C  C1792  1  0.291520  0.476360  0.261840  1.0
  C  C1793  1  0.929900  0.181130  0.191890  1.0
  C  C1794  1  0.818870  0.929900  0.191890  1.0
  C  C1795  1  0.070100  0.818870  0.191890  1.0
  C  C1796  1  0.181130  0.070100  0.191890  1.0
  C  C1797  1  0.429900  0.681130  0.691890  1.0
  C  C1798  1  0.318870  0.429900  0.691890  1.0
  C  C1799  1  0.570100  0.318870  0.691890  1.0
  C  C1800  1  0.681130  0.570100  0.691890  1.0
  C  C1801  1  0.070100  0.818870  0.808110  1.0
  C  C1802  1  0.181130  0.070100  0.808110  1.0
  C  C1803  1  0.929900  0.181130  0.808110  1.0
  C  C1804  1  0.818870  0.929900  0.808110  1.0
  C  C1805  1  0.570100  0.318870  0.308110  1.0
  C  C1806  1  0.681130  0.570100  0.308110  1.0
  C  C1807  1  0.429900  0.681130  0.308110  1.0
  C  C1808  1  0.318870  0.429900  0.308110  1.0
  C  C1809  1  0.871990  0.245660  0.129550  1.0
  C  C1810  1  0.754340  0.871990  0.129550  1.0
  C  C1811  1  0.128010  0.754340  0.129550  1.0
  C  C1812  1  0.245660  0.128010  0.129550  1.0
  C  C1813  1  0.371990  0.745660  0.629550  1.0
  C  C1814  1  0.254340  0.371990  0.629550  1.0
  C  C1815  1  0.628010  0.254340  0.629550  1.0
  C  C1816  1  0.745660  0.628010  0.629550  1.0
  C  C1817  1  0.128010  0.754340  0.870450  1.0
  C  C1818  1  0.245660  0.128010  0.870450  1.0
  C  C1819  1  0.871990  0.245660  0.870450  1.0
  C  C1820  1  0.754340  0.871990  0.870450  1.0
  C  C1821  1  0.628010  0.254340  0.370450  1.0
  C  C1822  1  0.745660  0.628010  0.370450  1.0
  C  C1823  1  0.371990  0.745660  0.370450  1.0
  C  C1824  1  0.254340  0.371990  0.370450  1.0
  C  C1825  1  0.885090  0.288150  0.111920  1.0
  C  C1826  1  0.711850  0.885090  0.111920  1.0
  C  C1827  1  0.114910  0.711850  0.111920  1.0
  C  C1828  1  0.288150  0.114910  0.111920  1.0
  C  C1829  1  0.385090  0.788150  0.611920  1.0
  C  C1830  1  0.211850  0.385090  0.611920  1.0
  C  C1831  1  0.614910  0.211850  0.611920  1.0
  C  C1832  1  0.788150  0.614910  0.611920  1.0
  C  C1833  1  0.114910  0.711850  0.888080  1.0
  C  C1834  1  0.288150  0.114910  0.888080  1.0
  C  C1835  1  0.885090  0.288150  0.888080  1.0
  C  C1836  1  0.711850  0.885090  0.888080  1.0
  C  C1837  1  0.614910  0.211850  0.388080  1.0
  C  C1838  1  0.788150  0.614910  0.388080  1.0
  C  C1839  1  0.385090  0.788150  0.388080  1.0
  C  C1840  1  0.211850  0.385090  0.388080  1.0
  C  C1841  1  0.913330  0.286320  0.086050  1.0
  C  C1842  1  0.713680  0.913330  0.086050  1.0
  C  C1843  1  0.086670  0.713680  0.086050  1.0
  C  C1844  1  0.286320  0.086670  0.086050  1.0
  C  C1845  1  0.413330  0.786320  0.586050  1.0
  C  C1846  1  0.213680  0.413330  0.586050  1.0
  C  C1847  1  0.586670  0.213680  0.586050  1.0
  C  C1848  1  0.786320  0.586670  0.586050  1.0
  C  C1849  1  0.086670  0.713680  0.913950  1.0
  C  C1850  1  0.286320  0.086670  0.913950  1.0
  C  C1851  1  0.913330  0.286320  0.913950  1.0
  C  C1852  1  0.713680  0.913330  0.913950  1.0
  C  C1853  1  0.586670  0.213680  0.413950  1.0
  C  C1854  1  0.786320  0.586670  0.413950  1.0
  C  C1855  1  0.413330  0.786320  0.413950  1.0
  C  C1856  1  0.213680  0.413330  0.413950  1.0
  C  C1857  1  0.926560  0.324940  0.071290  1.0
  C  C1858  1  0.675060  0.926560  0.071290  1.0
  C  C1859  1  0.073440  0.675060  0.071290  1.0
  C  C1860  1  0.324940  0.073440  0.071290  1.0
  C  C1861  1  0.426560  0.824940  0.571290  1.0
  C  C1862  1  0.175060  0.426560  0.571290  1.0
  C  C1863  1  0.573440  0.175060  0.571290  1.0
  C  C1864  1  0.824940  0.573440  0.571290  1.0
  C  C1865  1  0.073440  0.675060  0.928710  1.0
  C  C1866  1  0.324940  0.073440  0.928710  1.0
  C  C1867  1  0.926560  0.324940  0.928710  1.0
  C  C1868  1  0.675060  0.926560  0.928710  1.0
  C  C1869  1  0.573440  0.175060  0.428710  1.0
  C  C1870  1  0.824940  0.573440  0.428710  1.0
  C  C1871  1  0.426560  0.824940  0.428710  1.0
  C  C1872  1  0.175060  0.426560  0.428710  1.0
  C  C1873  1  0.908940  0.366700  0.081170  1.0
  C  C1874  1  0.633300  0.908940  0.081170  1.0
  C  C1875  1  0.091060  0.633300  0.081170  1.0
  C  C1876  1  0.366700  0.091060  0.081170  1.0
  C  C1877  1  0.408940  0.866700  0.581170  1.0
  C  C1878  1  0.133300  0.408940  0.581170  1.0
  C  C1879  1  0.591060  0.133300  0.581170  1.0
  C  C1880  1  0.866700  0.591060  0.581170  1.0
  C  C1881  1  0.091060  0.633300  0.918830  1.0
  C  C1882  1  0.366700  0.091060  0.918830  1.0
  C  C1883  1  0.908940  0.366700  0.918830  1.0
  C  C1884  1  0.633300  0.908940  0.918830  1.0
  C  C1885  1  0.591060  0.133300  0.418830  1.0
  C  C1886  1  0.866700  0.591060  0.418830  1.0
  C  C1887  1  0.408940  0.866700  0.418830  1.0
  C  C1888  1  0.133300  0.408940  0.418830  1.0
  C  C1889  1  0.879090  0.369470  0.106960  1.0
  C  C1890  1  0.630530  0.879090  0.106960  1.0
  C  C1891  1  0.120910  0.630530  0.106960  1.0
  C  C1892  1  0.369470  0.120910  0.106960  1.0
  C  C1893  1  0.379090  0.869470  0.606960  1.0
  C  C1894  1  0.130530  0.379090  0.606960  1.0
  C  C1895  1  0.620910  0.130530  0.606960  1.0
  C  C1896  1  0.869470  0.620910  0.606960  1.0
  C  C1897  1  0.120910  0.630530  0.893040  1.0
  C  C1898  1  0.369470  0.120910  0.893040  1.0
  C  C1899  1  0.879090  0.369470  0.893040  1.0
  C  C1900  1  0.630530  0.879090  0.893040  1.0
  C  C1901  1  0.620910  0.130530  0.393040  1.0
  C  C1902  1  0.869470  0.620910  0.393040  1.0
  C  C1903  1  0.379090  0.869470  0.393040  1.0
  C  C1904  1  0.130530  0.379090  0.393040  1.0
  C  C1905  1  0.866900  0.329440  0.121740  1.0
  C  C1906  1  0.670560  0.866900  0.121740  1.0
  C  C1907  1  0.133100  0.670560  0.121740  1.0
  C  C1908  1  0.329440  0.133100  0.121740  1.0
  C  C1909  1  0.366900  0.829440  0.621740  1.0
  C  C1910  1  0.170560  0.366900  0.621740  1.0
  C  C1911  1  0.633100  0.170560  0.621740  1.0
  C  C1912  1  0.829440  0.633100  0.621740  1.0
  C  C1913  1  0.133100  0.670560  0.878260  1.0
  C  C1914  1  0.329440  0.133100  0.878260  1.0
  C  C1915  1  0.866900  0.329440  0.878260  1.0
  C  C1916  1  0.670560  0.866900  0.878260  1.0
  C  C1917  1  0.633100  0.170560  0.378260  1.0
  C  C1918  1  0.829440  0.633100  0.378260  1.0
  C  C1919  1  0.366900  0.829440  0.378260  1.0
  C  C1920  1  0.170560  0.366900  0.378260  1.0
  C  C1921  1  0.861200  0.413420  0.120100  1.0
  C  C1922  1  0.586580  0.861200  0.120100  1.0
  C  C1923  1  0.138800  0.586580  0.120100  1.0
  C  C1924  1  0.413420  0.138800  0.120100  1.0
  C  C1925  1  0.361200  0.913420  0.620100  1.0
  C  C1926  1  0.086580  0.361200  0.620100  1.0
  C  C1927  1  0.638800  0.086580  0.620100  1.0
  C  C1928  1  0.913420  0.638800  0.620100  1.0
  C  C1929  1  0.138800  0.586580  0.879900  1.0
  C  C1930  1  0.413420  0.138800  0.879900  1.0
  C  C1931  1  0.861200  0.413420  0.879900  1.0
  C  C1932  1  0.586580  0.861200  0.879900  1.0
  C  C1933  1  0.638800  0.086580  0.379900  1.0
  C  C1934  1  0.913420  0.638800  0.379900  1.0
  C  C1935  1  0.361200  0.913420  0.379900  1.0
  C  C1936  1  0.086580  0.361200  0.379900  1.0
  C  C1937  1  0.876040  0.454800  0.099630  1.0
  C  C1938  1  0.545200  0.876040  0.099630  1.0
  C  C1939  1  0.123960  0.545200  0.099630  1.0
  C  C1940  1  0.454800  0.123960  0.099630  1.0
  C  C1941  1  0.376040  0.954800  0.599630  1.0
  C  C1942  1  0.045200  0.376040  0.599630  1.0
  C  C1943  1  0.623960  0.045200  0.599630  1.0
  C  C1944  1  0.954800  0.623960  0.599630  1.0
  C  C1945  1  0.123960  0.545200  0.900370  1.0
  C  C1946  1  0.454800  0.123960  0.900370  1.0
  C  C1947  1  0.876040  0.454800  0.900370  1.0
  C  C1948  1  0.545200  0.876040  0.900370  1.0
  C  C1949  1  0.623960  0.045200  0.400370  1.0
  C  C1950  1  0.954800  0.623960  0.400370  1.0
  C  C1951  1  0.376040  0.954800  0.400370  1.0
  C  C1952  1  0.045200  0.376040  0.400370  1.0
  C  C1953  1  0.876700  0.422230  0.154350  1.0
  C  C1954  1  0.577770  0.876700  0.154350  1.0
  C  C1955  1  0.123300  0.577770  0.154350  1.0
  C  C1956  1  0.422230  0.123300  0.154350  1.0
  C  C1957  1  0.376700  0.922230  0.654350  1.0
  C  C1958  1  0.077770  0.376700  0.654350  1.0
  C  C1959  1  0.623300  0.077770  0.654350  1.0
  C  C1960  1  0.922230  0.623300  0.654350  1.0
  C  C1961  1  0.123300  0.577770  0.845650  1.0
  C  C1962  1  0.422230  0.123300  0.845650  1.0
  C  C1963  1  0.876700  0.422230  0.845650  1.0
  C  C1964  1  0.577770  0.876700  0.845650  1.0
  C  C1965  1  0.623300  0.077770  0.345650  1.0
  C  C1966  1  0.922230  0.623300  0.345650  1.0
  C  C1967  1  0.376700  0.922230  0.345650  1.0
  C  C1968  1  0.077770  0.376700  0.345650  1.0
  C  C1969  1  0.805800  0.410670  0.120480  1.0
  C  C1970  1  0.589330  0.805800  0.120480  1.0
  C  C1971  1  0.194200  0.589330  0.120480  1.0
  C  C1972  1  0.410670  0.194200  0.120480  1.0
  C  C1973  1  0.305800  0.910670  0.620480  1.0
  C  C1974  1  0.089330  0.305800  0.620480  1.0
  C  C1975  1  0.694200  0.089330  0.620480  1.0
  C  C1976  1  0.910670  0.694200  0.620480  1.0
  C  C1977  1  0.194200  0.589330  0.879520  1.0
  C  C1978  1  0.410670  0.194200  0.879520  1.0
  C  C1979  1  0.805800  0.410670  0.879520  1.0
  C  C1980  1  0.589330  0.805800  0.879520  1.0
  C  C1981  1  0.694200  0.089330  0.379520  1.0
  C  C1982  1  0.910670  0.694200  0.379520  1.0
  C  C1983  1  0.305800  0.910670  0.379520  1.0
  C  C1984  1  0.089330  0.305800  0.379520  1.0
  C  C1985  1  0.097390  0.166860  0.192660  1.0
  C  C1986  1  0.833140  0.097390  0.192660  1.0
  C  C1987  1  0.902610  0.833140  0.192660  1.0
  C  C1988  1  0.166860  0.902610  0.192660  1.0
  C  C1989  1  0.597390  0.666860  0.692660  1.0
  C  C1990  1  0.333140  0.597390  0.692660  1.0
  C  C1991  1  0.402610  0.333140  0.692660  1.0
  C  C1992  1  0.666860  0.402610  0.692660  1.0
  C  C1993  1  0.902610  0.833140  0.807340  1.0
  C  C1994  1  0.166860  0.902610  0.807340  1.0
  C  C1995  1  0.097390  0.166860  0.807340  1.0
  C  C1996  1  0.833140  0.097390  0.807340  1.0
  C  C1997  1  0.402610  0.333140  0.307340  1.0
  C  C1998  1  0.666860  0.402610  0.307340  1.0
  C  C1999  1  0.597390  0.666860  0.307340  1.0
  C  C2000  1  0.333140  0.597390  0.307340  1.0
  C  C2001  1  0.775670  0.161120  0.130750  1.0
  C  C2002  1  0.838880  0.775670  0.130750  1.0
  C  C2003  1  0.224330  0.838880  0.130750  1.0
  C  C2004  1  0.161120  0.224330  0.130750  1.0
  C  C2005  1  0.275670  0.661120  0.630750  1.0
  C  C2006  1  0.338880  0.275670  0.630750  1.0
  C  C2007  1  0.724330  0.338880  0.630750  1.0
  C  C2008  1  0.661120  0.724330  0.630750  1.0
  C  C2009  1  0.224330  0.838880  0.869250  1.0
  C  C2010  1  0.161120  0.224330  0.869250  1.0
  C  C2011  1  0.775670  0.161120  0.869250  1.0
  C  C2012  1  0.838880  0.775670  0.869250  1.0
  C  C2013  1  0.724330  0.338880  0.369250  1.0
  C  C2014  1  0.661120  0.724330  0.369250  1.0
  C  C2015  1  0.275670  0.661120  0.369250  1.0
  C  C2016  1  0.338880  0.275670  0.369250  1.0
  C  C2017  1  0.732330  0.153900  0.113640  1.0
  C  C2018  1  0.846100  0.732330  0.113640  1.0
  C  C2019  1  0.267670  0.846100  0.113640  1.0
  C  C2020  1  0.153900  0.267670  0.113640  1.0
  C  C2021  1  0.232330  0.653900  0.613640  1.0
  C  C2022  1  0.346100  0.232330  0.613640  1.0
  C  C2023  1  0.767670  0.346100  0.613640  1.0
  C  C2024  1  0.653900  0.767670  0.613640  1.0
  C  C2025  1  0.267670  0.846100  0.886360  1.0
  C  C2026  1  0.153900  0.267670  0.886360  1.0
  C  C2027  1  0.732330  0.153900  0.886360  1.0
  C  C2028  1  0.846100  0.732330  0.886360  1.0
  C  C2029  1  0.767670  0.346100  0.386360  1.0
  C  C2030  1  0.653900  0.767670  0.386360  1.0
  C  C2031  1  0.232330  0.653900  0.386360  1.0
  C  C2032  1  0.346100  0.232330  0.386360  1.0
  C  C2033  1  0.730220  0.124630  0.087710  1.0
  C  C2034  1  0.875370  0.730220  0.087710  1.0
  C  C2035  1  0.269780  0.875370  0.087710  1.0
  C  C2036  1  0.124630  0.269780  0.087710  1.0
  C  C2037  1  0.230220  0.624630  0.587710  1.0
  C  C2038  1  0.375370  0.230220  0.587710  1.0
  C  C2039  1  0.769780  0.375370  0.587710  1.0
  C  C2040  1  0.624630  0.769780  0.587710  1.0
  C  C2041  1  0.269780  0.875370  0.912290  1.0
  C  C2042  1  0.124630  0.269780  0.912290  1.0
  C  C2043  1  0.730220  0.124630  0.912290  1.0
  C  C2044  1  0.875370  0.730220  0.912290  1.0
  C  C2045  1  0.769780  0.375370  0.412290  1.0
  C  C2046  1  0.624630  0.769780  0.412290  1.0
  C  C2047  1  0.230220  0.624630  0.412290  1.0
  C  C2048  1  0.375370  0.230220  0.412290  1.0
  C  C2049  1  0.689060  0.115370  0.072920  1.0
  C  C2050  1  0.884630  0.689060  0.072920  1.0
  C  C2051  1  0.310940  0.884630  0.072920  1.0
  C  C2052  1  0.115370  0.310940  0.072920  1.0
  C  C2053  1  0.189060  0.615370  0.572920  1.0
  C  C2054  1  0.384630  0.189060  0.572920  1.0
  C  C2055  1  0.810940  0.384630  0.572920  1.0
  C  C2056  1  0.615370  0.810940  0.572920  1.0
  C  C2057  1  0.310940  0.884630  0.927080  1.0
  C  C2058  1  0.115370  0.310940  0.927080  1.0
  C  C2059  1  0.689060  0.115370  0.927080  1.0
  C  C2060  1  0.884630  0.689060  0.927080  1.0
  C  C2061  1  0.810940  0.384630  0.427080  1.0
  C  C2062  1  0.615370  0.810940  0.427080  1.0
  C  C2063  1  0.189060  0.615370  0.427080  1.0
  C  C2064  1  0.384630  0.189060  0.427080  1.0
  C  C2065  1  0.650600  0.136080  0.084040  1.0
  C  C2066  1  0.863920  0.650600  0.084040  1.0
  C  C2067  1  0.349400  0.863920  0.084040  1.0
  C  C2068  1  0.136080  0.349400  0.084040  1.0
  C  C2069  1  0.150600  0.636080  0.584040  1.0
  C  C2070  1  0.363920  0.150600  0.584040  1.0
  C  C2071  1  0.849400  0.363920  0.584040  1.0
  C  C2072  1  0.636080  0.849400  0.584040  1.0
  C  C2073  1  0.349400  0.863920  0.915960  1.0
  C  C2074  1  0.136080  0.349400  0.915960  1.0
  C  C2075  1  0.650600  0.136080  0.915960  1.0
  C  C2076  1  0.863920  0.650600  0.915960  1.0
  C  C2077  1  0.849400  0.363920  0.415960  1.0
  C  C2078  1  0.636080  0.849400  0.415960  1.0
  C  C2079  1  0.150600  0.636080  0.415960  1.0
  C  C2080  1  0.363920  0.150600  0.415960  1.0
  C  C2081  1  0.651820  0.167300  0.109960  1.0
  C  C2082  1  0.832700  0.651820  0.109960  1.0
  C  C2083  1  0.348180  0.832700  0.109960  1.0
  C  C2084  1  0.167300  0.348180  0.109960  1.0
  C  C2085  1  0.151820  0.667300  0.609960  1.0
  C  C2086  1  0.332700  0.151820  0.609960  1.0
  C  C2087  1  0.848180  0.332700  0.609960  1.0
  C  C2088  1  0.667300  0.848180  0.609960  1.0
  C  C2089  1  0.348180  0.832700  0.890040  1.0
  C  C2090  1  0.167300  0.348180  0.890040  1.0
  C  C2091  1  0.651820  0.167300  0.890040  1.0
  C  C2092  1  0.832700  0.651820  0.890040  1.0
  C  C2093  1  0.848180  0.332700  0.390040  1.0
  C  C2094  1  0.667300  0.848180  0.390040  1.0
  C  C2095  1  0.151820  0.667300  0.390040  1.0
  C  C2096  1  0.332700  0.151820  0.390040  1.0
  C  C2097  1  0.692730  0.174440  0.123800  1.0
  C  C2098  1  0.825560  0.692730  0.123800  1.0
  C  C2099  1  0.307270  0.825560  0.123800  1.0
  C  C2100  1  0.174440  0.307270  0.123800  1.0
  C  C2101  1  0.192730  0.674440  0.623800  1.0
  C  C2102  1  0.325560  0.192730  0.623800  1.0
  C  C2103  1  0.807270  0.325560  0.623800  1.0
  C  C2104  1  0.674440  0.807270  0.623800  1.0
  C  C2105  1  0.307270  0.825560  0.876200  1.0
  C  C2106  1  0.174440  0.307270  0.876200  1.0
  C  C2107  1  0.692730  0.174440  0.876200  1.0
  C  C2108  1  0.825560  0.692730  0.876200  1.0
  C  C2109  1  0.807270  0.325560  0.376200  1.0
  C  C2110  1  0.674440  0.807270  0.376200  1.0
  C  C2111  1  0.192730  0.674440  0.376200  1.0
  C  C2112  1  0.325560  0.192730  0.376200  1.0
  C  C2113  1  0.607080  0.186240  0.124730  1.0
  C  C2114  1  0.813760  0.607080  0.124730  1.0
  C  C2115  1  0.392920  0.813760  0.124730  1.0
  C  C2116  1  0.186240  0.392920  0.124730  1.0
  C  C2117  1  0.107080  0.686240  0.624730  1.0
  C  C2118  1  0.313760  0.107080  0.624730  1.0
  C  C2119  1  0.892920  0.313760  0.624730  1.0
  C  C2120  1  0.686240  0.892920  0.624730  1.0
  C  C2121  1  0.392920  0.813760  0.875270  1.0
  C  C2122  1  0.186240  0.392920  0.875270  1.0
  C  C2123  1  0.607080  0.186240  0.875270  1.0
  C  C2124  1  0.813760  0.607080  0.875270  1.0
  C  C2125  1  0.892920  0.313760  0.375270  1.0
  C  C2126  1  0.686240  0.892920  0.375270  1.0
  C  C2127  1  0.107080  0.686240  0.375270  1.0
  C  C2128  1  0.313760  0.107080  0.375270  1.0
  C  C2129  1  0.612480  0.237430  0.127270  1.0
  C  C2130  1  0.762570  0.612480  0.127270  1.0
  C  C2131  1  0.387520  0.762570  0.127270  1.0
  C  C2132  1  0.237430  0.387520  0.127270  1.0
  C  C2133  1  0.112480  0.737430  0.627270  1.0
  C  C2134  1  0.262570  0.112480  0.627270  1.0
  C  C2135  1  0.887520  0.262570  0.627270  1.0
  C  C2136  1  0.737430  0.887520  0.627270  1.0
  C  C2137  1  0.387520  0.762570  0.872730  1.0
  C  C2138  1  0.237430  0.387520  0.872730  1.0
  C  C2139  1  0.612480  0.237430  0.872730  1.0
  C  C2140  1  0.762570  0.612480  0.872730  1.0
  C  C2141  1  0.887520  0.262570  0.372730  1.0
  C  C2142  1  0.737430  0.887520  0.372730  1.0
  C  C2143  1  0.112480  0.737430  0.372730  1.0
  C  C2144  1  0.262570  0.112480  0.372730  1.0
  C  C2145  1  0.596010  0.166330  0.157560  1.0
  C  C2146  1  0.833670  0.596010  0.157560  1.0
  C  C2147  1  0.403990  0.833670  0.157560  1.0
  C  C2148  1  0.166330  0.403990  0.157560  1.0
  C  C2149  1  0.096010  0.666330  0.657560  1.0
  C  C2150  1  0.333670  0.096010  0.657560  1.0
  C  C2151  1  0.903990  0.333670  0.657560  1.0
  C  C2152  1  0.666330  0.903990  0.657560  1.0
  C  C2153  1  0.403990  0.833670  0.842440  1.0
  C  C2154  1  0.166330  0.403990  0.842440  1.0
  C  C2155  1  0.596010  0.166330  0.842440  1.0
  C  C2156  1  0.833670  0.596010  0.842440  1.0
  C  C2157  1  0.903990  0.333670  0.342440  1.0
  C  C2158  1  0.666330  0.903990  0.342440  1.0
  C  C2159  1  0.096010  0.666330  0.342440  1.0
  C  C2160  1  0.333670  0.096010  0.342440  1.0
  C  C2161  1  0.566290  0.174700  0.100090  1.0
  C  C2162  1  0.825300  0.566290  0.100090  1.0
  C  C2163  1  0.433710  0.825300  0.100090  1.0
  C  C2164  1  0.174700  0.433710  0.100090  1.0
  C  C2165  1  0.066290  0.674700  0.600090  1.0
  C  C2166  1  0.325300  0.066290  0.600090  1.0
  C  C2167  1  0.933710  0.325300  0.600090  1.0
  C  C2168  1  0.674700  0.933710  0.600090  1.0
  C  C2169  1  0.433710  0.825300  0.899910  1.0
  C  C2170  1  0.174700  0.433710  0.899910  1.0
  C  C2171  1  0.566290  0.174700  0.899910  1.0
  C  C2172  1  0.825300  0.566290  0.899910  1.0
  C  C2173  1  0.933710  0.325300  0.399910  1.0
  C  C2174  1  0.674700  0.933710  0.399910  1.0
  C  C2175  1  0.066290  0.674700  0.399910  1.0
  C  C2176  1  0.325300  0.066290  0.399910  1.0
  C  C2177  1  0.686800  0.083800  0.046140  1.0
  C  C2178  1  0.916200  0.686800  0.046140  1.0
  C  C2179  1  0.313200  0.916200  0.046140  1.0
  C  C2180  1  0.083800  0.313200  0.046140  1.0
  C  C2181  1  0.186800  0.583800  0.546140  1.0
  C  C2182  1  0.416200  0.186800  0.546140  1.0
  C  C2183  1  0.813200  0.416200  0.546140  1.0
  C  C2184  1  0.583800  0.813200  0.546140  1.0
  C  C2185  1  0.313200  0.916200  0.953860  1.0
  C  C2186  1  0.083800  0.313200  0.953860  1.0
  C  C2187  1  0.686800  0.083800  0.953860  1.0
  C  C2188  1  0.916200  0.686800  0.953860  1.0
  C  C2189  1  0.813200  0.416200  0.453860  1.0
  C  C2190  1  0.583800  0.813200  0.453860  1.0
  C  C2191  1  0.186800  0.583800  0.453860  1.0
  C  C2192  1  0.416200  0.186800  0.453860  1.0
  C  C2193  1  0.545600  0.051000  0.952340  1.0
  C  C2194  1  0.949000  0.545600  0.952340  1.0
  C  C2195  1  0.454400  0.949000  0.952340  1.0
  C  C2196  1  0.051000  0.454400  0.952340  1.0
  C  C2197  1  0.045600  0.551000  0.452340  1.0
  C  C2198  1  0.449000  0.045600  0.452340  1.0
  C  C2199  1  0.954400  0.449000  0.452340  1.0
  C  C2200  1  0.551000  0.954400  0.452340  1.0
  C  C2201  1  0.454400  0.949000  0.047660  1.0
  C  C2202  1  0.051000  0.454400  0.047660  1.0
  C  C2203  1  0.545600  0.051000  0.047660  1.0
  C  C2204  1  0.949000  0.545600  0.047660  1.0
  C  C2205  1  0.954400  0.449000  0.547660  1.0
  C  C2206  1  0.551000  0.954400  0.547660  1.0
  C  C2207  1  0.045600  0.551000  0.547660  1.0
  C  C2208  1  0.449000  0.045600  0.547660  1.0
  C  C2209  1  0.537230  0.047320  0.987540  1.0
  C  C2210  1  0.952680  0.537230  0.987540  1.0
  C  C2211  1  0.462770  0.952680  0.987540  1.0
  C  C2212  1  0.047320  0.462770  0.987540  1.0
  C  C2213  1  0.037230  0.547320  0.487540  1.0
  C  C2214  1  0.452680  0.037230  0.487540  1.0
  C  C2215  1  0.962770  0.452680  0.487540  1.0
  C  C2216  1  0.547320  0.962770  0.487540  1.0
  C  C2217  1  0.462770  0.952680  0.012460  1.0
  C  C2218  1  0.047320  0.462770  0.012460  1.0
  C  C2219  1  0.537230  0.047320  0.012460  1.0
  C  C2220  1  0.952680  0.537230  0.012460  1.0
  C  C2221  1  0.962770  0.452680  0.512460  1.0
  C  C2222  1  0.547320  0.962770  0.512460  1.0
  C  C2223  1  0.037230  0.547320  0.512460  1.0
  C  C2224  1  0.452680  0.037230  0.512460  1.0
  C  C2225  1  0.473790  0.070110  0.029160  1.0
  C  C2226  1  0.929890  0.473790  0.029160  1.0
  C  C2227  1  0.526210  0.929890  0.029160  1.0
  C  C2228  1  0.070110  0.526210  0.029160  1.0
  C  C2229  1  0.973790  0.570110  0.529160  1.0
  C  C2230  1  0.429890  0.973790  0.529160  1.0
  C  C2231  1  0.026210  0.429890  0.529160  1.0
  C  C2232  1  0.570110  0.026210  0.529160  1.0
  C  C2233  1  0.526210  0.929890  0.970840  1.0
  C  C2234  1  0.070110  0.526210  0.970840  1.0
  C  C2235  1  0.473790  0.070110  0.970840  1.0
  C  C2236  1  0.929890  0.473790  0.970840  1.0
  C  C2237  1  0.026210  0.429890  0.470840  1.0
  C  C2238  1  0.570110  0.026210  0.470840  1.0
  C  C2239  1  0.973790  0.570110  0.470840  1.0
  C  C2240  1  0.429890  0.973790  0.470840  1.0
  C  C2241  1  0.960370  0.323570  0.044820  1.0
  C  C2242  1  0.676430  0.960370  0.044820  1.0
  C  C2243  1  0.039630  0.676430  0.044820  1.0
  C  C2244  1  0.323570  0.039630  0.044820  1.0
  C  C2245  1  0.460370  0.823570  0.544820  1.0
  C  C2246  1  0.176430  0.460370  0.544820  1.0
  C  C2247  1  0.539630  0.176430  0.544820  1.0
  C  C2248  1  0.823570  0.539630  0.544820  1.0
  C  C2249  1  0.039630  0.676430  0.955180  1.0
  C  C2250  1  0.323570  0.039630  0.955180  1.0
  C  C2251  1  0.960370  0.323570  0.955180  1.0
  C  C2252  1  0.676430  0.960370  0.955180  1.0
  C  C2253  1  0.539630  0.176430  0.455180  1.0
  C  C2254  1  0.823570  0.539630  0.455180  1.0
  C  C2255  1  0.460370  0.823570  0.455180  1.0
  C  C2256  1  0.176430  0.460370  0.455180  1.0
  N  N2257  1  0.794320  0.293000  0.252250  1
  N  N2258  1  0.707000  0.794320  0.252250  1
  N  N2259  1  0.205680  0.707000  0.252250  1
  N  N2260  1  0.293000  0.205680  0.252250  1
  N  N2261  1  0.294320  0.793000  0.752250  1
  N  N2262  1  0.207000  0.294320  0.752250  1
  N  N2263  1  0.705680  0.207000  0.752250  1
  N  N2264  1  0.793000  0.705680  0.752250  1
  N  N2265  1  0.205680  0.707000  0.747750  1
  N  N2266  1  0.293000  0.205680  0.747750  1
  N  N2267  1  0.794320  0.293000  0.747750  1
  N  N2268  1  0.707000  0.794320  0.747750  1
  N  N2269  1  0.705680  0.207000  0.247750  1
  N  N2270  1  0.793000  0.705680  0.247750  1
  N  N2271  1  0.294320  0.793000  0.247750  1
  N  N2272  1  0.207000  0.294320  0.247750  1
  N  N2273  1  0.496910  0.058800  0.000000  1.0
  N  N2274  1  0.941200  0.496910  0.000000  1.0
  N  N2275  1  0.503090  0.941200  0.000000  1.0
  N  N2276  1  0.058800  0.503090  0.000000  1.0
  N  N2277  1  0.996910  0.558800  0.500000  1.0
  N  N2278  1  0.441200  0.996910  0.500000  1.0
  N  N2279  1  0.003090  0.441200  0.500000  1.0
  N  N2280  1  0.558800  0.003090  0.500000  1.0
  Cl  Cl2281  1  0.805690  0.013880  0.000000  1.0
  Cl  Cl2282  1  0.986120  0.805690  0.000000  1.0
  Cl  Cl2283  1  0.194310  0.986120  0.000000  1.0
  Cl  Cl2284  1  0.013880  0.194310  0.000000  1.0
  Cl  Cl2285  1  0.305690  0.513880  0.500000  1.0
  Cl  Cl2286  1  0.486120  0.305690  0.500000  1.0
  Cl  Cl2287  1  0.694310  0.486120  0.500000  1.0
  Cl  Cl2288  1  0.513880  0.694310  0.500000  1.0
  Cl  Cl2289  1  0.911390  0.103400  0.102040  1.0
  Cl  Cl2290  1  0.896600  0.911390  0.102040  1.0
  Cl  Cl2291  1  0.088610  0.896600  0.102040  1.0
  Cl  Cl2292  1  0.103400  0.088610  0.102040  1.0
  Cl  Cl2293  1  0.411390  0.603400  0.602040  1.0
  Cl  Cl2294  1  0.396600  0.411390  0.602040  1.0
  Cl  Cl2295  1  0.588610  0.396600  0.602040  1.0
  Cl  Cl2296  1  0.603400  0.588610  0.602040  1.0
  Cl  Cl2297  1  0.088610  0.896600  0.897960  1.0
  Cl  Cl2298  1  0.103400  0.088610  0.897960  1.0
  Cl  Cl2299  1  0.911390  0.103400  0.897960  1.0
  Cl  Cl2300  1  0.896600  0.911390  0.897960  1.0
  Cl  Cl2301  1  0.588610  0.396600  0.397960  1.0
  Cl  Cl2302  1  0.603400  0.588610  0.397960  1.0
  Cl  Cl2303  1  0.411390  0.603400  0.397960  1.0
  Cl  Cl2304  1  0.396600  0.411390  0.397960  1.0
  O  O2305  1  0.567390  0.034860  0.000000  1.0
  O  O2306  1  0.965140  0.567390  0.000000  1.0
  O  O2307  1  0.432610  0.965140  0.000000  1.0
  O  O2308  1  0.034860  0.432610  0.000000  1.0
  O  O2309  1  0.067390  0.534860  0.500000  1.0
  O  O2310  1  0.465140  0.067390  0.500000  1.0
  O  O2311  1  0.932610  0.465140  0.500000  1.0
  O  O2312  1  0.534860  0.932610  0.500000  1.0
  O  O2313  1  0.895450  0.198920  0.204250  1.0
  O  O2314  1  0.801080  0.895450  0.204250  1.0
  O  O2315  1  0.104550  0.801080  0.204250  1.0
  O  O2316  1  0.198920  0.104550  0.204250  1.0
  O  O2317  1  0.395450  0.698920  0.704250  1.0
  O  O2318  1  0.301080  0.395450  0.704250  1.0
  O  O2319  1  0.604550  0.301080  0.704250  1.0
  O  O2320  1  0.698920  0.604550  0.704250  1.0
  O  O2321  1  0.104550  0.801080  0.795750  1.0
  O  O2322  1  0.198920  0.104550  0.795750  1.0
  O  O2323  1  0.895450  0.198920  0.795750  1.0
  O  O2324  1  0.801080  0.895450  0.795750  1.0
  O  O2325  1  0.604550  0.301080  0.295750  1.0
  O  O2326  1  0.698920  0.604550  0.295750  1.0
  O  O2327  1  0.395450  0.698920  0.295750  1.0
  O  O2328  1  0.301080  0.395450  0.295750  1.0
  O  O2329  1  0.930320  0.158250  0.166610  1.0
  O  O2330  1  0.841750  0.930320  0.166610  1.0
  O  O2331  1  0.069680  0.841750  0.166610  1.0
  O  O2332  1  0.158250  0.069680  0.166610  1.0
  O  O2333  1  0.430320  0.658250  0.666610  1.0
  O  O2334  1  0.341750  0.430320  0.666610  1.0
  O  O2335  1  0.569680  0.341750  0.666610  1.0
  O  O2336  1  0.658250  0.569680  0.666610  1.0
  O  O2337  1  0.069680  0.841750  0.833390  1.0
  O  O2338  1  0.158250  0.069680  0.833390  1.0
  O  O2339  1  0.930320  0.158250  0.833390  1.0
  O  O2340  1  0.841750  0.930320  0.833390  1.0
  O  O2341  1  0.569680  0.341750  0.333390  1.0
  O  O2342  1  0.658250  0.569680  0.333390  1.0
  O  O2343  1  0.430320  0.658250  0.333390  1.0
  O  O2344  1  0.341750  0.430320  0.333390  1.0
  O  O2345  1  0.093470  0.144260  0.166820  1.0
  O  O2346  1  0.855740  0.093470  0.166820  1.0
  O  O2347  1  0.906530  0.855740  0.166820  1.0
  O  O2348  1  0.144260  0.906530  0.166820  1.0
  O  O2349  1  0.593470  0.644260  0.666820  1.0
  O  O2350  1  0.355740  0.593470  0.666820  1.0
  O  O2351  1  0.406530  0.355740  0.666820  1.0
  O  O2352  1  0.644260  0.406530  0.666820  1.0
  O  O2353  1  0.906530  0.855740  0.833180  1.0
  O  O2354  1  0.144260  0.906530  0.833180  1.0
  O  O2355  1  0.093470  0.144260  0.833180  1.0
  O  O2356  1  0.855740  0.093470  0.833180  1.0
  O  O2357  1  0.406530  0.355740  0.333180  1.0
  O  O2358  1  0.644260  0.406530  0.333180  1.0
  O  O2359  1  0.593470  0.644260  0.333180  1.0
  O  O2360  1  0.355740  0.593470  0.333180  1.0
  O  O2361  1  0.134090  0.179090  0.205070  1.0
  O  O2362  1  0.820910  0.134090  0.205070  1.0
  O  O2363  1  0.865910  0.820910  0.205070  1.0
  O  O2364  1  0.179090  0.865910  0.205070  1.0
  O  O2365  1  0.634090  0.679090  0.705070  1.0
  O  O2366  1  0.320910  0.634090  0.705070  1.0
  O  O2367  1  0.365910  0.320910  0.705070  1.0
  O  O2368  1  0.679090  0.365910  0.705070  1.0
  O  O2369  1  0.865910  0.820910  0.794930  1.0
  O  O2370  1  0.179090  0.865910  0.794930  1.0
  O  O2371  1  0.134090  0.179090  0.794930  1.0
  O  O2372  1  0.820910  0.134090  0.794930  1.0
  O  O2373  1  0.365910  0.320910  0.294930  1.0
  O  O2374  1  0.679090  0.365910  0.294930  1.0
  O  O2375  1  0.634090  0.679090  0.294930  1.0
  O  O2376  1  0.320910  0.634090  0.294930  1.0
  O  O2377  1  0.810240  0.143680  0.117970  1.0
  O  O2378  1  0.856320  0.810240  0.117970  1.0
  O  O2379  1  0.189760  0.856320  0.117970  1.0
  O  O2380  1  0.143680  0.189760  0.117970  1.0
  O  O2381  1  0.310240  0.643680  0.617970  1.0
  O  O2382  1  0.356320  0.310240  0.617970  1.0
  O  O2383  1  0.689760  0.356320  0.617970  1.0
  O  O2384  1  0.643680  0.689760  0.617970  1.0
  O  O2385  1  0.189760  0.856320  0.882030  1.0
  O  O2386  1  0.143680  0.189760  0.882030  1.0
  O  O2387  1  0.810240  0.143680  0.882030  1.0
  O  O2388  1  0.856320  0.810240  0.882030  1.0
  O  O2389  1  0.689760  0.356320  0.382030  1.0
  O  O2390  1  0.643680  0.689760  0.382030  1.0
  O  O2391  1  0.310240  0.643680  0.382030  1.0
  O  O2392  1  0.356320  0.310240  0.382030  1.0
  O  O2393  1  0.775500  0.184740  0.155570  1.0
  O  O2394  1  0.815260  0.775500  0.155570  1.0
  O  O2395  1  0.224500  0.815260  0.155570  1.0
  O  O2396  1  0.184740  0.224500  0.155570  1.0
  O  O2397  1  0.275500  0.684740  0.655570  1.0
  O  O2398  1  0.315260  0.275500  0.655570  1.0
  O  O2399  1  0.724500  0.315260  0.655570  1.0
  O  O2400  1  0.684740  0.724500  0.655570  1.0
  O  O2401  1  0.224500  0.815260  0.844430  1.0
  O  O2402  1  0.184740  0.224500  0.844430  1.0
  O  O2403  1  0.775500  0.184740  0.844430  1.0
  O  O2404  1  0.815260  0.775500  0.844430  1.0
  O  O2405  1  0.724500  0.315260  0.344430  1.0
  O  O2406  1  0.684740  0.724500  0.344430  1.0
  O  O2407  1  0.275500  0.684740  0.344430  1.0
  O  O2408  1  0.315260  0.275500  0.344430  1.0
  O  O2409  1  0.884830  0.209280  0.117340  1.0
  O  O2410  1  0.790720  0.884830  0.117340  1.0
  O  O2411  1  0.115170  0.790720  0.117340  1.0
  O  O2412  1  0.209280  0.115170  0.117340  1.0
  O  O2413  1  0.384830  0.709280  0.617340  1.0
  O  O2414  1  0.290720  0.384830  0.617340  1.0
  O  O2415  1  0.615170  0.290720  0.617340  1.0
  O  O2416  1  0.709280  0.615170  0.617340  1.0
  O  O2417  1  0.115170  0.790720  0.882660  1.0
  O  O2418  1  0.209280  0.115170  0.882660  1.0
  O  O2419  1  0.884830  0.209280  0.882660  1.0
  O  O2420  1  0.790720  0.884830  0.882660  1.0
  O  O2421  1  0.615170  0.290720  0.382660  1.0
  O  O2422  1  0.709280  0.615170  0.382660  1.0
  O  O2423  1  0.384830  0.709280  0.382660  1.0
  O  O2424  1  0.290720  0.384830  0.382660  1.0
  O  O2425  1  0.848970  0.250120  0.154730  1.0
  O  O2426  1  0.749880  0.848970  0.154730  1.0
  O  O2427  1  0.151030  0.749880  0.154730  1.0
  O  O2428  1  0.250120  0.151030  0.154730  1.0
  O  O2429  1  0.348970  0.750120  0.654730  1.0
  O  O2430  1  0.249880  0.348970  0.654730  1.0
  O  O2431  1  0.651030  0.249880  0.654730  1.0
  O  O2432  1  0.750120  0.651030  0.654730  1.0
  O  O2433  1  0.151030  0.749880  0.845270  1.0
  O  O2434  1  0.250120  0.151030  0.845270  1.0
  O  O2435  1  0.848970  0.250120  0.845270  1.0
  O  O2436  1  0.749880  0.848970  0.845270  1.0
  O  O2437  1  0.651030  0.249880  0.345270  1.0
  O  O2438  1  0.750120  0.651030  0.345270  1.0
  O  O2439  1  0.348970  0.750120  0.345270  1.0
  O  O2440  1  0.249880  0.348970  0.345270  1.0
  O  O2441  1  0.723050  0.067740  0.035550  1.0
  O  O2442  1  0.932260  0.723050  0.035550  1.0
  O  O2443  1  0.276950  0.932260  0.035550  1.0
  O  O2444  1  0.067740  0.276950  0.035550  1.0
  O  O2445  1  0.223050  0.567740  0.535550  1.0
  O  O2446  1  0.432260  0.223050  0.535550  1.0
  O  O2447  1  0.776950  0.432260  0.535550  1.0
  O  O2448  1  0.567740  0.776950  0.535550  1.0
  O  O2449  1  0.276950  0.932260  0.964450  1.0
  O  O2450  1  0.067740  0.276950  0.964450  1.0
  O  O2451  1  0.723050  0.067740  0.964450  1.0
  O  O2452  1  0.932260  0.723050  0.964450  1.0
  O  O2453  1  0.776950  0.432260  0.464450  1.0
  O  O2454  1  0.567740  0.776950  0.464450  1.0
  O  O2455  1  0.223050  0.567740  0.464450  1.0
  O  O2456  1  0.432260  0.223050  0.464450  1.0
  O  O2457  1  0.976290  0.359750  0.034500  1.0
  O  O2458  1  0.640250  0.976290  0.034500  1.0
  O  O2459  1  0.023710  0.640250  0.034500  1.0
  O  O2460  1  0.359750  0.023710  0.034500  1.0
  O  O2461  1  0.476290  0.859750  0.534500  1.0
  O  O2462  1  0.140250  0.476290  0.534500  1.0
  O  O2463  1  0.523710  0.140250  0.534500  1.0
  O  O2464  1  0.859750  0.523710  0.534500  1.0
  O  O2465  1  0.023710  0.640250  0.965500  1.0
  O  O2466  1  0.359750  0.023710  0.965500  1.0
  O  O2467  1  0.976290  0.359750  0.965500  1.0
  O  O2468  1  0.640250  0.976290  0.965500  1.0
  O  O2469  1  0.523710  0.140250  0.465500  1.0
  O  O2470  1  0.859750  0.523710  0.465500  1.0
  O  O2471  1  0.476290  0.859750  0.465500  1.0
  O  O2472  1  0.140250  0.476290  0.465500  1.0
  O  O2473  1  0.971440  0.284130  0.035010  1.0
  O  O2474  1  0.715870  0.971440  0.035010  1.0
  O  O2475  1  0.028560  0.715870  0.035010  1.0
  O  O2476  1  0.284130  0.028560  0.035010  1.0
  O  O2477  1  0.471440  0.784130  0.535010  1.0
  O  O2478  1  0.215870  0.471440  0.535010  1.0
  O  O2479  1  0.528560  0.215870  0.535010  1.0
  O  O2480  1  0.784130  0.528560  0.535010  1.0
  O  O2481  1  0.028560  0.715870  0.964990  1.0
  O  O2482  1  0.284130  0.028560  0.964990  1.0
  O  O2483  1  0.971440  0.284130  0.964990  1.0
  O  O2484  1  0.715870  0.971440  0.964990  1.0
  O  O2485  1  0.528560  0.215870  0.464990  1.0
  O  O2486  1  0.784130  0.528560  0.464990  1.0
  O  O2487  1  0.471440  0.784130  0.464990  1.0
  O  O2488  1  0.215870  0.471440  0.464990  1.0
  O  O2489  1  0.648020  0.074290  0.034900  1.0
  O  O2490  1  0.925710  0.648020  0.034900  1.0
  O  O2491  1  0.351980  0.925710  0.034900  1.0
  O  O2492  1  0.074290  0.351980  0.034900  1.0
  O  O2493  1  0.148020  0.574290  0.534900  1.0
  O  O2494  1  0.425710  0.148020  0.534900  1.0
  O  O2495  1  0.851980  0.425710  0.534900  1.0
  O  O2496  1  0.574290  0.851980  0.534900  1.0
  O  O2497  1  0.351980  0.925710  0.965100  1.0
  O  O2498  1  0.074290  0.351980  0.965100  1.0
  O  O2499  1  0.648020  0.074290  0.965100  1.0
  O  O2500  1  0.925710  0.648020  0.965100  1.0
  O  O2501  1  0.851980  0.425710  0.465100  1.0
  O  O2502  1  0.574290  0.851980  0.465100  1.0
  O  O2503  1  0.148020  0.574290  0.465100  1.0
  O  O2504  1  0.425710  0.148020  0.465100  1.0
  O  O2505  1  0.802640  0.235670  0.218060  1.0
  O  O2506  1  0.764330  0.802640  0.218060  1.0
  O  O2507  1  0.197360  0.764330  0.218060  1.0
  O  O2508  1  0.235670  0.197360  0.218060  1.0
  O  O2509  1  0.302640  0.735670  0.718060  1.0
  O  O2510  1  0.264330  0.302640  0.718060  1.0
  O  O2511  1  0.697360  0.264330  0.718060  1.0
  O  O2512  1  0.735670  0.697360  0.718060  1.0
  O  O2513  1  0.197360  0.764330  0.781940  1.0
  O  O2514  1  0.235670  0.197360  0.781940  1.0
  O  O2515  1  0.802640  0.235670  0.781940  1.0
  O  O2516  1  0.764330  0.802640  0.781940  1.0
  O  O2517  1  0.697360  0.264330  0.281940  1.0
  O  O2518  1  0.735670  0.697360  0.281940  1.0
  O  O2519  1  0.302640  0.735670  0.281940  1.0
  O  O2520  1  0.264330  0.302640  0.281940  1.0
