
#######################################################################
#
#                 Cambridge Crystallographic Data Centre
#                                CCDC 
#
#######################################################################
#
# If this CIF has been generated from an entry in the Cambridge 
# Structural Database, then it will include bibliographic, chemical, 
# crystal, experimental, refinement or atomic coordinate data resulting 
# from the CCDC's data processing and validation procedures.
#
#######################################################################

data_POSDAE
_chemical_formula_moiety         'C186 H138 N18 O60 Ru12 6+,6(Cl1 1-)'
_chemical_name_systematic        
'dodecakis(\m-9H-carbazole-3,6-dicarboxylato)-hexakis(N,N-dimethylformamide)-hexa-aqua-dodeca-ruthenium hexachloride unknown solvate'
_symmetry_cell_setting           triclinic
_symmetry_space_group_name_H-M   'P -1'
_symmetry_Int_Tables_number      2
_space_group_name_Hall           '-P 1'
loop_
_symmetry_equiv_pos_site_id
_symmetry_equiv_pos_as_xyz
1 x,y,z
2 -x,-y,-z
_cell_length_a                   21.7472(12)
_cell_length_b                   22.4239(12)
_cell_length_c                   23.3765(14)
_cell_angle_alpha                61.526(3)
_cell_angle_beta                 88.200(3)
_cell_angle_gamma                64.395(3)
_cell_volume                     8814.65
_exptl_crystal_colour            red
_exptl_crystal_description       Block
_cell_formula_units_Z            1
_exptl_crystal_preparation       'Magnetic properties'
loop_
_atom_site_label
_atom_site_type_symbol
_atom_site_fract_x
_atom_site_fract_y
_atom_site_fract_z
Ru1 Ru 0.396848(4) 0.590993(4) 0.279107(4)
Ru2 Ru 0.422419(4) 0.686473(4) 0.210968(4)
Ru3 Ru 0.817811(4) 0.682618(4) -0.150877(4)
Ru4 Ru 0.741449(4) 0.754850(4) -0.112567(4)
Ru5 Ru 0.871529(4) 0.806169(4) 0.352260(4)
Ru6 Ru 0.783967(4) 0.853595(4) 0.267697(4)
C1 C 0.30934(6) 0.68918(5) 0.14687(5)
C2 C 0.25115(6) 0.71818(6) 0.09117(5)
C3 C 0.21115(6) 0.67992(5) 0.10199(5)
H1 H 0.2218 0.6359 0.1432
C4 C 0.15737(6) 0.70548(6) 0.05384(6)
H2 H 0.1312 0.6798 0.0613
C5 C 0.14275(6) 0.77324(6) -0.00847(6)
C6 C 0.18253(6) 0.81168(5) -0.01966(5)
C7 C 0.23744(6) 0.78416(5) 0.02966(5)
H3 H 0.2646 0.8087 0.0222
C8 C 0.15179(6) 0.87628(6) -0.08633(5)
C9 C 0.09642(7) 0.87548(7) -0.11201(6)
C10 C 0.49970(5) 0.54823(5) 0.20524(5)
C11 C 0.54757(6) 0.49880(5) 0.18233(5)
C12 C 0.55898(6) 0.42338(5) 0.20581(5)
H4 H 0.5348 0.4047 0.2373
C13 C 0.60319(7) 0.37630(6) 0.18520(6)
H5 H 0.6092 0.3268 0.2022
C14 C 0.63908(7) 0.40435(6) 0.13792(6)
C15 C 0.62525(6) 0.48242(5) 0.10908(5)
C16 C 0.58362(6) 0.52614(5) 0.13290(5)
H6 H 0.5784 0.5752 0.1166
C17 C 0.66911(6) 0.49232(5) 0.06130(6)
C18 C 0.70338(7) 0.42290(6) 0.06025(6)
C19 C 0.74773(8) 0.41470(7) 0.01736(7)
H7 H 0.7693 0.3693 0.0163
C20 C 0.75817(8) 0.47648(6) -0.02338(6)
H8 H 0.7868 0.4725 -0.0532
C21 C 0.72802(6) 0.54545(6) -0.02257(5)
C22 C 0.68179(6) 0.55405(5) 0.02031(5)
H9 H 0.6604 0.5995 0.0212
C23 C 0.74339(5) 0.60882(5) -0.06351(5)
C24 C 0.31800(5) 0.72985(5) 0.28408(5)
C25 C 0.26540(5) 0.78277(5) 0.30241(5)
C26 C 0.22749(6) 0.75476(5) 0.34930(5)
H10 H 0.2375 0.7036 0.3685
C27 C 0.17606(6) 0.80156(5) 0.36721(6)
H11 H 0.1516 0.7829 0.3984
C28 C 0.16209(6) 0.87908(6) 0.33614(6)
C29 C 0.20158(6) 0.90594(5) 0.29259(5)
C30 C 0.25313(5) 0.85663(5) 0.27603(5)
H12 H 0.2794 0.8744 0.2467
C31 C 0.17521(6) 0.98539(5) 0.27404(5)
C32 C 0.12061(6) 1.00121(6) 0.30749(6)
C33 C 0.19500(5) 1.04186(5) 0.23720(5)
H13 H 0.2319 1.0319 0.2160
C34 C 0.51113(5) 0.58721(5) 0.34415(5)
C35 C 0.56549(5) 0.55977(5) 0.39960(5)
C36 C 0.57806(6) 0.49659(5) 0.46337(5)
H14 H 0.5506 0.4725 0.4701
C37 C 0.62865(6) 0.46886(5) 0.51594(5)
H15 H 0.6348 0.4277 0.5577
C38 C 0.66947(6) 0.50331(5) 0.50509(5)
C39 C 0.65971(5) 0.56844(5) 0.44123(5)
C40 C 0.60842(5) 0.59572(5) 0.38878(5)
H16 H 0.6020 0.6370 0.3470
C41 C 0.71194(5) 0.58994(5) 0.44844(5)
C42 C 0.75075(6) 0.53727(6) 0.51576(5)
C43 C 0.80558(6) 0.54268(5) 0.54008(5)
H17 H 0.8316 0.5082 0.5837
C44 C 0.81865(6) 0.60184(5) 0.49561(5)
H18 H 0.8545 0.6067 0.5104
C45 C 0.78146(5) 0.65370(5) 0.43084(5)
C46 C 0.72795(5) 0.64919(5) 0.40597(5)
H19 H 0.7029 0.6845 0.3621
C47 C 0.79937(5) 0.71491(5) 0.38735(5)
C48 C 0.88131(5) 0.65486(5) -0.02757(5)
C49 C 0.93745(6) 0.62661(5) 0.02593(5)
C50 C 1.00619(6) 0.57002(6) 0.03310(5)
H20 H 1.0134 0.5510 0.0044
C51 C 1.06243(6) 0.54260(5) 0.08134(5)
H21 H 1.1066 0.5047 0.0865
C52 C 1.04941(6) 0.57465(5) 0.12165(5)
C53 C 0.98166(6) 0.62864(6) 0.11735(5)
C54 C 0.92697(6) 0.65440(6) 0.06829(5)
H22 H 0.8825 0.6911 0.0641
C55 C 0.98836(6) 0.64536(5) 0.16889(5)
C56 C 1.06027(6) 0.59892(5) 0.20217(5)
C57 C 1.08468(6) 0.59988(6) 0.25554(5)
H23 H 1.1317 0.5698 0.2770
C58 C 1.03699(6) 0.64697(5) 0.27600(5)
H24 H 1.0526 0.6476 0.3122
C59 C 0.96619(5) 0.69355(5) 0.24407(5)
C60 C 0.94222(6) 0.69196(5) 0.18978(5)
H25 H 0.8953 0.7224 0.1681
C61 C 0.91802(5) 0.74214(5) 0.26732(5)
C62 C 0.32099(5) 1.21612(5) 0.23535(5)
C63 C 0.37497(5) 1.17871(5) 0.29633(5)
C64 C 0.35790(6) 1.19135(6) 0.34924(5)
H26 H 0.3121 1.2254 0.3454
C65 C 0.40719(6) 1.15463(6) 0.40714(6)
H27 H 0.3959 1.1635 0.4420
C66 C 0.44499(6) 1.12766(5) 0.30047(5)
H28 H 0.4573 1.1193 0.2655
C67 C 0.18189(6) 1.17248(5) 0.19594(5)
C68 C 0.15927(6) 1.11355(6) 0.23222(6)
C69 C 0.10363(6) 1.12873(6) 0.26493(6)
C70 C 0.08164(6) 1.07385(6) 0.30149(6)
C71 C 0.73681(5) 0.91219(5) 0.35669(5)
C72 C 0.68619(5) 0.95176(5) 0.38492(5)
C73 C 0.70795(5) 0.93630(5) 0.44874(5)
H29 H 0.7548 0.9039 0.4707
C74 C 0.65903(6) 0.96971(5) 0.47971(5)
H30 H 0.6727 0.9588 0.5224
C75 C 0.58999(5) 1.01934(5) 0.44471(5)
C76 C 0.56934(5) 1.03566(5) 0.37999(5)
C77 C 0.61692(5) 1.00213(5) 0.35109(5)
H31 H 0.6028 1.0131 0.3085
C78 C 0.49396(5) 1.09106(5) 0.35845(5)
C79 C 0.47592(6) 1.10268(5) 0.41024(5)
C80 C 0.14249(5) 1.05678(6) -0.23281(5)
C81 C 0.12589(6) 0.99411(6) -0.19046(5)
C82 C 0.07048(6) 0.99010(7) -0.21330(6)
H32 H 0.0440 1.0275 -0.2565
C83 C 0.05312(7) 0.93312(7) -0.17476(7)
H33 H 0.0141 0.9330 -0.1899
C84 C 0.16671(6) 0.93792(6) -0.12687(5)
H34 H 0.2036 0.9403 -0.1107
C85 C 0.40719(6) 0.43525(6) 0.39283(6)
H35 H 0.4453 0.4326 0.4129
C86 C 0.44089(10) 0.30763(8) 0.48366(8)
H36 H 0.4642 0.2635 0.4786
H37 H 0.4128 0.2983 0.5161
H38 H 0.4750 0.3167 0.4983
C87 C 0.34061(7) 0.37394(6) 0.39191(7)
H39 H 0.3068 0.3735 0.4194
H40 H 0.3575 0.3295 0.3874
H41 H 0.3191 0.4198 0.3486
C88 C 0.92300(8) 0.65368(8) -0.24037(6)
H42 H 0.9019 0.7066 -0.2579
C89 C 1.00405(10) 0.67156(10) -0.31213(8)
H43 H 0.9782 0.7240 -0.3227
H44 H 0.9999 0.6695 -0.3519
H45 H 1.0524 0.6516 -0.2943
C90 C 1.01233(9) 0.54553(8) -0.23942(10)
H46 H 1.0151 0.5178 -0.1923
H47 H 1.0586 0.5308 -0.2477
H48 H 0.9871 0.5336 -0.2618
C91 C 1.02281(6) 0.71790(5) 0.43689(5)
H49 H 1.0289 0.7096 0.4013
C92 C 1.07557(8) 0.69605(9) 0.53926(6)
H50 H 1.0278 0.7292 0.5361
H51 H 1.1037 0.7196 0.5385
H52 H 1.0923 0.6475 0.5802
C93 C 1.14782(7) 0.62849(7) 0.48378(6)
H53 H 1.1576 0.5772 0.5173
H54 H 1.1834 0.6389 0.4933
H55 H 1.1471 0.6329 0.4409
N1 N 0.53264(5) 1.06138(5) 0.46263(4)
H56 H 0.5326 1.0615 0.4994
N2 N 1.09513(5) 0.55746(4) 0.17335(4)
H57 H 1.1391 0.5254 0.1856
N3 N 0.67975(6) 0.37415(5) 0.10377(5)
H58 H 0.6895 0.3303 0.1087
N4 N 0.11301(5) 0.93721(5) 0.34374(5)
H59 H 0.0824 0.9337 0.3676
N5 N 0.09341(5) 0.80994(5) -0.06500(5)
H60 H 0.0651 0.7947 -0.0705
N6 N 0.72482(5) 0.48662(4) 0.54884(4)
H61 H 0.7402 0.4503 0.5900
N7 N 0.97685(6) 0.62624(6) -0.26388(5)
N8 N 0.39796(5) 0.37247(5) 0.42226(5)
N9 N 1.08001(4) 0.68379(5) 0.48349(4)
O1 O 0.34474(3) 0.72533(3) 0.13385(3)
O2 O 0.31769(3) 0.63209(3) 0.20224(3)
O3 O 0.46713(3) 0.52131(3) 0.24640(3)
O4 O 0.49352(3) 0.61512(3) 0.18012(3)
O5 O 0.35073(3) 0.75681(3) 0.24216(3)
O6 O 0.32739(3) 0.66074(3) 0.31141(3)
O7 O 0.50143(3) 0.64514(3) 0.28930(3)
O8 O 0.47633(3) 0.55079(3) 0.35576(3)
O9 O 0.33701(3) 1.19674(3) 0.19341(3)
O10 O 0.25991(4) 1.26458(3) 0.23349(3)
O11 O 0.15222(3) 1.23259(3) 0.19978(3)
O12 O 0.23133(3) 1.15825(3) 0.16670(3)
O13 O 0.89449(4) 0.63168(3) -0.06819(3)
O14 O 0.82051(4) 0.70623(4) -0.03216(3)
O15 O 0.78841(3) 0.59766(3) -0.09908(3)
O16 O 0.71609(3) 0.66714(3) -0.05793(3)
O17 O 0.84941(3) 0.71645(3) 0.41191(3)
O18 O 0.76180(3) 0.76389(3) 0.32800(3)
O19 O 0.85397(3) 0.78525(3) 0.23411(3)
O20 O 0.94100(3) 0.73984(3) 0.31669(3)
O21 O 0.19247(3) 1.05851(3) -0.20838(3)
O22 O 0.10618(3) 1.10419(3) -0.29199(3)
O23 O 0.71388(3) 0.92046(3) 0.30306(3)
O24 O 0.80056(3) 0.87147(3) 0.38818(3)
O25 O 0.44816(5) 0.78544(4) 0.14108(4)
O26 O 0.66307(5) 0.82872(5) -0.07195(4)
O27 O 0.69281(5) 0.90336(5) 0.18118(4)
O28 O 0.36987(3) 0.49456(3) 0.34255(3)
O29 O 0.89639(4) 0.62003(4) -0.19885(3)
O30 O 0.96302(3) 0.75916(4) 0.43682(3)
Ru1A Ru 0.603152(4) 1.409007(4) -0.279107(4)
Ru2A Ru 0.577581(4) 1.313527(4) -0.210968(4)
Ru3A Ru 0.182189(4) 1.317382(4) 0.150877(4)
Ru4A Ru 0.258551(4) 1.245150(4) 0.112567(4)
Ru5A Ru 0.128471(4) 1.193831(4) -0.352260(4)
Ru6A Ru 0.216033(4) 1.146405(4) -0.267697(4)
C1A C 0.69066(6) 1.31082(5) -0.14687(5)
C2A C 0.74885(6) 1.28182(6) -0.09117(5)
C3A C 0.78885(6) 1.32008(5) -0.10199(5)
H1A H 0.7782 1.3641 -0.1432
C4A C 0.84263(6) 1.29452(6) -0.05384(6)
H2A H 0.8688 1.3202 -0.0613
C5A C 0.85725(6) 1.22676(6) 0.00847(6)
C6A C 0.81747(6) 1.18832(5) 0.01966(5)
C7A C 0.76256(6) 1.21584(5) -0.02966(5)
H3A H 0.7354 1.1913 -0.0222
C8A C 0.84821(6) 1.12372(6) 0.08633(5)
C9A C 0.90358(7) 1.12452(7) 0.11201(6)
C10A C 0.50030(5) 1.45177(5) -0.20524(5)
C11A C 0.45243(6) 1.50120(5) -0.18233(5)
C12A C 0.44102(6) 1.57662(5) -0.20581(5)
H4A H 0.4652 1.5953 -0.2373
C13A C 0.39681(7) 1.62370(6) -0.18520(6)
H5A H 0.3908 1.6732 -0.2022
C14A C 0.36092(7) 1.59565(6) -0.13792(6)
C15A C 0.37475(6) 1.51758(5) -0.10908(5)
C16A C 0.41638(6) 1.47386(5) -0.13290(5)
H6A H 0.4216 1.4248 -0.1166
C17A C 0.33089(6) 1.50768(5) -0.06130(6)
C18A C 0.29662(7) 1.57710(6) -0.06025(6)
C19A C 0.25227(8) 1.58530(7) -0.01736(7)
H7A H 0.2307 1.6307 -0.0163
C20A C 0.24183(8) 1.52352(6) 0.02338(6)
H8A H 0.2132 1.5275 0.0532
C21A C 0.27198(6) 1.45455(6) 0.02257(5)
C22A C 0.31821(6) 1.44595(5) -0.02031(5)
H9A H 0.3396 1.4005 -0.0212
C23A C 0.25661(5) 1.39118(5) 0.06351(5)
C24A C 0.68200(5) 1.27015(5) -0.28408(5)
C25A C 0.73460(5) 1.21723(5) -0.30241(5)
C26A C 0.77251(6) 1.24524(5) -0.34930(5)
H10A H 0.7625 1.2964 -0.3685
C27A C 0.82394(6) 1.19844(5) -0.36721(6)
H11A H 0.8484 1.2171 -0.3984
C28A C 0.83791(6) 1.12092(6) -0.33614(6)
C29A C 0.79842(6) 1.09406(5) -0.29259(5)
C30A C 0.74687(5) 1.14337(5) -0.27603(5)
H12A H 0.7206 1.1256 -0.2467
C31A C 0.82479(6) 1.01461(5) -0.27404(5)
C32A C 0.87939(6) 0.99879(6) -0.30749(6)
C33A C 0.80500(5) 0.95814(5) -0.23720(5)
H13A H 0.7681 0.9681 -0.2160
C34A C 0.48887(5) 1.41279(5) -0.34415(5)
C35A C 0.43451(5) 1.44023(5) -0.39960(5)
C36A C 0.42194(6) 1.50341(5) -0.46337(5)
H14A H 0.4494 1.5275 -0.4701
C37A C 0.37135(6) 1.53114(5) -0.51594(5)
H15A H 0.3652 1.5723 -0.5577
C38A C 0.33053(6) 1.49669(5) -0.50509(5)
C39A C 0.34029(5) 1.43156(5) -0.44123(5)
C40A C 0.39158(5) 1.40428(5) -0.38878(5)
H16A H 0.3980 1.3630 -0.3470
C41A C 0.28806(5) 1.41006(5) -0.44844(5)
C42A C 0.24925(6) 1.46273(6) -0.51576(5)
C43A C 0.19442(6) 1.45732(5) -0.54008(5)
H17A H 0.1684 1.4918 -0.5837
C44A C 0.18135(6) 1.39816(5) -0.49561(5)
H18A H 0.1455 1.3933 -0.5104
C45A C 0.21854(5) 1.34630(5) -0.43084(5)
C46A C 0.27205(5) 1.35081(5) -0.40597(5)
H19A H 0.2971 1.3155 -0.3621
C47A C 0.20063(5) 1.28509(5) -0.38735(5)
C48A C 0.11869(5) 1.34514(5) 0.02757(5)
C49A C 0.06255(6) 1.37339(5) -0.02593(5)
C50A C -0.00619(6) 1.42998(6) -0.03310(5)
H20A H -0.0134 1.4490 -0.0044
C51A C -0.06243(6) 1.45740(5) -0.08134(5)
H21A H -0.1066 1.4953 -0.0865
C52A C -0.04941(6) 1.42535(5) -0.12165(5)
C53A C 0.01834(6) 1.37136(6) -0.11735(5)
C54A C 0.07303(6) 1.34560(6) -0.06829(5)
H22A H 0.1175 1.3089 -0.0641
C55A C 0.01164(6) 1.35464(5) -0.16889(5)
C56A C -0.06027(6) 1.40108(5) -0.20217(5)
C57A C -0.08468(6) 1.40012(6) -0.25554(5)
H23A H -0.1317 1.4302 -0.2770
C58A C -0.03699(6) 1.35303(5) -0.27600(5)
H24A H -0.0526 1.3524 -0.3122
C59A C 0.03381(5) 1.30645(5) -0.24407(5)
C60A C 0.05778(6) 1.30804(5) -0.18978(5)
H25A H 0.1047 1.2776 -0.1681
C61A C 0.08198(5) 1.25786(5) -0.26732(5)
C62A C 0.67901(5) 0.78388(5) -0.23535(5)
C63A C 0.62503(5) 0.82129(5) -0.29633(5)
C64A C 0.64210(6) 0.80865(6) -0.34924(5)
H26A H 0.6879 0.7746 -0.3454
C65A C 0.59281(6) 0.84537(6) -0.40714(6)
H27A H 0.6041 0.8365 -0.4420
C66A C 0.55501(6) 0.87234(5) -0.30047(5)
H28A H 0.5427 0.8807 -0.2655
C67A C 0.81811(6) 0.82752(5) -0.19594(5)
C68A C 0.84073(6) 0.88645(6) -0.23222(6)
C69A C 0.89637(6) 0.87127(6) -0.26493(6)
C70A C 0.91836(6) 0.92615(6) -0.30149(6)
C71A C 0.26319(5) 1.08781(5) -0.35669(5)
C72A C 0.31381(5) 1.04824(5) -0.38492(5)
C73A C 0.29205(5) 1.06370(5) -0.44874(5)
H29A H 0.2452 1.0961 -0.4707
C74A C 0.34097(6) 1.03029(5) -0.47971(5)
H30A H 0.3273 1.0412 -0.5224
C75A C 0.41001(5) 0.98066(5) -0.44471(5)
C76A C 0.43066(5) 0.96434(5) -0.37999(5)
C77A C 0.38308(5) 0.99787(5) -0.35109(5)
H31A H 0.3972 0.9869 -0.3085
C78A C 0.50604(5) 0.90894(5) -0.35845(5)
C79A C 0.52408(6) 0.89732(5) -0.41024(5)
C80A C 0.85751(5) 0.94322(6) 0.23281(5)
C81A C 0.87411(6) 1.00589(6) 0.19046(5)
C82A C 0.92952(6) 1.00990(7) 0.21330(6)
H32A H 0.9560 0.9725 0.2565
C83A C 0.94688(7) 1.06688(7) 0.17476(7)
H33A H 0.9859 1.0670 0.1899
C84A C 0.83329(6) 1.06208(6) 0.12687(5)
H34A H 0.7964 1.0597 0.1107
C85A C 0.59281(6) 1.56475(6) -0.39283(6)
H35A H 0.5547 1.5674 -0.4129
C86A C 0.55911(10) 1.69237(8) -0.48366(8)
H36A H 0.5358 1.7365 -0.4786
H37A H 0.5872 1.7017 -0.5161
H38A H 0.5250 1.6833 -0.4983
C87A C 0.65939(7) 1.62606(6) -0.39191(7)
H39A H 0.6932 1.6265 -0.4194
H40A H 0.6425 1.6705 -0.3874
H41A H 0.6809 1.5802 -0.3486
C88A C 0.07700(8) 1.34632(8) 0.24037(6)
H42A H 0.0981 1.2934 0.2579
C89A C -0.00405(10) 1.32844(10) 0.31213(8)
H43A H 0.0218 1.2760 0.3227
H44A H 0.0001 1.3305 0.3519
H45A H -0.0524 1.3484 0.2943
C90A C -0.01233(9) 1.45447(8) 0.23942(10)
H46A H -0.0151 1.4822 0.1923
H47A H -0.0586 1.4692 0.2477
H48A H 0.0129 1.4664 0.2618
C91A C -0.02281(6) 1.28210(5) -0.43689(5)
H49A H -0.0289 1.2904 -0.4013
C92A C -0.07557(8) 1.30395(9) -0.53926(6)
H50A H -0.0278 1.2708 -0.5361
H51A H -0.1037 1.2804 -0.5385
H52A H -0.0923 1.3525 -0.5802
C93A C -0.14782(7) 1.37151(7) -0.48378(6)
H53A H -0.1576 1.4228 -0.5173
H54A H -0.1834 1.3611 -0.4933
H55A H -0.1471 1.3671 -0.4409
N1A N 0.46736(5) 0.93862(5) -0.46263(4)
H56A H 0.4674 0.9385 -0.4994
N2A N -0.09513(5) 1.44254(4) -0.17335(4)
H57A H -0.1391 1.4746 -0.1856
N3A N 0.32025(6) 1.62585(5) -0.10377(5)
H58A H 0.3105 1.6697 -0.1087
N4A N 0.88699(5) 1.06279(5) -0.34374(5)
H59A H 0.9176 1.0663 -0.3676
N5A N 0.90659(5) 1.19006(5) 0.06500(5)
H60A H 0.9349 1.2053 0.0705
N6A N 0.27518(5) 1.51338(4) -0.54884(4)
H61A H 0.2598 1.5497 -0.5900
N7A N 0.02315(6) 1.37376(6) 0.26388(5)
N8A N 0.60204(5) 1.62753(5) -0.42226(5)
N9A N -0.08001(4) 1.31621(5) -0.48349(4)
O1A O 0.65526(3) 1.27467(3) -0.13385(3)
O2A O 0.68231(3) 1.36791(3) -0.20224(3)
O3A O 0.53287(3) 1.47869(3) -0.24640(3)
O4A O 0.50648(3) 1.38488(3) -0.18012(3)
O5A O 0.64927(3) 1.24319(3) -0.24216(3)
O6A O 0.67261(3) 1.33926(3) -0.31141(3)
O7A O 0.49857(3) 1.35486(3) -0.28930(3)
O8A O 0.52367(3) 1.44921(3) -0.35576(3)
O9A O 0.66299(3) 0.80326(3) -0.19341(3)
O10A O 0.74009(4) 0.73542(3) -0.23349(3)
O11A O 0.84778(3) 0.76741(3) -0.19978(3)
O12A O 0.76867(3) 0.84175(3) -0.16670(3)
O13A O 0.10551(4) 1.36832(3) 0.06819(3)
O14A O 0.17949(4) 1.29377(4) 0.03216(3)
O15A O 0.21159(3) 1.40234(3) 0.09908(3)
O16A O 0.28391(3) 1.33286(3) 0.05793(3)
O17A O 0.15059(3) 1.28355(3) -0.41191(3)
O18A O 0.23820(3) 1.23611(3) -0.32800(3)
O19A O 0.14603(3) 1.21475(3) -0.23411(3)
O20A O 0.05900(3) 1.26016(3) -0.31669(3)
O21A O 0.80753(3) 0.94149(3) 0.20838(3)
O22A O 0.89382(3) 0.89581(3) 0.29199(3)
O23A O 0.28612(3) 1.07954(3) -0.30306(3)
O24A O 0.19944(3) 1.12853(3) -0.38818(3)
O25A O 0.55184(5) 1.21456(4) -0.14108(4)
O26A O 0.33693(5) 1.17128(5) 0.07195(4)
O27A O 0.30719(5) 1.09664(5) -0.18118(4)
O28A O 0.63013(3) 1.50544(3) -0.34255(3)
O29A O 0.10361(4) 1.37997(4) 0.19885(3)
O30A O 0.03698(3) 1.24084(4) -0.43682(3)
loop_
_geom_bond_atom_site_label_1
_geom_bond_atom_site_label_2
_geom_bond_site_symmetry_1
_geom_bond_site_symmetry_2
Ru1 Ru2 1_555 1_555
Ru2 O1 1_555 1_555
Ru3 Ru4 1_555 1_555
Ru4 O14 1_555 1_555
Ru5 Ru6 1_555 1_555
Ru6 O18 1_555 1_555
C1 C2 1_555 1_555
C2 C3 1_555 1_555
C3 H1 1_555 1_555
C4 C3 1_555 1_555
H2 C4 1_555 1_555
C5 C4 1_555 1_555
C6 C5 1_555 1_555
C7 C2 1_555 1_555
H3 C7 1_555 1_555
C8 C6 1_555 1_555
C9 C8 1_555 1_555
C10 C11 1_555 1_555
C11 C12 1_555 1_555
C12 H4 1_555 1_555
C13 C12 1_555 1_555
H5 C13 1_555 1_555
C14 C13 1_555 1_555
C15 C14 1_555 1_555
C16 C11 1_555 1_555
H6 C16 1_555 1_555
C17 C15 1_555 1_555
C18 C17 1_555 1_555
C19 C18 1_555 1_555
H7 C19 1_555 1_555
C20 C19 1_555 1_555
H8 C20 1_555 1_555
C21 C20 1_555 1_555
C22 C17 1_555 1_555
H9 C22 1_555 1_555
C23 C21 1_555 1_555
C24 C25 1_555 1_555
C25 C26 1_555 1_555
C26 H10 1_555 1_555
C27 C26 1_555 1_555
H11 C27 1_555 1_555
C28 C27 1_555 1_555
C29 C28 1_555 1_555
C30 C25 1_555 1_555
H12 C30 1_555 1_555
C31 C29 1_555 1_555
C32 C31 1_555 1_555
C33 C31 1_555 1_555
H13 C33 1_555 1_555
C34 C35 1_555 1_555
C35 C36 1_555 1_555
C36 H14 1_555 1_555
C37 C36 1_555 1_555
H15 C37 1_555 1_555
C38 C37 1_555 1_555
C39 C38 1_555 1_555
C40 C35 1_555 1_555
H16 C40 1_555 1_555
C41 C39 1_555 1_555
C42 C41 1_555 1_555
C43 C42 1_555 1_555
H17 C43 1_555 1_555
C44 C43 1_555 1_555
H18 C44 1_555 1_555
C45 C44 1_555 1_555
C46 C41 1_555 1_555
H19 C46 1_555 1_555
C47 C45 1_555 1_555
C48 C49 1_555 1_555
C49 C50 1_555 1_555
C50 H20 1_555 1_555
C51 C50 1_555 1_555
H21 C51 1_555 1_555
C52 C51 1_555 1_555
C53 C52 1_555 1_555
C54 C49 1_555 1_555
H22 C54 1_555 1_555
C55 C53 1_555 1_555
C56 C55 1_555 1_555
C57 C56 1_555 1_555
H23 C57 1_555 1_555
C58 C57 1_555 1_555
H24 C58 1_555 1_555
C59 C58 1_555 1_555
C60 C55 1_555 1_555
H25 C60 1_555 1_555
C61 C59 1_555 1_555
C62 C63 1_555 1_555
C63 C64 1_555 1_555
C64 H26 1_555 1_555
C65 C64 1_555 1_555
H27 C65 1_555 1_555
C66 C63 1_555 1_555
H28 C66 1_555 1_555
C67 C68 1_555 1_555
C68 C33 1_555 1_555
C69 C68 1_555 1_555
C70 C32 1_555 1_555
C71 C72 1_555 1_555
C72 C73 1_555 1_555
C73 H29 1_555 1_555
C74 C73 1_555 1_555
H30 C74 1_555 1_555
C75 C74 1_555 1_555
C76 C75 1_555 1_555
C77 C72 1_555 1_555
H31 C77 1_555 1_555
C78 C66 1_555 1_555
C79 C65 1_555 1_555
C80 C81 1_555 1_555
C81 C82 1_555 1_555
C82 H32 1_555 1_555
C83 C9 1_555 1_555
H33 C83 1_555 1_555
C84 C8 1_555 1_555
H34 C84 1_555 1_555
C85 H35 1_555 1_555
C86 H36 1_555 1_555
H37 C86 1_555 1_555
H38 C86 1_555 1_555
C87 H39 1_555 1_555
H40 C87 1_555 1_555
H41 C87 1_555 1_555
C88 H42 1_555 1_555
C89 H43 1_555 1_555
H44 C89 1_555 1_555
H45 C89 1_555 1_555
C90 H46 1_555 1_555
H47 C90 1_555 1_555
H48 C90 1_555 1_555
C91 H49 1_555 1_555
C92 H50 1_555 1_555
H51 C92 1_555 1_555
H52 C92 1_555 1_555
C93 H53 1_555 1_555
H54 C93 1_555 1_555
H55 C93 1_555 1_555
N1 C75 1_555 1_555
H56 N1 1_555 1_555
N2 C52 1_555 1_555
H57 N2 1_555 1_555
N3 C14 1_555 1_555
H58 N3 1_555 1_555
N4 C28 1_555 1_555
H59 N4 1_555 1_555
N5 C5 1_555 1_555
H60 N5 1_555 1_555
N6 C38 1_555 1_555
H61 N6 1_555 1_555
N7 C88 1_555 1_555
N8 C85 1_555 1_555
N9 C91 1_555 1_555
O1 C1 1_555 1_555
O2 Ru1 1_555 1_555
O3 Ru1 1_555 1_555
O4 Ru2 1_555 1_555
O5 Ru2 1_555 1_555
O6 Ru1 1_555 1_555
O7 Ru2 1_555 1_555
O8 Ru1 1_555 1_555
O9 C62 1_555 1_555
O10 C62 1_555 1_555
O11 C67 1_555 1_555
O12 C67 1_555 1_555
O13 Ru3 1_555 1_555
O14 C48 1_555 1_555
O15 Ru3 1_555 1_555
O16 Ru4 1_555 1_555
O17 Ru5 1_555 1_555
O18 C47 1_555 1_555
O19 Ru6 1_555 1_555
O20 Ru5 1_555 1_555
O21 C80 1_555 1_555
O22 C80 1_555 1_555
O23 Ru6 1_555 1_555
O24 Ru5 1_555 1_555
O25 Ru2 1_555 1_555
O26 Ru4 1_555 1_555
O27 Ru6 1_555 1_555
O28 Ru1 1_555 1_555
O29 Ru3 1_555 1_555
O30 Ru5 1_555 1_555
Ru1A Ru2A 1_555 1_555
Ru2A O1A 1_555 1_555
Ru3A O10 1_555 1_555
Ru4A O9 1_555 1_555
Ru5A O22 1_555 1_555
Ru6A O21 1_555 1_555
C1A C2A 1_555 1_555
C2A C3A 1_555 1_555
C3A H1A 1_555 1_555
C4A C3A 1_555 1_555
H2A C4A 1_555 1_555
C5A C4A 1_555 1_555
C6A C5A 1_555 1_555
C7A C2A 1_555 1_555
H3A C7A 1_555 1_555
C8A C6A 1_555 1_555
C9A C8A 1_555 1_555
C10A C11A 1_555 1_555
C11A C12A 1_555 1_555
C12A H4A 1_555 1_555
C13A C12A 1_555 1_555
H5A C13A 1_555 1_555
C14A C13A 1_555 1_555
C15A C14A 1_555 1_555
C16A C11A 1_555 1_555
H6A C16A 1_555 1_555
C17A C15A 1_555 1_555
C18A C17A 1_555 1_555
C19A C18A 1_555 1_555
H7A C19A 1_555 1_555
C20A C19A 1_555 1_555
H8A C20A 1_555 1_555
C21A C20A 1_555 1_555
C22A C17A 1_555 1_555
H9A C22A 1_555 1_555
C23A C21A 1_555 1_555
C24A C25A 1_555 1_555
C25A C26A 1_555 1_555
C26A H10A 1_555 1_555
C27A C26A 1_555 1_555
H11A C27A 1_555 1_555
C28A C27A 1_555 1_555
C29A C28A 1_555 1_555
C30A C25A 1_555 1_555
H12A C30A 1_555 1_555
C31A C29A 1_555 1_555
C32A C31A 1_555 1_555
C33A C31A 1_555 1_555
H13A C33A 1_555 1_555
C34A C35A 1_555 1_555
C35A C36A 1_555 1_555
C36A H14A 1_555 1_555
C37A C36A 1_555 1_555
H15A C37A 1_555 1_555
C38A C37A 1_555 1_555
C39A C38A 1_555 1_555
C40A C35A 1_555 1_555
H16A C40A 1_555 1_555
C41A C39A 1_555 1_555
C42A C41A 1_555 1_555
C43A C42A 1_555 1_555
H17A C43A 1_555 1_555
C44A C43A 1_555 1_555
H18A C44A 1_555 1_555
C45A C44A 1_555 1_555
C46A C41A 1_555 1_555
H19A C46A 1_555 1_555
C47A C45A 1_555 1_555
C48A C49A 1_555 1_555
C49A C50A 1_555 1_555
C50A H20A 1_555 1_555
C51A C50A 1_555 1_555
H21A C51A 1_555 1_555
C52A C51A 1_555 1_555
C53A C52A 1_555 1_555
C54A C49A 1_555 1_555
H22A C54A 1_555 1_555
C55A C53A 1_555 1_555
C56A C55A 1_555 1_555
C57A C56A 1_555 1_555
H23A C57A 1_555 1_555
C58A C57A 1_555 1_555
H24A C58A 1_555 1_555
C59A C58A 1_555 1_555
C60A C55A 1_555 1_555
H25A C60A 1_555 1_555
C61A C59A 1_555 1_555
C62A C63A 1_555 1_555
C63A C64A 1_555 1_555
C64A H26A 1_555 1_555
C65A C64A 1_555 1_555
H27A C65A 1_555 1_555
C66A C63A 1_555 1_555
H28A C66A 1_555 1_555
C67A C68A 1_555 1_555
C68A C33A 1_555 1_555
C69A C68A 1_555 1_555
C70A C32A 1_555 1_555
C71A C72A 1_555 1_555
C72A C73A 1_555 1_555
C73A H29A 1_555 1_555
C74A C73A 1_555 1_555
H30A C74A 1_555 1_555
C75A C74A 1_555 1_555
C76A C75A 1_555 1_555
C77A C72A 1_555 1_555
H31A C77A 1_555 1_555
C78A C66A 1_555 1_555
C79A C65A 1_555 1_555
C80A C81A 1_555 1_555
C81A C82A 1_555 1_555
C82A H32A 1_555 1_555
C83A C9A 1_555 1_555
H33A C83A 1_555 1_555
C84A C8A 1_555 1_555
H34A C84A 1_555 1_555
C85A H35A 1_555 1_555
C86A H36A 1_555 1_555
H37A C86A 1_555 1_555
H38A C86A 1_555 1_555
C87A H39A 1_555 1_555
H40A C87A 1_555 1_555
H41A C87A 1_555 1_555
C88A H42A 1_555 1_555
C89A H43A 1_555 1_555
H44A C89A 1_555 1_555
H45A C89A 1_555 1_555
C90A H46A 1_555 1_555
H47A C90A 1_555 1_555
H48A C90A 1_555 1_555
C91A H49A 1_555 1_555
C92A H50A 1_555 1_555
H51A C92A 1_555 1_555
H52A C92A 1_555 1_555
C93A H53A 1_555 1_555
H54A C93A 1_555 1_555
H55A C93A 1_555 1_555
N1A C75A 1_555 1_555
H56A N1A 1_555 1_555
N2A C52A 1_555 1_555
H57A N2A 1_555 1_555
N3A C14A 1_555 1_555
H58A N3A 1_555 1_555
N4A C28A 1_555 1_555
H59A N4A 1_555 1_555
N5A C5A 1_555 1_555
H60A N5A 1_555 1_555
N6A C38A 1_555 1_555
H61A N6A 1_555 1_555
N7A C88A 1_555 1_555
N8A C85A 1_555 1_555
N9A C91A 1_555 1_555
O1A C1A 1_555 1_555
O2A Ru1A 1_555 1_555
O3A Ru1A 1_555 1_555
O4A Ru2A 1_555 1_555
O5A Ru2A 1_555 1_555
O6A Ru1A 1_555 1_555
O7A Ru2A 1_555 1_555
O8A Ru1A 1_555 1_555
O9A Ru4 1_555 1_555
O10A Ru3 1_555 1_555
O11A Ru3 1_555 1_555
O12A Ru4 1_555 1_555
O13A Ru3A 1_555 1_555
O14A Ru4A 1_555 1_555
O15A Ru3A 1_555 1_555
O16A Ru4A 1_555 1_555
O17A Ru5A 1_555 1_555
O18A Ru6A 1_555 1_555
O19A Ru6A 1_555 1_555
O20A Ru5A 1_555 1_555
O21A Ru6 1_555 1_555
O22A Ru5 1_555 1_555
O23A Ru6A 1_555 1_555
O24A Ru5A 1_555 1_555
O25A Ru2A 1_555 1_555
O26A Ru4A 1_555 1_555
O27A Ru6A 1_555 1_555
O28A Ru1A 1_555 1_555
O29A Ru3A 1_555 1_555
O30A Ru5A 1_555 1_555
C1 O2 1_555 1_555
C6 C7 1_555 1_555
C9 N5 1_555 1_555
C10 O3 1_555 1_555
C10 O4 1_555 1_555
C15 C16 1_555 1_555
C18 N3 1_555 1_555
C21 C22 1_555 1_555
C23 O15 1_555 1_555
C23 O16 1_555 1_555
C24 O5 1_555 1_555
C24 O6 1_555 1_555
C29 C30 1_555 1_555
C32 N4 1_555 1_555
C34 O7 1_555 1_555
C34 O8 1_555 1_555
C39 C40 1_555 1_555
C42 N6 1_555 1_555
C45 C46 1_555 1_555
C47 O17 1_555 1_555
C48 O13 1_555 1_555
C53 C54 1_555 1_555
C56 N2 1_555 1_555
C59 C60 1_555 1_555
C61 O19 1_555 1_555
C61 O20 1_555 1_555
C69 C70 1_555 1_555
C71 O23 1_555 1_555
C71 O24 1_555 1_555
C76 C77 1_555 1_555
C76 C78 1_555 1_555
C78 C79 1_555 1_555
C79 N1 1_555 1_555
C81 C84 1_555 1_555
C82 C83 1_555 1_555
C85 O28 1_555 1_555
C86 N8 1_555 1_555
C87 N8 1_555 1_555
C88 O29 1_555 1_555
C89 N7 1_555 1_555
C90 N7 1_555 1_555
C91 O30 1_555 1_555
C92 N9 1_555 1_555
C93 N9 1_555 1_555
O11 Ru3A 1_555 1_555
O12 Ru4A 1_555 1_555
Ru3A Ru4A 1_555 1_555
Ru5A Ru6A 1_555 1_555
C1A O2A 1_555 1_555
C6A C7A 1_555 1_555
C9A N5A 1_555 1_555
C10A O3A 1_555 1_555
C10A O4A 1_555 1_555
C15A C16A 1_555 1_555
C18A N3A 1_555 1_555
C21A C22A 1_555 1_555
C23A O15A 1_555 1_555
C23A O16A 1_555 1_555
C24A O5A 1_555 1_555
C24A O6A 1_555 1_555
C29A C30A 1_555 1_555
C32A N4A 1_555 1_555
C34A O7A 1_555 1_555
C34A O8A 1_555 1_555
C39A C40A 1_555 1_555
C42A N6A 1_555 1_555
C45A C46A 1_555 1_555
C47A O17A 1_555 1_555
C47A O18A 1_555 1_555
C48A O13A 1_555 1_555
C48A O14A 1_555 1_555
C53A C54A 1_555 1_555
C56A N2A 1_555 1_555
C59A C60A 1_555 1_555
C61A O19A 1_555 1_555
C61A O20A 1_555 1_555
C62A O9A 1_555 1_555
C62A O10A 1_555 1_555
C67A O11A 1_555 1_555
C67A O12A 1_555 1_555
C69A C70A 1_555 1_555
C71A O23A 1_555 1_555
C71A O24A 1_555 1_555
C76A C77A 1_555 1_555
C76A C78A 1_555 1_555
C78A C79A 1_555 1_555
C79A N1A 1_555 1_555
C80A O21A 1_555 1_555
C80A O22A 1_555 1_555
C81A C84A 1_555 1_555
C82A C83A 1_555 1_555
C85A O28A 1_555 1_555
C86A N8A 1_555 1_555
C87A N8A 1_555 1_555
C88A O29A 1_555 1_555
C89A N7A 1_555 1_555
C90A N7A 1_555 1_555
C91A O30A 1_555 1_555
C92A N9A 1_555 1_555
C93A N9A 1_555 1_555

#END
