
#######################################################################
#
#                 Cambridge Crystallographic Data Centre
#                                CCDC 
#
#######################################################################
#
# If this CIF has been generated from an entry in the Cambridge 
# Structural Database, then it will include bibliographic, chemical, 
# crystal, experimental, refinement or atomic coordinate data resulting 
# from the CCDC's data processing and validation procedures.
#
#######################################################################

data_POSDIM
_chemical_formula_moiety         'C168 H108 N12 O60 Ru12'
_chemical_name_systematic        
'dodecakis(\m-9H-carbazole-3,6-dicarboxylato)-dodeca-aqua-dodeca-ruthenium unknown solvate'
_symmetry_cell_setting           triclinic
_symmetry_space_group_name_H-M   'P -1'
_symmetry_Int_Tables_number      2
_space_group_name_Hall           '-P 1'
loop_
_symmetry_equiv_pos_site_id
_symmetry_equiv_pos_as_xyz
1 x,y,z
2 -x,-y,-z
_cell_length_a                   21.683(3)
_cell_length_b                   22.212(3)
_cell_length_c                   22.233(2)
_cell_angle_alpha                64.954(2)
_cell_angle_beta                 75.010(2)
_cell_angle_gamma                84.508(2)
_cell_volume                     9369.75
_exptl_crystal_colour            brown
_exptl_crystal_description       Plate
_cell_formula_units_Z            1
_chemical_properties_physical    'Air-sensitive, Moisture-sensitive'
_exptl_crystal_recrystallization_method Solvothermal
_exptl_crystal_preparation       'Magnetic properties'
loop_
_atom_site_label
_atom_site_type_symbol
_atom_site_fract_x
_atom_site_fract_y
_atom_site_fract_z
Ru1 Ru 0.13789(5) 0.52855(6) 0.33839(6)
Ru2 Ru 0.22546(5) 0.52028(6) 0.25667(6)
Ru3 Ru 0.70614(5) 0.60751(6) 0.14696(6)
Ru4 Ru 0.77230(5) 0.64908(6) 0.18789(6)
Ru5 Ru 0.55483(6) 0.16312(7) 0.23294(6)
Ru6 Ru 0.56728(6) 0.05204(6) 0.30514(6)
C1 C 0.1930(7) 0.3962(7) 0.3788(7)
C2 C 0.1999(7) 0.3247(9) 0.4264(8)
C3 C 0.1587(6) 0.2958(8) 0.4888(7)
H1 H 0.1236 0.3190 0.5017
C4 C 0.1688(9) 0.2350(8) 0.5310(8)
H2 H 0.1429 0.2168 0.5751
C5 C 0.2151(9) 0.1996(8) 0.5113(9)
C6 C 0.2614(7) 0.2263(8) 0.4469(7)
C7 C 0.2510(6) 0.2892(6) 0.4028(7)
H3 H 0.2768 0.3083 0.3587
C8 C 0.3080(8) 0.1783(7) 0.4448(7)
C9 C 0.2899(9) 0.1215(9) 0.5108(10)
C10 C 0.3277(7) 0.0664(9) 0.5274(7)
H4 H 0.3176 0.0322 0.5710
C11 C 0.3821(7) 0.0614(7) 0.4782(7)
H5 H 0.4059 0.0228 0.4866
C12 C 0.3985(8) 0.1193(8) 0.4147(9)
C13 C 0.3656(7) 0.1749(8) 0.3975(8)
H6 H 0.3796 0.2107 0.3556
C14 C 0.4550(8) 0.1199(8) 0.3612(8)
C15 C 0.8956(6) 0.5060(6) -0.2416(6)
C16 C 0.1698(7) 0.6490(7) 0.2181(8)
C17 C 0.1635(6) 0.7210(8) 0.1739(8)
C18 C 0.1171(8) 0.7600(9) 0.1991(9)
H7 H 0.0902 0.7394 0.2424
C19 C 0.1104(8) 0.8286(10) 0.1610(9)
H8 H 0.0826 0.8541 0.1799
C20 C 0.1489(7) 0.8580(9) 0.0906(9)
C21 C 0.1945(7) 0.8169(7) 0.0645(8)
C22 C 0.2008(6) 0.7480(7) 0.1087(7)
H9 H 0.2305 0.7218 0.0927
C23 C 0.2578(6) 0.5599(6) 0.3517(6)
C24 C 0.2993(7) 0.5811(8) 0.3840(8)
C25 C 0.2730(6) 0.6006(8) 0.4378(8)
H10 H 0.2297 0.5935 0.4589
C26 C 0.3098(8) 0.6298(10) 0.4595(8)
H11 H 0.2919 0.6406 0.4963
C27 C 0.3725(7) 0.6432(9) 0.4276(7)
C28 C 0.4023(6) 0.6158(6) 0.3800(7)
C29 C 0.3655(6) 0.5872(7) 0.3547(7)
H12 H 0.3841 0.5730 0.3204
C30 C 0.4682(7) 0.6330(8) 0.3623(9)
C31 C 0.4776(9) 0.6606(10) 0.4104(10)
C32 C 0.5353(7) 0.6904(10) 0.3937(9)
H13 H 0.5393 0.7196 0.4126
C33 C 0.5876(6) 0.6793(8) 0.3502(8)
H14 H 0.6278 0.6912 0.3497
C34 C 0.5828(7) 0.6503(7) 0.3061(7)
C35 C 0.5222(6) 0.6295(6) 0.3096(7)
H15 H 0.5169 0.6137 0.2786
C36 C 0.6390(7) 0.6464(7) 0.2551(8)
C37 C 0.2770(7) 0.2521(8) -0.0771(8)
C38 C 0.2906(7) 0.1807(9) -0.0317(8)
C39 C 0.2615(7) 0.1277(7) -0.0351(8)
C40 C 0.8389(7) 0.6097(7) 0.0809(7)
C41 C 0.8977(7) 0.5993(9) 0.0332(7)
C42 C 0.9592(7) 0.6079(9) 0.0400(9)
H16 H 0.9640 0.6174 0.0755
C43 C 1.0139(7) 0.6014(10) -0.0097(8)
H17 H 1.0544 0.6104 -0.0082
C44 C 1.0078(7) 0.5820(9) -0.0602(7)
C45 C 0.9450(7) 0.5692(7) -0.0606(8)
C46 C 0.8922(6) 0.5760(7) -0.0138(7)
H18 H 0.8521 0.5647 -0.0138
C47 C 0.9535(6) 0.5493(8) -0.1136(9)
C48 C 1.0208(8) 0.5545(14) -0.1481(10)
C49 C 1.0470(9) 0.5447(8) -0.2060(8)
H19 H 1.0907 0.5489 -0.2260
C50 C 1.0041(6) 0.5281(9) -0.2325(7)
H20 H 1.0206 0.5191 -0.2708
C51 C 0.9394(7) 0.5235(9) -0.2077(7)
C52 C 0.9140(7) 0.5372(8) -0.1499(7)
H21 H 0.8699 0.5383 -0.1347
C53 C 0.7561(7) 0.5051(7) 0.2569(7)
C54 C 0.7677(6) 0.4370(8) 0.3040(7)
C55 C 0.8062(6) 0.4270(6) 0.3490(6)
H22 H 0.8247 0.4629 0.3493
C56 C 0.8162(7) 0.3643(9) 0.3919(7)
H23 H 0.8433 0.3582 0.4202
C57 C 0.7867(7) 0.3049(10) 0.3966(9)
C58 C 0.7502(6) 0.3185(6) 0.3482(6)
C59 C 0.7393(6) 0.3853(7) 0.3046(7)
H24 H 0.7120 0.3933 0.2760
C60 C 0.7302(6) 0.2564(8) 0.3582(7)
C61 C 0.7571(7) 0.2096(9) 0.4124(8)
C62 C 0.7478(7) 0.1430(8) 0.4320(8)
H25 H 0.7687 0.1122 0.4636
C63 C 0.7066(7) 0.1195(7) 0.4048(8)
H26 H 0.6977 0.0744 0.4213
C64 C 0.6807(7) 0.1663(8) 0.3533(7)
C65 C 0.6911(6) 0.2354(7) 0.3315(7)
H27 H 0.6712 0.2663 0.2989
C66 C 0.6384(8) 0.1442(8) 0.3246(8)
C67 C 0.3402(7) 0.9036(7) -0.1749(7)
C68 C 0.2888(7) 0.9084(9) -0.1195(8)
C69 C 0.2609(7) 0.9679(7) -0.1302(8)
H28 H 0.2748 1.0039 -0.1720
C70 C 0.2129(9) 0.9761(9) -0.0812(10)
H29 H 0.1914 1.0161 -0.0903
C71 C 0.1960(7) 0.9216(8) -0.0149(9)
C72 C 0.2210(7) 0.8628(8) -0.0061(8)
C73 C 0.2706(7) 0.8510(8) -0.0567(7)
H30 H 0.2892 0.8097 -0.0491
C74 C 0.4848(8) 0.0779(11) 0.2112(8)
C75 C 0.4411(7) 0.0477(9) 0.1852(9)
C76 C 0.4270(7) -0.0181(8) 0.2079(7)
H31 H 0.4435 -0.0482 0.2439
C77 C 0.3905(7) -0.0430(7) 0.1816(8)
H32 H 0.3844 -0.0884 0.1963
C78 C 0.3640(9) 0.0028(10) 0.1329(9)
C79 C 0.3758(7) 0.0740(7) 0.1053(8)
C80 C 0.4144(6) 0.0953(7) 0.1342(6)
H33 H 0.4222 0.1404 0.1197
C81 C 0.3361(7) 0.1043(9) 0.0568(9)
C82 C 0.3134(10) 0.0484(10) 0.0473(10)
C83 C 0.2710(9) 0.0557(11) 0.0063(9)
H34 H 0.2517 0.0207 0.0051
C84 C 0.3285(6) 0.1688(8) 0.0111(8)
H35 H 0.3497 0.2038 0.0100
N1 N 0.4212(6) 0.6686(8) 0.4453(7)
H36 H 0.4141 0.6863 0.4741
N2 N 0.2343(7) 0.1298(8) 0.5518(7)
H37 H 0.2147 0.1018 0.5916
N3 N 0.1505(6) 0.9203(7) 0.0425(8)
H38 H 0.1279 0.9530 0.0464
N4 N 0.7919(8) 0.2418(7) 0.4317(8)
H39 H 0.8138 0.2237 0.4619
N5 N 1.0525(6) 0.5702(10) -0.1047(8)
H40 H 1.0929 0.5712 -0.1084
N6 N 0.3219(8) -0.0076(7) 0.0989(9)
H41 H 0.3042 -0.0451 0.1102
O1 O 0.1461(3) 0.4260(3) 0.4021(3)
O2 O 0.2325(3) 0.4187(3) 0.3213(3)
O3 O 0.9224(3) 0.4974(3) -0.2942(3)
O4 O 0.8381(3) 0.5070(3) -0.2152(3)
O5 O 0.1328(3) 0.6277(3) 0.2761(3)
O6 O 0.2172(3) 0.6208(3) 0.1927(3)
O7 O 0.2012(3) 0.5550(3) 0.3814(3)
O8 O 0.2865(3) 0.5477(3) 0.3007(3)
O9 O 0.0556(3) 0.5413(3) 0.4170(3)
O10 O 0.3128(3) 0.5101(3) 0.1758(3)
O11 O 0.2396(3) 0.2535(3) -0.1167(4)
O12 O 0.3041(4) 0.2955(4) -0.0768(4)
O13 O 0.8513(3) 0.6352(3) 0.1174(3)
O14 O 0.7866(3) 0.5941(3) 0.0770(3)
O15 O 0.7818(3) 0.5493(3) 0.2594(4)
O16 O 0.7175(3) 0.5102(3) 0.2183(3)
O17 O 0.6916(3) 0.6620(3) 0.2590(3)
O18 O 0.6286(3) 0.6190(3) 0.2203(3)
O19 O 0.8397(4) 0.6850(4) 0.2288(4)
O20 O 0.6370(4) 0.5676(4) 0.1088(4)
O21 O 0.3549(3) 0.9564(3) -0.2307(3)
O22 O 0.3654(3) 0.8481(3) -0.1607(3)
O23 O 0.5054(4) 0.0237(4) 0.2627(4)
O24 O 0.4939(4) 0.1348(4) 0.1910(4)
O25 O 0.4865(3) 0.0622(3) 0.3784(4)
O26 O 0.4746(3) 0.1700(3) 0.3076(3)
O27 O 0.6293(4) 0.0825(4) 0.3459(4)
O28 O 0.6142(3) 0.1888(3) 0.2777(4)
O29 O 0.5736(3) -0.0573(4) 0.3778(4)
O30 O 0.5451(3) 0.2713(3) 0.1611(3)
Ru1A Ru 0.86211(5) 0.47145(6) -0.33839(6)
Ru2A Ru 0.77454(5) 0.47972(6) -0.25667(6)
Ru3A Ru 0.29386(5) 0.39249(6) -0.14696(6)
Ru4A Ru 0.22770(5) 0.35092(6) -0.18789(6)
Ru5A Ru 0.44517(6) 0.83688(7) -0.23294(6)
Ru6A Ru 0.43272(6) 0.94796(6) -0.30514(6)
C1A C 0.8070(7) 0.6038(7) -0.3788(7)
C2A C 0.8001(7) 0.6753(9) -0.4264(8)
C3A C 0.8413(6) 0.7042(8) -0.4888(7)
H1A H 0.8764 0.6810 -0.5017
C4A C 0.8312(9) 0.7650(8) -0.5310(8)
H2A H 0.8571 0.7832 -0.5751
C5A C 0.7849(9) 0.8004(8) -0.5113(9)
C6A C 0.7386(7) 0.7737(8) -0.4469(7)
C7A C 0.7490(6) 0.7108(6) -0.4028(7)
H3A H 0.7232 0.6917 -0.3587
C8A C 0.6920(8) 0.8217(7) -0.4448(7)
C9A C 0.7101(9) 0.8785(9) -0.5108(10)
C10A C 0.6723(7) 0.9336(9) -0.5274(7)
H4A H 0.6824 0.9678 -0.5710
C11A C 0.6179(7) 0.9386(7) -0.4782(7)
H5A H 0.5941 0.9772 -0.4866
C12A C 0.6015(8) 0.8807(8) -0.4147(9)
C13A C 0.6344(7) 0.8251(8) -0.3975(8)
H6A H 0.6204 0.7893 -0.3556
C14A C 0.5450(8) 0.8801(8) -0.3612(8)
C15A C 0.1044(6) 0.4940(6) 0.2416(6)
C16A C 0.8302(7) 0.3510(7) -0.2181(8)
C17A C 0.8365(6) 0.2790(8) -0.1739(8)
C18A C 0.8829(8) 0.2400(9) -0.1991(9)
H7A H 0.9098 0.2606 -0.2424
C19A C 0.8896(8) 0.1714(10) -0.1610(9)
H8A H 0.9174 0.1459 -0.1799
C20A C 0.8511(7) 0.1420(9) -0.0906(9)
C21A C 0.8055(7) 0.1831(7) -0.0645(8)
C22A C 0.7992(6) 0.2520(7) -0.1087(7)
H9A H 0.7695 0.2782 -0.0927
C23A C 0.7422(6) 0.4401(6) -0.3517(6)
C24A C 0.7007(7) 0.4189(8) -0.3840(8)
C25A C 0.7270(6) 0.3994(8) -0.4378(8)
H10A H 0.7703 0.4065 -0.4589
C26A C 0.6902(8) 0.3702(10) -0.4595(8)
H11A H 0.7081 0.3594 -0.4963
C27A C 0.6275(7) 0.3568(9) -0.4276(7)
C28A C 0.5977(6) 0.3842(6) -0.3800(7)
C29A C 0.6345(6) 0.4128(7) -0.3547(7)
H12A H 0.6159 0.4270 -0.3204
C30A C 0.5318(7) 0.3670(8) -0.3623(9)
C31A C 0.5224(9) 0.3394(10) -0.4104(10)
C32A C 0.4647(7) 0.3096(10) -0.3937(9)
H13A H 0.4607 0.2804 -0.4126
C33A C 0.4124(6) 0.3207(8) -0.3502(8)
H14A H 0.3722 0.3088 -0.3497
C34A C 0.4172(7) 0.3497(7) -0.3061(7)
C35A C 0.4778(6) 0.3705(6) -0.3096(7)
H15A H 0.4831 0.3863 -0.2786
C36A C 0.3610(7) 0.3536(7) -0.2551(8)
C37A C 0.7230(7) 0.7479(8) 0.0771(8)
C38A C 0.7094(7) 0.8193(9) 0.0317(8)
C39A C 0.7385(7) 0.8723(7) 0.0351(8)
C40A C 0.1611(7) 0.3903(7) -0.0809(7)
C41A C 0.1023(7) 0.4007(9) -0.0332(7)
C42A C 0.0408(7) 0.3921(9) -0.0400(9)
H16A H 0.0360 0.3826 -0.0755
C43A C -0.0139(7) 0.3986(10) 0.0097(8)
H17A H -0.0544 0.3896 0.0082
C44A C -0.0078(7) 0.4180(9) 0.0602(7)
C45A C 0.0550(7) 0.4308(7) 0.0606(8)
C46A C 0.1078(6) 0.4240(7) 0.0138(7)
H18A H 0.1479 0.4353 0.0138
C47A C 0.0465(6) 0.4507(8) 0.1136(9)
C48A C -0.0208(8) 0.4455(14) 0.1481(10)
C49A C -0.0470(9) 0.4553(8) 0.2060(8)
H19A H -0.0907 0.4511 0.2260
C50A C -0.0041(6) 0.4719(9) 0.2325(7)
H20A H -0.0206 0.4809 0.2708
C51A C 0.0606(7) 0.4765(9) 0.2077(7)
C52A C 0.0860(7) 0.4628(8) 0.1499(7)
H21A H 0.1301 0.4617 0.1347
C53A C 0.2439(7) 0.4949(7) -0.2569(7)
C54A C 0.2323(6) 0.5630(8) -0.3040(7)
C55A C 0.1938(6) 0.5730(6) -0.3490(6)
H22A H 0.1753 0.5371 -0.3493
C56A C 0.1838(7) 0.6357(9) -0.3919(7)
H23A H 0.1567 0.6418 -0.4202
C57A C 0.2133(7) 0.6951(10) -0.3966(9)
C58A C 0.2498(6) 0.6815(6) -0.3482(6)
C59A C 0.2607(6) 0.6147(7) -0.3046(7)
H24A H 0.2880 0.6067 -0.2760
C60A C 0.2698(6) 0.7436(8) -0.3582(7)
C61A C 0.2429(7) 0.7904(9) -0.4124(8)
C62A C 0.2522(7) 0.8570(8) -0.4320(8)
H25A H 0.2313 0.8878 -0.4636
C63A C 0.2934(7) 0.8805(7) -0.4048(8)
H26A H 0.3023 0.9256 -0.4213
C64A C 0.3193(7) 0.8337(8) -0.3533(7)
C65A C 0.3089(6) 0.7646(7) -0.3315(7)
H27A H 0.3288 0.7337 -0.2989
C66A C 0.3616(8) 0.8558(8) -0.3246(8)
C67A C 0.6598(7) 0.0964(7) 0.1749(7)
C68A C 0.7112(7) 0.0916(9) 0.1195(8)
C69A C 0.7391(7) 0.0321(7) 0.1302(8)
H28A H 0.7252 -0.0039 0.1720
C70A C 0.7871(9) 0.0239(9) 0.0812(10)
H29A H 0.8086 -0.0161 0.0903
C71A C 0.8040(7) 0.0784(8) 0.0149(9)
C72A C 0.7790(7) 0.1372(8) 0.0061(8)
C73A C 0.7294(7) 0.1490(8) 0.0567(7)
H30A H 0.7108 0.1903 0.0491
C74A C 0.5152(8) 0.9221(11) -0.2112(8)
C75A C 0.5589(7) 0.9523(9) -0.1852(9)
C76A C 0.5730(7) 1.0181(8) -0.2079(7)
H31A H 0.5565 1.0482 -0.2439
C77A C 0.6095(7) 1.0430(7) -0.1816(8)
H32A H 0.6156 1.0884 -0.1963
C78A C 0.6360(9) 0.9972(10) -0.1329(9)
C79A C 0.6242(7) 0.9260(7) -0.1053(8)
C80A C 0.5856(6) 0.9047(7) -0.1342(6)
H33A H 0.5778 0.8596 -0.1197
C81A C 0.6639(7) 0.8957(9) -0.0568(9)
C82A C 0.6866(10) 0.9516(10) -0.0473(10)
C83A C 0.7290(9) 0.9443(11) -0.0063(9)
H34A H 0.7483 0.9793 -0.0051
C84A C 0.6715(6) 0.8312(8) -0.0111(8)
H35A H 0.6503 0.7962 -0.0100
N1A N 0.5788(6) 0.3314(8) -0.4453(7)
H36A H 0.5859 0.3137 -0.4741
N2A N 0.7657(7) 0.8702(8) -0.5518(7)
H37A H 0.7853 0.8982 -0.5916
N3A N 0.8495(6) 0.0797(7) -0.0425(8)
H38A H 0.8721 0.0470 -0.0464
N4A N 0.2081(8) 0.7582(7) -0.4317(8)
H39A H 0.1862 0.7763 -0.4619
N5A N -0.0525(6) 0.4298(10) 0.1047(8)
H40A H -0.0929 0.4288 0.1084
N6A N 0.6781(8) 1.0076(7) -0.0989(9)
H41A H 0.6958 1.0451 -0.1102
O1A O 0.8539(3) 0.5740(3) -0.4021(3)
O2A O 0.7675(3) 0.5813(3) -0.3213(3)
O3A O 0.0776(3) 0.5026(3) 0.2942(3)
O4A O 0.1619(3) 0.4930(3) 0.2152(3)
O5A O 0.8672(3) 0.3723(3) -0.2761(3)
O6A O 0.7828(3) 0.3792(3) -0.1927(3)
O7A O 0.7988(3) 0.4450(3) -0.3814(3)
O8A O 0.7135(3) 0.4523(3) -0.3007(3)
O9A O 0.9444(3) 0.4587(3) -0.4170(3)
O10A O 0.6872(3) 0.4899(3) -0.1758(3)
O11A O 0.7604(3) 0.7465(3) 0.1167(4)
O12A O 0.6959(4) 0.7045(4) 0.0768(4)
O13A O 0.1487(3) 0.3648(3) -0.1174(3)
O14A O 0.2134(3) 0.4059(3) -0.0770(3)
O15A O 0.2182(3) 0.4507(3) -0.2594(4)
O16A O 0.2825(3) 0.4898(3) -0.2183(3)
O17A O 0.3084(3) 0.3380(3) -0.2590(3)
O18A O 0.3714(3) 0.3810(3) -0.2203(3)
O19A O 0.1603(4) 0.3150(4) -0.2288(4)
O20A O 0.3630(4) 0.4324(4) -0.1088(4)
O21A O 0.6451(3) 0.0436(3) 0.2307(3)
O22A O 0.6346(3) 0.1519(3) 0.1607(3)
O23A O 0.4946(4) 0.9763(4) -0.2627(4)
O24A O 0.5061(4) 0.8652(4) -0.1910(4)
O25A O 0.5135(3) 0.9378(3) -0.3784(4)
O26A O 0.5254(3) 0.8300(3) -0.3076(3)
O27A O 0.3707(4) 0.9175(4) -0.3459(4)
O28A O 0.3858(3) 0.8112(3) -0.2777(4)
O29A O 0.4264(3) 1.0573(4) -0.3778(4)
O30A O 0.4549(3) 0.7287(3) -0.1611(3)
loop_
_geom_bond_atom_site_label_1
_geom_bond_atom_site_label_2
_geom_bond_site_symmetry_1
_geom_bond_site_symmetry_2
Ru1 Ru2 1_555 1_555
Ru2 O2 1_555 1_555
Ru3 Ru4 1_555 1_555
Ru4 O13 1_555 1_555
Ru5 Ru6 1_555 1_555
Ru6 O23 1_555 1_555
C1 C2 1_555 1_555
C2 C3 1_555 1_555
C3 H1 1_555 1_555
C4 C3 1_555 1_555
H2 C4 1_555 1_555
C5 C4 1_555 1_555
C6 C5 1_555 1_555
C7 C2 1_555 1_555
H3 C7 1_555 1_555
C8 C6 1_555 1_555
C9 C8 1_555 1_555
C10 C9 1_555 1_555
H4 C10 1_555 1_555
C11 C10 1_555 1_555
H5 C11 1_555 1_555
C12 C11 1_555 1_555
C13 C8 1_555 1_555
H6 C13 1_555 1_555
C14 C12 1_555 1_555
C15 C51 1_555 1_555
C16 C17 1_555 1_555
C17 C18 1_555 1_555
C18 H7 1_555 1_555
C19 C18 1_555 1_555
H8 C19 1_555 1_555
C20 C19 1_555 1_555
C21 C20 1_555 1_555
C22 C17 1_555 1_555
H9 C22 1_555 1_555
C23 C24 1_555 1_555
C24 C25 1_555 1_555
C25 H10 1_555 1_555
C26 C25 1_555 1_555
H11 C26 1_555 1_555
C27 C26 1_555 1_555
C28 C27 1_555 1_555
C29 C24 1_555 1_555
H12 C29 1_555 1_555
C30 C28 1_555 1_555
C31 C30 1_555 1_555
C32 C31 1_555 1_555
H13 C32 1_555 1_555
C33 C32 1_555 1_555
H14 C33 1_555 1_555
C34 C33 1_555 1_555
C35 C30 1_555 1_555
H15 C35 1_555 1_555
C36 C34 1_555 1_555
C37 C38 1_555 1_555
C38 C39 1_555 1_555
C39 C83 1_555 1_555
C40 C41 1_555 1_555
C41 C42 1_555 1_555
C42 H16 1_555 1_555
C43 C42 1_555 1_555
H17 C43 1_555 1_555
C44 C43 1_555 1_555
C45 C44 1_555 1_555
C46 C41 1_555 1_555
H18 C46 1_555 1_555
C47 C45 1_555 1_555
C48 C47 1_555 1_555
C49 C48 1_555 1_555
H19 C49 1_555 1_555
C50 C49 1_555 1_555
H20 C50 1_555 1_555
C51 C50 1_555 1_555
C52 C47 1_555 1_555
H21 C52 1_555 1_555
C53 C54 1_555 1_555
C54 C55 1_555 1_555
C55 H22 1_555 1_555
C56 C55 1_555 1_555
H23 C56 1_555 1_555
C57 C56 1_555 1_555
C58 C57 1_555 1_555
C59 C54 1_555 1_555
H24 C59 1_555 1_555
C60 C58 1_555 1_555
C61 C60 1_555 1_555
C62 C61 1_555 1_555
H25 C62 1_555 1_555
C63 C62 1_555 1_555
H26 C63 1_555 1_555
C64 C63 1_555 1_555
C65 C60 1_555 1_555
H27 C65 1_555 1_555
C66 C64 1_555 1_555
C67 C68 1_555 1_555
C68 C69 1_555 1_555
C69 H28 1_555 1_555
C70 C69 1_555 1_555
H29 C70 1_555 1_555
C71 C70 1_555 1_555
C72 C21 1_555 1_555
C73 C68 1_555 1_555
H30 C73 1_555 1_555
C74 C75 1_555 1_555
C75 C76 1_555 1_555
C76 H31 1_555 1_555
C77 C76 1_555 1_555
H32 C77 1_555 1_555
C78 C77 1_555 1_555
C79 C78 1_555 1_555
C80 C75 1_555 1_555
H33 C80 1_555 1_555
C81 C79 1_555 1_555
C82 C81 1_555 1_555
C83 C82 1_555 1_555
H34 C83 1_555 1_555
C84 C38 1_555 1_555
H35 C84 1_555 1_555
N1 C27 1_555 1_555
H36 N1 1_555 1_555
N2 C5 1_555 1_555
H37 N2 1_555 1_555
N3 C20 1_555 1_555
H38 N3 1_555 1_555
N4 C57 1_555 1_555
H39 N4 1_555 1_555
N5 C44 1_555 1_555
H40 N5 1_555 1_555
N6 C78 1_555 1_555
H41 N6 1_555 1_555
O1 Ru1 1_555 1_555
O2 C1 1_555 1_555
O3 C15 1_555 1_555
O4 C15 1_555 1_555
O5 Ru1 1_555 1_555
O6 Ru2 1_555 1_555
O7 Ru1 1_555 1_555
O8 Ru2 1_555 1_555
O9 Ru1 1_555 1_555
O10 Ru2 1_555 1_555
O11 C37 1_555 1_555
O12 C37 1_555 1_555
O13 C40 1_555 1_555
O14 Ru3 1_555 1_555
O15 Ru4 1_555 1_555
O16 Ru3 1_555 1_555
O17 Ru4 1_555 1_555
O18 Ru3 1_555 1_555
O19 Ru4 1_555 1_555
O20 Ru3 1_555 1_555
O21 C67 1_555 1_555
O22 C67 1_555 1_555
O23 C74 1_555 1_555
O24 Ru5 1_555 1_555
O25 Ru6 1_555 1_555
O26 Ru5 1_555 1_555
O27 Ru6 1_555 1_555
O28 Ru5 1_555 1_555
O29 Ru6 1_555 1_555
O30 Ru5 1_555 1_555
Ru1A O3 1_555 1_555
Ru2A O4 1_555 1_555
Ru3A O12 1_555 1_555
Ru4A O11 1_555 1_555
Ru5A O22 1_555 1_555
Ru6A O21 1_555 1_555
C1A C2A 1_555 1_555
C2A C3A 1_555 1_555
C3A H1A 1_555 1_555
C4A C3A 1_555 1_555
H2A C4A 1_555 1_555
C5A C4A 1_555 1_555
C6A C5A 1_555 1_555
C7A C2A 1_555 1_555
H3A C7A 1_555 1_555
C8A C6A 1_555 1_555
C9A C8A 1_555 1_555
C10A C9A 1_555 1_555
H4A C10A 1_555 1_555
C11A C10A 1_555 1_555
H5A C11A 1_555 1_555
C12A C11A 1_555 1_555
C13A C8A 1_555 1_555
H6A C13A 1_555 1_555
C14A C12A 1_555 1_555
C15A C51A 1_555 1_555
C16A C17A 1_555 1_555
C17A C18A 1_555 1_555
C18A H7A 1_555 1_555
C19A C18A 1_555 1_555
H8A C19A 1_555 1_555
C20A C19A 1_555 1_555
C21A C20A 1_555 1_555
C22A C17A 1_555 1_555
H9A C22A 1_555 1_555
C23A C24A 1_555 1_555
C24A C25A 1_555 1_555
C25A H10A 1_555 1_555
C26A C25A 1_555 1_555
H11A C26A 1_555 1_555
C27A C26A 1_555 1_555
C28A C27A 1_555 1_555
C29A C24A 1_555 1_555
H12A C29A 1_555 1_555
C30A C28A 1_555 1_555
C31A C30A 1_555 1_555
C32A C31A 1_555 1_555
H13A C32A 1_555 1_555
C33A C32A 1_555 1_555
H14A C33A 1_555 1_555
C34A C33A 1_555 1_555
C35A C30A 1_555 1_555
H15A C35A 1_555 1_555
C36A C34A 1_555 1_555
C37A C38A 1_555 1_555
C38A C39A 1_555 1_555
C39A C83A 1_555 1_555
C40A C41A 1_555 1_555
C41A C42A 1_555 1_555
C42A H16A 1_555 1_555
C43A C42A 1_555 1_555
H17A C43A 1_555 1_555
C44A C43A 1_555 1_555
C45A C44A 1_555 1_555
C46A C41A 1_555 1_555
H18A C46A 1_555 1_555
C47A C45A 1_555 1_555
C48A C47A 1_555 1_555
C49A C48A 1_555 1_555
H19A C49A 1_555 1_555
C50A C49A 1_555 1_555
H20A C50A 1_555 1_555
C51A C50A 1_555 1_555
C52A C47A 1_555 1_555
H21A C52A 1_555 1_555
C53A C54A 1_555 1_555
C54A C55A 1_555 1_555
C55A H22A 1_555 1_555
C56A C55A 1_555 1_555
H23A C56A 1_555 1_555
C57A C56A 1_555 1_555
C58A C57A 1_555 1_555
C59A C54A 1_555 1_555
H24A C59A 1_555 1_555
C60A C58A 1_555 1_555
C61A C60A 1_555 1_555
C62A C61A 1_555 1_555
H25A C62A 1_555 1_555
C63A C62A 1_555 1_555
H26A C63A 1_555 1_555
C64A C63A 1_555 1_555
C65A C60A 1_555 1_555
H27A C65A 1_555 1_555
C66A C64A 1_555 1_555
C67A C68A 1_555 1_555
C68A C69A 1_555 1_555
C69A H28A 1_555 1_555
C70A C69A 1_555 1_555
H29A C70A 1_555 1_555
C71A C70A 1_555 1_555
C72A C21A 1_555 1_555
C73A C68A 1_555 1_555
H30A C73A 1_555 1_555
C74A C75A 1_555 1_555
C75A C76A 1_555 1_555
C76A H31A 1_555 1_555
C77A C76A 1_555 1_555
H32A C77A 1_555 1_555
C78A C77A 1_555 1_555
C79A C78A 1_555 1_555
C80A C75A 1_555 1_555
H33A C80A 1_555 1_555
C81A C79A 1_555 1_555
C82A C81A 1_555 1_555
C83A C82A 1_555 1_555
H34A C83A 1_555 1_555
C84A C38A 1_555 1_555
H35A C84A 1_555 1_555
N1A C27A 1_555 1_555
H36A N1A 1_555 1_555
N2A C5A 1_555 1_555
H37A N2A 1_555 1_555
N3A C20A 1_555 1_555
H38A N3A 1_555 1_555
N4A C57A 1_555 1_555
H39A N4A 1_555 1_555
N5A C44A 1_555 1_555
H40A N5A 1_555 1_555
N6A C78A 1_555 1_555
H41A N6A 1_555 1_555
O1A Ru1A 1_555 1_555
O2A Ru2A 1_555 1_555
O3A Ru1 1_555 1_555
O4A Ru2 1_555 1_555
O5A Ru1A 1_555 1_555
O6A Ru2A 1_555 1_555
O7A Ru1A 1_555 1_555
O8A Ru2A 1_555 1_555
O9A Ru1A 1_555 1_555
O10A Ru2A 1_555 1_555
O11A Ru4 1_555 1_555
O12A Ru3 1_555 1_555
O13A Ru4A 1_555 1_555
O14A Ru3A 1_555 1_555
O15A Ru4A 1_555 1_555
O16A Ru3A 1_555 1_555
O17A Ru4A 1_555 1_555
O18A Ru3A 1_555 1_555
O19A Ru4A 1_555 1_555
O20A Ru3A 1_555 1_555
O21A Ru6 1_555 1_555
O22A Ru5 1_555 1_555
O23A Ru6A 1_555 1_555
O24A Ru5A 1_555 1_555
O25A Ru6A 1_555 1_555
O26A Ru5A 1_555 1_555
O27A Ru6A 1_555 1_555
O28A Ru5A 1_555 1_555
O29A Ru6A 1_555 1_555
O30A Ru5A 1_555 1_555
C1 O1 1_555 1_555
C6 C7 1_555 1_555
C9 N2 1_555 1_555
C12 C13 1_555 1_555
C14 O25 1_555 1_555
C14 O26 1_555 1_555
C16 O5 1_555 1_555
C16 O6 1_555 1_555
C21 C22 1_555 1_555
C23 O7 1_555 1_555
C23 O8 1_555 1_555
C28 C29 1_555 1_555
C31 N1 1_555 1_555
C34 C35 1_555 1_555
C36 O17 1_555 1_555
C36 O18 1_555 1_555
C40 O14 1_555 1_555
C45 C46 1_555 1_555
C48 N5 1_555 1_555
C51 C52 1_555 1_555
C53 O15 1_555 1_555
C53 O16 1_555 1_555
C58 C59 1_555 1_555
C61 N4 1_555 1_555
C64 C65 1_555 1_555
C66 O27 1_555 1_555
C66 O28 1_555 1_555
C71 C72 1_555 1_555
C71 N3 1_555 1_555
C72 C73 1_555 1_555
C74 O24 1_555 1_555
C79 C80 1_555 1_555
C81 C84 1_555 1_555
C82 N6 1_555 1_555
Ru1A Ru2A 1_555 1_555
Ru3A Ru4A 1_555 1_555
Ru5A Ru6A 1_555 1_555
C1A O1A 1_555 1_555
C1A O2A 1_555 1_555
C6A C7A 1_555 1_555
C9A N2A 1_555 1_555
C12A C13A 1_555 1_555
C14A O25A 1_555 1_555
C14A O26A 1_555 1_555
C15A O3A 1_555 1_555
C15A O4A 1_555 1_555
C16A O5A 1_555 1_555
C16A O6A 1_555 1_555
C21A C22A 1_555 1_555
C23A O7A 1_555 1_555
C23A O8A 1_555 1_555
C28A C29A 1_555 1_555
C31A N1A 1_555 1_555
C34A C35A 1_555 1_555
C36A O17A 1_555 1_555
C36A O18A 1_555 1_555
C37A O11A 1_555 1_555
C37A O12A 1_555 1_555
C40A O13A 1_555 1_555
C40A O14A 1_555 1_555
C45A C46A 1_555 1_555
C48A N5A 1_555 1_555
C51A C52A 1_555 1_555
C53A O15A 1_555 1_555
C53A O16A 1_555 1_555
C58A C59A 1_555 1_555
C61A N4A 1_555 1_555
C64A C65A 1_555 1_555
C66A O27A 1_555 1_555
C66A O28A 1_555 1_555
C67A O21A 1_555 1_555
C67A O22A 1_555 1_555
C71A C72A 1_555 1_555
C71A N3A 1_555 1_555
C72A C73A 1_555 1_555
C74A O23A 1_555 1_555
C74A O24A 1_555 1_555
C79A C80A 1_555 1_555
C81A C84A 1_555 1_555
C82A N6A 1_555 1_555

#END
