
#######################################################################
#
#                 Cambridge Crystallographic Data Centre
#                                CCDC 
#
#######################################################################
#
# If this CIF has been generated from an entry in the Cambridge 
# Structural Database, then it will include bibliographic, chemical, 
# crystal, experimental, refinement or atomic coordinate data resulting 
# from the CCDC's data processing and validation procedures.
#
#######################################################################

data_POSDOS
_chemical_formula_moiety         'C192 H144 O120 Ru24'
_chemical_name_systematic        
'tetracosakis(\m-isophthalato)-tetracosa-aqua-tetracosa-ruthenium unknown solvate'
_symmetry_cell_setting           triclinic
_symmetry_space_group_name_H-M   'P -1'
_symmetry_Int_Tables_number      2
_space_group_name_Hall           '-P 1'
loop_
_symmetry_equiv_pos_site_id
_symmetry_equiv_pos_as_xyz
1 x,y,z
2 -x,-y,-z
_cell_length_a                   22.275(4)
_cell_length_b                   25.028(4)
_cell_length_c                   25.332(7)
_cell_angle_alpha                109.588(3)
_cell_angle_beta                 112.588(3)
_cell_angle_gamma                103.580(2)
_cell_volume                     11160.1
_exptl_crystal_colour            red
_exptl_crystal_description       Plate
_cell_formula_units_Z            1
_chemical_properties_physical    'Air-sensitive, Moisture-sensitive'
_exptl_crystal_recrystallization_method Solvothermal
_exptl_crystal_preparation       'Magnetic properties'
loop_
_atom_site_label
_atom_site_type_symbol
_atom_site_fract_x
_atom_site_fract_y
_atom_site_fract_z
Ru1 Ru 0.40134(4) 0.55227(4) 0.07949(4)
Ru2 Ru 0.42048(4) 0.53821(4) 0.16889(4)
Ru3 Ru -0.04019(4) 0.34374(3) 0.12507(3)
Ru4 Ru 0.07483(4) 0.37722(3) 0.20522(3)
Ru5 Ru 0.29609(4) 0.82894(3) 0.42799(4)
Ru6 Ru 0.33633(4) 0.75586(3) 0.44302(4)
Ru7 Ru 0.83108(4) 0.98391(3) 0.80588(3)
Ru8 Ru 0.76017(4) 0.87881(3) 0.74252(4)
Ru9 Ru 0.93717(4) 0.71202(4) 0.45429(4)
Ru10 Ru 0.84449(4) 0.66388(4) 0.46510(4)
Ru11 Ru 0.60914(4) 0.22350(4) 0.14958(4)
Ru12 Ru 0.58562(4) 0.28188(3) 0.22450(4)
O1 O 0.2944(3) 0.4973(3) 0.0366(3)
O2 O 0.4207(3) 0.4759(3) 0.0421(3)
O3 O 0.5086(3) 0.6092(3) 0.1257(3)
O4 O 0.3848(4) 0.6282(3) 0.1190(4)
O5 O 0.3130(3) 0.4843(3) 0.1239(3)
O6 O 0.4386(3) 0.4610(3) 0.1286(3)
O7 O 0.5284(3) 0.5955(3) 0.2137(3)
O8 O 0.4021(4) 0.6139(3) 0.2061(3)
O9 O 0.3707(4) 0.5546(3) -0.0192(3)
O10 O 0.4397(4) 0.5224(4) 0.2583(4)
O11 O -0.0007(3) 0.3602(2) 0.0673(2)
O12 O -0.0300(3) 0.4348(2) 0.1638(3)
O13 O 1.0770(3) 0.6739(2) 0.8156(3)
O14 O -0.0474(3) 0.2539(2) 0.0885(3)
O15 O 0.1114(3) 0.3937(3) 0.1470(3)
O16 O 0.0825(3) 0.4666(2) 0.2395(3)
O17 O 0.9641(3) 0.6400(3) 0.7369(3)
O18 O 0.0646(3) 0.2869(3) 0.1679(3)
O19 O -0.1595(4) 0.3154(3) 0.0479(3)
O20 O 0.1922(4) 0.4111(4) 0.2865(4)
O21 O 0.1930(3) 0.7592(3) 0.3676(3)
O22 O 0.3100(3) 0.8122(3) 0.3494(3)
O23 O 0.3999(3) 0.8956(3) 0.4889(3)
O24 O 0.2834(3) 0.8468(3) 0.5071(3)
O25 O 0.2332(3) 0.6882(2) 0.3809(3)
O26 O 0.3506(3) 0.7399(3) 0.3637(3)
O27 O 0.4389(3) 0.8257(3) 0.5059(3)
O28 O 0.3208(3) 0.7744(3) 0.5214(3)
O29 O 0.2534(4) 0.9010(3) 0.4123(3)
O30 O 0.3712(4) 0.6778(4) 0.4536(4)
O31 O 0.7538(3) 0.9995(3) 0.7433(3)
O32 O 0.8792(3) 0.9785(3) 0.7508(3)
O33 O 0.0933(3) 0.0348(3) 0.1337(2)
O34 O 0.2175(3) 0.0111(3) 0.1391(2)
O35 O 0.6848(3) 0.8968(3) 0.6826(3)
O36 O 0.8099(3) 0.8752(3) 0.6890(3)
O37 O 0.1616(3) 0.1373(3) 0.1969(3)
O38 O 0.2878(3) 0.1134(3) 0.2017(3)
O39 O 0.8917(4) 1.0912(3) 0.8688(3)
O40 O 0.6873(4) 0.7698(4) 0.6783(4)
O41 O 0.8646(3) 0.7164(3) 0.3771(3)
O42 O 0.9216(3) 0.6260(3) 0.3901(3)
O43 O 1.0090(3) 0.7092(3) 0.5338(3)
O44 O 0.9486(3) 0.7962(3) 0.5158(3)
O45 O 0.7747(3) 0.6678(3) 0.3864(3)
O46 O 0.8305(3) 0.5789(3) 0.4018(3)
O47 O 0.9172(3) 0.6625(3) 0.5437(3)
O48 O 0.8596(3) 0.7507(3) 0.5285(3)
O49 O 1.0279(4) 0.7640(3) 0.4422(3)
O50 O 0.7505(4) 0.6095(4) 0.4762(4)
O51 O 0.5594(3) 0.2562(3) 0.0891(3)
O52 O 0.5120(3) 0.1504(3) 0.1093(3)
O53 O 0.3436(3) 0.8087(2) 0.7873(3)
O54 O 0.7047(3) 0.2994(3) 0.1907(3)
O55 O 0.5361(3) 0.3125(3) 0.1618(3)
O56 O 0.4903(3) 0.2067(3) 0.1836(3)
O57 O 0.3660(3) 0.7512(3) 0.7150(3)
O58 O 0.6809(3) 0.3556(3) 0.2622(3)
O59 O 0.6371(4) 0.1667(3) 0.0742(3)
O60 O 0.5619(4) 0.3402(4) 0.3030(4)
C1 C 0.2726(5) 0.4771(4) 0.0701(5)
C2 C 0.1940(2) 0.4423(3) 0.0397(3)
C3 C 0.1474(4) 0.4274(3) -0.0237(3)
H1 H 0.1654 0.4378 -0.0482
C4 C 0.0740(3) 0.3970(3) -0.0504(2)
H2 H 0.0428 0.3871 -0.0928
C5 C 0.0471(2) 0.3815(3) -0.0137(3)
H3 H -0.0020 0.3612 -0.0316
C6 C 0.0937(3) 0.3964(3) 0.0497(3)
C7 C 0.1671(3) 0.4268(3) 0.0764(2)
H4 H 0.1983 0.4367 0.1188
C8 C 0.0657(5) 0.3820(4) 0.0911(5)
C9 C 0.4365(5) 0.4482(6) 0.0762(6)
C10 C 0.4583(3) 0.3963(3) 0.0507(3)
C11 C 0.4596(3) 0.3807(3) -0.0067(3)
H5 H 0.4439 0.4001 -0.0315
C12 C 0.4843(4) 0.3362(4) -0.0272(3)
H6 H 0.4852 0.3258 -0.0657
C13 C 0.5077(4) 0.3073(3) 0.0098(3)
H7 H 0.5243 0.2776 -0.0039
C14 C 0.5064(3) 0.3229(3) 0.0673(3)
C15 C 0.4817(3) 0.3673(3) 0.0878(3)
H8 H 0.4808 0.3777 0.1262
C16 C 0.5373(5) 0.2952(5) 0.1095(5)
C17 C 0.5475(6) 0.6183(5) 0.1818(6)
C18 C 0.6276(2) 0.6591(3) 0.2179(3)
C19 C 0.6531(3) 0.6923(3) 0.1909(2)
H9 H 0.6213 0.6915 0.1536
C20 C 0.7263(3) 0.7266(3) 0.2199(3)
H10 H 0.7434 0.7488 0.2019
C21 C 0.7739(2) 0.7278(3) 0.2758(3)
H11 H 0.8228 0.7507 0.2951
C22 C 0.7483(3) 0.6946(3) 0.3027(3)
C23 C 0.6752(3) 0.6603(3) 0.2737(3)
H12 H 0.6581 0.6381 0.2917
C24 C 0.7999(5) 0.6933(4) 0.3586(4)
C25 C 0.3859(5) 0.6408(5) 0.1722(5)
C26 C 0.3695(4) 0.6972(3) 0.1989(4)
C27 C 0.3600(5) 0.7341(4) 0.1686(3)
H13 H 0.3653 0.7259 0.1324
C28 C 0.3427(5) 0.7833(4) 0.1924(4)
H14 H 0.3363 0.8080 0.1722
C29 C 0.3348(4) 0.7955(3) 0.2465(4)
H15 H 0.3232 0.8284 0.2625
C30 C 0.3442(4) 0.7586(3) 0.2768(3)
C31 C 0.3616(3) 0.7094(3) 0.2530(3)
H16 H 0.3679 0.6847 0.2733
C32 C 0.3342(5) 0.7732(5) 0.3356(4)
C33 C 0.0278(5) 0.4752(4) 0.2096(4)
C34 C 0.0371(3) 0.54280(19) 0.2358(3)
C35 C -0.0209(2) 0.5563(3) 0.2085(2)
H17 H -0.0653 0.5241 0.1757
C36 C -0.0123(3) 0.6179(3) 0.2301(3)
H18 H -0.0510 0.6270 0.2118
C37 C 0.0542(4) 0.6661(2) 0.2790(3)
H19 H 0.0599 0.7074 0.2935
C38 C 0.1121(3) 0.6526(2) 0.3063(2)
C39 C 0.1035(3) 0.5910(3) 0.2847(3)
H20 H 0.1423 0.5819 0.3029
C40 C 0.1848(5) 0.7043(4) 0.3560(4)
C41 C 1.0299(6) 0.6638(4) 0.7606(5)
C42 C 1.0588(4) 0.6826(3) 0.7218(3)
C43 C 1.1318(3) 0.7124(3) 0.7465(3)
H21 H 1.1643 0.7190 0.7871
C44 C 1.1564(3) 0.7323(3) 0.7107(4)
H22 H 1.2053 0.7522 0.7272
C45 C 1.1079(4) 0.7224(3) 0.6500(3)
H23 H 1.1243 0.7357 0.6260
C46 C 1.0348(3) 0.6926(3) 0.6253(2)
C47 C 1.0102(3) 0.6726(3) 0.6612(3)
H24 H 0.9613 0.6527 0.6446
C48 C 0.9828(6) 0.6872(4) 0.5617(4)
C49 C 0.0060(6) 0.2461(4) 0.1197(5)
C50 C -0.0003(3) 0.1788(2) 0.0932(3)
C51 C -0.0612(3) 0.1308(3) 0.0364(3)
H25 H -0.0972 0.1396 0.0121
C52 C -0.0685(3) 0.0695(3) 0.0159(2)
H26 H -0.1093 0.0374 -0.0221
C53 C -0.0148(3) 0.0563(2) 0.0522(3)
H27 H -0.0196 0.0153 0.0385
C54 C 0.0462(3) 0.1043(3) 0.1090(3)
C55 C 0.0535(3) 0.1656(2) 0.1295(2)
H28 H 0.0943 0.1977 0.1675
C56 C 0.1048(5) 0.0914(5) 0.1498(5)
C57 C 0.4459(5) 0.8801(4) 0.5166(4)
C58 C 0.5215(2) 0.9304(3) 0.5658(2)
C59 C 0.5361(3) 0.9908(3) 0.5743(3)
H29 H 0.5010 0.9991 0.5482
C60 C 0.6034(4) 1.0387(2) 0.6217(3)
H30 H 0.6132 1.0790 0.6274
C61 C 0.6559(3) 1.0262(3) 0.6607(3)
H31 H 0.7009 1.0583 0.6925
C62 C 0.6412(3) 0.9659(3) 0.6523(3)
C63 C 0.5740(3) 0.9179(2) 0.6048(3)
H32 H 0.5642 0.8776 0.5992
C64 C 0.6962(5) 0.9518(5) 0.6949(4)
C65 C 0.2995(5) 0.8154(4) 0.5367(4)
C66 C 0.2941(4) 0.8315(3) 0.5978(3)
C67 C 0.2700(4) 0.8766(3) 0.6180(3)
H33 H 0.2543 0.8955 0.5927
C68 C 0.2694(4) 0.8933(3) 0.6758(3)
H34 H 0.2532 0.9235 0.6893
C69 C 0.2929(4) 0.8650(3) 0.7135(3)
H35 H 0.2925 0.8762 0.7523
C70 C 0.3170(4) 0.8200(3) 0.6934(3)
C71 C 0.3177(4) 0.8032(3) 0.6355(3)
H36 H 0.3338 0.7731 0.6220
C72 C 0.3444(5) 0.7905(5) 0.7343(5)
C73 C 0.8573(5) 0.9232(5) 0.7049(4)
C74 C 0.8985(3) 0.9218(3) 0.6687(3)
C75 C 0.9499(4) 0.9759(2) 0.6819(3)
H37 H 0.9593 1.0145 0.7130
C76 C 0.9873(3) 0.9723(3) 0.6486(4)
H38 H 1.0217 1.0086 0.6575
C77 C 0.9732(3) 0.9147(4) 0.6022(3)
H39 H 0.9982 0.9123 0.5800
C78 C 0.9219(4) 0.8605(3) 0.5890(3)
C79 C 0.8845(3) 0.8641(2) 0.6223(3)
H40 H 0.8501 0.8279 0.6135
C80 C 0.9092(5) 0.7969(5) 0.5409(4)
C81 C 0.2672(5) 0.0618(5) 0.1568(5)
C82 C 0.3061(3) 0.0559(3) 0.1181(3)
C83 C 0.2826(3) 0.0010(3) 0.0628(3)
H41 H 0.2411 -0.0332 0.0473
C84 C 0.3210(3) -0.0028(2) 0.0305(3)
H42 H 0.3052 -0.0395 -0.0065
C85 C 0.3829(3) 0.0483(3) 0.0535(3)
H43 H 0.4086 0.0458 0.0319
C86 C 0.4064(3) 0.1032(3) 0.1088(3)
C87 C 0.3680(4) 0.1070(3) 0.1411(3)
H44 H 0.3838 0.1437 0.1781
C88 C 0.4760(5) 0.1581(5) 0.1371(5)
C89 C 0.8704(5) 0.5786(5) 0.3778(5)
C90 C 0.8543(4) 0.5164(2) 0.3256(3)
C91 C 0.8947(3) 0.5123(3) 0.2953(4)
H45 H 0.9327 0.5479 0.3075
C92 C 0.8784(4) 0.4550(3) 0.2467(3)
H46 H 0.9055 0.4522 0.2264
C93 C 0.8217(4) 0.4018(3) 0.2285(3)
H47 H 0.8108 0.3634 0.1960
C94 C 0.7813(3) 0.4059(2) 0.2587(3)
C95 C 0.7976(3) 0.4632(3) 0.3073(3)
H48 H 0.7705 0.4660 0.3276
C96 C 0.7168(5) 0.3491(4) 0.2358(5)
Ru1A Ru 0.59866(4) 0.44773(4) 0.92051(4)
Ru2A Ru 0.57952(4) 0.46179(4) 0.83111(4)
Ru3A Ru 1.04019(4) 0.65626(3) 0.87493(3)
Ru4A Ru 0.92517(4) 0.62278(3) 0.79478(3)
Ru5A Ru 0.70391(4) 0.17106(3) 0.57201(4)
Ru6A Ru 0.66367(4) 0.24414(3) 0.55698(4)
Ru7A Ru 0.16892(4) 0.01609(3) 0.19412(3)
Ru8A Ru 0.23983(4) 0.12119(3) 0.25748(4)
Ru9A Ru 0.06283(4) 0.28798(4) 0.54571(4)
Ru10A Ru 0.15551(4) 0.33612(4) 0.53490(4)
Ru11A Ru 0.39086(4) 0.77650(4) 0.85042(4)
Ru12A Ru 0.41438(4) 0.71812(3) 0.77550(4)
O1A O 0.7056(3) 0.5027(3) 0.9634(3)
O2A O 0.5793(3) 0.5241(3) 0.9579(3)
O3A O 0.4914(3) 0.3908(3) 0.8743(3)
O4A O 0.6152(4) 0.3718(3) 0.8810(4)
O5A O 0.6870(3) 0.5157(3) 0.8761(3)
O6A O 0.5614(3) 0.5390(3) 0.8714(3)
O7A O 0.4716(3) 0.4045(3) 0.7863(3)
O8A O 0.5979(4) 0.3861(3) 0.7939(3)
O9A O 0.6293(4) 0.4454(3) 1.0192(3)
O10A O 0.5603(4) 0.4776(4) 0.7417(4)
O11A O 1.0007(3) 0.6398(2) 0.9327(2)
O12A O 1.0300(3) 0.5652(2) 0.8362(3)
O13A O -0.0770(3) 0.3261(2) 0.1844(3)
O14A O 1.0474(3) 0.7461(2) 0.9115(3)
O15A O 0.8886(3) 0.6063(3) 0.8530(3)
O16A O 0.9175(3) 0.5334(2) 0.7605(3)
O17A O 0.0359(3) 0.3600(3) 0.2631(3)
O18A O 0.9354(3) 0.7131(3) 0.8321(3)
O19A O 1.1595(4) 0.6846(3) 0.9521(3)
O20A O 0.8078(4) 0.5889(4) 0.7135(4)
O21A O 0.8070(3) 0.2408(3) 0.6324(3)
O22A O 0.6900(3) 0.1878(3) 0.6506(3)
O23A O 0.6001(3) 0.1044(3) 0.5111(3)
O24A O 0.7166(3) 0.1532(3) 0.4929(3)
O25A O 0.7668(3) 0.3118(2) 0.6191(3)
O26A O 0.6494(3) 0.2601(3) 0.6363(3)
O27A O 0.5611(3) 0.1743(3) 0.4941(3)
O28A O 0.6792(3) 0.2256(3) 0.4786(3)
O29A O 0.7466(4) 0.0990(3) 0.5877(3)
O30A O 0.6288(4) 0.3222(4) 0.5464(4)
O31A O 0.2462(3) 0.0005(3) 0.2567(3)
O32A O 0.1208(3) 0.0215(3) 0.2492(3)
O33A O 0.9067(3) 0.9652(3) 0.8663(2)
O34A O 0.7825(3) 0.9889(3) 0.8609(2)
O35A O 0.3152(3) 0.1032(3) 0.3174(3)
O36A O 0.1901(3) 0.1248(3) 0.3110(3)
O37A O 0.8384(3) 0.8627(3) 0.8031(3)
O38A O 0.7122(3) 0.8866(3) 0.7983(3)
O39A O 0.1083(4) -0.0912(3) 0.1312(3)
O40A O 0.3127(4) 0.2302(4) 0.3217(4)
O41A O 0.1354(3) 0.2836(3) 0.6229(3)
O42A O 0.0784(3) 0.3740(3) 0.6099(3)
O43A O -0.0090(3) 0.2908(3) 0.4662(3)
O44A O 0.0514(3) 0.2038(3) 0.4842(3)
O45A O 0.2253(3) 0.3322(3) 0.6136(3)
O46A O 0.1695(3) 0.4211(3) 0.5982(3)
O47A O 0.0828(3) 0.3375(3) 0.4563(3)
O48A O 0.1404(3) 0.2493(3) 0.4715(3)
O49A O -0.0279(4) 0.2360(3) 0.5578(3)
O50A O 0.2495(4) 0.3905(4) 0.5238(4)
O51A O 0.4406(3) 0.7438(3) 0.9109(3)
O52A O 0.4880(3) 0.8496(3) 0.8907(3)
O53A O 0.6564(3) 0.1913(2) 0.2127(3)
O54A O 0.2953(3) 0.7006(3) 0.8093(3)
O55A O 0.4639(3) 0.6875(3) 0.8382(3)
O56A O 0.5097(3) 0.7933(3) 0.8164(3)
O57A O 0.6340(3) 0.2488(3) 0.2850(3)
O58A O 0.3191(3) 0.6444(3) 0.7378(3)
O59A O 0.3629(4) 0.8333(3) 0.9258(3)
O60A O 0.4381(4) 0.6598(4) 0.6970(4)
C1A C 0.7274(5) 0.5229(4) 0.9299(5)
C2A C 0.8060(2) 0.5577(3) 0.9603(3)
C3A C 0.8526(4) 0.5726(3) 1.0237(3)
H1A H 0.8346 0.5622 1.0482
C4A C 0.9260(3) 0.6030(3) 1.0504(2)
H2A H 0.9572 0.6129 1.0928
C5A C 0.9529(2) 0.6185(3) 1.0137(3)
H3A H 1.0020 0.6388 1.0316
C6A C 0.9063(3) 0.6036(3) 0.9503(3)
C7A C 0.8329(3) 0.5732(3) 0.9236(2)
H4A H 0.8017 0.5633 0.8812
C8A C 0.9343(5) 0.6180(4) 0.9089(5)
C9A C 0.5635(5) 0.5518(6) 0.9238(6)
C10A C 0.5417(3) 0.6037(3) 0.9493(3)
C11A C 0.5404(3) 0.6193(3) 1.0067(3)
H5A H 0.5561 0.5999 1.0315
C12A C 0.5157(4) 0.6638(4) 1.0272(3)
H6A H 0.5148 0.6742 1.0657
C13A C 0.4923(4) 0.6927(3) 0.9902(3)
H7A H 0.4757 0.7224 1.0039
C14A C 0.4936(3) 0.6771(3) 0.9327(3)
C15A C 0.5183(3) 0.6327(3) 0.9122(3)
H8A H 0.5192 0.6223 0.8738
C16A C 0.4627(5) 0.7048(5) 0.8905(5)
C17A C 0.4525(6) 0.3817(5) 0.8182(6)
C18A C 0.3724(2) 0.3409(3) 0.7821(3)
C19A C 0.3469(3) 0.3077(3) 0.8091(2)
H9A H 0.3787 0.3085 0.8464
C20A C 0.2737(3) 0.2734(3) 0.7801(3)
H10A H 0.2566 0.2512 0.7981
C21A C 0.2261(2) 0.2722(3) 0.7242(3)
H11A H 0.1772 0.2493 0.7049
C22A C 0.2517(3) 0.3054(3) 0.6973(3)
C23A C 0.3248(3) 0.3397(3) 0.7263(3)
H12A H 0.3419 0.3619 0.7083
C24A C 0.2001(5) 0.3067(4) 0.6414(4)
C25A C 0.6141(5) 0.3592(5) 0.8278(5)
C26A C 0.6305(4) 0.3028(3) 0.8011(4)
C27A C 0.6400(5) 0.2659(4) 0.8314(3)
H13A H 0.6347 0.2741 0.8676
C28A C 0.6573(5) 0.2167(4) 0.8076(4)
H14A H 0.6637 0.1920 0.8278
C29A C 0.6652(4) 0.2045(3) 0.7535(4)
H15A H 0.6768 0.1716 0.7375
C30A C 0.6558(4) 0.2414(3) 0.7232(3)
C31A C 0.6384(3) 0.2906(3) 0.7470(3)
H16A H 0.6321 0.3153 0.7267
C32A C 0.6658(5) 0.2268(5) 0.6644(4)
C33A C 0.9722(5) 0.5248(4) 0.7904(4)
C34A C 0.9629(3) 0.45720(19) 0.7642(3)
C35A C 1.0209(2) 0.4437(3) 0.7915(2)
H17A H 1.0653 0.4759 0.8243
C36A C 1.0123(3) 0.3821(3) 0.7699(3)
H18A H 1.0510 0.3730 0.7882
C37A C 0.9458(4) 0.3339(2) 0.7210(3)
H19A H 0.9401 0.2926 0.7065
C38A C 0.8879(3) 0.3474(2) 0.6937(2)
C39A C 0.8965(3) 0.4090(3) 0.7153(3)
H20A H 0.8577 0.4181 0.6971
C40A C 0.8152(5) 0.2957(4) 0.6440(4)
C41A C -0.0299(6) 0.3362(4) 0.2394(5)
C42A C -0.0588(4) 0.3174(3) 0.2782(3)
C43A C -0.1318(3) 0.2876(3) 0.2535(3)
H21A H -0.1643 0.2810 0.2129
C44A C -0.1564(3) 0.2677(3) 0.2893(4)
H22A H -0.2053 0.2478 0.2728
C45A C -0.1079(4) 0.2776(3) 0.3500(3)
H23A H -0.1243 0.2643 0.3740
C46A C -0.0348(3) 0.3074(3) 0.3747(2)
C47A C -0.0102(3) 0.3274(3) 0.3388(3)
H24A H 0.0387 0.3473 0.3554
C48A C 0.0172(6) 0.3128(4) 0.4383(4)
C49A C 0.9940(6) 0.7539(4) 0.8803(5)
C50A C 1.0003(3) 0.8212(2) 0.9068(3)
C51A C 1.0612(3) 0.8692(3) 0.9636(3)
H25A H 1.0972 0.8604 0.9879
C52A C 1.0685(3) 0.9305(3) 0.9841(2)
H26A H 1.1093 0.9626 1.0221
C53A C 1.0148(3) 0.9437(2) 0.9478(3)
H27A H 1.0196 0.9847 0.9615
C54A C 0.9538(3) 0.8957(3) 0.8910(3)
C55A C 0.9465(3) 0.8344(2) 0.8705(2)
H28A H 0.9057 0.8023 0.8325
C56A C 0.8952(5) 0.9086(5) 0.8502(5)
C57A C 0.5541(5) 0.1199(4) 0.4834(4)
C58A C 0.4785(2) 0.0696(3) 0.4342(2)
C59A C 0.4639(3) 0.0092(3) 0.4257(3)
H29A H 0.4990 0.0009 0.4518
C60A C 0.3966(4) -0.0387(2) 0.3783(3)
H30A H 0.3868 -0.0790 0.3726
C61A C 0.3441(3) -0.0262(3) 0.3393(3)
H31A H 0.2991 -0.0583 0.3075
C62A C 0.3588(3) 0.0341(3) 0.3477(3)
C63A C 0.4260(3) 0.0821(2) 0.3952(3)
H32A H 0.4358 0.1224 0.4008
C64A C 0.3038(5) 0.0482(5) 0.3051(4)
C65A C 0.7005(5) 0.1846(4) 0.4633(4)
C66A C 0.7059(4) 0.1685(3) 0.4022(3)
C67A C 0.7300(4) 0.1234(3) 0.3820(3)
H33A H 0.7457 0.1045 0.4073
C68A C 0.7306(4) 0.1067(3) 0.3242(3)
H34A H 0.7468 0.0765 0.3107
C69A C 0.7071(4) 0.1350(3) 0.2865(3)
H35A H 0.7075 0.1238 0.2477
C70A C 0.6830(4) 0.1800(3) 0.3066(3)
C71A C 0.6823(4) 0.1968(3) 0.3645(3)
H36A H 0.6662 0.2269 0.3780
C72A C 0.6556(5) 0.2095(5) 0.2657(5)
C73A C 0.1427(5) 0.0768(5) 0.2951(4)
C74A C 0.1015(3) 0.0782(3) 0.3313(3)
C75A C 0.0501(4) 0.0241(2) 0.3181(3)
H37A H 0.0407 -0.0145 0.2870
C76A C 0.0127(3) 0.0277(3) 0.3514(4)
H38A H -0.0217 -0.0086 0.3425
C77A C 0.0268(3) 0.0853(4) 0.3978(3)
H39A H 0.0018 0.0877 0.4200
C78A C 0.0781(4) 0.1395(3) 0.4110(3)
C79A C 0.1155(3) 0.1359(2) 0.3777(3)
H40A H 0.1499 0.1721 0.3865
C80A C 0.0908(5) 0.2031(5) 0.4591(4)
C81A C 0.7328(5) 0.9382(5) 0.8432(5)
C82A C 0.6939(3) 0.9441(3) 0.8819(3)
C83A C 0.7174(3) 0.9990(3) 0.9372(3)
H41A H 0.7589 1.0332 0.9527
C84A C 0.6790(3) 1.0028(2) 0.9695(3)
H42A H 0.6948 1.0395 1.0065
C85A C 0.6171(3) 0.9517(3) 0.9465(3)
H43A H 0.5914 0.9542 0.9681
C86A C 0.5936(3) 0.8968(3) 0.8912(3)
C87A C 0.6320(4) 0.8930(3) 0.8589(3)
H44A H 0.6162 0.8563 0.8219
C88A C 0.5240(5) 0.8419(5) 0.8629(5)
C89A C 0.1296(5) 0.4214(5) 0.6222(5)
C90A C 0.1457(4) 0.4836(2) 0.6744(3)
C91A C 0.1053(3) 0.4877(3) 0.7047(4)
H45A H 0.0673 0.4521 0.6925
C92A C 0.1216(4) 0.5450(3) 0.7533(3)
H46A H 0.0945 0.5478 0.7736
C93A C 0.1783(4) 0.5982(3) 0.7715(3)
H47A H 0.1892 0.6366 0.8040
C94A C 0.2187(3) 0.5941(2) 0.7413(3)
C95A C 0.2024(3) 0.5368(3) 0.6927(3)
H48A H 0.2295 0.5340 0.6724
C96A C 0.2832(5) 0.6509(4) 0.7642(5)
loop_
_geom_bond_atom_site_label_1
_geom_bond_atom_site_label_2
_geom_bond_site_symmetry_1
_geom_bond_site_symmetry_2
Ru1 Ru2 1_555 1_555
Ru2 O5 1_555 1_555
Ru3 Ru4 1_555 1_555
Ru4 O15 1_555 1_555
Ru5 Ru6 1_555 1_555
Ru6 O25 1_555 1_555
Ru7 Ru8 1_555 1_555
Ru8 O35 1_555 1_555
Ru9 Ru10 1_555 1_555
Ru10 O45 1_555 1_555
Ru11 Ru12 1_555 1_555
Ru12 O55 1_555 1_555
O1 Ru1 1_555 1_555
O2 Ru1 1_555 1_555
O3 Ru1 1_555 1_555
O4 Ru1 1_555 1_555
O5 C1 1_555 1_555
O6 Ru2 1_555 1_555
O7 Ru2 1_555 1_555
O8 Ru2 1_555 1_555
O9 Ru1 1_555 1_555
O10 Ru2 1_555 1_555
O11 Ru3 1_555 1_555
O12 Ru3 1_555 1_555
O13 C41 1_555 1_555
O14 Ru3 1_555 1_555
O15 C8 1_555 1_555
O16 Ru4 1_555 1_555
O17 C41 1_555 1_555
O18 Ru4 1_555 1_555
O19 Ru3 1_555 1_555
O20 Ru4 1_555 1_555
O21 Ru5 1_555 1_555
O22 Ru5 1_555 1_555
O23 Ru5 1_555 1_555
O24 Ru5 1_555 1_555
O25 C40 1_555 1_555
O26 Ru6 1_555 1_555
O27 Ru6 1_555 1_555
O28 Ru6 1_555 1_555
O29 Ru5 1_555 1_555
O30 Ru6 1_555 1_555
O31 Ru7 1_555 1_555
O32 Ru7 1_555 1_555
O33 C56 1_555 1_555
O34 C81 1_555 1_555
O35 C64 1_555 1_555
O36 Ru8 1_555 1_555
O37 C56 1_555 1_555
O38 C81 1_555 1_555
O39 Ru7 1_555 1_555
O40 Ru8 1_555 1_555
O41 Ru9 1_555 1_555
O42 Ru9 1_555 1_555
O43 Ru9 1_555 1_555
O44 Ru9 1_555 1_555
O45 C24 1_555 1_555
O46 Ru10 1_555 1_555
O47 Ru10 1_555 1_555
O48 Ru10 1_555 1_555
O49 Ru9 1_555 1_555
O50 Ru10 1_555 1_555
O51 Ru11 1_555 1_555
O52 Ru11 1_555 1_555
O53 C72 1_555 1_555
O54 Ru11 1_555 1_555
O55 C16 1_555 1_555
O56 Ru12 1_555 1_555
O57 C72 1_555 1_555
O58 Ru12 1_555 1_555
O59 Ru11 1_555 1_555
O60 Ru12 1_555 1_555
C1 O1 1_555 1_555
C2 C1 1_555 1_555
C3 C2 1_555 1_555
H1 C3 1_555 1_555
C4 C3 1_555 1_555
H2 C4 1_555 1_555
C5 C4 1_555 1_555
H3 C5 1_555 1_555
C6 C5 1_555 1_555
C7 C2 1_555 1_555
H4 C7 1_555 1_555
C8 O11 1_555 1_555
C9 O2 1_555 1_555
C10 C9 1_555 1_555
C11 C10 1_555 1_555
H5 C11 1_555 1_555
C12 C11 1_555 1_555
H6 C12 1_555 1_555
C13 C12 1_555 1_555
H7 C13 1_555 1_555
C14 C13 1_555 1_555
C15 C10 1_555 1_555
H8 C15 1_555 1_555
C16 O51 1_555 1_555
C17 O3 1_555 1_555
C18 C17 1_555 1_555
C19 C18 1_555 1_555
H9 C19 1_555 1_555
C20 C19 1_555 1_555
H10 C20 1_555 1_555
C21 C20 1_555 1_555
H11 C21 1_555 1_555
C22 C21 1_555 1_555
C23 C18 1_555 1_555
H12 C23 1_555 1_555
C24 O41 1_555 1_555
C25 O4 1_555 1_555
C26 C25 1_555 1_555
C27 C26 1_555 1_555
H13 C27 1_555 1_555
C28 C27 1_555 1_555
H14 C28 1_555 1_555
C29 C28 1_555 1_555
H15 C29 1_555 1_555
C30 C29 1_555 1_555
C31 C26 1_555 1_555
H16 C31 1_555 1_555
C32 O22 1_555 1_555
C33 O12 1_555 1_555
C34 C33 1_555 1_555
C35 C34 1_555 1_555
H17 C35 1_555 1_555
C36 C35 1_555 1_555
H18 C36 1_555 1_555
C37 C36 1_555 1_555
H19 C37 1_555 1_555
C38 C37 1_555 1_555
C39 C34 1_555 1_555
H20 C39 1_555 1_555
C40 O21 1_555 1_555
C41 C42 1_555 1_555
C42 C43 1_555 1_555
C43 H21 1_555 1_555
C44 C43 1_555 1_555
H22 C44 1_555 1_555
C45 C44 1_555 1_555
H23 C45 1_555 1_555
C46 C45 1_555 1_555
C47 C42 1_555 1_555
H24 C47 1_555 1_555
C48 O43 1_555 1_555
C49 O14 1_555 1_555
C50 C49 1_555 1_555
C51 C50 1_555 1_555
H25 C51 1_555 1_555
C52 C51 1_555 1_555
H26 C52 1_555 1_555
C53 C52 1_555 1_555
H27 C53 1_555 1_555
C54 C53 1_555 1_555
C55 C50 1_555 1_555
H28 C55 1_555 1_555
C56 C54 1_555 1_555
C57 O23 1_555 1_555
C58 C57 1_555 1_555
C59 C58 1_555 1_555
H29 C59 1_555 1_555
C60 C59 1_555 1_555
H30 C60 1_555 1_555
C61 C60 1_555 1_555
H31 C61 1_555 1_555
C62 C61 1_555 1_555
C63 C58 1_555 1_555
H32 C63 1_555 1_555
C64 O31 1_555 1_555
C65 O24 1_555 1_555
C66 C65 1_555 1_555
C67 C66 1_555 1_555
H33 C67 1_555 1_555
C68 C67 1_555 1_555
H34 C68 1_555 1_555
C69 C68 1_555 1_555
H35 C69 1_555 1_555
C70 C69 1_555 1_555
C71 C66 1_555 1_555
H36 C71 1_555 1_555
C72 C70 1_555 1_555
C73 O32 1_555 1_555
C74 C73 1_555 1_555
C75 C74 1_555 1_555
H37 C75 1_555 1_555
C76 C75 1_555 1_555
H38 C76 1_555 1_555
C77 C76 1_555 1_555
H39 C77 1_555 1_555
C78 C77 1_555 1_555
C79 C74 1_555 1_555
H40 C79 1_555 1_555
C80 O44 1_555 1_555
C81 C82 1_555 1_555
C82 C83 1_555 1_555
C83 H41 1_555 1_555
C84 C83 1_555 1_555
H42 C84 1_555 1_555
C85 C84 1_555 1_555
H43 C85 1_555 1_555
C86 C85 1_555 1_555
C87 C82 1_555 1_555
H44 C87 1_555 1_555
C88 O52 1_555 1_555
C89 O42 1_555 1_555
C90 C89 1_555 1_555
C91 C90 1_555 1_555
H45 C91 1_555 1_555
C92 C91 1_555 1_555
H46 C92 1_555 1_555
C93 C92 1_555 1_555
H47 C93 1_555 1_555
C94 C93 1_555 1_555
C95 C90 1_555 1_555
H48 C95 1_555 1_555
C96 O54 1_555 1_555
Ru1A Ru2A 1_555 1_555
Ru2A O5A 1_555 1_555
Ru3A O13 1_555 1_555
Ru4A O17 1_555 1_555
Ru5A Ru6A 1_555 1_555
Ru6A O25A 1_555 1_555
Ru7A O33 1_555 1_555
Ru8A O37 1_555 1_555
Ru9A Ru10A 1_555 1_555
Ru10A O45A 1_555 1_555
Ru11A O53 1_555 1_555
Ru12A O57 1_555 1_555
O1A Ru1A 1_555 1_555
O2A Ru1A 1_555 1_555
O3A Ru1A 1_555 1_555
O4A Ru1A 1_555 1_555
O5A C1A 1_555 1_555
O6A Ru2A 1_555 1_555
O7A Ru2A 1_555 1_555
O8A Ru2A 1_555 1_555
O9A Ru1A 1_555 1_555
O10A Ru2A 1_555 1_555
O11A Ru3A 1_555 1_555
O12A Ru3A 1_555 1_555
O13A Ru3 1_555 1_555
O14A Ru3A 1_555 1_555
O15A Ru4A 1_555 1_555
O16A Ru4A 1_555 1_555
O17A Ru4 1_555 1_555
O18A Ru4A 1_555 1_555
O19A Ru3A 1_555 1_555
O20A Ru4A 1_555 1_555
O21A Ru5A 1_555 1_555
O22A Ru5A 1_555 1_555
O23A Ru5A 1_555 1_555
O24A Ru5A 1_555 1_555
O25A C40A 1_555 1_555
O26A Ru6A 1_555 1_555
O27A Ru6A 1_555 1_555
O28A Ru6A 1_555 1_555
O29A Ru5A 1_555 1_555
O30A Ru6A 1_555 1_555
O31A Ru7A 1_555 1_555
O32A Ru7A 1_555 1_555
O33A Ru7 1_555 1_555
O34A Ru7 1_555 1_555
O35A Ru8A 1_555 1_555
O36A Ru8A 1_555 1_555
O37A Ru8 1_555 1_555
O38A Ru8 1_555 1_555
O39A Ru7A 1_555 1_555
O40A Ru8A 1_555 1_555
O41A Ru9A 1_555 1_555
O42A Ru9A 1_555 1_555
O43A Ru9A 1_555 1_555
O44A Ru9A 1_555 1_555
O45A C24A 1_555 1_555
O46A Ru10A 1_555 1_555
O47A Ru10A 1_555 1_555
O48A Ru10A 1_555 1_555
O49A Ru9A 1_555 1_555
O50A Ru10A 1_555 1_555
O51A Ru11A 1_555 1_555
O52A Ru11A 1_555 1_555
O53A Ru11 1_555 1_555
O54A Ru11A 1_555 1_555
O55A Ru12A 1_555 1_555
O56A Ru12A 1_555 1_555
O57A Ru12 1_555 1_555
O58A Ru12A 1_555 1_555
O59A Ru11A 1_555 1_555
O60A Ru12A 1_555 1_555
C1A O1A 1_555 1_555
C2A C1A 1_555 1_555
C3A C2A 1_555 1_555
H1A C3A 1_555 1_555
C4A C3A 1_555 1_555
H2A C4A 1_555 1_555
C5A C4A 1_555 1_555
H3A C5A 1_555 1_555
C6A C5A 1_555 1_555
C7A C2A 1_555 1_555
H4A C7A 1_555 1_555
C8A O11A 1_555 1_555
C9A O2A 1_555 1_555
C10A C9A 1_555 1_555
C11A C10A 1_555 1_555
H5A C11A 1_555 1_555
C12A C11A 1_555 1_555
H6A C12A 1_555 1_555
C13A C12A 1_555 1_555
H7A C13A 1_555 1_555
C14A C13A 1_555 1_555
C15A C10A 1_555 1_555
H8A C15A 1_555 1_555
C16A O51A 1_555 1_555
C17A O3A 1_555 1_555
C18A C17A 1_555 1_555
C19A C18A 1_555 1_555
H9A C19A 1_555 1_555
C20A C19A 1_555 1_555
H10A C20A 1_555 1_555
C21A C20A 1_555 1_555
H11A C21A 1_555 1_555
C22A C21A 1_555 1_555
C23A C18A 1_555 1_555
H12A C23A 1_555 1_555
C24A O41A 1_555 1_555
C25A O4A 1_555 1_555
C26A C25A 1_555 1_555
C27A C26A 1_555 1_555
H13A C27A 1_555 1_555
C28A C27A 1_555 1_555
H14A C28A 1_555 1_555
C29A C28A 1_555 1_555
H15A C29A 1_555 1_555
C30A C29A 1_555 1_555
C31A C26A 1_555 1_555
H16A C31A 1_555 1_555
C32A O22A 1_555 1_555
C33A O12A 1_555 1_555
C34A C33A 1_555 1_555
C35A C34A 1_555 1_555
H17A C35A 1_555 1_555
C36A C35A 1_555 1_555
H18A C36A 1_555 1_555
C37A C36A 1_555 1_555
H19A C37A 1_555 1_555
C38A C37A 1_555 1_555
C39A C34A 1_555 1_555
H20A C39A 1_555 1_555
C40A O21A 1_555 1_555
C41A O13A 1_555 1_555
C42A C41A 1_555 1_555
C43A C42A 1_555 1_555
H21A C43A 1_555 1_555
C44A C43A 1_555 1_555
H22A C44A 1_555 1_555
C45A C44A 1_555 1_555
H23A C45A 1_555 1_555
C46A C45A 1_555 1_555
C47A C42A 1_555 1_555
H24A C47A 1_555 1_555
C48A O43A 1_555 1_555
C49A O14A 1_555 1_555
C50A C49A 1_555 1_555
C51A C50A 1_555 1_555
H25A C51A 1_555 1_555
C52A C51A 1_555 1_555
H26A C52A 1_555 1_555
C53A C52A 1_555 1_555
H27A C53A 1_555 1_555
C54A C53A 1_555 1_555
C55A C50A 1_555 1_555
H28A C55A 1_555 1_555
C56A O33A 1_555 1_555
C57A O23A 1_555 1_555
C58A C57A 1_555 1_555
C59A C58A 1_555 1_555
H29A C59A 1_555 1_555
C60A C59A 1_555 1_555
H30A C60A 1_555 1_555
C61A C60A 1_555 1_555
H31A C61A 1_555 1_555
C62A C61A 1_555 1_555
C63A C58A 1_555 1_555
H32A C63A 1_555 1_555
C64A O31A 1_555 1_555
C65A O24A 1_555 1_555
C66A C65A 1_555 1_555
C67A C66A 1_555 1_555
H33A C67A 1_555 1_555
C68A C67A 1_555 1_555
H34A C68A 1_555 1_555
C69A C68A 1_555 1_555
H35A C69A 1_555 1_555
C70A C69A 1_555 1_555
C71A C66A 1_555 1_555
H36A C71A 1_555 1_555
C72A O53A 1_555 1_555
C73A O32A 1_555 1_555
C74A C73A 1_555 1_555
C75A C74A 1_555 1_555
H37A C75A 1_555 1_555
C76A C75A 1_555 1_555
H38A C76A 1_555 1_555
C77A C76A 1_555 1_555
H39A C77A 1_555 1_555
C78A C77A 1_555 1_555
C79A C74A 1_555 1_555
H40A C79A 1_555 1_555
C80A O44A 1_555 1_555
C81A O34A 1_555 1_555
C82A C81A 1_555 1_555
C83A C82A 1_555 1_555
H41A C83A 1_555 1_555
C84A C83A 1_555 1_555
H42A C84A 1_555 1_555
C85A C84A 1_555 1_555
H43A C85A 1_555 1_555
C86A C85A 1_555 1_555
C87A C82A 1_555 1_555
H44A C87A 1_555 1_555
C88A O52A 1_555 1_555
C89A O42A 1_555 1_555
C90A C89A 1_555 1_555
C91A C90A 1_555 1_555
H45A C91A 1_555 1_555
C92A C91A 1_555 1_555
H46A C92A 1_555 1_555
C93A C92A 1_555 1_555
H47A C93A 1_555 1_555
C94A C93A 1_555 1_555
C95A C90A 1_555 1_555
H48A C95A 1_555 1_555
C96A O54A 1_555 1_555
O6 C9 1_555 1_555
O7 C17 1_555 1_555
O8 C25 1_555 1_555
O16 C33 1_555 1_555
O18 C49 1_555 1_555
O26 C32 1_555 1_555
O27 C57 1_555 1_555
O28 C65 1_555 1_555
O34 Ru7A 1_555 1_555
O36 C73 1_555 1_555
O38 Ru8A 1_555 1_555
O46 C89 1_555 1_555
O47 C48 1_555 1_555
O48 C80 1_555 1_555
O56 C88 1_555 1_555
O58 C96 1_555 1_555
C6 C7 1_555 1_555
C6 C8 1_555 1_555
C14 C15 1_555 1_555
C14 C16 1_555 1_555
C22 C23 1_555 1_555
C22 C24 1_555 1_555
C30 C31 1_555 1_555
C30 C32 1_555 1_555
C38 C39 1_555 1_555
C38 C40 1_555 1_555
C46 C47 1_555 1_555
C46 C48 1_555 1_555
C54 C55 1_555 1_555
C62 C63 1_555 1_555
C62 C64 1_555 1_555
C70 C71 1_555 1_555
C78 C79 1_555 1_555
C78 C80 1_555 1_555
C86 C87 1_555 1_555
C86 C88 1_555 1_555
C94 C95 1_555 1_555
C94 C96 1_555 1_555
Ru3A Ru4A 1_555 1_555
Ru7A Ru8A 1_555 1_555
Ru11A Ru12A 1_555 1_555
O6A C9A 1_555 1_555
O7A C17A 1_555 1_555
O8A C25A 1_555 1_555
O15A C8A 1_555 1_555
O16A C33A 1_555 1_555
O17A C41A 1_555 1_555
O18A C49A 1_555 1_555
O26A C32A 1_555 1_555
O27A C57A 1_555 1_555
O28A C65A 1_555 1_555
O35A C64A 1_555 1_555
O36A C73A 1_555 1_555
O37A C56A 1_555 1_555
O38A C81A 1_555 1_555
O46A C89A 1_555 1_555
O47A C48A 1_555 1_555
O48A C80A 1_555 1_555
O55A C16A 1_555 1_555
O56A C88A 1_555 1_555
O57A C72A 1_555 1_555
O58A C96A 1_555 1_555
C6A C7A 1_555 1_555
C6A C8A 1_555 1_555
C14A C15A 1_555 1_555
C14A C16A 1_555 1_555
C22A C23A 1_555 1_555
C22A C24A 1_555 1_555
C30A C31A 1_555 1_555
C30A C32A 1_555 1_555
C38A C39A 1_555 1_555
C38A C40A 1_555 1_555
C46A C47A 1_555 1_555
C46A C48A 1_555 1_555
C54A C55A 1_555 1_555
C54A C56A 1_555 1_555
C62A C63A 1_555 1_555
C62A C64A 1_555 1_555
C70A C71A 1_555 1_555
C70A C72A 1_555 1_555
C78A C79A 1_555 1_555
C78A C80A 1_555 1_555
C86A C87A 1_555 1_555
C86A C88A 1_555 1_555
C94A C95A 1_555 1_555
C94A C96A 1_555 1_555

#END
