
#######################################################################
#
#                 Cambridge Crystallographic Data Centre
#                                CCDC 
#
#######################################################################
#
# If this CIF has been generated from an entry in the Cambridge 
# Structural Database, then it will include bibliographic, chemical, 
# crystal, experimental, refinement or atomic coordinate data resulting 
# from the CCDC's data processing and validation procedures.
#
#######################################################################

data_POSDEI
_chemical_formula_moiety         'C304 H340 Cl12 N4 O108 Ru24'
_chemical_name_systematic        
'tetracosakis(\m-5-t-butylisophthalato)-tetrakis(N,N-dimethylacetamide)-dodecachloro-octa-aqua-tetracosa-ruthenium unknown solvate'
_symmetry_cell_setting           tetragonal
_symmetry_space_group_name_H-M   'I 4/m'
_symmetry_Int_Tables_number      87
_space_group_name_Hall           '-I 4'
loop_
_symmetry_equiv_pos_site_id
_symmetry_equiv_pos_as_xyz
1 x,y,z
2 -y,x,z
3 -x,-y,z
4 y,-x,z
5 1/2+x,1/2+y,1/2+z
6 1/2-y,1/2+x,1/2+z
7 1/2-x,1/2-y,1/2+z
8 1/2+y,1/2-x,1/2+z
9 -x,-y,-z
10 y,-x,-z
11 x,y,-z
12 -y,x,-z
13 1/2-x,1/2-y,1/2-z
14 1/2+y,1/2-x,1/2-z
15 1/2+x,1/2+y,1/2-z
16 1/2-y,1/2+x,1/2-z
_cell_length_a                   29.682(7)
_cell_length_b                   29.682(7)
_cell_length_c                   41.882(12)
_cell_angle_alpha                90
_cell_angle_beta                 90
_cell_angle_gamma                90
_cell_volume                     36898.9
_exptl_crystal_colour            brown
_exptl_crystal_description       Block
_cell_formula_units_Z            2
_exptl_crystal_recrystallization_method Solvothermal
_exptl_crystal_preparation       'Magnetic properties'
loop_
_atom_site_label
_atom_site_type_symbol
_atom_site_fract_x
_atom_site_fract_y
_atom_site_fract_z
Ru1 Ru 0.870536(3) 0.150733(3) 0.142006(2)
Ru2 Ru 0.834924(3) 0.192263(3) 0.180133(3)
Ru3 Ru 0.720114(4) 0.019498(5) 0.0000
Ru4 Ru 0.643580(4) 0.025442(5) 0.0000
C1 C 1.01976(9) 0.23988(10) 0.28364(7)
C2 C 1.05658(11) 0.22047(14) 0.30600(8)
H1 H 1.0486 0.1900 0.3121
H2 H 1.0589 0.2391 0.3250
H3 H 1.0853 0.2202 0.2949
C3 C 1.03165(15) 0.28877(10) 0.27663(9)
H4 H 1.0426 0.2913 0.2549
H5 H 1.0549 0.2987 0.2913
H6 H 1.0051 0.3074 0.2793
C4 C 0.97260(10) 0.23778(17) 0.30375(8)
H7 H 0.9577 0.2668 0.3027
H8 H 0.9790 0.2304 0.3259
H9 H 0.9532 0.2149 0.2946
C5 C 1.01641(6) 0.21517(7) 0.25372(4)
C6 C 1.05576(5) 0.20089(7) 0.23783(4)
H10 H 1.0838 0.2056 0.2477
C7 C 1.05450(4) 0.18048(5) 0.20860(4)
C8 C 1.01330(4) 0.17293(4) 0.19426(3)
H11 H 1.0120 0.1579 0.1745
C9 C 0.97469(5) 0.18702(5) 0.20834(4)
C10 C 0.97636(5) 0.20848(6) 0.23816(4)
H12 H 0.9495 0.2185 0.2477
C11 C 0.92990(4) 0.18113(4) 0.19189(3)
C12 C 0.87199(4) 0.24566(4) 0.12955(3)
C13 C 0.88509(5) 0.28815(4) 0.11192(4)
C14 C 0.91333(4) 0.28632(4) 0.08605(4)
H13 H 0.9236 0.2583 0.0785
C15 C 0.92656(5) 0.32494(4) 0.07129(4)
C16 C 0.90894(6) 0.36670(5) 0.08117(5)
H14 H 0.9173 0.3931 0.0703
C17 C 0.87909(7) 0.36947(5) 0.10696(5)
C18 C 0.86690(6) 0.32944(5) 0.12174(5)
H15 H 0.8461 0.3300 0.1386
C19 C 0.86120(10) 0.41342(10) 0.12010(7)
C20 C 0.87604(14) 0.45480(10) 0.09963(9)
H16 H 0.9080 0.4600 0.1025
H17 H 0.8594 0.4813 0.1064
H18 H 0.8699 0.4488 0.0773
C21 C 0.87670(14) 0.42223(13) 0.15435(7)
H19 H 0.8683 0.3969 0.1678
H20 H 0.8624 0.4494 0.1623
H21 H 0.9092 0.4259 0.1547
C22 C 0.80580(9) 0.41067(13) 0.12048(12)
H22 H 0.7952 0.3992 0.1001
H23 H 0.7935 0.4405 0.1240
H24 H 0.7961 0.3907 0.1375
C23 C 1.09739(4) 0.16686(4) 0.19266(4)
C24 C 0.77567(4) 0.16112(4) 0.13075(3)
C25 C 0.73233(4) 0.15390(5) 0.11364(3)
C26 C 0.73022(4) 0.12463(5) 0.08771(4)
H25 H 0.7567 0.1110 0.0801
C27 C 0.68906(4) 0.11537(5) 0.07292(4)
C28 C 0.65060(5) 0.13608(6) 0.08404(4)
H26 H 0.6228 0.1295 0.0743
C29 C 0.65182(5) 0.16730(7) 0.10996(5)
C30 C 0.69273(5) 0.17444(6) 0.12380(4)
H27 H 0.6943 0.1944 0.1412
C31 C 0.60708(10) 0.18624(10) 0.12473(7)
C32 C 0.61248(12) 0.23743(10) 0.12727(12)
H28 H 0.5884 0.2497 0.1403
H29 H 0.6112 0.2506 0.1061
H30 H 0.6413 0.2444 0.1370
C33 C 0.59601(12) 0.16633(14) 0.15756(7)
H31 H 0.6224 0.1513 0.1660
H32 H 0.5716 0.1448 0.1555
H33 H 0.5870 0.1903 0.1719
C34 C 0.56629(10) 0.17470(15) 0.10009(8)
H34 H 0.5621 0.1423 0.0990
H35 H 0.5737 0.1861 0.0790
H36 H 0.5387 0.1888 0.1075
C35 C 0.68680(4) 0.08380(5) 0.04614(3)
C36 C 0.54560(13) 0.0510(2) -0.04766(11)
H37 H 0.5641 0.0773 -0.0519
H38 H 0.5171 0.0540 -0.0588
H39 H 0.5611 0.0242 -0.0551
C37 C 0.53723(9) 0.04732(10) -0.01246(8)
C38 C 0.47379(14) 0.07011(12) 0.02916(9)
H40 H 0.4903 0.0579 0.0472
H41 H 0.4437 0.0574 0.0287
H42 H 0.4719 0.1026 0.0312
C39 C 0.96037(4) 0.32357(4) 0.04482(3)
N1 N 0.49691(6) 0.05880(8) 0.0000
O1 O 0.89545(3) 0.19892(3) 0.20425(2)
O2 O 0.93032(3) 0.15825(3) 0.16661(2)
O3 O 1.09347(3) 0.14426(3) 0.16682(2)
O4 O 1.13409(3) 0.17909(3) 0.20507(2)
O5 O 0.81024(3) 0.14368(3) 0.11797(2)
O6 O 0.77550(3) 0.18474(3) 0.15557(2)
O7 O 0.88483(3) 0.20928(3) 0.11734(2)
O8 O 0.84897(3) 0.25012(3) 0.15473(2)
O9 O 0.72305(3) 0.06774(3) 0.03555(2)
O10 O 0.97629(3) 0.35975(2) 0.03450(2)
O11 O 0.97144(3) 0.28413(2) 0.03501(2)
O12 O 0.64802(3) 0.07429(3) 0.03490(2)
Cl1 Cl 0.91139(4) 0.10340(4) 0.10204(2)
O13 O 0.80264(6) 0.23567(6) 0.21806(5)
Cl2 Cl 0.80569(4) 0.01388(6) 0.0000
O14 O 0.56739(4) 0.03486(6) 0.0000
C36J C 0.54560(13) 0.0510(2) 0.04766(11)
H37J H 0.5641 0.0773 0.0519
H38J H 0.5171 0.0540 0.0588
H39J H 0.5611 0.0242 0.0551
C37J C 0.53723(9) 0.04732(10) 0.01246(8)
C38J C 0.47379(14) 0.07011(12) -0.02916(9)
H40J H 0.4903 0.0579 -0.0472
H41J H 0.4437 0.0574 -0.0287
H42J H 0.4719 0.1026 -0.0312
Ru1A Ru 0.849267(3) -0.129464(3) 0.142006(2)
Ru2A Ru 0.807737(3) -0.165076(3) 0.180133(3)
Ru3A Ru 0.980502(5) -0.279886(4) 0.0000
Ru4A Ru 0.974558(5) -0.356420(4) 0.0000
C1A C 0.76012(10) 0.01976(9) 0.28364(7)
C2A C 0.77953(14) 0.05658(11) 0.30600(8)
H1A H 0.8100 0.0486 0.3121
H2A H 0.7609 0.0589 0.3250
H3A H 0.7798 0.0853 0.2949
C3A C 0.71123(10) 0.03165(15) 0.27663(9)
H4A H 0.7087 0.0426 0.2549
H5A H 0.7013 0.0549 0.2913
H6A H 0.6926 0.0051 0.2793
C4A C 0.76222(17) -0.02740(10) 0.30375(8)
H7A H 0.7332 -0.0423 0.3027
H8A H 0.7696 -0.0210 0.3259
H9A H 0.7851 -0.0468 0.2946
C5A C 0.78483(7) 0.01641(6) 0.25372(4)
C6A C 0.79911(7) 0.05576(5) 0.23783(4)
H10A H 0.7944 0.0838 0.2477
C7A C 0.81952(5) 0.05450(4) 0.20860(4)
C8A C 0.82707(4) 0.01330(4) 0.19426(3)
H11A H 0.8421 0.0120 0.1745
C9A C 0.81298(5) -0.02531(5) 0.20834(4)
C10A C 0.79152(6) -0.02364(5) 0.23816(4)
H12A H 0.7815 -0.0505 0.2477
C11A C 0.81887(4) -0.07010(4) 0.19189(3)
C12A C 0.75434(4) -0.12801(4) 0.12955(3)
C13A C 0.71185(4) -0.11491(5) 0.11192(4)
C14A C 0.71368(4) -0.08667(4) 0.08605(4)
H13A H 0.7417 -0.0764 0.0785
C15A C 0.67506(4) -0.07344(5) 0.07129(4)
C16A C 0.63330(5) -0.09106(6) 0.08117(5)
H14A H 0.6069 -0.0827 0.0703
C17A C 0.63053(5) -0.12091(7) 0.10696(5)
C18A C 0.67056(5) -0.13310(6) 0.12174(5)
H15A H 0.6700 -0.1539 0.1386
C19A C 0.58658(10) -0.13880(10) 0.12010(7)
C20A C 0.54520(10) -0.12396(14) 0.09963(9)
H16A H 0.5400 -0.0920 0.1025
H17A H 0.5187 -0.1406 0.1064
H18A H 0.5512 -0.1301 0.0773
C21A C 0.57777(13) -0.12330(14) 0.15435(7)
H19A H 0.6031 -0.1317 0.1678
H20A H 0.5506 -0.1376 0.1623
H21A H 0.5741 -0.0908 0.1547
C22A C 0.58933(13) -0.19420(9) 0.12048(12)
H22A H 0.6008 -0.2048 0.1001
H23A H 0.5595 -0.2065 0.1240
H24A H 0.6093 -0.2039 0.1375
C23A C 0.83314(4) 0.09739(4) 0.19266(4)
C24A C 0.83888(4) -0.22433(4) 0.13075(3)
C25A C 0.84610(5) -0.26767(4) 0.11364(3)
C26A C 0.87537(5) -0.26978(4) 0.08771(4)
H25A H 0.8890 -0.2433 0.0801
C27A C 0.88463(5) -0.31094(4) 0.07292(4)
C28A C 0.86392(6) -0.34940(5) 0.08404(4)
H26A H 0.8705 -0.3772 0.0743
C29A C 0.83270(7) -0.34818(5) 0.10996(5)
C30A C 0.82556(6) -0.30727(5) 0.12380(4)
H27A H 0.8056 -0.3057 0.1412
C31A C 0.81376(10) -0.39292(10) 0.12473(7)
C32A C 0.76257(10) -0.38752(12) 0.12727(12)
H28A H 0.7503 -0.4116 0.1403
H29A H 0.7494 -0.3888 0.1061
H30A H 0.7556 -0.3587 0.1370
C33A C 0.83367(14) -0.40399(12) 0.15756(7)
H31A H 0.8487 -0.3776 0.1660
H32A H 0.8552 -0.4284 0.1555
H33A H 0.8097 -0.4130 0.1719
C34A C 0.82530(15) -0.43371(10) 0.10009(8)
H34A H 0.8577 -0.4379 0.0990
H35A H 0.8139 -0.4263 0.0790
H36A H 0.8112 -0.4613 0.1075
C35A C 0.91620(5) -0.31320(4) 0.04614(3)
C36A C 0.9490(2) -0.45440(13) -0.04766(11)
H37A H 0.9227 -0.4359 -0.0519
H38A H 0.9460 -0.4829 -0.0588
H39A H 0.9758 -0.4389 -0.0551
C37A C 0.95268(10) -0.46277(9) -0.01246(8)
C38A C 0.92989(12) -0.52621(14) 0.02916(9)
H40A H 0.9421 -0.5097 0.0472
H41A H 0.9426 -0.5563 0.0287
H42A H 0.8974 -0.5281 0.0312
C39A C 0.67643(4) -0.03963(4) 0.04482(3)
N1A N 0.94120(8) -0.50309(6) 0.0000
O1A O 0.80108(3) -0.10455(3) 0.20425(2)
O2A O 0.84175(3) -0.06968(3) 0.16661(2)
O3A O 0.85574(3) 0.09347(3) 0.16682(2)
O4A O 0.82091(3) 0.13409(3) 0.20507(2)
O5A O 0.85632(3) -0.18976(3) 0.11797(2)
O6A O 0.81526(3) -0.22450(3) 0.15557(2)
O7A O 0.79072(3) -0.11517(3) 0.11734(2)
O8A O 0.74988(3) -0.15103(3) 0.15473(2)
O9A O 0.93226(3) -0.27695(3) 0.03555(2)
O10A O 0.64025(2) -0.02371(3) 0.03450(2)
O11A O 0.71587(2) -0.02856(3) 0.03501(2)
O12A O 0.92571(3) -0.35198(3) 0.03490(2)
Cl1A Cl 0.89660(4) -0.08861(4) 0.10204(2)
O13A O 0.76433(6) -0.19736(6) 0.21806(5)
Cl2A Cl 0.98612(6) -0.19431(4) 0.0000
O14A O 0.96514(6) -0.43261(4) 0.0000
C36K C 0.9490(2) -0.45440(13) 0.04766(11)
H37K H 0.9227 -0.4359 0.0519
H38K H 0.9460 -0.4829 0.0588
H39K H 0.9758 -0.4389 0.0551
C37K C 0.95268(10) -0.46277(9) 0.01246(8)
C38K C 0.92989(12) -0.52621(14) -0.02916(9)
H40K H 0.9421 -0.5097 -0.0472
H41K H 0.9426 -0.5563 -0.0287
H42K H 0.8974 -0.5281 -0.0312
Ru1B Ru 1.129464(3) -0.150733(3) 0.142006(2)
Ru2B Ru 1.165076(3) -0.192263(3) 0.180133(3)
Ru3B Ru 1.279886(4) -0.019498(5) 0.0000
Ru4B Ru 1.356420(4) -0.025442(5) 0.0000
C1B C 0.98024(9) -0.23988(10) 0.28364(7)
C2B C 0.94342(11) -0.22047(14) 0.30600(8)
H1B H 0.9514 -0.1900 0.3121
H2B H 0.9411 -0.2391 0.3250
H3B H 0.9147 -0.2202 0.2949
C3B C 0.96835(15) -0.28877(10) 0.27663(9)
H4B H 0.9574 -0.2913 0.2549
H5B H 0.9451 -0.2987 0.2913
H6B H 0.9949 -0.3074 0.2793
C4B C 1.02740(10) -0.23778(17) 0.30375(8)
H7B H 1.0423 -0.2668 0.3027
H8B H 1.0210 -0.2304 0.3259
H9B H 1.0468 -0.2149 0.2946
C5B C 0.98359(6) -0.21517(7) 0.25372(4)
C6B C 0.94424(5) -0.20089(7) 0.23783(4)
H10B H 0.9162 -0.2056 0.2477
C7B C 0.94550(4) -0.18048(5) 0.20860(4)
C8B C 0.98670(4) -0.17293(4) 0.19426(3)
H11B H 0.9880 -0.1579 0.1745
C9B C 1.02531(5) -0.18702(5) 0.20834(4)
C10B C 1.02364(5) -0.20848(6) 0.23816(4)
H12B H 1.0505 -0.2185 0.2477
C11B C 1.07010(4) -0.18113(4) 0.19189(3)
C12B C 1.12801(4) -0.24566(4) 0.12955(3)
C13B C 1.11491(5) -0.28815(4) 0.11192(4)
C14B C 1.08667(4) -0.28632(4) 0.08605(4)
H13B H 1.0764 -0.2583 0.0785
C15B C 1.07344(5) -0.32494(4) 0.07129(4)
C16B C 1.09106(6) -0.36670(5) 0.08117(5)
H14B H 1.0827 -0.3931 0.0703
C17B C 1.12091(7) -0.36947(5) 0.10696(5)
C18B C 1.13310(6) -0.32944(5) 0.12174(5)
H15B H 1.1539 -0.3300 0.1386
C19B C 1.13880(10) -0.41342(10) 0.12010(7)
C20B C 1.12396(14) -0.45480(10) 0.09963(9)
H16B H 1.0920 -0.4600 0.1025
H17B H 1.1406 -0.4813 0.1064
H18B H 1.1301 -0.4488 0.0773
C21B C 1.12330(14) -0.42223(13) 0.15435(7)
H19B H 1.1317 -0.3969 0.1678
H20B H 1.1376 -0.4494 0.1623
H21B H 1.0908 -0.4259 0.1547
C22B C 1.19420(9) -0.41067(13) 0.12048(12)
H22B H 1.2048 -0.3992 0.1001
H23B H 1.2065 -0.4405 0.1240
H24B H 1.2039 -0.3907 0.1375
C23B C 0.90261(4) -0.16686(4) 0.19266(4)
C24B C 1.22433(4) -0.16112(4) 0.13075(3)
C25B C 1.26767(4) -0.15390(5) 0.11364(3)
C26B C 1.26978(4) -0.12463(5) 0.08771(4)
H25B H 1.2433 -0.1110 0.0801
C27B C 1.31094(4) -0.11537(5) 0.07292(4)
C28B C 1.34940(5) -0.13608(6) 0.08404(4)
H26B H 1.3772 -0.1295 0.0743
C29B C 1.34818(5) -0.16730(7) 0.10996(5)
C30B C 1.30727(5) -0.17444(6) 0.12380(4)
H27B H 1.3057 -0.1944 0.1412
C31B C 1.39292(10) -0.18624(10) 0.12473(7)
C32B C 1.38752(12) -0.23743(10) 0.12727(12)
H28B H 1.4116 -0.2497 0.1403
H29B H 1.3888 -0.2506 0.1061
H30B H 1.3587 -0.2444 0.1370
C33B C 1.40399(12) -0.16633(14) 0.15756(7)
H31B H 1.3776 -0.1513 0.1660
H32B H 1.4284 -0.1448 0.1555
H33B H 1.4130 -0.1903 0.1719
C34B C 1.43371(10) -0.17470(15) 0.10009(8)
H34B H 1.4379 -0.1423 0.0990
H35B H 1.4263 -0.1861 0.0790
H36B H 1.4613 -0.1888 0.1075
C35B C 1.31320(4) -0.08380(5) 0.04614(3)
C36B C 1.45440(13) -0.0510(2) -0.04766(11)
H37B H 1.4359 -0.0773 -0.0519
H38B H 1.4829 -0.0540 -0.0588
H39B H 1.4389 -0.0242 -0.0551
C37B C 1.46277(9) -0.04732(10) -0.01246(8)
C38B C 1.52621(14) -0.07011(12) 0.02916(9)
H40B H 1.5097 -0.0579 0.0472
H41B H 1.5563 -0.0574 0.0287
H42B H 1.5281 -0.1026 0.0312
C39B C 1.03963(4) -0.32357(4) 0.04482(3)
N1B N 1.50309(6) -0.05880(8) 0.0000
O1B O 1.10455(3) -0.19892(3) 0.20425(2)
O2B O 1.06968(3) -0.15825(3) 0.16661(2)
O3B O 0.90653(3) -0.14426(3) 0.16682(2)
O4B O 0.86591(3) -0.17909(3) 0.20507(2)
O5B O 1.18976(3) -0.14368(3) 0.11797(2)
O6B O 1.22450(3) -0.18474(3) 0.15557(2)
O7B O 1.11517(3) -0.20928(3) 0.11734(2)
O8B O 1.15103(3) -0.25012(3) 0.15473(2)
O9B O 1.27695(3) -0.06774(3) 0.03555(2)
O10B O 1.02371(3) -0.35975(2) 0.03450(2)
O11B O 1.02856(3) -0.28413(2) 0.03501(2)
O12B O 1.35198(3) -0.07429(3) 0.03490(2)
Cl1B Cl 1.08861(4) -0.10340(4) 0.10204(2)
O13B O 1.19736(6) -0.23567(6) 0.21806(5)
Cl2B Cl 1.19431(4) -0.01388(6) 0.0000
O14B O 1.43261(4) -0.03486(6) 0.0000
C36H C 1.45440(13) -0.0510(2) 0.04766(11)
H37H H 1.4359 -0.0773 0.0519
H38H H 1.4829 -0.0540 0.0588
H39H H 1.4389 -0.0242 0.0551
C37H C 1.46277(9) -0.04732(10) 0.01246(8)
C38H C 1.52621(14) -0.07011(12) -0.02916(9)
H40H H 1.5097 -0.0579 -0.0472
H41H H 1.5563 -0.0574 -0.0287
H42H H 1.5281 -0.1026 -0.0312
Ru1C Ru 1.150733(3) 0.129464(3) 0.142006(2)
Ru2C Ru 1.192263(3) 0.165076(3) 0.180133(3)
Ru3C Ru 1.019498(5) 0.279886(4) 0.0000
Ru4C Ru 1.025442(5) 0.356420(4) 0.0000
C1C C 1.23988(10) -0.01976(9) 0.28364(7)
C2C C 1.22047(14) -0.05658(11) 0.30600(8)
H1C H 1.1900 -0.0486 0.3121
H2C H 1.2391 -0.0589 0.3250
H3C H 1.2202 -0.0853 0.2949
C3C C 1.28877(10) -0.03165(15) 0.27663(9)
H4C H 1.2913 -0.0426 0.2549
H5C H 1.2987 -0.0549 0.2913
H6C H 1.3074 -0.0051 0.2793
C4C C 1.23778(17) 0.02740(10) 0.30375(8)
H7C H 1.2668 0.0423 0.3027
H8C H 1.2304 0.0210 0.3259
H9C H 1.2149 0.0468 0.2946
C5C C 1.21517(7) -0.01641(6) 0.25372(4)
C6C C 1.20089(7) -0.05576(5) 0.23783(4)
H10C H 1.2056 -0.0838 0.2477
C7C C 1.18048(5) -0.05450(4) 0.20860(4)
C8C C 1.17293(4) -0.01330(4) 0.19426(3)
H11C H 1.1579 -0.0120 0.1745
C9C C 1.18702(5) 0.02531(5) 0.20834(4)
C10C C 1.20848(6) 0.02364(5) 0.23816(4)
H12C H 1.2185 0.0505 0.2477
C11C C 1.18113(4) 0.07010(4) 0.19189(3)
C12C C 1.24566(4) 0.12801(4) 0.12955(3)
C13C C 1.28815(4) 0.11491(5) 0.11192(4)
C14C C 1.28632(4) 0.08667(4) 0.08605(4)
H13C H 1.2583 0.0764 0.0785
C15C C 1.32494(4) 0.07344(5) 0.07129(4)
C16C C 1.36670(5) 0.09106(6) 0.08117(5)
H14C H 1.3931 0.0827 0.0703
C17C C 1.36947(5) 0.12091(7) 0.10696(5)
C18C C 1.32944(5) 0.13310(6) 0.12174(5)
H15C H 1.3300 0.1539 0.1386
C19C C 1.41342(10) 0.13880(10) 0.12010(7)
C20C C 1.45480(10) 0.12396(14) 0.09963(9)
H16C H 1.4600 0.0920 0.1025
H17C H 1.4813 0.1406 0.1064
H18C H 1.4488 0.1301 0.0773
C21C C 1.42223(13) 0.12330(14) 0.15435(7)
H19C H 1.3969 0.1317 0.1678
H20C H 1.4494 0.1376 0.1623
H21C H 1.4259 0.0908 0.1547
C22C C 1.41067(13) 0.19420(9) 0.12048(12)
H22C H 1.3992 0.2048 0.1001
H23C H 1.4405 0.2065 0.1240
H24C H 1.3907 0.2039 0.1375
C23C C 1.16686(4) -0.09739(4) 0.19266(4)
C24C C 1.16112(4) 0.22433(4) 0.13075(3)
C25C C 1.15390(5) 0.26767(4) 0.11364(3)
C26C C 1.12463(5) 0.26978(4) 0.08771(4)
H25C H 1.1110 0.2433 0.0801
C27C C 1.11537(5) 0.31094(4) 0.07292(4)
C28C C 1.13608(6) 0.34940(5) 0.08404(4)
H26C H 1.1295 0.3772 0.0743
C29C C 1.16730(7) 0.34818(5) 0.10996(5)
C30C C 1.17444(6) 0.30727(5) 0.12380(4)
H27C H 1.1944 0.3057 0.1412
C31C C 1.18624(10) 0.39292(10) 0.12473(7)
C32C C 1.23743(10) 0.38752(12) 0.12727(12)
H28C H 1.2497 0.4116 0.1403
H29C H 1.2506 0.3888 0.1061
H30C H 1.2444 0.3587 0.1370
C33C C 1.16633(14) 0.40399(12) 0.15756(7)
H31C H 1.1513 0.3776 0.1660
H32C H 1.1448 0.4284 0.1555
H33C H 1.1903 0.4130 0.1719
C34C C 1.17470(15) 0.43371(10) 0.10009(8)
H34C H 1.1423 0.4379 0.0990
H35C H 1.1861 0.4263 0.0790
H36C H 1.1888 0.4613 0.1075
C35C C 1.08380(5) 0.31320(4) 0.04614(3)
C36C C 1.0510(2) 0.45440(13) -0.04766(11)
H37C H 1.0773 0.4359 -0.0519
H38C H 1.0540 0.4829 -0.0588
H39C H 1.0242 0.4389 -0.0551
C37C C 1.04732(10) 0.46277(9) -0.01246(8)
C38C C 1.07011(12) 0.52621(14) 0.02916(9)
H40C H 1.0579 0.5097 0.0472
H41C H 1.0574 0.5563 0.0287
H42C H 1.1026 0.5281 0.0312
C39C C 1.32357(4) 0.03963(4) 0.04482(3)
N1C N 1.05880(8) 0.50309(6) 0.0000
O1C O 1.19892(3) 0.10455(3) 0.20425(2)
O2C O 1.15825(3) 0.06968(3) 0.16661(2)
O3C O 1.14426(3) -0.09347(3) 0.16682(2)
O4C O 1.17909(3) -0.13409(3) 0.20507(2)
O5C O 1.14368(3) 0.18976(3) 0.11797(2)
O6C O 1.18474(3) 0.22450(3) 0.15557(2)
O7C O 1.20928(3) 0.11517(3) 0.11734(2)
O8C O 1.25012(3) 0.15103(3) 0.15473(2)
O9C O 1.06774(3) 0.27695(3) 0.03555(2)
O10C O 1.35975(2) 0.02371(3) 0.03450(2)
O11C O 1.28413(2) 0.02856(3) 0.03501(2)
O12C O 1.07429(3) 0.35198(3) 0.03490(2)
Cl1C Cl 1.10340(4) 0.08861(4) 0.10204(2)
O13C O 1.23567(6) 0.19736(6) 0.21806(5)
Cl2C Cl 1.01388(6) 0.19431(4) 0.0000
O14C O 1.03486(6) 0.43261(4) 0.0000
C36I C 1.0510(2) 0.45440(13) 0.04766(11)
H37I H 1.0773 0.4359 0.0519
H38I H 1.0540 0.4829 0.0588
H39I H 1.0242 0.4389 0.0551
C37I C 1.04732(10) 0.46277(9) 0.01246(8)
C38I C 1.07011(12) 0.52621(14) -0.02916(9)
H40I H 1.0579 0.5097 -0.0472
H41I H 1.0574 0.5563 -0.0287
H42I H 1.1026 0.5281 -0.0312
Ru1H Ru 1.129464(3) -0.150733(3) -0.142006(2)
Ru2H Ru 1.165076(3) -0.192263(3) -0.180133(3)
C1H C 0.98024(9) -0.23988(10) -0.28364(7)
C2H C 0.94342(11) -0.22047(14) -0.30600(8)
H1H H 0.9514 -0.1900 -0.3121
H2H H 0.9411 -0.2391 -0.3250
H3H H 0.9147 -0.2202 -0.2949
C3H C 0.96835(15) -0.28877(10) -0.27663(9)
H4H H 0.9574 -0.2913 -0.2549
H5H H 0.9451 -0.2987 -0.2913
H6H H 0.9949 -0.3074 -0.2793
C4H C 1.02740(10) -0.23778(17) -0.30375(8)
H7H H 1.0423 -0.2668 -0.3027
H8H H 1.0210 -0.2304 -0.3259
H9H H 1.0468 -0.2149 -0.2946
C5H C 0.98359(6) -0.21517(7) -0.25372(4)
C6H C 0.94424(5) -0.20089(7) -0.23783(4)
H10H H 0.9162 -0.2056 -0.2477
C7H C 0.94550(4) -0.18048(5) -0.20860(4)
C8H C 0.98670(4) -0.17293(4) -0.19426(3)
H11H H 0.9880 -0.1579 -0.1745
C9H C 1.02531(5) -0.18702(5) -0.20834(4)
C10H C 1.02364(5) -0.20848(6) -0.23816(4)
H12H H 1.0505 -0.2185 -0.2477
C11H C 1.07010(4) -0.18113(4) -0.19189(3)
C12H C 1.12801(4) -0.24566(4) -0.12955(3)
C13H C 1.11491(5) -0.28815(4) -0.11192(4)
C14H C 1.08667(4) -0.28632(4) -0.08605(4)
H13H H 1.0764 -0.2583 -0.0785
C15H C 1.07344(5) -0.32494(4) -0.07129(4)
C16H C 1.09106(6) -0.36670(5) -0.08117(5)
H14H H 1.0827 -0.3931 -0.0703
C17H C 1.12091(7) -0.36947(5) -0.10696(5)
C18H C 1.13310(6) -0.32944(5) -0.12174(5)
H15H H 1.1539 -0.3300 -0.1386
C19H C 1.13880(10) -0.41342(10) -0.12010(7)
C20H C 1.12396(14) -0.45480(10) -0.09963(9)
H16H H 1.0920 -0.4600 -0.1025
H17H H 1.1406 -0.4813 -0.1064
H18H H 1.1301 -0.4488 -0.0773
C21H C 1.12330(14) -0.42223(13) -0.15435(7)
H19H H 1.1317 -0.3969 -0.1678
H20H H 1.1376 -0.4494 -0.1623
H21H H 1.0908 -0.4259 -0.1547
C22H C 1.19420(9) -0.41067(13) -0.12048(12)
H22H H 1.2048 -0.3992 -0.1001
H23H H 1.2065 -0.4405 -0.1240
H24H H 1.2039 -0.3907 -0.1375
C23H C 0.90261(4) -0.16686(4) -0.19266(4)
C24H C 1.22433(4) -0.16112(4) -0.13075(3)
C25H C 1.26767(4) -0.15390(5) -0.11364(3)
C26H C 1.26978(4) -0.12463(5) -0.08771(4)
H25H H 1.2433 -0.1110 -0.0801
C27H C 1.31094(4) -0.11537(5) -0.07292(4)
C28H C 1.34940(5) -0.13608(6) -0.08404(4)
H26H H 1.3772 -0.1295 -0.0743
C29H C 1.34818(5) -0.16730(7) -0.10996(5)
C30H C 1.30727(5) -0.17444(6) -0.12380(4)
H27H H 1.3057 -0.1944 -0.1412
C31H C 1.39292(10) -0.18624(10) -0.12473(7)
C32H C 1.38752(12) -0.23743(10) -0.12727(12)
H28H H 1.4116 -0.2497 -0.1403
H29H H 1.3888 -0.2506 -0.1061
H30H H 1.3587 -0.2444 -0.1370
C33H C 1.40399(12) -0.16633(14) -0.15756(7)
H31H H 1.3776 -0.1513 -0.1660
H32H H 1.4284 -0.1448 -0.1555
H33H H 1.4130 -0.1903 -0.1719
C34H C 1.43371(10) -0.17470(15) -0.10009(8)
H34H H 1.4379 -0.1423 -0.0990
H35H H 1.4263 -0.1861 -0.0790
H36H H 1.4613 -0.1888 -0.1075
C35H C 1.31320(4) -0.08380(5) -0.04614(3)
C39H C 1.03963(4) -0.32357(4) -0.04482(3)
O1H O 1.10455(3) -0.19892(3) -0.20425(2)
O2H O 1.06968(3) -0.15825(3) -0.16661(2)
O3H O 0.90653(3) -0.14426(3) -0.16682(2)
O4H O 0.86591(3) -0.17909(3) -0.20507(2)
O5H O 1.18976(3) -0.14368(3) -0.11797(2)
O6H O 1.22450(3) -0.18474(3) -0.15557(2)
O7H O 1.11517(3) -0.20928(3) -0.11734(2)
O8H O 1.15103(3) -0.25012(3) -0.15473(2)
O9H O 1.27695(3) -0.06774(3) -0.03555(2)
O10H O 1.02371(3) -0.35975(2) -0.03450(2)
O11H O 1.02856(3) -0.28413(2) -0.03501(2)
O12H O 1.35198(3) -0.07429(3) -0.03490(2)
Cl1H Cl 1.08861(4) -0.10340(4) -0.10204(2)
O13H O 1.19736(6) -0.23567(6) -0.21806(5)
Ru1I Ru 1.150733(3) 0.129464(3) -0.142006(2)
Ru2I Ru 1.192263(3) 0.165076(3) -0.180133(3)
C1I C 1.23988(10) -0.01976(9) -0.28364(7)
C2I C 1.22047(14) -0.05658(11) -0.30600(8)
H1I H 1.1900 -0.0486 -0.3121
H2I H 1.2391 -0.0589 -0.3250
H3I H 1.2202 -0.0853 -0.2949
C3I C 1.28877(10) -0.03165(15) -0.27663(9)
H4I H 1.2913 -0.0426 -0.2549
H5I H 1.2987 -0.0549 -0.2913
H6I H 1.3074 -0.0051 -0.2793
C4I C 1.23778(17) 0.02740(10) -0.30375(8)
H7I H 1.2668 0.0423 -0.3027
H8I H 1.2304 0.0210 -0.3259
H9I H 1.2149 0.0468 -0.2946
C5I C 1.21517(7) -0.01641(6) -0.25372(4)
C6I C 1.20089(7) -0.05576(5) -0.23783(4)
H10I H 1.2056 -0.0838 -0.2477
C7I C 1.18048(5) -0.05450(4) -0.20860(4)
C8I C 1.17293(4) -0.01330(4) -0.19426(3)
H11I H 1.1579 -0.0120 -0.1745
C9I C 1.18702(5) 0.02531(5) -0.20834(4)
C10I C 1.20848(6) 0.02364(5) -0.23816(4)
H12I H 1.2185 0.0505 -0.2477
C11I C 1.18113(4) 0.07010(4) -0.19189(3)
C12I C 1.24566(4) 0.12801(4) -0.12955(3)
C13I C 1.28815(4) 0.11491(5) -0.11192(4)
C14I C 1.28632(4) 0.08667(4) -0.08605(4)
H13I H 1.2583 0.0764 -0.0785
C15I C 1.32494(4) 0.07344(5) -0.07129(4)
C16I C 1.36670(5) 0.09106(6) -0.08117(5)
H14I H 1.3931 0.0827 -0.0703
C17I C 1.36947(5) 0.12091(7) -0.10696(5)
C18I C 1.32944(5) 0.13310(6) -0.12174(5)
H15I H 1.3300 0.1539 -0.1386
C19I C 1.41342(10) 0.13880(10) -0.12010(7)
C20I C 1.45480(10) 0.12396(14) -0.09963(9)
H16I H 1.4600 0.0920 -0.1025
H17I H 1.4813 0.1406 -0.1064
H18I H 1.4488 0.1301 -0.0773
C21I C 1.42223(13) 0.12330(14) -0.15435(7)
H19I H 1.3969 0.1317 -0.1678
H20I H 1.4494 0.1376 -0.1623
H21I H 1.4259 0.0908 -0.1547
C22I C 1.41067(13) 0.19420(9) -0.12048(12)
H22I H 1.3992 0.2048 -0.1001
H23I H 1.4405 0.2065 -0.1240
H24I H 1.3907 0.2039 -0.1375
C23I C 1.16686(4) -0.09739(4) -0.19266(4)
C24I C 1.16112(4) 0.22433(4) -0.13075(3)
C25I C 1.15390(5) 0.26767(4) -0.11364(3)
C26I C 1.12463(5) 0.26978(4) -0.08771(4)
H25I H 1.1110 0.2433 -0.0801
C27I C 1.11537(5) 0.31094(4) -0.07292(4)
C28I C 1.13608(6) 0.34940(5) -0.08404(4)
H26I H 1.1295 0.3772 -0.0743
C29I C 1.16730(7) 0.34818(5) -0.10996(5)
C30I C 1.17444(6) 0.30727(5) -0.12380(4)
H27I H 1.1944 0.3057 -0.1412
C31I C 1.18624(10) 0.39292(10) -0.12473(7)
C32I C 1.23743(10) 0.38752(12) -0.12727(12)
H28I H 1.2497 0.4116 -0.1403
H29I H 1.2506 0.3888 -0.1061
H30I H 1.2444 0.3587 -0.1370
C33I C 1.16633(14) 0.40399(12) -0.15756(7)
H31I H 1.1513 0.3776 -0.1660
H32I H 1.1448 0.4284 -0.1555
H33I H 1.1903 0.4130 -0.1719
C34I C 1.17470(15) 0.43371(10) -0.10009(8)
H34I H 1.1423 0.4379 -0.0990
H35I H 1.1861 0.4263 -0.0790
H36I H 1.1888 0.4613 -0.1075
C35I C 1.08380(5) 0.31320(4) -0.04614(3)
C39I C 1.32357(4) 0.03963(4) -0.04482(3)
O1I O 1.19892(3) 0.10455(3) -0.20425(2)
O2I O 1.15825(3) 0.06968(3) -0.16661(2)
O3I O 1.14426(3) -0.09347(3) -0.16682(2)
O4I O 1.17909(3) -0.13409(3) -0.20507(2)
O5I O 1.14368(3) 0.18976(3) -0.11797(2)
O6I O 1.18474(3) 0.22450(3) -0.15557(2)
O7I O 1.20928(3) 0.11517(3) -0.11734(2)
O8I O 1.25012(3) 0.15103(3) -0.15473(2)
O9I O 1.06774(3) 0.27695(3) -0.03555(2)
O10I O 1.35975(2) 0.02371(3) -0.03450(2)
O11I O 1.28413(2) 0.02856(3) -0.03501(2)
O12I O 1.07429(3) 0.35198(3) -0.03490(2)
Cl1I Cl 1.10340(4) 0.08861(4) -0.10204(2)
O13I O 1.23567(6) 0.19736(6) -0.21806(5)
Ru1J Ru 0.870536(3) 0.150733(3) -0.142006(2)
Ru2J Ru 0.834924(3) 0.192263(3) -0.180133(3)
C1J C 1.01976(9) 0.23988(10) -0.28364(7)
C2J C 1.05658(11) 0.22047(14) -0.30600(8)
H1J H 1.0486 0.1900 -0.3121
H2J H 1.0589 0.2391 -0.3250
H3J H 1.0853 0.2202 -0.2949
C3J C 1.03165(15) 0.28877(10) -0.27663(9)
H4J H 1.0426 0.2913 -0.2549
H5J H 1.0549 0.2987 -0.2913
H6J H 1.0051 0.3074 -0.2793
C4J C 0.97260(10) 0.23778(17) -0.30375(8)
H7J H 0.9577 0.2668 -0.3027
H8J H 0.9790 0.2304 -0.3259
H9J H 0.9532 0.2149 -0.2946
C5J C 1.01641(6) 0.21517(7) -0.25372(4)
C6J C 1.05576(5) 0.20089(7) -0.23783(4)
H10J H 1.0838 0.2056 -0.2477
C7J C 1.05450(4) 0.18048(5) -0.20860(4)
C8J C 1.01330(4) 0.17293(4) -0.19426(3)
H11J H 1.0120 0.1579 -0.1745
C9J C 0.97469(5) 0.18702(5) -0.20834(4)
C10J C 0.97636(5) 0.20848(6) -0.23816(4)
H12J H 0.9495 0.2185 -0.2477
C11J C 0.92990(4) 0.18113(4) -0.19189(3)
C12J C 0.87199(4) 0.24566(4) -0.12955(3)
C13J C 0.88509(5) 0.28815(4) -0.11192(4)
C14J C 0.91333(4) 0.28632(4) -0.08605(4)
H13J H 0.9236 0.2583 -0.0785
C15J C 0.92656(5) 0.32494(4) -0.07129(4)
C16J C 0.90894(6) 0.36670(5) -0.08117(5)
H14J H 0.9173 0.3931 -0.0703
C17J C 0.87909(7) 0.36947(5) -0.10696(5)
C18J C 0.86690(6) 0.32944(5) -0.12174(5)
H15J H 0.8461 0.3300 -0.1386
C19J C 0.86120(10) 0.41342(10) -0.12010(7)
C20J C 0.87604(14) 0.45480(10) -0.09963(9)
H16J H 0.9080 0.4600 -0.1025
H17J H 0.8594 0.4813 -0.1064
H18J H 0.8699 0.4488 -0.0773
C21J C 0.87670(14) 0.42223(13) -0.15435(7)
H19J H 0.8683 0.3969 -0.1678
H20J H 0.8624 0.4494 -0.1623
H21J H 0.9092 0.4259 -0.1547
C22J C 0.80580(9) 0.41067(13) -0.12048(12)
H22J H 0.7952 0.3992 -0.1001
H23J H 0.7935 0.4405 -0.1240
H24J H 0.7961 0.3907 -0.1375
C23J C 1.09739(4) 0.16686(4) -0.19266(4)
C24J C 0.77567(4) 0.16112(4) -0.13075(3)
C25J C 0.73233(4) 0.15390(5) -0.11364(3)
C26J C 0.73022(4) 0.12463(5) -0.08771(4)
H25J H 0.7567 0.1110 -0.0801
C27J C 0.68906(4) 0.11537(5) -0.07292(4)
C28J C 0.65060(5) 0.13608(6) -0.08404(4)
H26J H 0.6228 0.1295 -0.0743
C29J C 0.65182(5) 0.16730(7) -0.10996(5)
C30J C 0.69273(5) 0.17444(6) -0.12380(4)
H27J H 0.6943 0.1944 -0.1412
C31J C 0.60708(10) 0.18624(10) -0.12473(7)
C32J C 0.61248(12) 0.23743(10) -0.12727(12)
H28J H 0.5884 0.2497 -0.1403
H29J H 0.6112 0.2506 -0.1061
H30J H 0.6413 0.2444 -0.1370
C33J C 0.59601(12) 0.16633(14) -0.15756(7)
H31J H 0.6224 0.1513 -0.1660
H32J H 0.5716 0.1448 -0.1555
H33J H 0.5870 0.1903 -0.1719
C34J C 0.56629(10) 0.17470(15) -0.10009(8)
H34J H 0.5621 0.1423 -0.0990
H35J H 0.5737 0.1861 -0.0790
H36J H 0.5387 0.1888 -0.1075
C35J C 0.68680(4) 0.08380(5) -0.04614(3)
C39J C 0.96037(4) 0.32357(4) -0.04482(3)
O1J O 0.89545(3) 0.19892(3) -0.20425(2)
O2J O 0.93032(3) 0.15825(3) -0.16661(2)
O3J O 1.09347(3) 0.14426(3) -0.16682(2)
O4J O 1.13409(3) 0.17909(3) -0.20507(2)
O5J O 0.81024(3) 0.14368(3) -0.11797(2)
O6J O 0.77550(3) 0.18474(3) -0.15557(2)
O7J O 0.88483(3) 0.20928(3) -0.11734(2)
O8J O 0.84897(3) 0.25012(3) -0.15473(2)
O9J O 0.72305(3) 0.06774(3) -0.03555(2)
O10J O 0.97629(3) 0.35975(2) -0.03450(2)
O11J O 0.97144(3) 0.28413(2) -0.03501(2)
O12J O 0.64802(3) 0.07429(3) -0.03490(2)
Cl1J Cl 0.91139(4) 0.10340(4) -0.10204(2)
O13J O 0.80264(6) 0.23567(6) -0.21806(5)
Ru1K Ru 0.849267(3) -0.129464(3) -0.142006(2)
Ru2K Ru 0.807737(3) -0.165076(3) -0.180133(3)
C1K C 0.76012(10) 0.01976(9) -0.28364(7)
C2K C 0.77953(14) 0.05658(11) -0.30600(8)
H1K H 0.8100 0.0486 -0.3121
H2K H 0.7609 0.0589 -0.3250
H3K H 0.7798 0.0853 -0.2949
C3K C 0.71123(10) 0.03165(15) -0.27663(9)
H4K H 0.7087 0.0426 -0.2549
H5K H 0.7013 0.0549 -0.2913
H6K H 0.6926 0.0051 -0.2793
C4K C 0.76222(17) -0.02740(10) -0.30375(8)
H7K H 0.7332 -0.0423 -0.3027
H8K H 0.7696 -0.0210 -0.3259
H9K H 0.7851 -0.0468 -0.2946
C5K C 0.78483(7) 0.01641(6) -0.25372(4)
C6K C 0.79911(7) 0.05576(5) -0.23783(4)
H10K H 0.7944 0.0838 -0.2477
C7K C 0.81952(5) 0.05450(4) -0.20860(4)
C8K C 0.82707(4) 0.01330(4) -0.19426(3)
H11K H 0.8421 0.0120 -0.1745
C9K C 0.81298(5) -0.02531(5) -0.20834(4)
C10K C 0.79152(6) -0.02364(5) -0.23816(4)
H12K H 0.7815 -0.0505 -0.2477
C11K C 0.81887(4) -0.07010(4) -0.19189(3)
C12K C 0.75434(4) -0.12801(4) -0.12955(3)
C13K C 0.71185(4) -0.11491(5) -0.11192(4)
C14K C 0.71368(4) -0.08667(4) -0.08605(4)
H13K H 0.7417 -0.0764 -0.0785
C15K C 0.67506(4) -0.07344(5) -0.07129(4)
C16K C 0.63330(5) -0.09106(6) -0.08117(5)
H14K H 0.6069 -0.0827 -0.0703
C17K C 0.63053(5) -0.12091(7) -0.10696(5)
C18K C 0.67056(5) -0.13310(6) -0.12174(5)
H15K H 0.6700 -0.1539 -0.1386
C19K C 0.58658(10) -0.13880(10) -0.12010(7)
C20K C 0.54520(10) -0.12396(14) -0.09963(9)
H16K H 0.5400 -0.0920 -0.1025
H17K H 0.5187 -0.1406 -0.1064
H18K H 0.5512 -0.1301 -0.0773
C21K C 0.57777(13) -0.12330(14) -0.15435(7)
H19K H 0.6031 -0.1317 -0.1678
H20K H 0.5506 -0.1376 -0.1623
H21K H 0.5741 -0.0908 -0.1547
C22K C 0.58933(13) -0.19420(9) -0.12048(12)
H22K H 0.6008 -0.2048 -0.1001
H23K H 0.5595 -0.2065 -0.1240
H24K H 0.6093 -0.2039 -0.1375
C23K C 0.83314(4) 0.09739(4) -0.19266(4)
C24K C 0.83888(4) -0.22433(4) -0.13075(3)
C25K C 0.84610(5) -0.26767(4) -0.11364(3)
C26K C 0.87537(5) -0.26978(4) -0.08771(4)
H25K H 0.8890 -0.2433 -0.0801
C27K C 0.88463(5) -0.31094(4) -0.07292(4)
C28K C 0.86392(6) -0.34940(5) -0.08404(4)
H26K H 0.8705 -0.3772 -0.0743
C29K C 0.83270(7) -0.34818(5) -0.10996(5)
C30K C 0.82556(6) -0.30727(5) -0.12380(4)
H27K H 0.8056 -0.3057 -0.1412
C31K C 0.81376(10) -0.39292(10) -0.12473(7)
C32K C 0.76257(10) -0.38752(12) -0.12727(12)
H28K H 0.7503 -0.4116 -0.1403
H29K H 0.7494 -0.3888 -0.1061
H30K H 0.7556 -0.3587 -0.1370
C33K C 0.83367(14) -0.40399(12) -0.15756(7)
H31K H 0.8487 -0.3776 -0.1660
H32K H 0.8552 -0.4284 -0.1555
H33K H 0.8097 -0.4130 -0.1719
C34K C 0.82530(15) -0.43371(10) -0.10009(8)
H34K H 0.8577 -0.4379 -0.0990
H35K H 0.8139 -0.4263 -0.0790
H36K H 0.8112 -0.4613 -0.1075
C35K C 0.91620(5) -0.31320(4) -0.04614(3)
C39K C 0.67643(4) -0.03963(4) -0.04482(3)
O1K O 0.80108(3) -0.10455(3) -0.20425(2)
O2K O 0.84175(3) -0.06968(3) -0.16661(2)
O3K O 0.85574(3) 0.09347(3) -0.16682(2)
O4K O 0.82091(3) 0.13409(3) -0.20507(2)
O5K O 0.85632(3) -0.18976(3) -0.11797(2)
O6K O 0.81526(3) -0.22450(3) -0.15557(2)
O7K O 0.79072(3) -0.11517(3) -0.11734(2)
O8K O 0.74988(3) -0.15103(3) -0.15473(2)
O9K O 0.93226(3) -0.27695(3) -0.03555(2)
O10K O 0.64025(2) -0.02371(3) -0.03450(2)
O11K O 0.71587(2) -0.02856(3) -0.03501(2)
O12K O 0.92571(3) -0.35198(3) -0.03490(2)
Cl1K Cl 0.89660(4) -0.08861(4) -0.10204(2)
O13K O 0.76433(6) -0.19736(6) -0.21806(5)
C40? C 1.01722(9) 0.23371(11) 0.29122(9)
C41? C 1.06586(10) 0.24753(18) 0.30043(10)
H43? H 1.0677 0.2516 0.3234
H44? H 1.0736 0.2755 0.2898
H45? H 1.0867 0.2241 0.2939
C42? C 0.98919(14) 0.28170(11) 0.28524(11)
H46? H 0.9583 0.2750 0.2793
H47? H 1.0036 0.2986 0.2682
H48? H 0.9894 0.2994 0.3047
C43? C 0.98775(13) 0.20517(13) 0.31202(9)
H49? H 0.9951 0.1737 0.3088
H50? H 0.9564 0.2103 0.3065
H51? H 0.9926 0.2131 0.3342
C44? C 0.85941(11) 0.41534(12) 0.11460(7)
C45? C 0.83768(15) 0.43929(13) 0.08465(8)
H52? H 0.8276 0.4167 0.0695
H53? H 0.8599 0.4585 0.0746
H54? H 0.8122 0.4574 0.0915
C46? C 0.90362(11) 0.44883(12) 0.12308(13)
H55? H 0.8933 0.4751 0.1348
H56? H 0.9179 0.4584 0.1034
H57? H 0.9252 0.4323 0.1360
C47? C 0.83528(15) 0.41469(15) 0.14596(8)
H58? H 0.8059 0.4008 0.1433
H59? H 0.8316 0.4453 0.1536
H60? H 0.8527 0.3975 0.1613
C48? C 0.60792(11) 0.19688(11) 0.11785(7)
C49? C 0.61536(14) 0.22200(15) 0.14991(8)
H61? H 0.6379 0.2453 0.1470
H62? H 0.6256 0.2008 0.1660
H63? H 0.5872 0.2356 0.1568
C50? C 0.57038(11) 0.15738(12) 0.12788(12)
H64? H 0.5405 0.1707 0.1288
H65? H 0.5781 0.1450 0.1486
H66? H 0.5707 0.1335 0.1121
C51? C 0.58736(13) 0.22129(15) 0.09022(8)
H67? H 0.5605 0.2371 0.0973
H68? H 0.5793 0.1998 0.0737
H69? H 0.6089 0.2428 0.0817
C52? C 0.80841(18) 0.25860(17) 0.23819(14)
C53? C 0.83254(17) 0.23492(17) 0.26460(13)
H70? H 0.8257 0.2030 0.2638
H71? H 0.8228 0.2471 0.2850
H72? H 0.8648 0.2393 0.2622
C54? C 0.7922(2) 0.2729(2) 0.22726(15)
C55? C 0.76646(19) 0.29495(18) 0.19722(14)
H73? H 0.7618 0.2721 0.1810
H74? H 0.7845 0.3192 0.1885
H75? H 0.7376 0.3067 0.2041
C56? C 0.80430(9) 0.31144(9) 0.28430(7)
H76? H 0.8312 0.3299 0.2833
H77? H 0.8091 0.2868 0.2992
H78? H 0.7791 0.3297 0.2915
C57? C 0.77552(9) 0.33940(8) 0.25505(7)
H79? H 0.7627 0.3484 0.2347
H80? H 0.7994 0.3602 0.2609
H81? H 0.7523 0.3398 0.2713
N2? N 0.79432(7) 0.29300(8) 0.25225(6)
loop_
_geom_bond_atom_site_label_1
_geom_bond_atom_site_label_2
_geom_bond_site_symmetry_1
_geom_bond_site_symmetry_2
Ru1 O2 1_555 1_555
Ru2 O1 1_555 1_555
Ru3 O9 1_555 1_555
Ru4 O12 1_555 1_555
C1 C2 1_555 1_555
C2 H1 1_555 1_555
H2 C2 1_555 1_555
H3 C2 1_555 1_555
C3 C1 1_555 1_555
H4 C3 1_555 1_555
H5 C3 1_555 1_555
H6 C3 1_555 1_555
C4 C1 1_555 1_555
H7 C4 1_555 1_555
H8 C4 1_555 1_555
H9 C4 1_555 1_555
C5 C1 1_555 1_555
C6 C5 1_555 1_555
H10 C6 1_555 1_555
C7 C6 1_555 1_555
C8 C7 1_555 1_555
H11 C8 1_555 1_555
C9 C8 1_555 1_555
C10 C5 1_555 1_555
H12 C10 1_555 1_555
C11 C9 1_555 1_555
C12 C13 1_555 1_555
C13 C14 1_555 1_555
C14 H13 1_555 1_555
C15 C14 1_555 1_555
C16 C15 1_555 1_555
H14 C16 1_555 1_555
C17 C16 1_555 1_555
C18 C13 1_555 1_555
H15 C18 1_555 1_555
C19 C17 1_555 1_555
C20 C19 1_555 1_555
H16 C20 1_555 1_555
H17 C20 1_555 1_555
H18 C20 1_555 1_555
C21 C19 1_555 1_555
H19 C21 1_555 1_555
H20 C21 1_555 1_555
H21 C21 1_555 1_555
C22 C19 1_555 1_555
H22 C22 1_555 1_555
H23 C22 1_555 1_555
H24 C22 1_555 1_555
C23 C7 1_555 1_555
C24 C25 1_555 1_555
C25 C26 1_555 1_555
C26 H25 1_555 1_555
C27 C26 1_555 1_555
C28 C27 1_555 1_555
H26 C28 1_555 1_555
C29 C28 1_555 1_555
C30 C25 1_555 1_555
H27 C30 1_555 1_555
C31 C29 1_555 1_555
C32 C31 1_555 1_555
H28 C32 1_555 1_555
H29 C32 1_555 1_555
H30 C32 1_555 1_555
C33 C31 1_555 1_555
H31 C33 1_555 1_555
H32 C33 1_555 1_555
H33 C33 1_555 1_555
C34 C31 1_555 1_555
H34 C34 1_555 1_555
H35 C34 1_555 1_555
H36 C34 1_555 1_555
C35 C27 1_555 1_555
C36 H37 1_555 1_555
H38 C36 1_555 1_555
H39 C36 1_555 1_555
C37 C36 1_555 1_555
C38 H40 1_555 1_555
H41 C38 1_555 1_555
H42 C38 1_555 1_555
C39 C15 1_555 1_555
N1 C37 1_555 1_555
O1 C11 1_555 1_555
O2 C11 1_555 1_555
O3 C23 1_555 1_555
O4 C23 1_555 1_555
O5 Ru1 1_555 1_555
O6 Ru2 1_555 1_555
O7 Ru1 1_555 1_555
O8 Ru2 1_555 1_555
O9 C35 1_555 1_555
O10 C39 1_555 1_555
O11 C39 1_555 1_555
O12 C35 1_555 1_555
Cl1 Ru1 1_555 1_555
O13 Ru2 1_555 1_555
Cl2 Ru3 1_555 1_555
O14 Ru4 1_555 1_555
C36J H37J 1_555 1_555
H38J C36J 1_555 1_555
H39J C36J 1_555 1_555
C37J C37 1_555 1_555
C38J N1 1_555 1_555
H40J C38J 1_555 1_555
H41J C38J 1_555 1_555
H42J C38J 1_555 1_555
Ru1A O2A 1_555 1_555
Ru2A O1A 1_555 1_555
Ru3A O9A 1_555 1_555
Ru4A O12A 1_555 1_555
C1A C2A 1_555 1_555
C2A H1A 1_555 1_555
H2A C2A 1_555 1_555
H3A C2A 1_555 1_555
C3A C1A 1_555 1_555
H4A C3A 1_555 1_555
H5A C3A 1_555 1_555
H6A C3A 1_555 1_555
C4A C1A 1_555 1_555
H7A C4A 1_555 1_555
H8A C4A 1_555 1_555
H9A C4A 1_555 1_555
C5A C1A 1_555 1_555
C6A C5A 1_555 1_555
H10A C6A 1_555 1_555
C7A C6A 1_555 1_555
C8A C7A 1_555 1_555
H11A C8A 1_555 1_555
C9A C8A 1_555 1_555
C10A C5A 1_555 1_555
H12A C10A 1_555 1_555
C11A C9A 1_555 1_555
C12A C13A 1_555 1_555
C13A C14A 1_555 1_555
C14A H13A 1_555 1_555
C15A C14A 1_555 1_555
C16A C15A 1_555 1_555
H14A C16A 1_555 1_555
C17A C16A 1_555 1_555
C18A C13A 1_555 1_555
H15A C18A 1_555 1_555
C19A C17A 1_555 1_555
C20A C19A 1_555 1_555
H16A C20A 1_555 1_555
H17A C20A 1_555 1_555
H18A C20A 1_555 1_555
C21A C19A 1_555 1_555
H19A C21A 1_555 1_555
H20A C21A 1_555 1_555
H21A C21A 1_555 1_555
C22A C19A 1_555 1_555
H22A C22A 1_555 1_555
H23A C22A 1_555 1_555
H24A C22A 1_555 1_555
C23A C7A 1_555 1_555
C24A C25A 1_555 1_555
C25A C26A 1_555 1_555
C26A H25A 1_555 1_555
C27A C26A 1_555 1_555
C28A C27A 1_555 1_555
H26A C28A 1_555 1_555
C29A C28A 1_555 1_555
C30A C25A 1_555 1_555
H27A C30A 1_555 1_555
C31A C29A 1_555 1_555
C32A C31A 1_555 1_555
H28A C32A 1_555 1_555
H29A C32A 1_555 1_555
H30A C32A 1_555 1_555
C33A C31A 1_555 1_555
H31A C33A 1_555 1_555
H32A C33A 1_555 1_555
H33A C33A 1_555 1_555
C34A C31A 1_555 1_555
H34A C34A 1_555 1_555
H35A C34A 1_555 1_555
H36A C34A 1_555 1_555
C35A C27A 1_555 1_555
C36A H37A 1_555 1_555
H38A C36A 1_555 1_555
H39A C36A 1_555 1_555
C37A C36A 1_555 1_555
C38A H40A 1_555 1_555
H41A C38A 1_555 1_555
H42A C38A 1_555 1_555
C39A C15A 1_555 1_555
N1A C37A 1_555 1_555
O1A C11A 1_555 1_555
O2A C11A 1_555 1_555
O3A Ru1 1_555 1_555
O4A Ru2 1_555 1_555
O5A Ru1A 1_555 1_555
O6A Ru2A 1_555 1_555
O7A Ru1A 1_555 1_555
O8A Ru2A 1_555 1_555
O9A C35A 1_555 1_555
O10A Ru4 1_555 1_555
O11A Ru3 1_555 1_555
O12A C35A 1_555 1_555
Cl1A Ru1A 1_555 1_555
O13A Ru2A 1_555 1_555
Cl2A Ru3A 1_555 1_555
O14A Ru4A 1_555 1_555
C36K H37K 1_555 1_555
H38K C36K 1_555 1_555
H39K C36K 1_555 1_555
C37K C37A 1_555 1_555
C38K N1A 1_555 1_555
H40K C38K 1_555 1_555
H41K C38K 1_555 1_555
H42K C38K 1_555 1_555
Ru1B O2B 1_555 1_555
Ru2B O1B 1_555 1_555
Ru3B O9B 1_555 1_555
Ru4B O12B 1_555 1_555
C1B C2B 1_555 1_555
C2B H1B 1_555 1_555
H2B C2B 1_555 1_555
H3B C2B 1_555 1_555
C3B C1B 1_555 1_555
H4B C3B 1_555 1_555
H5B C3B 1_555 1_555
H6B C3B 1_555 1_555
C4B C1B 1_555 1_555
H7B C4B 1_555 1_555
H8B C4B 1_555 1_555
H9B C4B 1_555 1_555
C5B C1B 1_555 1_555
C6B C5B 1_555 1_555
H10B C6B 1_555 1_555
C7B C6B 1_555 1_555
C8B C7B 1_555 1_555
H11B C8B 1_555 1_555
C9B C8B 1_555 1_555
C10B C5B 1_555 1_555
H12B C10B 1_555 1_555
C11B C9B 1_555 1_555
C12B C13B 1_555 1_555
C13B C14B 1_555 1_555
C14B H13B 1_555 1_555
C15B C14B 1_555 1_555
C16B C15B 1_555 1_555
H14B C16B 1_555 1_555
C17B C16B 1_555 1_555
C18B C13B 1_555 1_555
H15B C18B 1_555 1_555
C19B C17B 1_555 1_555
C20B C19B 1_555 1_555
H16B C20B 1_555 1_555
H17B C20B 1_555 1_555
H18B C20B 1_555 1_555
C21B C19B 1_555 1_555
H19B C21B 1_555 1_555
H20B C21B 1_555 1_555
H21B C21B 1_555 1_555
C22B C19B 1_555 1_555
H22B C22B 1_555 1_555
H23B C22B 1_555 1_555
H24B C22B 1_555 1_555
C23B C7B 1_555 1_555
C24B C25B 1_555 1_555
C25B C26B 1_555 1_555
C26B H25B 1_555 1_555
C27B C26B 1_555 1_555
C28B C27B 1_555 1_555
H26B C28B 1_555 1_555
C29B C28B 1_555 1_555
C30B C25B 1_555 1_555
H27B C30B 1_555 1_555
C31B C29B 1_555 1_555
C32B C31B 1_555 1_555
H28B C32B 1_555 1_555
H29B C32B 1_555 1_555
H30B C32B 1_555 1_555
C33B C31B 1_555 1_555
H31B C33B 1_555 1_555
H32B C33B 1_555 1_555
H33B C33B 1_555 1_555
C34B C31B 1_555 1_555
H34B C34B 1_555 1_555
H35B C34B 1_555 1_555
H36B C34B 1_555 1_555
C35B C27B 1_555 1_555
C36B H37B 1_555 1_555
H38B C36B 1_555 1_555
H39B C36B 1_555 1_555
C37B C36B 1_555 1_555
C38B H40B 1_555 1_555
H41B C38B 1_555 1_555
H42B C38B 1_555 1_555
C39B C15B 1_555 1_555
N1B C37B 1_555 1_555
O1B C11B 1_555 1_555
O2B C11B 1_555 1_555
O3B Ru1A 1_555 1_555
O4B Ru2A 1_555 1_555
O5B Ru1B 1_555 1_555
O6B Ru2B 1_555 1_555
O7B Ru1B 1_555 1_555
O8B Ru2B 1_555 1_555
O9B C35B 1_555 1_555
O10B Ru4A 1_555 1_555
O11B Ru3A 1_555 1_555
O12B C35B 1_555 1_555
Cl1B Ru1B 1_555 1_555
O13B Ru2B 1_555 1_555
Cl2B Ru3B 1_555 1_555
O14B Ru4B 1_555 1_555
C36H H37H 1_555 1_555
H38H C36H 1_555 1_555
H39H C36H 1_555 1_555
C37H C37B 1_555 1_555
C38H N1B 1_555 1_555
H40H C38H 1_555 1_555
H41H C38H 1_555 1_555
H42H C38H 1_555 1_555
Ru1C O3 1_555 1_555
Ru2C O4 1_555 1_555
Ru3C O11 1_555 1_555
Ru4C O10 1_555 1_555
C1C C2C 1_555 1_555
C2C H1C 1_555 1_555
H2C C2C 1_555 1_555
H3C C2C 1_555 1_555
C3C C1C 1_555 1_555
H4C C3C 1_555 1_555
H5C C3C 1_555 1_555
H6C C3C 1_555 1_555
C4C C1C 1_555 1_555
H7C C4C 1_555 1_555
H8C C4C 1_555 1_555
H9C C4C 1_555 1_555
C5C C1C 1_555 1_555
C6C C5C 1_555 1_555
H10C C6C 1_555 1_555
C7C C6C 1_555 1_555
C8C C7C 1_555 1_555
H11C C8C 1_555 1_555
C9C C8C 1_555 1_555
C10C C5C 1_555 1_555
H12C C10C 1_555 1_555
C11C C9C 1_555 1_555
C12C C13C 1_555 1_555
C13C C14C 1_555 1_555
C14C H13C 1_555 1_555
C15C C14C 1_555 1_555
C16C C15C 1_555 1_555
H14C C16C 1_555 1_555
C17C C16C 1_555 1_555
C18C C13C 1_555 1_555
H15C C18C 1_555 1_555
C19C C17C 1_555 1_555
C20C C19C 1_555 1_555
H16C C20C 1_555 1_555
H17C C20C 1_555 1_555
H18C C20C 1_555 1_555
C21C C19C 1_555 1_555
H19C C21C 1_555 1_555
H20C C21C 1_555 1_555
H21C C21C 1_555 1_555
C22C C19C 1_555 1_555
H22C C22C 1_555 1_555
H23C C22C 1_555 1_555
H24C C22C 1_555 1_555
C23C C7C 1_555 1_555
C24C C25C 1_555 1_555
C25C C26C 1_555 1_555
C26C H25C 1_555 1_555
C27C C26C 1_555 1_555
C28C C27C 1_555 1_555
H26C C28C 1_555 1_555
C29C C28C 1_555 1_555
C30C C25C 1_555 1_555
H27C C30C 1_555 1_555
C31C C29C 1_555 1_555
C32C C31C 1_555 1_555
H28C C32C 1_555 1_555
H29C C32C 1_555 1_555
H30C C32C 1_555 1_555
C33C C31C 1_555 1_555
H31C C33C 1_555 1_555
H32C C33C 1_555 1_555
H33C C33C 1_555 1_555
C34C C31C 1_555 1_555
H34C C34C 1_555 1_555
H35C C34C 1_555 1_555
H36C C34C 1_555 1_555
C35C C27C 1_555 1_555
C36C H37C 1_555 1_555
H38C C36C 1_555 1_555
H39C C36C 1_555 1_555
C37C C36C 1_555 1_555
C38C H40C 1_555 1_555
H41C C38C 1_555 1_555
H42C C38C 1_555 1_555
C39C C15C 1_555 1_555
N1C C37C 1_555 1_555
O1C Ru2C 1_555 1_555
O2C Ru1C 1_555 1_555
O3C Ru1B 1_555 1_555
O4C Ru2B 1_555 1_555
O5C Ru1C 1_555 1_555
O6C Ru2C 1_555 1_555
O7C Ru1C 1_555 1_555
O8C Ru2C 1_555 1_555
O9C Ru3C 1_555 1_555
O10C Ru4B 1_555 1_555
O11C Ru3B 1_555 1_555
O12C Ru4C 1_555 1_555
Cl1C Ru1C 1_555 1_555
O13C Ru2C 1_555 1_555
Cl2C Ru3C 1_555 1_555
O14C Ru4C 1_555 1_555
C36I H37I 1_555 1_555
H38I C36I 1_555 1_555
H39I C36I 1_555 1_555
C37I C37C 1_555 1_555
C38I N1C 1_555 1_555
H40I C38I 1_555 1_555
H41I C38I 1_555 1_555
H42I C38I 1_555 1_555
Ru1H O2H 1_555 1_555
Ru2H O1H 1_555 1_555
C1H C2H 1_555 1_555
C2H H1H 1_555 1_555
H2H C2H 1_555 1_555
H3H C2H 1_555 1_555
C3H C1H 1_555 1_555
H4H C3H 1_555 1_555
H5H C3H 1_555 1_555
H6H C3H 1_555 1_555
C4H C1H 1_555 1_555
H7H C4H 1_555 1_555
H8H C4H 1_555 1_555
H9H C4H 1_555 1_555
C5H C1H 1_555 1_555
C6H C5H 1_555 1_555
H10H C6H 1_555 1_555
C7H C6H 1_555 1_555
C8H C7H 1_555 1_555
H11H C8H 1_555 1_555
C9H C8H 1_555 1_555
C10H C5H 1_555 1_555
H12H C10H 1_555 1_555
C11H C9H 1_555 1_555
C12H C13H 1_555 1_555
C13H C14H 1_555 1_555
C14H H13H 1_555 1_555
C15H C14H 1_555 1_555
C16H C15H 1_555 1_555
H14H C16H 1_555 1_555
C17H C16H 1_555 1_555
C18H C13H 1_555 1_555
H15H C18H 1_555 1_555
C19H C17H 1_555 1_555
C20H C19H 1_555 1_555
H16H C20H 1_555 1_555
H17H C20H 1_555 1_555
H18H C20H 1_555 1_555
C21H C19H 1_555 1_555
H19H C21H 1_555 1_555
H20H C21H 1_555 1_555
H21H C21H 1_555 1_555
C22H C19H 1_555 1_555
H22H C22H 1_555 1_555
H23H C22H 1_555 1_555
H24H C22H 1_555 1_555
C23H C7H 1_555 1_555
C24H C25H 1_555 1_555
C25H C26H 1_555 1_555
C26H H25H 1_555 1_555
C27H C26H 1_555 1_555
C28H C27H 1_555 1_555
H26H C28H 1_555 1_555
C29H C28H 1_555 1_555
C30H C25H 1_555 1_555
H27H C30H 1_555 1_555
C31H C29H 1_555 1_555
C32H C31H 1_555 1_555
H28H C32H 1_555 1_555
H29H C32H 1_555 1_555
H30H C32H 1_555 1_555
C33H C31H 1_555 1_555
H31H C33H 1_555 1_555
H32H C33H 1_555 1_555
H33H C33H 1_555 1_555
C34H C31H 1_555 1_555
H34H C34H 1_555 1_555
H35H C34H 1_555 1_555
H36H C34H 1_555 1_555
C35H C27H 1_555 1_555
C39H C15H 1_555 1_555
O1H C11H 1_555 1_555
O2H C11H 1_555 1_555
O3H C23H 1_555 1_555
O4H C23H 1_555 1_555
O5H Ru1H 1_555 1_555
O6H Ru2H 1_555 1_555
O7H Ru1H 1_555 1_555
O8H Ru2H 1_555 1_555
O9H Ru3B 1_555 1_555
O10H Ru4A 1_555 1_555
O11H Ru3A 1_555 1_555
O12H Ru4B 1_555 1_555
Cl1H Ru1H 1_555 1_555
O13H Ru2H 1_555 1_555
Ru1I O2I 1_555 1_555
Ru2I O1I 1_555 1_555
C1I C2I 1_555 1_555
C2I H1I 1_555 1_555
H2I C2I 1_555 1_555
H3I C2I 1_555 1_555
C3I C1I 1_555 1_555
H4I C3I 1_555 1_555
H5I C3I 1_555 1_555
H6I C3I 1_555 1_555
C4I C1I 1_555 1_555
H7I C4I 1_555 1_555
H8I C4I 1_555 1_555
H9I C4I 1_555 1_555
C5I C1I 1_555 1_555
C6I C5I 1_555 1_555
H10I C6I 1_555 1_555
C7I C6I 1_555 1_555
C8I C7I 1_555 1_555
H11I C8I 1_555 1_555
C9I C8I 1_555 1_555
C10I C5I 1_555 1_555
H12I C10I 1_555 1_555
C11I C9I 1_555 1_555
C12I C13I 1_555 1_555
C13I C14I 1_555 1_555
C14I H13I 1_555 1_555
C15I C14I 1_555 1_555
C16I C15I 1_555 1_555
H14I C16I 1_555 1_555
C17I C16I 1_555 1_555
C18I C13I 1_555 1_555
H15I C18I 1_555 1_555
C19I C17I 1_555 1_555
C20I C19I 1_555 1_555
H16I C20I 1_555 1_555
H17I C20I 1_555 1_555
H18I C20I 1_555 1_555
C21I C19I 1_555 1_555
H19I C21I 1_555 1_555
H20I C21I 1_555 1_555
H21I C21I 1_555 1_555
C22I C19I 1_555 1_555
H22I C22I 1_555 1_555
H23I C22I 1_555 1_555
H24I C22I 1_555 1_555
C23I C7I 1_555 1_555
C24I C25I 1_555 1_555
C25I C26I 1_555 1_555
C26I H25I 1_555 1_555
C27I C26I 1_555 1_555
C28I C27I 1_555 1_555
H26I C28I 1_555 1_555
C29I C28I 1_555 1_555
C30I C25I 1_555 1_555
H27I C30I 1_555 1_555
C31I C29I 1_555 1_555
C32I C31I 1_555 1_555
H28I C32I 1_555 1_555
H29I C32I 1_555 1_555
H30I C32I 1_555 1_555
C33I C31I 1_555 1_555
H31I C33I 1_555 1_555
H32I C33I 1_555 1_555
H33I C33I 1_555 1_555
C34I C31I 1_555 1_555
H34I C34I 1_555 1_555
H35I C34I 1_555 1_555
H36I C34I 1_555 1_555
C35I C27I 1_555 1_555
C39I C15I 1_555 1_555
O1I C11I 1_555 1_555
O2I C11I 1_555 1_555
O3I Ru1H 1_555 1_555
O4I Ru2H 1_555 1_555
O5I Ru1I 1_555 1_555
O6I Ru2I 1_555 1_555
O7I Ru1I 1_555 1_555
O8I Ru2I 1_555 1_555
O9I Ru3C 1_555 1_555
O10I Ru4B 1_555 1_555
O11I Ru3B 1_555 1_555
O12I Ru4C 1_555 1_555
Cl1I Ru1I 1_555 1_555
O13I Ru2I 1_555 1_555
Ru1J O2J 1_555 1_555
Ru2J O1J 1_555 1_555
C1J C2J 1_555 1_555
C2J H1J 1_555 1_555
H2J C2J 1_555 1_555
H3J C2J 1_555 1_555
C3J C1J 1_555 1_555
H4J C3J 1_555 1_555
H5J C3J 1_555 1_555
H6J C3J 1_555 1_555
C4J C1J 1_555 1_555
H7J C4J 1_555 1_555
H8J C4J 1_555 1_555
H9J C4J 1_555 1_555
C5J C1J 1_555 1_555
C6J C5J 1_555 1_555
H10J C6J 1_555 1_555
C7J C6J 1_555 1_555
C8J C7J 1_555 1_555
H11J C8J 1_555 1_555
C9J C8J 1_555 1_555
C10J C5J 1_555 1_555
H12J C10J 1_555 1_555
C11J C9J 1_555 1_555
C12J C13J 1_555 1_555
C13J C14J 1_555 1_555
C14J H13J 1_555 1_555
C15J C14J 1_555 1_555
C16J C15J 1_555 1_555
H14J C16J 1_555 1_555
C17J C16J 1_555 1_555
C18J C13J 1_555 1_555
H15J C18J 1_555 1_555
C19J C17J 1_555 1_555
C20J C19J 1_555 1_555
H16J C20J 1_555 1_555
H17J C20J 1_555 1_555
H18J C20J 1_555 1_555
C21J C19J 1_555 1_555
H19J C21J 1_555 1_555
H20J C21J 1_555 1_555
H21J C21J 1_555 1_555
C22J C19J 1_555 1_555
H22J C22J 1_555 1_555
H23J C22J 1_555 1_555
H24J C22J 1_555 1_555
C23J C7J 1_555 1_555
C24J C25J 1_555 1_555
C25J C26J 1_555 1_555
C26J H25J 1_555 1_555
C27J C26J 1_555 1_555
C28J C27J 1_555 1_555
H26J C28J 1_555 1_555
C29J C28J 1_555 1_555
C30J C25J 1_555 1_555
H27J C30J 1_555 1_555
C31J C29J 1_555 1_555
C32J C31J 1_555 1_555
H28J C32J 1_555 1_555
H29J C32J 1_555 1_555
H30J C32J 1_555 1_555
C33J C31J 1_555 1_555
H31J C33J 1_555 1_555
H32J C33J 1_555 1_555
H33J C33J 1_555 1_555
C34J C31J 1_555 1_555
H34J C34J 1_555 1_555
H35J C34J 1_555 1_555
H36J C34J 1_555 1_555
C35J C27J 1_555 1_555
C39J C15J 1_555 1_555
O1J C11J 1_555 1_555
O2J C11J 1_555 1_555
O3J Ru1I 1_555 1_555
O4J Ru2I 1_555 1_555
O5J Ru1J 1_555 1_555
O6J Ru2J 1_555 1_555
O7J Ru1J 1_555 1_555
O8J Ru2J 1_555 1_555
O9J Ru3 1_555 1_555
O10J Ru4C 1_555 1_555
O11J Ru3C 1_555 1_555
O12J Ru4 1_555 1_555
Cl1J Ru1J 1_555 1_555
O13J Ru2J 1_555 1_555
Ru1K O3H 1_555 1_555
Ru2K O4H 1_555 1_555
C1K C2K 1_555 1_555
C2K H1K 1_555 1_555
H2K C2K 1_555 1_555
H3K C2K 1_555 1_555
C3K C1K 1_555 1_555
H4K C3K 1_555 1_555
H5K C3K 1_555 1_555
H6K C3K 1_555 1_555
C4K C1K 1_555 1_555
H7K C4K 1_555 1_555
H8K C4K 1_555 1_555
H9K C4K 1_555 1_555
C5K C1K 1_555 1_555
C6K C5K 1_555 1_555
H10K C6K 1_555 1_555
C7K C6K 1_555 1_555
C8K C7K 1_555 1_555
H11K C8K 1_555 1_555
C9K C8K 1_555 1_555
C10K C5K 1_555 1_555
H12K C10K 1_555 1_555
C11K C9K 1_555 1_555
C12K C13K 1_555 1_555
C13K C14K 1_555 1_555
C14K H13K 1_555 1_555
C15K C14K 1_555 1_555
C16K C15K 1_555 1_555
H14K C16K 1_555 1_555
C17K C16K 1_555 1_555
C18K C13K 1_555 1_555
H15K C18K 1_555 1_555
C19K C17K 1_555 1_555
C20K C19K 1_555 1_555
H16K C20K 1_555 1_555
H17K C20K 1_555 1_555
H18K C20K 1_555 1_555
C21K C19K 1_555 1_555
H19K C21K 1_555 1_555
H20K C21K 1_555 1_555
H21K C21K 1_555 1_555
C22K C19K 1_555 1_555
H22K C22K 1_555 1_555
H23K C22K 1_555 1_555
H24K C22K 1_555 1_555
C23K C7K 1_555 1_555
C24K C25K 1_555 1_555
C25K C26K 1_555 1_555
C26K H25K 1_555 1_555
C27K C26K 1_555 1_555
C28K C27K 1_555 1_555
H26K C28K 1_555 1_555
C29K C28K 1_555 1_555
C30K C25K 1_555 1_555
H27K C30K 1_555 1_555
C31K C29K 1_555 1_555
C32K C31K 1_555 1_555
H28K C32K 1_555 1_555
H29K C32K 1_555 1_555
H30K C32K 1_555 1_555
C33K C31K 1_555 1_555
H31K C33K 1_555 1_555
H32K C33K 1_555 1_555
H33K C33K 1_555 1_555
C34K C31K 1_555 1_555
H34K C34K 1_555 1_555
H35K C34K 1_555 1_555
H36K C34K 1_555 1_555
C35K C27K 1_555 1_555
C39K C15K 1_555 1_555
O1K Ru2K 1_555 1_555
O2K Ru1K 1_555 1_555
O3K Ru1J 1_555 1_555
O4K Ru2J 1_555 1_555
O5K Ru1K 1_555 1_555
O6K Ru2K 1_555 1_555
O7K Ru1K 1_555 1_555
O8K Ru2K 1_555 1_555
O9K Ru3A 1_555 1_555
O10K Ru4 1_555 1_555
O11K Ru3 1_555 1_555
O12K Ru4A 1_555 1_555
Cl1K Ru1K 1_555 1_555
O13K Ru2K 1_555 1_555
C9 C10 1_555 1_555
C12 O7 1_555 1_555
C12 O8 1_555 1_555
C17 C18 1_555 1_555
C24 O5 1_555 1_555
C24 O6 1_555 1_555
C29 C30 1_555 1_555
C37 O14 1_555 1_555
C38 N1 1_555 1_555
N1 C37J 1_555 1_555
O14 C37J 1_555 1_555
C36J C37J 1_555 1_555
C9A C10A 1_555 1_555
C12A O7A 1_555 1_555
C12A O8A 1_555 1_555
C17A C18A 1_555 1_555
C23A O3A 1_555 1_555
C23A O4A 1_555 1_555
C24A O5A 1_555 1_555
C24A O6A 1_555 1_555
C29A C30A 1_555 1_555
C37A O14A 1_555 1_555
C38A N1A 1_555 1_555
C39A O10A 1_555 1_555
C39A O11A 1_555 1_555
N1A C37K 1_555 1_555
O14A C37K 1_555 1_555
C36K C37K 1_555 1_555
C9B C10B 1_555 1_555
C12B O7B 1_555 1_555
C12B O8B 1_555 1_555
C17B C18B 1_555 1_555
C23B O3B 1_555 1_555
C23B O4B 1_555 1_555
C24B O5B 1_555 1_555
C24B O6B 1_555 1_555
C29B C30B 1_555 1_555
C37B O14B 1_555 1_555
C38B N1B 1_555 1_555
C39B O10B 1_555 1_555
C39B O11B 1_555 1_555
N1B C37H 1_555 1_555
O14B C37H 1_555 1_555
C36H C37H 1_555 1_555
C9C C10C 1_555 1_555
C11C O1C 1_555 1_555
C11C O2C 1_555 1_555
C12C O7C 1_555 1_555
C12C O8C 1_555 1_555
C17C C18C 1_555 1_555
C23C O3C 1_555 1_555
C23C O4C 1_555 1_555
C24C O5C 1_555 1_555
C24C O6C 1_555 1_555
C29C C30C 1_555 1_555
C35C O9C 1_555 1_555
C35C O12C 1_555 1_555
C37C O14C 1_555 1_555
C38C N1C 1_555 1_555
C39C O10C 1_555 1_555
C39C O11C 1_555 1_555
N1C C37I 1_555 1_555
O14C C37I 1_555 1_555
C36I C37I 1_555 1_555
C9H C10H 1_555 1_555
C12H O7H 1_555 1_555
C12H O8H 1_555 1_555
C17H C18H 1_555 1_555
C24H O5H 1_555 1_555
C24H O6H 1_555 1_555
C29H C30H 1_555 1_555
C35H O9H 1_555 1_555
C35H O12H 1_555 1_555
C39H O10H 1_555 1_555
C39H O11H 1_555 1_555
C9I C10I 1_555 1_555
C12I O7I 1_555 1_555
C12I O8I 1_555 1_555
C17I C18I 1_555 1_555
C23I O3I 1_555 1_555
C23I O4I 1_555 1_555
C24I O5I 1_555 1_555
C24I O6I 1_555 1_555
C29I C30I 1_555 1_555
C35I O9I 1_555 1_555
C35I O12I 1_555 1_555
C39I O10I 1_555 1_555
C39I O11I 1_555 1_555
C9J C10J 1_555 1_555
C12J O7J 1_555 1_555
C12J O8J 1_555 1_555
C17J C18J 1_555 1_555
C23J O3J 1_555 1_555
C23J O4J 1_555 1_555
C24J O5J 1_555 1_555
C24J O6J 1_555 1_555
C29J C30J 1_555 1_555
C35J O9J 1_555 1_555
C35J O12J 1_555 1_555
C39J O10J 1_555 1_555
C39J O11J 1_555 1_555
C9K C10K 1_555 1_555
C11K O1K 1_555 1_555
C11K O2K 1_555 1_555
C12K O7K 1_555 1_555
C12K O8K 1_555 1_555
C17K C18K 1_555 1_555
C23K O3K 1_555 1_555
C23K O4K 1_555 1_555
C24K O5K 1_555 1_555
C24K O6K 1_555 1_555
C29K C30K 1_555 1_555
C35K O9K 1_555 1_555
C35K O12K 1_555 1_555
C39K O10K 1_555 1_555
C39K O11K 1_555 1_555

#END
