
#######################################################################
#
#                 Cambridge Crystallographic Data Centre
#                                CCDC 
#
#######################################################################
#
# If this CIF has been generated from an entry in the Cambridge 
# Structural Database, then it will include bibliographic, chemical, 
# crystal, experimental, refinement or atomic coordinate data resulting 
# from the CCDC's data processing and validation procedures.
#
#######################################################################

data_POZFUF
_chemical_formula_moiety         
'C84 H108 N24 O8 Pd6 12+,12(N1 O3 1-),12(H2 O1)'
_chemical_name_systematic        
"tetrakis(\m~3~-Acetoxy-tris(4-pyridyl)methane-N,N',N'')-hexakis(ethylenediamine-palladium) dodecanitrate dodecahydrate"
_symmetry_cell_setting           monoclinic
_symmetry_space_group_name_H-M   'P 21/c'
_symmetry_Int_Tables_number      14
_space_group_name_Hall           '-P 2ybc'
loop_
_symmetry_equiv_pos_site_id
_symmetry_equiv_pos_as_xyz
1 x,y,z
2 -x,1/2+y,1/2-z
3 -x,-y,-z
4 x,1/2-y,1/2+z
_cell_length_a                   19.450(7)
_cell_length_b                   14.586(2)
_cell_length_c                   26.40(1)
_cell_angle_alpha                90
_cell_angle_beta                 94.13(4)
_cell_angle_gamma                90
_cell_volume                     7470.17
_exptl_crystal_colour            colorless
_exptl_crystal_description       plate
_chemical_melting_point          'above 300 deg.C'
_cell_formula_units_Z            2
loop_
_atom_site_label
_atom_site_type_symbol
_atom_site_fract_x
_atom_site_fract_y
_atom_site_fract_z
Pd1 Pd 0.5005(1) 0.3362(2) 0.75550(8)
Pd2 Pd 0.7935(1) -0.2342(2) 0.89849(8)
Pd3 Pd 0.7919(1) 0.2367(2) 1.13050(8)
O1 O 0.796(1) 0.380(2) 0.8920(10)
O2 O 0.8178(10) 0.234(1) 0.8701(7)
O3 O 0.209(1) 0.378(2) 0.8597(10)
O4 O 0.185(1) 0.232(2) 0.8367(7)
N1 N 0.564(1) 0.395(2) 0.7123(9)
N2 N 0.430(1) 0.393(2) 0.7063(8)
N3 N 0.581(2) 0.285(2) 0.803(1)
N4 N 0.424(1) 0.283(1) 0.7959(9)
N5 N 0.807(2) -0.369(2) 0.8982(8)
N6 N 0.810(2) -0.240(2) 0.818(1)
N7 N 0.784(2) -0.090(2) 0.8937(9)
N8 N 0.772(1) -0.231(2) 0.9730(8)
N9 N 0.812(1) 0.244(2) 1.2055(8)
N10 N 0.801(1) 0.376(1) 1.1329(9)
N11 N 0.775(2) 0.101(2) 1.1327(9)
N12 N 0.778(1) 0.236(1) 1.046(1)
C1 C 0.526(4) 0.411(9) 0.659(2)
C2 C 0.489(5) 0.476(3) 0.681(2)
C3 C 0.602(2) 0.322(2) 0.844(1)
C4 C 0.655(2) 0.304(2) 0.874(1)
C5 C 0.692(1) 0.225(2) 0.863(1)
C6 C 0.671(2) 0.180(2) 0.8190(10)
C7 C 0.615(2) 0.207(2) 0.789(1)
C8 C 0.763(2) 0.203(2) 0.895(1)
C9 C 0.828(2) 0.324(3) 0.869(1)
C10 C 0.891(2) 0.347(2) 0.838(1)
C11 C 0.390(2) 0.213(2) 0.779(1)
C12 C 0.331(2) 0.182(3) 0.804(1)
C13 C 0.307(2) 0.224(2) 0.845(1)
C14 C 0.349(2) 0.298(2) 0.863(1)
C15 C 0.402(2) 0.330(2) 0.836(1)
C16 C 0.842(2) -0.400(2) 0.850(1)
C17 C 0.815(2) -0.337(3) 0.807(1)
C18 C 0.828(2) -0.236(3) 1.009(1)
C19 C 0.824(2) -0.229(2) 1.0592(10)
C20 C 0.756(2) -0.216(2) 1.076(1)
C21 C 0.700(2) -0.211(3) 1.0420(10)
C22 C 0.714(2) -0.214(2) 0.993(1)
C23 C 0.175(2) 0.326(2) 0.835(1)
C24 C 0.106(2) 0.340(3) 0.807(1)
C25 C 0.717(2) -0.058(2) 0.900(1)
C26 C 0.714(2) 0.029(3) 0.899(1)
C27 C 0.771(2) 0.098(2) 0.8889(10)
C28 C 0.834(2) 0.059(2) 0.8842(10)
C29 C 0.842(2) -0.038(3) 0.888(1)
C30 C 0.805(2) 0.341(2) 1.2231(10)
C31 C 0.838(2) 0.398(2) 1.185(1)
C32 C 0.829(2) 0.248(2) 1.0255(9)
C33 C 0.827(1) 0.240(2) 0.975(1)
C34 C 0.766(2) 0.225(2) 0.9493(9)
C35 C 0.702(2) 0.214(3) 0.979(1)
C36 C 0.717(2) 0.226(3) 1.030(1)
C37 C 0.832(2) 0.048(3) 1.149(1)
C38 C 0.825(2) -0.058(2) 1.146(1)
C39 C 0.760(2) -0.094(2) 1.1349(9)
C40 C 0.705(2) -0.035(3) 1.120(1)
C41 C 0.721(2) 0.059(2) 1.121(1)
C42 C 0.246(2) 0.193(2) 0.869(1)
H1 H 0.4255 0.3828 0.8451
H2 H 0.3932 0.4224 0.7230
H3 H 0.5855 0.3487 0.6925
H4 H 0.5997 0.4250 0.7329
H5 H 0.5470 0.4289 0.6373
H6 H 0.4980 0.3521 0.6535
H7 H 0.4513 0.4668 0.6413
H8 H 0.4572 0.5277 0.6896
H9 H 0.4095 0.3503 0.6823
H10 H 0.5795 0.3756 0.8545
H11 H 0.6706 0.3438 0.9016
H12 H 0.6969 0.1249 0.8090
H13 H 0.5963 0.1824 0.7523
H14 H 0.8776 0.3975 0.8133
H15 H 0.9104 0.3017 0.8235
H16 H 0.9267 0.3813 0.8614
H17 H 0.3986 0.1896 0.7441
H18 H 0.3210 0.1275 0.7925
H19 H 0.3364 0.3363 0.8917
H20 H 0.8305 -0.3884 0.9295
H21 H 0.7601 -0.3986 0.8985
H22 H 0.8337 -0.4636 0.8429
H23 H 0.8913 -0.3924 0.8566
H24 H 0.7680 -0.3585 0.7954
H25 H 0.8419 -0.3426 0.7787
H26 H 0.8470 -0.2062 0.8090
H27 H 0.7677 -0.2126 0.7981
H28 H 0.8731 -0.2442 0.9927
H29 H 0.8671 -0.2306 1.0798
H30 H 0.6520 -0.2112 1.0530
H31 H 0.6830 -0.1903 0.9644
H32 H 0.0745 0.3113 0.8209
H33 H 0.1020 0.4037 0.8013
H34 H 0.1131 0.3139 0.7715
H35 H 0.6803 -0.0940 0.9072
H36 H 0.6724 0.0649 0.9088
H37 H 0.8765 0.1011 0.8843
H38 H 0.8873 -0.0710 0.8862
H39 H 0.7843 0.2050 1.2228
H40 H 0.8601 0.2299 1.2140
H41 H 0.7538 0.3538 1.2185
H42 H 0.8179 0.3473 1.2567
H43 H 0.8447 0.4587 1.1940
H44 H 0.8898 0.3733 1.1851
H45 H 0.7581 0.4064 1.1330
H46 H 0.8263 0.3996 1.1062
H47 H 0.8731 0.2640 1.0458
H48 H 0.8688 0.2454 0.9552
H49 H 0.6561 0.2092 0.9609
H50 H 0.6795 0.2138 1.0481
H51 H 0.8767 0.0836 1.1632
H52 H 0.8737 -0.0816 1.1492
H53 H 0.6583 -0.0581 1.1065
H54 H 0.6783 0.1036 1.1116
C42B C 0.754(2) -0.193(2) 1.131(1)
O4B O 0.815(1) -0.232(2) 1.1633(7)
C23B C 0.825(2) -0.326(2) 1.165(1)
O3B O 0.791(1) -0.378(2) 1.1403(10)
C24B C 0.894(2) -0.340(3) 1.193(1)
H32B H 0.9255 -0.3113 1.1791
H33B H 0.8980 -0.4037 1.1987
H34B H 0.8869 -0.3139 1.2285
C13B C 0.693(2) -0.224(2) 1.155(1)
C12B C 0.669(2) -0.182(3) 1.196(1)
C11B C 0.610(2) -0.213(2) 1.221(1)
N4B N 0.576(1) -0.283(1) 1.2041(9)
Pd1B Pd 0.4995(1) -0.3362(2) 1.24450(8)
N1B N 0.436(1) -0.395(2) 1.2877(9)
C1B C 0.474(4) -0.411(9) 1.341(2)
C2B C 0.511(5) -0.476(3) 1.319(2)
N2B N 0.570(1) -0.393(2) 1.2937(8)
N3B N 0.419(2) -0.285(2) 1.197(1)
C3B C 0.398(2) -0.322(2) 1.156(1)
C4B C 0.345(2) -0.304(2) 1.126(1)
C5B C 0.308(1) -0.225(2) 1.137(1)
C6B C 0.329(2) -0.180(2) 1.1810(10)
C7B C 0.385(2) -0.207(2) 1.211(1)
H13B H 0.4037 -0.1824 1.2477
H12B H 0.3031 -0.1249 1.1910
C8B C 0.237(2) -0.203(2) 1.105(1)
O2B O 0.1822(10) -0.234(1) 1.1299(7)
C9B C 0.172(2) -0.324(3) 1.131(1)
O1B O 0.204(1) -0.380(2) 1.1080(10)
C10B C 0.109(2) -0.347(2) 1.162(1)
H14B H 0.1224 -0.3975 1.1867
H15B H 0.0896 -0.3017 1.1765
H16B H 0.0733 -0.3813 1.1386
C27B C 0.229(2) -0.098(2) 1.1111(10)
C26B C 0.286(2) -0.029(3) 1.101(1)
C25B C 0.283(2) 0.058(2) 1.100(1)
N7B N 0.216(2) 0.090(2) 1.1063(9)
Pd2B Pd 0.2065(1) 0.2342(2) 1.10151(8)
N5B N 0.193(2) 0.369(2) 1.1018(8)
C16B C 0.158(2) 0.400(2) 1.150(1)
C17B C 0.185(2) 0.337(3) 1.193(1)
N6B N 0.190(2) 0.240(2) 1.182(1)
N8B N 0.228(1) 0.231(2) 1.0270(8)
C18B C 0.172(2) 0.236(3) 0.991(1)
C19B C 0.176(2) 0.229(2) 0.9408(10)
C20B C 0.244(2) 0.216(2) 0.924(1)
C21B C 0.300(2) 0.211(3) 0.9580(10)
C22B C 0.286(2) 0.214(2) 1.007(1)
H31B H 0.3170 0.1903 1.0356
H30B H 0.3480 0.2112 0.9470
C39B C 0.240(2) 0.094(2) 0.8651(9)
C38B C 0.175(2) 0.058(2) 0.854(1)
C37B C 0.168(2) -0.048(3) 0.851(1)
N11B N 0.225(2) -0.101(2) 0.8673(9)
Pd3B Pd 0.2081(1) -0.2367(2) 0.86950(8)
N9B N 0.188(1) -0.244(2) 0.7945(8)
C30B C 0.195(2) -0.341(2) 0.7769(10)
C31B C 0.162(2) -0.398(2) 0.815(1)
N10B N 0.199(1) -0.376(1) 0.8671(9)
N12B N 0.222(1) -0.236(1) 0.954(1)
C32B C 0.171(2) -0.248(2) 0.9745(9)
C33B C 0.173(1) -0.240(2) 1.025(1)
C34B C 0.234(2) -0.225(2) 1.0507(9)
C35B C 0.298(2) -0.214(3) 1.021(1)
C36B C 0.283(2) -0.226(3) 0.970(1)
H50B H 0.3205 -0.2138 0.9519
H49B H 0.3439 -0.2092 1.0391
H48B H 0.1312 -0.2454 1.0448
H47B H 0.1269 -0.2640 0.9542
H45B H 0.2419 -0.4064 0.8670
H46B H 0.1737 -0.3996 0.8938
H43B H 0.1553 -0.4587 0.8060
H44B H 0.1102 -0.3733 0.8149
H41B H 0.2462 -0.3538 0.7815
H42B H 0.1821 -0.3473 0.7433
H39B H 0.2157 -0.2050 0.7772
H40B H 0.1399 -0.2299 0.7860
C41B C 0.279(2) -0.059(2) 0.879(1)
C40B C 0.295(2) 0.035(3) 0.880(1)
H53B H 0.3417 0.0581 0.8935
H54B H 0.3217 -0.1036 0.8884
H51B H 0.1233 -0.0836 0.8368
H52B H 0.1263 0.0816 0.8508
H29B H 0.1329 0.2306 0.9202
H28B H 0.1269 0.2442 1.0073
H26B H 0.1530 0.2062 1.1910
H27B H 0.2323 0.2126 1.2019
H24B H 0.2320 0.3585 1.2046
H25B H 0.1581 0.3426 1.2213
H22B H 0.1663 0.4636 1.1571
H23B H 0.1087 0.3924 1.1434
H20B H 0.1695 0.3884 1.0705
H21B H 0.2399 0.3986 1.1015
C29B C 0.158(2) 0.038(3) 1.112(1)
C28B C 0.166(2) -0.059(2) 1.1158(10)
H37B H 0.1235 -0.1011 1.1157
H38B H 0.1127 0.0710 1.1138
H35B H 0.3197 0.0940 1.0928
H36B H 0.3276 -0.0649 1.0912
H11B H 0.3294 -0.3438 1.0984
H10B H 0.4205 -0.3756 1.1455
H2B H 0.6068 -0.4224 1.2770
H9B H 0.5905 -0.3503 1.3177
H7B H 0.5487 -0.4668 1.3587
H8B H 0.5428 -0.5277 1.3104
H5B H 0.4530 -0.4289 1.3627
H6B H 0.5020 -0.3521 1.3465
H3B H 0.4145 -0.3487 1.3075
H4B H 0.4003 -0.4250 1.2671
C15B C 0.598(2) -0.330(2) 1.164(1)
C14B C 0.651(2) -0.298(2) 1.137(1)
H19B H 0.6636 -0.3363 1.1083
H1B H 0.5745 -0.3828 1.1549
H17B H 0.6014 -0.1896 1.2559
H18B H 0.6790 -0.1275 1.2075
O5 O 0.284(1) -0.359(2) 1.2434(9)
O6 O 0.320(1) -0.504(2) 1.2277(8)
O7 O 0.214(2) -0.466(2) 1.2426(9)
N14 N 0.272(1) -0.440(2) 1.2386(9)
O8 O 0.285(1) 0.142(2) 1.237(1)
O9 O 0.319(1) 0.001(2) 1.2528(8)
O10 O 0.206(1) 0.031(2) 1.2266(10)
N16 N 0.272(2) 0.058(2) 1.2405(9)
O17 O 0.387(2) -0.239(2) 0.860(1)
O18 O 0.336(2) -0.431(2) 0.854(1)
O19 O 0.335(2) 0.433(2) 1.132(1)
O20 O 0.103(2) 0.438(3) 1.024(2)
O21 O 0.501(2) 0.275(2) 0.562(1)
O23 O 0.499(2) 0.419(3) 0.180(2)
O24 O -0.007(2) -0.349(2) 0.595(1)
O25 O 0.989(2) 0.291(3) 0.962(2)
O26 O -0.003(3) -0.365(3) 0.694(2)
O27 O -0.030(2) -0.477(3) 0.759(2)
loop_
_geom_bond_atom_site_label_1
_geom_bond_atom_site_label_2
_geom_bond_site_symmetry_1
_geom_bond_site_symmetry_2
Pd1 N1 1_555 1_555
Pd2 N5 1_555 1_555
Pd3 N9 1_555 1_555
O1 C9 1_555 1_555
O2 C8 1_555 1_555
O3 C23 1_555 1_555
O4 C23 1_555 1_555
O5 N14 1_555 1_555
O6 N14 1_555 1_555
O7 N14 1_555 1_555
O8 N16 1_555 1_555
O9 N16 1_555 1_555
O10 N16 1_555 1_555
N1 C1 1_555 1_555
N2 Pd1 1_555 1_555
N3 Pd1 1_555 1_555
N4 Pd1 1_555 1_555
N5 C16 1_555 1_555
N6 Pd2 1_555 1_555
N7 Pd2 1_555 1_555
N8 Pd2 1_555 1_555
N9 C30 1_555 1_555
N10 Pd3 1_555 1_555
N11 Pd3 1_555 1_555
N12 Pd3 1_555 1_555
C1 C2 1_555 1_555
C2 N2 1_555 1_555
C3 N3 1_555 1_555
C4 C3 1_555 1_555
C5 C4 1_555 1_555
C6 C5 1_555 1_555
C7 N3 1_555 1_555
C8 C5 1_555 1_555
C9 O2 1_555 1_555
C10 C9 1_555 1_555
C11 N4 1_555 1_555
C12 C11 1_555 1_555
C13 C12 1_555 1_555
C14 C13 1_555 1_555
C15 N4 1_555 1_555
C16 C17 1_555 1_555
C17 N6 1_555 1_555
C18 N8 1_555 1_555
C19 C18 1_555 1_555
C20 C19 1_555 1_555
C21 C20 1_555 1_555
C22 N8 1_555 1_555
C23 C24 1_555 1_555
C24 H32 1_555 1_555
C25 N7 1_555 1_555
C26 C25 1_555 1_555
C27 C8 1_555 1_555
C28 C27 1_555 1_555
C29 N7 1_555 1_555
C30 C31 1_555 1_555
C31 N10 1_555 1_555
C32 N12 1_555 1_555
C33 C32 1_555 1_555
C34 C8 1_555 1_555
C35 C34 1_555 1_555
C36 N12 1_555 1_555
C37 N11 1_555 1_555
C38 C37 1_555 1_555
C39 C38 1_555 1_555
C40 C39 1_555 1_555
C41 N11 1_555 1_555
C42 O4 1_555 1_555
H1 C15 1_555 1_555
H2 N2 1_555 1_555
H3 N1 1_555 1_555
H4 N1 1_555 1_555
H5 C1 1_555 1_555
H6 C1 1_555 1_555
H7 C2 1_555 1_555
H8 C2 1_555 1_555
H9 N2 1_555 1_555
H10 C3 1_555 1_555
H11 C4 1_555 1_555
H12 C6 1_555 1_555
H13 C7 1_555 1_555
H14 C10 1_555 1_555
H15 C10 1_555 1_555
H16 C10 1_555 1_555
H17 C11 1_555 1_555
H18 C12 1_555 1_555
H19 C14 1_555 1_555
H20 N5 1_555 1_555
H21 N5 1_555 1_555
H22 C16 1_555 1_555
H23 C16 1_555 1_555
H24 C17 1_555 1_555
H25 C17 1_555 1_555
H26 N6 1_555 1_555
H27 N6 1_555 1_555
H28 C18 1_555 1_555
H29 C19 1_555 1_555
H30 C21 1_555 1_555
H31 C22 1_555 1_555
H33 C24 1_555 1_555
H34 C24 1_555 1_555
H35 C25 1_555 1_555
H36 C26 1_555 1_555
H37 C28 1_555 1_555
H38 C29 1_555 1_555
H39 N9 1_555 1_555
H40 N9 1_555 1_555
H41 C30 1_555 1_555
H42 C30 1_555 1_555
H43 C31 1_555 1_555
H44 C31 1_555 1_555
H45 N10 1_555 1_555
H46 N10 1_555 1_555
H47 C32 1_555 1_555
H48 C33 1_555 1_555
H49 C35 1_555 1_555
H50 C36 1_555 1_555
H51 C37 1_555 1_555
H52 C38 1_555 1_555
H53 C40 1_555 1_555
H54 C41 1_555 1_555
C42B C20 1_555 1_555
O4B C42B 1_555 1_555
C23B O4B 1_555 1_555
O3B C23B 1_555 1_555
C24B C23B 1_555 1_555
H32B C24B 1_555 1_555
H33B C24B 1_555 1_555
H34B C24B 1_555 1_555
C13B C42B 1_555 1_555
C12B C13B 1_555 1_555
C11B C12B 1_555 1_555
N4B C11B 1_555 1_555
Pd1B N4B 1_555 1_555
N1B Pd1B 1_555 1_555
C1B N1B 1_555 1_555
C2B C1B 1_555 1_555
N2B Pd1B 1_555 1_555
N3B Pd1B 1_555 1_555
C3B N3B 1_555 1_555
C4B C3B 1_555 1_555
C5B C4B 1_555 1_555
C6B C5B 1_555 1_555
C7B N3B 1_555 1_555
H13B C7B 1_555 1_555
H12B C6B 1_555 1_555
C8B C5B 1_555 1_555
O2B C8B 1_555 1_555
C9B O2B 1_555 1_555
O1B C9B 1_555 1_555
C10B C9B 1_555 1_555
H14B C10B 1_555 1_555
H15B C10B 1_555 1_555
H16B C10B 1_555 1_555
C27B C8B 1_555 1_555
C26B C27B 1_555 1_555
C25B C26B 1_555 1_555
N7B C25B 1_555 1_555
Pd2B N7B 1_555 1_555
N5B Pd2B 1_555 1_555
C16B N5B 1_555 1_555
C17B C16B 1_555 1_555
N6B Pd2B 1_555 1_555
N8B Pd2B 1_555 1_555
C18B N8B 1_555 1_555
C19B C18B 1_555 1_555
C20B C42 1_555 1_555
C21B C20B 1_555 1_555
C22B N8B 1_555 1_555
H31B C22B 1_555 1_555
H30B C21B 1_555 1_555
C39B C42 1_555 1_555
C38B C39B 1_555 1_555
C37B C38B 1_555 1_555
N11B C37B 1_555 1_555
Pd3B N11B 1_555 1_555
N9B Pd3B 1_555 1_555
C30B N9B 1_555 1_555
C31B C30B 1_555 1_555
N10B Pd3B 1_555 1_555
N12B Pd3B 1_555 1_555
C32B N12B 1_555 1_555
C33B C32B 1_555 1_555
C34B C8B 1_555 1_555
C35B C34B 1_555 1_555
C36B N12B 1_555 1_555
H50B C36B 1_555 1_555
H49B C35B 1_555 1_555
H48B C33B 1_555 1_555
H47B C32B 1_555 1_555
H45B N10B 1_555 1_555
H46B N10B 1_555 1_555
H43B C31B 1_555 1_555
H44B C31B 1_555 1_555
H41B C30B 1_555 1_555
H42B C30B 1_555 1_555
H39B N9B 1_555 1_555
H40B N9B 1_555 1_555
C41B N11B 1_555 1_555
C40B C39B 1_555 1_555
H53B C40B 1_555 1_555
H54B C41B 1_555 1_555
H51B C37B 1_555 1_555
H52B C38B 1_555 1_555
H29B C19B 1_555 1_555
H28B C18B 1_555 1_555
H26B N6B 1_555 1_555
H27B N6B 1_555 1_555
H24B C17B 1_555 1_555
H25B C17B 1_555 1_555
H22B C16B 1_555 1_555
H23B C16B 1_555 1_555
H20B N5B 1_555 1_555
H21B N5B 1_555 1_555
C29B N7B 1_555 1_555
C28B C27B 1_555 1_555
H37B C28B 1_555 1_555
H38B C29B 1_555 1_555
H35B C25B 1_555 1_555
H36B C26B 1_555 1_555
H11B C4B 1_555 1_555
H10B C3B 1_555 1_555
H2B N2B 1_555 1_555
H9B N2B 1_555 1_555
H7B C2B 1_555 1_555
H8B C2B 1_555 1_555
H5B C1B 1_555 1_555
H6B C1B 1_555 1_555
H3B N1B 1_555 1_555
H4B N1B 1_555 1_555
C15B N4B 1_555 1_555
C14B C13B 1_555 1_555
H19B C14B 1_555 1_555
H1B C15B 1_555 1_555
H17B C11B 1_555 1_555
H18B C12B 1_555 1_555
C6 C7 1_555 1_555
C13 C42 1_555 1_555
C14 C15 1_555 1_555
C21 C22 1_555 1_555
C26 C27 1_555 1_555
C28 C29 1_555 1_555
C33 C34 1_555 1_555
C35 C36 1_555 1_555
C39 C42B 1_555 1_555
C40 C41 1_555 1_555
C2B N2B 1_555 1_555
C6B C7B 1_555 1_555
C17B N6B 1_555 1_555
C19B C20B 1_555 1_555
C21B C22B 1_555 1_555
C31B N10B 1_555 1_555
C33B C34B 1_555 1_555
C35B C36B 1_555 1_555
C41B C40B 1_555 1_555
C29B C28B 1_555 1_555
C15B C14B 1_555 1_555

#END
