
#######################################################################
#
#                 Cambridge Crystallographic Data Centre
#                                CCDC 
#
#######################################################################
#
# If this CIF has been generated from an entry in the Cambridge 
# Structural Database, then it will include bibliographic, chemical, 
# crystal, experimental, refinement or atomic coordinate data resulting 
# from the CCDC's data processing and validation procedures.
#
#######################################################################

data_POZGAM
_chemical_formula_moiety         'C84 H96 N36 Pd6 12+,12(N1 O3 1-),4(H2 O1)'
_chemical_name_systematic        
'tetrakis(2,4,6-tris(3-Pyridyl)triazine)-hexakis(ethylenediamine-palladium) dodecanitrate tetrahydrate'
_symmetry_cell_setting           triclinic
_symmetry_space_group_name_H-M   'P -1'
_symmetry_Int_Tables_number      2
_space_group_name_Hall           '-P 1'
loop_
_symmetry_equiv_pos_site_id
_symmetry_equiv_pos_as_xyz
1 x,y,z
2 -x,-y,-z
_cell_length_a                   20.17(1)
_cell_length_b                   22.73(1)
_cell_length_c                   19.17(1)
_cell_angle_alpha                95.68(5)
_cell_angle_beta                 98.70(2)
_cell_angle_gamma                113.47(2)
_cell_volume                     7845.08
_exptl_crystal_colour            colorless
_exptl_crystal_description       prism
_chemical_melting_point          'above 300 deg.C'
_cell_formula_units_Z            2
_exptl_crystal_recrystallization_method water/methanol
loop_
_atom_site_label
_atom_site_type_symbol
_atom_site_fract_x
_atom_site_fract_y
_atom_site_fract_z
Pd1 Pd 0.67099(8) 0.93666(8) 0.05993(8)
Pd2 Pd 0.67304(8) 1.06070(8) 0.73480(8)
Pd3 Pd 0.42588(6) 0.76509(7) 0.53282(7)
Pd4 Pd 0.80054(6) 0.54442(7) 0.76391(7)
Pd5 Pd 0.56332(6) 0.43830(7) 0.17541(7)
Pd6 Pd 0.89678(7) 0.48152(7) 0.11707(7)
N10 N 0.7300(8) 0.9896(8) 0.1578(9)
N11 N 0.6493(8) 0.9400(8) 0.3389(8)
N12 N 0.6461(7) 0.9676(7) 0.4586(9)
N13 N 0.7363(8) 1.0397(9) 0.409(1)
N14 N 0.4713(6) 0.7882(7) 0.4477(8)
N15 N 0.7304(8) 1.0912(8) 0.6574(9)
N16 N 0.6068(8) 1.0235(9) 0.8033(9)
N17 N 0.596(1) 1.093(1) 0.700(1)
N18 N 0.3777(7) 0.7444(8) 0.6195(9)
N19 N 0.3594(8) 0.8125(9) 0.5124(8)
N20 N 0.7427(8) 1.0235(7) 0.7736(8)
N21 N 0.6869(7) 0.8270(7) 0.7060(8)
N22 N 0.7111(6) 0.7317(7) 0.7089(7)
N23 N 0.7930(7) 0.8353(7) 0.7859(8)
N24 N 0.4923(8) 0.7204(8) 0.5594(8)
N25 N 0.8342(6) 0.6399(7) 0.8003(8)
N26 N 0.7563(8) 0.4457(7) 0.7272(8)
N27 N 0.7208(7) 0.5191(7) 0.8250(8)
N28 N 0.8759(6) 0.5639(7) 0.7008(7)
N29 N 0.8046(7) 0.5359(7) 0.4850(7)
N30 N 0.9250(6) 0.5514(6) 0.4648(7)
N31 N 0.8229(7) 0.5172(7) 0.3670(7)
N32 N 0.6024(6) 0.4717(7) 0.2819(7)
N33 N 0.9501(6) 0.5186(7) 0.2203(8)
N34 N 0.841(1) 0.441(1) 0.017(1)
N35 N 0.8620(7) 0.3880(7) 0.1335(8)
N36 N 0.5214(7) 0.3982(9) 0.0684(8)
N37 N 0.5600(7) 0.3492(7) 0.1847(8)
N38 N 0.5713(6) 0.5273(7) 0.1576(8)
N39 N 0.7203(7) 0.7250(7) 0.0860(8)
N40 N 0.8354(7) 0.7382(8) 0.0563(8)
N41 N 0.7625(7) 0.6422(7) 0.0983(7)
N42 N 0.9238(7) 0.5731(7) 0.0917(8)
N43 N 0.7542(7) 0.9089(8) 0.0427(8)
N44 N 0.6114(7) 0.8863(8) -0.0364(9)
N45 N 0.5824(8) 0.9532(8) 0.0748(9)
C1 C 0.796(1) 1.044(1) 0.162(1)
C2 C 0.838(1) 1.085(1) 0.232(1)
C3 C 0.808(1) 1.072(1) 0.294(1)
C4 C 0.741(1) 1.013(1) 0.284(1)
C5 C 0.7049(10) 0.9736(10) 0.219(1)
C6 C 0.704(1) 0.997(1) 0.348(1)
C7 C 0.7044(9) 1.0241(9) 0.463(1)
C8 C 0.7378(10) 1.0698(9) 0.534(1)
C9 C 0.7981(9) 1.1256(9) 0.540(1)
C10 C 0.827(1) 1.164(1) 0.613(1)
C11 C 0.7910(10) 1.148(1) 0.670(1)
C12 C 0.7018(9) 1.0514(9) 0.589(1)
C13 C 0.6219(8) 0.9268(10) 0.395(1)
C14 C 0.5608(8) 0.8619(8) 0.389(1)
C15 C 0.538(1) 0.8189(10) 0.329(1)
C16 C 0.478(1) 0.757(1) 0.324(1)
C17 C 0.4459(9) 0.742(1) 0.386(1)
C18 C 0.5259(9) 0.8448(9) 0.449(1)
C19 C 0.537(2) 1.069(2) 0.739(2)
C20 C 0.556(1) 1.059(2) 0.813(1)
C21 C 0.306(2) 0.795(2) 0.560(2)
C22 C 0.328(1) 0.776(1) 0.625(1)
C23 C 0.4747(9) 0.6560(9) 0.525(1)
C24 C 0.5252(9) 0.6249(9) 0.540(1)
C25 C 0.5900(8) 0.6590(9) 0.596(1)
C26 C 0.6048(8) 0.7244(9) 0.6269(9)
C27 C 0.5581(10) 0.7563(9) 0.6107(10)
C28 C 0.6716(7) 0.7641(9) 0.6833(8)
C29 C 0.7521(9) 0.8598(9) 0.7572(10)
C30 C 0.7719(9) 0.9288(9) 0.781(1)
C31 C 0.841(1) 0.9694(10) 0.830(1)
C32 C 0.855(1) 1.035(1) 0.855(1)
C33 C 0.809(1) 1.0622(10) 0.824(1)
C34 C 0.7259(9) 0.9602(10) 0.7533(10)
C35 C 0.7729(8) 0.771(1) 0.7624(9)
C36 C 0.8171(8) 0.7377(9) 0.7915(10)
C37 C 0.7961(8) 0.6724(9) 0.7731(9)
C38 C 0.8955(10) 0.672(1) 0.8558(10)
C39 C 0.9203(9) 0.7421(9) 0.879(1)
C40 C 0.8779(9) 0.7745(10) 0.854(1)
C41 C 0.672(1) 0.448(1) 0.806(1)
C42 C 0.703(1) 0.410(1) 0.768(1)
C43 C 0.8556(7) 0.5533(8) 0.6314(9)
C44 C 0.9048(8) 0.5633(8) 0.5852(9)
C45 C 0.9816(9) 0.5900(9) 0.615(1)
C46 C 1.0037(8) 0.6029(9) 0.6890(9)
C47 C 0.9514(8) 0.5911(9) 0.733(1)
C48 C 0.8767(7) 0.5487(7) 0.5088(9)
C49 C 0.7778(7) 0.5183(8) 0.4151(9)
C50 C 0.7011(8) 0.5055(9) 0.3874(9)
C51 C 0.6601(7) 0.5142(9) 0.4315(9)
C52 C 0.5804(7) 0.5023(9) 0.3993(9)
C53 C 0.5604(8) 0.4837(9) 0.326(1)
C54 C 0.6743(8) 0.4847(9) 0.3129(9)
C55 C 0.8925(8) 0.5367(9) 0.3963(9)
C56 C 0.9405(8) 0.5378(9) 0.3424(9)
C57 C 0.9098(8) 0.5152(8) 0.2715(9)
C58 C 1.0284(7) 0.5503(10) 0.241(1)
C59 C 1.0625(8) 0.572(1) 0.313(1)
C60 C 1.0195(7) 0.5647(9) 0.3667(9)
C61 C 0.4997(8) 0.3244(9) 0.0573(10)
C62 C 0.5578(10) 0.3179(9) 0.113(1)
C63 C 0.826(1) 0.369(1) 0.007(1)
C64 C 0.7975(10) 0.342(1) 0.071(1)
C65 C 0.9845(9) 0.6082(10) 0.076(1)
C66 C 1.0000(10) 0.6680(10) 0.060(1)
C67 C 0.9485(9) 0.695(1) 0.061(1)
C68 C 0.8834(9) 0.6549(10) 0.0753(9)
C69 C 0.8688(8) 0.5961(9) 0.0924(10)
C70 C 0.8236(9) 0.6830(9) 0.0750(9)
C71 C 0.7118(9) 0.6680(10) 0.101(1)
C72 C 0.6452(8) 0.6291(9) 0.1228(9)
C73 C 0.6345(10) 0.5675(10) 0.1378(10)
C74 C 0.5193(8) 0.5493(9) 0.1677(9)
C75 C 0.5265(9) 0.613(1) 0.150(1)
C76 C 0.5897(9) 0.6509(9) 0.127(1)
C77 C 0.7841(9) 0.7568(9) 0.063(1)
C78 C 0.7943(9) 0.8239(10) 0.0425(10)
C79 C 0.7380(9) 0.8491(10) 0.053(1)
C80 C 0.813(1) 0.950(1) 0.015(1)
C81 C 0.868(1) 0.924(1) 0.004(1)
C82 C 0.8597(9) 0.8635(10) 0.021(1)
C83 C 0.525(1) 0.866(1) -0.038(1)
C84 C 0.531(1) 0.934(1) 0.002(2)
O4 O 0.6234(9) 0.4753(8) -0.0207(9)
O5 O 0.7403(8) 0.502(1) -0.0258(9)
O6 O 0.6950(7) 0.4566(9) 0.0564(9)
N2 N 0.6869(9) 0.4790(10) 0.0065(10)
O7 O 0.583(1) 0.805(1) 0.101(1)
O8 O 0.5272(9) 0.8467(8) 0.1606(8)
O9 O 0.503(1) 0.7453(9) 0.153(1)
N3 N 0.5364(9) 0.7983(9) 0.136(1)
O10 O 0.7350(6) 0.3985(7) 0.2039(8)
O11 O 0.8022(6) 0.3644(7) 0.2728(8)
O12 O 0.6933(6) 0.3489(7) 0.2907(7)
N4 N 0.7431(7) 0.3723(8) 0.2570(9)
O13 O 0.488(1) 0.213(1) 0.233(1)
O14 O 0.498(2) 0.140(1) 0.284(1)
O15 O 0.4123(8) 0.1114(9) 0.1915(8)
N5 N 0.466(1) 0.156(1) 0.237(1)
O16 O 0.0143(9) 0.418(1) 0.1021(8)
O17 O 0.1273(7) 0.4584(8) 0.0800(9)
O18 O 0.099(2) 0.532(1) 0.111(1)
N6 N 0.080(2) 0.471(1) 0.097(1)
O19 O 0.7167(8) 0.3819(8) 0.4723(7)
O20 O 0.8011(7) 0.4159(8) 0.5726(9)
O21 O 0.6858(8) 0.377(1) 0.5695(9)
N7 N 0.7344(7) 0.3906(8) 0.534(1)
O22 O 0.7814(9) 0.282(1) 0.597(1)
O23 O 0.6869(9) 0.223(1) 0.6450(9)
O24 O 0.7672(9) 0.314(1) 0.712(1)
N8 N 0.7472(10) 0.272(1) 0.651(2)
O25 O 0.5777(6) 0.5098(7) 0.5714(7)
O26 O 0.617(1) 0.476(2) 0.654(2)
O27 O 0.6942(6) 0.5551(8) 0.6282(8)
N9 N 0.6308(9) 0.5132(9) 0.6144(9)
O31 O 0.4234(6) 0.3430(7) 0.2334(8)
O32 O 0.3346(6) 0.3269(7) 0.1459(8)
O33 O 0.3874(6) 0.4218(7) 0.2229(8)
N48 N 0.3802(7) 0.3629(9) 0.1994(8)
O34 O 0.690(2) 0.002(2) 0.926(2)
O35 O 0.758(2) 0.094(2) 1.024(2)
O36 O 0.644(2) 0.078(2) 0.965(2)
N47 N 0.718(1) 0.057(2) 0.960(1)
O37 O 0.3805(7) 0.4034(7) 0.0416(8)
O38 O 0.3557(8) 0.2111(8) 0.1189(8)
O39 O 0.8511(7) 0.3800(8) 0.4213(9)
O40 O 0.9182(9) 0.284(1) 0.153(1)
O1? O 1.001(2) 0.057(3) 0.182(7)
O2? O 0.964(1) 0.126(2) 0.010(2)
O3? O 0.934(1) 0.113(1) 0.086(2)
O28? O 0.098(2) 0.255(2) 0.755(2)
O29? O 0.243(3) 0.256(3) 0.725(3)
O30? O 0.193(2) 0.360(2) 0.715(2)
N1? N 0.973(2) 0.076(2) 0.013(2)
N46? N 0.168(2) 0.294(3) 0.721(3)
loop_
_geom_bond_atom_site_label_1
_geom_bond_atom_site_label_2
_geom_bond_site_symmetry_1
_geom_bond_site_symmetry_2
Pd1 N10 1_555 1_555
Pd2 N15 1_555 1_555
Pd3 N14 1_555 1_555
Pd4 N25 1_555 1_555
Pd5 N32 1_555 1_555
Pd6 N33 1_555 1_555
O4 N2 1_555 1_555
O5 N2 1_555 1_555
O6 N2 1_555 1_555
O7 N3 1_555 1_555
O8 N3 1_555 1_555
O9 N3 1_555 1_555
O10 N4 1_555 1_555
O11 N4 1_555 1_555
O12 N4 1_555 1_555
O13 N5 1_555 1_555
O14 N5 1_555 1_555
O15 N5 1_555 1_555
O16 N6 1_555 1_555
O17 N6 1_555 1_555
O18 N6 1_555 1_555
O19 N7 1_555 1_555
O20 N7 1_555 1_555
O21 N7 1_555 1_555
O22 N8 1_555 1_555
O23 N8 1_555 1_555
O24 N8 1_555 1_555
O25 N9 1_555 1_555
O26 N9 1_555 1_555
O27 N9 1_555 1_555
O31 N48 1_555 1_555
O32 N48 1_555 1_555
O33 N48 1_555 1_555
O34 N47 1_555 1_555
O35 N47 1_555 1_555
O36 N47 1_555 1_555
N10 C1 1_555 1_555
N11 C6 1_555 1_555
N12 C7 1_555 1_555
N13 C6 1_555 1_555
N14 C17 1_555 1_555
N15 C11 1_555 1_555
N16 Pd2 1_555 1_555
N17 Pd2 1_555 1_555
N18 Pd3 1_555 1_555
N19 Pd3 1_555 1_555
N20 Pd2 1_555 1_555
N21 C28 1_555 1_555
N22 C28 1_555 1_555
N23 C29 1_555 1_555
N24 Pd3 1_555 1_555
N25 C37 1_555 1_555
N26 Pd4 1_555 1_555
N27 Pd4 1_555 1_555
N28 Pd4 1_555 1_555
N29 C48 1_555 1_555
N30 C48 1_555 1_555
N31 C49 1_555 1_555
N32 C53 1_555 1_555
N33 C57 1_555 1_555
N34 Pd6 1_555 1_555
N35 Pd6 1_555 1_555
N36 Pd5 1_555 1_555
N37 Pd5 1_555 1_555
N38 Pd5 1_555 1_555
N39 C71 1_555 1_555
N40 C70 1_555 1_555
N41 C70 1_555 1_555
N42 Pd6 1_555 1_555
N43 Pd1 1_555 1_555
N44 Pd1 1_555 1_555
N45 Pd1 1_555 1_555
C1 C2 1_555 1_555
C2 C3 1_555 1_555
C3 C4 1_555 1_555
C4 C5 1_555 1_555
C5 N10 1_555 1_555
C6 C4 1_555 1_555
C7 N13 1_555 1_555
C8 C7 1_555 1_555
C9 C8 1_555 1_555
C10 C9 1_555 1_555
C11 C10 1_555 1_555
C12 N15 1_555 1_555
C13 N11 1_555 1_555
C14 C13 1_555 1_555
C15 C14 1_555 1_555
C16 C15 1_555 1_555
C17 C16 1_555 1_555
C18 N14 1_555 1_555
C19 N17 1_555 1_555
C20 N16 1_555 1_555
C21 N19 1_555 1_555
C22 N18 1_555 1_555
C23 N24 1_555 1_555
C24 C23 1_555 1_555
C25 C24 1_555 1_555
C26 C25 1_555 1_555
C27 N24 1_555 1_555
C28 C26 1_555 1_555
C29 N21 1_555 1_555
C30 C29 1_555 1_555
C31 C30 1_555 1_555
C32 C31 1_555 1_555
C33 N20 1_555 1_555
C34 N20 1_555 1_555
C35 N22 1_555 1_555
C36 C35 1_555 1_555
C37 C36 1_555 1_555
C38 N25 1_555 1_555
C39 C38 1_555 1_555
C40 C36 1_555 1_555
C41 N27 1_555 1_555
C42 N26 1_555 1_555
C43 N28 1_555 1_555
C44 C43 1_555 1_555
C45 C44 1_555 1_555
C46 C45 1_555 1_555
C47 N28 1_555 1_555
C48 C44 1_555 1_555
C49 N29 1_555 1_555
C50 C49 1_555 1_555
C51 C50 1_555 1_555
C52 C51 1_555 1_555
C53 C52 1_555 1_555
C54 N32 1_555 1_555
C55 N30 1_555 1_555
C56 C55 1_555 1_555
C57 C56 1_555 1_555
C58 N33 1_555 1_555
C59 C58 1_555 1_555
C60 C56 1_555 1_555
C61 N36 1_555 1_555
C62 N37 1_555 1_555
C63 N34 1_555 1_555
C64 N35 1_555 1_555
C65 N42 1_555 1_555
C66 C65 1_555 1_555
C67 C66 1_555 1_555
C68 C67 1_555 1_555
C69 N42 1_555 1_555
C70 C68 1_555 1_555
C71 N41 1_555 1_555
C72 C71 1_555 1_555
C73 N38 1_555 1_555
C74 N38 1_555 1_555
C75 C74 1_555 1_555
C76 C72 1_555 1_555
C77 N39 1_555 1_555
C78 C77 1_555 1_555
C79 N43 1_555 1_555
C80 N43 1_555 1_555
C81 C80 1_555 1_555
C82 C78 1_555 1_555
C83 N44 1_555 1_555
C84 N45 1_555 1_555
N12 C13 1_555 1_555
N23 C35 1_555 1_555
N31 C55 1_555 1_555
N40 C77 1_555 1_555
C8 C12 1_555 1_555
C14 C18 1_555 1_555
C19 C20 1_555 1_555
C21 C22 1_555 1_555
C26 C27 1_555 1_555
C30 C34 1_555 1_555
C32 C33 1_555 1_555
C39 C40 1_555 1_555
C41 C42 1_555 1_555
C46 C47 1_555 1_555
C50 C54 1_555 1_555
C59 C60 1_555 1_555
C61 C62 1_555 1_555
C63 C64 1_555 1_555
C68 C69 1_555 1_555
C72 C73 1_555 1_555
C75 C76 1_555 1_555
C78 C79 1_555 1_555
C81 C82 1_555 1_555
C83 C84 1_555 1_555

#END
