
#######################################################################
#
#                 Cambridge Crystallographic Data Centre
#                                CCDC 
#
#######################################################################
#
# If this CIF has been generated from an entry in the Cambridge 
# Structural Database, then it will include bibliographic, chemical, 
# crystal, experimental, refinement or atomic coordinate data resulting 
# from the CCDC's data processing and validation procedures.
#
#######################################################################

data_POZGEQ
_chemical_formula_moiety         'C56 H40 N16 Pd2 4+,4(F6 P1 1-),C2 H3 N1'
_chemical_name_systematic        
"bis((\m~2~-2,4,6-tris(3-Pyridyl)triazine-N,N')-bipyridyl-palladium(ii)) tetrakis(hexafluorophosphate) acetonitrile solvate"
_symmetry_cell_setting           orthorhombic
_symmetry_space_group_name_H-M   'C 2 2 21'
_symmetry_Int_Tables_number      20
_space_group_name_Hall           'C 2n 2'
loop_
_symmetry_equiv_pos_site_id
_symmetry_equiv_pos_as_xyz
1 x,y,z
2 x,-y,-z
3 -x,-y,1/2+z
4 -x,y,1/2-z
5 1/2+x,1/2+y,z
6 1/2+x,1/2-y,-z
7 1/2-x,1/2-y,1/2+z
8 1/2-x,1/2+y,1/2-z
_cell_length_a                   13.280(5)
_cell_length_b                   24.43(1)
_cell_length_c                   20.869(3)
_cell_angle_alpha                90
_cell_angle_beta                 90
_cell_angle_gamma                90
_cell_volume                     6770.54
_exptl_crystal_colour            yellow
_exptl_crystal_description       prism
_cell_formula_units_Z            4
loop_
_atom_site_label
_atom_site_type_symbol
_atom_site_fract_x
_atom_site_fract_y
_atom_site_fract_z
Pd1 Pd 0.4927(1) 0.14496(6) 0.5003(2)
N1 N 0.270(1) 0.000(2) 0.6366(8)
N2 N 0.602(2) 0.145(1) 0.439(1)
N3 N 0.611(2) 0.149(1) 0.568(1)
N4 N 0.389(2) 0.1451(10) 0.436(1)
N5 N 0.190(2) -0.0470(7) 0.722(1)
N6 N 0.178(3) 0.055(1) 0.718(1)
N7 N 0.381(2) 0.146(1) 0.570(1)
N8 N 0.005(3) 0.052(1) 0.884(1)
C1 C 0.092(2) -0.006(2) 0.807(1)
C2 C 0.784(3) 0.156(1) 0.421(4)
C3 C 0.777(2) 0.160(1) 0.638(1)
C4 C 0.007(3) -0.044(2) 0.888(2)
C5 C 0.268(2) 0.194(1) 0.367(1)
C6 C 0.347(3) 0.197(2) 0.583(1)
C7 C -0.019(2) 0.003(2) 0.910(1)
C8 C 0.265(3) 0.201(2) 0.638(3)
C9 C 0.677(3) 0.151(2) 0.670(2)
C10 C 0.231(2) 0.1504(10) 0.341(1)
C11 C 0.065(3) -0.051(1) 0.829(1)
C12 C 0.788(2) 0.157(1) 0.5721(10)
C13 C 0.276(2) 0.098(2) 0.356(1)
C14 C 0.344(3) 0.192(1) 0.411(2)
C15 C 0.163(2) -0.006(1) 0.744(1)
C16 C 0.238(3) 0.052(2) 0.670(2)
C17 C 0.276(2) 0.0973(8) 0.635(1)
C18 C 0.235(3) 0.141(2) 0.662(2)
C19 C 0.358(3) 0.097(2) 0.590(2)
C20 C 0.242(2) 0.0420(9) 0.335(1)
C21 C 0.774(4) 0.149(2) 0.351(2)
C22 C 0.688(3) 0.149(1) 0.336(1)
C23 C 0.603(3) 0.143(2) 0.371(2)
C24 C 0.701(5) 0.152(1) 0.458(2)
C25 C 0.701(1) 0.1502(10) 0.533(1)
C26 C 0.599(2) 0.147(1) 0.627(1)
C27 C 0.346(2) 0.0982(8) 0.406(1)
C28 C 0.051(3) 0.050(1) 0.838(2)
H1 H 0.8473 0.1621 0.4392
H2 H 0.8320 0.1716 0.6642
H3 H -0.0098 -0.0723 0.9124
H4 H 0.2440 0.2287 0.3525
H5 H 0.3757 0.2280 0.5623
H6 H -0.0600 0.0036 0.9475
H7 H 0.2353 0.2396 0.6508
H8 H 0.6695 0.1417 0.7148
H9 H 0.1768 0.1528 0.3123
H10 H 0.0828 -0.0860 0.8129
H11 H 0.8536 0.1577 0.5532
H12 H 0.3662 0.2260 0.4271
H13 H 0.1874 0.1357 0.6956
H14 H 0.3904 0.0635 0.5749
H15 H 0.8327 0.1425 0.3221
H16 H 0.6729 0.1582 0.2914
H17 H 0.5400 0.1359 0.3512
H18 H 0.5323 0.1458 0.6445
H19 H 0.3649 0.0636 0.4220
H20 H 0.0647 0.0814 0.8130
N1A N 0.270(1) 0.000(2) 0.3634(8)
C16A C 0.238(3) -0.052(2) 0.330(2)
N6A N 0.178(3) -0.055(1) 0.282(1)
C15A C 0.163(2) 0.006(1) 0.256(1)
N5A N 0.190(2) 0.0470(7) 0.278(1)
C1A C 0.092(2) 0.006(2) 0.193(1)
C11A C 0.065(3) 0.051(1) 0.171(1)
C4A C 0.007(3) 0.044(2) 0.112(2)
C7A C -0.019(2) -0.003(2) 0.090(1)
N8A N 0.005(3) -0.052(1) 0.116(1)
C28A C 0.051(3) -0.050(1) 0.162(2)
H20A H 0.0647 -0.0814 0.1870
H6A H -0.0600 -0.0036 0.0525
H3A H -0.0098 0.0723 0.0876
H10A H 0.0828 0.0860 0.1871
C17A C 0.276(2) -0.0973(8) 0.365(1)
C18A C 0.235(3) -0.141(2) 0.338(2)
C8A C 0.265(3) -0.201(2) 0.362(3)
C6A C 0.347(3) -0.197(2) 0.417(1)
N7A N 0.381(2) -0.146(1) 0.430(1)
Pd1A Pd 0.4927(1) -0.14496(6) 0.4997(2)
N2A N 0.602(2) -0.145(1) 0.561(1)
C23A C 0.603(3) -0.143(2) 0.629(2)
C22A C 0.688(3) -0.149(1) 0.664(1)
C21A C 0.774(4) -0.149(2) 0.649(2)
C2A C 0.784(3) -0.156(1) 0.579(4)
C24A C 0.701(5) -0.152(1) 0.542(2)
C25A C 0.701(1) -0.1502(10) 0.467(1)
N3A N 0.611(2) -0.149(1) 0.432(1)
N4A N 0.389(2) -0.1451(10) 0.564(1)
C14A C 0.344(3) -0.192(1) 0.589(2)
C5A C 0.268(2) -0.194(1) 0.633(1)
C10A C 0.231(2) -0.1504(10) 0.659(1)
C13A C 0.276(2) -0.098(2) 0.644(1)
C20A C 0.242(2) -0.0420(9) 0.665(1)
C27A C 0.346(2) -0.0982(8) 0.594(1)
H19A H 0.3649 -0.0636 0.5780
H9A H 0.1768 -0.1528 0.6877
H4A H 0.2440 -0.2287 0.6475
H12A H 0.3662 -0.2260 0.5729
C26A C 0.599(2) -0.147(1) 0.373(1)
C9A C 0.677(3) -0.151(2) 0.330(2)
C3A C 0.777(2) -0.160(1) 0.362(1)
C12A C 0.788(2) -0.157(1) 0.4279(10)
H11A H 0.8536 -0.1577 0.4468
H2A H 0.8320 -0.1716 0.3358
H8A H 0.6695 -0.1417 0.2852
H18A H 0.5323 -0.1458 0.3555
H1A H 0.8473 -0.1621 0.5608
H15A H 0.8327 -0.1425 0.6779
H16A H 0.6729 -0.1582 0.7086
H17A H 0.5400 -0.1359 0.6488
C19A C 0.358(3) -0.097(2) 0.410(2)
H14A H 0.3904 -0.0635 0.4251
H5A H 0.3757 -0.2280 0.4377
H7A H 0.2353 -0.2396 0.3492
H13A H 0.1874 -0.1357 0.3044
P1 P 0.0000 0.2360(5) 0.2500
F1 F -0.008(2) 0.2378(8) 0.3270(9)
F2 F 0.123(1) 0.2348(7) 0.254(1)
F3 F 0.0000 0.301(1) 0.2500
F4 F 0.0000 0.173(1) 0.2500
F1C F 0.008(2) 0.2378(8) 0.1730(9)
F2C F -0.123(1) 0.2348(7) 0.246(1)
P2 P 1.0000 0.2379(5) 0.7500
F5 F 0.884(2) 0.2394(7) 0.752(1)
F6 F 0.998(2) 0.2370(9) 0.6751(9)
F7 F 1.0000 0.302(1) 0.7500
F8 F 1.0000 0.1715(9) 0.7500
F5C F 1.116(2) 0.2394(7) 0.748(1)
F6C F 1.002(2) 0.2370(9) 0.8249(9)
P3 P 0.5000 0.002(1) 0.2500
F9 F 0.469(1) -0.0469(7) 0.301(1)
F10 F 0.487(3) 0.043(1) 0.306(1)
F11 F 0.384(1) -0.004(1) 0.2245(9)
F9C F 0.531(1) -0.0469(7) 0.199(1)
F10C F 0.513(3) 0.043(1) 0.194(1)
F11C F 0.616(1) -0.004(1) 0.2755(9)
N9 N 0.5050 0.0000 0.5000
C29 C 0.6323 0.0000 0.5000
C30 C 0.7523 0.0000 0.5000
P4? P 1.0728(9) 0.1853(5) 0.504(1)
F12? F 0.997(2) 0.2258(6) 0.497(2)
F13? F 1.072(2) 0.184(1) 0.426(1)
F14? F 1.084(6) 0.1370(9) 0.502(2)
H21? H 0.7761 -0.0082 0.5418
H22? H 0.7761 -0.0268 0.4707
H23? H 0.7761 0.0351 0.4875
loop_
_geom_bond_atom_site_label_1
_geom_bond_atom_site_label_2
_geom_bond_site_symmetry_1
_geom_bond_site_symmetry_2
Pd1 N2 1_555 1_555
N1 C16 1_555 1_555
N2 C23 1_555 1_555
N3 Pd1 1_555 1_555
N4 Pd1 1_555 1_555
N5 C15 1_555 1_555
N6 C15 1_555 1_555
N7 Pd1 1_555 1_555
N8 C7 1_555 1_555
C1 C11 1_555 1_555
C2 C21 1_555 1_555
C3 C9 1_555 1_555
C4 C7 1_555 1_555
C5 C10 1_555 1_555
C6 N7 1_555 1_555
C7 H6 1_555 1_555
C8 C6 1_555 1_555
C9 C26 1_555 1_555
C10 C13 1_555 1_555
C11 C4 1_555 1_555
C12 C3 1_555 1_555
C13 C20 1_555 1_555
C14 N4 1_555 1_555
C15 C1 1_555 1_555
C16 N6 1_555 1_555
C17 C16 1_555 1_555
C18 C8 1_555 1_555
C19 N7 1_555 1_555
C20 N1A 1_555 1_555
C21 C22 1_555 1_555
C22 C23 1_555 1_555
C23 H17 1_555 1_555
C24 N2 1_555 1_555
C25 N3 1_555 1_555
C26 N3 1_555 1_555
C27 N4 1_555 1_555
C28 N8 1_555 1_555
H1 C2 1_555 1_555
H2 C3 1_555 1_555
H3 C4 1_555 1_555
H4 C5 1_555 1_555
H5 C6 1_555 1_555
H7 C8 1_555 1_555
H8 C9 1_555 1_555
H9 C10 1_555 1_555
H10 C11 1_555 1_555
H11 C12 1_555 1_555
H12 C14 1_555 1_555
H13 C18 1_555 1_555
H14 C19 1_555 1_555
H15 C21 1_555 1_555
H16 C22 1_555 1_555
H18 C26 1_555 1_555
H19 C27 1_555 1_555
H20 C28 1_555 1_555
P1 F1 1_555 1_555
F2 P1 1_555 1_555
F3 P1 1_555 1_555
F4 P1 1_555 1_555
P2 F5 1_555 1_555
F6 P2 1_555 1_555
F7 P2 1_555 1_555
F8 P2 1_555 1_555
P3 F9 1_555 1_555
F10 P3 1_555 1_555
F11 P3 1_555 1_555
N9 C29 1_555 1_555
C29 C30 1_555 1_555
N1A C16A 1_555 1_555
C16A N6A 1_555 1_555
N6A C15A 1_555 1_555
C15A N5A 1_555 1_555
N5A C20 1_555 1_555
C1A C15A 1_555 1_555
C11A C1A 1_555 1_555
C4A C11A 1_555 1_555
C7A C4A 1_555 1_555
N8A C7A 1_555 1_555
C28A C1A 1_555 1_555
H20A C28A 1_555 1_555
H6A C7A 1_555 1_555
H3A C4A 1_555 1_555
H10A C11A 1_555 1_555
C17A C16A 1_555 1_555
C18A C17A 1_555 1_555
C8A C18A 1_555 1_555
C6A C8A 1_555 1_555
N7A C6A 1_555 1_555
Pd1A N7A 1_555 1_555
N2A Pd1A 1_555 1_555
C23A N2A 1_555 1_555
C22A C23A 1_555 1_555
C21A C22A 1_555 1_555
C2A C21A 1_555 1_555
C24A N2A 1_555 1_555
C25A C24A 1_555 1_555
N3A Pd1A 1_555 1_555
N4A Pd1A 1_555 1_555
C14A N4A 1_555 1_555
C5A C14A 1_555 1_555
C10A C5A 1_555 1_555
C13A C10A 1_555 1_555
C20A N1 1_555 1_555
C27A N4A 1_555 1_555
H19A C27A 1_555 1_555
H9A C10A 1_555 1_555
H4A C5A 1_555 1_555
H12A C14A 1_555 1_555
C26A N3A 1_555 1_555
C9A C26A 1_555 1_555
C3A C9A 1_555 1_555
C12A C25A 1_555 1_555
H11A C12A 1_555 1_555
H2A C3A 1_555 1_555
H8A C9A 1_555 1_555
H18A C26A 1_555 1_555
H1A C2A 1_555 1_555
H15A C21A 1_555 1_555
H16A C22A 1_555 1_555
H17A C23A 1_555 1_555
C19A C17A 1_555 1_555
H14A C19A 1_555 1_555
H5A C6A 1_555 1_555
H7A C8A 1_555 1_555
H13A C18A 1_555 1_555
F1C P1 1_555 1_555
F2C P1 1_555 1_555
F5C P2 1_555 1_555
F6C P2 1_555 1_555
F9C P3 1_555 1_555
F10C P3 1_555 1_555
F11C P3 1_555 1_555
N5 C20A 1_555 1_555
C1 C28 1_555 1_555
C2 C24 1_555 1_555
C5 C14 1_555 1_555
C12 C25 1_555 1_555
C13 C27 1_555 1_555
C17 C18 1_555 1_555
C17 C19 1_555 1_555
C24 C25 1_555 1_555
N8A C28A 1_555 1_555
N7A C19A 1_555 1_555
C2A C24A 1_555 1_555
C25A N3A 1_555 1_555
C13A C20A 1_555 1_555
C13A C27A 1_555 1_555
C3A C12A 1_555 1_555

#END
