
#######################################################################
#
#                 Cambridge Crystallographic Data Centre
#                                CCDC 
#
#######################################################################
#
# If this CIF has been generated from an entry in the Cambridge 
# Structural Database, then it will include bibliographic, chemical, 
# crystal, experimental, refinement or atomic coordinate data resulting 
# from the CCDC's data processing and validation procedures.
#
#######################################################################

data_POZJOE
_chemical_formula_moiety         
'C90 H120 N30 Pd6 12+,2(C12 H18 N2 Ni1 O2),12(N1 O3 1-),34(H2 O1)'
_chemical_name_systematic        
"bis(\m~3~-2,4,6-tris(4-Pyridinyl)-1,3,5-triazine-N,N',N'')-tris(\m~2~-2,2',6,6'-tetramethyl-4,4'-bipyridine)-hexakis(ethylene-1,2-diamine)-hexa-palladium bis(ethylenebis(acetylacetoniminato-N,O)-nickel(ii)) clathrate dodecanitrate hydrate"
_symmetry_cell_setting           monoclinic
_symmetry_space_group_name_H-M   'P 21/c'
_symmetry_Int_Tables_number      14
_space_group_name_Hall           '-P 2ybc'
loop_
_symmetry_equiv_pos_site_id
_symmetry_equiv_pos_as_xyz
1 x,y,z
2 -x,1/2+y,1/2-z
3 -x,-y,-z
4 x,1/2-y,1/2+z
_cell_length_a                   18.623(3)
_cell_length_b                   36.669(6)
_cell_length_c                   26.997(5)
_cell_angle_alpha                90
_cell_angle_beta                 107.203(2)
_cell_angle_gamma                90
_cell_volume                     17611.1
_exptl_crystal_colour            'dark green'
_exptl_crystal_description       needle
_chemical_melting_point          'about 200deg.C(dec)'
_cell_formula_units_Z            4
loop_
_atom_site_label
_atom_site_type_symbol
_atom_site_fract_x
_atom_site_fract_y
_atom_site_fract_z
Pd1 Pd 0.985238(17) 0.900484(9) 0.576770(12)
Pd2 Pd 0.78214(2) 0.558108(9) 0.508029(13)
Pd3 Pd 0.271114(18) 0.817174(9) 0.391541(13)
Pd4 Pd 1.118981(18) 0.832855(9) 0.995642(13)
Pd5 Pd 0.657448(18) 0.544194(8) 0.886723(13)
Pd6 Pd 0.418139(18) 0.885023(9) 0.811408(12)
C1 C 0.9170(2) 0.82699(12) 0.56221(18)
H1 H 0.9683 0.8198 0.5733
C2 C 0.8628(2) 0.80048(11) 0.55169(17)
H2 H 0.8764 0.7755 0.5558
C3 C 0.7876(2) 0.81059(11) 0.53497(16)
C4 C 0.7709(2) 0.84762(11) 0.53094(17)
H3 H 0.7201 0.8556 0.5208
C5 C 0.8285(2) 0.87254(11) 0.54177(16)
H4 H 0.8164 0.8978 0.5379
C6 C 0.6780(3) 0.62182(12) 0.49789(18)
H5 H 0.6399 0.6037 0.4886
C7 C 0.6570(2) 0.65791(11) 0.49855(17)
H6 H 0.6054 0.6644 0.4895
C8 C 0.7122(2) 0.68449(11) 0.51252(15)
C9 C 0.7867(2) 0.67384(12) 0.52696(18)
H7 H 0.8256 0.6914 0.5383
C10 C 0.8039(3) 0.63735(12) 0.52474(19)
H8 H 0.8552 0.6302 0.5339
C11 C 0.4352(2) 0.82642(12) 0.43292(18)
H9 H 0.4220 0.8515 0.4321
C12 C 0.5090(2) 0.81657(12) 0.45513(18)
H10 H 0.5462 0.8346 0.4685
C13 C 0.5283(2) 0.77988(11) 0.45784(16)
C14 C 0.4727(2) 0.75478(12) 0.43538(17)
H11 H 0.4843 0.7295 0.4358
C15 C 0.4002(3) 0.76668(13) 0.41241(18)
H12 H 0.3628 0.7494 0.3961
C16 C 0.7277(2) 0.78264(11) 0.52053(15)
C17 C 0.6922(2) 0.72387(11) 0.50962(15)
C18 C 0.6063(2) 0.76834(11) 0.48389(15)
C19 C 0.9562(2) 0.82875(12) 0.96314(18)
H13 H 0.9614 0.8545 0.9634
C20 C 0.8860(2) 0.81368(12) 0.94306(18)
H14 H 0.8434 0.8289 0.9297
C21 C 0.8779(2) 0.77613(12) 0.94239(16)
C22 C 0.9408(2) 0.75510(12) 0.96482(18)
H15 H 0.9368 0.7294 0.9669
C23 C 1.0094(3) 0.77208(12) 0.98415(18)
H16 H 1.0526 0.7576 0.9993
C24 C 0.4860(3) 0.81016(12) 0.82766(17)
H17 H 0.4356 0.8022 0.8130
C25 C 0.5418(2) 0.78440(11) 0.84313(17)
H18 H 0.5300 0.7592 0.8390
C26 C 0.6154(2) 0.79566(11) 0.86479(16)
C27 C 0.6297(3) 0.83282(12) 0.86925(18)
H19 H 0.6797 0.8415 0.8834
C28 C 0.5715(3) 0.85674(12) 0.85317(18)
H20 H 0.5820 0.8821 0.8567
C29 C 0.7547(3) 0.61116(12) 0.90513(17)
H21 H 0.7954 0.5944 0.9118
C30 C 0.7699(2) 0.64805(11) 0.90652(16)
H22 H 0.8202 0.6565 0.9144
C31 C 0.7106(2) 0.67261(11) 0.89624(16)
C32 C 0.6380(3) 0.65921(12) 0.88586(18)
H23 H 0.5963 0.6754 0.8787
C33 C 0.6274(3) 0.62200(12) 0.88609(19)
H24 H 0.5778 0.6129 0.8800
C34 C 0.8023(2) 0.76005(11) 0.91930(16)
C35 C 0.6784(2) 0.76952(11) 0.88292(15)
C36 C 0.7238(2) 0.71257(11) 0.89735(15)
C37 C 0.9054(3) 0.93117(13) 0.65566(18)
H25 H 0.9047 0.9344 0.6195
H26 H 0.9176 0.9545 0.6740
H27 H 0.8559 0.9229 0.6568
C38 C 0.9634(2) 0.90342(11) 0.68109(17)
C39 C 0.9758(2) 0.89435(12) 0.73275(17)
H28 H 0.9468 0.9057 0.7521
C40 C 1.0303(2) 0.86877(12) 0.75661(17)
C41 C 1.0712(2) 0.85311(12) 0.72688(17)
H29 H 1.1083 0.8353 0.7420
C42 C 1.0590(2) 0.86289(11) 0.67556(16)
C43 C 1.1078(2) 0.84870(13) 0.64491(18)
H30 H 1.0909 0.8587 0.6097
H31 H 1.1047 0.8220 0.6433
H32 H 1.1600 0.8561 0.6616
C44 C 1.0618(3) 0.90756(13) 0.93876(19)
H33 H 1.0794 0.8976 0.9740
H34 H 1.0099 0.9161 0.9318
H35 H 1.0940 0.9280 0.9355
C45 C 1.0651(2) 0.87855(12) 0.90069(17)
C46 C 1.0435(3) 0.88628(12) 0.84819(17)
H36 H 1.0259 0.9100 0.8366
C47 C 1.0471(2) 0.85996(12) 0.81233(16)
C48 C 1.0708(3) 0.82537(12) 0.83094(17)
H37 H 1.0727 0.8065 0.8073
C49 C 1.0914(2) 0.81820(12) 0.88320(17)
C50 C 1.1202(3) 0.78140(14) 0.90333(19)
H38 H 1.1184 0.7652 0.8742
H39 H 1.0889 0.7714 0.9235
H40 H 1.1722 0.7835 0.9255
C51 C 0.8905(3) 0.56783(14) 0.6219(2)
H41 H 0.8921 0.5685 0.5860
H42 H 0.9267 0.5498 0.6415
H43 H 0.9034 0.5919 0.6378
C52 C 0.8127(3) 0.55745(12) 0.62276(18)
C53 C 0.7960(3) 0.55512(12) 0.66919(18)
H44 H 0.8340 0.5598 0.7008
C54 C 0.7241(3) 0.54604(11) 0.67012(17)
C55 C 0.6714(3) 0.53821(12) 0.62315(18)
H45 H 0.6215 0.5321 0.6223
C56 C 0.6907(3) 0.53915(12) 0.57718(18)
C57 C 0.6367(3) 0.52622(15) 0.5279(2)
H46 H 0.6592 0.5289 0.4995
H47 H 0.5905 0.5408 0.5202
H48 H 0.6247 0.5005 0.5313
C58 C 0.8050(3) 0.52475(13) 0.86089(18)
H49 H 0.7846 0.5255 0.8904
H50 H 0.8467 0.5421 0.8666
H51 H 0.8232 0.5001 0.8573
C59 C 0.7449(2) 0.53475(11) 0.81262(17)
C60 C 0.7608(3) 0.53536(12) 0.76553(18)
H52 H 0.8101 0.5296 0.7646
C61 C 0.7054(3) 0.54430(12) 0.71947(17)
C62 C 0.6345(3) 0.55155(12) 0.72349(18)
H53 H 0.5948 0.5570 0.6930
C63 C 0.6200(3) 0.55110(13) 0.77088(19)
C64 C 0.5434(3) 0.55975(19) 0.7744(2)
H54 H 0.5436 0.5584 0.8107
H55 H 0.5072 0.5421 0.7538
H56 H 0.5292 0.5844 0.7611
C65 C 0.2859(3) 0.76523(13) 0.48739(19)
H57 H 0.2715 0.7639 0.4495
H58 H 0.2465 0.7542 0.4998
H59 H 0.3333 0.7521 0.5021
C66 C 0.2959(2) 0.80432(12) 0.50402(17)
C67 C 0.3154(2) 0.81218(12) 0.55626(17)
H60 H 0.3210 0.7930 0.5807
C68 C 0.3268(2) 0.84801(12) 0.57322(17)
C69 C 0.3154(3) 0.87494(12) 0.53578(17)
H61 H 0.3218 0.8998 0.5461
C70 C 0.2951(3) 0.86629(12) 0.48383(17)
C71 C 0.2817(4) 0.89545(14) 0.4437(2)
H62 H 0.2674 0.8843 0.4091
H63 H 0.3278 0.9097 0.4486
H64 H 0.2412 0.9115 0.4468
C72 C 0.2903(3) 0.83292(14) 0.74732(18)
H65 H 0.3123 0.8417 0.7829
H66 H 0.2926 0.8062 0.7469
H67 H 0.2377 0.8408 0.7345
C73 C 0.3330(2) 0.84816(11) 0.71340(16)
C74 C 0.3126(2) 0.84008(12) 0.66096(17)
H68 H 0.2735 0.8230 0.6468
C75 C 0.3489(2) 0.85680(12) 0.62913(17)
C76 C 0.4065(2) 0.88090(11) 0.65128(17)
H69 H 0.4322 0.8927 0.6301
C77 C 0.4271(2) 0.88793(11) 0.70372(17)
C78 C 0.4888(3) 0.91400(13) 0.72869(18)
H70 H 0.5100 0.9240 0.7024
H71 H 0.5282 0.9012 0.7552
H72 H 0.4687 0.9339 0.7449
C79 C 1.0393(3) 0.93553(16) 0.5000(2)
H73 H 1.0293 0.9503 0.4680
H74 H 1.0777 0.9169 0.4996
C80 C 1.0671(3) 0.95964(14) 0.54694(19)
H75 H 1.1174 0.9695 0.5490
H76 H 1.0322 0.9803 0.5449
C81 C 0.8384(4) 0.53061(18) 0.4257(3)
H77 H 0.8255 0.5268 0.3878
H78 H 0.8934 0.5344 0.4393
C82 C 0.8171(5) 0.49910(17) 0.4498(3)
H79 H 0.8514 0.4786 0.4489
H80 H 0.7654 0.4917 0.4301
C83 C 0.1790(3) 0.81515(15) 0.28391(19)
H81 H 0.1614 0.7998 0.2525
H82 H 0.1822 0.8407 0.2730
C84 C 0.1257(3) 0.81221(15) 0.31618(19)
H83 H 0.0770 0.8237 0.2979
H84 H 0.1166 0.7863 0.3226
C85 C 1.2248(3) 0.8419(2) 1.0967(2)
H85 H 1.2140 0.8668 1.1068
H86 H 1.2542 0.8289 1.1283
C86 C 1.2690(4) 0.8442(2) 1.0595(3)
H87 H 1.3109 0.8616 1.0724
H88 H 1.2907 0.8200 1.0561
C87 C 0.3824(3) 0.93055(15) 0.8883(2)
H89 H 0.4019 0.9475 0.9177
H90 H 0.3391 0.9172 0.8935
C88 C 0.3587(3) 0.95123(13) 0.8383(2)
H91 H 0.3147 0.9668 0.8369
H92 H 0.4002 0.9671 0.8351
C89 C 0.6045(3) 0.50782(14) 0.9643(2)
H93 H 0.5496 0.5116 0.9502
H94 H 0.6163 0.5010 1.0013
C90 C 0.6299(3) 0.47786(13) 0.9343(2)
H95 H 0.6829 0.4712 0.9519
H96 H 0.5984 0.4559 0.9323
N1 N 0.90092(19) 0.86278(9) 0.55756(13)
N2 N 0.7500(2) 0.61134(10) 0.50986(14)
N3 N 0.38106(19) 0.80183(10) 0.41236(14)
N4 N 0.74844(19) 0.74780(9) 0.52629(13)
N5 N 0.61998(19) 0.73234(9) 0.48786(14)
N6 N 0.65751(19) 0.79455(9) 0.49947(13)
N7 N 1.0173(2) 0.80826(10) 0.98234(14)
N8 N 0.4999(2) 0.84602(10) 0.83250(13)
N9 N 0.6845(2) 0.59810(9) 0.89462(14)
N10 N 0.74630(19) 0.78398(9) 0.90238(14)
N11 N 0.66348(19) 0.73385(9) 0.87990(13)
N12 N 0.79448(19) 0.72389(9) 0.91714(14)
N13 N 1.00504(18) 0.88742(9) 0.65327(13)
N14 N 1.08931(19) 0.84500(10) 0.91784(13)
N15 N 0.7602(2) 0.54982(9) 0.57721(14)
N16 N 0.6755(2) 0.54305(9) 0.81502(14)
N17 N 0.28691(19) 0.83105(10) 0.46825(13)
N18 N 0.39035(19) 0.87137(9) 0.73432(13)
N19 N 0.9694(2) 0.91760(11) 0.50263(14)
H133 H 0.9584 0.8980 0.4803
H134 H 0.9299 0.9338 0.4932
N20 N 1.0711(2) 0.93671(11) 0.59320(15)
H135 H 1.0687 0.9514 0.6203
H136 H 1.1162 0.9244 0.6031
N21 N 0.7986(3) 0.56317(12) 0.43656(16)
H137 H 0.7530 0.5655 0.4115
H138 H 0.8265 0.5838 0.4358
N22 N 0.8202(3) 0.50672(12) 0.50379(17)
H139 H 0.8688 0.5046 0.5249
H140 H 0.7908 0.4902 0.5147
N23 N 0.2531(2) 0.80247(11) 0.31657(14)
H141 H 0.2901 0.8123 0.3044
H142 H 0.2556 0.7775 0.3144
N24 N 0.1612(2) 0.83134(11) 0.36628(15)
H143 H 0.1376 0.8248 0.3904
H144 H 0.1567 0.8562 0.3616
N25 N 1.1526(2) 0.82216(12) 1.07302(15)
H145 H 1.1166 0.8299 1.0878
H146 H 1.1594 0.7975 1.0786
N26 N 1.2210(2) 0.85605(13) 1.00922(16)
H147 H 1.2420 0.8494 0.9837
H148 H 1.2164 0.8810 1.0088
N27 N 0.4423(2) 0.90450(11) 0.88519(15)
H149 H 0.4449 0.8855 0.9079
H150 H 0.4881 0.9161 0.8942
N28 N 0.3391(2) 0.92426(10) 0.79584(15)
H151 H 0.3369 0.9354 0.7649
H152 H 0.2928 0.9142 0.7931
N29 N 0.6451(2) 0.54151(11) 0.95872(16)
H153 H 0.6916 0.5417 0.9831
H154 H 0.6187 0.5615 0.9643
N30 N 0.6223(2) 0.49188(10) 0.88178(16)
H155 H 0.5729 0.4905 0.8618
H156 H 0.6507 0.4780 0.8663
Ni1 Ni 0.70187(4) 0.743065(17) 0.63522(2)
C91 C 0.8643(4) 0.65919(17) 0.6774(3)
H97 H 0.9049 0.6772 0.6859
H98 H 0.8697 0.6433 0.6495
H99 H 0.8667 0.6445 0.7081
C92 C 0.7900(3) 0.67845(15) 0.6598(2)
C93 C 0.7249(4) 0.65673(15) 0.6455(2)
H100 H 0.7310 0.6311 0.6505
C94 C 0.6540(3) 0.66965(15) 0.6250(2)
C95 C 0.5880(4) 0.64443(17) 0.6114(3)
H101 H 0.5418 0.6585 0.5966
H102 H 0.5850 0.6318 0.6427
H103 H 0.5938 0.6265 0.5859
C96 C 0.5330(3) 0.82079(17) 0.5875(2)
H104 H 0.4968 0.8007 0.5783
H105 H 0.5298 0.8355 0.5565
H106 H 0.5216 0.8361 0.6139
C97 C 0.6111(3) 0.80558(14) 0.60843(19)
C98 C 0.6715(3) 0.82846(14) 0.6242(2)
H107 H 0.6625 0.8538 0.6183
C99 C 0.7460(3) 0.81740(14) 0.6485(2)
C100 C 0.8040(4) 0.84648(16) 0.6688(2)
H108 H 0.8530 0.8351 0.6846
H109 H 0.7899 0.8611 0.6947
H110 H 0.8070 0.8622 0.6401
C101 C 0.8422(3) 0.77308(16) 0.6832(2)
H111 H 0.8482 0.7742 0.7208
H112 H 0.8784 0.7902 0.6753
C102 C 0.8564(3) 0.73497(16) 0.6679(2)
H113 H 0.8733 0.7356 0.6364
H114 H 0.8965 0.7235 0.6962
N31 N 0.7876(3) 0.71381(12) 0.65780(16)
N32 N 0.7657(2) 0.78290(11) 0.65373(16)
O1 O 0.6368(2) 0.70370(10) 0.61627(14)
O2 O 0.6155(2) 0.77039(9) 0.61060(14)
Ni2 Ni 0.70743(3) 0.751910(15) 0.76877(2)
C103 C 0.7270(4) 0.63681(14) 0.7745(2)
H115 H 0.6723 0.6341 0.7607
H116 H 0.7444 0.6253 0.8088
H117 H 0.7511 0.6251 0.7510
C104 C 0.7470(3) 0.67684(13) 0.77934(18)
C105 C 0.8234(3) 0.68579(14) 0.7984(2)
H118 H 0.8587 0.6664 0.8056
C106 C 0.8506(3) 0.72041(15) 0.80742(19)
C107 C 0.9343(3) 0.72710(18) 0.8282(2)
H119 H 0.9438 0.7534 0.8325
H120 H 0.9593 0.7174 0.8037
H121 H 0.9542 0.7149 0.8618
C108 C 0.7013(3) 0.86550(14) 0.7666(2)
H122 H 0.7558 0.8651 0.7832
H123 H 0.6767 0.8782 0.7891
H124 H 0.6903 0.8782 0.7332
C109 C 0.6725(3) 0.82711(13) 0.75788(19)
C110 C 0.5981(3) 0.82046(13) 0.73540(19)
H125 H 0.5655 0.8409 0.7259
C111 C 0.5656(3) 0.78539(13) 0.72510(18)
C112 C 0.4822(3) 0.78365(16) 0.6982(2)
H126 H 0.4662 0.7581 0.6936
H127 H 0.4712 0.7955 0.6642
H128 H 0.4552 0.7962 0.7193
C113 C 0.5682(3) 0.72055(15) 0.7208(2)
H129 H 0.5618 0.7170 0.6834
H130 H 0.5178 0.7203 0.7261
C114 C 0.6148(3) 0.69081(15) 0.7512(2)
H131 H 0.5990 0.6856 0.7824
H132 H 0.6080 0.6683 0.7300
N33 N 0.6939(2) 0.70171(11) 0.76657(15)
N34 N 0.6052(2) 0.75569(10) 0.73789(15)
O3 O 0.81020(18) 0.74966(9) 0.79972(13)
O4 O 0.72355(18) 0.80201(9) 0.77322(13)
N35 N 0.2584(2) 0.93561(11) 0.66317(17)
O5 O 0.31588(18) 0.95283(9) 0.68989(14)
O6 O 0.2425(2) 0.93563(12) 0.61523(15)
O7 O 0.2190(2) 0.91956(12) 0.68551(16)
N36 N 0.1481(3) 0.96790(14) 0.8611(3)
O8 O 0.2120(3) 0.95992(17) 0.8890(3)
O9 O 0.1278(4) 0.96170(17) 0.8136(2)
O10 O 0.1030(3) 0.98177(12) 0.88123(19)
N37 N 0.0723(4) 0.73755(15) 0.1948(3)
O11 O 0.0390(3) 0.74224(17) 0.2275(2)
O12 O 0.1421(3) 0.73306(13) 0.2085(2)
O13 O 0.0377(4) 0.73595(15) 0.1467(2)
N38 N 0.0034(3) 0.56813(16) 0.5427(2)
O14 O -0.0481(2) 0.58837(13) 0.51785(18)
O15 O 0.0640(3) 0.58129(14) 0.56953(18)
O16 O -0.0050(3) 0.53398(16) 0.5426(2)
N39 N 0.8383(3) 0.98365(15) 0.5229(2)
O17 O 0.7882(3) 1.00400(19) 0.5254(3)
O18 O 0.8257(2) 0.95854(13) 0.49046(17)
O19 O 0.9020(3) 0.98962(13) 0.55077(18)
N40 N 0.9543(3) 0.89947(15) 0.2963(2)
O20 O 0.9118(4) 0.91051(17) 0.3201(3)
O21 O 0.9899(3) 0.87155(15) 0.3110(2)
O22 O 0.9580(3) 0.91604(13) 0.25628(18)
N41 N 0.0891(3) 0.81770(17) 0.4833(2)
O23 O 0.0525(5) 0.8240(2) 0.5122(2)
O24 O 0.1352(4) 0.79436(19) 0.4938(4)
O25 O 0.0751(4) 0.8296(3) 0.4408(3)
N42 N 0.4479(9) 0.9169(3) 1.0179(4)
O26 O 0.5052(5) 0.9064(3) 1.0069(4)
O27 O 0.3966(6) 0.8942(4) 1.0105(5)
O28 O 0.4313(12) 0.9450(3) 1.0333(5)
N43 N 0.4337(4) 0.8402(2) 0.3083(3)
O29 O 0.4589(4) 0.8690(3) 0.3299(5)
O30 O 0.3663(3) 0.84194(17) 0.2812(2)
O31 O 0.4671(3) 0.8102(2) 0.3179(2)
N44 N 0.5146(3) 0.91158(15) 0.4997(3)
O32 O 0.5061(3) 0.91277(15) 0.4516(2)
O33 O 0.5788(4) 0.90469(19) 0.5265(3)
O34 O 0.4639(4) 0.9145(2) 0.5164(3)
N45 N 0.6025(3) 0.54700(15) 0.3677(2)
O35 O 0.6567(4) 0.5506(3) 0.3520(3)
O36 O 0.5473(4) 0.5315(2) 0.3372(3)
O37 O 0.5973(4) 0.56079(17) 0.4056(2)
N46 N 0.2946(4) 0.66818(18) 0.4083(2)
O38 O 0.3283(4) 0.67404(19) 0.3758(2)
O39 O 0.2477(3) 0.6431(2) 0.4030(2)
O40 O 0.3111(4) 0.68559(15) 0.4485(2)
O41 O 0.8656(2) 0.88786(11) 0.87596(15)
O42 O 0.5411(2) 0.50840(12) 0.16083(17)
O43 O 0.8736(2) 0.82521(12) 0.81670(18)
O44 O 0.2144(3) 0.72720(12) 0.31490(19)
O45 O 0.0885(3) 0.52988(13) 0.19318(17)
O46 O 0.1580(3) 0.75847(12) 0.59453(18)
O47 O 0.1204(3) 0.54932(13) 0.66595(18)
O48 O 0.0751(3) 0.89312(14) 0.21941(18)
O49 O 0.8546(3) 0.56342(13) 0.2954(2)
O50 O 0.9605(3) 0.99219(14) 0.8109(2)
O51 O 0.4798(3) 0.72860(15) 0.5584(2)
O52 O 0.0147(3) 0.98586(14) 0.2805(2)
O53 O 0.3927(3) 0.95380(15) 0.3798(2)
O54 O 0.0447(3) 0.64452(14) 0.6213(2)
O55 O 0.7230(3) 0.45020(16) 0.2934(2)
O56 O 0.6449(3) 0.51372(17) 0.2587(2)
O57 O 0.3079(3) 0.91118(16) 0.2992(2)
O58 O 0.3019(3) 0.75333(17) 0.1703(2)
O59 O 0.5840(4) 0.92375(16) 0.6342(2)
O60 O 0.7281(4) 0.55168(19) 0.2057(3)
O61 O 0.3910(3) 0.71140(18) 0.6209(2)
O62 O 0.7217(4) 0.9328(2) 0.5708(3)
O63 O 0.3664(3) 0.74659(15) 0.7775(2)
O64 O 0.7305(4) 0.50304(18) 0.1307(3)
O65 O 0.2067(2) 0.89386(13) 0.80841(18)
O66 O 0.1712(3) 0.90492(12) 0.32095(17)
O67 O 0.9575(3) 0.70681(15) 0.58379(17)
O68 O 0.3640(6) 0.9182(2) 0.1467(3)
O69 O 0.9407(2) 0.86975(13) 0.41546(17)
O70 O 0.4763(6) 0.5372(4) 0.6256(4)
O71 O 0.4259(5) 0.6491(2) 0.6832(3)
O72 O 0.1368(3) 0.96911(16) 0.3639(2)
O73 O 0.4658(4) 0.6653(2) 0.4742(3)
O74 O 0.7546(6) 0.4364(3) 0.5154(4)
loop_
_geom_bond_atom_site_label_1
_geom_bond_atom_site_label_2
_geom_bond_site_symmetry_1
_geom_bond_site_symmetry_2
Pd1 N1 1_555 1_555
Pd2 N2 1_555 1_555
Pd3 N3 1_555 1_555
Pd4 N7 1_555 1_555
Pd5 N9 1_555 1_555
Pd6 N8 1_555 1_555
Ni1 N31 1_555 1_555
Ni2 N33 1_555 1_555
C1 H1 1_555 1_555
C2 C1 1_555 1_555
H2 C2 1_555 1_555
C3 C2 1_555 1_555
C4 C3 1_555 1_555
H3 C4 1_555 1_555
C5 C4 1_555 1_555
H4 C5 1_555 1_555
C6 H5 1_555 1_555
C7 C6 1_555 1_555
H6 C7 1_555 1_555
C8 C7 1_555 1_555
C9 C8 1_555 1_555
H7 C9 1_555 1_555
C10 C9 1_555 1_555
H8 C10 1_555 1_555
C11 H9 1_555 1_555
C12 C11 1_555 1_555
H10 C12 1_555 1_555
C13 C12 1_555 1_555
C14 C13 1_555 1_555
H11 C14 1_555 1_555
C15 C14 1_555 1_555
H12 C15 1_555 1_555
C16 C3 1_555 1_555
C17 C8 1_555 1_555
C18 C13 1_555 1_555
C19 H13 1_555 1_555
C20 C19 1_555 1_555
H14 C20 1_555 1_555
C21 C20 1_555 1_555
C22 C21 1_555 1_555
H15 C22 1_555 1_555
C23 C22 1_555 1_555
H16 C23 1_555 1_555
C24 H17 1_555 1_555
C25 C24 1_555 1_555
H18 C25 1_555 1_555
C26 C25 1_555 1_555
C27 C26 1_555 1_555
H19 C27 1_555 1_555
C28 C27 1_555 1_555
H20 C28 1_555 1_555
C29 H21 1_555 1_555
C30 C29 1_555 1_555
H22 C30 1_555 1_555
C31 C30 1_555 1_555
C32 C31 1_555 1_555
H23 C32 1_555 1_555
C33 C32 1_555 1_555
H24 C33 1_555 1_555
C34 C21 1_555 1_555
C35 C26 1_555 1_555
C36 C31 1_555 1_555
C37 H25 1_555 1_555
H26 C37 1_555 1_555
H27 C37 1_555 1_555
C38 C37 1_555 1_555
C39 C38 1_555 1_555
H28 C39 1_555 1_555
C40 C39 1_555 1_555
C41 C40 1_555 1_555
H29 C41 1_555 1_555
C42 C41 1_555 1_555
C43 C42 1_555 1_555
H30 C43 1_555 1_555
H31 C43 1_555 1_555
H32 C43 1_555 1_555
C44 H33 1_555 1_555
H34 C44 1_555 1_555
H35 C44 1_555 1_555
C45 C44 1_555 1_555
C46 C45 1_555 1_555
H36 C46 1_555 1_555
C47 C40 1_555 1_555
C48 C47 1_555 1_555
H37 C48 1_555 1_555
C49 C48 1_555 1_555
C50 C49 1_555 1_555
H38 C50 1_555 1_555
H39 C50 1_555 1_555
H40 C50 1_555 1_555
C51 H41 1_555 1_555
H42 C51 1_555 1_555
H43 C51 1_555 1_555
C52 C51 1_555 1_555
C53 C52 1_555 1_555
H44 C53 1_555 1_555
C54 C53 1_555 1_555
C55 C54 1_555 1_555
H45 C55 1_555 1_555
C56 C55 1_555 1_555
C57 C56 1_555 1_555
H46 C57 1_555 1_555
H47 C57 1_555 1_555
H48 C57 1_555 1_555
C58 H49 1_555 1_555
H50 C58 1_555 1_555
H51 C58 1_555 1_555
C59 C58 1_555 1_555
C60 C59 1_555 1_555
H52 C60 1_555 1_555
C61 C54 1_555 1_555
C62 C61 1_555 1_555
H53 C62 1_555 1_555
C63 C62 1_555 1_555
C64 C63 1_555 1_555
H54 C64 1_555 1_555
H55 C64 1_555 1_555
H56 C64 1_555 1_555
C65 H57 1_555 1_555
H58 C65 1_555 1_555
H59 C65 1_555 1_555
C66 C65 1_555 1_555
C67 C66 1_555 1_555
H60 C67 1_555 1_555
C68 C67 1_555 1_555
C69 C68 1_555 1_555
H61 C69 1_555 1_555
C70 C69 1_555 1_555
C71 C70 1_555 1_555
H62 C71 1_555 1_555
H63 C71 1_555 1_555
H64 C71 1_555 1_555
C72 H65 1_555 1_555
H66 C72 1_555 1_555
H67 C72 1_555 1_555
C73 C72 1_555 1_555
C74 C73 1_555 1_555
H68 C74 1_555 1_555
C75 C68 1_555 1_555
C76 C75 1_555 1_555
H69 C76 1_555 1_555
C77 C76 1_555 1_555
C78 C77 1_555 1_555
H70 C78 1_555 1_555
H71 C78 1_555 1_555
H72 C78 1_555 1_555
C79 H73 1_555 1_555
H74 C79 1_555 1_555
C80 C79 1_555 1_555
H75 C80 1_555 1_555
H76 C80 1_555 1_555
C81 H77 1_555 1_555
H78 C81 1_555 1_555
C82 C81 1_555 1_555
H79 C82 1_555 1_555
H80 C82 1_555 1_555
C83 H81 1_555 1_555
H82 C83 1_555 1_555
C84 C83 1_555 1_555
H83 C84 1_555 1_555
H84 C84 1_555 1_555
C85 H85 1_555 1_555
H86 C85 1_555 1_555
C86 C85 1_555 1_555
H87 C86 1_555 1_555
H88 C86 1_555 1_555
C87 H89 1_555 1_555
H90 C87 1_555 1_555
C88 C87 1_555 1_555
H91 C88 1_555 1_555
H92 C88 1_555 1_555
C89 H93 1_555 1_555
H94 C89 1_555 1_555
C90 C89 1_555 1_555
H95 C90 1_555 1_555
H96 C90 1_555 1_555
C91 H97 1_555 1_555
H98 C91 1_555 1_555
H99 C91 1_555 1_555
C92 C91 1_555 1_555
C93 C92 1_555 1_555
H100 C93 1_555 1_555
C94 C93 1_555 1_555
C95 C94 1_555 1_555
H101 C95 1_555 1_555
H102 C95 1_555 1_555
H103 C95 1_555 1_555
C96 H104 1_555 1_555
H105 C96 1_555 1_555
H106 C96 1_555 1_555
C97 C96 1_555 1_555
C98 C97 1_555 1_555
H107 C98 1_555 1_555
C99 C98 1_555 1_555
C100 C99 1_555 1_555
H108 C100 1_555 1_555
H109 C100 1_555 1_555
H110 C100 1_555 1_555
C101 H111 1_555 1_555
H112 C101 1_555 1_555
C102 C101 1_555 1_555
H113 C102 1_555 1_555
H114 C102 1_555 1_555
C103 H115 1_555 1_555
H116 C103 1_555 1_555
H117 C103 1_555 1_555
C104 C103 1_555 1_555
C105 C104 1_555 1_555
H118 C105 1_555 1_555
C106 C105 1_555 1_555
C107 C106 1_555 1_555
H119 C107 1_555 1_555
H120 C107 1_555 1_555
H121 C107 1_555 1_555
C108 H122 1_555 1_555
H123 C108 1_555 1_555
H124 C108 1_555 1_555
C109 C108 1_555 1_555
C110 C109 1_555 1_555
H125 C110 1_555 1_555
C111 C110 1_555 1_555
C112 C111 1_555 1_555
H126 C112 1_555 1_555
H127 C112 1_555 1_555
H128 C112 1_555 1_555
C113 H129 1_555 1_555
H130 C113 1_555 1_555
C114 C113 1_555 1_555
H131 C114 1_555 1_555
H132 C114 1_555 1_555
N1 C1 1_555 1_555
N2 C6 1_555 1_555
N3 C11 1_555 1_555
N4 C16 1_555 1_555
N5 C17 1_555 1_555
N6 C16 1_555 1_555
N7 C19 1_555 1_555
N8 C24 1_555 1_555
N9 C29 1_555 1_555
N10 C34 1_555 1_555
N11 C35 1_555 1_555
N12 C34 1_555 1_555
N13 Pd1 1_555 1_555
N14 Pd4 1_555 1_555
N15 Pd2 1_555 1_555
N16 Pd5 1_555 1_555
N17 Pd3 1_555 1_555
N18 Pd6 1_555 1_555
N19 Pd1 1_555 1_555
H133 N19 1_555 1_555
H134 N19 1_555 1_555
N20 Pd1 1_555 1_555
H135 N20 1_555 1_555
H136 N20 1_555 1_555
N21 Pd2 1_555 1_555
H137 N21 1_555 1_555
H138 N21 1_555 1_555
N22 Pd2 1_555 1_555
H139 N22 1_555 1_555
H140 N22 1_555 1_555
N23 Pd3 1_555 1_555
H141 N23 1_555 1_555
H142 N23 1_555 1_555
N24 Pd3 1_555 1_555
H143 N24 1_555 1_555
H144 N24 1_555 1_555
N25 Pd4 1_555 1_555
H145 N25 1_555 1_555
H146 N25 1_555 1_555
N26 Pd4 1_555 1_555
H147 N26 1_555 1_555
H148 N26 1_555 1_555
N27 Pd6 1_555 1_555
H149 N27 1_555 1_555
H150 N27 1_555 1_555
N28 Pd6 1_555 1_555
H151 N28 1_555 1_555
H152 N28 1_555 1_555
N29 Pd5 1_555 1_555
H153 N29 1_555 1_555
H154 N29 1_555 1_555
N30 Pd5 1_555 1_555
H155 N30 1_555 1_555
H156 N30 1_555 1_555
N31 C92 1_555 1_555
N32 Ni1 1_555 1_555
N33 C104 1_555 1_555
N34 Ni2 1_555 1_555
O1 Ni1 1_555 1_555
O2 Ni1 1_555 1_555
O3 Ni2 1_555 1_555
O4 Ni2 1_555 1_555
N35 O5 1_555 1_555
O6 N35 1_555 1_555
O7 N35 1_555 1_555
N36 O8 1_555 1_555
O9 N36 1_555 1_555
O10 N36 1_555 1_555
N37 O11 1_555 1_555
O12 N37 1_555 1_555
O13 N37 1_555 1_555
N38 O14 1_555 1_555
O15 N38 1_555 1_555
O16 N38 1_555 1_555
N39 O17 1_555 1_555
O18 N39 1_555 1_555
O19 N39 1_555 1_555
N40 O20 1_555 1_555
O21 N40 1_555 1_555
O22 N40 1_555 1_555
N41 O23 1_555 1_555
O24 N41 1_555 1_555
O25 N41 1_555 1_555
N42 O26 1_555 1_555
O27 N42 1_555 1_555
O28 N42 1_555 1_555
N43 O29 1_555 1_555
O30 N43 1_555 1_555
O31 N43 1_555 1_555
N44 O32 1_555 1_555
O33 N44 1_555 1_555
O34 N44 1_555 1_555
N45 O35 1_555 1_555
O36 N45 1_555 1_555
O37 N45 1_555 1_555
N46 O38 1_555 1_555
O39 N46 1_555 1_555
O40 N46 1_555 1_555
C5 N1 1_555 1_555
C10 N2 1_555 1_555
C15 N3 1_555 1_555
C17 N4 1_555 1_555
C18 N5 1_555 1_555
C18 N6 1_555 1_555
C23 N7 1_555 1_555
C28 N8 1_555 1_555
C33 N9 1_555 1_555
C35 N10 1_555 1_555
C36 N11 1_555 1_555
C36 N12 1_555 1_555
C38 N13 1_555 1_555
C42 N13 1_555 1_555
C45 N14 1_555 1_555
C46 C47 1_555 1_555
C49 N14 1_555 1_555
C52 N15 1_555 1_555
C56 N15 1_555 1_555
C59 N16 1_555 1_555
C60 C61 1_555 1_555
C63 N16 1_555 1_555
C66 N17 1_555 1_555
C70 N17 1_555 1_555
C73 N18 1_555 1_555
C74 C75 1_555 1_555
C77 N18 1_555 1_555
C79 N19 1_555 1_555
C80 N20 1_555 1_555
C81 N21 1_555 1_555
C82 N22 1_555 1_555
C83 N23 1_555 1_555
C84 N24 1_555 1_555
C85 N25 1_555 1_555
C86 N26 1_555 1_555
C87 N27 1_555 1_555
C88 N28 1_555 1_555
C89 N29 1_555 1_555
C90 N30 1_555 1_555
C94 O1 1_555 1_555
C97 O2 1_555 1_555
C99 N32 1_555 1_555
C101 N32 1_555 1_555
C102 N31 1_555 1_555
C106 O3 1_555 1_555
C109 O4 1_555 1_555
C111 N34 1_555 1_555
C113 N34 1_555 1_555
C114 N33 1_555 1_555

#END
