# generated using pymatgen
data_Ni2H156Pd6C114N46O75
_symmetry_space_group_name_H-M   'P 1'
_cell_length_a   18.62300000
_cell_length_b   26.99700000
_cell_length_c   36.66900000
_cell_angle_alpha   90.00000000
_cell_angle_beta   90.00000000
_cell_angle_gamma   107.20300000
_symmetry_Int_Tables_number   1
_chemical_formula_structural   Ni2H156Pd6C114N46O75
_chemical_formula_sum   'Ni8 H624 Pd24 C456 N184 O300'
_cell_volume   17611.12571542
_cell_formula_units_Z   4
loop_
 _symmetry_equiv_pos_site_id
 _symmetry_equiv_pos_as_xyz
  1  'x, y, z'
loop_
 _atom_site_type_symbol
 _atom_site_label
 _atom_site_symmetry_multiplicity
 _atom_site_fract_x
 _atom_site_fract_y
 _atom_site_fract_z
 _atom_site_occupancy
  Ni  Ni1  1  0.298130  0.364780  0.256935  1
  Ni  Ni2  1  0.701870  0.135220  0.756935  1
  Ni  Ni3  1  0.701870  0.635220  0.743065  1
  Ni  Ni4  1  0.298130  0.864780  0.243065  1
  Ni  Ni5  1  0.292570  0.231230  0.248090  1
  Ni  Ni6  1  0.707430  0.268770  0.748090  1
  Ni  Ni7  1  0.707430  0.768770  0.751910  1
  Ni  Ni8  1  0.292570  0.731230  0.251910  1
  H  H9  1  0.031700  0.426700  0.180200  1
  H  H10  1  0.968300  0.073300  0.680200  1
  H  H11  1  0.968300  0.573300  0.819800  1
  H  H12  1  0.031700  0.926700  0.319800  1
  H  H13  1  0.123600  0.444200  0.224500  1
  H  H14  1  0.876400  0.055800  0.724500  1
  H  H15  1  0.876400  0.555800  0.775500  1
  H  H16  1  0.123600  0.944200  0.275500  1
  H  H17  1  0.279900  0.479200  0.144400  1
  H  H18  1  0.720100  0.020800  0.644400  1
  H  H19  1  0.720100  0.520800  0.855600  1
  H  H20  1  0.279900  0.979200  0.355600  1
  H  H21  1  0.183600  0.462100  0.102200  1
  H  H22  1  0.816400  0.037900  0.602200  1
  H  H23  1  0.816400  0.537900  0.897800  1
  H  H24  1  0.183600  0.962100  0.397800  1
  H  H25  1  0.360100  0.511400  0.396300  1
  H  H26  1  0.639900  0.988600  0.896300  1
  H  H27  1  0.639900  0.488600  0.603700  1
  H  H28  1  0.360100  0.011400  0.103700  1
  H  H29  1  0.394600  0.510500  0.335600  1
  H  H30  1  0.605400  0.989500  0.835600  1
  H  H31  1  0.605400  0.489500  0.664400  1
  H  H32  1  0.394600  0.010500  0.164400  1
  H  H33  1  0.174400  0.461700  0.308600  1
  H  H34  1  0.825600  0.038300  0.808600  1
  H  H35  1  0.825600  0.538300  0.691400  1
  H  H36  1  0.174400  0.961700  0.191400  1
  H  H37  1  0.144800  0.466100  0.369800  1
  H  H38  1  0.855200  0.033900  0.869800  1
  H  H39  1  0.855200  0.533900  0.630200  1
  H  H40  1  0.144800  0.966100  0.130200  1
  H  H41  1  0.578000  0.567900  0.148500  1
  H  H42  1  0.422000  0.932100  0.648500  1
  H  H43  1  0.422000  0.432100  0.851500  1
  H  H44  1  0.578000  0.067900  0.351500  1
  H  H45  1  0.453800  0.531500  0.165400  1
  H  H46  1  0.546200  0.968500  0.665400  1
  H  H47  1  0.546200  0.468500  0.834600  1
  H  H48  1  0.453800  0.031500  0.334600  1
  H  H49  1  0.515700  0.564200  0.270500  1
  H  H50  1  0.484300  0.935800  0.770500  1
  H  H51  1  0.484300  0.435800  0.729500  1
  H  H52  1  0.515700  0.064200  0.229500  1
  H  H53  1  0.637200  0.603900  0.250600  1
  H  H54  1  0.362800  0.896100  0.750600  1
  H  H55  1  0.362800  0.396100  0.749400  1
  H  H56  1  0.637200  0.103900  0.249400  1
  H  H57  1  0.038600  0.036600  0.145500  1
  H  H58  1  0.961400  0.463400  0.645500  1
  H  H59  1  0.961400  0.963400  0.854500  1
  H  H60  1  0.038600  0.536600  0.354500  1
  H  H61  1  0.156600  0.070300  0.171100  1
  H  H62  1  0.843400  0.429700  0.671100  1
  H  H63  1  0.843400  0.929700  0.828900  1
  H  H64  1  0.156600  0.570300  0.328900  1
  H  H65  1  0.063200  0.033100  0.270600  1
  H  H66  1  0.936800  0.466900  0.770600  1
  H  H67  1  0.936800  0.966900  0.729400  1
  H  H68  1  0.063200  0.533100  0.229400  1
  H  H69  1  0.947400  0.000700  0.242400  1
  H  H70  1  0.052600  0.499300  0.742400  1
  H  H71  1  0.052600  0.999300  0.757600  1
  H  H72  1  0.947400  0.500700  0.257600  1
  H  H73  1  0.564400  0.187000  0.197800  1
  H  H74  1  0.435600  0.313000  0.697800  1
  H  H75  1  0.435600  0.813000  0.802200  1
  H  H76  1  0.564400  0.687000  0.302200  1
  H  H77  1  0.470000  0.161000  0.240800  1
  H  H78  1  0.530000  0.339000  0.740800  1
  H  H79  1  0.530000  0.839000  0.759200  1
  H  H80  1  0.470000  0.661000  0.259200  1
  H  H81  1  0.320300  0.116600  0.158500  1
  H  H82  1  0.679700  0.383400  0.658500  1
  H  H83  1  0.679700  0.883400  0.841500  1
  H  H84  1  0.320300  0.616600  0.341500  1
  H  H85  1  0.418000  0.143300  0.117900  1
  H  H86  1  0.582000  0.356700  0.617900  1
  H  H87  1  0.582000  0.856700  0.882100  1
  H  H88  1  0.418000  0.643300  0.382100  1
  H  H89  1  0.204600  0.088200  0.405600  1
  H  H90  1  0.795400  0.411800  0.905600  1
  H  H91  1  0.795400  0.911800  0.594400  1
  H  H92  1  0.204600  0.588200  0.094400  1
  H  H93  1  0.179800  0.085600  0.343500  1
  H  H94  1  0.820200  0.414400  0.843500  1
  H  H95  1  0.820200  0.914400  0.656500  1
  H  H96  1  0.179800  0.585600  0.156500  1
  H  H97  1  0.403700  0.121300  0.324600  1
  H  H98  1  0.596300  0.378700  0.824600  1
  H  H99  1  0.596300  0.878700  0.675400  1
  H  H100  1  0.403700  0.621300  0.175400  1
  H  H101  1  0.422200  0.120000  0.387100  1
  H  H102  1  0.577800  0.380000  0.887100  1
  H  H103  1  0.577800  0.880000  0.612900  1
  H  H104  1  0.422200  0.620000  0.112900  1
  H  H105  1  0.095300  0.380500  0.065600  1
  H  H106  1  0.904700  0.119500  0.565600  1
  H  H107  1  0.904700  0.619500  0.934400  1
  H  H108  1  0.095300  0.880500  0.434400  1
  H  H109  1  0.082400  0.326000  0.045500  1
  H  H110  1  0.917600  0.174000  0.545500  1
  H  H111  1  0.917600  0.674000  0.954500  1
  H  H112  1  0.082400  0.826000  0.454500  1
  H  H113  1  0.144100  0.343200  0.077100  1
  H  H114  1  0.855900  0.156800  0.577100  1
  H  H115  1  0.855900  0.656800  0.922900  1
  H  H116  1  0.144100  0.843200  0.422900  1
  H  H117  1  0.053200  0.247900  0.094300  1
  H  H118  1  0.946800  0.252100  0.594300  1
  H  H119  1  0.946800  0.752100  0.905700  1
  H  H120  1  0.053200  0.747900  0.405700  1
  H  H121  1  0.891700  0.258000  0.164700  1
  H  H122  1  0.108300  0.242000  0.664700  1
  H  H123  1  0.108300  0.742000  0.835300  1
  H  H124  1  0.891700  0.758000  0.335300  1
  H  H125  1  0.909100  0.390300  0.141300  1
  H  H126  1  0.090900  0.109700  0.641300  1
  H  H127  1  0.090900  0.609700  0.858700  1
  H  H128  1  0.909100  0.890300  0.358700  1
  H  H129  1  0.895300  0.356700  0.178000  1
  H  H130  1  0.104700  0.143300  0.678000  1
  H  H131  1  0.104700  0.643300  0.822000  1
  H  H132  1  0.895300  0.856700  0.322000  1
  H  H133  1  0.840000  0.338400  0.143900  1
  H  H134  1  0.160000  0.161600  0.643900  1
  H  H135  1  0.160000  0.661600  0.856100  1
  H  H136  1  0.840000  0.838400  0.356100  1
  H  H137  1  0.920600  0.026000  0.102400  1
  H  H138  1  0.079400  0.474000  0.602400  1
  H  H139  1  0.079400  0.974000  0.897600  1
  H  H140  1  0.920600  0.526000  0.397600  1
  H  H141  1  0.990100  0.068200  0.083900  1
  H  H142  1  0.009900  0.431800  0.583900  1
  H  H143  1  0.009900  0.931800  0.916100  1
  H  H144  1  0.990100  0.568200  0.416100  1
  H  H145  1  0.906000  0.064500  0.072000  1
  H  H146  1  0.094000  0.435500  0.572000  1
  H  H147  1  0.094000  0.935500  0.928000  1
  H  H148  1  0.906000  0.564500  0.428000  1
  H  H149  1  0.974100  0.163400  0.090000  1
  H  H150  1  0.025900  0.336600  0.590000  1
  H  H151  1  0.025900  0.836600  0.910000  1
  H  H152  1  0.974100  0.663400  0.410000  1
  H  H153  1  0.927300  0.192700  0.193500  1
  H  H154  1  0.072700  0.307300  0.693500  1
  H  H155  1  0.072700  0.807300  0.806500  1
  H  H156  1  0.927300  0.692700  0.306500  1
  H  H157  1  0.881600  0.125800  0.234800  1
  H  H158  1  0.118400  0.374200  0.734800  1
  H  H159  1  0.118400  0.874200  0.765200  1
  H  H160  1  0.881600  0.625800  0.265200  1
  H  H161  1  0.911100  0.076500  0.228600  1
  H  H162  1  0.088900  0.423500  0.728600  1
  H  H163  1  0.088900  0.923500  0.771400  1
  H  H164  1  0.911100  0.576500  0.271400  1
  H  H165  1  0.827800  0.074500  0.216500  1
  H  H166  1  0.172200  0.425500  0.716500  1
  H  H167  1  0.172200  0.925500  0.783500  1
  H  H168  1  0.827800  0.574500  0.283500  1
  H  H169  1  0.107900  0.414000  0.431500  1
  H  H170  1  0.892100  0.086000  0.931500  1
  H  H171  1  0.892100  0.586000  0.568500  1
  H  H172  1  0.107900  0.914000  0.068500  1
  H  H173  1  0.073300  0.358500  0.450200  1
  H  H174  1  0.926700  0.141500  0.950200  1
  H  H175  1  0.926700  0.641500  0.549800  1
  H  H176  1  0.073300  0.858500  0.049800  1
  H  H177  1  0.096600  0.362200  0.408100  1
  H  H178  1  0.903400  0.137800  0.908100  1
  H  H179  1  0.903400  0.637800  0.591900  1
  H  H180  1  0.096600  0.862200  0.091900  1
  H  H181  1  0.166000  0.299200  0.440200  1
  H  H182  1  0.834000  0.200800  0.940200  1
  H  H183  1  0.834000  0.700800  0.559800  1
  H  H184  1  0.166000  0.799200  0.059800  1
  H  H185  1  0.378500  0.377700  0.467900  1
  H  H186  1  0.621500  0.122300  0.967900  1
  H  H187  1  0.621500  0.622300  0.532100  1
  H  H188  1  0.378500  0.877700  0.032100  1
  H  H189  1  0.340800  0.500500  0.471100  1
  H  H190  1  0.659200  0.999500  0.971100  1
  H  H191  1  0.659200  0.499500  0.528900  1
  H  H192  1  0.340800  0.000500  0.028900  1
  H  H193  1  0.409500  0.479800  0.459200  1
  H  H194  1  0.590500  0.020200  0.959200  1
  H  H195  1  0.590500  0.520200  0.540800  1
  H  H196  1  0.409500  0.979800  0.040800  1
  H  H197  1  0.375300  0.468700  0.499500  1
  H  H198  1  0.624700  0.031300  0.999500  1
  H  H199  1  0.624700  0.531300  0.500500  1
  H  H200  1  0.375300  0.968700  0.000500  1
  H  H201  1  0.215400  0.109600  0.474500  1
  H  H202  1  0.784600  0.390400  0.974500  1
  H  H203  1  0.784600  0.890400  0.525500  1
  H  H204  1  0.215400  0.609600  0.025500  1
  H  H205  1  0.153300  0.133400  0.457900  1
  H  H206  1  0.846700  0.366600  0.957900  1
  H  H207  1  0.846700  0.866600  0.542100  1
  H  H208  1  0.153300  0.633400  0.042100  1
  H  H209  1  0.176800  0.142700  0.499900  1
  H  H210  1  0.823200  0.357300  0.999900  1
  H  H211  1  0.823200  0.857300  0.500100  1
  H  H212  1  0.176800  0.642700  0.000100  1
  H  H213  1  0.189900  0.235400  0.470400  1
  H  H214  1  0.810100  0.264600  0.970400  1
  H  H215  1  0.810100  0.764600  0.529600  1
  H  H216  1  0.189900  0.735400  0.029600  1
  H  H217  1  0.405200  0.307000  0.443000  1
  H  H218  1  0.594800  0.193000  0.943000  1
  H  H219  1  0.594800  0.693000  0.557000  1
  H  H220  1  0.405200  0.807000  0.057000  1
  H  H221  1  0.456400  0.189300  0.441600  1
  H  H222  1  0.543600  0.310700  0.941600  1
  H  H223  1  0.543600  0.810700  0.558400  1
  H  H224  1  0.456400  0.689300  0.058400  1
  H  H225  1  0.492800  0.246200  0.457900  1
  H  H226  1  0.507200  0.253800  0.957900  1
  H  H227  1  0.507200  0.753800  0.542100  1
  H  H228  1  0.492800  0.746200  0.042100  1
  H  H229  1  0.470800  0.238900  0.415600  1
  H  H230  1  0.529200  0.261100  0.915600  1
  H  H231  1  0.529200  0.761100  0.584400  1
  H  H232  1  0.470800  0.738900  0.084400  1
  H  H233  1  0.728500  0.550500  0.236100  1
  H  H234  1  0.271500  0.949500  0.736100  1
  H  H235  1  0.271500  0.449500  0.763900  1
  H  H236  1  0.728500  0.050500  0.263900  1
  H  H237  1  0.753500  0.500200  0.245800  1
  H  H238  1  0.246500  0.999800  0.745800  1
  H  H239  1  0.246500  0.499800  0.754200  1
  H  H240  1  0.753500  0.000200  0.254200  1
  H  H241  1  0.666667  0.497900  0.247900  1
  H  H242  1  0.333333  0.002100  0.747900  1
  H  H243  1  0.333333  0.502100  0.752100  1
  H  H244  1  0.666667  0.997900  0.252100  1
  H  H245  1  0.679000  0.419300  0.207000  1
  H  H246  1  0.321000  0.080700  0.707000  1
  H  H247  1  0.321000  0.580700  0.793000  1
  H  H248  1  0.679000  0.919300  0.293000  1
  H  H249  1  0.678200  0.453900  0.100200  1
  H  H250  1  0.321800  0.046100  0.600200  1
  H  H251  1  0.321800  0.546100  0.899800  1
  H  H252  1  0.678200  0.953900  0.399800  1
  H  H253  1  0.732600  0.590900  0.115700  1
  H  H254  1  0.267400  0.909100  0.615700  1
  H  H255  1  0.267400  0.409100  0.884300  1
  H  H256  1  0.732600  0.090900  0.384300  1
  H  H257  1  0.672200  0.551400  0.090300  1
  H  H258  1  0.327800  0.948600  0.590300  1
  H  H259  1  0.327800  0.448600  0.909700  1
  H  H260  1  0.672200  0.051400  0.409700  1
  H  H261  1  0.758800  0.553200  0.088500  1
  H  H262  1  0.241200  0.946800  0.588500  1
  H  H263  1  0.241200  0.446800  0.911500  1
  H  H264  1  0.758800  0.053200  0.411500  1
  H  H265  1  0.687700  0.217100  0.158300  1
  H  H266  1  0.312300  0.282900  0.658300  1
  H  H267  1  0.312300  0.782900  0.841700  1
  H  H268  1  0.687700  0.717100  0.341700  1
  H  H269  1  0.707400  0.253100  0.193800  1
  H  H270  1  0.292600  0.246900  0.693800  1
  H  H271  1  0.292600  0.746900  0.806200  1
  H  H272  1  0.707400  0.753100  0.306200  1
  H  H273  1  0.762300  0.265500  0.159200  1
  H  H274  1  0.237700  0.234500  0.659200  1
  H  H275  1  0.237700  0.734500  0.840800  1
  H  H276  1  0.762300  0.765500  0.340800  1
  H  H277  1  0.726500  0.353200  0.177000  1
  H  H278  1  0.273500  0.146800  0.677000  1
  H  H279  1  0.273500  0.646800  0.823000  1
  H  H280  1  0.726500  0.853200  0.323000  1
  H  H281  1  0.567800  0.369900  0.107300  1
  H  H282  1  0.432200  0.130100  0.607300  1
  H  H283  1  0.432200  0.630100  0.892700  1
  H  H284  1  0.567800  0.869900  0.392700  1
  H  H285  1  0.490000  0.297600  0.076000  1
  H  H286  1  0.510000  0.202400  0.576000  1
  H  H287  1  0.510000  0.702400  0.924000  1
  H  H288  1  0.490000  0.797600  0.424000  1
  H  H289  1  0.471800  0.244800  0.098800  1
  H  H290  1  0.528200  0.255200  0.598800  1
  H  H291  1  0.528200  0.755200  0.901200  1
  H  H292  1  0.471800  0.744800  0.401200  1
  H  H293  1  0.531300  0.255100  0.066100  1
  H  H294  1  0.468700  0.244900  0.566100  1
  H  H295  1  0.468700  0.744900  0.933900  1
  H  H296  1  0.531300  0.755100  0.433900  1
  H  H297  1  0.970700  0.532000  0.049700  1
  H  H298  1  0.029300  0.968000  0.549700  1
  H  H299  1  0.029300  0.468000  0.950300  1
  H  H300  1  0.970700  0.032000  0.450300  1
  H  H301  1  0.922300  0.500400  0.083100  1
  H  H302  1  0.077700  0.999600  0.583100  1
  H  H303  1  0.077700  0.499600  0.916900  1
  H  H304  1  0.922300  0.000400  0.416900  1
  H  H305  1  0.882600  0.451000  0.030500  1
  H  H306  1  0.117400  0.049000  0.530500  1
  H  H307  1  0.117400  0.549000  0.969500  1
  H  H308  1  0.882600  0.951000  0.469500  1
  H  H309  1  0.967800  0.455100  0.019700  1
  H  H310  1  0.032200  0.044900  0.519700  1
  H  H311  1  0.032200  0.544900  0.980300  1
  H  H312  1  0.967800  0.955100  0.480300  1
  H  H313  1  0.174500  0.612200  0.473200  1
  H  H314  1  0.825500  0.887800  0.973200  1
  H  H315  1  0.825500  0.387800  0.526800  1
  H  H316  1  0.174500  0.112200  0.026800  1
  H  H317  1  0.106600  0.560700  0.465600  1
  H  H318  1  0.893400  0.939300  0.965600  1
  H  H319  1  0.893400  0.439300  0.534400  1
  H  H320  1  0.106600  0.060700  0.034400  1
  H  H321  1  0.148600  0.551100  0.521400  1
  H  H322  1  0.851400  0.948900  0.021400  1
  H  H323  1  0.851400  0.448900  0.478600  1
  H  H324  1  0.148600  0.051100  0.978600  1
  H  H325  1  0.234600  0.569900  0.508300  1
  H  H326  1  0.765400  0.930100  0.008300  1
  H  H327  1  0.765400  0.430100  0.491700  1
  H  H328  1  0.234600  0.069900  0.991700  1
  H  H329  1  0.838600  0.747500  0.200200  1
  H  H330  1  0.161400  0.752500  0.700200  1
  H  H331  1  0.161400  0.252500  0.799800  1
  H  H332  1  0.838600  0.247500  0.299800  1
  H  H333  1  0.817800  0.727000  0.159300  1
  H  H334  1  0.182200  0.773000  0.659300  1
  H  H335  1  0.182200  0.273000  0.840700  1
  H  H336  1  0.817800  0.227000  0.340700  1
  H  H337  1  0.923000  0.702100  0.176300  1
  H  H338  1  0.077000  0.797900  0.676300  1
  H  H339  1  0.077000  0.297900  0.823700  1
  H  H340  1  0.923000  0.202100  0.323700  1
  H  H341  1  0.883400  0.677400  0.213700  1
  H  H342  1  0.116600  0.822600  0.713700  1
  H  H343  1  0.116600  0.322600  0.786300  1
  H  H344  1  0.883400  0.177400  0.286300  1
  H  H345  1  0.786000  0.893200  0.133200  1
  H  H346  1  0.214000  0.606800  0.633200  1
  H  H347  1  0.214000  0.106800  0.866800  1
  H  H348  1  0.786000  0.393200  0.366800  1
  H  H349  1  0.745800  0.871700  0.171100  1
  H  H350  1  0.254200  0.628300  0.671100  1
  H  H351  1  0.254200  0.128300  0.828900  1
  H  H352  1  0.745800  0.371700  0.328900  1
  H  H353  1  0.689100  0.927600  0.138400  1
  H  H354  1  0.310900  0.572400  0.638400  1
  H  H355  1  0.310900  0.072400  0.861600  1
  H  H356  1  0.689100  0.427600  0.361600  1
  H  H357  1  0.709300  0.943900  0.180000  1
  H  H358  1  0.290700  0.556100  0.680000  1
  H  H359  1  0.290700  0.056100  0.820000  1
  H  H360  1  0.709300  0.443900  0.320000  1
  H  H361  1  0.598100  0.082300  0.052500  1
  H  H362  1  0.401900  0.417700  0.552500  1
  H  H363  1  0.401900  0.917700  0.947500  1
  H  H364  1  0.598100  0.582300  0.447500  1
  H  H365  1  0.660900  0.106500  0.082800  1
  H  H366  1  0.339100  0.393500  0.582800  1
  H  H367  1  0.339100  0.893500  0.917200  1
  H  H368  1  0.660900  0.606500  0.417200  1
  H  H369  1  0.685300  0.163100  0.033200  1
  H  H370  1  0.314700  0.336900  0.533200  1
  H  H371  1  0.314700  0.836900  0.966800  1
  H  H372  1  0.685300  0.663100  0.466800  1
  H  H373  1  0.599800  0.164900  0.032900  1
  H  H374  1  0.400200  0.335100  0.532900  1
  H  H375  1  0.400200  0.835100  0.967100  1
  H  H376  1  0.599800  0.664900  0.467100  1
  H  H377  1  0.450400  0.049800  0.488400  1
  H  H378  1  0.549600  0.450200  0.988400  1
  H  H379  1  0.549600  0.950200  0.511600  1
  H  H380  1  0.450400  0.549800  0.011600  1
  H  H381  1  0.383700  0.998700  0.499000  1
  H  H382  1  0.616300  0.501300  0.999000  1
  H  H383  1  0.616300  0.001300  0.501000  1
  H  H384  1  0.383700  0.498700  0.001000  1
  H  H385  1  0.317100  0.048100  0.528800  1
  H  H386  1  0.682900  0.451900  0.028800  1
  H  H387  1  0.682900  0.951900  0.471200  1
  H  H388  1  0.317100  0.548100  0.971200  1
  H  H389  1  0.401600  0.067700  0.544100  1
  H  H390  1  0.598400  0.432300  0.044100  1
  H  H391  1  0.598400  0.932300  0.455900  1
  H  H392  1  0.401600  0.567700  0.955900  1
  H  H393  1  0.041600  0.519700  0.102000  1
  H  H394  1  0.958400  0.980300  0.602000  1
  H  H395  1  0.958400  0.480300  0.898000  1
  H  H396  1  0.041600  0.019700  0.398000  1
  H  H397  1  0.070100  0.506800  0.066200  1
  H  H398  1  0.929900  0.993200  0.566200  1
  H  H399  1  0.929900  0.493200  0.933800  1
  H  H400  1  0.070100  0.006800  0.433800  1
  H  H401  1  0.931300  0.379700  0.048600  1
  H  H402  1  0.068700  0.120300  0.548600  1
  H  H403  1  0.068700  0.620300  0.951400  1
  H  H404  1  0.931300  0.879700  0.451400  1
  H  H405  1  0.883800  0.396900  0.075600  1
  H  H406  1  0.116200  0.103100  0.575600  1
  H  H407  1  0.116200  0.603100  0.924400  1
  H  H408  1  0.883800  0.896900  0.424400  1
  H  H409  1  0.247000  0.588500  0.434500  1
  H  H410  1  0.753000  0.911500  0.934500  1
  H  H411  1  0.753000  0.411500  0.565500  1
  H  H412  1  0.247000  0.088500  0.065500  1
  H  H413  1  0.173500  0.564200  0.416200  1
  H  H414  1  0.826500  0.935800  0.916200  1
  H  H415  1  0.826500  0.435800  0.583800  1
  H  H416  1  0.173500  0.064200  0.083800  1
  H  H417  1  0.131200  0.475100  0.495400  1
  H  H418  1  0.868800  0.024900  0.995400  1
  H  H419  1  0.868800  0.524900  0.504600  1
  H  H420  1  0.131200  0.975100  0.004600  1
  H  H421  1  0.209200  0.485300  0.509800  1
  H  H422  1  0.790800  0.014700  0.009800  1
  H  H423  1  0.790800  0.514700  0.490200  1
  H  H424  1  0.209200  0.985300  0.990200  1
  H  H425  1  0.709900  0.695600  0.187700  1
  H  H426  1  0.290100  0.804400  0.687700  1
  H  H427  1  0.290100  0.304400  0.812300  1
  H  H428  1  0.709900  0.195600  0.312300  1
  H  H429  1  0.744400  0.685600  0.222500  1
  H  H430  1  0.255600  0.814400  0.722500  1
  H  H431  1  0.255600  0.314400  0.777500  1
  H  H432  1  0.744400  0.185600  0.277500  1
  H  H433  1  0.862400  0.609600  0.175200  1
  H  H434  1  0.137600  0.890400  0.675200  1
  H  H435  1  0.137600  0.390400  0.824800  1
  H  H436  1  0.862400  0.109600  0.324800  1
  H  H437  1  0.843300  0.638400  0.143800  1
  H  H438  1  0.156700  0.861600  0.643800  1
  H  H439  1  0.156700  0.361600  0.856200  1
  H  H440  1  0.843300  0.138400  0.356200  1
  H  H441  1  0.883400  0.912200  0.170100  1
  H  H442  1  0.116600  0.587800  0.670100  1
  H  H443  1  0.116600  0.087800  0.829900  1
  H  H444  1  0.883400  0.412200  0.329900  1
  H  H445  1  0.840600  0.921400  0.202500  1
  H  H446  1  0.159400  0.578600  0.702500  1
  H  H447  1  0.159400  0.078600  0.797500  1
  H  H448  1  0.840600  0.421400  0.297500  1
  H  H449  1  0.758000  0.016300  0.150600  1
  H  H450  1  0.242000  0.483700  0.650600  1
  H  H451  1  0.242000  0.983700  0.849400  1
  H  H452  1  0.758000  0.516300  0.349400  1
  H  H453  1  0.783600  0.991200  0.119000  1
  H  H454  1  0.216400  0.508800  0.619000  1
  H  H455  1  0.216400  0.008800  0.881000  1
  H  H456  1  0.783600  0.491200  0.381000  1
  H  H457  1  0.555100  0.092100  0.114500  1
  H  H458  1  0.444900  0.407900  0.614500  1
  H  H459  1  0.444900  0.907900  0.885500  1
  H  H460  1  0.555100  0.592100  0.385500  1
  H  H461  1  0.511900  0.105800  0.083900  1
  H  H462  1  0.488100  0.394200  0.583900  1
  H  H463  1  0.488100  0.894200  0.916100  1
  H  H464  1  0.511900  0.605800  0.416100  1
  H  H465  1  0.663100  0.235100  0.064600  1
  H  H466  1  0.336900  0.264900  0.564600  1
  H  H467  1  0.336900  0.764900  0.935400  1
  H  H468  1  0.663100  0.735100  0.435400  1
  H  H469  1  0.707200  0.206900  0.085800  1
  H  H470  1  0.292800  0.293100  0.585800  1
  H  H471  1  0.292800  0.793100  0.914200  1
  H  H472  1  0.707200  0.706900  0.414200  1
  H  H473  1  0.308400  0.016900  0.458300  1
  H  H474  1  0.691600  0.483100  0.958300  1
  H  H475  1  0.691600  0.983100  0.541700  1
  H  H476  1  0.308400  0.516900  0.041700  1
  H  H477  1  0.381300  0.035700  0.438500  1
  H  H478  1  0.618700  0.464300  0.938500  1
  H  H479  1  0.618700  0.964300  0.561500  1
  H  H480  1  0.381300  0.535700  0.061500  1
  H  H481  1  0.427100  0.138200  0.509500  1
  H  H482  1  0.572900  0.361800  0.009500  1
  H  H483  1  0.572900  0.861800  0.490500  1
  H  H484  1  0.427100  0.638200  0.990500  1
  H  H485  1  0.349300  0.133700  0.522000  1
  H  H486  1  0.650700  0.366300  0.022000  1
  H  H487  1  0.650700  0.866300  0.478000  1
  H  H488  1  0.349300  0.633700  0.978000  1
  H  H489  1  0.095100  0.314100  0.322800  1
  H  H490  1  0.904900  0.185900  0.822800  1
  H  H491  1  0.904900  0.685900  0.677200  1
  H  H492  1  0.095100  0.814100  0.177200  1
  H  H493  1  0.130300  0.350500  0.356700  1
  H  H494  1  0.869700  0.149500  0.856700  1
  H  H495  1  0.869700  0.649500  0.643300  1
  H  H496  1  0.130300  0.850500  0.143300  1
  H  H497  1  0.133300  0.291900  0.355500  1
  H  H498  1  0.866700  0.208100  0.855500  1
  H  H499  1  0.866700  0.708100  0.644500  1
  H  H500  1  0.133300  0.791900  0.144500  1
  H  H501  1  0.269000  0.349500  0.368900  1
  H  H502  1  0.731000  0.150500  0.868900  1
  H  H503  1  0.731000  0.650500  0.631100  1
  H  H504  1  0.269000  0.849500  0.131100  1
  H  H505  1  0.458200  0.403400  0.341500  1
  H  H506  1  0.541800  0.096600  0.841500  1
  H  H507  1  0.541800  0.596600  0.658500  1
  H  H508  1  0.458200  0.903400  0.158500  1
  H  H509  1  0.415000  0.357300  0.368200  1
  H  H510  1  0.585000  0.142700  0.868200  1
  H  H511  1  0.585000  0.642700  0.631800  1
  H  H512  1  0.415000  0.857300  0.131800  1
  H  H513  1  0.406200  0.414100  0.373500  1
  H  H514  1  0.593800  0.085900  0.873500  1
  H  H515  1  0.593800  0.585900  0.626500  1
  H  H516  1  0.406200  0.914100  0.126500  1
  H  H517  1  0.503200  0.421700  0.199300  1
  H  H518  1  0.496800  0.078300  0.699300  1
  H  H519  1  0.496800  0.578300  0.800700  1
  H  H520  1  0.503200  0.921700  0.300700  1
  H  H521  1  0.470200  0.443500  0.164500  1
  H  H522  1  0.529800  0.056500  0.664500  1
  H  H523  1  0.529800  0.556500  0.835500  1
  H  H524  1  0.470200  0.943500  0.335500  1
  H  H525  1  0.478400  0.386100  0.163900  1
  H  H526  1  0.521600  0.113900  0.663900  1
  H  H527  1  0.521600  0.613900  0.836100  1
  H  H528  1  0.478400  0.886100  0.336100  1
  H  H529  1  0.337500  0.381700  0.146200  1
  H  H530  1  0.662500  0.118300  0.646200  1
  H  H531  1  0.662500  0.618300  0.853800  1
  H  H532  1  0.337500  0.881700  0.353800  1
  H  H533  1  0.147000  0.315400  0.164900  1
  H  H534  1  0.853000  0.184600  0.664900  1
  H  H535  1  0.853000  0.684600  0.835100  1
  H  H536  1  0.147000  0.815400  0.335100  1
  H  H537  1  0.210100  0.305300  0.138900  1
  H  H538  1  0.789900  0.194700  0.638900  1
  H  H539  1  0.789900  0.694700  0.861100  1
  H  H540  1  0.210100  0.805300  0.361100  1
  H  H541  1  0.193000  0.359900  0.137800  1
  H  H542  1  0.807000  0.140100  0.637800  1
  H  H543  1  0.807000  0.640100  0.862200  1
  H  H544  1  0.193000  0.859900  0.362200  1
  H  H545  1  0.151800  0.279200  0.225800  1
  H  H546  1  0.848200  0.220800  0.725800  1
  H  H547  1  0.848200  0.720800  0.774200  1
  H  H548  1  0.151800  0.779200  0.274200  1
  H  H549  1  0.121600  0.324700  0.209800  1
  H  H550  1  0.878400  0.175300  0.709800  1
  H  H551  1  0.878400  0.675300  0.790200  1
  H  H552  1  0.121600  0.824700  0.290200  1
  H  H553  1  0.126700  0.363600  0.264400  1
  H  H554  1  0.873300  0.136400  0.764400  1
  H  H555  1  0.873300  0.636400  0.735600  1
  H  H556  1  0.126700  0.863600  0.235600  1
  H  H557  1  0.103500  0.303800  0.276500  1
  H  H558  1  0.896500  0.196200  0.776500  1
  H  H559  1  0.896500  0.696200  0.723500  1
  H  H560  1  0.103500  0.803800  0.223500  1
  H  H561  1  0.327700  0.239300  0.365900  1
  H  H562  1  0.672300  0.260700  0.865900  1
  H  H563  1  0.672300  0.760700  0.634100  1
  H  H564  1  0.327700  0.739300  0.134100  1
  H  H565  1  0.255600  0.191200  0.374700  1
  H  H566  1  0.744400  0.308800  0.874700  1
  H  H567  1  0.744400  0.808800  0.625300  1
  H  H568  1  0.255600  0.691200  0.125300  1
  H  H569  1  0.248900  0.249000  0.374900  1
  H  H570  1  0.751100  0.251000  0.874900  1
  H  H571  1  0.751100  0.751000  0.625100  1
  H  H572  1  0.248900  0.749000  0.125100  1
  H  H573  1  0.141300  0.194400  0.333600  1
  H  H574  1  0.858700  0.305600  0.833600  1
  H  H575  1  0.858700  0.805600  0.666400  1
  H  H576  1  0.141300  0.694400  0.166400  1
  H  H577  1  0.056200  0.167500  0.246600  1
  H  H578  1  0.943800  0.332500  0.746600  1
  H  H579  1  0.943800  0.832500  0.753400  1
  H  H580  1  0.056200  0.667500  0.253400  1
  H  H581  1  0.040700  0.196300  0.282600  1
  H  H582  1  0.959300  0.303700  0.782600  1
  H  H583  1  0.959300  0.803700  0.717400  1
  H  H584  1  0.040700  0.696300  0.217400  1
  H  H585  1  0.045800  0.138200  0.285100  1
  H  H586  1  0.954200  0.361800  0.785100  1
  H  H587  1  0.954200  0.861800  0.714900  1
  H  H588  1  0.045800  0.638200  0.214900  1
  H  H589  1  0.244200  0.216800  0.134900  1
  H  H590  1  0.755800  0.283200  0.634900  1
  H  H591  1  0.755800  0.783200  0.865100  1
  H  H592  1  0.244200  0.716800  0.365100  1
  H  H593  1  0.323300  0.210900  0.121800  1
  H  H594  1  0.676700  0.289100  0.621800  1
  H  H595  1  0.676700  0.789100  0.878200  1
  H  H596  1  0.323300  0.710900  0.378200  1
  H  H597  1  0.309700  0.266800  0.121800  1
  H  H598  1  0.690300  0.233200  0.621800  1
  H  H599  1  0.690300  0.733200  0.878200  1
  H  H600  1  0.309700  0.766800  0.378200  1
  H  H601  1  0.434500  0.274100  0.159100  1
  H  H602  1  0.565500  0.225900  0.659100  1
  H  H603  1  0.565500  0.725900  0.840900  1
  H  H604  1  0.434500  0.774100  0.340900  1
  H  H605  1  0.533800  0.306400  0.241900  1
  H  H606  1  0.466200  0.193600  0.741900  1
  H  H607  1  0.466200  0.693600  0.758100  1
  H  H608  1  0.533800  0.806400  0.258100  1
  H  H609  1  0.528800  0.335800  0.204500  1
  H  H610  1  0.471200  0.164200  0.704500  1
  H  H611  1  0.471200  0.664200  0.795500  1
  H  H612  1  0.528800  0.835800  0.295500  1
  H  H613  1  0.544800  0.280700  0.203800  1
  H  H614  1  0.455200  0.219300  0.703800  1
  H  H615  1  0.455200  0.719300  0.796200  1
  H  H616  1  0.544800  0.780700  0.296200  1
  H  H617  1  0.438200  0.316600  0.283000  1
  H  H618  1  0.561800  0.183400  0.783000  1
  H  H619  1  0.561800  0.683400  0.717000  1
  H  H620  1  0.438200  0.816600  0.217000  1
  H  H621  1  0.482200  0.273900  0.279700  1
  H  H622  1  0.517800  0.226100  0.779700  1
  H  H623  1  0.517800  0.726100  0.720300  1
  H  H624  1  0.482200  0.773900  0.220300  1
  H  H625  1  0.401000  0.217600  0.314400  1
  H  H626  1  0.599000  0.282400  0.814400  1
  H  H627  1  0.599000  0.782400  0.685600  1
  H  H628  1  0.401000  0.717600  0.185600  1
  H  H629  1  0.392000  0.270000  0.331700  1
  H  H630  1  0.608000  0.230000  0.831700  1
  H  H631  1  0.608000  0.730000  0.668300  1
  H  H632  1  0.392000  0.770000  0.168300  1
  Pd  Pd633  1  0.014762  0.423230  0.099516  1
  Pd  Pd634  1  0.985238  0.076770  0.599516  1
  Pd  Pd635  1  0.985238  0.576770  0.900484  1
  Pd  Pd636  1  0.014762  0.923230  0.400484  1
  Pd  Pd637  1  0.217860  0.491971  0.441892  1
  Pd  Pd638  1  0.782140  0.008029  0.941892  1
  Pd  Pd639  1  0.782140  0.508029  0.558108  1
  Pd  Pd640  1  0.217860  0.991971  0.058108  1
  Pd  Pd641  1  0.728886  0.608459  0.182826  1
  Pd  Pd642  1  0.271114  0.891541  0.682826  1
  Pd  Pd643  1  0.271114  0.391541  0.817174  1
  Pd  Pd644  1  0.728886  0.108459  0.317174  1
  Pd  Pd645  1  0.881019  0.004358  0.167145  1
  Pd  Pd646  1  0.118981  0.495642  0.667145  1
  Pd  Pd647  1  0.118981  0.995642  0.832855  1
  Pd  Pd648  1  0.881019  0.504358  0.332855  1
  Pd  Pd649  1  0.342552  0.113277  0.455806  1
  Pd  Pd650  1  0.657448  0.386723  0.955806  1
  Pd  Pd651  1  0.657448  0.886723  0.544194  1
  Pd  Pd652  1  0.342552  0.613277  0.044194  1
  Pd  Pd653  1  0.581861  0.188592  0.114977  1
  Pd  Pd654  1  0.418139  0.311408  0.614977  1
  Pd  Pd655  1  0.418139  0.811408  0.885023  1
  Pd  Pd656  1  0.581861  0.688592  0.385023  1
  C  C657  1  0.083000  0.437790  0.173010  1
  C  C658  1  0.917000  0.062210  0.673010  1
  C  C659  1  0.917000  0.562210  0.826990  1
  C  C660  1  0.083000  0.937790  0.326990  1
  C  C661  1  0.137200  0.448310  0.199520  1
  C  C662  1  0.862800  0.051690  0.699520  1
  C  C663  1  0.862800  0.551690  0.800480  1
  C  C664  1  0.137200  0.948310  0.300480  1
  C  C665  1  0.212400  0.465030  0.189410  1
  C  C666  1  0.787600  0.034970  0.689410  1
  C  C667  1  0.787600  0.534970  0.810590  1
  C  C668  1  0.212400  0.965030  0.310590  1
  C  C669  1  0.229100  0.469060  0.152380  1
  C  C670  1  0.770900  0.030940  0.652380  1
  C  C671  1  0.770900  0.530940  0.847620  1
  C  C672  1  0.229100  0.969060  0.347620  1
  C  C673  1  0.171500  0.458230  0.127460  1
  C  C674  1  0.828500  0.041770  0.627460  1
  C  C675  1  0.828500  0.541770  0.872540  1
  C  C676  1  0.171500  0.958230  0.372540  1
  C  C677  1  0.322000  0.502110  0.378180  1
  C  C678  1  0.678000  0.997890  0.878180  1
  C  C679  1  0.678000  0.497890  0.621820  1
  C  C680  1  0.322000  0.002110  0.121820  1
  C  C681  1  0.343000  0.501450  0.342090  1
  C  C682  1  0.657000  0.998550  0.842090  1
  C  C683  1  0.657000  0.498550  0.657910  1
  C  C684  1  0.343000  0.001450  0.157910  1
  C  C685  1  0.287800  0.487480  0.315510  1
  C  C686  1  0.712200  0.012520  0.815510  1
  C  C687  1  0.712200  0.512520  0.684490  1
  C  C688  1  0.287800  0.987480  0.184490  1
  C  C689  1  0.213300  0.473040  0.326160  1
  C  C690  1  0.786700  0.026960  0.826160  1
  C  C691  1  0.786700  0.526960  0.673840  1
  C  C692  1  0.213300  0.973040  0.173840  1
  C  C693  1  0.196100  0.475260  0.362650  1
  C  C694  1  0.803900  0.024740  0.862650  1
  C  C695  1  0.803900  0.524740  0.637350  1
  C  C696  1  0.196100  0.975260  0.137350  1
  C  C697  1  0.564800  0.567080  0.173580  1
  C  C698  1  0.435200  0.932920  0.673580  1
  C  C699  1  0.435200  0.432920  0.826420  1
  C  C700  1  0.564800  0.067080  0.326420  1
  C  C701  1  0.491000  0.544870  0.183430  1
  C  C702  1  0.509000  0.955130  0.683430  1
  C  C703  1  0.509000  0.455130  0.816570  1
  C  C704  1  0.491000  0.044870  0.316570  1
  C  C705  1  0.471700  0.542160  0.220120  1
  C  C706  1  0.528300  0.957840  0.720120  1
  C  C707  1  0.528300  0.457840  0.779880  1
  C  C708  1  0.471700  0.042160  0.279880  1
  C  C709  1  0.527300  0.564620  0.245220  1
  C  C710  1  0.472700  0.935380  0.745220  1
  C  C711  1  0.472700  0.435380  0.754780  1
  C  C712  1  0.527300  0.064620  0.254780  1
  C  C713  1  0.599800  0.587590  0.233320  1
  C  C714  1  0.400200  0.912410  0.733320  1
  C  C715  1  0.400200  0.412410  0.766680  1
  C  C716  1  0.599800  0.087590  0.266680  1
  C  C717  1  0.272300  0.479470  0.217360  1
  C  C718  1  0.727700  0.020530  0.717360  1
  C  C719  1  0.727700  0.520530  0.782640  1
  C  C720  1  0.272300  0.979470  0.282640  1
  C  C721  1  0.307800  0.490380  0.276130  1
  C  C722  1  0.692200  0.009620  0.776130  1
  C  C723  1  0.692200  0.509620  0.723870  1
  C  C724  1  0.307800  0.990380  0.223870  1
  C  C725  1  0.393700  0.516110  0.231660  1
  C  C726  1  0.606300  0.983890  0.731660  1
  C  C727  1  0.606300  0.483890  0.768340  1
  C  C728  1  0.393700  0.016110  0.268340  1
  C  C729  1  0.043800  0.036860  0.171250  1
  C  C730  1  0.956200  0.463140  0.671250  1
  C  C731  1  0.956200  0.963140  0.828750  1
  C  C732  1  0.043800  0.536860  0.328750  1
  C  C733  1  0.114000  0.056940  0.186320  1
  C  C734  1  0.886000  0.443060  0.686320  1
  C  C735  1  0.886000  0.943060  0.813680  1
  C  C736  1  0.114000  0.556940  0.313680  1
  C  C737  1  0.122100  0.057610  0.223870  1
  C  C738  1  0.877900  0.442390  0.723870  1
  C  C739  1  0.877900  0.942390  0.776130  1
  C  C740  1  0.122100  0.557610  0.276130  1
  C  C741  1  0.059200  0.035180  0.244900  1
  C  C742  1  0.940800  0.464820  0.744900  1
  C  C743  1  0.940800  0.964820  0.755100  1
  C  C744  1  0.059200  0.535180  0.255100  1
  C  C745  1  0.990600  0.015850  0.227920  1
  C  C746  1  0.009400  0.484150  0.727920  1
  C  C747  1  0.009400  0.984150  0.772080  1
  C  C748  1  0.990600  0.515850  0.272080  1
  C  C749  1  0.514000  0.172340  0.189840  1
  C  C750  1  0.486000  0.327660  0.689840  1
  C  C751  1  0.486000  0.827660  0.810160  1
  C  C752  1  0.514000  0.672340  0.310160  1
  C  C753  1  0.458200  0.156870  0.215600  1
  C  C754  1  0.541800  0.343130  0.715600  1
  C  C755  1  0.541800  0.843130  0.784400  1
  C  C756  1  0.458200  0.656870  0.284400  1
  C  C757  1  0.384600  0.135210  0.204340  1
  C  C758  1  0.615400  0.364790  0.704340  1
  C  C759  1  0.615400  0.864790  0.795660  1
  C  C760  1  0.384600  0.635210  0.295660  1
  C  C761  1  0.370300  0.130750  0.167180  1
  C  C762  1  0.629700  0.369250  0.667180  1
  C  C763  1  0.629700  0.869250  0.832820  1
  C  C764  1  0.370300  0.630750  0.332820  1
  C  C765  1  0.428500  0.146830  0.143260  1
  C  C766  1  0.571500  0.353170  0.643260  1
  C  C767  1  0.571500  0.853170  0.856740  1
  C  C768  1  0.428500  0.646830  0.356740  1
  C  C769  1  0.245300  0.094870  0.388840  1
  C  C770  1  0.754700  0.405130  0.888840  1
  C  C771  1  0.754700  0.905130  0.611160  1
  C  C772  1  0.245300  0.594870  0.111160  1
  C  C773  1  0.230100  0.093480  0.351950  1
  C  C774  1  0.769900  0.406520  0.851950  1
  C  C775  1  0.769900  0.906520  0.648050  1
  C  C776  1  0.230100  0.593480  0.148050  1
  C  C777  1  0.289400  0.103760  0.327390  1
  C  C778  1  0.710600  0.396240  0.827390  1
  C  C779  1  0.710600  0.896240  0.672610  1
  C  C780  1  0.289400  0.603760  0.172610  1
  C  C781  1  0.362000  0.114140  0.340790  1
  C  C782  1  0.638000  0.385860  0.840790  1
  C  C783  1  0.638000  0.885860  0.659210  1
  C  C784  1  0.362000  0.614140  0.159210  1
  C  C785  1  0.372600  0.113910  0.378000  1
  C  C786  1  0.627400  0.386090  0.878000  1
  C  C787  1  0.627400  0.886090  0.622000  1
  C  C788  1  0.372600  0.613910  0.122000  1
  C  C789  1  0.197700  0.080700  0.239950  1
  C  C790  1  0.802300  0.419300  0.739950  1
  C  C791  1  0.802300  0.919300  0.760050  1
  C  C792  1  0.197700  0.580700  0.260050  1
  C  C793  1  0.321600  0.117080  0.230480  1
  C  C794  1  0.678400  0.382920  0.730480  1
  C  C795  1  0.678400  0.882920  0.769520  1
  C  C796  1  0.321600  0.617080  0.269520  1
  C  C797  1  0.276200  0.102650  0.287430  1
  C  C798  1  0.723800  0.397350  0.787430  1
  C  C799  1  0.723800  0.897350  0.712570  1
  C  C800  1  0.276200  0.602650  0.212570  1
  C  C801  1  0.094600  0.344340  0.068830  1
  C  C802  1  0.905400  0.155660  0.568830  1
  C  C803  1  0.905400  0.655660  0.931170  1
  C  C804  1  0.094600  0.844340  0.431170  1
  C  C805  1  0.036600  0.318910  0.096580  1
  C  C806  1  0.963400  0.181090  0.596580  1
  C  C807  1  0.963400  0.681090  0.903420  1
  C  C808  1  0.036600  0.818910  0.403420  1
  C  C809  1  0.024200  0.267250  0.105650  1
  C  C810  1  0.975800  0.232750  0.605650  1
  C  C811  1  0.975800  0.732750  0.894350  1
  C  C812  1  0.024200  0.767250  0.394350  1
  C  C813  1  0.969700  0.243390  0.131230  1
  C  C814  1  0.030300  0.256610  0.631230  1
  C  C815  1  0.030300  0.756610  0.868770  1
  C  C816  1  0.969700  0.743390  0.368770  1
  C  C817  1  0.928800  0.273120  0.146890  1
  C  C818  1  0.071200  0.226880  0.646890  1
  C  C819  1  0.071200  0.726880  0.853110  1
  C  C820  1  0.928800  0.773120  0.353110  1
  C  C821  1  0.941000  0.324440  0.137110  1
  C  C822  1  0.059000  0.175560  0.637110  1
  C  C823  1  0.059000  0.675560  0.862890  1
  C  C824  1  0.941000  0.824440  0.362890  1
  C  C825  1  0.892200  0.355090  0.151300  1
  C  C826  1  0.107800  0.144910  0.651300  1
  C  C827  1  0.107800  0.644910  0.848700  1
  C  C828  1  0.892200  0.855090  0.348700  1
  C  C829  1  0.938200  0.061240  0.092440  1
  C  C830  1  0.061800  0.438760  0.592440  1
  C  C831  1  0.061800  0.938760  0.907560  1
  C  C832  1  0.938200  0.561240  0.407560  1
  C  C833  1  0.934900  0.099310  0.121450  1
  C  C834  1  0.065100  0.400690  0.621450  1
  C  C835  1  0.065100  0.900690  0.878550  1
  C  C836  1  0.934900  0.599310  0.378550  1
  C  C837  1  0.956500  0.151810  0.113720  1
  C  C838  1  0.043500  0.348190  0.613720  1
  C  C839  1  0.043500  0.848190  0.886280  1
  C  C840  1  0.956500  0.651810  0.386280  1
  C  C841  1  0.952900  0.187670  0.140040  1
  C  C842  1  0.047100  0.312330  0.640040  1
  C  C843  1  0.047100  0.812330  0.859960  1
  C  C844  1  0.952900  0.687670  0.359960  1
  C  C845  1  0.929200  0.169060  0.174630  1
  C  C846  1  0.070800  0.330940  0.674630  1
  C  C847  1  0.070800  0.830940  0.825370  1
  C  C848  1  0.929200  0.669060  0.325370  1
  C  C849  1  0.908600  0.116800  0.181800  1
  C  C850  1  0.091400  0.383200  0.681800  1
  C  C851  1  0.091400  0.883200  0.818200  1
  C  C852  1  0.908600  0.616800  0.318200  1
  C  C853  1  0.879800  0.096670  0.218600  1
  C  C854  1  0.120200  0.403330  0.718600  1
  C  C855  1  0.120200  0.903330  0.781400  1
  C  C856  1  0.879800  0.596670  0.281400  1
  C  C857  1  0.109500  0.378100  0.432170  1
  C  C858  1  0.890500  0.121900  0.932170  1
  C  C859  1  0.890500  0.621900  0.567830  1
  C  C860  1  0.109500  0.878100  0.067830  1
  C  C861  1  0.187300  0.377240  0.442550  1
  C  C862  1  0.812700  0.122760  0.942550  1
  C  C863  1  0.812700  0.622760  0.557450  1
  C  C864  1  0.187300  0.877240  0.057450  1
  C  C865  1  0.204000  0.330810  0.444880  1
  C  C866  1  0.796000  0.169190  0.944880  1
  C  C867  1  0.796000  0.669190  0.555120  1
  C  C868  1  0.204000  0.830810  0.055120  1
  C  C869  1  0.275900  0.329880  0.453960  1
  C  C870  1  0.724100  0.170120  0.953960  1
  C  C871  1  0.724100  0.670120  0.546040  1
  C  C872  1  0.275900  0.829880  0.046040  1
  C  C873  1  0.328600  0.376850  0.461790  1
  C  C874  1  0.671400  0.123150  0.961790  1
  C  C875  1  0.671400  0.623150  0.538210  1
  C  C876  1  0.328600  0.876850  0.038210  1
  C  C877  1  0.309300  0.422820  0.460850  1
  C  C878  1  0.690700  0.077180  0.960850  1
  C  C879  1  0.690700  0.577180  0.539150  1
  C  C880  1  0.309300  0.922820  0.039150  1
  C  C881  1  0.363300  0.472100  0.473780  1
  C  C882  1  0.636700  0.027900  0.973780  1
  C  C883  1  0.636700  0.527900  0.526220  1
  C  C884  1  0.363300  0.972100  0.026220  1
  C  C885  1  0.195000  0.139110  0.475250  1
  C  C886  1  0.805000  0.360890  0.975250  1
  C  C887  1  0.805000  0.860890  0.524750  1
  C  C888  1  0.195000  0.639110  0.024750  1
  C  C889  1  0.255100  0.187380  0.465250  1
  C  C890  1  0.744900  0.312620  0.965250  1
  C  C891  1  0.744900  0.812620  0.534750  1
  C  C892  1  0.255100  0.687380  0.034750  1
  C  C893  1  0.239200  0.234470  0.464640  1
  C  C894  1  0.760800  0.265530  0.964640  1
  C  C895  1  0.760800  0.765530  0.535360  1
  C  C896  1  0.239200  0.734470  0.035360  1
  C  C897  1  0.294600  0.280530  0.455700  1
  C  C898  1  0.705400  0.219470  0.955700  1
  C  C899  1  0.705400  0.719470  0.544300  1
  C  C900  1  0.294600  0.780530  0.044300  1
  C  C901  1  0.365500  0.276510  0.448450  1
  C  C902  1  0.634500  0.223490  0.948450  1
  C  C903  1  0.634500  0.723490  0.551550  1
  C  C904  1  0.365500  0.776510  0.051550  1
  C  C905  1  0.380000  0.229120  0.448900  1
  C  C906  1  0.620000  0.270880  0.948900  1
  C  C907  1  0.620000  0.770880  0.551100  1
  C  C908  1  0.380000  0.729120  0.051100  1
  C  C909  1  0.456600  0.225600  0.440250  1
  C  C910  1  0.543400  0.274400  0.940250  1
  C  C911  1  0.543400  0.774400  0.559750  1
  C  C912  1  0.456600  0.725600  0.059750  1
  C  C913  1  0.714100  0.512610  0.234770  1
  C  C914  1  0.285900  0.987390  0.734770  1
  C  C915  1  0.285900  0.487390  0.765230  1
  C  C916  1  0.714100  0.012610  0.265230  1
  C  C917  1  0.704100  0.495980  0.195680  1
  C  C918  1  0.295900  0.004020  0.695680  1
  C  C919  1  0.295900  0.504020  0.804320  1
  C  C920  1  0.704100  0.995980  0.304320  1
  C  C921  1  0.684600  0.443740  0.187820  1
  C  C922  1  0.315400  0.056260  0.687820  1
  C  C923  1  0.315400  0.556260  0.812180  1
  C  C924  1  0.684600  0.943740  0.312180  1
  C  C925  1  0.673200  0.426780  0.151990  1
  C  C926  1  0.326800  0.073220  0.651990  1
  C  C927  1  0.326800  0.573220  0.848010  1
  C  C928  1  0.673200  0.926780  0.348010  1
  C  C929  1  0.684600  0.464220  0.125060  1
  C  C930  1  0.315400  0.035780  0.625060  1
  C  C931  1  0.315400  0.535780  0.874940  1
  C  C932  1  0.684600  0.964220  0.374940  1
  C  C933  1  0.704900  0.516170  0.133710  1
  C  C934  1  0.295100  0.983830  0.633710  1
  C  C935  1  0.295100  0.483830  0.866290  1
  C  C936  1  0.704900  0.016170  0.366290  1
  C  C937  1  0.718300  0.556300  0.104550  1
  C  C938  1  0.281700  0.943700  0.604550  1
  C  C939  1  0.281700  0.443700  0.895450  1
  C  C940  1  0.718300  0.056300  0.395450  1
  C  C941  1  0.709700  0.252680  0.167080  1
  C  C942  1  0.290300  0.247320  0.667080  1
  C  C943  1  0.290300  0.747320  0.832920  1
  C  C944  1  0.709700  0.752680  0.332920  1
  C  C945  1  0.667000  0.286600  0.151840  1
  C  C946  1  0.333000  0.213400  0.651840  1
  C  C947  1  0.333000  0.713400  0.848160  1
  C  C948  1  0.667000  0.786600  0.348160  1
  C  C949  1  0.687400  0.339040  0.159920  1
  C  C950  1  0.312600  0.160960  0.659920  1
  C  C951  1  0.312600  0.660960  0.840080  1
  C  C952  1  0.687400  0.839040  0.340080  1
  C  C953  1  0.651100  0.370870  0.143200  1
  C  C954  1  0.348900  0.129130  0.643200  1
  C  C955  1  0.348900  0.629130  0.856800  1
  C  C956  1  0.651100  0.870870  0.356800  1
  C  C957  1  0.593500  0.348720  0.119100  1
  C  C958  1  0.406500  0.151280  0.619100  1
  C  C959  1  0.406500  0.651280  0.880900  1
  C  C960  1  0.593500  0.848720  0.380900  1
  C  C961  1  0.572900  0.296280  0.112070  1
  C  C962  1  0.427100  0.203720  0.612070  1
  C  C963  1  0.427100  0.703720  0.887930  1
  C  C964  1  0.572900  0.796280  0.387930  1
  C  C965  1  0.511200  0.271310  0.086000  1
  C  C966  1  0.488800  0.228690  0.586000  1
  C  C967  1  0.488800  0.728690  0.914000  1
  C  C968  1  0.511200  0.771310  0.414000  1
  C  C969  1  0.960700  0.500000  0.064470  1
  C  C970  1  0.039300  0.000000  0.564470  1
  C  C971  1  0.039300  0.500000  0.935530  1
  C  C972  1  0.960700  0.000000  0.435530  1
  C  C973  1  0.932900  0.453060  0.040360  1
  C  C974  1  0.067100  0.046940  0.540360  1
  C  C975  1  0.067100  0.546940  0.959640  1
  C  C976  1  0.932900  0.953060  0.459640  1
  C  C977  1  0.161600  0.574300  0.469390  1
  C  C978  1  0.838400  0.925700  0.969390  1
  C  C979  1  0.838400  0.425700  0.530610  1
  C  C980  1  0.161600  0.074300  0.030610  1
  C  C981  1  0.182900  0.550200  0.500900  1
  C  C982  1  0.817100  0.949800  0.000900  1
  C  C983  1  0.817100  0.449800  0.499100  1
  C  C984  1  0.182900  0.050200  0.999100  1
  C  C985  1  0.821000  0.716090  0.184850  1
  C  C986  1  0.179000  0.783910  0.684850  1
  C  C987  1  0.179000  0.283910  0.815150  1
  C  C988  1  0.821000  0.216090  0.315150  1
  C  C989  1  0.874300  0.683820  0.187790  1
  C  C990  1  0.125700  0.816180  0.687790  1
  C  C991  1  0.125700  0.316180  0.812210  1
  C  C992  1  0.874300  0.183820  0.312210  1
  C  C993  1  0.775200  0.903300  0.158100  1
  C  C994  1  0.224800  0.596700  0.658100  1
  C  C995  1  0.224800  0.096700  0.841900  1
  C  C996  1  0.775200  0.403300  0.341900  1
  C  C997  1  0.731000  0.940500  0.155800  1
  C  C998  1  0.269000  0.559500  0.655800  1
  C  C999  1  0.269000  0.059500  0.844200  1
  C  C1000  1  0.731000  0.440500  0.344200  1
  C  C1001  1  0.617600  0.111700  0.069450  1
  C  C1002  1  0.382400  0.388300  0.569450  1
  C  C1003  1  0.382400  0.888300  0.930550  1
  C  C1004  1  0.617600  0.611700  0.430550  1
  C  C1005  1  0.641300  0.161700  0.048770  1
  C  C1006  1  0.358700  0.338300  0.548770  1
  C  C1007  1  0.358700  0.838300  0.951230  1
  C  C1008  1  0.641300  0.661700  0.451230  1
  C  C1009  1  0.395500  0.035700  0.492180  1
  C  C1010  1  0.604500  0.464300  0.992180  1
  C  C1011  1  0.604500  0.964300  0.507820  1
  C  C1012  1  0.395500  0.535700  0.007820  1
  C  C1013  1  0.370100  0.065700  0.522140  1
  C  C1014  1  0.629900  0.434300  0.022140  1
  C  C1015  1  0.629900  0.934300  0.477860  1
  C  C1016  1  0.370100  0.565700  0.977860  1
  C  C1017  1  0.135700  0.322600  0.340810  1
  C  C1018  1  0.864300  0.177400  0.840810  1
  C  C1019  1  0.864300  0.677400  0.659190  1
  C  C1020  1  0.135700  0.822600  0.159190  1
  C  C1021  1  0.210000  0.340200  0.321550  1
  C  C1022  1  0.790000  0.159800  0.821550  1
  C  C1023  1  0.790000  0.659800  0.678450  1
  C  C1024  1  0.210000  0.840200  0.178450  1
  C  C1025  1  0.275100  0.354500  0.343270  1
  C  C1026  1  0.724900  0.145500  0.843270  1
  C  C1027  1  0.724900  0.645500  0.656730  1
  C  C1028  1  0.275100  0.854500  0.156730  1
  C  C1029  1  0.346000  0.375000  0.330350  1
  C  C1030  1  0.654000  0.125000  0.830350  1
  C  C1031  1  0.654000  0.625000  0.669650  1
  C  C1032  1  0.346000  0.875000  0.169650  1
  C  C1033  1  0.412000  0.388600  0.355570  1
  C  C1034  1  0.588000  0.111400  0.855570  1
  C  C1035  1  0.588000  0.611400  0.644430  1
  C  C1036  1  0.412000  0.888600  0.144430  1
  C  C1037  1  0.467000  0.412500  0.179210  1
  C  C1038  1  0.533000  0.087500  0.679210  1
  C  C1039  1  0.533000  0.587500  0.820790  1
  C  C1040  1  0.467000  0.912500  0.320790  1
  C  C1041  1  0.388900  0.391570  0.194420  1
  C  C1042  1  0.611100  0.108430  0.694420  1
  C  C1043  1  0.611100  0.608430  0.805580  1
  C  C1044  1  0.388900  0.891570  0.305580  1
  C  C1045  1  0.328500  0.375800  0.171540  1
  C  C1046  1  0.671500  0.124200  0.671540  1
  C  C1047  1  0.671500  0.624200  0.828460  1
  C  C1048  1  0.328500  0.875800  0.328460  1
  C  C1049  1  0.254000  0.351500  0.182600  1
  C  C1050  1  0.746000  0.148500  0.682600  1
  C  C1051  1  0.746000  0.648500  0.817400  1
  C  C1052  1  0.254000  0.851500  0.317400  1
  C  C1053  1  0.196000  0.331200  0.153520  1
  C  C1054  1  0.804000  0.168800  0.653520  1
  C  C1055  1  0.804000  0.668800  0.846480  1
  C  C1056  1  0.196000  0.831200  0.346480  1
  C  C1057  1  0.157800  0.316800  0.226920  1
  C  C1058  1  0.842200  0.183200  0.726920  1
  C  C1059  1  0.842200  0.683200  0.773080  1
  C  C1060  1  0.157800  0.816800  0.273080  1
  C  C1061  1  0.143600  0.332100  0.265030  1
  C  C1062  1  0.856400  0.167900  0.765030  1
  C  C1063  1  0.856400  0.667900  0.734970  1
  C  C1064  1  0.143600  0.832100  0.234970  1
  C  C1065  1  0.273000  0.225500  0.363190  1
  C  C1066  1  0.727000  0.274500  0.863190  1
  C  C1067  1  0.727000  0.774500  0.636810  1
  C  C1068  1  0.273000  0.725500  0.136810  1
  C  C1069  1  0.253000  0.220660  0.323160  1
  C  C1070  1  0.747000  0.279340  0.823160  1
  C  C1071  1  0.747000  0.779340  0.676840  1
  C  C1072  1  0.253000  0.720660  0.176840  1
  C  C1073  1  0.176600  0.201600  0.314210  1
  C  C1074  1  0.823400  0.298400  0.814210  1
  C  C1075  1  0.823400  0.798400  0.685790  1
  C  C1076  1  0.176600  0.701600  0.185790  1
  C  C1077  1  0.149400  0.192580  0.279590  1
  C  C1078  1  0.850600  0.307420  0.779590  1
  C  C1079  1  0.850600  0.807420  0.720410  1
  C  C1080  1  0.149400  0.692580  0.220410  1
  C  C1081  1  0.065700  0.171800  0.272900  1
  C  C1082  1  0.934300  0.328200  0.772900  1
  C  C1083  1  0.934300  0.828200  0.727100  1
  C  C1084  1  0.065700  0.671800  0.227100  1
  C  C1085  1  0.298700  0.233400  0.134500  1
  C  C1086  1  0.701300  0.266600  0.634500  1
  C  C1087  1  0.701300  0.766600  0.865500  1
  C  C1088  1  0.298700  0.733400  0.365500  1
  C  C1089  1  0.327500  0.242120  0.172890  1
  C  C1090  1  0.672500  0.257880  0.672890  1
  C  C1091  1  0.672500  0.757880  0.827110  1
  C  C1092  1  0.327500  0.742120  0.327110  1
  C  C1093  1  0.401900  0.264600  0.179540  1
  C  C1094  1  0.598100  0.235400  0.679540  1
  C  C1095  1  0.598100  0.735400  0.820460  1
  C  C1096  1  0.401900  0.764600  0.320460  1
  C  C1097  1  0.434400  0.274900  0.214610  1
  C  C1098  1  0.565600  0.225100  0.714610  1
  C  C1099  1  0.565600  0.725100  0.785390  1
  C  C1100  1  0.434400  0.774900  0.285390  1
  C  C1101  1  0.517800  0.301800  0.216350  1
  C  C1102  1  0.482200  0.198200  0.716350  1
  C  C1103  1  0.482200  0.698200  0.783650  1
  C  C1104  1  0.517800  0.801800  0.283650  1
  C  C1105  1  0.431800  0.279200  0.279450  1
  C  C1106  1  0.568200  0.220800  0.779450  1
  C  C1107  1  0.568200  0.720800  0.720550  1
  C  C1108  1  0.431800  0.779200  0.220550  1
  C  C1109  1  0.385200  0.248800  0.309190  1
  C  C1110  1  0.614800  0.251200  0.809190  1
  C  C1111  1  0.614800  0.751200  0.690810  1
  C  C1112  1  0.385200  0.748800  0.190810  1
  N  N1113  1  0.099080  0.442440  0.137220  1
  N  N1114  1  0.900920  0.057560  0.637220  1
  N  N1115  1  0.900920  0.557560  0.862780  1
  N  N1116  1  0.099080  0.942440  0.362780  1
  N  N1117  1  0.250000  0.490140  0.388660  1
  N  N1118  1  0.750000  0.009860  0.888660  1
  N  N1119  1  0.750000  0.509860  0.611340  1
  N  N1120  1  0.250000  0.990140  0.111340  1
  N  N1121  1  0.618940  0.587640  0.198170  1
  N  N1122  1  0.381060  0.912360  0.698170  1
  N  N1123  1  0.381060  0.412360  0.801830  1
  N  N1124  1  0.618940  0.087640  0.301830  1
  N  N1125  1  0.251560  0.473710  0.252200  1
  N  N1126  1  0.748440  0.026290  0.752200  1
  N  N1127  1  0.748440  0.526290  0.747800  1
  N  N1128  1  0.251560  0.973710  0.247800  1
  N  N1129  1  0.380020  0.512140  0.267660  1
  N  N1130  1  0.619980  0.987860  0.767660  1
  N  N1131  1  0.619980  0.487860  0.732340  1
  N  N1132  1  0.380020  0.012140  0.232340  1
  N  N1133  1  0.342490  0.500530  0.205450  1
  N  N1134  1  0.657510  0.999470  0.705450  1
  N  N1135  1  0.657510  0.499470  0.794550  1
  N  N1136  1  0.342490  0.000530  0.294550  1
  N  N1137  1  0.982700  0.017660  0.191740  1
  N  N1138  1  0.017300  0.482340  0.691740  1
  N  N1139  1  0.017300  0.982340  0.808260  1
  N  N1140  1  0.982700  0.517660  0.308260  1
  N  N1141  1  0.500100  0.167500  0.153980  1
  N  N1142  1  0.499900  0.332500  0.653980  1
  N  N1143  1  0.499900  0.832500  0.846020  1
  N  N1144  1  0.500100  0.667500  0.346020  1
  N  N1145  1  0.315500  0.105380  0.401900  1
  N  N1146  1  0.684500  0.394620  0.901900  1
  N  N1147  1  0.684500  0.894620  0.598100  1
  N  N1148  1  0.315500  0.605380  0.098100  1
  N  N1149  1  0.253700  0.097620  0.216020  1
  N  N1150  1  0.746300  0.402380  0.716020  1
  N  N1151  1  0.746300  0.902380  0.783980  1
  N  N1152  1  0.253700  0.597620  0.283980  1
  N  N1153  1  0.336520  0.120100  0.266150  1
  N  N1154  1  0.663480  0.379900  0.766150  1
  N  N1155  1  0.663480  0.879900  0.733850  1
  N  N1156  1  0.336520  0.620100  0.233850  1
  N  N1157  1  0.205520  0.082860  0.276110  1
  N  N1158  1  0.794480  0.417140  0.776110  1
  N  N1159  1  0.794480  0.917140  0.723890  1
  N  N1160  1  0.205520  0.582860  0.223890  1
  N  N1161  1  0.994960  0.346730  0.112580  1
  N  N1162  1  0.005040  0.153270  0.612580  1
  N  N1163  1  0.005040  0.653270  0.887420  1
  N  N1164  1  0.994960  0.846730  0.387420  1
  N  N1165  1  0.910690  0.082160  0.155000  1
  N  N1166  1  0.089310  0.417840  0.655000  1
  N  N1167  1  0.089310  0.917840  0.845000  1
  N  N1168  1  0.910690  0.582160  0.345000  1
  N  N1169  1  0.239800  0.422790  0.450180  1
  N  N1170  1  0.760200  0.077210  0.950180  1
  N  N1171  1  0.760200  0.577210  0.549820  1
  N  N1172  1  0.239800  0.922790  0.049820  1
  N  N1173  1  0.324500  0.184980  0.456950  1
  N  N1174  1  0.675500  0.315020  0.956950  1
  N  N1175  1  0.675500  0.815020  0.543050  1
  N  N1176  1  0.324500  0.684980  0.043050  1
  N  N1177  1  0.713090  0.531750  0.168950  1
  N  N1178  1  0.286910  0.968250  0.668950  1
  N  N1179  1  0.286910  0.468250  0.831050  1
  N  N1180  1  0.713090  0.031750  0.331050  1
  N  N1181  1  0.609650  0.265680  0.128630  1
  N  N1182  1  0.390350  0.234320  0.628630  1
  N  N1183  1  0.390350  0.734320  0.871370  1
  N  N1184  1  0.609650  0.765680  0.371370  1
  N  N1185  1  0.030600  0.497370  0.082400  1
  N  N1186  1  0.969400  0.002630  0.582400  1
  N  N1187  1  0.969400  0.502630  0.917600  1
  N  N1188  1  0.030600  0.997370  0.417600  1
  N  N1189  1  0.928900  0.406800  0.063290  1
  N  N1190  1  0.071100  0.093200  0.563290  1
  N  N1191  1  0.071100  0.593200  0.936710  1
  N  N1192  1  0.928900  0.906800  0.436710  1
  N  N1193  1  0.201400  0.563440  0.436830  1
  N  N1194  1  0.798600  0.936560  0.936830  1
  N  N1195  1  0.798600  0.436560  0.563170  1
  N  N1196  1  0.201400  0.063440  0.063170  1
  N  N1197  1  0.179800  0.496210  0.493280  1
  N  N1198  1  0.820200  0.003790  0.993280  1
  N  N1199  1  0.820200  0.503790  0.506720  1
  N  N1200  1  0.179800  0.996210  0.006720  1
  N  N1201  1  0.746900  0.683430  0.197530  1
  N  N1202  1  0.253100  0.816570  0.697530  1
  N  N1203  1  0.253100  0.316570  0.802470  1
  N  N1204  1  0.746900  0.183430  0.302470  1
  N  N1205  1  0.838800  0.633720  0.168660  1
  N  N1206  1  0.161200  0.866280  0.668660  1
  N  N1207  1  0.161200  0.366280  0.831340  1
  N  N1208  1  0.838800  0.133720  0.331340  1
  N  N1209  1  0.847400  0.926980  0.177840  1
  N  N1210  1  0.152600  0.573020  0.677840  1
  N  N1211  1  0.152600  0.073020  0.822160  1
  N  N1212  1  0.847400  0.426980  0.322160  1
  N  N1213  1  0.779000  0.990780  0.143950  1
  N  N1214  1  0.221000  0.509220  0.643950  1
  N  N1215  1  0.221000  0.009220  0.856050  1
  N  N1216  1  0.779000  0.490780  0.356050  1
  N  N1217  1  0.557700  0.114810  0.095500  1
  N  N1218  1  0.442300  0.385190  0.595500  1
  N  N1219  1  0.442300  0.885190  0.904500  1
  N  N1220  1  0.557700  0.614810  0.404500  1
  N  N1221  1  0.660900  0.204160  0.075740  1
  N  N1222  1  0.339100  0.295840  0.575740  1
  N  N1223  1  0.339100  0.795840  0.924260  1
  N  N1224  1  0.660900  0.704160  0.424260  1
  N  N1225  1  0.354900  0.041280  0.458490  1
  N  N1226  1  0.645100  0.458720  0.958490  1
  N  N1227  1  0.645100  0.958720  0.541510  1
  N  N1228  1  0.354900  0.541280  0.041510  1
  N  N1229  1  0.377700  0.118220  0.508120  1
  N  N1230  1  0.622300  0.381780  0.008120  1
  N  N1231  1  0.622300  0.881780  0.491880  1
  N  N1232  1  0.377700  0.618220  0.991880  1
  N  N1233  1  0.212400  0.342200  0.286190  1
  N  N1234  1  0.787600  0.157800  0.786190  1
  N  N1235  1  0.787600  0.657800  0.713810  1
  N  N1236  1  0.212400  0.842200  0.213810  1
  N  N1237  1  0.234300  0.346270  0.217100  1
  N  N1238  1  0.765700  0.153730  0.717100  1
  N  N1239  1  0.765700  0.653730  0.782900  1
  N  N1240  1  0.234300  0.846270  0.282900  1
  N  N1241  1  0.306100  0.233430  0.298290  1
  N  N1242  1  0.693900  0.266570  0.798290  1
  N  N1243  1  0.693900  0.766570  0.701710  1
  N  N1244  1  0.306100  0.733430  0.201710  1
  N  N1245  1  0.394800  0.262110  0.244310  1
  N  N1246  1  0.605200  0.237890  0.744310  1
  N  N1247  1  0.605200  0.737890  0.755690  1
  N  N1248  1  0.394800  0.762110  0.255690  1
  N  N1249  1  0.741600  0.336830  0.064390  1
  N  N1250  1  0.258400  0.163170  0.564390  1
  N  N1251  1  0.258400  0.663170  0.935610  1
  N  N1252  1  0.741600  0.836830  0.435610  1
  N  N1253  1  0.851900  0.138900  0.032100  1
  N  N1254  1  0.148100  0.361100  0.532100  1
  N  N1255  1  0.148100  0.861100  0.967900  1
  N  N1256  1  0.851900  0.638900  0.467900  1
  N  N1257  1  0.927700  0.805200  0.262450  1
  N  N1258  1  0.072300  0.694800  0.762450  1
  N  N1259  1  0.072300  0.194800  0.737550  1
  N  N1260  1  0.927700  0.305200  0.237550  1
  N  N1261  1  0.996600  0.457300  0.431870  1
  N  N1262  1  0.003400  0.042700  0.931870  1
  N  N1263  1  0.003400  0.542700  0.568130  1
  N  N1264  1  0.996600  0.957300  0.068130  1
  N  N1265  1  0.161700  0.477100  0.016350  1
  N  N1266  1  0.838300  0.022900  0.516350  1
  N  N1267  1  0.838300  0.522900  0.983650  1
  N  N1268  1  0.161700  0.977100  0.483650  1
  N  N1269  1  0.045700  0.703700  0.100530  1
  N  N1270  1  0.954300  0.796300  0.600530  1
  N  N1271  1  0.954300  0.296300  0.899470  1
  N  N1272  1  0.045700  0.203700  0.399470  1
  N  N1273  1  0.910900  0.516700  0.182300  1
  N  N1274  1  0.089100  0.983300  0.682300  1
  N  N1275  1  0.089100  0.483300  0.817700  1
  N  N1276  1  0.910900  0.016700  0.317700  1
  N  N1277  1  0.552100  0.982100  0.083100  1
  N  N1278  1  0.447900  0.517900  0.583100  1
  N  N1279  1  0.447900  0.017900  0.916900  1
  N  N1280  1  0.552100  0.482100  0.416900  1
  N  N1281  1  0.566300  0.691700  0.159800  1
  N  N1282  1  0.433700  0.808300  0.659800  1
  N  N1283  1  0.433700  0.308300  0.840200  1
  N  N1284  1  0.566300  0.191700  0.340200  1
  N  N1285  1  0.485400  0.500300  0.088420  1
  N  N1286  1  0.514600  0.999700  0.588420  1
  N  N1287  1  0.514600  0.499700  0.911580  1
  N  N1288  1  0.485400  0.000300  0.411580  1
  N  N1289  1  0.397500  0.632300  0.453000  1
  N  N1290  1  0.602500  0.867700  0.953000  1
  N  N1291  1  0.602500  0.367700  0.547000  1
  N  N1292  1  0.397500  0.132300  0.047000  1
  N  N1293  1  0.705400  0.591700  0.331820  1
  N  N1294  1  0.294600  0.908300  0.831820  1
  N  N1295  1  0.294600  0.408300  0.668180  1
  N  N1296  1  0.705400  0.091700  0.168180  1
  O  O1297  1  0.363200  0.383730  0.296300  1
  O  O1298  1  0.636800  0.116270  0.796300  1
  O  O1299  1  0.636800  0.616270  0.703700  1
  O  O1300  1  0.363200  0.883730  0.203700  1
  O  O1301  1  0.384500  0.389400  0.229610  1
  O  O1302  1  0.615500  0.110600  0.729610  1
  O  O1303  1  0.615500  0.610600  0.770390  1
  O  O1304  1  0.384500  0.889400  0.270390  1
  O  O1305  1  0.189800  0.200280  0.250340  1
  O  O1306  1  0.810200  0.299720  0.750340  1
  O  O1307  1  0.810200  0.799720  0.749660  1
  O  O1308  1  0.189800  0.700280  0.249660  1
  O  O1309  1  0.276450  0.226780  0.197990  1
  O  O1310  1  0.723550  0.273220  0.697990  1
  O  O1311  1  0.723550  0.773220  0.802010  1
  O  O1312  1  0.276450  0.726780  0.302010  1
  O  O1313  1  0.684120  0.310110  0.047170  1
  O  O1314  1  0.315880  0.189890  0.547170  1
  O  O1315  1  0.315880  0.689890  0.952830  1
  O  O1316  1  0.684120  0.810110  0.452830  1
  O  O1317  1  0.757500  0.384770  0.064370  1
  O  O1318  1  0.242500  0.115230  0.564370  1
  O  O1319  1  0.242500  0.615230  0.935630  1
  O  O1320  1  0.757500  0.884770  0.435630  1
  O  O1321  1  0.781000  0.314490  0.080440  1
  O  O1322  1  0.219000  0.185510  0.580440  1
  O  O1323  1  0.219000  0.685510  0.919560  1
  O  O1324  1  0.781000  0.814490  0.419560  1
  O  O1325  1  0.788000  0.111000  0.040080  1
  O  O1326  1  0.212000  0.389000  0.540080  1
  O  O1327  1  0.212000  0.889000  0.959920  1
  O  O1328  1  0.788000  0.611000  0.459920  1
  O  O1329  1  0.872200  0.186400  0.038300  1
  O  O1330  1  0.127800  0.313600  0.538300  1
  O  O1331  1  0.127800  0.813600  0.961700  1
  O  O1332  1  0.872200  0.686400  0.461700  1
  O  O1333  1  0.897000  0.118770  0.018230  1
  O  O1334  1  0.103000  0.381230  0.518230  1
  O  O1335  1  0.103000  0.881230  0.981770  1
  O  O1336  1  0.897000  0.618770  0.481770  1
  O  O1337  1  0.961000  0.772500  0.257760  1
  O  O1338  1  0.039000  0.727500  0.757760  1
  O  O1339  1  0.039000  0.227500  0.742240  1
  O  O1340  1  0.961000  0.272500  0.242240  1
  O  O1341  1  0.857900  0.791500  0.266940  1
  O  O1342  1  0.142100  0.708500  0.766940  1
  O  O1343  1  0.142100  0.208500  0.733060  1
  O  O1344  1  0.857900  0.291500  0.233060  1
  O  O1345  1  0.962300  0.853300  0.264050  1
  O  O1346  1  0.037700  0.646700  0.764050  1
  O  O1347  1  0.037700  0.146700  0.735950  1
  O  O1348  1  0.962300  0.353300  0.235950  1
  O  O1349  1  0.048100  0.482150  0.411630  1
  O  O1350  1  0.951900  0.017850  0.911630  1
  O  O1351  1  0.951900  0.517850  0.588370  1
  O  O1352  1  0.048100  0.982150  0.088370  1
  O  O1353  1  0.936000  0.430470  0.418710  1
  O  O1354  1  0.064000  0.069530  0.918710  1
  O  O1355  1  0.064000  0.569530  0.581290  1
  O  O1356  1  0.936000  0.930470  0.081290  1
  O  O1357  1  0.005000  0.457400  0.466020  1
  O  O1358  1  0.995000  0.042600  0.966020  1
  O  O1359  1  0.995000  0.542600  0.533980  1
  O  O1360  1  0.005000  0.957400  0.033980  1
  O  O1361  1  0.211800  0.474600  0.996000  1
  O  O1362  1  0.788200  0.025400  0.496000  1
  O  O1363  1  0.788200  0.525400  0.004000  1
  O  O1364  1  0.211800  0.974600  0.504000  1
  O  O1365  1  0.174300  0.509540  0.041460  1
  O  O1366  1  0.825700  0.990460  0.541460  1
  O  O1367  1  0.825700  0.490460  0.958540  1
  O  O1368  1  0.174300  0.009540  0.458540  1
  O  O1369  1  0.098000  0.449230  0.010380  1
  O  O1370  1  0.902000  0.050770  0.510380  1
  O  O1371  1  0.902000  0.550770  0.989620  1
  O  O1372  1  0.098000  0.949230  0.489620  1
  O  O1373  1  0.088200  0.679900  0.089490  1
  O  O1374  1  0.911800  0.820100  0.589490  1
  O  O1375  1  0.911800  0.320100  0.910510  1
  O  O1376  1  0.088200  0.179900  0.410510  1
  O  O1377  1  0.010100  0.689000  0.128450  1
  O  O1378  1  0.989900  0.811000  0.628450  1
  O  O1379  1  0.989900  0.311000  0.871550  1
  O  O1380  1  0.010100  0.189000  0.371550  1
  O  O1381  1  0.042000  0.743720  0.083960  1
  O  O1382  1  0.958000  0.756280  0.583960  1
  O  O1383  1  0.958000  0.256280  0.916040  1
  O  O1384  1  0.042000  0.243720  0.416040  1
  O  O1385  1  0.947500  0.487800  0.176000  1
  O  O1386  1  0.052500  0.012200  0.676000  1
  O  O1387  1  0.052500  0.512200  0.824000  1
  O  O1388  1  0.947500  0.987800  0.324000  1
  O  O1389  1  0.864800  0.506200  0.205640  1
  O  O1390  1  0.135200  0.993800  0.705640  1
  O  O1391  1  0.135200  0.493800  0.794360  1
  O  O1392  1  0.864800  0.006200  0.294360  1
  O  O1393  1  0.924900  0.559200  0.170400  1
  O  O1394  1  0.075100  0.940800  0.670400  1
  O  O1395  1  0.075100  0.440800  0.829600  1
  O  O1396  1  0.924900  0.059200  0.329600  1
  O  O1397  1  0.494800  0.993100  0.093600  1
  O  O1398  1  0.505200  0.506900  0.593600  1
  O  O1399  1  0.505200  0.006900  0.906400  1
  O  O1400  1  0.494800  0.493100  0.406400  1
  O  O1401  1  0.603400  0.989500  0.105800  1
  O  O1402  1  0.396600  0.510500  0.605800  1
  O  O1403  1  0.396600  0.010500  0.894200  1
  O  O1404  1  0.603400  0.489500  0.394200  1
  O  O1405  1  0.568700  0.966700  0.055000  1
  O  O1406  1  0.431300  0.533300  0.555000  1
  O  O1407  1  0.431300  0.033300  0.945000  1
  O  O1408  1  0.568700  0.466700  0.445000  1
  O  O1409  1  0.541100  0.670100  0.131000  1
  O  O1410  1  0.458900  0.829900  0.631000  1
  O  O1411  1  0.458900  0.329900  0.869000  1
  O  O1412  1  0.541100  0.170100  0.369000  1
  O  O1413  1  0.633700  0.718800  0.158060  1
  O  O1414  1  0.366300  0.781200  0.658060  1
  O  O1415  1  0.366300  0.281200  0.841940  1
  O  O1416  1  0.633700  0.218800  0.341940  1
  O  O1417  1  0.532900  0.682100  0.189800  1
  O  O1418  1  0.467100  0.817900  0.689800  1
  O  O1419  1  0.467100  0.317900  0.810200  1
  O  O1420  1  0.532900  0.182100  0.310200  1
  O  O1421  1  0.493900  0.548400  0.087230  1
  O  O1422  1  0.506100  0.951600  0.587230  1
  O  O1423  1  0.506100  0.451600  0.912770  1
  O  O1424  1  0.493900  0.048400  0.412770  1
  O  O1425  1  0.421200  0.473500  0.095310  1
  O  O1426  1  0.578800  0.026500  0.595310  1
  O  O1427  1  0.578800  0.526500  0.904690  1
  O  O1428  1  0.421200  0.973500  0.404690  1
  O  O1429  1  0.536100  0.483600  0.085500  1
  O  O1430  1  0.463900  0.016400  0.585500  1
  O  O1431  1  0.463900  0.516400  0.914500  1
  O  O1432  1  0.536100  0.983600  0.414500  1
  O  O1433  1  0.343300  0.648000  0.449400  1
  O  O1434  1  0.656700  0.852000  0.949400  1
  O  O1435  1  0.656700  0.352000  0.550600  1
  O  O1436  1  0.343300  0.148000  0.050600  1
  O  O1437  1  0.452700  0.662800  0.468500  1
  O  O1438  1  0.547300  0.837200  0.968500  1
  O  O1439  1  0.547300  0.337200  0.531500  1
  O  O1440  1  0.452700  0.162800  0.031500  1
  O  O1441  1  0.402700  0.594400  0.439210  1
  O  O1442  1  0.597300  0.905600  0.939210  1
  O  O1443  1  0.597300  0.405600  0.560790  1
  O  O1444  1  0.402700  0.094400  0.060790  1
  O  O1445  1  0.671700  0.624200  0.325960  1
  O  O1446  1  0.328300  0.875800  0.825960  1
  O  O1447  1  0.328300  0.375800  0.674040  1
  O  O1448  1  0.671700  0.124200  0.174040  1
  O  O1449  1  0.752300  0.597000  0.356900  1
  O  O1450  1  0.247700  0.903000  0.856900  1
  O  O1451  1  0.247700  0.403000  0.643100  1
  O  O1452  1  0.752300  0.097000  0.143100  1
  O  O1453  1  0.688900  0.551500  0.314410  1
  O  O1454  1  0.311100  0.948500  0.814410  1
  O  O1455  1  0.311100  0.448500  0.685590  1
  O  O1456  1  0.688900  0.051500  0.185590  1
  O  O1457  1  0.134400  0.124040  0.112140  1
  O  O1458  1  0.865600  0.375960  0.612140  1
  O  O1459  1  0.865600  0.875960  0.887860  1
  O  O1460  1  0.134400  0.624040  0.387860  1
  O  O1461  1  0.458900  0.839170  0.491600  1
  O  O1462  1  0.541100  0.660830  0.991600  1
  O  O1463  1  0.541100  0.160830  0.508400  1
  O  O1464  1  0.458900  0.339170  0.008400  1
  O  O1465  1  0.126400  0.183300  0.174790  1
  O  O1466  1  0.873600  0.316700  0.674790  1
  O  O1467  1  0.873600  0.816700  0.825210  1
  O  O1468  1  0.126400  0.683300  0.325210  1
  O  O1469  1  0.785600  0.685100  0.272800  1
  O  O1470  1  0.214400  0.814900  0.772800  1
  O  O1471  1  0.214400  0.314900  0.727200  1
  O  O1472  1  0.785600  0.185100  0.227200  1
  O  O1473  1  0.911500  0.806820  0.470120  1
  O  O1474  1  0.088500  0.693180  0.970120  1
  O  O1475  1  0.088500  0.193180  0.529880  1
  O  O1476  1  0.911500  0.306820  0.029880  1
  O  O1477  1  0.842000  0.405470  0.241530  1
  O  O1478  1  0.158000  0.094530  0.741530  1
  O  O1479  1  0.158000  0.594530  0.758470  1
  O  O1480  1  0.842000  0.905470  0.258470  1
  O  O1481  1  0.879600  0.334050  0.450680  1
  O  O1482  1  0.120400  0.165950  0.950680  1
  O  O1483  1  0.120400  0.665950  0.549320  1
  O  O1484  1  0.879600  0.834050  0.049320  1
  O  O1485  1  0.924900  0.780590  0.106880  1
  O  O1486  1  0.075100  0.719410  0.606880  1
  O  O1487  1  0.075100  0.219410  0.893120  1
  O  O1488  1  0.924900  0.280590  0.393120  1
  O  O1489  1  0.145400  0.704600  0.436580  1
  O  O1490  1  0.854600  0.795400  0.936580  1
  O  O1491  1  0.854600  0.295400  0.563420  1
  O  O1492  1  0.145400  0.204600  0.063420  1
  O  O1493  1  0.039500  0.189100  0.007810  1
  O  O1494  1  0.960500  0.310900  0.507810  1
  O  O1495  1  0.960500  0.810900  0.992190  1
  O  O1496  1  0.039500  0.689100  0.492190  1
  O  O1497  1  0.520200  0.441600  0.271400  1
  O  O1498  1  0.479800  0.058400  0.771400  1
  O  O1499  1  0.479800  0.558400  0.728600  1
  O  O1500  1  0.520200  0.941600  0.228600  1
  O  O1501  1  0.985300  0.719500  0.014140  1
  O  O1502  1  0.014700  0.780500  0.514140  1
  O  O1503  1  0.014700  0.280500  0.985860  1
  O  O1504  1  0.985300  0.219500  0.485860  1
  O  O1505  1  0.607300  0.620200  0.046200  1
  O  O1506  1  0.392700  0.879800  0.546200  1
  O  O1507  1  0.392700  0.379800  0.953800  1
  O  O1508  1  0.607300  0.120200  0.453800  1
  O  O1509  1  0.955300  0.378700  0.355480  1
  O  O1510  1  0.044700  0.121300  0.855480  1
  O  O1511  1  0.044700  0.621300  0.644520  1
  O  O1512  1  0.955300  0.878700  0.144520  1
  O  O1513  1  0.277000  0.706600  0.549800  1
  O  O1514  1  0.723000  0.793400  0.049800  1
  O  O1515  1  0.723000  0.293400  0.450200  1
  O  O1516  1  0.277000  0.206600  0.950200  1
  O  O1517  1  0.355100  0.741300  0.486280  1
  O  O1518  1  0.644900  0.758700  0.986280  1
  O  O1519  1  0.644900  0.258700  0.513720  1
  O  O1520  1  0.355100  0.241300  0.013720  1
  O  O1521  1  0.692100  0.700800  0.088820  1
  O  O1522  1  0.307900  0.799200  0.588820  1
  O  O1523  1  0.307900  0.299200  0.911180  1
  O  O1524  1  0.692100  0.200800  0.411180  1
  O  O1525  1  0.698100  0.829700  0.246670  1
  O  O1526  1  0.301900  0.670300  0.746670  1
  O  O1527  1  0.301900  0.170300  0.753330  1
  O  O1528  1  0.698100  0.329700  0.253330  1
  O  O1529  1  0.416000  0.365800  0.076250  1
  O  O1530  1  0.584000  0.134200  0.576250  1
  O  O1531  1  0.584000  0.634200  0.923750  1
  O  O1532  1  0.416000  0.865800  0.423750  1
  O  O1533  1  0.271900  0.794300  0.448320  1
  O  O1534  1  0.728100  0.705700  0.948320  1
  O  O1535  1  0.728100  0.205700  0.551680  1
  O  O1536  1  0.271900  0.294300  0.051680  1
  O  O1537  1  0.609000  0.379100  0.288600  1
  O  O1538  1  0.391000  0.120900  0.788600  1
  O  O1539  1  0.391000  0.620900  0.711400  1
  O  O1540  1  0.609000  0.879100  0.211400  1
  O  O1541  1  0.278300  0.429200  0.067200  1
  O  O1542  1  0.721700  0.070800  0.567200  1
  O  O1543  1  0.721700  0.570800  0.932800  1
  O  O1544  1  0.278300  0.929200  0.432800  1
  O  O1545  1  0.633600  0.222500  0.253410  1
  O  O1546  1  0.366400  0.277500  0.753410  1
  O  O1547  1  0.366400  0.777500  0.746590  1
  O  O1548  1  0.633600  0.722500  0.246590  1
  O  O1549  1  0.269500  0.869300  0.496960  1
  O  O1550  1  0.730500  0.630700  0.996960  1
  O  O1551  1  0.730500  0.130700  0.503040  1
  O  O1552  1  0.269500  0.369300  0.003040  1
  O  O1553  1  0.793300  0.191590  0.106140  1
  O  O1554  1  0.206700  0.308410  0.606140  1
  O  O1555  1  0.206700  0.808410  0.893860  1
  O  O1556  1  0.793300  0.691590  0.393860  1
  O  O1557  1  0.828800  0.679050  0.095080  1
  O  O1558  1  0.171200  0.820950  0.595080  1
  O  O1559  1  0.171200  0.320950  0.904920  1
  O  O1560  1  0.828800  0.179050  0.404920  1
  O  O1561  1  0.042500  0.416210  0.293190  1
  O  O1562  1  0.957500  0.083790  0.793190  1
  O  O1563  1  0.957500  0.583790  0.706810  1
  O  O1564  1  0.042500  0.916210  0.206810  1
  O  O1565  1  0.636000  0.853300  0.081800  1
  O  O1566  1  0.364000  0.646700  0.581800  1
  O  O1567  1  0.364000  0.146700  0.918200  1
  O  O1568  1  0.636000  0.353300  0.418200  1
  O  O1569  1  0.059300  0.584540  0.130250  1
  O  O1570  1  0.940700  0.915460  0.630250  1
  O  O1571  1  0.940700  0.415460  0.869750  1
  O  O1572  1  0.059300  0.084540  0.369750  1
  O  O1573  1  0.523700  0.374400  0.462800  1
  O  O1574  1  0.476300  0.125600  0.962800  1
  O  O1575  1  0.476300  0.625600  0.537200  1
  O  O1576  1  0.523700  0.874400  0.037200  1
  O  O1577  1  0.574100  0.316800  0.350900  1
  O  O1578  1  0.425900  0.183200  0.850900  1
  O  O1579  1  0.425900  0.683200  0.649100  1
  O  O1580  1  0.574100  0.816800  0.149100  1
  O  O1581  1  0.863200  0.636100  0.030890  1
  O  O1582  1  0.136800  0.863900  0.530890  1
  O  O1583  1  0.136800  0.363900  0.969110  1
  O  O1584  1  0.863200  0.136100  0.469110  1
  O  O1585  1  0.534200  0.525800  0.334700  1
  O  O1586  1  0.465800  0.974200  0.834700  1
  O  O1587  1  0.465800  0.474200  0.665300  1
  O  O1588  1  0.534200  0.025800  0.165300  1
  O  O1589  1  0.245400  0.484600  0.563600  1
  O  O1590  1  0.754600  0.015400  0.063600  1
  O  O1591  1  0.754600  0.515400  0.436400  1
  O  O1592  1  0.245400  0.984600  0.936400  1
  O  O1593  1  0.726900  0.981400  0.067300  1
  O  O1594  1  0.273100  0.518600  0.567300  1
  O  O1595  1  0.273100  0.018600  0.932700  1
  O  O1596  1  0.726900  0.481400  0.432700  1
