
#######################################################################
#
#                 Cambridge Crystallographic Data Centre
#                                CCDC 
#
#######################################################################
#
# If this CIF has been generated from an entry in the Cambridge 
# Structural Database, then it will include bibliographic, chemical, 
# crystal, experimental, refinement or atomic coordinate data resulting 
# from the CCDC's data processing and validation procedures.
#
#######################################################################

data_PUSWIK
_chemical_formula_moiety         'C40 H24 N4 Ni2 O6,4(C2 H6 O1 S1)'
_chemical_name_systematic        
'(\m~2~-2,23-Dioxa-9,16,30,37-tetraazaheptacyclo[37.3.1.1^3,7^.1^18,22^.1^24,28^.0^10,15^.0^31,36^]hexatetraconta-1(43),3(46),4,6,8,10,12,14,16,18(45),19,21,24(44),25,27,29,31,33,35,37,39,41-docosaene-43,44,45,46-tetrolato)-di-nickel(ii) dimethyl sulfoxide solvate'
_symmetry_cell_setting           triclinic
_symmetry_space_group_name_H-M   'P -1'
_symmetry_Int_Tables_number      2
_space_group_name_Hall           '-P 1'
loop_
_symmetry_equiv_pos_site_id
_symmetry_equiv_pos_as_xyz
1 x,y,z
2 -x,-y,-z
_cell_length_a                   11.2439(8)
_cell_length_b                   11.7378(8)
_cell_length_c                   11.7488(9)
_cell_angle_alpha                63.3210(18)
_cell_angle_beta                 66.059(2)
_cell_angle_gamma                60.3036(16)
_cell_volume                     1169.47
_exptl_crystal_colour            'dark red'
_exptl_crystal_description       prismatic
_cell_formula_units_Z            1
loop_
_atom_site_label
_atom_site_type_symbol
_atom_site_fract_x
_atom_site_fract_y
_atom_site_fract_z
Ni1 Ni 0.16181(3) 0.49074(3) 0.70479(3)
C1 C 0.3478(3) 0.7364(3) 0.6676(3)
C2 C 0.2466(3) 0.6764(3) 0.7109(3)
C3 C 0.1083(3) 0.7502(3) 0.7745(3)
C4 C 0.0731(3) 0.8792(3) 0.7854(3)
H1 H -0.0187 0.9247 0.8313
C5 C 0.1692(3) 0.9386(3) 0.7308(3)
H2 H 0.1431 1.0279 0.7333
C6 C 0.3074(3) 0.8666(3) 0.6707(3)
H3 H 0.3743 0.9086 0.6314
O1 O 0.28403(18) 0.56301(19) 0.68849(18)
C7 C 0.0014(3) 0.6960(3) 0.8296(3)
H4 H -0.0854 0.7433 0.8801
N1 N 0.0135(2) 0.5864(2) 0.8159(2)
C8 C -0.1001(3) 0.5403(3) 0.8757(3)
C9 C -0.2191(3) 0.5845(3) 0.9714(3)
H5 H -0.2301 0.6500 1.0050
C10 C -0.3212(3) 0.5306(3) 1.0166(3)
H6 H -0.4036 0.5604 1.0811
C11 C -0.3047(3) 0.4338(3) 0.9689(3)
H7 H -0.3758 0.3979 1.0016
C12 C -0.1862(3) 0.3884(3) 0.8742(3)
H8 H -0.1750 0.3215 0.8422
C13 C -0.0837(3) 0.4433(3) 0.8270(3)
N2 N 0.0406(2) 0.4147(2) 0.7260(2)
C14 C 0.0548(3) 0.3510(3) 0.6519(3)
H9 H -0.0181 0.3217 0.6709
C15 C 0.1714(3) 0.3221(3) 0.5446(3)
C16 C 0.2912(3) 0.3501(3) 0.5173(3)
C17 C 0.4028(3) 0.3142(3) 0.4088(3)
C18 C 0.3883(3) 0.2685(3) 0.3278(3)
H10 H 0.4601 0.2553 0.2508
C19 C 0.2696(3) 0.2411(3) 0.3570(3)
H11 H 0.2625 0.2063 0.3019
C20 C 0.1640(3) 0.2646(3) 0.4652(3)
H12 H 0.0852 0.2424 0.4874
O2 O 0.30466(19) 0.4043(2) 0.58465(19)
O3 O 0.5178(2) 0.3426(2) 0.3866(2)
Ni1A Ni 0.83819(3) 0.50926(3) 0.29521(3)
C1A C 0.6522(3) 0.2636(3) 0.3324(3)
C2A C 0.7534(3) 0.3236(3) 0.2891(3)
C3A C 0.8917(3) 0.2498(3) 0.2255(3)
C4A C 0.9269(3) 0.1208(3) 0.2146(3)
H1A H 1.0187 0.0753 0.1687
C5A C 0.8308(3) 0.0614(3) 0.2692(3)
H2A H 0.8569 -0.0279 0.2667
C6A C 0.6926(3) 0.1334(3) 0.3293(3)
H3A H 0.6257 0.0914 0.3686
O1A O 0.71597(18) 0.43699(19) 0.31151(18)
C7A C 0.9986(3) 0.3040(3) 0.1704(3)
H4A H 1.0854 0.2567 0.1199
N1A N 0.9865(2) 0.4136(2) 0.1841(2)
C8A C 1.1001(3) 0.4597(3) 0.1243(3)
C9A C 1.2191(3) 0.4155(3) 0.0286(3)
H5A H 1.2301 0.3500 -0.0050
C10A C 1.3212(3) 0.4694(3) -0.0166(3)
H6A H 1.4036 0.4396 -0.0811
C11A C 1.3047(3) 0.5662(3) 0.0311(3)
H7A H 1.3758 0.6021 -0.0016
C12A C 1.1862(3) 0.6116(3) 0.1258(3)
H8A H 1.1750 0.6785 0.1578
C13A C 1.0837(3) 0.5567(3) 0.1730(3)
N2A N 0.9594(2) 0.5853(2) 0.2740(2)
C14A C 0.9452(3) 0.6490(3) 0.3481(3)
H9A H 1.0181 0.6783 0.3291
C15A C 0.8286(3) 0.6779(3) 0.4554(3)
C16A C 0.7088(3) 0.6499(3) 0.4827(3)
C17A C 0.5972(3) 0.6858(3) 0.5912(3)
C18A C 0.6117(3) 0.7315(3) 0.6722(3)
H10A H 0.5399 0.7447 0.7492
C19A C 0.7304(3) 0.7589(3) 0.6430(3)
H11A H 0.7375 0.7937 0.6981
C20A C 0.8360(3) 0.7354(3) 0.5348(3)
H12A H 0.9148 0.7576 0.5126
O2A O 0.69534(19) 0.5957(2) 0.41535(19)
O3A O 0.4822(2) 0.6574(2) 0.6134(2)
S1 S 0.79738(7) 0.22851(7) 0.59828(7)
O4 O 0.8515(2) 0.2058(2) 0.7081(2)
C21 C 0.6114(3) 0.3232(3) 0.6381(3)
H13 H 0.5701 0.2741 0.7263
H14 H 0.5691 0.3322 0.5745
H15 H 0.5929 0.4152 0.6351
C22 C 0.7961(3) 0.0654(3) 0.6266(3)
H16 H 0.8931 -0.0001 0.6063
H17 H 0.7432 0.0778 0.5703
H18 H 0.7514 0.0295 0.7188
S2 S 0.28393(8) 0.06217(8) 0.93032(9)
O5 O 0.2977(3) 0.1065(2) 1.0245(3)
C23 C 0.4268(4) 0.0750(4) 0.7906(3)
H19 H 0.4129 0.1724 0.7444
H20 H 0.4307 0.0343 0.7317
H21 H 0.5153 0.0254 0.8189
C24 C 0.3490(5) -0.1213(4) 0.9905(4)
H22 H 0.4465 -0.1578 0.9965
H23 H 0.3459 -0.1563 0.9305
H24 H 0.2905 -0.1509 1.0775
loop_
_geom_bond_atom_site_label_1
_geom_bond_atom_site_label_2
_geom_bond_site_symmetry_1
_geom_bond_site_symmetry_2
Ni1 O1 1_555 1_555
C1 C2 1_555 1_555
C2 C3 1_555 1_555
C3 C4 1_555 1_555
C4 H1 1_555 1_555
C5 C4 1_555 1_555
H2 C5 1_555 1_555
C6 C1 1_555 1_555
H3 C6 1_555 1_555
O1 C2 1_555 1_555
C7 C3 1_555 1_555
H4 C7 1_555 1_555
N1 Ni1 1_555 1_555
C8 N1 1_555 1_555
C9 C8 1_555 1_555
H5 C9 1_555 1_555
C10 C9 1_555 1_555
H6 C10 1_555 1_555
C11 C10 1_555 1_555
H7 C11 1_555 1_555
C12 C11 1_555 1_555
H8 C12 1_555 1_555
C13 C8 1_555 1_555
N2 Ni1 1_555 1_555
C14 N2 1_555 1_555
H9 C14 1_555 1_555
C15 C14 1_555 1_555
C16 C15 1_555 1_555
C17 C16 1_555 1_555
C18 C17 1_555 1_555
H10 C18 1_555 1_555
C19 C18 1_555 1_555
H11 C19 1_555 1_555
C20 C15 1_555 1_555
H12 C20 1_555 1_555
O2 Ni1 1_555 1_555
O3 C17 1_555 1_555
S1 O4 1_555 1_555
C21 S1 1_555 1_555
H13 C21 1_555 1_555
H14 C21 1_555 1_555
H15 C21 1_555 1_555
C22 S1 1_555 1_555
H16 C22 1_555 1_555
H17 C22 1_555 1_555
H18 C22 1_555 1_555
S2 O5 1_555 1_555
C23 S2 1_555 1_555
H19 C23 1_555 1_555
H20 C23 1_555 1_555
H21 C23 1_555 1_555
C24 S2 1_555 1_555
H22 C24 1_555 1_555
H23 C24 1_555 1_555
H24 C24 1_555 1_555
Ni1A O1A 1_555 1_555
C1A O3 1_555 1_555
C2A C1A 1_555 1_555
C3A C2A 1_555 1_555
C4A C3A 1_555 1_555
H1A C4A 1_555 1_555
C5A C4A 1_555 1_555
H2A C5A 1_555 1_555
C6A C1A 1_555 1_555
H3A C6A 1_555 1_555
O1A C2A 1_555 1_555
C7A C3A 1_555 1_555
H4A C7A 1_555 1_555
N1A Ni1A 1_555 1_555
C8A N1A 1_555 1_555
C9A C8A 1_555 1_555
H5A C9A 1_555 1_555
C10A C9A 1_555 1_555
H6A C10A 1_555 1_555
C11A C10A 1_555 1_555
H7A C11A 1_555 1_555
C12A C11A 1_555 1_555
H8A C12A 1_555 1_555
C13A C8A 1_555 1_555
N2A Ni1A 1_555 1_555
C14A N2A 1_555 1_555
H9A C14A 1_555 1_555
C15A C14A 1_555 1_555
C16A C15A 1_555 1_555
C17A C16A 1_555 1_555
C18A C17A 1_555 1_555
H10A C18A 1_555 1_555
C19A C18A 1_555 1_555
H11A C19A 1_555 1_555
C20A C15A 1_555 1_555
H12A C20A 1_555 1_555
O2A Ni1A 1_555 1_555
O3A C1 1_555 1_555
C5 C6 1_555 1_555
C7 N1 1_555 1_555
C12 C13 1_555 1_555
C13 N2 1_555 1_555
C16 O2 1_555 1_555
C19 C20 1_555 1_555
C5A C6A 1_555 1_555
C7A N1A 1_555 1_555
C12A C13A 1_555 1_555
C13A N2A 1_555 1_555
C16A O2A 1_555 1_555
C17A O3A 1_555 1_555
C19A C20A 1_555 1_555

#END
