
#######################################################################
#
#                 Cambridge Crystallographic Data Centre
#                                CCDC 
#
#######################################################################
#
# If this CIF has been generated from an entry in the Cambridge 
# Structural Database, then it will include bibliographic, chemical, 
# crystal, experimental, refinement or atomic coordinate data resulting 
# from the CCDC's data processing and validation procedures.
#
#######################################################################

data_PUXHIB
_chemical_formula_moiety         'C45 H33 N12 Pd3 3+,3(F6 P1 1-),C2 H3 N1'
_chemical_name_systematic        
'tris(\m-imidazolato)-tris(1,10-phenanthroline)-tri-palladium tris(hexafluorophosphate) acetonitrile solvate'
_symmetry_cell_setting           orthorhombic
_symmetry_space_group_name_H-M   'P n m a'
_symmetry_Int_Tables_number      62
_space_group_name_Hall           '-P 2ac 2n'
loop_
_symmetry_equiv_pos_site_id
_symmetry_equiv_pos_as_xyz
1 x,y,z
2 1/2-x,-y,1/2+z
3 1/2+x,1/2-y,1/2-z
4 -x,1/2+y,-z
5 -x,-y,-z
6 1/2+x,y,1/2-z
7 1/2-x,1/2+y,1/2+z
8 x,1/2-y,z
_cell_length_a                   27.4761(5)
_cell_length_b                   22.2198(4)
_cell_length_c                   8.8846(2)
_cell_angle_alpha                90
_cell_angle_beta                 90
_cell_angle_gamma                90
_cell_volume                     5424.17
_exptl_crystal_colour            colorless
_exptl_crystal_description       Rectangular
_cell_formula_units_Z            4
loop_
_atom_site_label
_atom_site_type_symbol
_atom_site_fract_x
_atom_site_fract_y
_atom_site_fract_z
C1 C 0.2745(2) 0.5052(3) 0.7873(7)
H1 H 0.2451 0.4848 0.7984
C2 C 0.2758(2) 0.5671(3) 0.8108(7)
H2 H 0.2478 0.5873 0.8408
C3 C 0.3173(2) 0.5978(2) 0.7905(7)
H3 H 0.3177 0.6392 0.8056
C4 C 0.3598(2) 0.5683(2) 0.7470(6)
C5 C 0.4060(2) 0.5964(2) 0.7249(6)
H4 H 0.4084 0.6380 0.7338
C6 C 0.4461(2) 0.5640(2) 0.6914(6)
H5 H 0.4757 0.5836 0.6783
C7 C 0.44367(19) 0.5002(2) 0.6760(6)
C8 C 0.48408(19) 0.4627(3) 0.6461(6)
H6 H 0.5151 0.4793 0.6381
C9 C 0.47762(19) 0.4030(3) 0.6293(6)
H7 H 0.5041 0.3782 0.6095
C10 C 0.43124(18) 0.3785(2) 0.6418(6)
H8 H 0.4274 0.3373 0.6273
C11 C 0.39845(18) 0.4716(2) 0.6914(5)
C12 C 0.35679(18) 0.5055(2) 0.7297(5)
C13 C 0.22512(17) 0.3275(2) 0.6722(6)
H9 H 0.2326 0.3156 0.5746
C14 C 0.18755(19) 0.3383(3) 0.8814(6)
H10 H 0.1644 0.3355 0.9574
C15 C 0.23026(19) 0.3689(3) 0.8897(6)
H11 H 0.2414 0.3909 0.9718
C16 C 0.3266(3) 0.2500 0.7252(8)
H12 H 0.3158 0.2500 0.8244
C17 C 0.35075(19) 0.2806(2) 0.5083(5)
H13 H 0.3597 0.3052 0.4283
C18 C 0.08679(19) 0.1306(2) 0.6100(6)
H14 H 0.1149 0.1113 0.6422
C19 C 0.0472(2) 0.0962(3) 0.5631(7)
H15 H 0.0491 0.0544 0.5643
C20 C 0.0059(2) 0.1238(3) 0.5159(7)
H16 H -0.0204 0.1008 0.4837
C21 C 0.00257(18) 0.1859(3) 0.5151(6)
C22 C 0.04377(16) 0.2178(2) 0.5619(5)
C23 C -0.03921(19) 0.2202(3) 0.4694(7)
H17 H -0.0671 0.2000 0.4389
N1 N 0.31415(14) 0.47459(17) 0.7494(5)
N2 N 0.39260(14) 0.41090(17) 0.6731(4)
N3 N 0.33522(14) 0.29965(16) 0.6465(4)
N4 N 0.25391(14) 0.36166(18) 0.7558(5)
N5 N 0.18446(13) 0.31227(18) 0.7432(5)
N6 N 0.08540(13) 0.19054(18) 0.6097(5)
Pd1 Pd 0.32282(2) 0.38528(2) 0.70703(4)
Pd2 Pd 0.13628(2) 0.2500 0.67681(6)
C17G C 0.35075(19) 0.2194(2) 0.5083(5)
H13G H 0.3597 0.1948 0.4283
N3G N 0.33522(14) 0.20035(16) 0.6465(4)
C18G C 0.08679(19) 0.3694(2) 0.6100(6)
H14G H 0.1149 0.3887 0.6422
C19G C 0.0472(2) 0.4038(3) 0.5631(7)
H15G H 0.0491 0.4456 0.5643
C20G C 0.0059(2) 0.3762(3) 0.5159(7)
H16G H -0.0204 0.3992 0.4837
C21G C 0.00257(18) 0.3141(3) 0.5151(6)
C22G C 0.04377(16) 0.2822(2) 0.5619(5)
C23G C -0.03921(19) 0.2798(3) 0.4694(7)
H17G H -0.0671 0.3000 0.4389
N6G N 0.08540(13) 0.30946(18) 0.6097(5)
C1G C 0.2745(2) -0.0052(3) 0.7873(7)
H1G H 0.2451 0.0152 0.7984
C2G C 0.2758(2) -0.0671(3) 0.8108(7)
H2G H 0.2478 -0.0873 0.8408
C3G C 0.3173(2) -0.0978(2) 0.7905(7)
H3G H 0.3177 -0.1392 0.8056
C4G C 0.3598(2) -0.0683(2) 0.7470(6)
C5G C 0.4060(2) -0.0964(2) 0.7249(6)
H4G H 0.4084 -0.1380 0.7338
C6G C 0.4461(2) -0.0640(2) 0.6914(6)
H5G H 0.4757 -0.0836 0.6783
C7G C 0.44367(19) -0.0002(2) 0.6760(6)
C8G C 0.48408(19) 0.0373(3) 0.6461(6)
H6G H 0.5151 0.0207 0.6381
C9G C 0.47762(19) 0.0970(3) 0.6293(6)
H7G H 0.5041 0.1218 0.6095
C10G C 0.43124(18) 0.1215(2) 0.6418(6)
H8G H 0.4274 0.1627 0.6273
C11G C 0.39845(18) 0.0284(2) 0.6914(5)
C12G C 0.35679(18) -0.0055(2) 0.7297(5)
C13G C 0.22512(17) 0.1725(2) 0.6722(6)
H9G H 0.2326 0.1844 0.5746
C14G C 0.18755(19) 0.1617(3) 0.8814(6)
H10G H 0.1644 0.1645 0.9574
C15G C 0.23026(19) 0.1311(3) 0.8897(6)
H11G H 0.2414 0.1091 0.9718
N1G N 0.31415(14) 0.02541(17) 0.7494(5)
N2G N 0.39260(14) 0.08910(17) 0.6731(4)
N4G N 0.25391(14) 0.13834(18) 0.7558(5)
N5G N 0.18446(13) 0.18773(18) 0.7432(5)
Pd1G Pd 0.32282(2) 0.11472(2) 0.70703(4)
C24 C 0.2523(5) 0.2500 0.2420(12)
C25 C 0.2919(6) 0.2500 0.1346(13)
N7 N 0.2225(4) 0.2500 0.3282(11)
F1 F 0.1678(5) 0.5946(6) 0.6196(10)
F2 F 0.15926(17) 0.5654(3) 0.8473(6)
F3 F 0.1001(4) 0.6091(5) 0.7457(11)
F4 F 0.0957(4) 0.5187(6) 0.7744(9)
F5 F 0.10139(18) 0.5507(3) 0.5484(6)
F6 F 0.1628(3) 0.5090(5) 0.6470(10)
P1 P 0.13057(5) 0.55824(8) 0.69586(19)
F7 F 0.5002(2) 0.7500 0.4062(7)
F8 F 0.49550(15) 0.80094(14) 0.6246(5)
F9 F 0.43253(12) 0.80087(15) 0.4661(4)
F10 F 0.4284(3) 0.7500 0.6859(7)
P2 P 0.46398(8) 0.7500 0.5468(2)
F8G F 0.49550(15) 0.69906(14) 0.6246(5)
F9G F 0.43253(12) 0.69913(15) 0.4661(4)
loop_
_geom_bond_atom_site_label_1
_geom_bond_atom_site_label_2
_geom_bond_site_symmetry_1
_geom_bond_site_symmetry_2
C1 H1 1_555 1_555
C2 C1 1_555 1_555
H2 C2 1_555 1_555
C3 C2 1_555 1_555
H3 C3 1_555 1_555
C4 C3 1_555 1_555
C5 C4 1_555 1_555
H4 C5 1_555 1_555
C6 C5 1_555 1_555
H5 C6 1_555 1_555
C7 C6 1_555 1_555
C8 C7 1_555 1_555
H6 C8 1_555 1_555
C9 C8 1_555 1_555
H7 C9 1_555 1_555
C10 C9 1_555 1_555
H8 C10 1_555 1_555
C11 C7 1_555 1_555
C12 C4 1_555 1_555
C13 H9 1_555 1_555
C14 H10 1_555 1_555
C15 C14 1_555 1_555
H11 C15 1_555 1_555
C16 H12 1_555 1_555
C17 H13 1_555 1_555
C18 H14 1_555 1_555
C19 C18 1_555 1_555
H15 C19 1_555 1_555
C20 C19 1_555 1_555
H16 C20 1_555 1_555
C21 C20 1_555 1_555
C22 C21 1_555 1_555
C23 C21 1_555 1_555
H17 C23 1_555 1_555
N1 C1 1_555 1_555
N2 C10 1_555 1_555
N3 C16 1_555 1_555
N4 C13 1_555 1_555
N5 C13 1_555 1_555
N6 C18 1_555 1_555
Pd1 N1 1_555 1_555
Pd2 N5 1_555 1_555
C24 C25 1_555 1_555
N7 C24 1_555 1_555
F1 P1 1_555 1_555
F2 P1 1_555 1_555
F3 P1 1_555 1_555
F4 P1 1_555 1_555
F5 P1 1_555 1_555
F6 P1 1_555 1_555
F7 P2 1_555 1_555
F8 P2 1_555 1_555
F9 P2 1_555 1_555
F10 P2 1_555 1_555
P2 F8G 1_555 1_555
C17G C17 1_555 1_555
H13G C17G 1_555 1_555
N3G C16 1_555 1_555
C18G H14G 1_555 1_555
C19G C18G 1_555 1_555
H15G C19G 1_555 1_555
C20G C19G 1_555 1_555
H16G C20G 1_555 1_555
C21G C20G 1_555 1_555
C22G C22 1_555 1_555
C23G C23 1_555 1_555
H17G C23G 1_555 1_555
N6G Pd2 1_555 1_555
C1G H1G 1_555 1_555
C2G C1G 1_555 1_555
H2G C2G 1_555 1_555
C3G C2G 1_555 1_555
H3G C3G 1_555 1_555
C4G C3G 1_555 1_555
C5G C4G 1_555 1_555
H4G C5G 1_555 1_555
C6G C5G 1_555 1_555
H5G C6G 1_555 1_555
C7G C6G 1_555 1_555
C8G C7G 1_555 1_555
H6G C8G 1_555 1_555
C9G C8G 1_555 1_555
H7G C9G 1_555 1_555
C10G C9G 1_555 1_555
H8G C10G 1_555 1_555
C11G C7G 1_555 1_555
C12G C4G 1_555 1_555
C13G H9G 1_555 1_555
C14G H10G 1_555 1_555
C15G C14G 1_555 1_555
H11G C15G 1_555 1_555
N1G C1G 1_555 1_555
N2G C10G 1_555 1_555
N4G C13G 1_555 1_555
N5G Pd2 1_555 1_555
Pd1G N3G 1_555 1_555
F9G P2 1_555 1_555
C11 C12 1_555 1_555
C11 N2 1_555 1_555
C12 N1 1_555 1_555
C14 N5 1_555 1_555
C15 N4 1_555 1_555
C17 N3 1_555 1_555
C22 N6 1_555 1_555
N2 Pd1 1_555 1_555
N3 Pd1 1_555 1_555
N4 Pd1 1_555 1_555
N6 Pd2 1_555 1_555
C17G N3G 1_555 1_555
C18G N6G 1_555 1_555
C21G C22G 1_555 1_555
C21G C23G 1_555 1_555
C22G N6G 1_555 1_555
C11G C12G 1_555 1_555
C11G N2G 1_555 1_555
C12G N1G 1_555 1_555
C13G N5G 1_555 1_555
C14G N5G 1_555 1_555
C15G N4G 1_555 1_555
N1G Pd1G 1_555 1_555
N2G Pd1G 1_555 1_555
N4G Pd1G 1_555 1_555

#END
