# generated using pymatgen
data_Zn4ReH108C128S8N32(O5F6)4
_symmetry_space_group_name_H-M   'P 1'
_cell_length_a   22.86600000
_cell_length_b   25.49500000
_cell_length_c   35.96600000
_cell_angle_alpha   88.15000000
_cell_angle_beta   84.81700000
_cell_angle_gamma   66.58000000
_symmetry_Int_Tables_number   1
_chemical_formula_structural   Zn4ReH108C128S8N32(O5F6)4
_chemical_formula_sum   'Zn16 Re4 H432 C512 S32 N128 O80 F96'
_cell_volume   19160.88336915
_cell_formula_units_Z   4
loop_
 _symmetry_equiv_pos_site_id
 _symmetry_equiv_pos_as_xyz
  1  'x, y, z'
loop_
 _atom_site_type_symbol
 _atom_site_label
 _atom_site_symmetry_multiplicity
 _atom_site_fract_x
 _atom_site_fract_y
 _atom_site_fract_z
 _atom_site_occupancy
  Zn  Zn1  1  0.829530  0.835310  0.156550  1
  Zn  Zn2  1  0.170470  0.164690  0.843450  1
  Zn  Zn3  1  0.320680  0.810200  0.159380  1
  Zn  Zn4  1  0.679320  0.189800  0.840620  1
  Zn  Zn5  1  0.794260  0.401200  0.105970  1
  Zn  Zn6  1  0.205740  0.598800  0.894030  1
  Zn  Zn7  1  0.646510  0.758260  0.879520  1
  Zn  Zn8  1  0.353490  0.241740  0.120480  1
  Zn  Zn9  1  0.361800  0.352600  0.614290  1
  Zn  Zn10  1  0.638200  0.647400  0.385710  1
  Zn  Zn11  1  0.166490  0.587110  0.340950  1
  Zn  Zn12  1  0.833510  0.412890  0.659050  1
  Zn  Zn13  1  0.652170  0.188440  0.325500  1
  Zn  Zn14  1  0.347830  0.811560  0.674500  1
  Zn  Zn15  1  0.173140  0.130440  0.402900  1
  Zn  Zn16  1  0.826860  0.869560  0.597100  1
  Re  Re17  1  0.644850  0.698480  0.077470  1
  Re  Re18  1  0.355150  0.301520  0.922530  1
  Re  Re19  1  0.342360  0.309450  0.419190  1
  Re  Re20  1  0.657640  0.690550  0.580810  1
  H  H21  1  0.875600  0.972700  0.208000  1
  H  H22  1  0.124400  0.027300  0.792000  1
  H  H23  1  0.858200  0.928400  0.234600  1
  H  H24  1  0.141800  0.071600  0.765400  1
  H  H25  1  0.766100  0.989300  0.206600  1
  H  H26  1  0.233900  0.010700  0.793400  1
  H  H27  1  0.802800  0.972100  0.165900  1
  H  H28  1  0.197200  0.027900  0.834100  1
  H  H29  1  0.708500  0.939500  0.228400  1
  H  H30  1  0.291500  0.060500  0.771600  1
  H  H31  1  0.630800  0.892000  0.243700  1
  H  H32  1  0.369200  0.108000  0.756300  1
  H  H33  1  0.602000  0.814400  0.238100  1
  H  H34  1  0.398000  0.185600  0.761900  1
  H  H35  1  0.757200  0.744900  0.164700  1
  H  H36  1  0.242800  0.255100  0.835300  1
  H  H37  1  0.564500  0.761100  0.198200  1
  H  H38  1  0.435500  0.238900  0.801800  1
  H  H39  1  0.628200  0.590500  0.179500  1
  H  H40  1  0.371800  0.409500  0.820500  1
  H  H41  1  0.754000  0.663000  0.187300  1
  H  H42  1  0.246000  0.337000  0.812700  1
  H  H43  1  0.481200  0.760700  0.170800  1
  H  H44  1  0.518800  0.239300  0.829200  1
  H  H45  1  0.534400  0.600800  0.209400  1
  H  H46  1  0.465600  0.399200  0.790600  1
  H  H47  1  0.429000  0.609900  0.209500  1
  H  H48  1  0.571000  0.390100  0.790500  1
  H  H49  1  0.313200  0.671400  0.195800  1
  H  H50  1  0.686800  0.328600  0.804200  1
  H  H51  1  0.208000  0.759700  0.150000  1
  H  H52  1  0.792000  0.240300  0.850000  1
  H  H53  1  0.219000  0.713600  0.182900  1
  H  H54  1  0.781000  0.286400  0.817100  1
  H  H55  1  0.134000  0.800900  0.199600  1
  H  H56  1  0.866000  0.199100  0.800400  1
  H  H57  1  0.189400  0.784000  0.227500  1
  H  H58  1  0.810600  0.216000  0.772500  1
  H  H59  1  0.706600  0.531700  0.143100  1
  H  H60  1  0.293400  0.468300  0.856900  1
  H  H61  1  0.822500  0.576500  0.200300  1
  H  H62  1  0.177500  0.423500  0.799700  1
  H  H63  1  0.904700  0.489600  0.181900  1
  H  H64  1  0.095300  0.510400  0.818100  1
  H  H65  1  0.944700  0.390900  0.149100  1
  H  H66  1  0.055300  0.609100  0.850900  1
  H  H67  1  0.980500  0.311000  0.117700  1
  H  H68  1  0.019500  0.689000  0.882300  1
  H  H69  1  0.942300  0.311200  0.082300  1
  H  H70  1  0.057700  0.688800  0.917700  1
  H  H71  1  0.950600  0.229300  0.121300  1
  H  H72  1  0.049400  0.770700  0.878700  1
  H  H73  1  0.916200  0.270800  0.156200  1
  H  H74  1  0.083800  0.729200  0.843800  1
  H  H75  1  0.978900  0.911700  0.156300  1
  H  H76  1  0.021100  0.088300  0.843700  1
  H  H77  1  0.907400  0.948400  0.145600  1
  H  H78  1  0.092600  0.051600  0.854400  1
  H  H79  1  0.963500  0.878100  0.097600  1
  H  H80  1  0.036500  0.121900  0.902400  1
  H  H81  1  0.976600  0.828000  0.127900  1
  H  H82  1  0.023400  0.172000  0.872100  1
  H  H83  1  0.882000  0.897000  0.067200  1
  H  H84  1  0.118000  0.103000  0.932800  1
  H  H85  1  0.795000  0.906800  0.025100  1
  H  H86  1  0.205000  0.093200  0.974900  1
  H  H87  1  0.697200  0.902400  0.016000  1
  H  H88  1  0.302800  0.097600  0.984000  1
  H  H89  1  0.690500  0.849500  0.123300  1
  H  H90  1  0.309500  0.150500  0.876700  1
  H  H91  1  0.584300  0.887400  0.118900  1
  H  H92  1  0.415700  0.112600  0.881100  1
  H  H93  1  0.463300  0.860600  0.052500  1
  H  H94  1  0.536700  0.139400  0.947500  1
  H  H95  1  0.637500  0.852900  0.010300  1
  H  H96  1  0.362500  0.147100  0.989700  1
  H  H97  1  0.433800  0.828100  0.103700  1
  H  H98  1  0.566200  0.171900  0.896300  1
  H  H99  1  0.486700  0.938400  0.154200  1
  H  H100  1  0.513300  0.061600  0.845800  1
  H  H101  1  0.406300  0.945600  0.202600  1
  H  H102  1  0.593700  0.054400  0.797400  1
  H  H103  1  0.317000  0.919100  0.228900  1
  H  H104  1  0.683000  0.080900  0.771100  1
  H  H105  1  0.253400  0.880600  0.261200  1
  H  H106  1  0.746600  0.119400  0.738800  1
  H  H107  1  0.261600  0.818400  0.247900  1
  H  H108  1  0.738400  0.181600  0.752100  1
  H  H109  1  0.153500  0.882100  0.246400  1
  H  H110  1  0.846500  0.117900  0.753600  1
  H  H111  1  0.174300  0.924000  0.219100  1
  H  H112  1  0.825700  0.076000  0.780900  1
  H  H113  1  0.626800  0.811600  0.965200  1
  H  H114  1  0.373200  0.188400  0.034800  1
  H  H115  1  0.439300  0.864400  0.998100  1
  H  H116  1  0.560700  0.135600  0.001900  1
  H  H117  1  0.419900  0.847100  0.937200  1
  H  H118  1  0.580100  0.152900  0.062800  1
  H  H119  1  0.466500  0.807600  0.870800  1
  H  H120  1  0.533500  0.192400  0.129200  1
  H  H121  1  0.506900  0.771800  0.816300  1
  H  H122  1  0.493100  0.228200  0.183700  1
  H  H123  1  0.575000  0.718900  0.815900  1
  H  H124  1  0.425000  0.281100  0.184100  1
  H  H125  1  0.578000  0.780100  0.766300  1
  H  H126  1  0.422000  0.219900  0.233700  1
  H  H127  1  0.555900  0.833300  0.794400  1
  H  H128  1  0.444100  0.166700  0.205600  1
  H  H129  1  0.967800  0.861900  0.228300  1
  H  H130  1  0.032200  0.138100  0.771700  1
  H  H131  1  0.992300  0.824500  0.190900  1
  H  H132  1  0.007700  0.175500  0.809100  1
  H  H133  1  0.954100  0.774900  0.236200  1
  H  H134  1  0.045900  0.225100  0.763800  1
  H  H135  1  0.886100  0.828000  0.240900  1
  H  H136  1  0.113900  0.172000  0.759100  1
  H  H137  1  0.958500  0.709400  0.200100  1
  H  H138  1  0.041500  0.290600  0.799900  1
  H  H139  1  0.967500  0.626900  0.156500  1
  H  H140  1  0.032500  0.373100  0.843500  1
  H  H141  1  0.935800  0.593600  0.106300  1
  H  H142  1  0.064200  0.406400  0.893700  1
  H  H143  1  0.816200  0.757000  0.088200  1
  H  H144  1  0.183800  0.243000  0.911800  1
  H  H145  1  0.858000  0.576400  0.077900  1
  H  H146  1  0.142000  0.423600  0.922100  1
  H  H147  1  0.787600  0.617200  0.975400  1
  H  H148  1  0.212400  0.382800  0.024600  1
  H  H149  1  0.830500  0.731400  0.031000  1
  H  H150  1  0.169500  0.268600  0.969000  1
  H  H151  1  0.809900  0.520500  0.078900  1
  H  H152  1  0.190100  0.479500  0.921100  1
  H  H153  1  0.827300  0.520800  0.966800  1
  H  H154  1  0.172700  0.479200  0.033200  1
  H  H155  1  0.822500  0.431400  0.967600  1
  H  H156  1  0.177500  0.568600  0.032400  1
  H  H157  1  0.816600  0.348000  0.005300  1
  H  H158  1  0.183400  0.652000  0.994700  1
  H  H159  1  0.761500  0.292600  0.075000  1
  H  H160  1  0.238500  0.707400  0.925000  1
  H  H161  1  0.804900  0.275500  0.036100  1
  H  H162  1  0.195100  0.724500  0.963900  1
  H  H163  1  0.855400  0.214600  0.083500  1
  H  H164  1  0.144600  0.785400  0.916500  1
  H  H165  1  0.896600  0.249200  0.066500  1
  H  H166  1  0.103400  0.750800  0.933500  1
  H  H167  1  0.723500  0.692200  0.950400  1
  H  H168  1  0.276500  0.307800  0.049600  1
  H  H169  1  0.842500  0.765400  0.971700  1
  H  H170  1  0.157500  0.234600  0.028300  1
  H  H171  1  0.804100  0.827900  0.921700  1
  H  H172  1  0.195900  0.172100  0.078300  1
  H  H173  1  0.730500  0.860300  0.870100  1
  H  H174  1  0.269500  0.139700  0.129900  1
  H  H175  1  0.669000  0.889800  0.826500  1
  H  H176  1  0.331000  0.110200  0.173500  1
  H  H177  1  0.602800  0.881900  0.832800  1
  H  H178  1  0.397200  0.118100  0.167200  1
  H  H179  1  0.645700  0.851900  0.772900  1
  H  H180  1  0.354300  0.148100  0.227100  1
  H  H181  1  0.713100  0.811200  0.787500  1
  H  H182  1  0.286900  0.188800  0.212500  1
  H  H183  1  0.108600  0.916800  0.175000  1
  H  H184  1  0.891400  0.083200  0.825000  1
  H  H185  1  0.134300  0.861100  0.148800  1
  H  H186  1  0.865700  0.138900  0.851200  1
  H  H187  1  0.163900  0.930700  0.117900  1
  H  H188  1  0.836100  0.069300  0.882100  1
  H  H189  1  0.196900  0.938300  0.153700  1
  H  H190  1  0.803100  0.061700  0.846300  1
  H  H191  1  0.224400  0.874200  0.076000  1
  H  H192  1  0.775600  0.125800  0.924000  1
  H  H193  1  0.294700  0.814400  0.022100  1
  H  H194  1  0.705300  0.185600  0.977900  1
  H  H195  1  0.391100  0.739000  0.000000  1
  H  H196  1  0.608900  0.261000  0.000000  1
  H  H197  1  0.436600  0.710500  0.106400  1
  H  H198  1  0.563400  0.289500  0.893600  1
  H  H199  1  0.490100  0.622500  0.088900  1
  H  H200  1  0.509900  0.377500  0.911100  1
  H  H201  1  0.642800  0.546500  0.012800  1
  H  H202  1  0.357200  0.453500  0.987200  1
  H  H203  1  0.504300  0.698600  0.990600  1
  H  H204  1  0.495700  0.301400  0.009400  1
  H  H205  1  0.689300  0.510600  0.064500  1
  H  H206  1  0.310700  0.489400  0.935500  1
  H  H207  1  0.515000  0.529100  0.109200  1
  H  H208  1  0.485000  0.470900  0.890800  1
  H  H209  1  0.561700  0.450900  0.145400  1
  H  H210  1  0.438300  0.549100  0.854600  1
  H  H211  1  0.664300  0.372500  0.166400  1
  H  H212  1  0.335700  0.627500  0.833600  1
  H  H213  1  0.753400  0.314500  0.192500  1
  H  H214  1  0.246600  0.685500  0.807500  1
  H  H215  1  0.815300  0.329400  0.183900  1
  H  H216  1  0.184700  0.670600  0.816100  1
  H  H217  1  0.839400  0.234800  0.164400  1
  H  H218  1  0.160600  0.765200  0.835600  1
  H  H219  1  0.781300  0.257400  0.138400  1
  H  H220  1  0.218700  0.742600  0.861600  1
  H  H221  1  0.587600  0.707600  0.957700  1
  H  H222  1  0.412400  0.292400  0.042300  1
  H  H223  1  0.659300  0.536700  0.950700  1
  H  H224  1  0.340700  0.463300  0.049300  1
  H  H225  1  0.713900  0.544000  0.893400  1
  H  H226  1  0.286100  0.456000  0.106600  1
  H  H227  1  0.746100  0.605200  0.844500  1
  H  H228  1  0.253900  0.394800  0.155500  1
  H  H229  1  0.772400  0.656400  0.800900  1
  H  H230  1  0.227600  0.343600  0.199100  1
  H  H231  1  0.769300  0.716700  0.815100  1
  H  H232  1  0.230700  0.283300  0.184900  1
  H  H233  1  0.711300  0.732500  0.760400  1
  H  H234  1  0.288700  0.267500  0.239600  1
  H  H235  1  0.668200  0.701200  0.779500  1
  H  H236  1  0.331800  0.298800  0.220500  1
  H  H237  1  0.341800  0.457800  0.696300  1
  H  H238  1  0.658200  0.542200  0.303700  1
  H  H239  1  0.303600  0.435200  0.728100  1
  H  H240  1  0.696400  0.564800  0.271900  1
  H  H241  1  0.237000  0.479800  0.680300  1
  H  H242  1  0.763000  0.520200  0.319700  1
  H  H243  1  0.249100  0.413400  0.682300  1
  H  H244  1  0.750900  0.586600  0.317700  1
  H  H245  1  0.257900  0.512300  0.625000  1
  H  H246  1  0.742100  0.487700  0.375000  1
  H  H247  1  0.274200  0.550600  0.559900  1
  H  H248  1  0.725800  0.449400  0.440100  1
  H  H249  1  0.324100  0.532400  0.498500  1
  H  H250  1  0.675900  0.467600  0.501500  1
  H  H251  1  0.407400  0.363800  0.525000  1
  H  H252  1  0.592600  0.636200  0.475000  1
  H  H253  1  0.333800  0.494400  0.441100  1
  H  H254  1  0.666200  0.505600  0.558900  1
  H  H255  1  0.478300  0.391700  0.369200  1
  H  H256  1  0.521700  0.608300  0.630800  1
  H  H257  1  0.481600  0.360500  0.480200  1
  H  H258  1  0.518400  0.639500  0.519800  1
  H  H259  1  0.282300  0.505800  0.393100  1
  H  H260  1  0.717700  0.494200  0.606900  1
  H  H261  1  0.447800  0.474800  0.332000  1
  H  H262  1  0.552200  0.525200  0.668000  1
  H  H263  1  0.391100  0.524000  0.281600  1
  H  H264  1  0.608900  0.476000  0.718400  1
  H  H265  1  0.279200  0.592200  0.260000  1
  H  H266  1  0.720800  0.407800  0.740000  1
  H  H267  1  0.194500  0.640400  0.237100  1
  H  H268  1  0.805500  0.359600  0.762900  1
  H  H269  1  0.135900  0.622800  0.250700  1
  H  H270  1  0.864100  0.377200  0.749300  1
  H  H271  1  0.158600  0.715800  0.276200  1
  H  H272  1  0.841400  0.284200  0.723800  1
  H  H273  1  0.098800  0.719400  0.255000  1
  H  H274  1  0.901200  0.280600  0.745000  1
  H  H275  1  0.536100  0.301400  0.366000  1
  H  H276  1  0.463900  0.698600  0.634000  1
  H  H277  1  0.588000  0.319400  0.467400  1
  H  H278  1  0.412000  0.680600  0.532600  1
  H  H279  1  0.686300  0.245300  0.452100  1
  H  H280  1  0.313700  0.754700  0.547900  1
  H  H281  1  0.759400  0.161600  0.405900  1
  H  H282  1  0.240600  0.838400  0.594100  1
  H  H283  1  0.776900  0.068100  0.344800  1
  H  H284  1  0.223100  0.931900  0.655200  1
  H  H285  1  0.815700  0.090400  0.371000  1
  H  H286  1  0.184300  0.909600  0.629000  1
  H  H287  1  0.834400  0.147800  0.321200  1
  H  H288  1  0.165600  0.852200  0.678800  1
  H  H289  1  0.862900  0.082500  0.308200  1
  H  H290  1  0.137100  0.917500  0.691800  1
  H  H291  1  0.303300  0.341500  0.716700  1
  H  H292  1  0.696700  0.658500  0.283300  1
  H  H293  1  0.368700  0.314700  0.736500  1
  H  H294  1  0.631300  0.685300  0.263500  1
  H  H295  1  0.420700  0.259500  0.680100  1
  H  H296  1  0.579300  0.740500  0.319900  1
  H  H297  1  0.363500  0.242700  0.698100  1
  H  H298  1  0.636500  0.757300  0.301900  1
  H  H299  1  0.288200  0.248600  0.660000  1
  H  H300  1  0.711800  0.751400  0.340000  1
  H  H301  1  0.217000  0.247100  0.609600  1
  H  H302  1  0.783000  0.752900  0.390400  1
  H  H303  1  0.167400  0.282600  0.554400  1
  H  H304  1  0.832600  0.717400  0.445600  1
  H  H305  1  0.272900  0.378200  0.543100  1
  H  H306  1  0.727100  0.621800  0.456900  1
  H  H307  1  0.201800  0.432600  0.511400  1
  H  H308  1  0.798200  0.567400  0.488600  1
  H  H309  1  0.126900  0.419700  0.415700  1
  H  H310  1  0.873100  0.580300  0.584300  1
  H  H311  1  0.169500  0.293000  0.492300  1
  H  H312  1  0.830500  0.707000  0.507700  1
  H  H313  1  0.162500  0.480800  0.394300  1
  H  H314  1  0.837500  0.519200  0.605700  1
  H  H315  1  0.158700  0.526500  0.501200  1
  H  H316  1  0.841300  0.473500  0.498800  1
  H  H317  1  0.152800  0.616600  0.478000  1
  H  H318  1  0.847200  0.383400  0.522000  1
  H  H319  1  0.146600  0.681100  0.424400  1
  H  H320  1  0.853400  0.318900  0.575600  1
  H  H321  1  0.189000  0.707900  0.339500  1
  H  H322  1  0.811000  0.292100  0.660500  1
  H  H323  1  0.149600  0.740600  0.376900  1
  H  H324  1  0.850400  0.259400  0.623100  1
  H  H325  1  0.053000  0.750600  0.354100  1
  H  H326  1  0.947000  0.249400  0.645900  1
  H  H327  1  0.090500  0.776000  0.323700  1
  H  H328  1  0.909500  0.224000  0.676300  1
  H  H329  1  0.180200  0.240200  0.445200  1
  H  H330  1  0.819800  0.759800  0.554800  1
  H  H331  1  0.065200  0.380900  0.394700  1
  H  H332  1  0.934800  0.619100  0.605300  1
  H  H333  1  0.036900  0.322000  0.357700  1
  H  H334  1  0.963100  0.678000  0.642300  1
  H  H335  1  0.048100  0.223900  0.339700  1
  H  H336  1  0.951900  0.776100  0.660300  1
  H  H337  1  0.125100  0.095100  0.325400  1
  H  H338  1  0.874900  0.904900  0.674600  1
  H  H339  1  0.054600  0.144300  0.324500  1
  H  H340  1  0.945400  0.855700  0.675500  1
  H  H341  1  0.017700  0.108800  0.376800  1
  H  H342  1  0.982300  0.891200  0.623200  1
  H  H343  1  0.054600  0.055800  0.349000  1
  H  H344  1  0.945400  0.944200  0.651000  1
  H  H345  1  0.460000  0.320700  0.699700  1
  H  H346  1  0.540000  0.679300  0.300300  1
  H  H347  1  0.441600  0.383600  0.716000  1
  H  H348  1  0.558400  0.616400  0.284000  1
  H  H349  1  0.436100  0.421100  0.654400  1
  H  H350  1  0.563900  0.578900  0.345600  1
  H  H351  1  0.505600  0.371700  0.658500  1
  H  H352  1  0.494400  0.628300  0.341500  1
  H  H353  1  0.541600  0.310500  0.616300  1
  H  H354  1  0.458400  0.689500  0.383700  1
  H  H355  1  0.585800  0.232000  0.563900  1
  H  H356  1  0.414200  0.768000  0.436100  1
  H  H357  1  0.567700  0.184500  0.514800  1
  H  H358  1  0.432300  0.815500  0.485200  1
  H  H359  1  0.380200  0.258800  0.546600  1
  H  H360  1  0.619800  0.741200  0.453400  1
  H  H361  1  0.531100  0.177400  0.460700  1
  H  H362  1  0.468900  0.822600  0.539300  1
  H  H363  1  0.410500  0.113700  0.421500  1
  H  H364  1  0.589500  0.886300  0.578500  1
  H  H365  1  0.370100  0.187000  0.524400  1
  H  H366  1  0.629900  0.813000  0.475600  1
  H  H367  1  0.551900  0.187800  0.398800  1
  H  H368  1  0.448100  0.812200  0.601200  1
  H  H369  1  0.502100  0.055800  0.387500  1
  H  H370  1  0.497900  0.944200  0.612500  1
  H  H371  1  0.566700  0.033900  0.332300  1
  H  H372  1  0.433300  0.966100  0.667700  1
  H  H373  1  0.644300  0.052400  0.286100  1
  H  H374  1  0.355700  0.947600  0.713900  1
  H  H375  1  0.699200  0.137500  0.238800  1
  H  H376  1  0.300800  0.862500  0.761200  1
  H  H377  1  0.707800  0.072200  0.242400  1
  H  H378  1  0.292200  0.927800  0.757600  1
  H  H379  1  0.794300  0.051600  0.277600  1
  H  H380  1  0.205700  0.948400  0.722400  1
  H  H381  1  0.806600  0.079600  0.238700  1
  H  H382  1  0.193400  0.920400  0.761300  1
  H  H383  1  0.307500  0.145500  0.423400  1
  H  H384  1  0.692500  0.854500  0.576600  1
  H  H385  1  0.313800  0.130100  0.533800  1
  H  H386  1  0.686200  0.869900  0.466200  1
  H  H387  1  0.217800  0.116800  0.536900  1
  H  H388  1  0.782200  0.883200  0.463100  1
  H  H389  1  0.135800  0.099100  0.504700  1
  H  H390  1  0.864200  0.900900  0.495300  1
  H  H391  1  0.032800  0.139300  0.445400  1
  H  H392  1  0.967200  0.860700  0.554600  1
  H  H393  1  0.054500  0.098900  0.480800  1
  H  H394  1  0.945500  0.901100  0.519200  1
  H  H395  1  0.099200  0.019300  0.444600  1
  H  H396  1  0.900800  0.980700  0.555400  1
  H  H397  1  0.029200  0.054800  0.431500  1
  H  H398  1  0.970800  0.945200  0.568500  1
  H  H399  1  0.028500  0.682300  0.281000  1
  H  H400  1  0.971500  0.317700  0.719000  1
  H  H401  1  0.994400  0.735700  0.308800  1
  H  H402  1  0.005600  0.264300  0.691200  1
  H  H403  1  0.013600  0.673800  0.360900  1
  H  H404  1  0.986400  0.326200  0.639100  1
  H  H405  1  0.975800  0.654300  0.332400  1
  H  H406  1  0.024200  0.345700  0.667600  1
  H  H407  1  0.026900  0.566600  0.306700  1
  H  H408  1  0.973100  0.433400  0.693300  1
  H  H409  1  0.061800  0.458300  0.314100  1
  H  H410  1  0.938200  0.541700  0.685900  1
  H  H411  1  0.147600  0.366900  0.306800  1
  H  H412  1  0.852400  0.633100  0.693200  1
  H  H413  1  0.260600  0.447400  0.326800  1
  H  H414  1  0.739400  0.552600  0.673200  1
  H  H415  1  0.338300  0.375700  0.295300  1
  H  H416  1  0.661700  0.624300  0.704700  1
  H  H417  1  0.416600  0.203900  0.310100  1
  H  H418  1  0.583400  0.796100  0.689900  1
  H  H419  1  0.225000  0.292400  0.327700  1
  H  H420  1  0.775000  0.707600  0.672300  1
  H  H421  1  0.499100  0.224600  0.326200  1
  H  H422  1  0.500900  0.775400  0.673800  1
  H  H423  1  0.430000  0.351700  0.252300  1
  H  H424  1  0.570000  0.648300  0.747700  1
  H  H425  1  0.532300  0.344400  0.237700  1
  H  H426  1  0.467700  0.655600  0.762300  1
  H  H427  1  0.650400  0.302000  0.253100  1
  H  H428  1  0.349600  0.698000  0.746900  1
  H  H429  1  0.766500  0.239800  0.304800  1
  H  H430  1  0.233500  0.760200  0.695200  1
  H  H431  1  0.749700  0.269800  0.264900  1
  H  H432  1  0.250300  0.730200  0.735100  1
  H  H433  1  0.770200  0.180800  0.237300  1
  H  H434  1  0.229800  0.819200  0.762700  1
  H  H435  1  0.832300  0.176400  0.256500  1
  H  H436  1  0.167700  0.823600  0.743500  1
  H  H437  1  0.233400  0.221100  0.364600  1
  H  H438  1  0.766600  0.778900  0.635400  1
  H  H439  1  0.394600  0.129900  0.302700  1
  H  H440  1  0.605400  0.870100  0.697300  1
  H  H441  1  0.377000  0.047500  0.319600  1
  H  H442  1  0.623000  0.952500  0.680400  1
  H  H443  1  0.301900  0.003400  0.350600  1
  H  H444  1  0.698100  0.996600  0.649400  1
  H  H445  1  0.220900  0.987800  0.425800  1
  H  H446  1  0.779100  0.012200  0.574200  1
  H  H447  1  0.252400  0.958600  0.385900  1
  H  H448  1  0.747600  0.041400  0.614100  1
  H  H449  1  0.156100  0.995700  0.359500  1
  H  H450  1  0.843900  0.004300  0.640500  1
  H  H451  1  0.139100  0.973500  0.399100  1
  H  H452  1  0.860900  0.026500  0.600900  1
  C  C453  1  0.862700  0.939900  0.208300  1
  C  C454  1  0.137300  0.060100  0.791700  1
  C  C455  1  0.799200  0.957800  0.191600  1
  C  C456  1  0.200800  0.042200  0.808400  1
  C  C457  1  0.731100  0.908700  0.211600  1
  C  C458  1  0.268900  0.091300  0.788400  1
  C  C459  1  0.710600  0.861400  0.209400  1
  C  C460  1  0.289400  0.138600  0.790600  1
  C  C461  1  0.656900  0.860700  0.227900  1
  C  C462  1  0.343100  0.139300  0.772100  1
  C  C463  1  0.639000  0.815100  0.224300  1
  C  C464  1  0.361000  0.184900  0.775700  1
  C  C465  1  0.676700  0.770000  0.199800  1
  C  C466  1  0.323300  0.230000  0.800200  1
  C  C467  1  0.731100  0.774500  0.181600  1
  C  C468  1  0.268900  0.225500  0.818400  1
  C  C469  1  0.661000  0.720000  0.193600  1
  C  C470  1  0.339000  0.280000  0.806400  1
  C  C471  1  0.598700  0.724700  0.194200  1
  C  C472  1  0.401300  0.275300  0.805800  1
  C  C473  1  0.585100  0.677100  0.188900  1
  C  C474  1  0.414900  0.322900  0.811100  1
  C  C475  1  0.636700  0.623600  0.182500  1
  C  C476  1  0.363300  0.376400  0.817500  1
  C  C477  1  0.700100  0.618400  0.180600  1
  C  C478  1  0.299900  0.381600  0.819400  1
  C  C479  1  0.711200  0.666300  0.187100  1
  C  C480  1  0.288800  0.333700  0.812900  1
  C  C481  1  0.470500  0.729700  0.179200  1
  C  C482  1  0.529500  0.270300  0.820800  1
  C  C483  1  0.517500  0.682100  0.190500  1
  C  C484  1  0.482500  0.317900  0.809500  1
  C  C485  1  0.502300  0.635500  0.201800  1
  C  C486  1  0.497700  0.364500  0.798200  1
  C  C487  1  0.440100  0.640900  0.201600  1
  C  C488  1  0.559900  0.359100  0.798400  1
  C  C489  1  0.394100  0.690600  0.190100  1
  C  C490  1  0.605900  0.309400  0.809900  1
  C  C491  1  0.327200  0.700900  0.188200  1
  C  C492  1  0.672800  0.299100  0.811800  1
  C  C493  1  0.221300  0.750600  0.175600  1
  C  C494  1  0.778700  0.249400  0.824400  1
  C  C495  1  0.178800  0.796000  0.201600  1
  C  C496  1  0.821200  0.204000  0.798400  1
  C  C497  1  0.747400  0.522700  0.151900  1
  C  C498  1  0.252600  0.477300  0.848100  1
  C  C499  1  0.754100  0.562900  0.173100  1
  C  C500  1  0.245900  0.437100  0.826900  1
  C  C501  1  0.814900  0.550300  0.185200  1
  C  C502  1  0.185100  0.449700  0.814800  1
  C  C503  1  0.863000  0.498700  0.174300  1
  C  C504  1  0.137000  0.501300  0.825700  1
  C  C505  1  0.852900  0.460600  0.153300  1
  C  C506  1  0.147100  0.539400  0.846700  1
  C  C507  1  0.902600  0.403200  0.141600  1
  C  C508  1  0.097400  0.596800  0.858400  1
  C  C509  1  0.938600  0.315000  0.109800  1
  C  C510  1  0.061400  0.685000  0.890200  1
  C  C511  1  0.918200  0.267500  0.128800  1
  C  C512  1  0.081800  0.732500  0.871200  1
  C  C513  1  0.937300  0.909900  0.152700  1
  C  C514  1  0.062700  0.090100  0.847300  1
  C  C515  1  0.946200  0.866500  0.121200  1
  C  C516  1  0.053800  0.133500  0.878800  1
  C  C517  1  0.860100  0.882700  0.085800  1
  C  C518  1  0.139900  0.117300  0.914200  1
  C  C519  1  0.798300  0.880300  0.079300  1
  C  C520  1  0.201700  0.119700  0.920700  1
  C  C521  1  0.772500  0.895200  0.044900  1
  C  C522  1  0.227500  0.104800  0.955100  1
  C  C523  1  0.714300  0.893300  0.039600  1
  C  C524  1  0.285700  0.106700  0.960400  1
  C  C525  1  0.680200  0.877300  0.070300  1
  C  C526  1  0.319800  0.122700  0.929700  1
  C  C527  1  0.710600  0.862700  0.103000  1
  C  C528  1  0.289400  0.137300  0.897000  1
  C  C529  1  0.620100  0.871600  0.065200  1
  C  C530  1  0.379900  0.128400  0.934800  1
  C  C531  1  0.575700  0.878900  0.095000  1
  C  C532  1  0.424300  0.121100  0.905000  1
  C  C533  1  0.517400  0.874000  0.090800  1
  C  C534  1  0.482600  0.126000  0.909200  1
  C  C535  1  0.503100  0.862800  0.055700  1
  C  C536  1  0.496900  0.137200  0.944300  1
  C  C537  1  0.549600  0.854700  0.024800  1
  C  C538  1  0.450400  0.145300  0.975200  1
  C  C539  1  0.606400  0.859000  0.030900  1
  C  C540  1  0.393600  0.141000  0.969100  1
  C  C541  1  0.428400  0.853100  0.123900  1
  C  C542  1  0.571600  0.146900  0.876100  1
  C  C543  1  0.467600  0.882300  0.123000  1
  C  C544  1  0.532400  0.117700  0.877000  1
  C  C545  1  0.460600  0.917500  0.153100  1
  C  C546  1  0.539400  0.082500  0.846900  1
  C  C547  1  0.413300  0.920900  0.182000  1
  C  C548  1  0.586700  0.079100  0.818000  1
  C  C549  1  0.377300  0.889100  0.180600  1
  C  C550  1  0.622700  0.110900  0.819400  1
  C  C551  1  0.327900  0.891800  0.209400  1
  C  C552  1  0.672100  0.108200  0.790600  1
  C  C553  1  0.251600  0.858300  0.239700  1
  C  C554  1  0.748400  0.141700  0.760300  1
  C  C555  1  0.185300  0.883500  0.226200  1
  C  C556  1  0.814700  0.116500  0.773800  1
  C  C557  1  0.584400  0.818600  0.959700  1
  C  C558  1  0.415600  0.181400  0.040300  1
  C  C559  1  0.533200  0.841200  0.987600  1
  C  C560  1  0.466800  0.158800  0.012400  1
  C  C561  1  0.473900  0.850300  0.979300  1
  C  C562  1  0.526100  0.149700  0.020700  1
  C  C563  1  0.462100  0.839200  0.943400  1
  C  C564  1  0.537900  0.160800  0.056600  1
  C  C565  1  0.513500  0.816700  0.917500  1
  C  C566  1  0.486500  0.183300  0.082500  1
  C  C567  1  0.507300  0.800100  0.879100  1
  C  C568  1  0.492700  0.199900  0.120900  1
  C  C569  1  0.552700  0.760700  0.819900  1
  C  C570  1  0.447300  0.239300  0.180100  1
  C  C571  1  0.580900  0.791600  0.791900  1
  C  C572  1  0.419100  0.208400  0.208100  1
  C  C573  1  0.953800  0.846500  0.207500  1
  C  C574  1  0.046200  0.153500  0.792500  1
  C  C575  1  0.922900  0.807000  0.222900  1
  C  C576  1  0.077100  0.193000  0.777100  1
  C  C577  1  0.927000  0.733400  0.184700  1
  C  C578  1  0.073000  0.266600  0.815300  1
  C  C579  1  0.910700  0.708100  0.152400  1
  C  C580  1  0.089300  0.291900  0.847600  1
  C  C581  1  0.935500  0.653300  0.142300  1
  C  C582  1  0.064500  0.346700  0.857700  1
  C  C583  1  0.917300  0.633100  0.112700  1
  C  C584  1  0.082700  0.366900  0.887300  1
  C  C585  1  0.870800  0.672300  0.092000  1
  C  C586  1  0.129200  0.327700  0.908000  1
  C  C587  1  0.847000  0.729400  0.102400  1
  C  C588  1  0.153000  0.270600  0.897600  1
  C  C589  1  0.848400  0.655600  0.058600  1
  C  C590  1  0.151600  0.344400  0.941400  1
  C  C591  1  0.846200  0.602100  0.057500  1
  C  C592  1  0.153800  0.397900  0.942500  1
  C  C593  1  0.825100  0.586800  0.024400  1
  C  C594  1  0.174900  0.413200  0.975600  1
  C  C595  1  0.804300  0.626400  0.996300  1
  C  C596  1  0.195700  0.373600  0.003700  1
  C  C597  1  0.807500  0.679300  0.998200  1
  C  C598  1  0.192500  0.320700  0.001800  1
  C  C599  1  0.829000  0.694800  0.029500  1
  C  C600  1  0.171000  0.305200  0.970500  1
  C  C601  1  0.812900  0.502100  0.055900  1
  C  C602  1  0.187100  0.497900  0.944100  1
  C  C603  1  0.818800  0.530000  0.023000  1
  C  C604  1  0.181200  0.470000  0.977000  1
  C  C605  1  0.822800  0.503000  0.989900  1
  C  C606  1  0.177200  0.497000  0.010100  1
  C  C607  1  0.820100  0.450300  0.990300  1
  C  C608  1  0.179900  0.549700  0.009700  1
  C  C609  1  0.813800  0.424900  0.024100  1
  C  C610  1  0.186200  0.575100  0.975900  1
  C  C611  1  0.811600  0.369600  0.027300  1
  C  C612  1  0.188400  0.630400  0.972700  1
  C  C613  1  0.802000  0.290600  0.061500  1
  C  C614  1  0.198000  0.709400  0.938500  1
  C  C615  1  0.856400  0.253100  0.081300  1
  C  C616  1  0.143600  0.746900  0.918700  1
  C  C617  1  0.741200  0.719800  0.944700  1
  C  C618  1  0.258800  0.280200  0.055300  1
  C  C619  1  0.787400  0.720600  0.966500  1
  C  C620  1  0.212600  0.279400  0.033500  1
  C  C621  1  0.810900  0.762100  0.957700  1
  C  C622  1  0.189100  0.237900  0.042300  1
  C  C623  1  0.788000  0.799400  0.928000  1
  C  C624  1  0.212000  0.200600  0.072000  1
  C  C625  1  0.742900  0.794400  0.908400  1
  C  C626  1  0.257100  0.205600  0.091600  1
  C  C627  1  0.715600  0.831400  0.877700  1
  C  C628  1  0.284400  0.168600  0.122300  1
  C  C629  1  0.649800  0.861100  0.828900  1
  C  C630  1  0.350200  0.138900  0.171100  1
  C  C631  1  0.666200  0.826800  0.793600  1
  C  C632  1  0.333800  0.173200  0.206400  1
  C  C633  1  0.147700  0.885400  0.164100  1
  C  C634  1  0.852300  0.114600  0.835900  1
  C  C635  1  0.187700  0.910400  0.139300  1
  C  C636  1  0.812300  0.089600  0.860700  1
  C  C637  1  0.256000  0.852300  0.092000  1
  C  C638  1  0.744000  0.147700  0.908000  1
  C  C639  1  0.315700  0.803600  0.076100  1
  C  C640  1  0.684300  0.196400  0.923900  1
  C  C641  1  0.325400  0.792600  0.038700  1
  C  C642  1  0.674600  0.207400  0.961300  1
  C  C643  1  0.382000  0.748100  0.025900  1
  C  C644  1  0.618000  0.251900  0.974100  1
  C  C645  1  0.425900  0.716800  0.051800  1
  C  C646  1  0.574100  0.283200  0.948200  1
  C  C647  1  0.408300  0.732000  0.088500  1
  C  C648  1  0.591700  0.268000  0.911500  1
  C  C649  1  0.486300  0.668000  0.041200  1
  C  C650  1  0.513700  0.332000  0.958800  1
  C  C651  1  0.512100  0.622500  0.065200  1
  C  C652  1  0.487900  0.377500  0.934800  1
  C  C653  1  0.570700  0.576100  0.055100  1
  C  C654  1  0.429300  0.423900  0.944900  1
  C  C655  1  0.603300  0.577200  0.019800  1
  C  C656  1  0.396700  0.422800  0.980200  1
  C  C657  1  0.578900  0.621800  0.995800  1
  C  C658  1  0.421100  0.378200  0.004200  1
  C  C659  1  0.520800  0.667200  0.007000  1
  C  C660  1  0.479200  0.332800  0.993000  1
  C  C661  1  0.662300  0.498100  0.080700  1
  C  C662  1  0.337700  0.501900  0.919300  1
  C  C663  1  0.595800  0.528800  0.080300  1
  C  C664  1  0.404200  0.471200  0.919700  1
  C  C665  1  0.560200  0.509400  0.106700  1
  C  C666  1  0.439800  0.490600  0.893300  1
  C  C667  1  0.587300  0.464100  0.128600  1
  C  C668  1  0.412700  0.535900  0.871400  1
  C  C669  1  0.653300  0.436800  0.126300  1
  C  C670  1  0.346700  0.563200  0.873700  1
  C  C671  1  0.687700  0.388100  0.149700  1
  C  C672  1  0.312300  0.611900  0.850300  1
  C  C673  1  0.782700  0.320300  0.172300  1
  C  C674  1  0.217300  0.679700  0.827700  1
  C  C675  1  0.814600  0.267000  0.148600  1
  C  C676  1  0.185400  0.733000  0.851400  1
  C  C677  1  0.612300  0.673600  0.944100  1
  C  C678  1  0.387700  0.326400  0.055900  1
  C  C679  1  0.614700  0.622400  0.959400  1
  C  C680  1  0.385300  0.377600  0.040600  1
  C  C681  1  0.654300  0.573100  0.940800  1
  C  C682  1  0.345700  0.426900  0.059200  1
  C  C683  1  0.687200  0.577600  0.907000  1
  C  C684  1  0.312800  0.422400  0.093000  1
  C  C685  1  0.681200  0.629400  0.893500  1
  C  C686  1  0.318800  0.370600  0.106500  1
  C  C687  1  0.717200  0.637600  0.858400  1
  C  C688  1  0.282800  0.362400  0.141600  1
  C  C689  1  0.743600  0.694200  0.811300  1
  C  C690  1  0.256400  0.305800  0.188700  1
  C  C691  1  0.690400  0.726300  0.784500  1
  C  C692  1  0.309600  0.273700  0.215500  1
  C  C693  1  0.321800  0.430100  0.701800  1
  C  C694  1  0.678200  0.569900  0.298200  1
  C  C695  1  0.269900  0.440500  0.676500  1
  C  C696  1  0.730100  0.559500  0.323500  1
  C  C697  1  0.285500  0.475600  0.615600  1
  C  C698  1  0.714500  0.524400  0.384400  1
  C  C699  1  0.313100  0.468800  0.576800  1
  C  C700  1  0.686900  0.531200  0.423200  1
  C  C701  1  0.301800  0.512800  0.552400  1
  C  C702  1  0.698200  0.487200  0.447600  1
  C  C703  1  0.331200  0.501900  0.515800  1
  C  C704  1  0.668800  0.498100  0.484200  1
  C  C705  1  0.371400  0.445300  0.504700  1
  C  C706  1  0.628600  0.554700  0.495300  1
  C  C707  1  0.381200  0.402300  0.531700  1
  C  C708  1  0.618800  0.597700  0.468300  1
  C  C709  1  0.402800  0.429400  0.466200  1
  C  C710  1  0.597200  0.570600  0.533800  1
  C  C711  1  0.373200  0.462400  0.436600  1
  C  C712  1  0.626800  0.537600  0.563400  1
  C  C713  1  0.401300  0.448500  0.400000  1
  C  C714  1  0.598700  0.551500  0.600000  1
  C  C715  1  0.459300  0.401600  0.394000  1
  C  C716  1  0.540700  0.598400  0.606000  1
  C  C717  1  0.489900  0.368800  0.424100  1
  C  C718  1  0.510100  0.631200  0.575900  1
  C  C719  1  0.461400  0.382800  0.459700  1
  C  C720  1  0.538600  0.617200  0.540300  1
  C  C721  1  0.305200  0.511100  0.371000  1
  C  C722  1  0.694800  0.488900  0.629000  1
  C  C723  1  0.368800  0.485600  0.368900  1
  C  C724  1  0.631200  0.514400  0.631100  1
  C  C725  1  0.402400  0.491900  0.334700  1
  C  C726  1  0.597600  0.508100  0.665300  1
  C  C727  1  0.369300  0.522800  0.305200  1
  C  C728  1  0.630700  0.477200  0.694800  1
  C  C729  1  0.304600  0.551200  0.311200  1
  C  C730  1  0.695400  0.448800  0.688800  1
  C  C731  1  0.261200  0.585200  0.283500  1
  C  C732  1  0.738800  0.414800  0.716500  1
  C  C733  1  0.165100  0.639500  0.258800  1
  C  C734  1  0.834900  0.360500  0.741200  1
  C  C735  1  0.128500  0.697200  0.273500  1
  C  C736  1  0.871500  0.302800  0.726500  1
  C  C737  1  0.567100  0.290000  0.383800  1
  C  C738  1  0.432900  0.710000  0.616200  1
  C  C739  1  0.552100  0.320100  0.416800  1
  C  C740  1  0.447900  0.679900  0.583200  1
  C  C741  1  0.597100  0.301300  0.443700  1
  C  C742  1  0.402900  0.698700  0.556300  1
  C  C743  1  0.654200  0.256600  0.435000  1
  C  C744  1  0.345800  0.743400  0.565000  1
  C  C745  1  0.665800  0.227800  0.401600  1
  C  C746  1  0.334200  0.772200  0.598400  1
  C  C747  1  0.725100  0.176000  0.390300  1
  C  C748  1  0.274900  0.824000  0.609700  1
  C  C749  1  0.787800  0.100900  0.350100  1
  C  C750  1  0.212200  0.899100  0.649900  1
  C  C751  1  0.822700  0.116000  0.314800  1
  C  C752  1  0.177300  0.884000  0.685200  1
  C  C753  1  0.350400  0.326500  0.712200  1
  C  C754  1  0.649600  0.673500  0.287800  1
  C  C755  1  0.373800  0.273800  0.686000  1
  C  C756  1  0.626200  0.726200  0.314000  1
  C  C757  1  0.299800  0.273700  0.643800  1
  C  C758  1  0.700200  0.726300  0.356200  1
  C  C759  1  0.270400  0.293800  0.607700  1
  C  C760  1  0.729600  0.706200  0.392300  1
  C  C761  1  0.227100  0.274900  0.595400  1
  C  C762  1  0.772900  0.725100  0.404600  1
  C  C763  1  0.197800  0.295200  0.562800  1
  C  C764  1  0.802200  0.704800  0.437200  1
  C  C765  1  0.215700  0.335600  0.542800  1
  C  C766  1  0.784300  0.664400  0.457200  1
  C  C767  1  0.259800  0.352000  0.557200  1
  C  C768  1  0.740200  0.648000  0.442800  1
  C  C769  1  0.189300  0.358900  0.506800  1
  C  C770  1  0.810700  0.641100  0.493200  1
  C  C771  1  0.187300  0.411900  0.495600  1
  C  C772  1  0.812700  0.588100  0.504400  1
  C  C773  1  0.163900  0.436200  0.461300  1
  C  C774  1  0.836100  0.563800  0.538700  1
  C  C775  1  0.142900  0.404600  0.438900  1
  C  C776  1  0.857100  0.595400  0.561100  1
  C  C777  1  0.145200  0.350700  0.450200  1
  C  C778  1  0.854800  0.649300  0.549800  1
  C  C779  1  0.168300  0.329300  0.484400  1
  C  C780  1  0.831700  0.670700  0.515600  1
  C  C781  1  0.160800  0.508400  0.411900  1
  C  C782  1  0.839200  0.491600  0.588100  1
  C  C783  1  0.162300  0.494000  0.449400  1
  C  C784  1  0.837700  0.506000  0.550600  1
  C  C785  1  0.158500  0.534400  0.475200  1
  C  C786  1  0.841500  0.465600  0.524800  1
  C  C787  1  0.154500  0.587700  0.461300  1
  C  C788  1  0.845500  0.412300  0.538700  1
  C  C789  1  0.152800  0.598200  0.423300  1
  C  C790  1  0.847200  0.401800  0.576700  1
  C  C791  1  0.150700  0.651200  0.408000  1
  C  C792  1  0.849300  0.348800  0.592000  1
  C  C793  1  0.150700  0.714300  0.356900  1
  C  C794  1  0.849300  0.285700  0.643100  1
  C  C795  1  0.091500  0.740600  0.336300  1
  C  C796  1  0.908500  0.259400  0.663700  1
  C  C797  1  0.149400  0.258000  0.427800  1
  C  C798  1  0.850600  0.742000  0.572200  1
  C  C799  1  0.123000  0.318000  0.424900  1
  C  C800  1  0.877000  0.682000  0.575100  1
  C  C801  1  0.082200  0.340700  0.398600  1
  C  C802  1  0.917800  0.659300  0.601400  1
  C  C803  1  0.064600  0.306000  0.376900  1
  C  C804  1  0.935400  0.694000  0.623100  1
  C  C805  1  0.087300  0.249400  0.383600  1
  C  C806  1  0.912700  0.750600  0.616400  1
  C  C807  1  0.075800  0.209800  0.359100  1
  C  C808  1  0.924200  0.790200  0.640900  1
  C  C809  1  0.086900  0.120000  0.341100  1
  C  C810  1  0.913100  0.880000  0.658900  1
  C  C811  1  0.060300  0.084000  0.365000  1
  C  C812  1  0.939700  0.916000  0.635000  1
  C  C813  1  0.435100  0.361900  0.695500  1
  C  C814  1  0.564900  0.638100  0.304500  1
  C  C815  1  0.459600  0.379500  0.658200  1
  C  C816  1  0.540400  0.620500  0.341800  1
  C  C817  1  0.500900  0.313200  0.610200  1
  C  C818  1  0.499100  0.686800  0.389800  1
  C  C819  1  0.494700  0.276600  0.579800  1
  C  C820  1  0.505300  0.723400  0.420200  1
  C  C821  1  0.543200  0.238700  0.559200  1
  C  C822  1  0.456800  0.761300  0.440800  1
  C  C823  1  0.532800  0.208600  0.530900  1
  C  C824  1  0.467200  0.791400  0.469100  1
  C  C825  1  0.471100  0.214000  0.526400  1
  C  C826  1  0.528900  0.786000  0.473600  1
  C  C827  1  0.423200  0.252900  0.549700  1
  C  C828  1  0.576800  0.747100  0.450300  1
  C  C829  1  0.453900  0.185400  0.497000  1
  C  C830  1  0.546100  0.814600  0.503000  1
  C  C831  1  0.493400  0.169900  0.464000  1
  C  C832  1  0.506600  0.830100  0.536000  1
  C  C833  1  0.476300  0.142600  0.435200  1
  C  C834  1  0.523700  0.857400  0.564800  1
  C  C835  1  0.421300  0.132600  0.440400  1
  C  C836  1  0.578700  0.867400  0.559600  1
  C  C837  1  0.381600  0.149800  0.473000  1
  C  C838  1  0.618400  0.850200  0.527000  1
  C  C839  1  0.397200  0.175900  0.502000  1
  C  C840  1  0.602800  0.824100  0.498000  1
  C  C841  1  0.555500  0.155400  0.385000  1
  C  C842  1  0.444500  0.844600  0.615000  1
  C  C843  1  0.519500  0.125000  0.398900  1
  C  C844  1  0.480500  0.875000  0.601100  1
  C  C845  1  0.524900  0.078600  0.379000  1
  C  C846  1  0.475100  0.921400  0.621000  1
  C  C847  1  0.563500  0.065500  0.346900  1
  C  C848  1  0.436500  0.934500  0.653100  1
  C  C849  1  0.597600  0.097100  0.335200  1
  C  C850  1  0.402400  0.902900  0.664800  1
  C  C851  1  0.638800  0.084700  0.300700  1
  C  C852  1  0.361200  0.915300  0.699300  1
  C  C853  1  0.712000  0.103900  0.255500  1
  C  C854  1  0.288000  0.896100  0.744500  1
  C  C855  1  0.779800  0.087100  0.262600  1
  C  C856  1  0.220200  0.912900  0.737400  1
  C  C857  1  0.290300  0.137900  0.447000  1
  C  C858  1  0.709700  0.862100  0.553000  1
  C  C859  1  0.322500  0.137400  0.477300  1
  C  C860  1  0.677500  0.862600  0.522700  1
  C  C861  1  0.294400  0.129700  0.511600  1
  C  C862  1  0.705600  0.870300  0.488400  1
  C  C863  1  0.237400  0.121500  0.513300  1
  C  C864  1  0.762600  0.878500  0.486700  1
  C  C865  1  0.209900  0.120100  0.481900  1
  C  C866  1  0.790100  0.879900  0.518100  1
  C  C867  1  0.152400  0.110100  0.482000  1
  C  C868  1  0.847600  0.889900  0.518000  1
  C  C869  1  0.067400  0.104800  0.454500  1
  C  C870  1  0.932600  0.895200  0.545500  1
  C  C871  1  0.072400  0.054800  0.432200  1
  C  C872  1  0.927600  0.945200  0.567800  1
  C  C873  1  0.028900  0.697000  0.306000  1
  C  C874  1  0.971100  0.303000  0.694000  1
  C  C875  1  0.016600  0.657800  0.335800  1
  C  C876  1  0.983400  0.342200  0.664200  1
  C  C877  1  0.064900  0.560900  0.318100  1
  C  C878  1  0.935100  0.439100  0.681900  1
  C  C879  1  0.117000  0.501900  0.318400  1
  C  C880  1  0.883000  0.498100  0.681600  1
  C  C881  1  0.104700  0.454600  0.314500  1
  C  C882  1  0.895300  0.545400  0.685500  1
  C  C883  1  0.154900  0.400300  0.311200  1
  C  C884  1  0.845100  0.599700  0.688800  1
  C  C885  1  0.216600  0.398000  0.314700  1
  C  C886  1  0.783400  0.602000  0.685300  1
  C  C887  1  0.219700  0.448800  0.322200  1
  C  C888  1  0.780300  0.551200  0.677800  1
  C  C889  1  0.273700  0.342900  0.313200  1
  C  C890  1  0.726300  0.657100  0.686800  1
  C  C891  1  0.333800  0.341100  0.302400  1
  C  C892  1  0.666200  0.658900  0.697600  1
  C  C893  1  0.388700  0.290000  0.301700  1
  C  C894  1  0.611300  0.710000  0.698300  1
  C  C895  1  0.380100  0.239000  0.310700  1
  C  C896  1  0.619900  0.761000  0.689300  1
  C  C897  1  0.321300  0.238600  0.320200  1
  C  C898  1  0.678700  0.761400  0.679800  1
  C  C899  1  0.266400  0.291900  0.321300  1
  C  C900  1  0.733600  0.708100  0.678700  1
  C  C901  1  0.505600  0.250200  0.308200  1
  C  C902  1  0.494400  0.749800  0.691800  1
  C  C903  1  0.451300  0.289100  0.292200  1
  C  C904  1  0.548700  0.710900  0.707800  1
  C  C905  1  0.464000  0.324600  0.264900  1
  C  C906  1  0.536000  0.675400  0.735100  1
  C  C907  1  0.524000  0.320400  0.256300  1
  C  C908  1  0.476000  0.679600  0.743700  1
  C  C909  1  0.575000  0.280700  0.275000  1
  C  C910  1  0.425000  0.719300  0.725000  1
  C  C911  1  0.640000  0.276900  0.269900  1
  C  C912  1  0.360000  0.723100  0.730100  1
  C  C913  1  0.748900  0.237800  0.281000  1
  C  C914  1  0.251100  0.762200  0.719000  1
  C  C915  1  0.787400  0.180500  0.261600  1
  C  C916  1  0.212600  0.819500  0.738400  1
  C  C917  1  0.261600  0.185600  0.353700  1
  C  C918  1  0.738400  0.814400  0.646300  1
  C  C919  1  0.312700  0.185100  0.329100  1
  C  C920  1  0.687300  0.814900  0.670900  1
  C  C921  1  0.357000  0.132800  0.317600  1
  C  C922  1  0.643000  0.867200  0.682400  1
  C  C923  1  0.346900  0.084200  0.327600  1
  C  C924  1  0.653100  0.915800  0.672400  1
  C  C925  1  0.293700  0.090400  0.348900  1
  C  C926  1  0.706300  0.909600  0.651100  1
  C  C927  1  0.277600  0.039900  0.361400  1
  C  C928  1  0.722400  0.960100  0.638600  1
  C  C929  1  0.219500  0.993100  0.398500  1
  C  C930  1  0.780500  0.006900  0.601500  1
  C  C931  1  0.151400  0.003200  0.386600  1
  C  C932  1  0.848600  0.996800  0.613400  1
  C  C933  1  0.628000  0.039300  0.145100  1
  C  C934  1  0.372000  0.960700  0.854900  1
  C  C935  1  0.484700  0.006000  0.250500  1
  C  C936  1  0.515300  0.994000  0.749500  1
  C  C937  1  0.519800  0.486300  0.244700  1
  C  C938  1  0.480200  0.513700  0.755300  1
  C  C939  1  0.683500  0.379100  0.334300  1
  C  C940  1  0.316500  0.620900  0.665700  1
  C  C941  1  0.477600  0.651500  0.877600  1
  C  C942  1  0.522400  0.348500  0.122400  1
  C  C943  1  0.278800  0.833600  0.854800  1
  C  C944  1  0.721200  0.166400  0.145200  1
  C  C945  1  0.360900  0.458600  0.193600  1
  C  C946  1  0.639100  0.541400  0.806400  1
  C  C947  1  0.300600  0.622200  0.085300  1
  C  C948  1  0.699400  0.377800  0.914700  1
  C  C949  1  0.496700  0.541500  0.427900  1
  C  C950  1  0.503300  0.458500  0.572100  1
  C  C951  1  0.283200  0.713100  0.446700  1
  C  C952  1  0.716800  0.286900  0.553300  1
  C  C953  1  0.350800  0.460400  0.220200  1
  C  C954  1  0.649200  0.539600  0.779800  1
  C  C955  1  0.354700  0.596300  0.098900  1
  C  C956  1  0.645300  0.403700  0.901100  1
  C  C957  1  0.356500  0.557600  0.122300  1
  C  C958  1  0.643500  0.442400  0.877700  1
  C  C959  1  0.246200  0.482600  0.207600  1
  C  C960  1  0.753800  0.517400  0.792400  1
  C  C961  1  0.601800  0.446500  0.332000  1
  C  C962  1  0.398200  0.553500  0.668000  1
  C  C963  1  0.737800  0.441300  0.246800  1
  C  C964  1  0.262200  0.558700  0.753200  1
  S  S965  1  0.563700  0.016600  0.160610  1
  S  S966  1  0.436300  0.983400  0.839390  1
  S  S967  1  0.535600  0.045180  0.236890  1
  S  S968  1  0.464400  0.954820  0.763110  1
  S  S969  1  0.604800  0.458400  0.251600  1
  S  S970  1  0.395200  0.541600  0.748400  1
  S  S971  1  0.600100  0.424300  0.326900  1
  S  S972  1  0.399900  0.575700  0.673100  1
  S  S973  1  0.404000  0.707700  0.898180  1
  S  S974  1  0.596000  0.292300  0.101820  1
  S  S975  1  0.351500  0.774590  0.835790  1
  S  S976  1  0.648500  0.225410  0.164210  1
  S  S977  1  0.315300  0.525000  0.169900  1
  S  S978  1  0.684700  0.475000  0.830100  1
  S  S979  1  0.368400  0.565100  0.104000  1
  S  S980  1  0.631600  0.434900  0.896000  1
  S  S981  1  0.443900  0.593900  0.462100  1
  S  S982  1  0.556100  0.406100  0.537900  1
  S  S983  1  0.325700  0.641500  0.427200  1
  S  S984  1  0.674300  0.358500  0.572800  1
  S  S985  1  0.377000  0.504800  0.187400  1
  S  S986  1  0.623000  0.495200  0.812600  1
  S  S987  1  0.320900  0.545800  0.117300  1
  S  S988  1  0.679100  0.454200  0.882700  1
  S  S989  1  0.375400  0.528300  0.169000  1
  S  S990  1  0.624600  0.471700  0.831000  1
  S  S991  1  0.333700  0.447100  0.203500  1
  S  S992  1  0.666300  0.552900  0.796500  1
  S  S993  1  0.658600  0.450300  0.234500  1
  S  S994  1  0.341400  0.549700  0.765500  1
  S  S995  1  0.559500  0.479600  0.291200  1
  S  S996  1  0.440500  0.520400  0.708800  1
  N  N997  1  0.912100  0.892300  0.187300  1
  N  N998  1  0.087900  0.107700  0.812700  1
  N  N999  1  0.184000  0.851000  0.194300  1
  N  N1000  1  0.816000  0.149000  0.805700  1
  N  N1001  1  0.856900  0.273500  0.118000  1
  N  N1002  1  0.143100  0.726500  0.882000  1
  N  N1003  1  0.644600  0.778900  0.797400  1
  N  N1004  1  0.355400  0.221100  0.202600  1
  N  N1005  1  0.779600  0.908300  0.190700  1
  N  N1006  1  0.220400  0.091700  0.809300  1
  N  N1007  1  0.749100  0.818200  0.186400  1
  N  N1008  1  0.250900  0.181800  0.813600  1
  N  N1009  1  0.287700  0.746600  0.177000  1
  N  N1010  1  0.712300  0.253400  0.823000  1
  N  N1011  1  0.409100  0.736300  0.178900  1
  N  N1012  1  0.590900  0.263700  0.821100  1
  N  N1013  1  0.888000  0.372100  0.121800  1
  N  N1014  1  0.112000  0.627900  0.878200  1
  N  N1015  1  0.793400  0.471300  0.142400  1
  N  N1016  1  0.206600  0.528700  0.857600  1
  N  N1017  1  0.882800  0.865500  0.116300  1
  N  N1018  1  0.117200  0.134500  0.883700  1
  N  N1019  1  0.766900  0.865800  0.108000  1
  N  N1020  1  0.233100  0.134200  0.892000  1
  N  N1021  1  0.299100  0.859200  0.209100  1
  N  N1022  1  0.700900  0.140800  0.790900  1
  N  N1023  1  0.382800  0.857400  0.151600  1
  N  N1024  1  0.617200  0.142600  0.848400  1
  N  N1025  1  0.559400  0.775100  0.857400  1
  N  N1026  1  0.440600  0.224900  0.142600  1
  N  N1027  1  0.573200  0.806900  0.925100  1
  N  N1028  1  0.426800  0.193100  0.074900  1
  N  N1029  1  0.900500  0.784300  0.191500  1
  N  N1030  1  0.099500  0.215700  0.808500  1
  N  N1031  1  0.867200  0.747100  0.133200  1
  N  N1032  1  0.132800  0.252900  0.866800  1
  N  N1033  1  0.803100  0.348400  0.059100  1
  N  N1034  1  0.196900  0.651600  0.940900  1
  N  N1035  1  0.811400  0.451500  0.056400  1
  N  N1036  1  0.188600  0.548500  0.943600  1
  N  N1037  1  0.672200  0.826100  0.860700  1
  N  N1038  1  0.327800  0.173900  0.139300  1
  N  N1039  1  0.719800  0.754100  0.916600  1
  N  N1040  1  0.280200  0.245900  0.083400  1
  N  N1041  1  0.248100  0.863700  0.125600  1
  N  N1042  1  0.751900  0.136300  0.874400  1
  N  N1043  1  0.354400  0.774900  0.101000  1
  N  N1044  1  0.645600  0.225100  0.899000  1
  N  N1045  1  0.746800  0.367100  0.148000  1
  N  N1046  1  0.253200  0.632900  0.852000  1
  N  N1047  1  0.689900  0.453400  0.101900  1
  N  N1048  1  0.310100  0.546600  0.898100  1
  N  N1049  1  0.709700  0.687500  0.847000  1
  N  N1050  1  0.290300  0.312500  0.153000  1
  N  N1051  1  0.642200  0.678300  0.911600  1
  N  N1052  1  0.357800  0.321700  0.088400  1
  N  N1053  1  0.369400  0.372500  0.696100  1
  N  N1054  1  0.630600  0.627500  0.303900  1
  N  N1055  1  0.091700  0.700600  0.309300  1
  N  N1056  1  0.908300  0.299400  0.690700  1
  N  N1057  1  0.786500  0.132100  0.282400  1
  N  N1058  1  0.213500  0.867900  0.717600  1
  N  N1059  1  0.100400  0.054800  0.393200  1
  N  N1060  1  0.899600  0.945200  0.606800  1
  N  N1061  1  0.298300  0.432600  0.636200  1
  N  N1062  1  0.701700  0.567400  0.363800  1
  N  N1063  1  0.353700  0.415000  0.567700  1
  N  N1064  1  0.646300  0.585000  0.432300  1
  N  N1065  1  0.201900  0.605000  0.289600  1
  N  N1066  1  0.798100  0.395000  0.710400  1
  N  N1067  1  0.270500  0.544200  0.343800  1
  N  N1068  1  0.729500  0.455800  0.656200  1
  N  N1069  1  0.728200  0.152500  0.360300  1
  N  N1070  1  0.271800  0.847500  0.639700  1
  N  N1071  1  0.623700  0.245000  0.374900  1
  N  N1072  1  0.376300  0.755000  0.625100  1
  N  N1073  1  0.340700  0.292100  0.651400  1
  N  N1074  1  0.659300  0.707900  0.348600  1
  N  N1075  1  0.285300  0.333800  0.589500  1
  N  N1076  1  0.714700  0.666200  0.410500  1
  N  N1077  1  0.154300  0.659200  0.373300  1
  N  N1078  1  0.845700  0.340800  0.626700  1
  N  N1079  1  0.157000  0.559500  0.399700  1
  N  N1080  1  0.843000  0.440500  0.600300  1
  N  N1081  1  0.104200  0.155700  0.364800  1
  N  N1082  1  0.895800  0.844300  0.635200  1
  N  N1083  1  0.132300  0.225600  0.406600  1
  N  N1084  1  0.867700  0.774400  0.593400  1
  N  N1085  1  0.450400  0.347000  0.627000  1
  N  N1086  1  0.549600  0.653000  0.373000  1
  N  N1087  1  0.434400  0.283500  0.577100  1
  N  N1088  1  0.565600  0.716500  0.422900  1
  N  N1089  1  0.668500  0.118000  0.289300  1
  N  N1090  1  0.331500  0.882000  0.710700  1
  N  N1091  1  0.593600  0.143100  0.354500  1
  N  N1092  1  0.406400  0.856900  0.645500  1
  N  N1093  1  0.123600  0.115200  0.453400  1
  N  N1094  1  0.876400  0.884800  0.546600  1
  N  N1095  1  0.237300  0.128700  0.447800  1
  N  N1096  1  0.762700  0.871300  0.552200  1
  N  N1097  1  0.070000  0.601400  0.331900  1
  N  N1098  1  0.930000  0.398600  0.668100  1
  N  N1099  1  0.172300  0.499800  0.323700  1
  N  N1100  1  0.827700  0.500200  0.676300  1
  N  N1101  1  0.683200  0.240300  0.287800  1
  N  N1102  1  0.316800  0.759700  0.712200  1
  N  N1103  1  0.564300  0.245900  0.300500  1
  N  N1104  1  0.435700  0.754100  0.699500  1
  N  N1105  1  0.231500  0.045800  0.386600  1
  N  N1106  1  0.768500  0.954200  0.613400  1
  N  N1107  1  0.250600  0.141100  0.362400  1
  N  N1108  1  0.749400  0.858900  0.637600  1
  N  N1109  1  0.524600  0.060500  0.193700  1
  N  N1110  1  0.475400  0.939500  0.806300  1
  N  N1111  1  0.602900  0.470700  0.295900  1
  N  N1112  1  0.397100  0.529300  0.704100  1
  N  N1113  1  0.396000  0.759400  0.869600  1
  N  N1114  1  0.604000  0.240600  0.130400  1
  N  N1115  1  0.345900  0.518900  0.126900  1
  N  N1116  1  0.654100  0.481100  0.873100  1
  N  N1117  1  0.370500  0.601500  0.459900  1
  N  N1118  1  0.629500  0.398500  0.540100  1
  N  N1119  1  0.316200  0.540200  0.162800  1
  N  N1120  1  0.683800  0.459800  0.837200  1
  N  N1121  1  0.369800  0.466400  0.168300  1
  N  N1122  1  0.630200  0.533600  0.831700  1
  N  N1123  1  0.603500  0.499700  0.260600  1
  N  N1124  1  0.396500  0.500300  0.739400  1
  O  O1125  1  0.644600  0.711200  0.029860  1
  O  O1126  1  0.355400  0.288800  0.970140  1
  O  O1127  1  0.567700  0.724900  0.098120  1
  O  O1128  1  0.432300  0.275100  0.901880  1
  O  O1129  1  0.687400  0.731600  0.096700  1
  O  O1130  1  0.312600  0.268400  0.903300  1
  O  O1131  1  0.681200  0.625100  0.085800  1
  O  O1132  1  0.318800  0.374900  0.914200  1
  O  O1133  1  0.349700  0.317200  0.466200  1
  O  O1134  1  0.650300  0.682800  0.533800  1
  O  O1135  1  0.417800  0.279200  0.396500  1
  O  O1136  1  0.582200  0.720800  0.603500  1
  O  O1137  1  0.298500  0.377300  0.399700  1
  O  O1138  1  0.701500  0.622700  0.600300  1
  O  O1139  1  0.304000  0.265600  0.414800  1
  O  O1140  1  0.696000  0.734400  0.585200  1
  O  O1141  1  0.594300  0.958200  0.170300  1
  O  O1142  1  0.405700  0.041800  0.829700  1
  O  O1143  1  0.525000  0.030600  0.129700  1
  O  O1144  1  0.475000  0.969400  0.870300  1
  O  O1145  1  0.599500  0.006900  0.244200  1
  O  O1146  1  0.400500  0.993100  0.755800  1
  O  O1147  1  0.505400  0.097700  0.257800  1
  O  O1148  1  0.494600  0.902300  0.742200  1
  O  O1149  1  0.629400  0.496400  0.230900  1
  O  O1150  1  0.370600  0.503600  0.769100  1
  O  O1151  1  0.626500  0.401100  0.238700  1
  O  O1152  1  0.373500  0.598900  0.761300  1
  O  O1153  1  0.576400  0.456700  0.361600  1
  O  O1154  1  0.423600  0.543300  0.638400  1
  O  O1155  1  0.573200  0.386100  0.316500  1
  O  O1156  1  0.426800  0.613900  0.683500  1
  O  O1157  1  0.421700  0.720500  0.932800  1
  O  O1158  1  0.578300  0.279500  0.067200  1
  O  O1159  1  0.356500  0.683500  0.898500  1
  O  O1160  1  0.643500  0.316500  0.101500  1
  O  O1161  1  0.330700  0.732400  0.825100  1
  O  O1162  1  0.669300  0.267600  0.174900  1
  O  O1163  1  0.378400  0.801900  0.807600  1
  O  O1164  1  0.621600  0.198100  0.192400  1
  O  O1165  1  0.258100  0.513600  0.170900  1
  O  O1166  1  0.741900  0.486400  0.829100  1
  O  O1167  1  0.314200  0.572500  0.189200  1
  O  O1168  1  0.685800  0.427500  0.810800  1
  O  O1169  1  0.398100  0.586300  0.130300  1
  O  O1170  1  0.601900  0.413700  0.869700  1
  O  O1171  1  0.408500  0.532700  0.072500  1
  O  O1172  1  0.591500  0.467300  0.927500  1
  O  O1173  1  0.460300  0.561100  0.496700  1
  O  O1174  1  0.539700  0.438900  0.503300  1
  O  O1175  1  0.458200  0.640600  0.461500  1
  O  O1176  1  0.541800  0.359400  0.538500  1
  O  O1177  1  0.370100  0.651200  0.401000  1
  O  O1178  1  0.629900  0.348800  0.599000  1
  O  O1179  1  0.286700  0.611700  0.424500  1
  O  O1180  1  0.713300  0.388300  0.575500  1
  O  O1181  1  0.371000  0.550100  0.212400  1
  O  O1182  1  0.629000  0.449900  0.787600  1
  O  O1183  1  0.435800  0.467000  0.170200  1
  O  O1184  1  0.564200  0.533000  0.829800  1
  O  O1185  1  0.261100  0.563100  0.102200  1
  O  O1186  1  0.738900  0.436900  0.897800  1
  O  O1187  1  0.374300  0.493700  0.105100  1
  O  O1188  1  0.625700  0.506300  0.894900  1
  O  O1189  1  0.342800  0.389000  0.199100  1
  O  O1190  1  0.657200  0.611000  0.800900  1
  O  O1191  1  0.353900  0.463600  0.236600  1
  O  O1192  1  0.646100  0.536400  0.763400  1
  O  O1193  1  0.442500  0.510500  0.171000  1
  O  O1194  1  0.557500  0.489500  0.829000  1
  O  O1195  1  0.325700  0.565500  0.193600  1
  O  O1196  1  0.674300  0.434500  0.806400  1
  O  O1197  1  0.651300  0.477600  0.198300  1
  O  O1198  1  0.348700  0.522400  0.801700  1
  O  O1199  1  0.662300  0.393600  0.238300  1
  O  O1200  1  0.337700  0.606400  0.761700  1
  O  O1201  1  0.514000  0.534000  0.305700  1
  O  O1202  1  0.486000  0.466000  0.694300  1
  O  O1203  1  0.537100  0.439800  0.277600  1
  O  O1204  1  0.462900  0.560200  0.722400  1
  F  F1205  1  0.606500  0.090900  0.131500  1
  F  F1206  1  0.393500  0.909100  0.868500  1
  F  F1207  1  0.661000  0.038800  0.174100  1
  F  F1208  1  0.339000  0.961200  0.825900  1
  F  F1209  1  0.666900  0.004100  0.119500  1
  F  F1210  1  0.333100  0.995900  0.880500  1
  F  F1211  1  0.505700  0.955100  0.233500  1
  F  F1212  1  0.494300  0.044900  0.766500  1
  F  F1213  1  0.486800  0.995300  0.286900  1
  F  F1214  1  0.513200  0.004700  0.713100  1
  F  F1215  1  0.425000  0.035000  0.242500  1
  F  F1216  1  0.575000  0.965000  0.757500  1
  F  F1217  1  0.514100  0.493000  0.208300  1
  F  F1218  1  0.485900  0.507000  0.791700  1
  F  F1219  1  0.493300  0.538300  0.260000  1
  F  F1220  1  0.506700  0.461700  0.740000  1
  F  F1221  1  0.490100  0.455300  0.260600  1
  F  F1222  1  0.509900  0.544700  0.739400  1
  F  F1223  1  0.688000  0.341200  0.359900  1
  F  F1224  1  0.312000  0.658800  0.640100  1
  F  F1225  1  0.708200  0.415000  0.346200  1
  F  F1226  1  0.291800  0.585000  0.653800  1
  F  F1227  1  0.714800  0.357300  0.302000  1
  F  F1228  1  0.285200  0.642700  0.698000  1
  F  F1229  1  0.494400  0.605000  0.898000  1
  F  F1230  1  0.505600  0.395000  0.102000  1
  F  F1231  1  0.468800  0.640100  0.843500  1
  F  F1232  1  0.531200  0.359900  0.156500  1
  F  F1233  1  0.524000  0.670100  0.874800  1
  F  F1234  1  0.476000  0.329900  0.125200  1
  F  F1235  1  0.253600  0.817600  0.884700  1
  F  F1236  1  0.746400  0.182400  0.115300  1
  F  F1237  1  0.291000  0.877300  0.865000  1
  F  F1238  1  0.709000  0.122700  0.135000  1
  F  F1239  1  0.234900  0.850200  0.830900  1
  F  F1240  1  0.765100  0.149800  0.169100  1
  F  F1241  1  0.317600  0.449900  0.218300  1
  F  F1242  1  0.682400  0.550100  0.781700  1
  F  F1243  1  0.406200  0.457500  0.211600  1
  F  F1244  1  0.593800  0.542500  0.788400  1
  F  F1245  1  0.389300  0.415800  0.169100  1
  F  F1246  1  0.610700  0.584200  0.830900  1
  F  F1247  1  0.266500  0.604100  0.065700  1
  F  F1248  1  0.733500  0.395900  0.934300  1
  F  F1249  1  0.317600  0.655700  0.061800  1
  F  F1250  1  0.682400  0.344300  0.938200  1
  F  F1251  1  0.260200  0.653800  0.112900  1
  F  F1252  1  0.739800  0.346200  0.887100  1
  F  F1253  1  0.550600  0.546900  0.419100  1
  F  F1254  1  0.449400  0.453100  0.580900  1
  F  F1255  1  0.470500  0.547900  0.395500  1
  F  F1256  1  0.529500  0.452100  0.604500  1
  F  F1257  1  0.502500  0.493600  0.439100  1
  F  F1258  1  0.497500  0.506400  0.560900  1
  F  F1259  1  0.291800  0.710000  0.481500  1
  F  F1260  1  0.708200  0.290000  0.518500  1
  F  F1261  1  0.307500  0.746800  0.428600  1
  F  F1262  1  0.692500  0.253200  0.571400  1
  F  F1263  1  0.224400  0.736500  0.439900  1
  F  F1264  1  0.775600  0.263500  0.560100  1
  F  F1265  1  0.335400  0.472800  0.255500  1
  F  F1266  1  0.664600  0.527200  0.744500  1
  F  F1267  1  0.289600  0.472000  0.214000  1
  F  F1268  1  0.710400  0.528000  0.786000  1
  F  F1269  1  0.390700  0.406100  0.217200  1
  F  F1270  1  0.609300  0.593900  0.782800  1
  F  F1271  1  0.388000  0.606700  0.124400  1
  F  F1272  1  0.612000  0.393300  0.875600  1
  F  F1273  1  0.313900  0.644000  0.084900  1
  F  F1274  1  0.686100  0.356000  0.915100  1
  F  F1275  1  0.395300  0.570300  0.069100  1
  F  F1276  1  0.604700  0.429700  0.930900  1
  F  F1277  1  0.363700  0.606000  0.116800  1
  F  F1278  1  0.636300  0.394000  0.883200  1
  F  F1279  1  0.293700  0.569700  0.123900  1
  F  F1280  1  0.706300  0.430300  0.876100  1
  F  F1281  1  0.394700  0.520300  0.097400  1
  F  F1282  1  0.605300  0.479700  0.902600  1
  F  F1283  1  0.224100  0.449800  0.229100  1
  F  F1284  1  0.775900  0.550200  0.770900  1
  F  F1285  1  0.222300  0.491800  0.174200  1
  F  F1286  1  0.777700  0.508200  0.825800  1
  F  F1287  1  0.223800  0.533100  0.223300  1
  F  F1288  1  0.776200  0.466900  0.776700  1
  F  F1289  1  0.743600  0.490000  0.246200  1
  F  F1290  1  0.256400  0.510000  0.753800  1
  F  F1291  1  0.776600  0.408500  0.220000  1
  F  F1292  1  0.223400  0.591500  0.780000  1
  F  F1293  1  0.749200  0.413300  0.278400  1
  F  F1294  1  0.250800  0.586700  0.721600  1
  F  F1295  1  0.631200  0.477100  0.343900  1
  F  F1296  1  0.368800  0.522900  0.656100  1
  F  F1297  1  0.644500  0.395900  0.325200  1
  F  F1298  1  0.355500  0.604100  0.674800  1
  F  F1299  1  0.555900  0.447300  0.358400  1
  F  F1300  1  0.444100  0.552700  0.641600  1
