
#######################################################################
#
#                 Cambridge Crystallographic Data Centre
#                                CCDC 
#
#######################################################################
#
# If this CIF has been generated from an entry in the Cambridge 
# Structural Database, then it will include bibliographic, chemical, 
# crystal, experimental, refinement or atomic coordinate data resulting 
# from the CCDC's data processing and validation procedures.
#
#######################################################################

data_QAGPUM
_chemical_formula_moiety         'C120 H108 N28 Zn4 8+,8(C2 F6 N1 O4 S2 1-)'
_chemical_name_systematic        
"(\m~4~-tetrakis(2,2',2''-(Benzene-1,3,5-triyltris((pyridine-5,2-diyl)methylimino))tris(ethyl))tetramine)-tetra-zinc octakis(bis(trifluoromethanesulfonyl)imide) unknown solvate"
_symmetry_cell_setting           monoclinic
_symmetry_space_group_name_H-M   'C 2/c'
_symmetry_Int_Tables_number      15
_space_group_name_Hall           '-C 2yn'
loop_
_symmetry_equiv_pos_site_id
_symmetry_equiv_pos_as_xyz
1 x,y,z
2 -x,y,1/2-z
3 1/2+x,1/2+y,z
4 1/2-x,1/2+y,1/2-z
5 -x,-y,-z
6 x,-y,1/2+z
7 1/2-x,1/2-y,-z
8 1/2+x,1/2-y,1/2+z
_cell_length_a                   32.4651(17)
_cell_length_b                   31.6257(14)
_cell_length_c                   23.6124(11)
_cell_angle_alpha                90
_cell_angle_beta                 117.268(2)
_cell_angle_gamma                90
_cell_volume                     21549.5
_exptl_crystal_colour            'pale yellow'
_exptl_crystal_description       block
_cell_formula_units_Z            4
_exptl_crystal_recrystallization_method 'acetonitrile/methanol/diethyl ether'
loop_
_atom_site_label
_atom_site_type_symbol
_atom_site_fract_x
_atom_site_fract_y
_atom_site_fract_z
N1 N 0.2944(4) 0.4698(4) 0.4578(5)
N2 N 0.3233(3) 0.4002(2) 0.5314(5)
N3 N 0.5093(3) 0.1862(3) 0.5868(4)
N4 N 0.5726(4) 0.1368(3) 0.5788(5)
N5 N 0.3925(3) 0.2267(2) 0.8498(3)
N6 N 0.3802(4) 0.2212(3) 0.9543(6)
C1 C 0.2252(5) 0.5119(4) 0.4122(8)
H1 H 0.2105 0.5375 0.3867
H2 H 0.2053 0.4873 0.3905
C2 C 0.2733(5) 0.5057(4) 0.4164(6)
H3 H 0.2706 0.5003 0.3736
H4 H 0.2924 0.5314 0.4341
C3 C 0.3034(4) 0.4391(5) 0.4353(6)
H5 H 0.2988 0.4401 0.3926
C4 C 0.3220(4) 0.3987(3) 0.4736(4)
C5 C 0.3364(5) 0.3642(4) 0.4515(4)
H6 H 0.3349 0.3644 0.4104
C6 C 0.3529(4) 0.3295(3) 0.4905(5)
H7 H 0.3619 0.3049 0.4759
C7 C 0.3563(3) 0.3307(3) 0.5510(4)
C8 C 0.3413(3) 0.3666(3) 0.5700(3)
H8 H 0.3439 0.3675 0.6117
C9 C 0.3752(2) 0.2935(2) 0.5970(3)
C10 C 0.4033(3) 0.2636(3) 0.5886(3)
H9 H 0.4108 0.2663 0.5544
C11 C 0.4203(2) 0.2296(2) 0.6304(4)
C12 C 0.4093(2) 0.22561(19) 0.6805(3)
H10 H 0.4209 0.2024 0.7090
C13 C 0.3812(3) 0.2556(3) 0.6888(3)
C14 C 0.3641(2) 0.2895(2) 0.6470(4)
H11 H 0.3449 0.3100 0.6527
C15 C 0.4794(4) 0.2118(2) 0.5948(4)
H12 H 0.4770 0.2403 0.5806
C16 C 0.4520(3) 0.1994(3) 0.6224(5)
C17 C 0.4551(4) 0.1580(3) 0.6420(6)
H13 H 0.4369 0.1483 0.6615
C18 C 0.4848(4) 0.1307(2) 0.6332(6)
H14 H 0.4863 0.1017 0.6449
C19 C 0.5125(4) 0.1459(3) 0.6070(5)
C20 C 0.5467(6) 0.1202(4) 0.5970(6)
H15 H 0.5485 0.0906 0.6047
C21 C 0.6060(5) 0.1086(4) 0.5707(7)
H16 H 0.6060 0.0804 0.5889
H17 H 0.6377 0.1205 0.5934
C22 C 0.5918(6) 0.1047(4) 0.5001(8)
H18 H 0.5636 0.0871 0.4794
H19 H 0.6168 0.0904 0.4943
C23 C 0.3997(3) 0.2306(3) 0.7981(4)
H20 H 0.4268 0.2184 0.7994
C24 C 0.3696(3) 0.2516(3) 0.7434(4)
C25 C 0.3302(3) 0.2690(3) 0.7416(4)
H21 H 0.3086 0.2833 0.7044
C26 C 0.3222(3) 0.2657(4) 0.7940(5)
H22 H 0.2951 0.2776 0.7934
C27 C 0.3544(4) 0.2445(3) 0.8478(4)
C28 C 0.3693(7) 0.1677(5) 1.0181(8)
H23 H 0.3447 0.1560 0.9779
H24 H 0.3616 0.1611 1.0532
C29 C 0.3732(6) 0.2147(4) 1.0124(7)
H25 H 0.3999 0.2260 1.0508
H26 H 0.3447 0.2291 1.0073
C30 C 0.3508(6) 0.2397(4) 0.9062(8)
H27 H 0.3245 0.2514 0.9081
N7 N 0.3123(4) 0.5276(3) 0.5823(4)
N8 N 0.3829(2) 0.4786(3) 0.5932(3)
N9 N 0.5289(3) 0.2667(2) 0.5290(4)
N10 N 0.5095(4) 0.1988(4) 0.4544(5)
N11 N 0.6769(3) 0.4377(2) 0.8493(3)
N12 N 0.7595(3) 0.4430(3) 0.9517(6)
C31 C 0.2419(5) 0.5581(4) 0.5025(7)
H28 H 0.2136 0.5742 0.4948
H29 H 0.2582 0.5737 0.4824
C32 C 0.2747(4) 0.5547(4) 0.5773(7)
H30 H 0.2864 0.5829 0.5960
H31 H 0.2581 0.5419 0.5993
C33 C 0.3527(5) 0.5425(4) 0.6075(6)
H32 H 0.3570 0.5710 0.6219
C34 C 0.3937(3) 0.5182(3) 0.6157(5)
C35 C 0.4385(3) 0.5336(2) 0.6453(5)
H33 H 0.4448 0.5614 0.6624
C36 C 0.4736(2) 0.5077(3) 0.6493(4)
H34 H 0.5046 0.5179 0.6673
C37 C 0.4637(3) 0.4666(2) 0.6269(4)
C38 C 0.4179(3) 0.4534(2) 0.5982(4)
H35 H 0.4109 0.4256 0.5814
C39 C 0.5010(2) 0.4358(2) 0.6316(4)
C40 C 0.5457(3) 0.44002(18) 0.6809(3)
H36 H 0.5530 0.4628 0.7102
C41 C 0.5797(2) 0.4109(2) 0.6876(3)
C42 C 0.5689(3) 0.3775(2) 0.6448(4)
H37 H 0.5921 0.3576 0.6493
C43 C 0.5242(3) 0.37327(19) 0.5954(3)
C44 C 0.4903(2) 0.4024(2) 0.5888(3)
H38 H 0.4597 0.3995 0.5551
C45 C 0.5355(3) 0.3002(3) 0.5673(3)
H39 H 0.5586 0.2982 0.6104
C46 C 0.5107(3) 0.3374(2) 0.5475(4)
C47 C 0.4765(4) 0.3399(2) 0.4856(4)
H40 H 0.4597 0.3654 0.4698
C48 C 0.4666(4) 0.3048(3) 0.4463(3)
H41 H 0.4410 0.3049 0.4049
C49 C 0.4949(4) 0.2695(3) 0.4688(4)
C50 C 0.4851(6) 0.2313(5) 0.4310(6)
H42 H 0.4605 0.2308 0.3888
C51 C 0.5050(6) 0.1609(4) 0.4153(7)
H43 H 0.4969 0.1365 0.4346
H44 H 0.4788 0.1654 0.3724
C52 C 0.5446(6) 0.1502(5) 0.4081(7)
H45 H 0.5402 0.1222 0.3872
H46 H 0.5497 0.1715 0.3812
C53 C 0.6351(3) 0.4342(3) 0.7982(4)
H47 H 0.6092 0.4461 0.8008
C54 C 0.6277(3) 0.4144(3) 0.7424(4)
C55 C 0.6654(3) 0.3970(3) 0.7389(4)
H48 H 0.6614 0.3821 0.7018
C56 C 0.7091(3) 0.4015(4) 0.7898(5)
H49 H 0.7357 0.3909 0.7873
C57 C 0.7136(3) 0.4218(4) 0.8445(4)
C58 C 0.8106(5) 0.4971(5) 1.0202(7)
H50 H 0.8399 0.5017 1.0596
H51 H 0.8135 0.5102 0.9842
C59 C 0.8009(4) 0.4501(4) 1.0084(7)
H52 H 0.8270 0.4363 1.0051
H53 H 0.7981 0.4373 1.0448
C60 C 0.7566(5) 0.4265(4) 0.9009(8)
H54 H 0.7842 0.4169 0.9004
Zn1 Zn 0.30563(5) 0.46421(5) 0.55340(7)
N13 N 0.2286(3) 0.5162(3) 0.4733(6)
Zn2 Zn 0.56076(6) 0.20044(5) 0.55083(7)
N14 N 0.5823(6) 0.1490(4) 0.4677(6)
N1A N 0.7056(4) 0.4698(4) 1.0422(5)
N2A N 0.6767(3) 0.4002(2) 0.9686(5)
N3A N 0.4907(3) 0.1862(3) 0.9132(4)
N4A N 0.4274(4) 0.1368(3) 0.9212(5)
N5A N 0.6075(3) 0.2267(2) 0.6502(3)
N6A N 0.6198(4) 0.2212(3) 0.5457(6)
C1A C 0.7748(5) 0.5119(4) 1.0878(8)
H1A H 0.7895 0.5375 1.1133
H2A H 0.7947 0.4873 1.1095
C2A C 0.7267(5) 0.5057(4) 1.0836(6)
H3A H 0.7294 0.5003 1.1264
H4A H 0.7076 0.5314 1.0659
C3A C 0.6966(4) 0.4391(5) 1.0647(6)
H5A H 0.7012 0.4401 1.1074
C4A C 0.6780(4) 0.3987(3) 1.0264(4)
C5A C 0.6636(5) 0.3642(4) 1.0485(4)
H6A H 0.6651 0.3644 1.0896
C6A C 0.6471(4) 0.3295(3) 1.0095(5)
H7A H 0.6381 0.3049 1.0241
C7A C 0.6437(3) 0.3307(3) 0.9490(4)
C8A C 0.6587(3) 0.3666(3) 0.9300(3)
H8A H 0.6561 0.3675 0.8883
C9A C 0.6248(2) 0.2935(2) 0.9030(3)
C10A C 0.5967(3) 0.2636(3) 0.9114(3)
H9A H 0.5892 0.2663 0.9456
C11A C 0.5797(2) 0.2296(2) 0.8696(4)
C12A C 0.5907(2) 0.22561(19) 0.8195(3)
H10A H 0.5791 0.2024 0.7910
C13A C 0.6188(3) 0.2556(3) 0.8112(3)
C14A C 0.6359(2) 0.2895(2) 0.8530(4)
H11A H 0.6551 0.3100 0.8473
C15A C 0.5206(4) 0.2118(2) 0.9052(4)
H12A H 0.5230 0.2403 0.9194
C16A C 0.5480(3) 0.1994(3) 0.8776(5)
C17A C 0.5449(4) 0.1580(3) 0.8580(6)
H13A H 0.5631 0.1483 0.8385
C18A C 0.5152(4) 0.1307(2) 0.8668(6)
H14A H 0.5137 0.1017 0.8551
C19A C 0.4875(4) 0.1459(3) 0.8930(5)
C20A C 0.4533(6) 0.1202(4) 0.9030(6)
H15A H 0.4515 0.0906 0.8953
C21A C 0.3940(5) 0.1086(4) 0.9293(7)
H16A H 0.3940 0.0804 0.9111
H17A H 0.3623 0.1205 0.9066
C22A C 0.4082(6) 0.1047(4) 0.9999(8)
H18A H 0.4364 0.0871 1.0206
H19A H 0.3832 0.0904 1.0057
C23A C 0.6003(3) 0.2306(3) 0.7019(4)
H20A H 0.5732 0.2184 0.7006
C24A C 0.6304(3) 0.2516(3) 0.7566(4)
C25A C 0.6698(3) 0.2690(3) 0.7584(4)
H21A H 0.6914 0.2833 0.7956
C26A C 0.6778(3) 0.2657(4) 0.7060(5)
H22A H 0.7049 0.2776 0.7066
C27A C 0.6456(4) 0.2445(3) 0.6522(4)
C28A C 0.6307(7) 0.1677(5) 0.4819(8)
H23A H 0.6553 0.1560 0.5221
H24A H 0.6384 0.1611 0.4468
C29A C 0.6268(6) 0.2147(4) 0.4876(7)
H25A H 0.6001 0.2260 0.4492
H26A H 0.6553 0.2291 0.4927
C30A C 0.6492(6) 0.2397(4) 0.5938(8)
H27A H 0.6755 0.2514 0.5919
N7A N 0.6877(4) 0.5276(3) 0.9177(4)
N8A N 0.6171(2) 0.4786(3) 0.9068(3)
N9A N 0.4711(3) 0.2667(2) 0.9710(4)
N10A N 0.4905(4) 0.1988(4) 1.0456(5)
N11A N 0.3231(3) 0.4377(2) 0.6507(3)
N12A N 0.2405(3) 0.4430(3) 0.5483(6)
C31A C 0.7581(5) 0.5581(4) 0.9975(7)
H28A H 0.7864 0.5742 1.0052
H29A H 0.7418 0.5737 1.0176
C32A C 0.7253(4) 0.5547(4) 0.9227(7)
H30A H 0.7136 0.5829 0.9040
H31A H 0.7419 0.5419 0.9007
C33A C 0.6473(5) 0.5425(4) 0.8925(6)
H32A H 0.6430 0.5710 0.8781
C34A C 0.6063(3) 0.5182(3) 0.8843(5)
C35A C 0.5615(3) 0.5336(2) 0.8547(5)
H33A H 0.5552 0.5614 0.8376
C36A C 0.5264(2) 0.5077(3) 0.8507(4)
H34A H 0.4954 0.5179 0.8327
C37A C 0.5363(3) 0.4666(2) 0.8731(4)
C38A C 0.5821(3) 0.4534(2) 0.9018(4)
H35A H 0.5891 0.4256 0.9186
C39A C 0.4990(2) 0.4358(2) 0.8684(4)
C40A C 0.4543(3) 0.44002(18) 0.8191(3)
H36A H 0.4470 0.4628 0.7898
C41A C 0.4203(2) 0.4109(2) 0.8124(3)
C42A C 0.4311(3) 0.3775(2) 0.8552(4)
H37A H 0.4079 0.3576 0.8507
C43A C 0.4758(3) 0.37327(19) 0.9046(3)
C44A C 0.5097(2) 0.4024(2) 0.9112(3)
H38A H 0.5403 0.3995 0.9449
C45A C 0.4645(3) 0.3002(3) 0.9327(3)
H39A H 0.4414 0.2982 0.8896
C46A C 0.4893(3) 0.3374(2) 0.9525(4)
C47A C 0.5235(4) 0.3399(2) 1.0144(4)
H40A H 0.5403 0.3654 1.0302
C48A C 0.5334(4) 0.3048(3) 1.0537(3)
H41A H 0.5590 0.3049 1.0951
C49A C 0.5051(4) 0.2695(3) 1.0312(4)
C50A C 0.5149(6) 0.2313(5) 1.0690(6)
H42A H 0.5395 0.2308 1.1112
C51A C 0.4950(6) 0.1609(4) 1.0847(7)
H43A H 0.5031 0.1365 1.0654
H44A H 0.5212 0.1654 1.1276
C52A C 0.4554(6) 0.1502(5) 1.0919(7)
H45A H 0.4598 0.1222 1.1128
H46A H 0.4503 0.1715 1.1188
C53A C 0.3649(3) 0.4342(3) 0.7018(4)
H47A H 0.3908 0.4461 0.6992
C54A C 0.3723(3) 0.4144(3) 0.7576(4)
C55A C 0.3346(3) 0.3970(3) 0.7611(4)
H48A H 0.3386 0.3821 0.7982
C56A C 0.2909(3) 0.4015(4) 0.7102(5)
H49A H 0.2643 0.3909 0.7127
C57A C 0.2864(3) 0.4218(4) 0.6555(4)
C58A C 0.1894(5) 0.4971(5) 0.4798(7)
H50A H 0.1601 0.5017 0.4404
H51A H 0.1865 0.5102 0.5158
C59A C 0.1991(4) 0.4501(4) 0.4916(7)
H52A H 0.1730 0.4363 0.4949
H53A H 0.2019 0.4373 0.4552
C60A C 0.2434(5) 0.4265(4) 0.5991(8)
H54A H 0.2158 0.4169 0.5996
N13A N 0.7714(3) 0.5162(3) 1.0267(6)
N14A N 0.4177(6) 0.1490(4) 1.0323(6)
Zn1A Zn 0.69437(5) 0.46421(5) 0.94660(7)
Zn2A Zn 0.43924(6) 0.20044(5) 0.94917(7)
S1 S 0.3854(4) 0.4469(2) 0.2896(4)
S2 S 0.4300(3) 0.4658(2) 0.4264(4)
N15 N 0.4262(6) 0.4670(5) 0.3564(5)
C61 C 0.4115(8) 0.3967(5) 0.2835(11)
C62 C 0.4047(7) 0.5152(5) 0.4357(10)
O1 O 0.3884(8) 0.4716(5) 0.2422(7)
O2 O 0.3466(7) 0.4337(9) 0.2985(14)
O3 O 0.4787(5) 0.4729(8) 0.4684(10)
O4 O 0.4093(5) 0.4365(4) 0.4503(6)
F1 F 0.4562(7) 0.3997(7) 0.2962(10)
F2 F 0.4093(8) 0.3707(5) 0.3261(9)
F3 F 0.3898(6) 0.3763(5) 0.2290(8)
F4 F 0.3671(6) 0.5244(6) 0.3804(8)
F5 F 0.4363(6) 0.5420(5) 0.4467(9)
F6 F 0.3935(7) 0.5155(6) 0.4811(8)
loop_
_geom_bond_atom_site_label_1
_geom_bond_atom_site_label_2
_geom_bond_site_symmetry_1
_geom_bond_site_symmetry_2
N1 C2 1_555 1_555
N2 C4 1_555 1_555
N3 C15 1_555 1_555
N4 C20 1_555 1_555
N5 C23 1_555 1_555
N6 C29 1_555 1_555
C1 H1 1_555 1_555
H2 C1 1_555 1_555
C2 C1 1_555 1_555
H3 C2 1_555 1_555
H4 C2 1_555 1_555
C3 N1 1_555 1_555
H5 C3 1_555 1_555
C4 C3 1_555 1_555
C5 C4 1_555 1_555
H6 C5 1_555 1_555
C6 C5 1_555 1_555
H7 C6 1_555 1_555
C7 C6 1_555 1_555
C8 N2 1_555 1_555
H8 C8 1_555 1_555
C9 C7 1_555 1_555
C10 C9 1_555 1_555
H9 C10 1_555 1_555
C11 C10 1_555 1_555
C12 C11 1_555 1_555
H10 C12 1_555 1_555
C13 C12 1_555 1_555
C14 C9 1_555 1_555
H11 C14 1_555 1_555
C15 H12 1_555 1_555
C16 C11 1_555 1_555
C17 C16 1_555 1_555
H13 C17 1_555 1_555
C18 C17 1_555 1_555
H14 C18 1_555 1_555
C19 N3 1_555 1_555
C20 C19 1_555 1_555
H15 C20 1_555 1_555
C21 N4 1_555 1_555
H16 C21 1_555 1_555
H17 C21 1_555 1_555
C22 C21 1_555 1_555
H18 C22 1_555 1_555
H19 C22 1_555 1_555
C23 H20 1_555 1_555
C24 C13 1_555 1_555
C25 C24 1_555 1_555
H21 C25 1_555 1_555
C26 C25 1_555 1_555
H22 C26 1_555 1_555
C27 N5 1_555 1_555
C28 H23 1_555 1_555
H24 C28 1_555 1_555
C29 C28 1_555 1_555
H25 C29 1_555 1_555
H26 C29 1_555 1_555
C30 N6 1_555 1_555
H27 C30 1_555 1_555
N7 C32 1_555 1_555
N8 C34 1_555 1_555
N9 C45 1_555 1_555
N10 C50 1_555 1_555
N11 C53 1_555 1_555
N12 C59 1_555 1_555
C31 H28 1_555 1_555
H29 C31 1_555 1_555
C32 C31 1_555 1_555
H30 C32 1_555 1_555
H31 C32 1_555 1_555
C33 N7 1_555 1_555
H32 C33 1_555 1_555
C34 C33 1_555 1_555
C35 C34 1_555 1_555
H33 C35 1_555 1_555
C36 C35 1_555 1_555
H34 C36 1_555 1_555
C37 C36 1_555 1_555
C38 N8 1_555 1_555
H35 C38 1_555 1_555
C39 C37 1_555 1_555
C40 C39 1_555 1_555
H36 C40 1_555 1_555
C41 C40 1_555 1_555
C42 C41 1_555 1_555
H37 C42 1_555 1_555
C43 C42 1_555 1_555
C44 C39 1_555 1_555
H38 C44 1_555 1_555
C45 H39 1_555 1_555
C46 C43 1_555 1_555
C47 C46 1_555 1_555
H40 C47 1_555 1_555
C48 C47 1_555 1_555
H41 C48 1_555 1_555
C49 N9 1_555 1_555
C50 C49 1_555 1_555
H42 C50 1_555 1_555
C51 N10 1_555 1_555
H43 C51 1_555 1_555
H44 C51 1_555 1_555
C52 C51 1_555 1_555
H45 C52 1_555 1_555
H46 C52 1_555 1_555
C53 H47 1_555 1_555
C54 C41 1_555 1_555
C55 C54 1_555 1_555
H48 C55 1_555 1_555
C56 C55 1_555 1_555
H49 C56 1_555 1_555
C57 N11 1_555 1_555
C58 H50 1_555 1_555
H51 C58 1_555 1_555
C59 C58 1_555 1_555
H52 C59 1_555 1_555
H53 C59 1_555 1_555
C60 N12 1_555 1_555
H54 C60 1_555 1_555
Zn1 N1 1_555 1_555
N13 C1 1_555 1_555
Zn2 N3 1_555 1_555
N14 C22 1_555 1_555
S1 N15 1_555 1_555
S2 N15 1_555 1_555
C61 S1 1_555 1_555
C62 S2 1_555 1_555
O1 S1 1_555 1_555
O2 S1 1_555 1_555
O3 S2 1_555 1_555
O4 S2 1_555 1_555
F1 C61 1_555 1_555
F2 C61 1_555 1_555
F3 C61 1_555 1_555
F4 C62 1_555 1_555
F5 C62 1_555 1_555
F6 C62 1_555 1_555
N1A C2A 1_555 1_555
N2A C4A 1_555 1_555
N3A C15A 1_555 1_555
N4A C20A 1_555 1_555
N5A Zn2 1_555 1_555
N6A Zn2 1_555 1_555
C1A H1A 1_555 1_555
H2A C1A 1_555 1_555
C2A C1A 1_555 1_555
H3A C2A 1_555 1_555
H4A C2A 1_555 1_555
C3A N1A 1_555 1_555
H5A C3A 1_555 1_555
C4A C3A 1_555 1_555
C5A C4A 1_555 1_555
H6A C5A 1_555 1_555
C6A C5A 1_555 1_555
H7A C6A 1_555 1_555
C7A C6A 1_555 1_555
C8A N2A 1_555 1_555
H8A C8A 1_555 1_555
C9A C7A 1_555 1_555
C10A C9A 1_555 1_555
H9A C10A 1_555 1_555
C11A C10A 1_555 1_555
C12A C11A 1_555 1_555
H10A C12A 1_555 1_555
C13A C12A 1_555 1_555
C14A C9A 1_555 1_555
H11A C14A 1_555 1_555
C15A H12A 1_555 1_555
C16A C11A 1_555 1_555
C17A C16A 1_555 1_555
H13A C17A 1_555 1_555
C18A C17A 1_555 1_555
H14A C18A 1_555 1_555
C19A N3A 1_555 1_555
C20A C19A 1_555 1_555
H15A C20A 1_555 1_555
C21A N4A 1_555 1_555
H16A C21A 1_555 1_555
H17A C21A 1_555 1_555
C22A C21A 1_555 1_555
H18A C22A 1_555 1_555
H19A C22A 1_555 1_555
C23A N5A 1_555 1_555
H20A C23A 1_555 1_555
C24A C13A 1_555 1_555
C25A C24A 1_555 1_555
H21A C25A 1_555 1_555
C26A C25A 1_555 1_555
H22A C26A 1_555 1_555
C27A N5A 1_555 1_555
C28A N14 1_555 1_555
H23A C28A 1_555 1_555
H24A C28A 1_555 1_555
C29A N6A 1_555 1_555
H25A C29A 1_555 1_555
H26A C29A 1_555 1_555
C30A N6A 1_555 1_555
H27A C30A 1_555 1_555
N7A C32A 1_555 1_555
N8A C34A 1_555 1_555
N9A C45A 1_555 1_555
N10A C50A 1_555 1_555
N11A Zn1 1_555 1_555
N12A Zn1 1_555 1_555
C31A H28A 1_555 1_555
H29A C31A 1_555 1_555
C32A C31A 1_555 1_555
H30A C32A 1_555 1_555
H31A C32A 1_555 1_555
C33A N7A 1_555 1_555
H32A C33A 1_555 1_555
C34A C33A 1_555 1_555
C35A C34A 1_555 1_555
H33A C35A 1_555 1_555
C36A C35A 1_555 1_555
H34A C36A 1_555 1_555
C37A C36A 1_555 1_555
C38A N8A 1_555 1_555
H35A C38A 1_555 1_555
C39A C37A 1_555 1_555
C40A C39A 1_555 1_555
H36A C40A 1_555 1_555
C41A C40A 1_555 1_555
C42A C41A 1_555 1_555
H37A C42A 1_555 1_555
C43A C42A 1_555 1_555
C44A C39A 1_555 1_555
H38A C44A 1_555 1_555
C45A H39A 1_555 1_555
C46A C43A 1_555 1_555
C47A C46A 1_555 1_555
H40A C47A 1_555 1_555
C48A C47A 1_555 1_555
H41A C48A 1_555 1_555
C49A N9A 1_555 1_555
C50A C49A 1_555 1_555
H42A C50A 1_555 1_555
C51A N10A 1_555 1_555
H43A C51A 1_555 1_555
H44A C51A 1_555 1_555
C52A C51A 1_555 1_555
H45A C52A 1_555 1_555
H46A C52A 1_555 1_555
C53A N11A 1_555 1_555
H47A C53A 1_555 1_555
C54A C41A 1_555 1_555
C55A C54A 1_555 1_555
H48A C55A 1_555 1_555
C56A C55A 1_555 1_555
H49A C56A 1_555 1_555
C57A N11A 1_555 1_555
C58A N13 1_555 1_555
H50A C58A 1_555 1_555
H51A C58A 1_555 1_555
C59A N12A 1_555 1_555
H52A C59A 1_555 1_555
H53A C59A 1_555 1_555
C60A N12A 1_555 1_555
H54A C60A 1_555 1_555
N13A C58 1_555 1_555
N14A C28 1_555 1_555
Zn1A N11 1_555 1_555
Zn2A N5 1_555 1_555
N2 Zn1 1_555 1_555
N4 Zn2 1_555 1_555
N6 Zn2A 1_555 1_555
C7 C8 1_555 1_555
C13 C14 1_555 1_555
C15 C16 1_555 1_555
C18 C19 1_555 1_555
C23 C24 1_555 1_555
C26 C27 1_555 1_555
C27 C30 1_555 1_555
N7 Zn1 1_555 1_555
N8 Zn1 1_555 1_555
N9 Zn2 1_555 1_555
N10 Zn2 1_555 1_555
N12 Zn1A 1_555 1_555
C31 N13 1_555 1_555
C37 C38 1_555 1_555
C43 C44 1_555 1_555
C45 C46 1_555 1_555
C48 C49 1_555 1_555
C52 N14 1_555 1_555
C53 C54 1_555 1_555
C56 C57 1_555 1_555
C57 C60 1_555 1_555
N1A Zn1A 1_555 1_555
N2A Zn1A 1_555 1_555
N3A Zn2A 1_555 1_555
N4A Zn2A 1_555 1_555
C1A N13A 1_555 1_555
C7A C8A 1_555 1_555
C13A C14A 1_555 1_555
C15A C16A 1_555 1_555
C18A C19A 1_555 1_555
C22A N14A 1_555 1_555
C23A C24A 1_555 1_555
C26A C27A 1_555 1_555
C27A C30A 1_555 1_555
C28A C29A 1_555 1_555
N7A Zn1A 1_555 1_555
N8A Zn1A 1_555 1_555
N9A Zn2A 1_555 1_555
N10A Zn2A 1_555 1_555
C31A N13A 1_555 1_555
C37A C38A 1_555 1_555
C43A C44A 1_555 1_555
C45A C46A 1_555 1_555
C48A C49A 1_555 1_555
C52A N14A 1_555 1_555
C53A C54A 1_555 1_555
C56A C57A 1_555 1_555
C57A C60A 1_555 1_555
C58A C59A 1_555 1_555

#END
