
#######################################################################
#
#                 Cambridge Crystallographic Data Centre
#                                CCDC 
#
#######################################################################
#
# If this CIF has been generated from an entry in the Cambridge 
# Structural Database, then it will include bibliographic, chemical, 
# crystal, experimental, refinement or atomic coordinate data resulting 
# from the CCDC's data processing and validation procedures.
#
#######################################################################

data_QAGPIA
_chemical_formula_moiety         
'C180 H144 N24 Zn4 8+,8(C2 F6 N1 O4 S2 1-),2(C2 H3 N1)'
_chemical_name_systematic        
'tetrakis(\m~3~-(Benzene-1,3,5-triyltripyridine-5,2-diyl)tris(N-(4-methylphenyl)methanimine))-tetra-zinc octakis(bis(trifluoromethanesulfonyl)imide) acetonitrile unknown solvate'
_symmetry_cell_setting           triclinic
_symmetry_space_group_name_H-M   'P -1'
_symmetry_Int_Tables_number      2
_space_group_name_Hall           '-P 1'
loop_
_symmetry_equiv_pos_site_id
_symmetry_equiv_pos_as_xyz
1 x,y,z
2 -x,-y,-z
_cell_length_a                   24.768(5)
_cell_length_b                   30.452(6)
_cell_length_c                   33.974(7)
_cell_angle_alpha                79.78(3)
_cell_angle_beta                 85.57(3)
_cell_angle_gamma                86.58(3)
_cell_volume                     25114.9
_exptl_crystal_colour            colorless
_exptl_crystal_description       block
_cell_formula_units_Z            4
_exptl_crystal_recrystallization_method 'acetonitrile/diethyl ether'
loop_
_atom_site_label
_atom_site_type_symbol
_atom_site_fract_x
_atom_site_fract_y
_atom_site_fract_z
Zn1 Zn 0.77282(5) 0.95750(4) 0.22119(4)
Zn2 Zn 1.06756(5) 1.21866(4) 0.04273(4)
Zn3 Zn 1.23082(5) 0.90001(4) 0.24031(4)
Zn4 Zn 1.00137(6) 1.17861(4) 0.38788(4)
N1 N 0.7740(4) 0.8855(3) 0.2395(3)
N2 N 0.8543(3) 0.9351(3) 0.1981(2)
N3 N 1.2049(4) 0.9324(3) 0.1830(3)
N4 N 1.3069(4) 0.9085(3) 0.2021(3)
N5 N 1.0251(3) 1.1558(3) 0.0484(2)
N6 N 1.0002(4) 1.2386(3) 0.0057(3)
N7 N 0.7454(3) 0.9576(3) 0.1617(3)
N8 N 0.7930(3) 1.0234(3) 0.1884(3)
N9 N 0.9327(4) 1.1667(3) 0.3538(3)
N10 N 0.9365(4) 1.1632(3) 0.4337(3)
N11 N 1.0189(3) 1.2332(3) 0.0972(2)
N12 N 1.0878(4) 1.2863(3) 0.0464(3)
N13 N 0.7027(3) 0.9827(3) 0.2532(3)
N14 N 0.8049(3) 0.9706(3) 0.2751(2)
N15 N 1.1457(3) 0.8897(3) 0.2648(3)
N16 N 1.2147(4) 0.8331(3) 0.2307(3)
N17 N 1.0291(3) 1.1077(3) 0.3894(2)
N18 N 1.0687(4) 1.1688(3) 0.4285(3)
N19 N 1.2576(4) 0.8800(3) 0.3002(3)
N20 N 1.2276(3) 0.9631(3) 0.2627(3)
N21 N 1.1312(4) 1.1853(3) 0.0801(3)
N22 N 1.1311(4) 1.2030(3) -0.0014(3)
N23 N 1.0525(4) 1.1972(3) 0.3328(3)
N24 N 0.9928(4) 1.2510(3) 0.3770(3)
C1 C 0.7317(5) 0.8597(4) 0.2591(4)
C2 C 0.7153(6) 0.8226(5) 0.2452(5)
H1 H 0.7319 0.8148 0.2210
C3 C 0.6743(6) 0.7968(5) 0.2668(5)
H2 H 0.6653 0.7704 0.2579
C4 C 0.6470(5) 0.8079(4) 0.2998(4)
C5 C 0.6621(5) 0.8464(4) 0.3132(4)
H3 H 0.6436 0.8551 0.3363
C6 C 0.7032(5) 0.8712(4) 0.2932(4)
H4 H 0.7127 0.8970 0.3028
C7 C 0.6039(6) 0.7800(5) 0.3224(5)
H5 H 0.6129 0.7711 0.3503
H6 H 0.6013 0.7533 0.3104
H7 H 0.5692 0.7972 0.3213
C8 C 0.8180(5) 0.8658(4) 0.2291(3)
H8 H 0.8221 0.8342 0.2359
C9 C 0.8630(4) 0.8911(4) 0.2067(3)
C10 C 0.9117(4) 0.8698(4) 0.1970(4)
H9 H 0.9172 0.8384 0.2048
C11 C 0.9523(5) 0.8950(4) 0.1759(4)
H10 H 0.9853 0.8806 0.1676
C12 C 0.9453(4) 0.9411(3) 0.1666(3)
C13 C 0.8941(4) 0.9594(3) 0.1790(3)
H11 H 0.8880 0.9909 0.1734
C14 C 0.9877(4) 0.9695(4) 0.1452(3)
C15 C 0.9745(4) 1.0100(3) 0.1200(3)
H12 H 0.9376 1.0193 0.1169
C16 C 1.0160(4) 1.0368(4) 0.0991(3)
C17 C 1.0706(4) 1.0224(4) 0.1045(3)
H13 H 1.0991 1.0398 0.0908
C18 C 1.0823(4) 0.9827(4) 0.1299(3)
C19 C 1.0414(4) 0.9569(4) 0.1502(3)
H14 H 1.0505 0.9300 0.1677
C20 C 1.1543(4) 0.9472(4) 0.1734(4)
H15 H 1.1261 0.9424 0.1941
C21 C 1.1400(4) 0.9684(4) 0.1364(4)
C22 C 1.1812(5) 0.9718(6) 0.1055(4)
H16 H 1.1733 0.9833 0.0786
C23 C 1.2341(6) 0.9579(6) 0.1152(5)
H17 H 1.2633 0.9618 0.0952
C24 C 1.2429(5) 0.9390(5) 0.1535(4)
C25 C 1.2981(5) 0.9233(5) 0.1676(5)
H18 H 1.3279 0.9251 0.1481
C26 C 1.3617(5) 0.8962(4) 0.2115(5)
C27 C 1.3961(6) 0.8764(6) 0.1860(5)
H19 H 1.3850 0.8711 0.1612
C28 C 1.4495(6) 0.8641(6) 0.1979(6)
H20 H 1.4735 0.8494 0.1807
C29 C 1.4686(6) 0.8718(5) 0.2327(6)
C30 C 1.4320(5) 0.8904(5) 0.2572(5)
H21 H 1.4428 0.8948 0.2824
C31 C 1.3776(5) 0.9036(4) 0.2470(5)
H22 H 1.3533 0.9174 0.2646
C32 C 1.5259(6) 0.8604(6) 0.2418(6)
H23 H 1.5387 0.8337 0.2308
H24 H 1.5286 0.8546 0.2709
H25 H 1.5483 0.8854 0.2297
C33 C 1.0362(4) 1.1164(4) 0.0695(3)
H26 H 1.0692 1.1117 0.0823
C34 C 1.0012(4) 1.0803(3) 0.0740(3)
C35 C 0.9530(4) 1.0872(4) 0.0549(3)
H27 H 0.9289 1.0637 0.0565
C36 C 0.9410(4) 1.1294(4) 0.0333(3)
H28 H 0.9079 1.1352 0.0204
C37 C 0.9767(4) 1.1629(4) 0.0304(3)
C38 C 0.9653(5) 1.2081(4) 0.0079(3)
H29 H 0.9323 1.2149 -0.0049
C39 C 0.9863(5) 1.2818(4) -0.0158(3)
C40 C 0.9416(6) 1.3057(5) -0.0061(4)
H30 H 0.9176 1.2930 0.0155
C41 C 0.9292(6) 1.3480(5) -0.0262(5)
H31 H 0.8968 1.3635 -0.0184
C42 C 0.9613(6) 1.3671(5) -0.0559(5)
C43 C 1.0060(7) 1.3448(5) -0.0666(4)
H32 H 1.0280 1.3580 -0.0892
C44 C 1.0228(6) 1.3020(4) -0.0458(4)
H33 H 1.0569 1.2880 -0.0521
C45 C 0.9471(7) 1.4138(5) -0.0813(6)
H34 H 0.9076 1.4185 -0.0815
H35 H 0.9627 1.4148 -0.1089
H36 H 0.9620 1.4372 -0.0696
C46 C 0.7230(5) 0.9205(4) 0.1494(3)
C47 C 0.7510(7) 0.8985(5) 0.1213(4)
H37 H 0.7855 0.9083 0.1102
C48 C 0.7304(8) 0.8636(5) 0.1094(5)
H38 H 0.7518 0.8479 0.0914
C49 C 0.6801(9) 0.8502(6) 0.1222(6)
C50 C 0.6535(7) 0.8702(6) 0.1534(6)
H39 H 0.6195 0.8599 0.1652
C51 C 0.6765(6) 0.9041(5) 0.1667(5)
H40 H 0.6591 0.9162 0.1886
C52 C 0.6528(11) 0.8133(7) 0.1063(7)
H41 H 0.6149 0.8225 0.1018
H42 H 0.6544 0.7856 0.1261
H43 H 0.6719 0.8082 0.0810
C53 C 0.7631(4) 0.9889(4) 0.1368(4)
H44 H 0.7611 0.9884 0.1091
C54 C 0.7876(4) 1.0275(3) 0.1490(3)
C55 C 0.8050(5) 1.0638(4) 0.1227(3)
H45 H 0.8001 1.0666 0.0948
C56 C 0.8300(4) 1.0969(4) 0.1374(3)
H46 H 0.8425 1.1223 0.1193
C57 C 0.8367(4) 1.0932(3) 0.1774(3)
C58 C 0.8171(4) 1.0547(3) 0.2020(3)
H47 H 0.8214 1.0509 0.2300
C59 C 0.8664(4) 1.1256(3) 0.1949(3)
C60 C 0.8994(4) 1.1555(3) 0.1702(3)
H48 H 0.9030 1.1549 0.1423
C61 C 0.9274(4) 1.1864(3) 0.1852(3)
C62 C 0.9222(4) 1.1865(3) 0.2268(3)
H49 H 0.9403 1.2080 0.2374
C63 C 0.8911(4) 1.1557(3) 0.2527(3)
C64 C 0.8629(4) 1.1252(3) 0.2370(3)
H50 H 0.8413 1.1042 0.2545
C65 C 0.9321(5) 1.1680(3) 0.3146(3)
H51 H 0.9628 1.1787 0.2979
C66 C 0.8879(4) 1.1543(3) 0.2967(3)
C67 C 0.8453(5) 1.1381(4) 0.3230(3)
H52 H 0.8143 1.1286 0.3126
C68 C 0.8466(5) 1.1354(4) 0.3632(3)
H53 H 0.8179 1.1229 0.3812
C69 C 0.8901(5) 1.1513(4) 0.3768(3)
C70 C 0.8949(6) 1.1490(4) 0.4223(4)
H54 H 0.8669 1.1372 0.4412
C71 C 0.9467(5) 1.1629(3) 0.47416(19)
C72 C 0.9492(5) 1.1216(3) 0.4996(2)
H55 H 0.9471 1.0949 0.4891
C73 C 0.9549(4) 1.1194(3) 0.5405(2)
H56 H 0.9565 1.0910 0.5576
C74 C 0.9582(4) 1.1582(3) 0.5568(2)
C75 C 0.9554(5) 1.1995(3) 0.5309(3)
H57 H 0.9574 1.2263 0.5413
C76 C 0.9498(5) 1.2019(3) 0.4900(2)
H58 H 0.9480 1.2302 0.4729
C77 C 0.9656(7) 1.1557(5) 0.6008(2)
H59 H 1.0019 1.1428 0.6068
H60 H 0.9382 1.1368 0.6167
H61 H 0.9616 1.1858 0.6075
C78 C 0.9876(4) 1.2064(3) 0.1232(3)
H62 H 0.9817 1.1777 0.1174
C79 C 0.9631(4) 1.2177(3) 0.1582(3)
C80 C 0.9719(5) 1.2595(4) 0.1671(4)
H63 H 0.9562 1.2685 0.1909
C81 C 1.0053(6) 1.2882(4) 0.1390(4)
H64 H 1.0120 1.3171 0.1438
C82 C 1.0279(4) 1.2740(4) 0.1046(3)
C83 C 1.0640(5) 1.3009(4) 0.0755(4)
H65 H 1.0697 1.3306 0.0788
C84 C 1.1196(5) 1.3175(4) 0.0181(4)
C85 C 1.0990(7) 1.3600(5) 0.0033(4)
H66 H 1.0640 1.3702 0.0123
C86 C 1.1325(8) 1.3879(6) -0.0260(5)
H67 H 1.1184 1.4163 -0.0383
C87 C 1.1855(8) 1.3740(7) -0.0367(5)
C88 C 1.2006(7) 1.3347(6) -0.0223(6)
H68 H 1.2354 1.3242 -0.0316
C89 C 1.1708(6) 1.3049(5) 0.0062(5)
H69 H 1.1862 1.2764 0.0170
C90 C 1.2194(9) 1.4062(8) -0.0667(6)
H70 H 1.2500 1.4149 -0.0536
H71 H 1.1969 1.4329 -0.0766
H72 H 1.2332 1.3916 -0.0892
C91 C 0.6495(4) 0.9879(3) 0.2396(3)
C92 C 0.6069(5) 0.9672(4) 0.2628(4)
H73 H 0.6116 0.9501 0.2887
C93 C 0.5565(5) 0.9726(4) 0.2462(4)
H74 H 0.5268 0.9584 0.2616
C94 C 0.5471(5) 0.9971(4) 0.2093(4)
C95 C 0.5906(5) 1.0166(4) 0.1879(4)
H75 H 0.5854 1.0337 0.1621
C96 C 0.6418(5) 1.0128(4) 0.2017(3)
H76 H 0.6712 1.0268 0.1857
C97 C 0.4918(5) 1.0027(6) 0.1928(4)
H77 H 0.4716 0.9758 0.2028
H78 H 0.4959 1.0074 0.1634
H79 H 0.4721 1.0286 0.2014
C98 C 0.7119(5) 0.9927(3) 0.2861(3)
H80 H 0.6833 1.0041 0.3022
C99 C 0.7669(4) 0.9868(3) 0.2998(3)
C100 C 0.7813(5) 0.9983(4) 0.3353(3)
H81 H 0.7545 1.0094 0.3530
C101 C 0.8344(4) 0.9935(4) 0.3446(3)
H82 H 0.8439 1.0009 0.3691
C102 C 0.8741(4) 0.9782(3) 0.3192(3)
C103 C 0.8566(4) 0.9662(3) 0.2848(3)
H83 H 0.8828 0.9543 0.2671
C104 C 0.9325(4) 0.9749(3) 0.3250(3)
C105 C 0.9674(4) 0.9433(3) 0.3094(3)
H84 H 0.9525 0.9226 0.2959
C106 C 1.0225(4) 0.9414(3) 0.3131(3)
C107 C 1.0435(4) 0.9706(3) 0.3341(3)
H85 H 1.0813 0.9686 0.3375
C108 C 1.0116(4) 1.0029(3) 0.3503(3)
C109 C 0.9555(4) 1.0046(3) 0.3454(3)
H86 H 0.9327 1.0264 0.3562
C110 C 1.0107(4) 1.0783(3) 0.3701(3)
H87 H 0.9806 1.0865 0.3542
C111 C 1.0351(4) 1.0346(3) 0.3723(3)
C112 C 1.0795(4) 1.0236(4) 0.3947(3)
H88 H 1.0967 0.9946 0.3971
C113 C 1.0984(4) 1.0554(3) 0.4132(3)
H89 H 1.1300 1.0487 0.4278
C114 C 1.0732(4) 1.0955(4) 0.4113(3)
C115 C 1.0913(4) 1.1309(4) 0.4316(3)
H90 H 1.1215 1.1243 0.4476
C116 C 1.0829(3) 1.2004(3) 0.4515(2)
C117 C 1.1370(3) 1.2020(3) 0.4598(3)
H91 H 1.1647 1.1867 0.4458
C118 C 1.1506(3) 1.2262(3) 0.4886(3)
H92 H 1.1875 1.2271 0.4941
C119 C 1.1106(3) 1.2492(3) 0.5097(2)
C120 C 1.0565(3) 1.2471(3) 0.5010(3)
H93 H 1.0288 1.2624 0.5150
C121 C 1.0427(3) 1.2230(4) 0.4722(3)
H94 H 1.0058 1.2220 0.4667
C122 C 1.1256(5) 1.2761(4) 0.5401(3)
H95 H 1.0926 1.2894 0.5519
H96 H 1.1491 1.2999 0.5269
H97 H 1.1447 1.2566 0.5612
C123 C 1.1121(4) 0.9170(4) 0.2830(3)
H98 H 1.1251 0.9443 0.2873
C124 C 1.0588(4) 0.9070(3) 0.2958(3)
C125 C 1.0412(5) 0.8669(4) 0.2904(4)
H99 H 1.0052 0.8588 0.2989
C126 C 1.0765(5) 0.8384(4) 0.2725(4)
H100 H 1.0646 0.8104 0.2688
C127 C 1.1278(5) 0.8496(4) 0.2603(3)
C128 C 1.1684(5) 0.8207(4) 0.2422(3)
H101 H 1.1589 0.7917 0.2392
C129 C 1.2539(5) 0.8013(4) 0.2154(4)
C130 C 1.2665(7) 0.7618(5) 0.2382(5)
H102 H 1.2474 0.7533 0.2635
C131 C 1.3067(7) 0.7338(5) 0.2253(5)
H103 H 1.3167 0.7076 0.2434
C132 C 1.3318(6) 0.7408(5) 0.1902(5)
C133 C 1.3198(7) 0.7801(6) 0.1663(5)
H104 H 1.3381 0.7867 0.1404
C134 C 1.2807(7) 0.8119(6) 0.1786(5)
H105 H 1.2735 0.8397 0.1618
C135 C 1.3763(6) 0.7084(5) 0.1778(4)
H106 H 1.3985 0.6974 0.2005
H107 H 1.3991 0.7237 0.1553
H108 H 1.3599 0.6832 0.1696
C136 C 1.2678(6) 0.8351(4) 0.3214(5)
C137 C 1.2317(7) 0.8162(5) 0.3476(5)
H109 H 1.1979 0.8312 0.3528
C138 C 1.2438(9) 0.7737(6) 0.3677(6)
H110 H 1.2179 0.7608 0.3880
C139 C 1.2888(9) 0.7494(6) 0.3610(7)
C140 C 1.3215(9) 0.7679(7) 0.3276(8)
H111 H 1.3507 0.7507 0.3172
C141 C 1.3110(7) 0.8099(6) 0.3105(7)
H112 H 1.3355 0.8230 0.2893
C142 C 1.2964(11) 0.7002(6) 0.3831(7)
H113 H 1.2631 0.6914 0.3994
H114 H 1.3266 0.6979 0.4005
H115 H 1.3041 0.6804 0.3633
C143 C 1.2561(4) 0.9111(4) 0.3210(4)
H116 H 1.2644 0.9051 0.3483
C144 C 1.2407(4) 0.9578(4) 0.3007(4)
C145 C 1.2372(5) 0.9928(4) 0.3225(4)
H117 H 1.2468 0.9879 0.3495
C146 C 1.2202(5) 1.0326(4) 0.3048(3)
H118 H 1.2193 1.0570 0.3189
C147 C 1.2036(4) 1.0399(3) 0.2658(3)
C148 C 1.2105(4) 1.0024(4) 0.2460(3)
H119 H 1.2021 1.0064 0.2188
C149 C 1.1807(4) 1.0840(3) 0.2444(3)
C150 C 1.1549(4) 1.1134(4) 0.2669(3)
H120 H 1.1522 1.1054 0.2953
C151 C 1.1327(4) 1.1546(4) 0.2491(3)
C152 C 1.1383(4) 1.1658(4) 0.2081(3)
H121 H 1.1232 1.1936 0.1954
C153 C 1.1654(4) 1.1373(4) 0.1844(3)
C154 C 1.1871(5) 1.0957(4) 0.2034(3)
H122 H 1.2062 1.0760 0.1880
C155 C 1.1294(5) 1.1736(4) 0.1204(3)
H123 H 1.0985 1.1826 0.1359
C156 C 1.1716(5) 1.1489(4) 0.1397(3)
C157 C 1.2151(5) 1.1363(4) 0.1168(4)
H124 H 1.2443 1.1190 0.1293
C158 C 1.2171(5) 1.1482(5) 0.0762(4)
H125 H 1.2478 1.1393 0.0605
C159 C 1.1756(5) 1.1726(4) 0.0581(3)
C160 C 1.1727(5) 1.1841(4) 0.0155(3)
H126 H 1.2036 1.1773 -0.0011
C161 C 1.1335(5) 1.2125(4) -0.0445(4)
C162 C 1.0927(5) 1.1991(4) -0.0639(4)
H127 H 1.0635 1.1839 -0.0487
C163 C 1.0937(6) 1.2077(4) -0.1058(4)
H128 H 1.0649 1.1989 -0.1192
C164 C 1.1377(6) 1.2295(4) -0.1276(4)
C165 C 1.1780(6) 1.2422(5) -0.1064(4)
H129 H 1.2086 1.2561 -0.1208
C166 C 1.1750(5) 1.2355(4) -0.0657(4)
H130 H 1.2018 1.2468 -0.0521
C167 C 1.1397(8) 1.2370(5) -0.1722(4)
H131 H 1.1635 1.2615 -0.1832
H132 H 1.1031 1.2448 -0.1811
H133 H 1.1537 1.2097 -0.1817
C168 C 1.0781(4) 1.1708(4) 0.3104(3)
H134 H 1.0783 1.1395 0.3199
C169 C 1.1054(4) 1.1859(4) 0.2730(3)
C170 C 1.1075(5) 1.2318(4) 0.2617(4)
H135 H 1.1257 1.2445 0.2370
C171 C 1.0822(6) 1.2589(4) 0.2872(4)
H136 H 1.0843 1.2904 0.2802
C172 C 1.0554(5) 1.2419(4) 0.3210(4)
C173 C 1.0241(5) 1.2700(4) 0.3469(4)
H137 H 1.0267 1.3016 0.3416
C174 C 0.9583(6) 1.2804(4) 0.3988(4)
C175 C 0.9036(6) 1.2743(4) 0.4037(4)
H138 H 0.8895 1.2502 0.3940
C176 C 0.8693(7) 1.3021(5) 0.4221(4)
H139 H 0.8316 1.2972 0.4260
C177 C 0.8908(8) 1.3375(6) 0.4350(5)
C178 C 0.9455(7) 1.3447(5) 0.4306(5)
H140 H 0.9598 1.3688 0.4402
C179 C 0.9791(7) 1.3154(5) 0.4115(4)
H141 H 1.0168 1.3200 0.4073
C180 C 0.8512(8) 1.3710(6) 0.4546(6)
H142 H 0.8717 1.3953 0.4605
H143 H 0.8336 1.3552 0.4795
H144 H 0.8236 1.3834 0.4360
Zn5 Zn 0.27269(5) 0.53155(5) 0.23994(4)
Zn6 Zn 0.41492(5) 0.25206(4) 0.47916(4)
Zn7 Zn 0.72405(5) 0.49069(4) 0.30262(4)
Zn8 Zn 0.53009(5) 0.24311(4) 0.13779(4)
N25 N 0.2844(4) 0.5986(3) 0.2515(3)
N26 N 0.3601(4) 0.5413(3) 0.2237(3)
N27 N 0.5026(4) 0.3127(3) 0.1264(3)
N28 N 0.4708(4) 0.2463(4) 0.0918(3)
N29 N 0.7014(4) 0.4659(3) 0.2502(3)
N30 N 0.8001(3) 0.4654(3) 0.2777(3)
N31 N 0.2530(4) 0.5458(3) 0.1781(3)
N32 N 0.2792(3) 0.4662(3) 0.2231(3)
N33 N 0.3574(4) 0.2772(3) 0.4322(3)
N34 N 0.3422(4) 0.2761(3) 0.5124(3)
N35 N 0.4735(4) 0.2270(3) 0.1902(3)
N36 N 0.5386(4) 0.1713(3) 0.1531(3)
N37 N 0.6025(4) 0.2550(3) 0.0995(3)
N38 N 0.5912(4) 0.2565(3) 0.1795(3)
N39 N 0.4685(3) 0.2264(3) 0.4317(3)
N40 N 0.3856(3) 0.1872(3) 0.4793(3)
N41 N 0.7046(3) 0.4227(3) 0.3364(3)
N42 N 0.7553(4) 0.4890(3) 0.3610(3)
N43 N 0.7247(4) 0.5602(3) 0.2710(3)
N44 N 0.6433(3) 0.5169(3) 0.3162(3)
N45 N 0.4568(3) 0.3129(3) 0.4732(3)
N46 N 0.4737(4) 0.2358(3) 0.5244(3)
N47 N 0.2946(4) 0.5077(3) 0.3017(3)
N48 N 0.1957(3) 0.5261(3) 0.2735(3)
C181 C 0.2446(6) 0.6271(4) 0.2685(5)
C182 C 0.2017(6) 0.6438(5) 0.2480(6)
H145 H 0.1994 0.6375 0.2218
C183 C 0.1606(7) 0.6698(6) 0.2636(6)
H146 H 0.1305 0.6807 0.2483
C184 C 0.1629(7) 0.6795(5) 0.2994(6)
C185 C 0.2034(8) 0.6610(7) 0.3223(7)
H147 H 0.2034 0.6659 0.3492
C186 C 0.2463(7) 0.6340(6) 0.3063(6)
H148 H 0.2753 0.6213 0.3221
C187 C 0.1171(7) 0.7097(7) 0.3174(7)
H149 H 0.0924 0.7222 0.2967
H150 H 0.1336 0.7341 0.3269
H151 H 0.0969 0.6917 0.3399
C188 C 0.3330(6) 0.6077(4) 0.2487(4)
H152 H 0.3424 0.6345 0.2567
C189 C 0.3761(5) 0.5790(4) 0.2340(4)
C190 C 0.4298(5) 0.5903(5) 0.2290(5)
H153 H 0.4404 0.6179 0.2346
C191 C 0.4688(5) 0.5591(4) 0.2151(4)
H154 H 0.5062 0.5652 0.2119
C192 C 0.4514(5) 0.5194(4) 0.2062(4)
C193 C 0.3984(5) 0.5130(4) 0.2112(4)
H155 H 0.3867 0.4859 0.2054
C194 C 0.4914(5) 0.4854(4) 0.1939(3)
C195 C 0.4757(5) 0.4547(4) 0.1706(4)
H156 H 0.4397 0.4564 0.1624
C196 C 0.5129(5) 0.4220(4) 0.1597(4)
C197 C 0.5645(5) 0.4189(4) 0.1714(4)
H157 H 0.5889 0.3958 0.1645
C198 C 0.5822(5) 0.4496(4) 0.1937(3)
C199 C 0.5444(4) 0.4828(4) 0.2043(4)
H158 H 0.5558 0.5040 0.2189
C200 C 0.6520(5) 0.4678(4) 0.2372(3)
H159 H 0.6242 0.4844 0.2499
C201 C 0.6385(5) 0.4472(4) 0.2065(4)
C202 C 0.6799(5) 0.4232(5) 0.1900(4)
H160 H 0.6726 0.4079 0.1691
C203 C 0.7336(5) 0.4199(4) 0.2030(4)
H161 H 0.7622 0.4034 0.1911
C204 C 0.7414(5) 0.4422(4) 0.2335(3)
C205 C 0.7946(5) 0.4429(4) 0.2506(4)
H162 H 0.8249 0.4264 0.2409
C206 C 0.8494(3) 0.4684(3) 0.2952(2)
C207 C 0.8741(3) 0.4306(2) 0.3170(3)
H163 H 0.8591 0.4023 0.3188
C208 C 0.9209(4) 0.4342(3) 0.3361(3)
H164 H 0.9378 0.4084 0.3510
C209 C 0.9430(3) 0.4756(4) 0.3333(3)
C210 C 0.9183(4) 0.5135(3) 0.3115(3)
H165 H 0.9334 0.5418 0.3097
C211 C 0.8715(4) 0.5098(2) 0.2925(3)
H166 H 0.8546 0.5357 0.2776
C212 C 0.9939(7) 0.4826(7) 0.3553(7)
H167 H 0.9838 0.5021 0.3750
H168 H 1.0218 0.4964 0.3358
H169 H 1.0080 0.4536 0.3690
C213 C 0.5167(5) 0.3454(4) 0.1443(3)
H170 H 0.5432 0.3381 0.1635
C214 C 0.4964(5) 0.3879(4) 0.1375(4)
C215 C 0.4556(7) 0.3988(6) 0.1093(5)
H171 H 0.4386 0.4278 0.1041
C216 C 0.4417(7) 0.3645(5) 0.0896(5)
H172 H 0.4149 0.3703 0.0705
C217 C 0.4670(7) 0.3222(5) 0.0979(5)
C218 C 0.4508(7) 0.2855(5) 0.0814(5)
H173 H 0.4243 0.2906 0.0622
C219 C 0.4520(4) 0.2112(3) 0.0744(3)
C220 C 0.4227(4) 0.1775(3) 0.0985(2)
H174 H 0.4174 0.1771 0.1266
C221 C 0.4012(4) 0.1445(3) 0.0815(3)
H175 H 0.3813 0.1217 0.0982
C222 C 0.4084(4) 0.1444(3) 0.0402(3)
C223 C 0.4380(5) 0.1783(3) 0.0164(2)
H176 H 0.4435 0.1788 -0.0117
C224 C 0.4597(4) 0.2115(3) 0.0332(3)
H177 H 0.4796 0.2342 0.0166
C225 C 0.3840(6) 0.1093(4) 0.0218(4)
H178 H 0.3741 0.1222 -0.0054
H179 H 0.3515 0.0986 0.0382
H180 H 0.4104 0.0842 0.0206
C226 C 0.2370(5) 0.5888(5) 0.1541(4)
C227 C 0.2672(7) 0.6233(5) 0.1531(5)
H181 H 0.2999 0.6201 0.1664
C228 C 0.2500(8) 0.6636(6) 0.1324(6)
H182 H 0.2710 0.6886 0.1328
C229 C 0.2057(8) 0.6704(6) 0.1116(5)
C230 C 0.1749(7) 0.6354(6) 0.1146(6)
H183 H 0.1422 0.6385 0.1013
C231 C 0.1902(6) 0.5942(6) 0.1370(6)
H184 H 0.1669 0.5700 0.1401
C232 C 0.1879(9) 0.7142(5) 0.0881(6)
H185 H 0.2186 0.7272 0.0710
H186 H 0.1745 0.7344 0.1065
H187 H 0.1588 0.7098 0.0714
C233 C 0.2563(5) 0.5113(4) 0.1619(4)
H188 H 0.2478 0.5139 0.1347
C234 C 0.2728(5) 0.4672(4) 0.1843(4)
C235 C 0.2825(5) 0.4302(4) 0.1673(4)
H189 H 0.2784 0.4320 0.1395
C236 C 0.2984(5) 0.3895(4) 0.1905(4)
H190 H 0.3038 0.3632 0.1790
C237 C 0.3064(4) 0.3882(4) 0.2311(3)
C238 C 0.2959(4) 0.4274(4) 0.2461(3)
H191 H 0.3005 0.4272 0.2736
C239 C 0.3275(4) 0.3482(3) 0.2562(3)
C240 C 0.3596(4) 0.3159(3) 0.2399(3)
H192 H 0.3673 0.3200 0.2117
C241 C 0.3814(4) 0.2771(3) 0.2641(3)
C242 C 0.3707(4) 0.2711(4) 0.3056(3)
H193 H 0.3864 0.2459 0.3222
C243 C 0.3372(4) 0.3021(4) 0.3227(3)
C244 C 0.3150(4) 0.3400(4) 0.2982(3)
H194 H 0.2913 0.3604 0.3100
C245 C 0.3660(4) 0.2821(3) 0.3926(3)
H195 H 0.4016 0.2761 0.3816
C246 C 0.3245(4) 0.2958(3) 0.3663(3)
C247 C 0.2728(5) 0.3030(4) 0.3835(4)
H196 H 0.2434 0.3118 0.3670
C248 C 0.2641(5) 0.2974(4) 0.4246(4)
H197 H 0.2287 0.3019 0.4366
C249 C 0.3072(5) 0.2853(4) 0.4481(3)
C250 C 0.3020(5) 0.2854(4) 0.4915(3)
H198 H 0.2677 0.2926 0.5040
C251 C 0.3331(4) 0.2836(4) 0.5532(3)
C252 C 0.2887(5) 0.2681(4) 0.5781(4)
H199 H 0.2640 0.2497 0.5695
C253 C 0.2811(6) 0.2798(5) 0.6151(4)
H200 H 0.2508 0.2690 0.6322
C254 C 0.3156(6) 0.3067(5) 0.6289(4)
C255 C 0.3588(5) 0.3208(5) 0.6043(4)
H201 H 0.3828 0.3397 0.6131
C256 C 0.3696(5) 0.3092(4) 0.5672(4)
H202 H 0.4015 0.3185 0.5513
C257 C 0.3068(7) 0.3208(6) 0.6699(4)
H203 H 0.3413 0.3293 0.6779
H204 H 0.2930 0.2958 0.6897
H205 H 0.2805 0.3463 0.6684
C258 C 0.4429(4) 0.2555(4) 0.2087(3)
H206 H 0.4401 0.2859 0.1960
C259 C 0.4154(4) 0.2438(4) 0.2449(3)
C260 C 0.4196(5) 0.1990(4) 0.2626(3)
H207 H 0.4011 0.1890 0.2878
C261 C 0.4503(5) 0.1695(4) 0.2437(3)
H208 H 0.4533 0.1389 0.2557
C262 C 0.4774(4) 0.1840(4) 0.2066(3)
C263 C 0.5103(4) 0.1542(4) 0.1837(3)
H209 H 0.5102 0.1227 0.1918
C264 C 0.5704(3) 0.1430(2) 0.1298(2)
C265 C 0.5460(2) 0.1150(3) 0.1087(3)
H210 H 0.5076 0.1141 0.1101
C266 C 0.5780(3) 0.0885(3) 0.0856(2)
H211 H 0.5610 0.0695 0.0714
C267 C 0.6347(3) 0.0893(2) 0.0830(2)
C268 C 0.6585(2) 0.1175(3) 0.1045(3)
H212 H 0.6969 0.1185 0.1032
C269 C 0.6268(3) 0.1441(3) 0.1277(3)
H213 H 0.6437 0.1631 0.1420
C270 C 0.6690(4) 0.0615(4) 0.0572(3)
H214 H 0.6514 0.0615 0.0324
H215 H 0.6731 0.0308 0.0718
H216 H 0.7048 0.0740 0.0508
C271 C 0.7672(4) 0.5799(4) 0.2438(3)
C272 C 0.7848(5) 0.5617(4) 0.2105(4)
H217 H 0.7698 0.5350 0.2064
C273 C 0.8224(5) 0.5807(5) 0.1841(4)
H218 H 0.8334 0.5673 0.1614
C274 C 0.8455(6) 0.6186(5) 0.1884(5)
C275 C 0.8303(6) 0.6366(5) 0.2240(5)
H219 H 0.8474 0.6617 0.2295
C276 C 0.7904(5) 0.6167(5) 0.2497(4)
H220 H 0.7785 0.6294 0.2727
C277 C 0.8855(7) 0.6418(5) 0.1547(5)
H221 H 0.9033 0.6195 0.1399
H222 H 0.9128 0.6564 0.1665
H223 H 0.8654 0.6642 0.1362
C278 C 0.6803(5) 0.5821(4) 0.2756(3)
H224 H 0.6766 0.6125 0.2631
C279 C 0.6341(5) 0.5605(4) 0.3002(3)
C280 C 0.5848(5) 0.5813(4) 0.3035(4)
H225 H 0.5798 0.6118 0.2916
C281 C 0.5413(5) 0.5587(4) 0.3237(4)
H226 H 0.5067 0.5736 0.3262
C282 C 0.5493(4) 0.5138(4) 0.3405(3)
C283 C 0.6008(4) 0.4951(4) 0.3368(3)
H227 H 0.6071 0.4650 0.3494
C284 C 0.5037(4) 0.4873(4) 0.3606(3)
C285 C 0.4511(4) 0.4977(4) 0.3494(3)
H228 H 0.4442 0.5218 0.3282
C286 C 0.4083(4) 0.4728(4) 0.3691(3)
C287 C 0.4175(4) 0.4375(4) 0.3987(3)
H229 H 0.3881 0.4205 0.4116
C288 C 0.4700(4) 0.4260(3) 0.4102(3)
C289 C 0.5130(5) 0.4510(4) 0.3914(3)
H230 H 0.5488 0.4434 0.3995
C290 C 0.3426(4) 0.4967(3) 0.3153(4)
H231 H 0.3731 0.4975 0.2965
C291 C 0.3511(4) 0.4838(3) 0.3562(4)
C292 C 0.3060(5) 0.4813(4) 0.3826(4)
H232 H 0.3096 0.4718 0.4105
C293 C 0.2568(5) 0.4926(4) 0.3687(4)
H233 H 0.2259 0.4917 0.3871
C294 C 0.2503(5) 0.5052(4) 0.3287(4)
C295 C 0.1974(5) 0.5146(4) 0.3115(5)
H234 H 0.1648 0.5122 0.3283
C296 C 0.1426(3) 0.5364(3) 0.2590(3)
C297 C 0.1289(4) 0.5204(3) 0.2252(3)
H235 H 0.1539 0.5012 0.2129
C298 C 0.0787(4) 0.5326(4) 0.2095(3)
H236 H 0.0698 0.5215 0.1864
C299 C 0.0411(4) 0.5608(3) 0.2271(3)
C300 C 0.0555(4) 0.5767(3) 0.2610(3)
H237 H 0.0307 0.5959 0.2734
C301 C 0.1057(4) 0.5646(4) 0.2769(3)
H238 H 0.1147 0.5757 0.2999
C302 C -0.0136(4) 0.5729(6) 0.2107(5)
H239 H -0.0349 0.5916 0.2275
H240 H -0.0327 0.5457 0.2106
H241 H -0.0089 0.5894 0.1832
C303 C 0.4492(4) 0.3495(4) 0.4465(3)
H242 H 0.4209 0.3510 0.4288
C304 C 0.4810(4) 0.3855(3) 0.4438(3)
C305 C 0.5218(5) 0.3832(4) 0.4686(3)
H243 H 0.5447 0.4075 0.4671
C306 C 0.5291(5) 0.3446(4) 0.4961(4)
H244 H 0.5568 0.3422 0.5143
C307 C 0.4969(4) 0.3102(4) 0.4971(3)
C308 C 0.5035(5) 0.2670(4) 0.5252(3)
H245 H 0.5308 0.2633 0.5438
C309 C 0.4793(5) 0.1939(4) 0.5533(4)
C310 C 0.4814(7) 0.1942(5) 0.5926(4)
H246 H 0.4800 0.2216 0.6025
C311 C 0.4858(7) 0.1537(5) 0.6188(4)
H247 H 0.4872 0.1542 0.6465
C312 C 0.4880(5) 0.1141(4) 0.6069(4)
C313 C 0.4864(5) 0.1152(4) 0.5660(4)
H248 H 0.4875 0.0878 0.5562
C314 C 0.4833(5) 0.1542(4) 0.5396(4)
H249 H 0.4840 0.1538 0.5117
C315 C 0.4932(7) 0.0716(5) 0.6367(4)
H250 H 0.5272 0.0554 0.6306
H251 H 0.4626 0.0531 0.6353
H252 H 0.4930 0.0787 0.6638
C316 C 0.6088(4) 0.2590(3) 0.05740(19)
C317 C 0.5952(5) 0.2240(3) 0.0390(2)
H253 H 0.5813 0.1977 0.0548
C318 C 0.6021(5) 0.2277(4) -0.0026(3)
H254 H 0.5928 0.2037 -0.0149
C319 C 0.6225(4) 0.2662(4) -0.02669(19)
C320 C 0.6361(5) 0.3010(3) -0.0077(3)
H255 H 0.6502 0.3273 -0.0235
C321 C 0.6294(5) 0.2975(3) 0.0339(3)
H256 H 0.6388 0.3214 0.0462
C322 C 0.6286(7) 0.2705(6) -0.07168(19)
H257 H 0.6109 0.2459 -0.0798
H258 H 0.6672 0.2694 -0.0805
H259 H 0.6116 0.2990 -0.0840
C323 C 0.6442(6) 0.2637(4) 0.1167(4)
H260 H 0.6777 0.2693 0.1015
C324 C 0.6396(5) 0.2650(4) 0.1596(3)
C325 C 0.6843(5) 0.2759(4) 0.1782(4)
H261 H 0.7182 0.2810 0.1634
C326 C 0.6783(5) 0.2790(4) 0.2189(3)
H262 H 0.7079 0.2863 0.2323
C327 C 0.6276(4) 0.2712(3) 0.2393(3)
C328 C 0.5859(5) 0.2603(3) 0.2176(3)
H263 H 0.5514 0.2552 0.2314
C329 C 0.6187(4) 0.2778(3) 0.2814(3)
C330 C 0.5812(4) 0.2522(3) 0.3073(3)
H264 H 0.5616 0.2309 0.2976
C331 C 0.5721(4) 0.2576(3) 0.3478(3)
C332 C 0.6013(4) 0.2900(3) 0.3612(3)
H265 H 0.5954 0.2941 0.3883
C333 C 0.6385(4) 0.3161(3) 0.3359(3)
C334 C 0.6461(4) 0.3091(3) 0.2956(3)
H266 H 0.6710 0.3266 0.2777
C335 C 0.6790(4) 0.3905(4) 0.3255(4)
H267 H 0.6682 0.3954 0.2988
C336 C 0.6660(4) 0.3498(4) 0.3499(3)
C337 C 0.6827(5) 0.3453(4) 0.3891(4)
H268 H 0.6766 0.3183 0.4072
C338 C 0.7072(5) 0.3781(4) 0.4016(4)
H269 H 0.7169 0.3749 0.4285
C339 C 0.7181(4) 0.4174(4) 0.3741(3)
C340 C 0.7465(4) 0.4532(4) 0.3857(4)
H270 H 0.7585 0.4498 0.4120
C341 C 0.7869(4) 0.5223(4) 0.3734(3)
C342 C 0.7740(6) 0.5672(4) 0.3603(4)
H271 H 0.7450 0.5764 0.3435
C343 C 0.8055(6) 0.5985(4) 0.3727(4)
H272 H 0.7966 0.6291 0.3634
C344 C 0.8469(6) 0.5889(5) 0.3963(4)
C345 C 0.8595(6) 0.5425(5) 0.4078(5)
H273 H 0.8906 0.5339 0.4225
C346 C 0.8293(5) 0.5089(4) 0.3988(4)
H274 H 0.8370 0.4783 0.4093
C347 C 0.8795(7) 0.6226(5) 0.4079(5)
H275 H 0.8790 0.6495 0.3873
H276 H 0.9170 0.6107 0.4106
H277 H 0.8645 0.6300 0.4336
C348 C 0.5063(4) 0.2475(3) 0.4084(3)
H278 H 0.5170 0.2751 0.4138
C349 C 0.5316(4) 0.2304(3) 0.3756(3)
C350 C 0.5178(4) 0.1892(3) 0.3706(3)
H279 H 0.5359 0.1759 0.3496
C351 C 0.4780(5) 0.1661(4) 0.3954(3)
H280 H 0.4679 0.1376 0.3917
C352 C 0.4534(4) 0.1870(3) 0.4264(3)
C353 C 0.4079(4) 0.1678(4) 0.4529(3)
H281 H 0.3953 0.1398 0.4497
C354 C 0.3382(4) 0.1684(3) 0.5027(3)
C355 C 0.2997(5) 0.1513(4) 0.4853(4)
H282 H 0.3032 0.1519 0.4572
C356 C 0.2552(5) 0.1329(5) 0.5072(4)
H283 H 0.2276 0.1224 0.4938
C357 C 0.2498(6) 0.1294(5) 0.5488(4)
C358 C 0.2891(5) 0.1500(4) 0.5657(4)
H284 H 0.2853 0.1511 0.5935
C359 C 0.3316(5) 0.1682(4) 0.5439(3)
H285 H 0.3579 0.1812 0.5565
C360 C 0.2015(7) 0.1078(6) 0.5729(5)
H286 H 0.2009 0.1134 0.6005
H287 H 0.2043 0.0756 0.5730
H288 H 0.1681 0.1206 0.5609
S1 S 0.87003(16) 0.97884(14) 0.03265(12)
S2 S 0.79455(18) 0.93260(15) 0.00157(12)
O1 O 0.8672(4) 0.9997(3) 0.0669(3)
O2 O 0.8835(5) 1.0040(4) -0.0057(3)
O3 O 0.8260(4) 0.9362(3) -0.0362(3)
O4 O 0.7664(6) 0.8922(4) 0.0163(3)
N49 N 0.8224(5) 0.9477(4) 0.0371(3)
C361 C 0.9276(9) 0.9404(8) 0.0398(7)
C362 C 0.7362(9) 0.9710(8) -0.0075(7)
F1 F 0.9207(4) 0.9138(4) 0.0777(3)
F2 F 0.9736(5) 0.9606(4) 0.0389(3)
F3 F 0.9324(4) 0.9108(4) 0.0147(3)
F4 F 0.7029(4) 0.9689(4) 0.0249(3)
F5 F 0.7130(4) 0.9660(4) -0.0373(4)
F6 F 0.7527(4) 1.0157(4) -0.0153(3)
S3 S 0.05480(16) 0.76676(12) 0.18053(13)
S4 S 0.11789(18) 0.83169(14) 0.13744(14)
O5 O 0.0736(4) 0.7520(3) 0.2200(3)
O6 O 0.0056(4) 0.7926(3) 0.1766(3)
O7 O 0.0960(4) 0.8604(3) 0.1642(3)
O8 O 0.1747(5) 0.8351(4) 0.1234(4)
N50 N 0.1030(6) 0.7822(4) 0.1515(4)
C363 C 0.0425(10) 0.7188(8) 0.1618(8)
C364 C 0.0829(8) 0.8501(6) 0.0906(6)
F7 F 0.0835(5) 0.6887(4) 0.1656(4)
F8 F 0.0003(7) 0.6982(5) 0.1846(5)
F9 F 0.0331(7) 0.7229(5) 0.1269(6)
F10 F 0.1014(5) 0.8239(4) 0.0646(4)
F11 F 0.0309(5) 0.8514(4) 0.0980(4)
F12 F 0.0977(5) 0.8944(4) 0.0741(4)
S5 S 0.81696(19) 0.22887(15) 0.07949(12)
S6 S 0.8099(2) 0.32090(17) 0.07894(18)
O9 O 0.7774(5) 0.2217(4) 0.1115(4)
O10 O 0.8633(5) 0.1990(4) 0.0786(3)
O11 O 0.7540(4) 0.3180(4) 0.0896(4)
O12 O 0.8296(6) 0.3569(4) 0.0502(5)
C365 C 0.7838(11) 0.2220(10) 0.0378(8)
C366 C 0.8380(11) 0.3252(9) 0.1263(8)
N51 N 0.8404(6) 0.2780(5) 0.0691(4)
F13 F 0.7465(10) 0.1913(7) 0.0397(8)
F14 F 0.7529(7) 0.2617(6) 0.0250(6)
F15 F 0.8180(5) 0.2191(4) 0.0060(4)
F16 F 0.8154(8) 0.3597(7) 0.1416(6)
F17 F 0.8340(6) 0.2902(5) 0.1536(5)
F18 F 0.8925(7) 0.3343(6) 0.1192(5)
S7 S 0.82105(17) 0.30622(15) 0.26569(14)
S8 S 0.92876(14) 0.32277(13) 0.27178(12)
O13 O 0.8403(6) 0.2726(5) 0.2401(4)
O14 O 0.7757(4) 0.3319(3) 0.2552(4)
O15 O 0.9492(4) 0.2807(3) 0.2644(3)
O16 O 0.9501(5) 0.3408(4) 0.3038(4)
C367 C 0.8030(9) 0.2706(7) 0.3112(7)
C368 C 0.9489(5) 0.3600(5) 0.2313(5)
N52 N 0.8679(4) 0.3346(4) 0.2758(5)
F19 F 0.7616(5) 0.2476(4) 0.3101(4)
F20 F 0.7838(4) 0.2973(4) 0.3390(4)
F21 F 0.8415(4) 0.2471(3) 0.3286(3)
F22 F 0.9220(6) 0.3543(4) 0.1978(4)
F23 F 0.9380(6) 0.4035(4) 0.2330(6)
F24 F 1.0007(5) 0.3575(4) 0.2154(5)
S9 S 0.57942(13) 0.10452(10) 0.28191(10)
S10 S 0.69058(15) 0.11990(12) 0.27545(12)
O17 O 0.5664(4) 0.1507(3) 0.2826(3)
O18 O 0.5486(3) 0.0832(3) 0.2585(3)
O19 O 0.6819(4) 0.1560(4) 0.2982(3)
O20 O 0.7400(4) 0.0914(3) 0.2813(3)
C369 C 0.5633(7) 0.0758(6) 0.3328(5)
C370 C 0.7001(8) 0.1474(6) 0.2230(6)
N53 N 0.6414(4) 0.0898(3) 0.2754(3)
F25 F 0.5913(4) 0.0903(3) 0.3588(3)
F26 F 0.5116(4) 0.0843(3) 0.3426(3)
F27 F 0.5732(4) 0.0323(3) 0.3366(2)
F28 F 0.7132(4) 0.1180(3) 0.2000(3)
F29 F 0.6563(3) 0.1710(3) 0.2125(3)
F30 F 0.7427(4) 0.1743(3) 0.2197(3)
S11 S 0.7852(2) 0.03291(19) 0.45290(15)
S12 S 0.89255(17) 0.01700(14) 0.46102(12)
N54 N 0.8402(5) 0.0047(4) 0.4491(4)
O21 O 0.7964(6) 0.0787(5) 0.4575(4)
O22 O 0.7487(6) 0.0237(5) 0.4239(5)
O23 O 0.8954(5) 0.0249(4) 0.5022(4)
O24 O 0.9174(4) 0.0480(4) 0.4305(3)
C371 C 0.7517(14) 0.0144(12) 0.4972(10)
C372 C 0.9249(9) -0.0319(8) 0.4609(7)
F31 F 0.7873(5) 0.0120(4) 0.5302(4)
F32 F 0.7076(7) 0.0338(6) 0.5084(5)
F33 F 0.7418(8) -0.0290(8) 0.4991(6)
F34 F 0.9139(5) -0.0666(4) 0.4894(3)
F35 F 0.9798(7) -0.0275(5) 0.4659(5)
F36 F 0.9281(4) -0.0494(3) 0.4281(3)
S13 S 0.22529(14) 0.14268(14) 0.36730(11)
S14 S 0.33509(14) 0.11906(13) 0.35701(11)
N55 N 0.2750(4) 0.1198(3) 0.3459(3)
O25 O 0.1773(3) 0.1244(3) 0.3578(2)
O26 O 0.2311(4) 0.1471(5) 0.4073(3)
O27 O 0.3483(4) 0.1524(4) 0.3798(3)
O28 O 0.3697(4) 0.1136(3) 0.3226(3)
C373 C 0.2242(8) 0.1980(7) 0.3405(8)
C374 C 0.3420(9) 0.0681(7) 0.3900(7)
F37 F 0.1777(4) 0.2221(3) 0.3519(4)
F38 F 0.2193(4) 0.1993(3) 0.2998(4)
F39 F 0.2656(4) 0.2206(3) 0.3438(4)
F40 F 0.3930(5) 0.0583(4) 0.3995(3)
F41 F 0.3301(4) 0.0333(3) 0.3760(3)
F42 F 0.3137(5) 0.0668(3) 0.4248(3)
S15 S 0.16923(18) 0.31861(16) 0.14864(15)
S16 S 0.2706(2) 0.27376(18) 0.15361(16)
N56 N 0.2327(5) 0.3172(4) 0.1455(4)
O29 O 0.1443(5) 0.2787(4) 0.1580(4)
O30 O 0.1493(6) 0.3512(5) 0.1183(5)
O31 O 0.3233(6) 0.2877(5) 0.1572(5)
O32 O 0.2469(7) 0.2377(6) 0.1808(5)
C375 C 0.1539(8) 0.3439(6) 0.1897(6)
C376 C 0.2795(10) 0.2536(8) 0.1099(7)
F43 F 0.1053(5) 0.3443(4) 0.2056(4)
F44 F 0.1721(5) 0.3859(4) 0.1872(3)
F45 F 0.1807(5) 0.3227(4) 0.2232(4)
F46 F 0.2291(5) 0.2483(4) 0.0947(4)
F47 F 0.3022(7) 0.2137(6) 0.1138(5)
F48 F 0.3050(7) 0.2788(6) 0.0815(5)
S17 S 0.6387(2) 0.5025(3) 0.4475(2)
S18 S 0.7151(4) 0.4674(3) 0.5070(2)
C377 C 0.6660(5) 0.4321(4) 0.5403(3)
F49 F 0.6326(7) 0.4560(6) 0.5621(5)
F50 F 0.6349(7) 0.4112(6) 0.5196(5)
F51 F 0.6908(7) 0.4004(5) 0.5661(5)
N57 N 0.6775(8) 0.4965(8) 0.4799(6)
C378 C 0.5795(16) 0.5306(13) 0.4618(13)
O33 O 0.6559(8) 0.5477(7) 0.4139(6)
O34 O 0.6286(5) 0.4650(4) 0.4319(4)
O35 O 0.7425(6) 0.4856(5) 0.5316(5)
O36 O 0.7421(9) 0.4337(8) 0.4846(7)
F52 F 0.5870(7) 0.5608(6) 0.4811(5)
F53 F 0.5566(7) 0.4977(6) 0.4931(6)
F54 F 0.5412(7) 0.5337(5) 0.4397(5)
S19 S 0.6186(3) 0.6013(2) 0.17539(18)
S20 S 0.6800(5) 0.6759(3) 0.1542(3)
C379 C 0.6713(6) 0.7089(5) 0.1953(4)
F55 F 0.6865(10) 0.7508(4) 0.1832(6)
F56 F 0.6196(7) 0.7113(10) 0.2098(7)
F57 F 0.7007(10) 0.6910(7) 0.2261(4)
N58 N 0.6707(8) 0.6278(7) 0.1747(6)
C380 C 0.639(2) 0.5670(15) 0.1363(13)
O37 O 0.5694(8) 0.6269(7) 0.1638(6)
O38 O 0.6143(5) 0.5690(5) 0.2089(4)
O39 O 0.6346(11) 0.6968(10) 0.1220(9)
O40 O 0.7465(10) 0.6707(11) 0.1457(10)
F58 F 0.6851(10) 0.5445(7) 0.1415(7)
F59 F 0.5883(8) 0.5510(6) 0.1281(6)
F60 F 0.6458(8) 0.6007(7) 0.1004(6)
S21 S 0.4524(3) 0.68570(19) 0.29170(19)
C381 C 0.4770(6) 0.7352(4) 0.2565(4)
F61 F 0.4758(11) 0.7302(7) 0.2183(3)
F62 F 0.4468(10) 0.7722(3) 0.2608(7)
F63 F 0.5281(7) 0.7432(7) 0.2622(7)
N59 N 0.4437(13) 0.6982(10) 0.3346(10)
S22 S 0.4834(4) 0.6780(3) 0.3658(3)
C382 C 0.4505(4) 0.6293(3) 0.3968(3)
F64 F 0.4847(7) 0.6046(5) 0.4213(5)
F65 F 0.4081(6) 0.6418(5) 0.4199(4)
F66 F 0.4320(7) 0.6023(4) 0.3743(5)
O41 O 0.4835(7) 0.6502(6) 0.2827(5)
O42 O 0.3958(7) 0.6870(6) 0.2817(5)
O43 O 0.5007(9) 0.7043(8) 0.3920(7)
O44 O 0.5360(10) 0.6519(8) 0.3508(7)
S23 S 0.1556(3) 0.3883(3) 0.3537(2)
C383 C 0.1031(3) 0.4005(3) 0.3169(2)
F67 F 0.1162(5) 0.3815(4) 0.2846(2)
F68 F 0.0550(3) 0.3855(4) 0.3325(3)
F69 F 0.0957(4) 0.4444(3) 0.3038(2)
S24 S 0.1059(3) 0.4257(3) 0.4135(2)
C384 C 0.1500(5) 0.4172(4) 0.4561(2)
F70 F 0.1810(5) 0.3795(5) 0.4577(2)
F71 F 0.1835(6) 0.4507(5) 0.4536(3)
F72 F 0.1211(6) 0.4146(5) 0.4913(2)
O45 O 0.0653(12) 0.3901(11) 0.4328(9)
O46 O 0.0793(13) 0.4670(11) 0.4229(10)
N60 N 0.1371(14) 0.4300(12) 0.3715(9)
O47 O 0.2053(5) 0.4029(4) 0.3327(4)
O48 O 0.1482(11) 0.3261(10) 0.3402(8)
S25 S 0.8690(2) 0.73005(19) 0.30096(16)
C385 C 0.9247(3) 0.6917(2) 0.2861(2)
F73 F 0.9332(4) 0.6963(3) 0.2463(3)
F74 F 0.9716(3) 0.6991(3) 0.3003(4)
F75 F 0.9143(4) 0.6489(2) 0.2998(3)
S26 S 0.9012(3) 0.8084(2) 0.3189(3)
C386 C 0.8322(3) 0.8189(2) 0.3413(3)
F76 F 0.7947(3) 0.7992(3) 0.3249(3)
F77 F 0.8280(5) 0.8034(3) 0.3807(3)
F78 F 0.8180(5) 0.8625(3) 0.3362(4)
O49 O 0.9093(7) 0.8485(6) 0.2882(5)
O50 O 0.9392(15) 0.7735(13) 0.3393(13)
O51 O 0.8589(13) 0.7159(11) 0.3470(10)
O52 O 0.8181(13) 0.7134(10) 0.2810(11)
N61 N 0.8733(12) 0.7806(6) 0.2917(8)
S27 S 0.72447(16) 0.19717(17) 0.44160(15)
C387 C 0.6882(2) 0.1705(2) 0.40709(17)
F79 F 0.6350(2) 0.1695(3) 0.4172(2)
F80 F 0.6940(4) 0.1922(3) 0.36925(15)
F81 F 0.7064(3) 0.1283(2) 0.4069(2)
S28 S 0.64327(18) 0.24234(17) 0.48173(16)
C388 C 0.7064(2) 0.2615(2) 0.49771(19)
F82 F 0.7062(4) 0.3060(2) 0.4932(3)
F83 F 0.7136(4) 0.2455(3) 0.5363(2)
F84 F 0.7503(2) 0.2484(3) 0.4765(2)
N62 N 0.6839(10) 0.2375(8) 0.4502(7)
O53 O 0.6182(9) 0.2114(7) 0.5043(7)
O54 O 0.7773(9) 0.2018(8) 0.4228(8)
O55 O 0.7187(9) 0.1594(8) 0.4841(7)
O56 O 0.6111(6) 0.2757(5) 0.4613(4)
N63 N 0.6617(6) 0.9370(5) 0.3637(4)
C389 C 0.6499(6) 0.9455(5) 0.3943(5)
C390 C 0.6372(7) 0.9543(5) 0.4333(5)
H289 H 0.5989 0.9641 0.4361
H290 H 0.6599 0.9778 0.4382
H291 H 0.6440 0.9270 0.4528
N64 N 0.3451(8) 0.0196(6) 0.2515(6)
C391 C 0.3792(8) 0.0191(6) 0.2737(6)
C392 C 0.4237(8) 0.0199(6) 0.2965(6)
H292 H 0.4544 0.0025 0.2861
H293 H 0.4142 0.0069 0.3245
H294 H 0.4337 0.0509 0.2949
N65 N 0.2737(9) 0.0358(7) 0.1509(7)
C393 C 0.3170(10) 0.0367(9) 0.1578(8)
C394 C 0.3758(10) 0.0218(10) 0.1478(9)
H295 H 0.3801 0.0172 0.1198
H296 H 0.3851 -0.0062 0.1655
H297 H 0.4000 0.0448 0.1515
N66 N 0.3219(5) 0.3871(4) 0.4684(4)
C395 C 0.2956(6) 0.3942(4) 0.4960(5)
C396 C 0.2642(7) 0.4016(6) 0.5308(5)
H298 H 0.2313 0.4196 0.5231
H299 H 0.2852 0.4174 0.5466
H300 H 0.2541 0.3728 0.5468
loop_
_geom_bond_atom_site_label_1
_geom_bond_atom_site_label_2
_geom_bond_site_symmetry_1
_geom_bond_site_symmetry_2
Zn1 N1 1_555 1_555
Zn2 N5 1_555 1_555
Zn3 N3 1_555 1_555
Zn4 N9 1_555 1_555
N1 C1 1_555 1_555
N2 Zn1 1_555 1_555
N3 C20 1_555 1_555
N4 Zn3 1_555 1_555
N5 C33 1_555 1_555
N6 Zn2 1_555 1_555
N7 Zn1 1_555 1_555
N8 Zn1 1_555 1_555
N9 C65 1_555 1_555
N10 Zn4 1_555 1_555
N11 Zn2 1_555 1_555
N12 Zn2 1_555 1_555
N13 Zn1 1_555 1_555
N14 Zn1 1_555 1_555
N15 Zn3 1_555 1_555
N16 Zn3 1_555 1_555
N17 Zn4 1_555 1_555
N18 Zn4 1_555 1_555
N19 Zn3 1_555 1_555
N20 Zn3 1_555 1_555
N21 Zn2 1_555 1_555
N22 Zn2 1_555 1_555
N23 Zn4 1_555 1_555
N24 Zn4 1_555 1_555
C1 C2 1_555 1_555
C2 H1 1_555 1_555
C3 C2 1_555 1_555
H2 C3 1_555 1_555
C4 C3 1_555 1_555
C5 C4 1_555 1_555
H3 C5 1_555 1_555
C6 C1 1_555 1_555
H4 C6 1_555 1_555
C7 C4 1_555 1_555
H5 C7 1_555 1_555
H6 C7 1_555 1_555
H7 C7 1_555 1_555
C8 N1 1_555 1_555
H8 C8 1_555 1_555
C9 N2 1_555 1_555
C10 C9 1_555 1_555
H9 C10 1_555 1_555
C11 C10 1_555 1_555
H10 C11 1_555 1_555
C12 C11 1_555 1_555
C13 N2 1_555 1_555
H11 C13 1_555 1_555
C14 C12 1_555 1_555
C15 C14 1_555 1_555
H12 C15 1_555 1_555
C16 C15 1_555 1_555
C17 C16 1_555 1_555
H13 C17 1_555 1_555
C18 C17 1_555 1_555
C19 C14 1_555 1_555
H14 C19 1_555 1_555
C20 H15 1_555 1_555
C21 C18 1_555 1_555
C22 C21 1_555 1_555
H16 C22 1_555 1_555
C23 C22 1_555 1_555
H17 C23 1_555 1_555
C24 N3 1_555 1_555
C25 N4 1_555 1_555
H18 C25 1_555 1_555
C26 N4 1_555 1_555
C27 C26 1_555 1_555
H19 C27 1_555 1_555
C28 C27 1_555 1_555
H20 C28 1_555 1_555
C29 C28 1_555 1_555
C30 C29 1_555 1_555
H21 C30 1_555 1_555
C31 C26 1_555 1_555
H22 C31 1_555 1_555
C32 C29 1_555 1_555
H23 C32 1_555 1_555
H24 C32 1_555 1_555
H25 C32 1_555 1_555
C33 H26 1_555 1_555
C34 C16 1_555 1_555
C35 C34 1_555 1_555
H27 C35 1_555 1_555
C36 C35 1_555 1_555
H28 C36 1_555 1_555
C37 N5 1_555 1_555
C38 N6 1_555 1_555
H29 C38 1_555 1_555
C39 N6 1_555 1_555
C40 C39 1_555 1_555
H30 C40 1_555 1_555
C41 C40 1_555 1_555
H31 C41 1_555 1_555
C42 C41 1_555 1_555
C43 C42 1_555 1_555
H32 C43 1_555 1_555
C44 C39 1_555 1_555
H33 C44 1_555 1_555
C45 C42 1_555 1_555
H34 C45 1_555 1_555
H35 C45 1_555 1_555
H36 C45 1_555 1_555
C46 N7 1_555 1_555
C47 C46 1_555 1_555
H37 C47 1_555 1_555
C48 C47 1_555 1_555
H38 C48 1_555 1_555
C49 C48 1_555 1_555
C50 C49 1_555 1_555
H39 C50 1_555 1_555
C51 C46 1_555 1_555
H40 C51 1_555 1_555
C52 C49 1_555 1_555
H41 C52 1_555 1_555
H42 C52 1_555 1_555
H43 C52 1_555 1_555
C53 N7 1_555 1_555
H44 C53 1_555 1_555
C54 N8 1_555 1_555
C55 C54 1_555 1_555
H45 C55 1_555 1_555
C56 C55 1_555 1_555
H46 C56 1_555 1_555
C57 C56 1_555 1_555
C58 N8 1_555 1_555
H47 C58 1_555 1_555
C59 C57 1_555 1_555
C60 C59 1_555 1_555
H48 C60 1_555 1_555
C61 C60 1_555 1_555
C62 C61 1_555 1_555
H49 C62 1_555 1_555
C63 C62 1_555 1_555
C64 C59 1_555 1_555
H50 C64 1_555 1_555
C65 H51 1_555 1_555
C66 C63 1_555 1_555
C67 C66 1_555 1_555
H52 C67 1_555 1_555
C68 C67 1_555 1_555
H53 C68 1_555 1_555
C69 N9 1_555 1_555
C70 N10 1_555 1_555
H54 C70 1_555 1_555
C71 N10 1_555 1_555
C72 C71 1_555 1_555
H55 C72 1_555 1_555
C73 C72 1_555 1_555
H56 C73 1_555 1_555
C74 C73 1_555 1_555
C75 C74 1_555 1_555
H57 C75 1_555 1_555
C76 C71 1_555 1_555
H58 C76 1_555 1_555
C77 C74 1_555 1_555
H59 C77 1_555 1_555
H60 C77 1_555 1_555
H61 C77 1_555 1_555
C78 N11 1_555 1_555
H62 C78 1_555 1_555
C79 C61 1_555 1_555
C80 C79 1_555 1_555
H63 C80 1_555 1_555
C81 C80 1_555 1_555
H64 C81 1_555 1_555
C82 N11 1_555 1_555
C83 N12 1_555 1_555
H65 C83 1_555 1_555
C84 N12 1_555 1_555
C85 C84 1_555 1_555
H66 C85 1_555 1_555
C86 C85 1_555 1_555
H67 C86 1_555 1_555
C87 C86 1_555 1_555
C88 C87 1_555 1_555
H68 C88 1_555 1_555
C89 C84 1_555 1_555
H69 C89 1_555 1_555
C90 C87 1_555 1_555
H70 C90 1_555 1_555
H71 C90 1_555 1_555
H72 C90 1_555 1_555
C91 N13 1_555 1_555
C92 C91 1_555 1_555
H73 C92 1_555 1_555
C93 C92 1_555 1_555
H74 C93 1_555 1_555
C94 C93 1_555 1_555
C95 C94 1_555 1_555
H75 C95 1_555 1_555
C96 C91 1_555 1_555
H76 C96 1_555 1_555
C97 C94 1_555 1_555
H77 C97 1_555 1_555
H78 C97 1_555 1_555
H79 C97 1_555 1_555
C98 N13 1_555 1_555
H80 C98 1_555 1_555
C99 N14 1_555 1_555
C100 C99 1_555 1_555
H81 C100 1_555 1_555
C101 C100 1_555 1_555
H82 C101 1_555 1_555
C102 C101 1_555 1_555
C103 N14 1_555 1_555
H83 C103 1_555 1_555
C104 C102 1_555 1_555
C105 C104 1_555 1_555
H84 C105 1_555 1_555
C106 C105 1_555 1_555
C107 C106 1_555 1_555
H85 C107 1_555 1_555
C108 C107 1_555 1_555
C109 C104 1_555 1_555
H86 C109 1_555 1_555
C110 N17 1_555 1_555
H87 C110 1_555 1_555
C111 C108 1_555 1_555
C112 C111 1_555 1_555
H88 C112 1_555 1_555
C113 C112 1_555 1_555
H89 C113 1_555 1_555
C114 N17 1_555 1_555
C115 N18 1_555 1_555
H90 C115 1_555 1_555
C116 N18 1_555 1_555
C117 C116 1_555 1_555
H91 C117 1_555 1_555
C118 C117 1_555 1_555
H92 C118 1_555 1_555
C119 C118 1_555 1_555
C120 C119 1_555 1_555
H93 C120 1_555 1_555
C121 C116 1_555 1_555
H94 C121 1_555 1_555
C122 C119 1_555 1_555
H95 C122 1_555 1_555
H96 C122 1_555 1_555
H97 C122 1_555 1_555
C123 N15 1_555 1_555
H98 C123 1_555 1_555
C124 C106 1_555 1_555
C125 C124 1_555 1_555
H99 C125 1_555 1_555
C126 C125 1_555 1_555
H100 C126 1_555 1_555
C127 N15 1_555 1_555
C128 N16 1_555 1_555
H101 C128 1_555 1_555
C129 N16 1_555 1_555
C130 C129 1_555 1_555
H102 C130 1_555 1_555
C131 C130 1_555 1_555
H103 C131 1_555 1_555
C132 C131 1_555 1_555
C133 C132 1_555 1_555
H104 C133 1_555 1_555
C134 C129 1_555 1_555
H105 C134 1_555 1_555
C135 C132 1_555 1_555
H106 C135 1_555 1_555
H107 C135 1_555 1_555
H108 C135 1_555 1_555
C136 N19 1_555 1_555
C137 C136 1_555 1_555
H109 C137 1_555 1_555
C138 C137 1_555 1_555
H110 C138 1_555 1_555
C139 C138 1_555 1_555
C140 C139 1_555 1_555
H111 C140 1_555 1_555
C141 C136 1_555 1_555
H112 C141 1_555 1_555
C142 C139 1_555 1_555
H113 C142 1_555 1_555
H114 C142 1_555 1_555
H115 C142 1_555 1_555
C143 N19 1_555 1_555
H116 C143 1_555 1_555
C144 N20 1_555 1_555
C145 C144 1_555 1_555
H117 C145 1_555 1_555
C146 C145 1_555 1_555
H118 C146 1_555 1_555
C147 C146 1_555 1_555
C148 N20 1_555 1_555
H119 C148 1_555 1_555
C149 C147 1_555 1_555
C150 C149 1_555 1_555
H120 C150 1_555 1_555
C151 C150 1_555 1_555
C152 C151 1_555 1_555
H121 C152 1_555 1_555
C153 C152 1_555 1_555
C154 C149 1_555 1_555
H122 C154 1_555 1_555
C155 N21 1_555 1_555
H123 C155 1_555 1_555
C156 C153 1_555 1_555
C157 C156 1_555 1_555
H124 C157 1_555 1_555
C158 C157 1_555 1_555
H125 C158 1_555 1_555
C159 N21 1_555 1_555
C160 N22 1_555 1_555
H126 C160 1_555 1_555
C161 N22 1_555 1_555
C162 C161 1_555 1_555
H127 C162 1_555 1_555
C163 C162 1_555 1_555
H128 C163 1_555 1_555
C164 C163 1_555 1_555
C165 C164 1_555 1_555
H129 C165 1_555 1_555
C166 C161 1_555 1_555
H130 C166 1_555 1_555
C167 C164 1_555 1_555
H131 C167 1_555 1_555
H132 C167 1_555 1_555
H133 C167 1_555 1_555
C168 N23 1_555 1_555
H134 C168 1_555 1_555
C169 C151 1_555 1_555
C170 C169 1_555 1_555
H135 C170 1_555 1_555
C171 C170 1_555 1_555
H136 C171 1_555 1_555
C172 N23 1_555 1_555
C173 N24 1_555 1_555
H137 C173 1_555 1_555
C174 N24 1_555 1_555
C175 C174 1_555 1_555
H138 C175 1_555 1_555
C176 C175 1_555 1_555
H139 C176 1_555 1_555
C177 C176 1_555 1_555
C178 C177 1_555 1_555
H140 C178 1_555 1_555
C179 C174 1_555 1_555
H141 C179 1_555 1_555
C180 C177 1_555 1_555
H142 C180 1_555 1_555
H143 C180 1_555 1_555
H144 C180 1_555 1_555
Zn5 N25 1_555 1_555
Zn6 N33 1_555 1_555
Zn7 N29 1_555 1_555
Zn8 N27 1_555 1_555
N25 C181 1_555 1_555
N26 Zn5 1_555 1_555
N27 C213 1_555 1_555
N28 Zn8 1_555 1_555
N29 C200 1_555 1_555
N30 Zn7 1_555 1_555
N31 Zn5 1_555 1_555
N32 Zn5 1_555 1_555
N33 C245 1_555 1_555
N34 Zn6 1_555 1_555
N35 Zn8 1_555 1_555
N36 Zn8 1_555 1_555
N37 Zn8 1_555 1_555
N38 Zn8 1_555 1_555
N39 Zn6 1_555 1_555
N40 Zn6 1_555 1_555
N41 Zn7 1_555 1_555
N42 Zn7 1_555 1_555
N43 Zn7 1_555 1_555
N44 Zn7 1_555 1_555
N45 Zn6 1_555 1_555
N46 Zn6 1_555 1_555
N47 Zn5 1_555 1_555
N48 Zn5 1_555 1_555
C181 C182 1_555 1_555
C182 H145 1_555 1_555
C183 C182 1_555 1_555
H146 C183 1_555 1_555
C184 C183 1_555 1_555
C185 C184 1_555 1_555
H147 C185 1_555 1_555
C186 C181 1_555 1_555
H148 C186 1_555 1_555
C187 C184 1_555 1_555
H149 C187 1_555 1_555
H150 C187 1_555 1_555
H151 C187 1_555 1_555
C188 N25 1_555 1_555
H152 C188 1_555 1_555
C189 N26 1_555 1_555
C190 C189 1_555 1_555
H153 C190 1_555 1_555
C191 C190 1_555 1_555
H154 C191 1_555 1_555
C192 C191 1_555 1_555
C193 N26 1_555 1_555
H155 C193 1_555 1_555
C194 C192 1_555 1_555
C195 C194 1_555 1_555
H156 C195 1_555 1_555
C196 C195 1_555 1_555
C197 C196 1_555 1_555
H157 C197 1_555 1_555
C198 C197 1_555 1_555
C199 C194 1_555 1_555
H158 C199 1_555 1_555
C200 H159 1_555 1_555
C201 C198 1_555 1_555
C202 C201 1_555 1_555
H160 C202 1_555 1_555
C203 C202 1_555 1_555
H161 C203 1_555 1_555
C204 N29 1_555 1_555
C205 N30 1_555 1_555
H162 C205 1_555 1_555
C206 N30 1_555 1_555
C207 C206 1_555 1_555
H163 C207 1_555 1_555
C208 C207 1_555 1_555
H164 C208 1_555 1_555
C209 C208 1_555 1_555
C210 C209 1_555 1_555
H165 C210 1_555 1_555
C211 C206 1_555 1_555
H166 C211 1_555 1_555
C212 C209 1_555 1_555
H167 C212 1_555 1_555
H168 C212 1_555 1_555
H169 C212 1_555 1_555
C213 H170 1_555 1_555
C214 C196 1_555 1_555
C215 C214 1_555 1_555
H171 C215 1_555 1_555
C216 C215 1_555 1_555
H172 C216 1_555 1_555
C217 N27 1_555 1_555
C218 N28 1_555 1_555
H173 C218 1_555 1_555
C219 N28 1_555 1_555
C220 C219 1_555 1_555
H174 C220 1_555 1_555
C221 C220 1_555 1_555
H175 C221 1_555 1_555
C222 C221 1_555 1_555
C223 C222 1_555 1_555
H176 C223 1_555 1_555
C224 C219 1_555 1_555
H177 C224 1_555 1_555
C225 C222 1_555 1_555
H178 C225 1_555 1_555
H179 C225 1_555 1_555
H180 C225 1_555 1_555
C226 N31 1_555 1_555
C227 C226 1_555 1_555
H181 C227 1_555 1_555
C228 C227 1_555 1_555
H182 C228 1_555 1_555
C229 C228 1_555 1_555
C230 C229 1_555 1_555
H183 C230 1_555 1_555
C231 C226 1_555 1_555
H184 C231 1_555 1_555
C232 C229 1_555 1_555
H185 C232 1_555 1_555
H186 C232 1_555 1_555
H187 C232 1_555 1_555
C233 N31 1_555 1_555
H188 C233 1_555 1_555
C234 N32 1_555 1_555
C235 C234 1_555 1_555
H189 C235 1_555 1_555
C236 C235 1_555 1_555
H190 C236 1_555 1_555
C237 C236 1_555 1_555
C238 N32 1_555 1_555
H191 C238 1_555 1_555
C239 C237 1_555 1_555
C240 C239 1_555 1_555
H192 C240 1_555 1_555
C241 C240 1_555 1_555
C242 C241 1_555 1_555
H193 C242 1_555 1_555
C243 C242 1_555 1_555
C244 C239 1_555 1_555
H194 C244 1_555 1_555
C245 H195 1_555 1_555
C246 C243 1_555 1_555
C247 C246 1_555 1_555
H196 C247 1_555 1_555
C248 C247 1_555 1_555
H197 C248 1_555 1_555
C249 N33 1_555 1_555
C250 N34 1_555 1_555
H198 C250 1_555 1_555
C251 N34 1_555 1_555
C252 C251 1_555 1_555
H199 C252 1_555 1_555
C253 C252 1_555 1_555
H200 C253 1_555 1_555
C254 C253 1_555 1_555
C255 C254 1_555 1_555
H201 C255 1_555 1_555
C256 C251 1_555 1_555
H202 C256 1_555 1_555
C257 C254 1_555 1_555
H203 C257 1_555 1_555
H204 C257 1_555 1_555
H205 C257 1_555 1_555
C258 N35 1_555 1_555
H206 C258 1_555 1_555
C259 C241 1_555 1_555
C260 C259 1_555 1_555
H207 C260 1_555 1_555
C261 C260 1_555 1_555
H208 C261 1_555 1_555
C262 N35 1_555 1_555
C263 N36 1_555 1_555
H209 C263 1_555 1_555
C264 N36 1_555 1_555
C265 C264 1_555 1_555
H210 C265 1_555 1_555
C266 C265 1_555 1_555
H211 C266 1_555 1_555
C267 C266 1_555 1_555
C268 C267 1_555 1_555
H212 C268 1_555 1_555
C269 C264 1_555 1_555
H213 C269 1_555 1_555
C270 C267 1_555 1_555
H214 C270 1_555 1_555
H215 C270 1_555 1_555
H216 C270 1_555 1_555
C271 N43 1_555 1_555
C272 C271 1_555 1_555
H217 C272 1_555 1_555
C273 C272 1_555 1_555
H218 C273 1_555 1_555
C274 C273 1_555 1_555
C275 C274 1_555 1_555
H219 C275 1_555 1_555
C276 C271 1_555 1_555
H220 C276 1_555 1_555
C277 C274 1_555 1_555
H221 C277 1_555 1_555
H222 C277 1_555 1_555
H223 C277 1_555 1_555
C278 N43 1_555 1_555
H224 C278 1_555 1_555
C279 N44 1_555 1_555
C280 C279 1_555 1_555
H225 C280 1_555 1_555
C281 C280 1_555 1_555
H226 C281 1_555 1_555
C282 C281 1_555 1_555
C283 N44 1_555 1_555
H227 C283 1_555 1_555
C284 C282 1_555 1_555
C285 C284 1_555 1_555
H228 C285 1_555 1_555
C286 C285 1_555 1_555
C287 C286 1_555 1_555
H229 C287 1_555 1_555
C288 C287 1_555 1_555
C289 C284 1_555 1_555
H230 C289 1_555 1_555
C290 N47 1_555 1_555
H231 C290 1_555 1_555
C291 C286 1_555 1_555
C292 C291 1_555 1_555
H232 C292 1_555 1_555
C293 C292 1_555 1_555
H233 C293 1_555 1_555
C294 N47 1_555 1_555
C295 N48 1_555 1_555
H234 C295 1_555 1_555
C296 N48 1_555 1_555
C297 C296 1_555 1_555
H235 C297 1_555 1_555
C298 C297 1_555 1_555
H236 C298 1_555 1_555
C299 C298 1_555 1_555
C300 C299 1_555 1_555
H237 C300 1_555 1_555
C301 C296 1_555 1_555
H238 C301 1_555 1_555
C302 C299 1_555 1_555
H239 C302 1_555 1_555
H240 C302 1_555 1_555
H241 C302 1_555 1_555
C303 N45 1_555 1_555
H242 C303 1_555 1_555
C304 C288 1_555 1_555
C305 C304 1_555 1_555
H243 C305 1_555 1_555
C306 C305 1_555 1_555
H244 C306 1_555 1_555
C307 N45 1_555 1_555
C308 N46 1_555 1_555
H245 C308 1_555 1_555
C309 N46 1_555 1_555
C310 C309 1_555 1_555
H246 C310 1_555 1_555
C311 C310 1_555 1_555
H247 C311 1_555 1_555
C312 C311 1_555 1_555
C313 C312 1_555 1_555
H248 C313 1_555 1_555
C314 C309 1_555 1_555
H249 C314 1_555 1_555
C315 C312 1_555 1_555
H250 C315 1_555 1_555
H251 C315 1_555 1_555
H252 C315 1_555 1_555
C316 N37 1_555 1_555
C317 C316 1_555 1_555
H253 C317 1_555 1_555
C318 C317 1_555 1_555
H254 C318 1_555 1_555
C319 C318 1_555 1_555
C320 C319 1_555 1_555
H255 C320 1_555 1_555
C321 C316 1_555 1_555
H256 C321 1_555 1_555
C322 C319 1_555 1_555
H257 C322 1_555 1_555
H258 C322 1_555 1_555
H259 C322 1_555 1_555
C323 N37 1_555 1_555
H260 C323 1_555 1_555
C324 N38 1_555 1_555
C325 C324 1_555 1_555
H261 C325 1_555 1_555
C326 C325 1_555 1_555
H262 C326 1_555 1_555
C327 C326 1_555 1_555
C328 N38 1_555 1_555
H263 C328 1_555 1_555
C329 C327 1_555 1_555
C330 C329 1_555 1_555
H264 C330 1_555 1_555
C331 C330 1_555 1_555
C332 C331 1_555 1_555
H265 C332 1_555 1_555
C333 C332 1_555 1_555
C334 C329 1_555 1_555
H266 C334 1_555 1_555
C335 N41 1_555 1_555
H267 C335 1_555 1_555
C336 C333 1_555 1_555
C337 C336 1_555 1_555
H268 C337 1_555 1_555
C338 C337 1_555 1_555
H269 C338 1_555 1_555
C339 N41 1_555 1_555
C340 N42 1_555 1_555
H270 C340 1_555 1_555
C341 N42 1_555 1_555
C342 C341 1_555 1_555
H271 C342 1_555 1_555
C343 C342 1_555 1_555
H272 C343 1_555 1_555
C344 C343 1_555 1_555
C345 C344 1_555 1_555
H273 C345 1_555 1_555
C346 C341 1_555 1_555
H274 C346 1_555 1_555
C347 C344 1_555 1_555
H275 C347 1_555 1_555
H276 C347 1_555 1_555
H277 C347 1_555 1_555
C348 N39 1_555 1_555
H278 C348 1_555 1_555
C349 C331 1_555 1_555
C350 C349 1_555 1_555
H279 C350 1_555 1_555
C351 C350 1_555 1_555
H280 C351 1_555 1_555
C352 N39 1_555 1_555
C353 N40 1_555 1_555
H281 C353 1_555 1_555
C354 N40 1_555 1_555
C355 C354 1_555 1_555
H282 C355 1_555 1_555
C356 C355 1_555 1_555
H283 C356 1_555 1_555
C357 C356 1_555 1_555
C358 C357 1_555 1_555
H284 C358 1_555 1_555
C359 C354 1_555 1_555
H285 C359 1_555 1_555
C360 C357 1_555 1_555
H286 C360 1_555 1_555
H287 C360 1_555 1_555
H288 C360 1_555 1_555
S1 O1 1_555 1_555
S2 O3 1_555 1_555
O2 S1 1_555 1_555
O4 S2 1_555 1_555
N49 S1 1_555 1_555
C361 S1 1_555 1_555
C362 S2 1_555 1_555
F1 C361 1_555 1_555
F2 C361 1_555 1_555
F3 C361 1_555 1_555
F4 C362 1_555 1_555
F5 C362 1_555 1_555
F6 C362 1_555 1_555
S3 O5 1_555 1_555
S4 O7 1_555 1_555
O6 S3 1_555 1_555
O8 S4 1_555 1_555
N50 S3 1_555 1_555
C363 S3 1_555 1_555
C364 S4 1_555 1_555
F7 C363 1_555 1_555
F8 C363 1_555 1_555
F9 C363 1_555 1_555
F10 C364 1_555 1_555
F11 C364 1_555 1_555
F12 C364 1_555 1_555
S5 O9 1_555 1_555
S6 O11 1_555 1_555
O10 S5 1_555 1_555
O12 S6 1_555 1_555
C365 S5 1_555 1_555
C366 S6 1_555 1_555
N51 S5 1_555 1_555
F13 C365 1_555 1_555
F14 C365 1_555 1_555
F15 C365 1_555 1_555
F16 C366 1_555 1_555
F17 C366 1_555 1_555
F18 C366 1_555 1_555
S7 O13 1_555 1_555
S8 O15 1_555 1_555
O14 S7 1_555 1_555
O16 S8 1_555 1_555
C367 S7 1_555 1_555
C368 S8 1_555 1_555
N52 S7 1_555 1_555
F19 C367 1_555 1_555
F20 C367 1_555 1_555
F21 C367 1_555 1_555
F22 C368 1_555 1_555
F23 C368 1_555 1_555
F24 C368 1_555 1_555
S9 O17 1_555 1_555
S10 O19 1_555 1_555
O18 S9 1_555 1_555
O20 S10 1_555 1_555
C369 S9 1_555 1_555
C370 S10 1_555 1_555
N53 S9 1_555 1_555
F25 C369 1_555 1_555
F26 C369 1_555 1_555
F27 C369 1_555 1_555
F28 C370 1_555 1_555
F29 C370 1_555 1_555
F30 C370 1_555 1_555
S11 N54 1_555 1_555
S12 N54 1_555 1_555
O21 S11 1_555 1_555
O22 S11 1_555 1_555
O23 S12 1_555 1_555
O24 S12 1_555 1_555
C371 S11 1_555 1_555
C372 S12 1_555 1_555
F31 C371 1_555 1_555
F32 C371 1_555 1_555
F33 C371 1_555 1_555
F34 C372 1_555 1_555
F35 C372 1_555 1_555
F36 C372 1_555 1_555
S13 N55 1_555 1_555
S14 N55 1_555 1_555
O25 S13 1_555 1_555
O26 S13 1_555 1_555
O27 S14 1_555 1_555
O28 S14 1_555 1_555
C373 S13 1_555 1_555
C374 S14 1_555 1_555
F37 C373 1_555 1_555
F38 C373 1_555 1_555
F39 C373 1_555 1_555
F40 C374 1_555 1_555
F41 C374 1_555 1_555
F42 C374 1_555 1_555
S15 N56 1_555 1_555
S16 N56 1_555 1_555
O29 S15 1_555 1_555
O30 S15 1_555 1_555
O31 S16 1_555 1_555
O32 S16 1_555 1_555
C375 S15 1_555 1_555
C376 S16 1_555 1_555
F43 C375 1_555 1_555
F44 C375 1_555 1_555
F45 C375 1_555 1_555
F46 C376 1_555 1_555
F47 C376 1_555 1_555
F48 C376 1_555 1_555
S17 N57 1_555 1_555
S18 C377 1_555 1_555
C377 F49 1_555 1_555
F50 C377 1_555 1_555
F51 C377 1_555 1_555
N57 S18 1_555 1_555
C378 S17 1_555 1_555
O33 S17 1_555 1_555
O34 S17 1_555 1_555
O35 S18 1_555 1_555
O36 S18 1_555 1_555
F52 C378 1_555 1_555
F53 C378 1_555 1_555
F54 C378 1_555 1_555
S19 N58 1_555 1_555
S20 C379 1_555 1_555
C379 F55 1_555 1_555
F56 C379 1_555 1_555
F57 C379 1_555 1_555
N58 S20 1_555 1_555
C380 S19 1_555 1_555
O37 S19 1_555 1_555
O38 S19 1_555 1_555
O39 S20 1_555 1_555
O40 S20 1_555 1_555
F58 C380 1_555 1_555
F59 C380 1_555 1_555
F60 C380 1_555 1_555
S21 C381 1_555 1_555
C381 F61 1_555 1_555
F62 C381 1_555 1_555
F63 C381 1_555 1_555
N59 S21 1_555 1_555
S22 N59 1_555 1_555
C382 S22 1_555 1_555
F64 C382 1_555 1_555
F65 C382 1_555 1_555
F66 C382 1_555 1_555
O41 S21 1_555 1_555
O42 S21 1_555 1_555
O43 S22 1_555 1_555
O44 S22 1_555 1_555
S23 C383 1_555 1_555
C383 F67 1_555 1_555
F68 C383 1_555 1_555
F69 C383 1_555 1_555
S24 C384 1_555 1_555
C384 F70 1_555 1_555
F71 C384 1_555 1_555
F72 C384 1_555 1_555
O45 S24 1_555 1_555
O46 S24 1_555 1_555
N60 S23 1_555 1_555
O47 S23 1_555 1_555
O48 S23 1_555 1_555
S25 C385 1_555 1_555
C385 F73 1_555 1_555
F74 C385 1_555 1_555
F75 C385 1_555 1_555
S26 C386 1_555 1_555
C386 F76 1_555 1_555
F77 C386 1_555 1_555
F78 C386 1_555 1_555
O49 S26 1_555 1_555
O50 S26 1_555 1_555
O51 S25 1_555 1_555
O52 S25 1_555 1_555
N61 S25 1_555 1_555
S27 C387 1_555 1_555
C387 F79 1_555 1_555
F80 C387 1_555 1_555
F81 C387 1_555 1_555
S28 C388 1_555 1_555
C388 F82 1_555 1_555
F83 C388 1_555 1_555
F84 C388 1_555 1_555
N62 S27 1_555 1_555
O53 S28 1_555 1_555
O54 S27 1_555 1_555
O55 S27 1_555 1_555
O56 S28 1_555 1_555
N63 C389 1_555 1_555
C389 C390 1_555 1_555
C390 H289 1_555 1_555
H290 C390 1_555 1_555
H291 C390 1_555 1_555
N64 C391 1_555 1_555
C391 C392 1_555 1_555
C392 H292 1_555 1_555
H293 C392 1_555 1_555
H294 C392 1_555 1_555
N65 C393 1_555 1_555
C393 C394 1_555 1_555
C394 H295 1_555 1_555
H296 C394 1_555 1_555
H297 C394 1_555 1_555
N66 C395 1_555 1_555
C395 C396 1_555 1_555
C396 H298 1_555 1_555
H299 C396 1_555 1_555
H300 C396 1_555 1_555
C5 C6 1_555 1_555
C8 C9 1_555 1_555
C12 C13 1_555 1_555
C18 C19 1_555 1_555
C20 C21 1_555 1_555
C23 C24 1_555 1_555
C24 C25 1_555 1_555
C30 C31 1_555 1_555
C33 C34 1_555 1_555
C36 C37 1_555 1_555
C37 C38 1_555 1_555
C43 C44 1_555 1_555
C50 C51 1_555 1_555
C53 C54 1_555 1_555
C57 C58 1_555 1_555
C63 C64 1_555 1_555
C65 C66 1_555 1_555
C68 C69 1_555 1_555
C69 C70 1_555 1_555
C75 C76 1_555 1_555
C78 C79 1_555 1_555
C81 C82 1_555 1_555
C82 C83 1_555 1_555
C88 C89 1_555 1_555
C95 C96 1_555 1_555
C98 C99 1_555 1_555
C102 C103 1_555 1_555
C108 C109 1_555 1_555
C110 C111 1_555 1_555
C113 C114 1_555 1_555
C114 C115 1_555 1_555
C120 C121 1_555 1_555
C123 C124 1_555 1_555
C126 C127 1_555 1_555
C127 C128 1_555 1_555
C133 C134 1_555 1_555
C140 C141 1_555 1_555
C143 C144 1_555 1_555
C147 C148 1_555 1_555
C153 C154 1_555 1_555
C155 C156 1_555 1_555
C158 C159 1_555 1_555
C159 C160 1_555 1_555
C165 C166 1_555 1_555
C168 C169 1_555 1_555
C171 C172 1_555 1_555
C172 C173 1_555 1_555
C178 C179 1_555 1_555
C185 C186 1_555 1_555
C188 C189 1_555 1_555
C192 C193 1_555 1_555
C198 C199 1_555 1_555
C200 C201 1_555 1_555
C203 C204 1_555 1_555
C204 C205 1_555 1_555
C210 C211 1_555 1_555
C213 C214 1_555 1_555
C216 C217 1_555 1_555
C217 C218 1_555 1_555
C223 C224 1_555 1_555
C230 C231 1_555 1_555
C233 C234 1_555 1_555
C237 C238 1_555 1_555
C243 C244 1_555 1_555
C245 C246 1_555 1_555
C248 C249 1_555 1_555
C249 C250 1_555 1_555
C255 C256 1_555 1_555
C258 C259 1_555 1_555
C261 C262 1_555 1_555
C262 C263 1_555 1_555
C268 C269 1_555 1_555
C275 C276 1_555 1_555
C278 C279 1_555 1_555
C282 C283 1_555 1_555
C288 C289 1_555 1_555
C290 C291 1_555 1_555
C293 C294 1_555 1_555
C294 C295 1_555 1_555
C300 C301 1_555 1_555
C303 C304 1_555 1_555
C306 C307 1_555 1_555
C307 C308 1_555 1_555
C313 C314 1_555 1_555
C320 C321 1_555 1_555
C323 C324 1_555 1_555
C327 C328 1_555 1_555
C333 C334 1_555 1_555
C335 C336 1_555 1_555
C338 C339 1_555 1_555
C339 C340 1_555 1_555
C345 C346 1_555 1_555
C348 C349 1_555 1_555
C351 C352 1_555 1_555
C352 C353 1_555 1_555
C358 C359 1_555 1_555
S2 N49 1_555 1_555
S4 N50 1_555 1_555
S6 N51 1_555 1_555
S8 N52 1_555 1_555
S10 N53 1_555 1_555
S24 N60 1_555 1_555
S26 N61 1_555 1_555
S28 N62 1_555 1_555

#END
