# generated using pymatgen
data_Zn8H314C413S30N67O63F94
_symmetry_space_group_name_H-M   'P 1'
_cell_length_a   24.76800000
_cell_length_b   30.45200000
_cell_length_c   33.97400000
_cell_angle_alpha   79.78000000
_cell_angle_beta   85.57000000
_cell_angle_gamma   86.58000000
_symmetry_Int_Tables_number   1
_chemical_formula_structural   Zn8H314C413S30N67O63F94
_chemical_formula_sum   'Zn16 H628 C826 S60 N134 O126 F188'
_cell_volume   25114.89618132
_cell_formula_units_Z   2
loop_
 _symmetry_equiv_pos_site_id
 _symmetry_equiv_pos_as_xyz
  1  'x, y, z'
loop_
 _atom_site_type_symbol
 _atom_site_label
 _atom_site_symmetry_multiplicity
 _atom_site_fract_x
 _atom_site_fract_y
 _atom_site_fract_z
 _atom_site_occupancy
  Zn  Zn1  1  0.772820  0.957500  0.221190  1
  Zn  Zn2  1  0.227180  0.042500  0.778810  1
  Zn  Zn3  1  0.067560  0.218660  0.042730  1
  Zn  Zn4  1  0.932440  0.781340  0.957270  1
  Zn  Zn5  1  0.230820  0.900010  0.240310  1
  Zn  Zn6  1  0.769180  0.099990  0.759690  1
  Zn  Zn7  1  0.001370  0.178610  0.387880  1
  Zn  Zn8  1  0.998630  0.821390  0.612120  1
  Zn  Zn9  1  0.272690  0.531550  0.239940  1
  Zn  Zn10  1  0.727310  0.468450  0.760060  1
  Zn  Zn11  1  0.414920  0.252060  0.479160  1
  Zn  Zn12  1  0.585080  0.747940  0.520840  1
  Zn  Zn13  1  0.724050  0.490690  0.302620  1
  Zn  Zn14  1  0.275950  0.509310  0.697380  1
  Zn  Zn15  1  0.530090  0.243110  0.137790  1
  Zn  Zn16  1  0.469910  0.756890  0.862210  1
  H  H17  1  0.731900  0.814800  0.221000  1
  H  H18  1  0.268100  0.185200  0.779000  1
  H  H19  1  0.665300  0.770400  0.257900  1
  H  H20  1  0.334700  0.229600  0.742100  1
  H  H21  1  0.643600  0.855100  0.336300  1
  H  H22  1  0.356400  0.144900  0.663700  1
  H  H23  1  0.712700  0.897000  0.302800  1
  H  H24  1  0.287300  0.103000  0.697200  1
  H  H25  1  0.612900  0.771100  0.350300  1
  H  H26  1  0.387100  0.228900  0.649700  1
  H  H27  1  0.601300  0.753300  0.310400  1
  H  H28  1  0.398700  0.246700  0.689600  1
  H  H29  1  0.569200  0.797200  0.321300  1
  H  H30  1  0.430800  0.202800  0.678700  1
  H  H31  1  0.822100  0.834200  0.235900  1
  H  H32  1  0.177900  0.165800  0.764100  1
  H  H33  1  0.917200  0.838400  0.204800  1
  H  H34  1  0.082800  0.161600  0.795200  1
  H  H35  1  0.985300  0.880600  0.167600  1
  H  H36  1  0.014700  0.119400  0.832400  1
  H  H37  1  0.888000  0.990900  0.173400  1
  H  H38  1  0.112000  0.009100  0.826600  1
  H  H39  1  0.937600  0.019300  0.116900  1
  H  H40  1  0.062400  0.980700  0.883100  1
  H  H41  1  0.099100  0.039800  0.090800  1
  H  H42  1  0.900900  0.960200  0.909200  1
  H  H43  1  0.050500  0.930000  0.167700  1
  H  H44  1  0.949500  0.070000  0.832300  1
  H  H45  1  0.126100  0.942400  0.194100  1
  H  H46  1  0.873900  0.057600  0.805900  1
  H  H47  1  0.173300  0.983300  0.078600  1
  H  H48  1  0.826700  0.016700  0.921400  1
  H  H49  1  0.263300  0.961800  0.095200  1
  H  H50  1  0.736700  0.038200  0.904800  1
  H  H51  1  0.327900  0.925100  0.148100  1
  H  H52  1  0.672100  0.074900  0.851900  1
  H  H53  1  0.385000  0.871100  0.161200  1
  H  H54  1  0.615000  0.128900  0.838800  1
  H  H55  1  0.473500  0.849400  0.180700  1
  H  H56  1  0.526500  0.150600  0.819300  1
  H  H57  1  0.442800  0.894800  0.282400  1
  H  H58  1  0.557200  0.105200  0.717600  1
  H  H59  1  0.353300  0.917400  0.264600  1
  H  H60  1  0.646700  0.082600  0.735400  1
  H  H61  1  0.538700  0.833700  0.230800  1
  H  H62  1  0.461300  0.166300  0.769200  1
  H  H63  1  0.528600  0.854600  0.270900  1
  H  H64  1  0.471400  0.145400  0.729100  1
  H  H65  1  0.548300  0.885400  0.229700  1
  H  H66  1  0.451700  0.114600  0.770300  1
  H  H67  1  0.069200  0.111700  0.082300  1
  H  H68  1  0.930800  0.888300  0.917700  1
  H  H69  1  0.928900  0.063700  0.056500  1
  H  H70  1  0.071100  0.936300  0.943500  1
  H  H71  1  0.907900  0.135200  0.020400  1
  H  H72  1  0.092100  0.864800  0.979600  1
  H  H73  1  0.932300  0.214900  0.995100  1
  H  H74  1  0.067700  0.785100  0.004900  1
  H  H75  1  0.917600  0.293000  0.015500  1
  H  H76  1  0.082400  0.707000  0.984500  1
  H  H77  1  0.896800  0.363500  0.981600  1
  H  H78  1  0.103200  0.636500  0.018400  1
  H  H79  1  0.028000  0.358000  0.910800  1
  H  H80  1  0.972000  0.642000  0.089200  1
  H  H81  1  0.056900  0.288000  0.947900  1
  H  H82  1  0.943100  0.712000  0.052100  1
  H  H83  1  0.907600  0.418500  0.918500  1
  H  H84  1  0.092400  0.581500  0.081500  1
  H  H85  1  0.962700  0.414800  0.891100  1
  H  H86  1  0.037300  0.585200  0.108900  1
  H  H87  1  0.962000  0.437200  0.930400  1
  H  H88  1  0.038000  0.562800  0.069600  1
  H  H89  1  0.785500  0.908300  0.110200  1
  H  H90  1  0.214500  0.091700  0.889800  1
  H  H91  1  0.751800  0.847900  0.091400  1
  H  H92  1  0.248200  0.152100  0.908600  1
  H  H93  1  0.619500  0.859900  0.165200  1
  H  H94  1  0.380500  0.140100  0.834800  1
  H  H95  1  0.659100  0.916200  0.188600  1
  H  H96  1  0.340900  0.083800  0.811400  1
  H  H97  1  0.614900  0.822500  0.101800  1
  H  H98  1  0.385100  0.177500  0.898200  1
  H  H99  1  0.654400  0.785600  0.126100  1
  H  H100  1  0.345600  0.214400  0.873900  1
  H  H101  1  0.671900  0.808200  0.081000  1
  H  H102  1  0.328100  0.191800  0.919000  1
  H  H103  1  0.761100  0.988400  0.109100  1
  H  H104  1  0.238900  0.011600  0.890900  1
  H  H105  1  0.800100  0.066600  0.094800  1
  H  H106  1  0.199900  0.933400  0.905200  1
  H  H107  1  0.842500  0.122300  0.119300  1
  H  H108  1  0.157500  0.877700  0.880700  1
  H  H109  1  0.821400  0.050900  0.230000  1
  H  H110  1  0.178600  0.949100  0.770000  1
  H  H111  1  0.903000  0.154900  0.142300  1
  H  H112  1  0.097000  0.845100  0.857700  1
  H  H113  1  0.940300  0.208000  0.237400  1
  H  H114  1  0.059700  0.792000  0.762600  1
  H  H115  1  0.841300  0.104200  0.254500  1
  H  H116  1  0.158700  0.895800  0.745500  1
  H  H117  1  0.962800  0.178700  0.297900  1
  H  H118  1  0.037200  0.821300  0.702100  1
  H  H119  1  0.814300  0.128600  0.312600  1
  H  H120  1  0.185700  0.871400  0.687400  1
  H  H121  1  0.817900  0.122900  0.381200  1
  H  H122  1  0.182100  0.877100  0.618800  1
  H  H123  1  0.866900  0.137200  0.441200  1
  H  H124  1  0.133100  0.862800  0.558800  1
  H  H125  1  0.947100  0.094900  0.489100  1
  H  H126  1  0.052900  0.905100  0.510900  1
  H  H127  1  0.956500  0.091000  0.557600  1
  H  H128  1  0.043500  0.909000  0.442400  1
  H  H129  1  0.957400  0.226300  0.541300  1
  H  H130  1  0.042600  0.773700  0.458700  1
  H  H131  1  0.948000  0.230200  0.472900  1
  H  H132  1  0.052000  0.769800  0.527100  1
  H  H133  1  0.001900  0.142800  0.606800  1
  H  H134  1  0.998100  0.857200  0.393200  1
  H  H135  1  0.938200  0.136800  0.616700  1
  H  H136  1  0.061800  0.863200  0.383300  1
  H  H137  1  0.961600  0.185800  0.607500  1
  H  H138  1  0.038400  0.814200  0.392500  1
  H  H139  1  0.981700  0.177700  0.117400  1
  H  H140  1  0.018300  0.822300  0.882600  1
  H  H141  1  0.956200  0.268500  0.190900  1
  H  H142  1  0.043800  0.731500  0.809100  1
  H  H143  1  0.012000  0.317100  0.143800  1
  H  H144  1  0.988000  0.682900  0.856200  1
  H  H145  1  0.069700  0.330600  0.078800  1
  H  H146  1  0.930300  0.669400  0.921200  1
  H  H147  1  0.064000  0.370200  0.012300  1
  H  H148  1  0.936000  0.629800  0.987700  1
  H  H149  1  0.118400  0.416300  0.961700  1
  H  H150  1  0.881600  0.583700  0.038300  1
  H  H151  1  0.235400  0.324200  0.968400  1
  H  H152  1  0.764600  0.675800  0.031600  1
  H  H153  1  0.186200  0.276400  0.017000  1
  H  H154  1  0.813800  0.723600  0.983000  1
  H  H155  1  0.250000  0.414900  0.946400  1
  H  H156  1  0.750000  0.585100  0.053600  1
  H  H157  1  0.196900  0.432900  0.923400  1
  H  H158  1  0.803100  0.567100  0.076600  1
  H  H159  1  0.233200  0.391600  0.910800  1
  H  H160  1  0.766800  0.608400  0.089200  1
  H  H161  1  0.611600  0.950100  0.288700  1
  H  H162  1  0.388400  0.049900  0.711300  1
  H  H163  1  0.526800  0.958400  0.261600  1
  H  H164  1  0.473200  0.041600  0.738400  1
  H  H165  1  0.585400  0.033700  0.162100  1
  H  H166  1  0.414600  0.966300  0.837900  1
  H  H167  1  0.671200  0.026800  0.185700  1
  H  H168  1  0.328800  0.973200  0.814300  1
  H  H169  1  0.471600  0.975800  0.202800  1
  H  H170  1  0.528400  0.024200  0.797200  1
  H  H171  1  0.495900  0.007400  0.163400  1
  H  H172  1  0.504100  0.992600  0.836600  1
  H  H173  1  0.472100  0.028600  0.201400  1
  H  H174  1  0.527900  0.971400  0.798600  1
  H  H175  1  0.683300  0.004100  0.302200  1
  H  H176  1  0.316700  0.995900  0.697800  1
  H  H177  1  0.754500  0.009400  0.353000  1
  H  H178  1  0.245500  0.990600  0.647000  1
  H  H179  1  0.843900  0.000900  0.369100  1
  H  H180  1  0.156100  0.999100  0.630900  1
  H  H181  1  0.882800  0.954300  0.267100  1
  H  H182  1  0.117200  0.045700  0.732900  1
  H  H183  1  0.952500  0.922600  0.295900  1
  H  H184  1  0.047500  0.077400  0.704100  1
  H  H185  1  0.081300  0.968600  0.337500  1
  H  H186  1  0.918700  0.031400  0.662500  1
  H  H187  1  0.932700  0.026400  0.356200  1
  H  H188  1  0.067300  0.973600  0.643800  1
  H  H189  1  0.980600  0.086500  0.354200  1
  H  H190  1  0.019400  0.913500  0.645800  1
  H  H191  1  0.096700  0.994600  0.397100  1
  H  H192  1  0.903300  0.005400  0.602900  1
  H  H193  1  0.130000  0.048700  0.427800  1
  H  H194  1  0.870000  0.951300  0.572200  1
  H  H195  1  0.121500  0.124300  0.447600  1
  H  H196  1  0.878500  0.875700  0.552400  1
  H  H197  1  0.164700  0.186700  0.445800  1
  H  H198  1  0.835300  0.813300  0.554200  1
  H  H199  1  0.187500  0.227100  0.494100  1
  H  H200  1  0.812500  0.772900  0.505900  1
  H  H201  1  0.028800  0.262400  0.515000  1
  H  H202  1  0.971200  0.737600  0.485000  1
  H  H203  1  0.005800  0.222000  0.466700  1
  H  H204  1  0.994200  0.778000  0.533300  1
  H  H205  1  0.092600  0.289400  0.551900  1
  H  H206  1  0.907400  0.710600  0.448100  1
  H  H207  1  0.149100  0.299900  0.526900  1
  H  H208  1  0.850900  0.700100  0.473100  1
  H  H209  1  0.144700  0.256600  0.561200  1
  H  H210  1  0.855300  0.743400  0.438800  1
  H  H211  1  0.125100  0.944300  0.287300  1
  H  H212  1  0.874900  0.055700  0.712700  1
  H  H213  1  0.005200  0.858800  0.298900  1
  H  H214  1  0.994800  0.141200  0.701100  1
  H  H215  1  0.064600  0.810400  0.268800  1
  H  H216  1  0.935400  0.189600  0.731200  1
  H  H217  1  0.158900  0.791700  0.239200  1
  H  H218  1  0.841100  0.208300  0.760800  1
  H  H219  1  0.247400  0.753300  0.263500  1
  H  H220  1  0.752600  0.246700  0.736500  1
  H  H221  1  0.316700  0.707600  0.243400  1
  H  H222  1  0.683300  0.292400  0.756600  1
  H  H223  1  0.338100  0.786700  0.140400  1
  H  H224  1  0.661900  0.213300  0.859600  1
  H  H225  1  0.273500  0.839700  0.161800  1
  H  H226  1  0.726500  0.160300  0.838200  1
  H  H227  1  0.398500  0.697400  0.200500  1
  H  H228  1  0.601500  0.302600  0.799500  1
  H  H229  1  0.399100  0.723700  0.155300  1
  H  H230  1  0.600900  0.276300  0.844700  1
  H  H231  1  0.359900  0.683200  0.169600  1
  H  H232  1  0.640100  0.316800  0.830400  1
  H  H233  1  0.197900  0.831200  0.352800  1
  H  H234  1  0.802100  0.168800  0.647200  1
  H  H235  1  0.217900  0.760800  0.388000  1
  H  H236  1  0.782100  0.239200  0.612000  1
  H  H237  1  0.350700  0.750700  0.317200  1
  H  H238  1  0.649300  0.249300  0.682800  1
  H  H239  1  0.335500  0.823000  0.289300  1
  H  H240  1  0.664500  0.177000  0.710700  1
  H  H241  1  0.263100  0.691400  0.399400  1
  H  H242  1  0.736900  0.308600  0.600600  1
  H  H243  1  0.326600  0.697900  0.400500  1
  H  H244  1  0.673400  0.302100  0.599500  1
  H  H245  1  0.304100  0.680400  0.363300  1
  H  H246  1  0.695900  0.319600  0.636700  1
  H  H247  1  0.264400  0.905100  0.348300  1
  H  H248  1  0.735600  0.094900  0.651700  1
  H  H249  1  0.246800  0.987900  0.349500  1
  H  H250  1  0.753200  0.012100  0.650500  1
  H  H251  1  0.219300  0.057000  0.318900  1
  H  H252  1  0.780700  0.943000  0.681100  1
  H  H253  1  0.202100  0.006400  0.218800  1
  H  H254  1  0.797900  0.993600  0.781200  1
  H  H255  1  0.152200  0.105400  0.295300  1
  H  H256  1  0.847800  0.894600  0.704700  1
  H  H257  1  0.123200  0.193600  0.195400  1
  H  H258  1  0.876800  0.806400  0.804600  1
  H  H259  1  0.206200  0.076000  0.188000  1
  H  H260  1  0.793800  0.924000  0.812000  1
  H  H261  1  0.098500  0.182600  0.135900  1
  H  H262  1  0.901500  0.817400  0.864100  1
  H  H263  1  0.244300  0.119000  0.129300  1
  H  H264  1  0.755700  0.881000  0.870700  1
  H  H265  1  0.247800  0.139300  0.060500  1
  H  H266  1  0.752200  0.860700  0.939500  1
  H  H267  1  0.203600  0.177300  0.998900  1
  H  H268  1  0.796400  0.822700  0.001100  1
  H  H269  1  0.063500  0.183900  0.951300  1
  H  H270  1  0.936500  0.816100  0.048700  1
  H  H271  1  0.064900  0.198900  0.880800  1
  H  H272  1  0.935100  0.801100  0.119200  1
  H  H273  1  0.208600  0.256100  0.879200  1
  H  H274  1  0.791400  0.743900  0.120800  1
  H  H275  1  0.201800  0.246800  0.947900  1
  H  H276  1  0.798200  0.753200  0.052100  1
  H  H277  1  0.163500  0.261500  0.816800  1
  H  H278  1  0.836500  0.738500  0.183200  1
  H  H279  1  0.103100  0.244800  0.818900  1
  H  H280  1  0.896900  0.755200  0.181100  1
  H  H281  1  0.153700  0.209700  0.818300  1
  H  H282  1  0.846300  0.790300  0.181700  1
  H  H283  1  0.078300  0.139500  0.319900  1
  H  H284  1  0.921700  0.860500  0.680100  1
  H  H285  1  0.125700  0.244500  0.237000  1
  H  H286  1  0.874300  0.755500  0.763000  1
  H  H287  1  0.084300  0.290400  0.280200  1
  H  H288  1  0.915700  0.709600  0.719800  1
  H  H289  1  0.026700  0.301600  0.341600  1
  H  H290  1  0.973300  0.698400  0.658400  1
  H  H291  1  0.889500  0.250200  0.394000  1
  H  H292  1  0.110500  0.749800  0.606000  1
  H  H293  1  0.831600  0.297200  0.426000  1
  H  H294  1  0.168400  0.702800  0.574000  1
  H  H295  1  0.959800  0.368800  0.440200  1
  H  H296  1  0.040200  0.631200  0.559800  1
  H  H297  1  0.016800  0.320000  0.407300  1
  H  H298  1  0.983200  0.680000  0.592700  1
  H  H299  1  0.871700  0.395300  0.460500  1
  H  H300  1  0.128300  0.604700  0.539500  1
  H  H301  1  0.833600  0.355200  0.479500  1
  H  H302  1  0.166400  0.644800  0.520500  1
  H  H303  1  0.823600  0.383400  0.436000  1
  H  H304  1  0.176400  0.616600  0.564000  1
  H  H305  1  0.199400  0.637500  0.221800  1
  H  H306  1  0.800600  0.362500  0.778200  1
  H  H307  1  0.130500  0.680700  0.248300  1
  H  H308  1  0.869500  0.319300  0.751700  1
  H  H309  1  0.203400  0.665900  0.349200  1
  H  H310  1  0.796600  0.334100  0.650800  1
  H  H311  1  0.275300  0.621300  0.322100  1
  H  H312  1  0.724700  0.378700  0.677900  1
  H  H313  1  0.092400  0.722200  0.296700  1
  H  H314  1  0.907600  0.277800  0.703300  1
  H  H315  1  0.133600  0.734100  0.326900  1
  H  H316  1  0.866400  0.265900  0.673100  1
  H  H317  1  0.096900  0.691700  0.339900  1
  H  H318  1  0.903100  0.308300  0.660100  1
  H  H319  1  0.342400  0.634500  0.256700  1
  H  H320  1  0.657600  0.365500  0.743300  1
  H  H321  1  0.440400  0.617900  0.234600  1
  H  H322  1  0.559600  0.382100  0.765400  1
  H  H323  1  0.506200  0.565200  0.211900  1
  H  H324  1  0.493800  0.434800  0.788100  1
  H  H325  1  0.386700  0.485900  0.205400  1
  H  H326  1  0.613300  0.514100  0.794600  1
  H  H327  1  0.439700  0.456400  0.162400  1
  H  H328  1  0.560300  0.543600  0.837600  1
  H  H329  1  0.588900  0.395800  0.164500  1
  H  H330  1  0.411100  0.604200  0.835500  1
  H  H331  1  0.555800  0.504000  0.218900  1
  H  H332  1  0.444200  0.496000  0.781100  1
  H  H333  1  0.624200  0.484400  0.249900  1
  H  H334  1  0.375800  0.515600  0.750100  1
  H  H335  1  0.672600  0.407900  0.169100  1
  H  H336  1  0.327400  0.592100  0.830900  1
  H  H337  1  0.762200  0.403400  0.191100  1
  H  H338  1  0.237800  0.596600  0.808900  1
  H  H339  1  0.824900  0.426400  0.240900  1
  H  H340  1  0.175100  0.573600  0.759100  1
  H  H341  1  0.859100  0.402300  0.318800  1
  H  H342  1  0.140900  0.597700  0.681200  1
  H  H343  1  0.937800  0.408400  0.351000  1
  H  H344  1  0.062200  0.591600  0.649000  1
  H  H345  1  0.933400  0.541800  0.309700  1
  H  H346  1  0.066600  0.458200  0.690300  1
  H  H347  1  0.854600  0.535700  0.277600  1
  H  H348  1  0.145400  0.464300  0.722400  1
  H  H349  1  0.983800  0.502100  0.375000  1
  H  H350  1  0.016200  0.497900  0.625000  1
  H  H351  1  0.021800  0.496400  0.335800  1
  H  H352  1  0.978200  0.503600  0.664200  1
  H  H353  1  0.008000  0.453600  0.369000  1
  H  H354  1  0.992000  0.546400  0.631000  1
  H  H355  1  0.543200  0.338100  0.163500  1
  H  H356  1  0.456800  0.661900  0.836500  1
  H  H357  1  0.438600  0.427800  0.104100  1
  H  H358  1  0.561400  0.572200  0.895900  1
  H  H359  1  0.414900  0.370300  0.070500  1
  H  H360  1  0.585100  0.629700  0.929500  1
  H  H361  1  0.424300  0.290600  0.062200  1
  H  H362  1  0.575700  0.709400  0.937800  1
  H  H363  1  0.417400  0.177100  0.126600  1
  H  H364  1  0.582600  0.822900  0.873400  1
  H  H365  1  0.381300  0.121700  0.098200  1
  H  H366  1  0.618700  0.878300  0.901800  1
  H  H367  1  0.443500  0.178800  0.988300  1
  H  H368  1  0.556500  0.821200  0.011700  1
  H  H369  1  0.479600  0.234200  0.016600  1
  H  H370  1  0.520400  0.765800  0.983400  1
  H  H371  1  0.374100  0.122200  0.994600  1
  H  H372  1  0.625900  0.877800  0.005400  1
  H  H373  1  0.351500  0.098600  0.038200  1
  H  H374  1  0.648500  0.901400  0.961800  1
  H  H375  1  0.410400  0.084200  0.020600  1
  H  H376  1  0.589600  0.915800  0.979400  1
  H  H377  1  0.299900  0.620100  0.166400  1
  H  H378  1  0.700100  0.379900  0.833600  1
  H  H379  1  0.271000  0.688600  0.132800  1
  H  H380  1  0.729000  0.311400  0.867200  1
  H  H381  1  0.142200  0.638500  0.101300  1
  H  H382  1  0.857800  0.361500  0.898700  1
  H  H383  1  0.166900  0.570000  0.140100  1
  H  H384  1  0.833100  0.430000  0.859900  1
  H  H385  1  0.218600  0.727200  0.071000  1
  H  H386  1  0.781400  0.272800  0.929000  1
  H  H387  1  0.174500  0.734400  0.106500  1
  H  H388  1  0.825500  0.265600  0.893500  1
  H  H389  1  0.158800  0.709800  0.071400  1
  H  H390  1  0.841200  0.290200  0.928600  1
  H  H391  1  0.247800  0.513900  0.134700  1
  H  H392  1  0.752200  0.486100  0.865300  1
  H  H393  1  0.278400  0.432000  0.139500  1
  H  H394  1  0.721600  0.568000  0.860500  1
  H  H395  1  0.303800  0.363200  0.179000  1
  H  H396  1  0.696200  0.636800  0.821000  1
  H  H397  1  0.300500  0.427200  0.273600  1
  H  H398  1  0.699500  0.572800  0.726400  1
  H  H399  1  0.367300  0.320000  0.211700  1
  H  H400  1  0.632700  0.680000  0.788300  1
  H  H401  1  0.386400  0.245900  0.322200  1
  H  H402  1  0.613600  0.754100  0.677800  1
  H  H403  1  0.291300  0.360400  0.310000  1
  H  H404  1  0.708700  0.639600  0.690000  1
  H  H405  1  0.401600  0.276100  0.381600  1
  H  H406  1  0.598400  0.723900  0.618400  1
  H  H407  1  0.243400  0.311800  0.367000  1
  H  H408  1  0.756600  0.688200  0.633000  1
  H  H409  1  0.228700  0.301900  0.436600  1
  H  H410  1  0.771300  0.698100  0.563400  1
  H  H411  1  0.267700  0.292600  0.504000  1
  H  H412  1  0.732300  0.707400  0.496000  1
  H  H413  1  0.264000  0.249700  0.569500  1
  H  H414  1  0.736000  0.750300  0.430500  1
  H  H415  1  0.250800  0.269000  0.632200  1
  H  H416  1  0.749200  0.731000  0.367800  1
  H  H417  1  0.382800  0.339700  0.613100  1
  H  H418  1  0.617200  0.660300  0.386900  1
  H  H419  1  0.401500  0.318500  0.551300  1
  H  H420  1  0.598500  0.681500  0.448700  1
  H  H421  1  0.341300  0.329300  0.677900  1
  H  H422  1  0.658700  0.670700  0.322100  1
  H  H423  1  0.293000  0.295800  0.689700  1
  H  H424  1  0.707000  0.704200  0.310300  1
  H  H425  1  0.280500  0.346300  0.668400  1
  H  H426  1  0.719500  0.653700  0.331600  1
  H  H427  1  0.440100  0.285900  0.196000  1
  H  H428  1  0.559900  0.714100  0.804000  1
  H  H429  1  0.401100  0.189000  0.287800  1
  H  H430  1  0.598900  0.811000  0.712200  1
  H  H431  1  0.453300  0.138900  0.255700  1
  H  H432  1  0.546700  0.861100  0.744300  1
  H  H433  1  0.510200  0.122700  0.191800  1
  H  H434  1  0.489800  0.877300  0.808200  1
  H  H435  1  0.507600  0.114100  0.110100  1
  H  H436  1  0.492400  0.885900  0.889900  1
  H  H437  1  0.561000  0.069500  0.071400  1
  H  H438  1  0.439000  0.930500  0.928600  1
  H  H439  1  0.696900  0.118500  0.103200  1
  H  H440  1  0.303100  0.881500  0.896800  1
  H  H441  1  0.643700  0.163100  0.142000  1
  H  H442  1  0.356300  0.836900  0.858000  1
  H  H443  1  0.651400  0.061500  0.032400  1
  H  H444  1  0.348600  0.938500  0.967600  1
  H  H445  1  0.673100  0.030800  0.071800  1
  H  H446  1  0.326900  0.969200  0.928200  1
  H  H447  1  0.704800  0.074000  0.050800  1
  H  H448  1  0.295200  0.926000  0.949200  1
  H  H449  1  0.769800  0.535000  0.206400  1
  H  H450  1  0.230200  0.465000  0.793600  1
  H  H451  1  0.833400  0.567300  0.161400  1
  H  H452  1  0.166600  0.432700  0.838600  1
  H  H453  1  0.847400  0.661700  0.229500  1
  H  H454  1  0.152600  0.338300  0.770500  1
  H  H455  1  0.778500  0.629400  0.272700  1
  H  H456  1  0.221500  0.370600  0.727300  1
  H  H457  1  0.903300  0.619500  0.139900  1
  H  H458  1  0.096700  0.380500  0.860100  1
  H  H459  1  0.912800  0.656400  0.166500  1
  H  H460  1  0.087200  0.343600  0.833500  1
  H  H461  1  0.865400  0.664200  0.136200  1
  H  H462  1  0.134600  0.335800  0.863800  1
  H  H463  1  0.676600  0.612500  0.263100  1
  H  H464  1  0.323400  0.387500  0.736900  1
  H  H465  1  0.579800  0.611800  0.291600  1
  H  H466  1  0.420200  0.388200  0.708400  1
  H  H467  1  0.506700  0.573600  0.326200  1
  H  H468  1  0.493300  0.426400  0.673800  1
  H  H469  1  0.607100  0.465000  0.349400  1
  H  H470  1  0.392900  0.535000  0.650600  1
  H  H471  1  0.444200  0.521800  0.328200  1
  H  H472  1  0.555800  0.478200  0.671800  1
  H  H473  1  0.388100  0.420500  0.411600  1
  H  H474  1  0.611900  0.579500  0.588400  1
  H  H475  1  0.548800  0.443400  0.399500  1
  H  H476  1  0.451200  0.556600  0.600500  1
  H  H477  1  0.373100  0.497500  0.296500  1
  H  H478  1  0.626900  0.502500  0.703500  1
  H  H479  1  0.309600  0.471800  0.410500  1
  H  H480  1  0.690400  0.528200  0.589500  1
  H  H481  1  0.225900  0.491700  0.387100  1
  H  H482  1  0.774100  0.508300  0.612900  1
  H  H483  1  0.164800  0.512200  0.328300  1
  H  H484  1  0.835200  0.487800  0.671700  1
  H  H485  1  0.153900  0.501200  0.212900  1
  H  H486  1  0.846100  0.498800  0.787100  1
  H  H487  1  0.069800  0.521500  0.186400  1
  H  H488  1  0.930200  0.478500  0.813600  1
  H  H489  1  0.030700  0.595900  0.273400  1
  H  H490  1  0.969300  0.404100  0.726600  1
  H  H491  1  0.114700  0.575700  0.299900  1
  H  H492  1  0.885300  0.424300  0.700100  1
  H  H493  1  0.965100  0.591600  0.227500  1
  H  H494  1  0.034900  0.408400  0.772500  1
  H  H495  1  0.967300  0.545700  0.210600  1
  H  H496  1  0.032700  0.454300  0.789400  1
  H  H497  1  0.991100  0.589400  0.183200  1
  H  H498  1  0.008900  0.410600  0.816800  1
  H  H499  1  0.420900  0.351000  0.428800  1
  H  H500  1  0.579100  0.649000  0.571200  1
  H  H501  1  0.544700  0.407500  0.467100  1
  H  H502  1  0.455300  0.592500  0.532900  1
  H  H503  1  0.556800  0.342200  0.514300  1
  H  H504  1  0.443200  0.657800  0.485700  1
  H  H505  1  0.530800  0.263300  0.543800  1
  H  H506  1  0.469200  0.736700  0.456200  1
  H  H507  1  0.480000  0.221600  0.602500  1
  H  H508  1  0.520000  0.778400  0.397500  1
  H  H509  1  0.487200  0.154200  0.646500  1
  H  H510  1  0.512800  0.845800  0.353500  1
  H  H511  1  0.487500  0.087800  0.556200  1
  H  H512  1  0.512500  0.912200  0.443800  1
  H  H513  1  0.484000  0.153800  0.511700  1
  H  H514  1  0.516000  0.846200  0.488300  1
  H  H515  1  0.527200  0.055400  0.630600  1
  H  H516  1  0.472800  0.944600  0.369400  1
  H  H517  1  0.462600  0.053100  0.635300  1
  H  H518  1  0.537400  0.946900  0.364700  1
  H  H519  1  0.493000  0.078700  0.663800  1
  H  H520  1  0.507000  0.921300  0.336200  1
  H  H521  1  0.581300  0.197700  0.054800  1
  H  H522  1  0.418700  0.802300  0.945200  1
  H  H523  1  0.592800  0.203700  0.985100  1
  H  H524  1  0.407200  0.796300  0.014900  1
  H  H525  1  0.650200  0.327300  0.976500  1
  H  H526  1  0.349800  0.672700  0.023500  1
  H  H527  1  0.638800  0.321400  0.046200  1
  H  H528  1  0.361200  0.678600  0.953800  1
  H  H529  1  0.610900  0.245900  0.920200  1
  H  H530  1  0.389100  0.754100  0.079800  1
  H  H531  1  0.667200  0.269400  0.919500  1
  H  H532  1  0.332800  0.730600  0.080500  1
  H  H533  1  0.611600  0.299000  0.916000  1
  H  H534  1  0.388400  0.701000  0.084000  1
  H  H535  1  0.677700  0.269300  0.101500  1
  H  H536  1  0.322300  0.730700  0.898500  1
  H  H537  1  0.718200  0.281000  0.163400  1
  H  H538  1  0.281800  0.719000  0.836600  1
  H  H539  1  0.707900  0.286300  0.232300  1
  H  H540  1  0.292100  0.713700  0.767700  1
  H  H541  1  0.551400  0.255200  0.231400  1
  H  H542  1  0.448600  0.744800  0.768600  1
  H  H543  1  0.561600  0.230900  0.297600  1
  H  H544  1  0.438400  0.769100  0.702400  1
  H  H545  1  0.595400  0.294100  0.388300  1
  H  H546  1  0.404600  0.705900  0.611700  1
  H  H547  1  0.671000  0.326600  0.277700  1
  H  H548  1  0.329000  0.673400  0.722300  1
  H  H549  1  0.668200  0.395400  0.298800  1
  H  H550  1  0.331800  0.604600  0.701200  1
  H  H551  1  0.676600  0.318300  0.407200  1
  H  H552  1  0.323400  0.681700  0.592800  1
  H  H553  1  0.716900  0.374900  0.428500  1
  H  H554  1  0.283100  0.625100  0.571500  1
  H  H555  1  0.758500  0.449800  0.412000  1
  H  H556  1  0.241500  0.550200  0.588000  1
  H  H557  1  0.745000  0.576400  0.343500  1
  H  H558  1  0.255000  0.423600  0.656500  1
  H  H559  1  0.796600  0.629100  0.363400  1
  H  H560  1  0.203400  0.370900  0.636600  1
  H  H561  1  0.890600  0.533900  0.422500  1
  H  H562  1  0.109400  0.466100  0.577500  1
  H  H563  1  0.837000  0.478300  0.409300  1
  H  H564  1  0.163000  0.521700  0.590700  1
  H  H565  1  0.879000  0.649500  0.387300  1
  H  H566  1  0.121000  0.350500  0.612700  1
  H  H567  1  0.917000  0.610700  0.410600  1
  H  H568  1  0.083000  0.389300  0.589400  1
  H  H569  1  0.864500  0.630000  0.433600  1
  H  H570  1  0.135500  0.370000  0.566400  1
  H  H571  1  0.517000  0.275100  0.413800  1
  H  H572  1  0.483000  0.724900  0.586200  1
  H  H573  1  0.535900  0.175900  0.349600  1
  H  H574  1  0.464100  0.824100  0.650400  1
  H  H575  1  0.467900  0.137600  0.391700  1
  H  H576  1  0.532100  0.862400  0.608300  1
  H  H577  1  0.395300  0.139800  0.449700  1
  H  H578  1  0.604700  0.860200  0.550300  1
  H  H579  1  0.303200  0.151900  0.457200  1
  H  H580  1  0.696800  0.848100  0.542800  1
  H  H581  1  0.227600  0.122400  0.493800  1
  H  H582  1  0.772400  0.877600  0.506200  1
  H  H583  1  0.285300  0.151100  0.593500  1
  H  H584  1  0.714700  0.848900  0.406500  1
  H  H585  1  0.357900  0.181200  0.556500  1
  H  H586  1  0.642100  0.818800  0.443500  1
  H  H587  1  0.200900  0.113400  0.600500  1
  H  H588  1  0.799100  0.886600  0.399500  1
  H  H589  1  0.204300  0.075600  0.573000  1
  H  H590  1  0.795700  0.924400  0.427000  1
  H  H591  1  0.168100  0.120600  0.560900  1
  H  H592  1  0.831900  0.879400  0.439100  1
  H  H593  1  0.598900  0.964100  0.436100  1
  H  H594  1  0.401100  0.035900  0.563900  1
  H  H595  1  0.659900  0.977800  0.438200  1
  H  H596  1  0.340100  0.022200  0.561800  1
  H  H597  1  0.644000  0.927000  0.452800  1
  H  H598  1  0.356000  0.073000  0.547200  1
  H  H599  1  0.454400  0.002500  0.286100  1
  H  H600  1  0.545600  0.997500  0.713900  1
  H  H601  1  0.414200  0.006900  0.324500  1
  H  H602  1  0.585800  0.993100  0.675500  1
  H  H603  1  0.433700  0.050900  0.294900  1
  H  H604  1  0.566300  0.949100  0.705100  1
  H  H605  1  0.380100  0.017200  0.119800  1
  H  H606  1  0.619900  0.982800  0.880200  1
  H  H607  1  0.385100  0.993800  0.165500  1
  H  H608  1  0.614900  0.006200  0.834500  1
  H  H609  1  0.400000  0.044800  0.151500  1
  H  H610  1  0.600000  0.955200  0.848500  1
  H  H611  1  0.231300  0.419600  0.523100  1
  H  H612  1  0.768700  0.580400  0.476900  1
  H  H613  1  0.285200  0.417400  0.546600  1
  H  H614  1  0.714800  0.582600  0.453400  1
  H  H615  1  0.254100  0.372800  0.546800  1
  H  H616  1  0.745900  0.627200  0.453200  1
  H  H617  1  0.870800  0.211500  0.476500  1
  H  H618  1  0.129200  0.788500  0.523500  1
  H  H619  1  0.873900  0.219300  0.543500  1
  H  H620  1  0.126100  0.780700  0.456500  1
  H  H621  1  0.989300  0.118600  0.559000  1
  H  H622  1  0.010700  0.881400  0.441000  1
  H  H623  1  0.986300  0.110800  0.492000  1
  H  H624  1  0.013700  0.889200  0.508000  1
  H  H625  1  0.942000  0.144700  0.617800  1
  H  H626  1  0.058000  0.855300  0.382200  1
  H  H627  1  0.897000  0.184900  0.611600  1
  H  H628  1  0.103000  0.815100  0.388400  1
  H  H629  1  0.960000  0.195100  0.604700  1
  H  H630  1  0.040000  0.804900  0.395300  1
  H  H631  1  0.094400  0.252200  0.409200  1
  H  H632  1  0.905600  0.747800  0.590800  1
  H  H633  1  0.120800  0.300800  0.449400  1
  H  H634  1  0.879200  0.699200  0.550600  1
  H  H635  1  0.111400  0.201500  0.546300  1
  H  H636  1  0.888600  0.798500  0.453700  1
  H  H637  1  0.085000  0.152800  0.506100  1
  H  H638  1  0.915000  0.847200  0.493900  1
  H  H639  1  0.157700  0.272100  0.548800  1
  H  H640  1  0.842300  0.727900  0.451200  1
  H  H641  1  0.101700  0.300300  0.541500  1
  H  H642  1  0.898300  0.699700  0.458500  1
  H  H643  1  0.154100  0.312600  0.511800  1
  H  H644  1  0.845900  0.687400  0.488200  1
  C  C645  1  0.731700  0.859700  0.259100  1
  C  C646  1  0.268300  0.140300  0.740900  1
  C  C647  1  0.715300  0.822600  0.245200  1
  C  C648  1  0.284700  0.177400  0.754800  1
  C  C649  1  0.674300  0.796800  0.266800  1
  C  C650  1  0.325700  0.203200  0.733200  1
  C  C651  1  0.647000  0.807900  0.299800  1
  C  C652  1  0.353000  0.192100  0.700200  1
  C  C653  1  0.662100  0.846400  0.313200  1
  C  C654  1  0.337900  0.153600  0.686800  1
  C  C655  1  0.703200  0.871200  0.293200  1
  C  C656  1  0.296800  0.128800  0.706800  1
  C  C657  1  0.603900  0.780000  0.322400  1
  C  C658  1  0.396100  0.220000  0.677600  1
  C  C659  1  0.818000  0.865800  0.229100  1
  C  C660  1  0.182000  0.134200  0.770900  1
  C  C661  1  0.863000  0.891100  0.206700  1
  C  C662  1  0.137000  0.108900  0.793300  1
  C  C663  1  0.911700  0.869800  0.197000  1
  C  C664  1  0.088300  0.130200  0.803000  1
  C  C665  1  0.952300  0.895000  0.175900  1
  C  C666  1  0.047700  0.105000  0.824100  1
  C  C667  1  0.945300  0.941100  0.166600  1
  C  C668  1  0.054700  0.058900  0.833400  1
  C  C669  1  0.894100  0.959400  0.179000  1
  C  C670  1  0.105900  0.040600  0.821000  1
  C  C671  1  0.987700  0.969500  0.145200  1
  C  C672  1  0.012300  0.030500  0.854800  1
  C  C673  1  0.974500  0.010000  0.120000  1
  C  C674  1  0.025500  0.990000  0.880000  1
  C  C675  1  0.016000  0.036800  0.099100  1
  C  C676  1  0.984000  0.963200  0.900900  1
  C  C677  1  0.070600  0.022400  0.104500  1
  C  C678  1  0.929400  0.977600  0.895500  1
  C  C679  1  0.082300  0.982700  0.129900  1
  C  C680  1  0.917700  0.017300  0.870100  1
  C  C681  1  0.041400  0.956900  0.150200  1
  C  C682  1  0.958600  0.043100  0.849800  1
  C  C683  1  0.154300  0.947200  0.173400  1
  C  C684  1  0.845700  0.052800  0.826600  1
  C  C685  1  0.140000  0.968400  0.136400  1
  C  C686  1  0.860000  0.031600  0.863600  1
  C  C687  1  0.181200  0.971800  0.105500  1
  C  C688  1  0.818800  0.028200  0.894500  1
  C  C689  1  0.234100  0.957900  0.115200  1
  C  C690  1  0.765900  0.042100  0.884800  1
  C  C691  1  0.242900  0.939000  0.153500  1
  C  C692  1  0.757100  0.061000  0.846500  1
  C  C693  1  0.298100  0.923300  0.167600  1
  C  C694  1  0.701900  0.076700  0.832400  1
  C  C695  1  0.361700  0.896200  0.211500  1
  C  C696  1  0.638300  0.103800  0.788500  1
  C  C697  1  0.396100  0.876400  0.186000  1
  C  C698  1  0.603900  0.123600  0.814000  1
  C  C699  1  0.449500  0.864100  0.197900  1
  C  C700  1  0.550500  0.135900  0.802100  1
  C  C701  1  0.468600  0.871800  0.232700  1
  C  C702  1  0.531400  0.128200  0.767300  1
  C  C703  1  0.432000  0.890400  0.257200  1
  C  C704  1  0.568000  0.109600  0.742800  1
  C  C705  1  0.377600  0.903600  0.247000  1
  C  C706  1  0.622400  0.096400  0.753000  1
  C  C707  1  0.525900  0.860400  0.241800  1
  C  C708  1  0.474100  0.139600  0.758200  1
  C  C709  1  0.036200  0.116400  0.069500  1
  C  C710  1  0.963800  0.883600  0.930500  1
  C  C711  1  0.001200  0.080300  0.074000  1
  C  C712  1  0.998800  0.919700  0.926000  1
  C  C713  1  0.953000  0.087200  0.054900  1
  C  C714  1  0.047000  0.912800  0.945100  1
  C  C715  1  0.941000  0.129400  0.033300  1
  C  C716  1  0.059000  0.870600  0.966700  1
  C  C717  1  0.976700  0.162900  0.030400  1
  C  C718  1  0.023300  0.837100  0.969600  1
  C  C719  1  0.965300  0.208100  0.007900  1
  C  C720  1  0.034700  0.791900  0.992100  1
  C  C721  1  0.986300  0.281800  0.984200  1
  C  C722  1  0.013700  0.718200  0.015800  1
  C  C723  1  0.941600  0.305700  0.993900  1
  C  C724  1  0.058400  0.694300  0.006100  1
  C  C725  1  0.929200  0.348000  0.973800  1
  C  C726  1  0.070800  0.652000  0.026200  1
  C  C727  1  0.961300  0.367100  0.944100  1
  C  C728  1  0.038700  0.632900  0.055900  1
  C  C729  1  0.006000  0.344800  0.933400  1
  C  C730  1  0.994000  0.655200  0.066600  1
  C  C731  1  0.022800  0.302000  0.954200  1
  C  C732  1  0.977200  0.698000  0.045800  1
  C  C733  1  0.947100  0.413800  0.918700  1
  C  C734  1  0.052900  0.586200  0.081300  1
  C  C735  1  0.723000  0.920500  0.149400  1
  C  C736  1  0.277000  0.079500  0.850600  1
  C  C737  1  0.751000  0.898500  0.121300  1
  C  C738  1  0.249000  0.101500  0.878700  1
  C  C739  1  0.730400  0.863600  0.109400  1
  C  C740  1  0.269600  0.136400  0.890600  1
  C  C741  1  0.680100  0.850200  0.122200  1
  C  C742  1  0.319900  0.149800  0.877800  1
  C  C743  1  0.653500  0.870200  0.153400  1
  C  C744  1  0.346500  0.129800  0.846600  1
  C  C745  1  0.676500  0.904100  0.166700  1
  C  C746  1  0.323500  0.095900  0.833300  1
  C  C747  1  0.652800  0.813300  0.106300  1
  C  C748  1  0.347200  0.186700  0.893700  1
  C  C749  1  0.763100  0.988900  0.136800  1
  C  C750  1  0.236900  0.011100  0.863200  1
  C  C751  1  0.787600  0.027500  0.149000  1
  C  C752  1  0.212400  0.972500  0.851000  1
  C  C753  1  0.805000  0.063800  0.122700  1
  C  C754  1  0.195000  0.936200  0.877300  1
  C  C755  1  0.830000  0.096900  0.137400  1
  C  C756  1  0.170000  0.903100  0.862600  1
  C  C757  1  0.836700  0.093200  0.177400  1
  C  C758  1  0.163300  0.906800  0.822600  1
  C  C759  1  0.817100  0.054700  0.202000  1
  C  C760  1  0.182900  0.945300  0.798000  1
  C  C761  1  0.866400  0.125600  0.194900  1
  C  C762  1  0.133600  0.874400  0.805100  1
  C  C763  1  0.899400  0.155500  0.170200  1
  C  C764  1  0.100600  0.844500  0.829800  1
  C  C765  1  0.927400  0.186400  0.185200  1
  C  C766  1  0.072600  0.813600  0.814800  1
  C  C767  1  0.922200  0.186500  0.226800  1
  C  C768  1  0.077800  0.813500  0.773200  1
  C  C769  1  0.891100  0.155700  0.252700  1
  C  C770  1  0.108900  0.844300  0.747300  1
  C  C771  1  0.862900  0.125200  0.237000  1
  C  C772  1  0.137100  0.874800  0.763000  1
  C  C773  1  0.932100  0.168000  0.314600  1
  C  C774  1  0.067900  0.832000  0.685400  1
  C  C775  1  0.887900  0.154300  0.296700  1
  C  C776  1  0.112100  0.845700  0.703300  1
  C  C777  1  0.845300  0.138100  0.323000  1
  C  C778  1  0.154700  0.861900  0.677000  1
  C  C779  1  0.846600  0.135400  0.363200  1
  C  C780  1  0.153400  0.864600  0.636800  1
  C  C781  1  0.890100  0.151300  0.376800  1
  C  C782  1  0.109900  0.848700  0.623200  1
  C  C783  1  0.894900  0.149000  0.422300  1
  C  C784  1  0.105100  0.851000  0.577700  1
  C  C785  1  0.946700  0.162900  0.474160  1
  C  C786  1  0.053300  0.837100  0.525840  1
  C  C787  1  0.949200  0.121600  0.499600  1
  C  C788  1  0.050800  0.878400  0.500400  1
  C  C789  1  0.954900  0.119400  0.540500  1
  C  C790  1  0.045100  0.880600  0.459500  1
  C  C791  1  0.958200  0.158200  0.556800  1
  C  C792  1  0.041800  0.841800  0.443200  1
  C  C793  1  0.955400  0.199500  0.530900  1
  C  C794  1  0.044600  0.800500  0.469100  1
  C  C795  1  0.949800  0.201900  0.490000  1
  C  C796  1  0.050200  0.798100  0.510000  1
  C  C797  1  0.965600  0.155700  0.600800  1
  C  C798  1  0.034400  0.844300  0.399200  1
  C  C799  1  0.987600  0.206400  0.123200  1
  C  C800  1  0.012400  0.793600  0.876800  1
  C  C801  1  0.963100  0.217700  0.158200  1
  C  C802  1  0.036900  0.782300  0.841800  1
  C  C803  1  0.971900  0.259500  0.167100  1
  C  C804  1  0.028100  0.740500  0.832900  1
  C  C805  1  0.005300  0.288200  0.139000  1
  C  C806  1  0.994700  0.711800  0.861000  1
  C  C807  1  0.027900  0.274000  0.104600  1
  C  C808  1  0.972100  0.726000  0.895400  1
  C  C809  1  0.064000  0.300900  0.075500  1
  C  C810  1  0.936000  0.699100  0.924500  1
  C  C811  1  0.119600  0.317500  0.018100  1
  C  C812  1  0.880400  0.682500  0.981900  1
  C  C813  1  0.099000  0.360000  0.003300  1
  C  C814  1  0.901000  0.640000  0.996700  1
  C  C815  1  0.132500  0.387900  0.974000  1
  C  C816  1  0.867500  0.612100  0.026000  1
  C  C817  1  0.185500  0.374000  0.963300  1
  C  C818  1  0.814500  0.626000  0.036700  1
  C  C819  1  0.200600  0.334700  0.977700  1
  C  C820  1  0.799400  0.665300  0.022300  1
  C  C821  1  0.170800  0.304900  0.006200  1
  C  C822  1  0.829200  0.695100  0.993800  1
  C  C823  1  0.219400  0.406200  0.933300  1
  C  C824  1  0.780600  0.593800  0.066700  1
  C  C825  1  0.649500  0.987900  0.239600  1
  C  C826  1  0.350500  0.012100  0.760400  1
  C  C827  1  0.606900  0.967200  0.262800  1
  C  C828  1  0.393100  0.032800  0.737200  1
  C  C829  1  0.556500  0.972600  0.246200  1
  C  C830  1  0.443500  0.027400  0.753800  1
  C  C831  1  0.547100  0.997100  0.209300  1
  C  C832  1  0.452900  0.002900  0.790700  1
  C  C833  1  0.590600  0.016600  0.187900  1
  C  C834  1  0.409400  0.983400  0.812100  1
  C  C835  1  0.641800  0.012800  0.201700  1
  C  C836  1  0.358200  0.987200  0.798300  1
  C  C837  1  0.491800  0.002700  0.192800  1
  C  C838  1  0.508200  0.997300  0.807200  1
  C  C839  1  0.711900  0.992700  0.286100  1
  C  C840  1  0.288100  0.007300  0.713900  1
  C  C841  1  0.766900  0.986800  0.299800  1
  C  C842  1  0.233100  0.013200  0.700200  1
  C  C843  1  0.781300  0.998300  0.335300  1
  C  C844  1  0.218700  0.001700  0.664700  1
  C  C845  1  0.834400  0.993500  0.344600  1
  C  C846  1  0.165600  0.006500  0.655400  1
  C  C847  1  0.874100  0.978200  0.319200  1
  C  C848  1  0.125900  0.021800  0.680800  1
  C  C849  1  0.856600  0.966200  0.284800  1
  C  C850  1  0.143400  0.033800  0.715200  1
  C  C851  1  0.932500  0.974900  0.325000  1
  C  C852  1  0.067500  0.025100  0.675000  1
  C  C853  1  0.967400  0.943300  0.309400  1
  C  C854  1  0.032600  0.056700  0.690600  1
  C  C855  1  0.022500  0.941400  0.313100  1
  C  C856  1  0.977500  0.058600  0.686900  1
  C  C857  1  0.043500  0.970600  0.334100  1
  C  C858  1  0.956500  0.029400  0.665900  1
  C  C859  1  0.011600  0.002900  0.350300  1
  C  C860  1  0.988400  0.997100  0.649700  1
  C  C861  1  0.955500  0.004600  0.345400  1
  C  C862  1  0.044500  0.995400  0.654600  1
  C  C863  1  0.010700  0.078300  0.370100  1
  C  C864  1  0.989300  0.921700  0.629900  1
  C  C865  1  0.035100  0.034600  0.372300  1
  C  C866  1  0.964900  0.965400  0.627700  1
  C  C867  1  0.079500  0.023600  0.394700  1
  C  C868  1  0.920500  0.976400  0.605300  1
  C  C869  1  0.098400  0.055400  0.413200  1
  C  C870  1  0.901600  0.944600  0.586800  1
  C  C871  1  0.073200  0.095500  0.411300  1
  C  C872  1  0.926800  0.904500  0.588700  1
  C  C873  1  0.091300  0.130900  0.431600  1
  C  C874  1  0.908700  0.869100  0.568400  1
  C  C875  1  0.082900  0.200400  0.451500  1
  C  C876  1  0.917100  0.799600  0.548500  1
  C  C877  1  0.137000  0.202000  0.459800  1
  C  C878  1  0.863000  0.798000  0.540200  1
  C  C879  1  0.150600  0.226200  0.488600  1
  C  C880  1  0.849400  0.773800  0.511400  1
  C  C881  1  0.110600  0.249200  0.509700  1
  C  C882  1  0.889400  0.750800  0.490300  1
  C  C883  1  0.056500  0.247100  0.501000  1
  C  C884  1  0.943500  0.752900  0.499000  1
  C  C885  1  0.042700  0.223000  0.472200  1
  C  C886  1  0.957300  0.777000  0.527800  1
  C  C887  1  0.125600  0.276100  0.540100  1
  C  C888  1  0.874400  0.723900  0.459900  1
  C  C889  1  0.112100  0.917000  0.283000  1
  C  C890  1  0.887900  0.083000  0.717000  1
  C  C891  1  0.058800  0.907000  0.295800  1
  C  C892  1  0.941200  0.093000  0.704200  1
  C  C893  1  0.041200  0.866900  0.290400  1
  C  C894  1  0.958800  0.133100  0.709600  1
  C  C895  1  0.076500  0.838400  0.272500  1
  C  C896  1  0.923500  0.161600  0.727500  1
  C  C897  1  0.127800  0.849600  0.260300  1
  C  C898  1  0.872200  0.150400  0.739700  1
  C  C899  1  0.168400  0.820700  0.242200  1
  C  C900  1  0.831600  0.179300  0.757800  1
  C  C901  1  0.253900  0.801300  0.215400  1
  C  C902  1  0.746100  0.198700  0.784600  1
  C  C903  1  0.266500  0.761800  0.238200  1
  C  C904  1  0.733500  0.238200  0.761800  1
  C  C905  1  0.306700  0.733800  0.225300  1
  C  C906  1  0.693300  0.266200  0.774700  1
  C  C907  1  0.331800  0.740800  0.190200  1
  C  C908  1  0.668200  0.259200  0.809800  1
  C  C909  1  0.319800  0.780100  0.166300  1
  C  C910  1  0.680200  0.219900  0.833700  1
  C  C911  1  0.280700  0.811900  0.178600  1
  C  C912  1  0.719300  0.188100  0.821400  1
  C  C913  1  0.376300  0.708400  0.177800  1
  C  C914  1  0.623700  0.291600  0.822200  1
  C  C915  1  0.267800  0.835100  0.321400  1
  C  C916  1  0.732200  0.164900  0.678600  1
  C  C917  1  0.231700  0.816200  0.347600  1
  C  C918  1  0.768300  0.183800  0.652400  1
  C  C919  1  0.243800  0.773700  0.367700  1
  C  C920  1  0.756200  0.226300  0.632300  1
  C  C921  1  0.288800  0.749400  0.361000  1
  C  C922  1  0.711200  0.250600  0.639000  1
  C  C923  1  0.321500  0.767900  0.327600  1
  C  C924  1  0.678500  0.232100  0.672400  1
  C  C925  1  0.311000  0.809900  0.310500  1
  C  C926  1  0.689000  0.190100  0.689500  1
  C  C927  1  0.296400  0.700200  0.383100  1
  C  C928  1  0.703600  0.299800  0.616900  1
  C  C929  1  0.256100  0.911100  0.321000  1
  C  C930  1  0.743900  0.088900  0.679000  1
  C  C931  1  0.240700  0.957800  0.300700  1
  C  C932  1  0.759300  0.042200  0.699300  1
  C  C933  1  0.237200  0.992800  0.322500  1
  C  C934  1  0.762800  0.007200  0.677500  1
  C  C935  1  0.220200  0.032600  0.304800  1
  C  C936  1  0.779800  0.967400  0.695200  1
  C  C937  1  0.203600  0.039900  0.265800  1
  C  C938  1  0.796400  0.960100  0.734200  1
  C  C939  1  0.210500  0.002400  0.246000  1
  C  C940  1  0.789500  0.997600  0.754000  1
  C  C941  1  0.180700  0.084000  0.244400  1
  C  C942  1  0.819300  0.916000  0.755600  1
  C  C943  1  0.154900  0.113400  0.266900  1
  C  C944  1  0.845100  0.886600  0.733100  1
  C  C945  1  0.132700  0.154600  0.249100  1
  C  C946  1  0.867300  0.845400  0.750900  1
  C  C947  1  0.138300  0.165800  0.208100  1
  C  C948  1  0.861700  0.834200  0.791900  1
  C  C949  1  0.165400  0.137300  0.184400  1
  C  C950  1  0.834600  0.862700  0.815600  1
  C  C951  1  0.187100  0.095700  0.203400  1
  C  C952  1  0.812900  0.904300  0.796600  1
  C  C953  1  0.129400  0.173600  0.120400  1
  C  C954  1  0.870600  0.826400  0.879600  1
  C  C955  1  0.171600  0.148900  0.139700  1
  C  C956  1  0.828400  0.851100  0.860300  1
  C  C957  1  0.215100  0.136300  0.116800  1
  C  C958  1  0.784900  0.863700  0.883200  1
  C  C959  1  0.217100  0.148200  0.076200  1
  C  C960  1  0.782900  0.851800  0.923800  1
  C  C961  1  0.175600  0.172600  0.058100  1
  C  C962  1  0.824400  0.827400  0.941900  1
  C  C963  1  0.172700  0.184100  0.015500  1
  C  C964  1  0.827300  0.815900  0.984500  1
  C  C965  1  0.133500  0.212500  0.955500  1
  C  C966  1  0.866500  0.787500  0.044500  1
  C  C967  1  0.092700  0.199100  0.936100  1
  C  C968  1  0.907300  0.800900  0.063900  1
  C  C969  1  0.093700  0.207700  0.894200  1
  C  C970  1  0.906300  0.792300  0.105800  1
  C  C971  1  0.137700  0.229500  0.872400  1
  C  C972  1  0.862300  0.770500  0.127600  1
  C  C973  1  0.178000  0.242200  0.893600  1
  C  C974  1  0.822000  0.757800  0.106400  1
  C  C975  1  0.175000  0.235500  0.934300  1
  C  C976  1  0.825000  0.764500  0.065700  1
  C  C977  1  0.139700  0.237000  0.827800  1
  C  C978  1  0.860300  0.763000  0.172200  1
  C  C979  1  0.078100  0.170800  0.310400  1
  C  C980  1  0.921900  0.829200  0.689600  1
  C  C981  1  0.105400  0.185900  0.273000  1
  C  C982  1  0.894600  0.814100  0.727000  1
  C  C983  1  0.107500  0.231800  0.261700  1
  C  C984  1  0.892500  0.768200  0.738300  1
  C  C985  1  0.082200  0.258900  0.287200  1
  C  C986  1  0.917800  0.741100  0.712800  1
  C  C987  1  0.055400  0.241900  0.321000  1
  C  C988  1  0.944600  0.758100  0.679000  1
  C  C989  1  0.024100  0.270000  0.346900  1
  C  C990  1  0.975900  0.730000  0.653100  1
  C  C991  1  0.958300  0.280400  0.398800  1
  C  C992  1  0.041700  0.719600  0.601200  1
  C  C993  1  0.903600  0.274300  0.403700  1
  C  C994  1  0.096400  0.725700  0.596300  1
  C  C995  1  0.869300  0.302100  0.422100  1
  C  C996  1  0.130700  0.697900  0.577900  1
  C  C997  1  0.890800  0.337500  0.435000  1
  C  C998  1  0.109200  0.662500  0.565000  1
  C  C999  1  0.945500  0.344700  0.430600  1
  C  C1000  1  0.054500  0.655300  0.569400  1
  C  C1001  1  0.979100  0.315400  0.411500  1
  C  C1002  1  0.020900  0.684600  0.588500  1
  C  C1003  1  0.851200  0.371000  0.454600  1
  C  C1004  1  0.148800  0.629000  0.545400  1
  C  C1005  1  0.244600  0.627100  0.268500  1
  C  C1006  1  0.755400  0.372900  0.731500  1
  C  C1007  1  0.201700  0.643800  0.248000  1
  C  C1008  1  0.798300  0.356200  0.752000  1
  C  C1009  1  0.160600  0.669800  0.263600  1
  C  C1010  1  0.839400  0.330200  0.736400  1
  C  C1011  1  0.162900  0.679500  0.299400  1
  C  C1012  1  0.837100  0.320500  0.700600  1
  C  C1013  1  0.203400  0.661000  0.322300  1
  C  C1014  1  0.796600  0.339000  0.677700  1
  C  C1015  1  0.246300  0.634000  0.306300  1
  C  C1016  1  0.753700  0.366000  0.693700  1
  C  C1017  1  0.117100  0.709700  0.317400  1
  C  C1018  1  0.882900  0.290300  0.682600  1
  C  C1019  1  0.333000  0.607700  0.248700  1
  C  C1020  1  0.667000  0.392300  0.751300  1
  C  C1021  1  0.376100  0.579000  0.234000  1
  C  C1022  1  0.623900  0.421000  0.766000  1
  C  C1023  1  0.429800  0.590300  0.229000  1
  C  C1024  1  0.570200  0.409700  0.771000  1
  C  C1025  1  0.468800  0.559100  0.215100  1
  C  C1026  1  0.531200  0.440900  0.784900  1
  C  C1027  1  0.451400  0.519400  0.206200  1
  C  C1028  1  0.548600  0.480600  0.793800  1
  C  C1029  1  0.398400  0.513000  0.211200  1
  C  C1030  1  0.601600  0.487000  0.788800  1
  C  C1031  1  0.491400  0.485400  0.193900  1
  C  C1032  1  0.508600  0.514600  0.806100  1
  C  C1033  1  0.475700  0.454700  0.170600  1
  C  C1034  1  0.524300  0.545300  0.829400  1
  C  C1035  1  0.512900  0.422000  0.159700  1
  C  C1036  1  0.487100  0.578000  0.840300  1
  C  C1037  1  0.564500  0.418900  0.171400  1
  C  C1038  1  0.435500  0.581100  0.828600  1
  C  C1039  1  0.582200  0.449600  0.193700  1
  C  C1040  1  0.417800  0.550400  0.806300  1
  C  C1041  1  0.544400  0.482800  0.204300  1
  C  C1042  1  0.455600  0.517200  0.795700  1
  C  C1043  1  0.652000  0.467800  0.237200  1
  C  C1044  1  0.348000  0.532200  0.762800  1
  C  C1045  1  0.638500  0.447200  0.206500  1
  C  C1046  1  0.361500  0.552800  0.793500  1
  C  C1047  1  0.679900  0.423200  0.190000  1
  C  C1048  1  0.320100  0.576800  0.810000  1
  C  C1049  1  0.733600  0.419900  0.203000  1
  C  C1050  1  0.266400  0.580100  0.797000  1
  C  C1051  1  0.741400  0.442200  0.233500  1
  C  C1052  1  0.258600  0.557800  0.766500  1
  C  C1053  1  0.794600  0.442900  0.250600  1
  C  C1054  1  0.205400  0.557100  0.749400  1
  C  C1055  1  0.849400  0.468400  0.295200  1
  C  C1056  1  0.150600  0.531600  0.704800  1
  C  C1057  1  0.874100  0.430600  0.317000  1
  C  C1058  1  0.125900  0.569400  0.683000  1
  C  C1059  1  0.920900  0.434200  0.336100  1
  C  C1060  1  0.079100  0.565800  0.663900  1
  C  C1061  1  0.943000  0.475600  0.333333  1
  C  C1062  1  0.057000  0.524400  0.666667  1
  C  C1063  1  0.918300  0.513500  0.311500  1
  C  C1064  1  0.081700  0.486500  0.688500  1
  C  C1065  1  0.871500  0.509800  0.292500  1
  C  C1066  1  0.128500  0.490200  0.707500  1
  C  C1067  1  0.993900  0.482600  0.355300  1
  C  C1068  1  0.006100  0.517400  0.644700  1
  C  C1069  1  0.516700  0.345400  0.144300  1
  C  C1070  1  0.483300  0.654600  0.855700  1
  C  C1071  1  0.496400  0.387900  0.137500  1
  C  C1072  1  0.503600  0.612100  0.862500  1
  C  C1073  1  0.455600  0.398800  0.109300  1
  C  C1074  1  0.544400  0.601200  0.890700  1
  C  C1075  1  0.441700  0.364500  0.089600  1
  C  C1076  1  0.558300  0.635500  0.910400  1
  C  C1077  1  0.467000  0.322200  0.097900  1
  C  C1078  1  0.533000  0.677800  0.902100  1
  C  C1079  1  0.450800  0.285500  0.081400  1
  C  C1080  1  0.549200  0.714500  0.918600  1
  C  C1081  1  0.452000  0.211200  0.074400  1
  C  C1082  1  0.548000  0.788800  0.925600  1
  C  C1083  1  0.422700  0.177500  0.098500  1
  C  C1084  1  0.577300  0.822500  0.901500  1
  C  C1085  1  0.401200  0.144500  0.081500  1
  C  C1086  1  0.598800  0.855500  0.918500  1
  C  C1087  1  0.408400  0.144400  0.040200  1
  C  C1088  1  0.591600  0.855600  0.959800  1
  C  C1089  1  0.438000  0.178300  0.016400  1
  C  C1090  1  0.562000  0.821700  0.983600  1
  C  C1091  1  0.459700  0.211500  0.033200  1
  C  C1092  1  0.540300  0.788500  0.966800  1
  C  C1093  1  0.384000  0.109300  0.021800  1
  C  C1094  1  0.616000  0.890700  0.978200  1
  C  C1095  1  0.237000  0.588800  0.154100  1
  C  C1096  1  0.763000  0.411200  0.845900  1
  C  C1097  1  0.267200  0.623300  0.153100  1
  C  C1098  1  0.732800  0.376700  0.846900  1
  C  C1099  1  0.250000  0.663600  0.132400  1
  C  C1100  1  0.750000  0.336400  0.867600  1
  C  C1101  1  0.205700  0.670400  0.111600  1
  C  C1102  1  0.794300  0.329600  0.888400  1
  C  C1103  1  0.174900  0.635400  0.114600  1
  C  C1104  1  0.825100  0.364600  0.885400  1
  C  C1105  1  0.190200  0.594200  0.137000  1
  C  C1106  1  0.809800  0.405800  0.863000  1
  C  C1107  1  0.187900  0.714200  0.088100  1
  C  C1108  1  0.812100  0.285800  0.911900  1
  C  C1109  1  0.256300  0.511300  0.161900  1
  C  C1110  1  0.743700  0.488700  0.838100  1
  C  C1111  1  0.272800  0.467200  0.184300  1
  C  C1112  1  0.727200  0.532800  0.815700  1
  C  C1113  1  0.282500  0.430200  0.167300  1
  C  C1114  1  0.717500  0.569800  0.832700  1
  C  C1115  1  0.298400  0.389500  0.190500  1
  C  C1116  1  0.701600  0.610500  0.809500  1
  C  C1117  1  0.306400  0.388200  0.231100  1
  C  C1118  1  0.693600  0.611800  0.768900  1
  C  C1119  1  0.295900  0.427400  0.246100  1
  C  C1120  1  0.704100  0.572600  0.753900  1
  C  C1121  1  0.327500  0.348200  0.256200  1
  C  C1122  1  0.672500  0.651800  0.743800  1
  C  C1123  1  0.359600  0.315900  0.239900  1
  C  C1124  1  0.640400  0.684100  0.760100  1
  C  C1125  1  0.381400  0.277100  0.264100  1
  C  C1126  1  0.618600  0.722900  0.735900  1
  C  C1127  1  0.370700  0.271100  0.305600  1
  C  C1128  1  0.629300  0.728900  0.694400  1
  C  C1129  1  0.337200  0.302100  0.322700  1
  C  C1130  1  0.662800  0.697900  0.677300  1
  C  C1131  1  0.315000  0.340000  0.298200  1
  C  C1132  1  0.685000  0.660000  0.701800  1
  C  C1133  1  0.366000  0.282100  0.392600  1
  C  C1134  1  0.634000  0.717900  0.607400  1
  C  C1135  1  0.324500  0.295800  0.366300  1
  C  C1136  1  0.675500  0.704200  0.633700  1
  C  C1137  1  0.272800  0.303000  0.383500  1
  C  C1138  1  0.727200  0.697000  0.616500  1
  C  C1139  1  0.264100  0.297400  0.424600  1
  C  C1140  1  0.735900  0.702600  0.575400  1
  C  C1141  1  0.307200  0.285300  0.448100  1
  C  C1142  1  0.692800  0.714700  0.551900  1
  C  C1143  1  0.302000  0.285400  0.491500  1
  C  C1144  1  0.698000  0.714600  0.508500  1
  C  C1145  1  0.333100  0.283600  0.553200  1
  C  C1146  1  0.666900  0.716400  0.446800  1
  C  C1147  1  0.288700  0.268100  0.578100  1
  C  C1148  1  0.711300  0.731900  0.421900  1
  C  C1149  1  0.281100  0.279800  0.615100  1
  C  C1150  1  0.718900  0.720200  0.384900  1
  C  C1151  1  0.315600  0.306700  0.628900  1
  C  C1152  1  0.684400  0.693300  0.371100  1
  C  C1153  1  0.358800  0.320800  0.604300  1
  C  C1154  1  0.641200  0.679200  0.395700  1
  C  C1155  1  0.369600  0.309200  0.567200  1
  C  C1156  1  0.630400  0.690800  0.432800  1
  C  C1157  1  0.306800  0.320800  0.669900  1
  C  C1158  1  0.693200  0.679200  0.330100  1
  C  C1159  1  0.442900  0.255500  0.208700  1
  C  C1160  1  0.557100  0.744500  0.791300  1
  C  C1161  1  0.415400  0.243800  0.244900  1
  C  C1162  1  0.584600  0.756200  0.755100  1
  C  C1163  1  0.419600  0.199000  0.262600  1
  C  C1164  1  0.580400  0.801000  0.737400  1
  C  C1165  1  0.450300  0.169500  0.243700  1
  C  C1166  1  0.549700  0.830500  0.756300  1
  C  C1167  1  0.477400  0.184000  0.206600  1
  C  C1168  1  0.522600  0.816000  0.793400  1
  C  C1169  1  0.510300  0.154200  0.183700  1
  C  C1170  1  0.489700  0.845800  0.816300  1
  C  C1171  1  0.570400  0.143000  0.129800  1
  C  C1172  1  0.429600  0.857000  0.870200  1
  C  C1173  1  0.546000  0.115000  0.108700  1
  C  C1174  1  0.454000  0.885000  0.891300  1
  C  C1175  1  0.578000  0.088500  0.085600  1
  C  C1176  1  0.422000  0.911500  0.914400  1
  C  C1177  1  0.634700  0.089300  0.083000  1
  C  C1178  1  0.365300  0.910700  0.917000  1
  C  C1179  1  0.658500  0.117500  0.104500  1
  C  C1180  1  0.341500  0.882500  0.895500  1
  C  C1181  1  0.626800  0.144100  0.127700  1
  C  C1182  1  0.373200  0.855900  0.872300  1
  C  C1183  1  0.669000  0.061500  0.057200  1
  C  C1184  1  0.331000  0.938500  0.942800  1
  C  C1185  1  0.767200  0.579900  0.243800  1
  C  C1186  1  0.232800  0.420100  0.756200  1
  C  C1187  1  0.784800  0.561700  0.210500  1
  C  C1188  1  0.215200  0.438300  0.789500  1
  C  C1189  1  0.822400  0.580700  0.184100  1
  C  C1190  1  0.177600  0.419300  0.815900  1
  C  C1191  1  0.845500  0.618600  0.188400  1
  C  C1192  1  0.154500  0.381400  0.811600  1
  C  C1193  1  0.830300  0.636600  0.224000  1
  C  C1194  1  0.169700  0.363400  0.776000  1
  C  C1195  1  0.790400  0.616700  0.249700  1
  C  C1196  1  0.209600  0.383300  0.750300  1
  C  C1197  1  0.885500  0.641800  0.154700  1
  C  C1198  1  0.114500  0.358200  0.845300  1
  C  C1199  1  0.680300  0.582100  0.275600  1
  C  C1200  1  0.319700  0.417900  0.724400  1
  C  C1201  1  0.634100  0.560500  0.300200  1
  C  C1202  1  0.365900  0.439500  0.699800  1
  C  C1203  1  0.584800  0.581300  0.303500  1
  C  C1204  1  0.415200  0.418700  0.696500  1
  C  C1205  1  0.541300  0.558700  0.323700  1
  C  C1206  1  0.458700  0.441300  0.676300  1
  C  C1207  1  0.549300  0.513800  0.340500  1
  C  C1208  1  0.450700  0.486200  0.659500  1
  C  C1209  1  0.600800  0.495100  0.336800  1
  C  C1210  1  0.399200  0.504900  0.663200  1
  C  C1211  1  0.503700  0.487300  0.360600  1
  C  C1212  1  0.496300  0.512700  0.639400  1
  C  C1213  1  0.451100  0.497700  0.349400  1
  C  C1214  1  0.548900  0.502300  0.650600  1
  C  C1215  1  0.408300  0.472800  0.369100  1
  C  C1216  1  0.591700  0.527200  0.630900  1
  C  C1217  1  0.417500  0.437500  0.398700  1
  C  C1218  1  0.582500  0.562500  0.601300  1
  C  C1219  1  0.470000  0.426000  0.410200  1
  C  C1220  1  0.530000  0.574000  0.589800  1
  C  C1221  1  0.513000  0.451000  0.391400  1
  C  C1222  1  0.487000  0.549000  0.608600  1
  C  C1223  1  0.342600  0.496700  0.315300  1
  C  C1224  1  0.657400  0.503300  0.684700  1
  C  C1225  1  0.351100  0.483800  0.356200  1
  C  C1226  1  0.648900  0.516200  0.643800  1
  C  C1227  1  0.306000  0.481300  0.382600  1
  C  C1228  1  0.694000  0.518700  0.617400  1
  C  C1229  1  0.256800  0.492600  0.368700  1
  C  C1230  1  0.743200  0.507400  0.631300  1
  C  C1231  1  0.250300  0.505200  0.328700  1
  C  C1232  1  0.749700  0.494800  0.671300  1
  C  C1233  1  0.197400  0.514600  0.311500  1
  C  C1234  1  0.802600  0.485400  0.688500  1
  C  C1235  1  0.142600  0.536400  0.259000  1
  C  C1236  1  0.857400  0.463600  0.741000  1
  C  C1237  1  0.128900  0.520400  0.225200  1
  C  C1238  1  0.871100  0.479600  0.774800  1
  C  C1239  1  0.078700  0.532600  0.209500  1
  C  C1240  1  0.921300  0.467400  0.790500  1
  C  C1241  1  0.041100  0.560800  0.227100  1
  C  C1242  1  0.958900  0.439200  0.772900  1
  C  C1243  1  0.055500  0.576700  0.261000  1
  C  C1244  1  0.944500  0.423300  0.739000  1
  C  C1245  1  0.105700  0.564600  0.276900  1
  C  C1246  1  0.894300  0.435400  0.723100  1
  C  C1247  1  0.986400  0.572900  0.210700  1
  C  C1248  1  0.013600  0.427100  0.789300  1
  C  C1249  1  0.449200  0.349500  0.446500  1
  C  C1250  1  0.550800  0.650500  0.553500  1
  C  C1251  1  0.481000  0.385500  0.443800  1
  C  C1252  1  0.519000  0.614500  0.556200  1
  C  C1253  1  0.521800  0.383200  0.468600  1
  C  C1254  1  0.478200  0.616800  0.531400  1
  C  C1255  1  0.529100  0.344600  0.496100  1
  C  C1256  1  0.470900  0.655400  0.503900  1
  C  C1257  1  0.496900  0.310200  0.497100  1
  C  C1258  1  0.503100  0.689800  0.502900  1
  C  C1259  1  0.503500  0.267000  0.525200  1
  C  C1260  1  0.496500  0.733000  0.474800  1
  C  C1261  1  0.479300  0.193900  0.553300  1
  C  C1262  1  0.520700  0.806100  0.446700  1
  C  C1263  1  0.481400  0.194200  0.592600  1
  C  C1264  1  0.518600  0.805800  0.407400  1
  C  C1265  1  0.485800  0.153700  0.618800  1
  C  C1266  1  0.514200  0.846300  0.381200  1
  C  C1267  1  0.488000  0.114100  0.606900  1
  C  C1268  1  0.512000  0.885900  0.393100  1
  C  C1269  1  0.486400  0.115200  0.566000  1
  C  C1270  1  0.513600  0.884800  0.434000  1
  C  C1271  1  0.483300  0.154200  0.539600  1
  C  C1272  1  0.516700  0.845800  0.460400  1
  C  C1273  1  0.493200  0.071600  0.636700  1
  C  C1274  1  0.506800  0.928400  0.363300  1
  C  C1275  1  0.608800  0.259000  0.057400  1
  C  C1276  1  0.391200  0.741000  0.942600  1
  C  C1277  1  0.595200  0.224000  0.039000  1
  C  C1278  1  0.404800  0.776000  0.961000  1
  C  C1279  1  0.602100  0.227700  0.997400  1
  C  C1280  1  0.397900  0.772300  0.002600  1
  C  C1281  1  0.622500  0.266200  0.973310  1
  C  C1282  1  0.377500  0.733800  0.026690  1
  C  C1283  1  0.636100  0.301000  0.992300  1
  C  C1284  1  0.363900  0.699000  0.007700  1
  C  C1285  1  0.629400  0.297500  0.033900  1
  C  C1286  1  0.370600  0.702500  0.966100  1
  C  C1287  1  0.628600  0.270500  0.928320  1
  C  C1288  1  0.371400  0.729500  0.071680  1
  C  C1289  1  0.644200  0.263700  0.116700  1
  C  C1290  1  0.355800  0.736300  0.883300  1
  C  C1291  1  0.639600  0.265000  0.159600  1
  C  C1292  1  0.360400  0.735000  0.840400  1
  C  C1293  1  0.684300  0.275900  0.178200  1
  C  C1294  1  0.315700  0.724100  0.821800  1
  C  C1295  1  0.678300  0.279000  0.218900  1
  C  C1296  1  0.321700  0.721000  0.781100  1
  C  C1297  1  0.627600  0.271200  0.239300  1
  C  C1298  1  0.372400  0.728800  0.760700  1
  C  C1299  1  0.585900  0.260300  0.217600  1
  C  C1300  1  0.414100  0.739700  0.782400  1
  C  C1301  1  0.618700  0.277800  0.281400  1
  C  C1302  1  0.381300  0.722200  0.718600  1
  C  C1303  1  0.581200  0.252200  0.307300  1
  C  C1304  1  0.418800  0.747800  0.692700  1
  C  C1305  1  0.572100  0.257600  0.347800  1
  C  C1306  1  0.427900  0.742400  0.652200  1
  C  C1307  1  0.601300  0.290000  0.361200  1
  C  C1308  1  0.398700  0.710000  0.638800  1
  C  C1309  1  0.638500  0.316100  0.335900  1
  C  C1310  1  0.361500  0.683900  0.664100  1
  C  C1311  1  0.646100  0.309100  0.295600  1
  C  C1312  1  0.353900  0.690900  0.704400  1
  C  C1313  1  0.679000  0.390500  0.325500  1
  C  C1314  1  0.321000  0.609500  0.674500  1
  C  C1315  1  0.666000  0.349800  0.349900  1
  C  C1316  1  0.334000  0.650200  0.650100  1
  C  C1317  1  0.682700  0.345300  0.389100  1
  C  C1318  1  0.317300  0.654700  0.610900  1
  C  C1319  1  0.707200  0.378100  0.401600  1
  C  C1320  1  0.292800  0.621900  0.598400  1
  C  C1321  1  0.718100  0.417400  0.374100  1
  C  C1322  1  0.281900  0.582600  0.625900  1
  C  C1323  1  0.746500  0.453200  0.385700  1
  C  C1324  1  0.253500  0.546800  0.614300  1
  C  C1325  1  0.786900  0.522300  0.373400  1
  C  C1326  1  0.213100  0.477700  0.626600  1
  C  C1327  1  0.774000  0.567200  0.360300  1
  C  C1328  1  0.226000  0.432800  0.639700  1
  C  C1329  1  0.805500  0.598500  0.372700  1
  C  C1330  1  0.194500  0.401500  0.627300  1
  C  C1331  1  0.846900  0.588900  0.396300  1
  C  C1332  1  0.153100  0.411100  0.603700  1
  C  C1333  1  0.859500  0.542500  0.407800  1
  C  C1334  1  0.140500  0.457500  0.592200  1
  C  C1335  1  0.829300  0.508900  0.398800  1
  C  C1336  1  0.170700  0.491100  0.601200  1
  C  C1337  1  0.879500  0.622600  0.407900  1
  C  C1338  1  0.120500  0.377400  0.592100  1
  C  C1339  1  0.506300  0.247500  0.408400  1
  C  C1340  1  0.493700  0.752500  0.591600  1
  C  C1341  1  0.531600  0.230400  0.375600  1
  C  C1342  1  0.468400  0.769600  0.624400  1
  C  C1343  1  0.517800  0.189200  0.370600  1
  C  C1344  1  0.482200  0.810800  0.629400  1
  C  C1345  1  0.478000  0.166100  0.395400  1
  C  C1346  1  0.522000  0.833900  0.604600  1
  C  C1347  1  0.453400  0.187000  0.426400  1
  C  C1348  1  0.546600  0.813000  0.573600  1
  C  C1349  1  0.407900  0.167800  0.452900  1
  C  C1350  1  0.592100  0.832200  0.547100  1
  C  C1351  1  0.338200  0.168400  0.502700  1
  C  C1352  1  0.661800  0.831600  0.497300  1
  C  C1353  1  0.299700  0.151300  0.485300  1
  C  C1354  1  0.700300  0.848700  0.514700  1
  C  C1355  1  0.255200  0.132900  0.507200  1
  C  C1356  1  0.744800  0.867100  0.492800  1
  C  C1357  1  0.249800  0.129400  0.548800  1
  C  C1358  1  0.750200  0.870600  0.451200  1
  C  C1359  1  0.289100  0.150000  0.565700  1
  C  C1360  1  0.710900  0.850000  0.434300  1
  C  C1361  1  0.331600  0.168200  0.543900  1
  C  C1362  1  0.668400  0.831800  0.456100  1
  C  C1363  1  0.201500  0.107800  0.572900  1
  C  C1364  1  0.798500  0.892200  0.427100  1
  C  C1365  1  0.927600  0.940400  0.039800  1
  C  C1366  1  0.072400  0.059600  0.960200  1
  C  C1367  1  0.736200  0.971000  0.992500  1
  C  C1368  1  0.263800  0.029000  0.007500  1
  C  C1369  1  0.042500  0.718800  0.161800  1
  C  C1370  1  0.957500  0.281200  0.838200  1
  C  C1371  1  0.082900  0.850100  0.090600  1
  C  C1372  1  0.917100  0.149900  0.909400  1
  C  C1373  1  0.783800  0.222000  0.037800  1
  C  C1374  1  0.216200  0.778000  0.962200  1
  C  C1375  1  0.838000  0.325200  0.126300  1
  C  C1376  1  0.162000  0.674800  0.873700  1
  C  C1377  1  0.803000  0.270600  0.311200  1
  C  C1378  1  0.197000  0.729400  0.688800  1
  C  C1379  1  0.948900  0.360000  0.231300  1
  C  C1380  1  0.051100  0.640000  0.768700  1
  C  C1381  1  0.563300  0.075800  0.332800  1
  C  C1382  1  0.436700  0.924200  0.667200  1
  C  C1383  1  0.700100  0.147400  0.223000  1
  C  C1384  1  0.299900  0.852600  0.777000  1
  C  C1385  1  0.751700  0.014400  0.497200  1
  C  C1386  1  0.248300  0.985600  0.502800  1
  C  C1387  1  0.924900  0.968100  0.460900  1
  C  C1388  1  0.075100  0.031900  0.539100  1
  C  C1389  1  0.224200  0.198000  0.340500  1
  C  C1390  1  0.775800  0.802000  0.659500  1
  C  C1391  1  0.342000  0.068100  0.390000  1
  C  C1392  1  0.658000  0.931900  0.610000  1
  C  C1393  1  0.153900  0.343900  0.189700  1
  C  C1394  1  0.846100  0.656100  0.810300  1
  C  C1395  1  0.279500  0.253600  0.109900  1
  C  C1396  1  0.720500  0.746400  0.890100  1
  C  C1397  1  0.666000  0.432100  0.540300  1
  C  C1398  1  0.334000  0.567900  0.459700  1
  C  C1399  1  0.579500  0.530600  0.461800  1
  C  C1400  1  0.420500  0.469400  0.538200  1
  C  C1401  1  0.671300  0.708900  0.195300  1
  C  C1402  1  0.328700  0.291100  0.804700  1
  C  C1403  1  0.639000  0.567000  0.136300  1
  C  C1404  1  0.361000  0.433000  0.863700  1
  C  C1405  1  0.477000  0.735200  0.256500  1
  C  C1406  1  0.523000  0.264800  0.743500  1
  C  C1407  1  0.450500  0.629300  0.396800  1
  C  C1408  1  0.549500  0.370700  0.603200  1
  C  C1409  1  0.103100  0.400500  0.316900  1
  C  C1410  1  0.896900  0.599500  0.683100  1
  C  C1411  1  0.150000  0.417200  0.456100  1
  C  C1412  1  0.850000  0.582800  0.543900  1
  C  C1413  1  0.924700  0.691700  0.286100  1
  C  C1414  1  0.075300  0.308300  0.713900  1
  C  C1415  1  0.832200  0.818900  0.341300  1
  C  C1416  1  0.167800  0.181100  0.658700  1
  C  C1417  1  0.688200  0.170500  0.407090  1
  C  C1418  1  0.311800  0.829500  0.592910  1
  C  C1419  1  0.706400  0.261500  0.497710  1
  C  C1420  1  0.293600  0.738500  0.502290  1
  C  C1421  1  0.649900  0.945500  0.394300  1
  C  C1422  1  0.350100  0.054500  0.605700  1
  C  C1423  1  0.637200  0.954300  0.433300  1
  C  C1424  1  0.362800  0.045700  0.566700  1
  C  C1425  1  0.379200  0.019100  0.273700  1
  C  C1426  1  0.620800  0.980900  0.726300  1
  C  C1427  1  0.423700  0.019900  0.296500  1
  C  C1428  1  0.576300  0.980100  0.703500  1
  C  C1429  1  0.317000  0.036700  0.157800  1
  C  C1430  1  0.683000  0.963300  0.842200  1
  C  C1431  1  0.375800  0.021800  0.147800  1
  C  C1432  1  0.624200  0.978200  0.852200  1
  C  C1433  1  0.295600  0.394200  0.496000  1
  C  C1434  1  0.704400  0.605800  0.504000  1
  C  C1435  1  0.264200  0.401600  0.530800  1
  C  C1436  1  0.735800  0.598400  0.469200  1
  C  C1437  1  0.928200  0.160300  0.477600  1
  C  C1438  1  0.071800  0.839700  0.522400  1
  C  C1439  1  0.894800  0.192600  0.493200  1
  C  C1440  1  0.105200  0.807400  0.506800  1
  C  C1441  1  0.896700  0.197200  0.533200  1
  C  C1442  1  0.103300  0.802800  0.466800  1
  C  C1443  1  0.931800  0.169700  0.558500  1
  C  C1444  1  0.068200  0.830300  0.441500  1
  C  C1445  1  0.965100  0.137500  0.542400  1
  C  C1446  1  0.034900  0.862500  0.457600  1
  C  C1447  1  0.963400  0.132800  0.502400  1
  C  C1448  1  0.036600  0.867200  0.497600  1
  C  C1449  1  0.932800  0.174000  0.602000  1
  C  C1450  1  0.067200  0.826000  0.398000  1
  C  C1451  1  0.087000  0.197700  0.453600  1
  C  C1452  1  0.913000  0.802300  0.546400  1
  C  C1453  1  0.097800  0.241800  0.436960  1
  C  C1454  1  0.902200  0.758200  0.563040  1
  C  C1455  1  0.113500  0.270800  0.461100  1
  C  C1456  1  0.886500  0.729200  0.538900  1
  C  C1457  1  0.118700  0.256400  0.502200  1
  C  C1458  1  0.881300  0.743600  0.497800  1
  C  C1459  1  0.107900  0.212000  0.518500  1
  C  C1460  1  0.892100  0.788000  0.481500  1
  C  C1461  1  0.092200  0.182800  0.494500  1
  C  C1462  1  0.907800  0.817200  0.505500  1
  C  C1463  1  0.134400  0.288100  0.528400  1
  C  C1464  1  0.865600  0.711900  0.471600  1
  C  C1465  1  0.161200  0.402600  0.439700  1
  C  C1466  1  0.838800  0.597400  0.560300  1
  C  C1467  1  0.866700  0.826800  0.335700  1
  C  C1468  1  0.133300  0.173200  0.664300  1
  C  C1469  1  0.668600  0.259700  0.505700  1
  C  C1470  1  0.331400  0.740300  0.494300  1
  S  S1471  1  0.870030  0.978840  0.032650  1
  S  S1472  1  0.129970  0.021160  0.967350  1
  S  S1473  1  0.794550  0.932600  0.001570  1
  S  S1474  1  0.205450  0.067400  0.998430  1
  S  S1475  1  0.054800  0.766760  0.180530  1
  S  S1476  1  0.945200  0.233240  0.819470  1
  S  S1477  1  0.117890  0.831690  0.137440  1
  S  S1478  1  0.882110  0.168310  0.862560  1
  S  S1479  1  0.816960  0.228870  0.079490  1
  S  S1480  1  0.183040  0.771130  0.920510  1
  S  S1481  1  0.809900  0.320900  0.078940  1
  S  S1482  1  0.190100  0.679100  0.921060  1
  S  S1483  1  0.821050  0.306220  0.265690  1
  S  S1484  1  0.178950  0.693780  0.734310  1
  S  S1485  1  0.928760  0.322770  0.271780  1
  S  S1486  1  0.071240  0.677230  0.728220  1
  S  S1487  1  0.579420  0.104520  0.281910  1
  S  S1488  1  0.420580  0.895480  0.718090  1
  S  S1489  1  0.690580  0.119900  0.275450  1
  S  S1490  1  0.309420  0.880100  0.724550  1
  S  S1491  1  0.785200  0.032910  0.452900  1
  S  S1492  1  0.214800  0.967090  0.547100  1
  S  S1493  1  0.892550  0.017000  0.461020  1
  S  S1494  1  0.107450  0.983000  0.538980  1
  S  S1495  1  0.225290  0.142680  0.367300  1
  S  S1496  1  0.774710  0.857320  0.632700  1
  S  S1497  1  0.335090  0.119060  0.357010  1
  S  S1498  1  0.664910  0.880940  0.642990  1
  S  S1499  1  0.169230  0.318610  0.148640  1
  S  S1500  1  0.830770  0.681390  0.851360  1
  S  S1501  1  0.270600  0.273760  0.153610  1
  S  S1502  1  0.729400  0.726240  0.846390  1
  S  S1503  1  0.638700  0.502500  0.447500  1
  S  S1504  1  0.361300  0.497500  0.552500  1
  S  S1505  1  0.715100  0.467400  0.507000  1
  S  S1506  1  0.284900  0.532600  0.493000  1
  S  S1507  1  0.618600  0.601300  0.175390  1
  S  S1508  1  0.381400  0.398700  0.824610  1
  S  S1509  1  0.680000  0.675900  0.154200  1
  S  S1510  1  0.320000  0.324100  0.845800  1
  S  S1511  1  0.452400  0.685700  0.291700  1
  S  S1512  1  0.547600  0.314300  0.708300  1
  S  S1513  1  0.483400  0.678000  0.365800  1
  S  S1514  1  0.516600  0.322000  0.634200  1
  S  S1515  1  0.155600  0.388300  0.353700  1
  S  S1516  1  0.844400  0.611700  0.646300  1
  S  S1517  1  0.105900  0.425700  0.413500  1
  S  S1518  1  0.894100  0.574300  0.586500  1
  S  S1519  1  0.869000  0.730050  0.300960  1
  S  S1520  1  0.131000  0.269950  0.699040  1
  S  S1521  1  0.901200  0.808400  0.318900  1
  S  S1522  1  0.098800  0.191600  0.681100  1
  S  S1523  1  0.724470  0.197170  0.441600  1
  S  S1524  1  0.275530  0.802830  0.558400  1
  S  S1525  1  0.643270  0.242340  0.481730  1
  S  S1526  1  0.356730  0.757660  0.518270  1
  S  S1527  1  0.119500  0.415600  0.406500  1
  S  S1528  1  0.880500  0.584400  0.593500  1
  S  S1529  1  0.156900  0.380100  0.338900  1
  S  S1530  1  0.843100  0.619900  0.661100  1
  N  N1531  1  0.774000  0.885500  0.239500  1
  N  N1532  1  0.226000  0.114500  0.760500  1
  N  N1533  1  0.854300  0.935100  0.198100  1
  N  N1534  1  0.145700  0.064900  0.801900  1
  N  N1535  1  0.204900  0.932400  0.183000  1
  N  N1536  1  0.795100  0.067600  0.817000  1
  N  N1537  1  0.306900  0.908500  0.202100  1
  N  N1538  1  0.693100  0.091500  0.797900  1
  N  N1539  1  0.025100  0.155800  0.048400  1
  N  N1540  1  0.974900  0.844200  0.951600  1
  N  N1541  1  0.000200  0.238600  0.005700  1
  N  N1542  1  0.999800  0.761400  0.994300  1
  N  N1543  1  0.745400  0.957600  0.161700  1
  N  N1544  1  0.254600  0.042400  0.838300  1
  N  N1545  1  0.793000  0.023400  0.188400  1
  N  N1546  1  0.207000  0.976600  0.811600  1
  N  N1547  1  0.932700  0.166700  0.353800  1
  N  N1548  1  0.067300  0.833300  0.646200  1
  N  N1549  1  0.936500  0.163200  0.433700  1
  N  N1550  1  0.063500  0.836800  0.566300  1
  N  N1551  1  0.018900  0.233200  0.097200  1
  N  N1552  1  0.981100  0.766800  0.902800  1
  N  N1553  1  0.087800  0.286300  0.046400  1
  N  N1554  1  0.912200  0.713700  0.953600  1
  N  N1555  1  0.702700  0.982700  0.253200  1
  N  N1556  1  0.297300  0.017300  0.746800  1
  N  N1557  1  0.804900  0.970600  0.275100  1
  N  N1558  1  0.195100  0.029400  0.724900  1
  N  N1559  1  0.145700  0.889700  0.264800  1
  N  N1560  1  0.854300  0.110300  0.735200  1
  N  N1561  1  0.214700  0.833100  0.230700  1
  N  N1562  1  0.785300  0.166900  0.769300  1
  N  N1563  1  0.029100  0.107700  0.389400  1
  N  N1564  1  0.970900  0.892300  0.610600  1
  N  N1565  1  0.068700  0.168800  0.428500  1
  N  N1566  1  0.931300  0.831200  0.571500  1
  N  N1567  1  0.257600  0.880000  0.300200  1
  N  N1568  1  0.742400  0.120000  0.699800  1
  N  N1569  1  0.227600  0.963100  0.262700  1
  N  N1570  1  0.772400  0.036900  0.737300  1
  N  N1571  1  0.131200  0.185300  0.080100  1
  N  N1572  1  0.868800  0.814700  0.919900  1
  N  N1573  1  0.131100  0.203000  0.998600  1
  N  N1574  1  0.868900  0.797000  0.001400  1
  N  N1575  1  0.052500  0.197200  0.332800  1
  N  N1576  1  0.947500  0.802800  0.667200  1
  N  N1577  1  0.992800  0.251000  0.377000  1
  N  N1578  1  0.007200  0.749000  0.623000  1
  N  N1579  1  0.284400  0.598600  0.251500  1
  N  N1580  1  0.715600  0.401400  0.748500  1
  N  N1581  1  0.360100  0.541300  0.223700  1
  N  N1582  1  0.639900  0.458700  0.776300  1
  N  N1583  1  0.502600  0.312700  0.126400  1
  N  N1584  1  0.497400  0.687300  0.873600  1
  N  N1585  1  0.470800  0.246300  0.091800  1
  N  N1586  1  0.529200  0.753700  0.908200  1
  N  N1587  1  0.701400  0.465900  0.250200  1
  N  N1588  1  0.298600  0.534100  0.749800  1
  N  N1589  1  0.800100  0.465400  0.277700  1
  N  N1590  1  0.199900  0.534600  0.722300  1
  N  N1591  1  0.253000  0.545800  0.178100  1
  N  N1592  1  0.747000  0.454200  0.821900  1
  N  N1593  1  0.279200  0.466200  0.223100  1
  N  N1594  1  0.720800  0.533800  0.776900  1
  N  N1595  1  0.357400  0.277200  0.432200  1
  N  N1596  1  0.642600  0.722800  0.567800  1
  N  N1597  1  0.342200  0.276100  0.512400  1
  N  N1598  1  0.657800  0.723900  0.487600  1
  N  N1599  1  0.473500  0.227000  0.190200  1
  N  N1600  1  0.526500  0.773000  0.809800  1
  N  N1601  1  0.538600  0.171300  0.153100  1
  N  N1602  1  0.461400  0.828700  0.846900  1
  N  N1603  1  0.602500  0.255000  0.099500  1
  N  N1604  1  0.397500  0.745000  0.900500  1
  N  N1605  1  0.591200  0.256500  0.179500  1
  N  N1606  1  0.408800  0.743500  0.820500  1
  N  N1607  1  0.468500  0.226400  0.431700  1
  N  N1608  1  0.531500  0.773600  0.568300  1
  N  N1609  1  0.385600  0.187200  0.479300  1
  N  N1610  1  0.614400  0.812800  0.520700  1
  N  N1611  1  0.704600  0.422700  0.336400  1
  N  N1612  1  0.295400  0.577300  0.663600  1
  N  N1613  1  0.755300  0.489000  0.361000  1
  N  N1614  1  0.244700  0.511000  0.639000  1
  N  N1615  1  0.724700  0.560200  0.271000  1
  N  N1616  1  0.275300  0.439800  0.729000  1
  N  N1617  1  0.643300  0.516900  0.316200  1
  N  N1618  1  0.356700  0.483100  0.683800  1
  N  N1619  1  0.456800  0.312900  0.473200  1
  N  N1620  1  0.543200  0.687100  0.526800  1
  N  N1621  1  0.473700  0.235800  0.524400  1
  N  N1622  1  0.526300  0.764200  0.475600  1
  N  N1623  1  0.294600  0.507700  0.301700  1
  N  N1624  1  0.705400  0.492300  0.698300  1
  N  N1625  1  0.195700  0.526100  0.273500  1
  N  N1626  1  0.804300  0.473900  0.726500  1
  N  N1627  1  0.822400  0.947700  0.037100  1
  N  N1628  1  0.177600  0.052300  0.962900  1
  N  N1629  1  0.103000  0.782200  0.151500  1
  N  N1630  1  0.897000  0.217800  0.848500  1
  N  N1631  1  0.840400  0.278000  0.069100  1
  N  N1632  1  0.159600  0.722000  0.930900  1
  N  N1633  1  0.867900  0.334600  0.275800  1
  N  N1634  1  0.132100  0.665400  0.724200  1
  N  N1635  1  0.641400  0.089800  0.275400  1
  N  N1636  1  0.358600  0.910200  0.724600  1
  N  N1637  1  0.840200  0.004700  0.449100  1
  N  N1638  1  0.159800  0.995300  0.550900  1
  N  N1639  1  0.275000  0.119800  0.345900  1
  N  N1640  1  0.725000  0.880200  0.654100  1
  N  N1641  1  0.232700  0.317200  0.145500  1
  N  N1642  1  0.767300  0.682800  0.854500  1
  N  N1643  1  0.677500  0.496500  0.479900  1
  N  N1644  1  0.322500  0.503500  0.520100  1
  N  N1645  1  0.670700  0.627800  0.174700  1
  N  N1646  1  0.329300  0.372200  0.825300  1
  N  N1647  1  0.443700  0.698200  0.334600  1
  N  N1648  1  0.556300  0.301800  0.665400  1
  N  N1649  1  0.137100  0.430000  0.371500  1
  N  N1650  1  0.862900  0.570000  0.628500  1
  N  N1651  1  0.873300  0.780600  0.291700  1
  N  N1652  1  0.126700  0.219400  0.708300  1
  N  N1653  1  0.683900  0.237500  0.450200  1
  N  N1654  1  0.316100  0.762500  0.549800  1
  N  N1655  1  0.661700  0.937000  0.363700  1
  N  N1656  1  0.338300  0.063000  0.636300  1
  N  N1657  1  0.345100  0.019600  0.251500  1
  N  N1658  1  0.654900  0.980400  0.748500  1
  N  N1659  1  0.273700  0.035800  0.150900  1
  N  N1660  1  0.726300  0.964200  0.849100  1
  N  N1661  1  0.321900  0.387100  0.468400  1
  N  N1662  1  0.678100  0.612900  0.531600  1
  N  N1663  1  0.118100  0.382500  0.384700  1
  N  N1664  1  0.881900  0.617500  0.615300  1
  O  O1665  1  0.867200  0.999700  0.066900  1
  O  O1666  1  0.132800  0.000300  0.933100  1
  O  O1667  1  0.883500  0.004000  0.994300  1
  O  O1668  1  0.116500  0.996000  0.005700  1
  O  O1669  1  0.826000  0.936200  0.963800  1
  O  O1670  1  0.174000  0.063800  0.036200  1
  O  O1671  1  0.766400  0.892200  0.016300  1
  O  O1672  1  0.233600  0.107800  0.983700  1
  O  O1673  1  0.073600  0.752000  0.220000  1
  O  O1674  1  0.926400  0.248000  0.780000  1
  O  O1675  1  0.005600  0.792600  0.176600  1
  O  O1676  1  0.994400  0.207400  0.823400  1
  O  O1677  1  0.096000  0.860400  0.164200  1
  O  O1678  1  0.904000  0.139600  0.835800  1
  O  O1679  1  0.174700  0.835100  0.123400  1
  O  O1680  1  0.825300  0.164900  0.876600  1
  O  O1681  1  0.777400  0.221700  0.111500  1
  O  O1682  1  0.222600  0.778300  0.888500  1
  O  O1683  1  0.863300  0.199000  0.078600  1
  O  O1684  1  0.136700  0.801000  0.921400  1
  O  O1685  1  0.754000  0.318000  0.089600  1
  O  O1686  1  0.246000  0.682000  0.910400  1
  O  O1687  1  0.829600  0.356900  0.050200  1
  O  O1688  1  0.170400  0.643100  0.949800  1
  O  O1689  1  0.840300  0.272600  0.240100  1
  O  O1690  1  0.159700  0.727400  0.759900  1
  O  O1691  1  0.775700  0.331900  0.255200  1
  O  O1692  1  0.224300  0.668100  0.744800  1
  O  O1693  1  0.949200  0.280700  0.264400  1
  O  O1694  1  0.050800  0.719300  0.735600  1
  O  O1695  1  0.950100  0.340800  0.303800  1
  O  O1696  1  0.049900  0.659200  0.696200  1
  O  O1697  1  0.566400  0.150700  0.282600  1
  O  O1698  1  0.433600  0.849300  0.717400  1
  O  O1699  1  0.548600  0.083200  0.258500  1
  O  O1700  1  0.451400  0.916800  0.741500  1
  O  O1701  1  0.681900  0.156000  0.298200  1
  O  O1702  1  0.318100  0.844000  0.701800  1
  O  O1703  1  0.740000  0.091400  0.281300  1
  O  O1704  1  0.260000  0.908600  0.718700  1
  O  O1705  1  0.796400  0.078700  0.457500  1
  O  O1706  1  0.203600  0.921300  0.542500  1
  O  O1707  1  0.748700  0.023700  0.423900  1
  O  O1708  1  0.251300  0.976300  0.576100  1
  O  O1709  1  0.895400  0.024900  0.502200  1
  O  O1710  1  0.104600  0.975100  0.497800  1
  O  O1711  1  0.917400  0.048000  0.430500  1
  O  O1712  1  0.082600  0.952000  0.569500  1
  O  O1713  1  0.177300  0.124400  0.357800  1
  O  O1714  1  0.822700  0.875600  0.642200  1
  O  O1715  1  0.231100  0.147100  0.407300  1
  O  O1716  1  0.768900  0.852900  0.592700  1
  O  O1717  1  0.348300  0.152400  0.379800  1
  O  O1718  1  0.651700  0.847600  0.620200  1
  O  O1719  1  0.369700  0.113600  0.322600  1
  O  O1720  1  0.630300  0.886400  0.677400  1
  O  O1721  1  0.144300  0.278700  0.158000  1
  O  O1722  1  0.855700  0.721300  0.842000  1
  O  O1723  1  0.149300  0.351200  0.118300  1
  O  O1724  1  0.850700  0.648800  0.881700  1
  O  O1725  1  0.323300  0.287700  0.157200  1
  O  O1726  1  0.676700  0.712300  0.842800  1
  O  O1727  1  0.246900  0.237700  0.180800  1
  O  O1728  1  0.753100  0.762300  0.819200  1
  O  O1729  1  0.655900  0.547700  0.413900  1
  O  O1730  1  0.344100  0.452300  0.586100  1
  O  O1731  1  0.628600  0.465000  0.431900  1
  O  O1732  1  0.371400  0.535000  0.568100  1
  O  O1733  1  0.742500  0.485600  0.531600  1
  O  O1734  1  0.257500  0.514400  0.468400  1
  O  O1735  1  0.742100  0.433700  0.484600  1
  O  O1736  1  0.257900  0.566300  0.515400  1
  O  O1737  1  0.569400  0.626900  0.163800  1
  O  O1738  1  0.430600  0.373100  0.836200  1
  O  O1739  1  0.614300  0.569000  0.208900  1
  O  O1740  1  0.385700  0.431000  0.791100  1
  O  O1741  1  0.634600  0.696800  0.122000  1
  O  O1742  1  0.365400  0.303200  0.878000  1
  O  O1743  1  0.746500  0.670700  0.145700  1
  O  O1744  1  0.253500  0.329300  0.854300  1
  O  O1745  1  0.483500  0.650200  0.282700  1
  O  O1746  1  0.516500  0.349800  0.717300  1
  O  O1747  1  0.395800  0.687000  0.281700  1
  O  O1748  1  0.604200  0.313000  0.718300  1
  O  O1749  1  0.500700  0.704300  0.392000  1
  O  O1750  1  0.499300  0.295700  0.608000  1
  O  O1751  1  0.536000  0.651900  0.350800  1
  O  O1752  1  0.464000  0.348100  0.649200  1
  O  O1753  1  0.065300  0.390100  0.432800  1
  O  O1754  1  0.934700  0.609900  0.567200  1
  O  O1755  1  0.079300  0.467000  0.422900  1
  O  O1756  1  0.920700  0.533000  0.577100  1
  O  O1757  1  0.205300  0.402900  0.332700  1
  O  O1758  1  0.794700  0.597100  0.667300  1
  O  O1759  1  0.148200  0.326100  0.340200  1
  O  O1760  1  0.851800  0.673900  0.659800  1
  O  O1761  1  0.909300  0.848500  0.288200  1
  O  O1762  1  0.090700  0.151500  0.711800  1
  O  O1763  1  0.939200  0.773500  0.339300  1
  O  O1764  1  0.060800  0.226500  0.660700  1
  O  O1765  1  0.858900  0.715900  0.347000  1
  O  O1766  1  0.141100  0.284100  0.653000  1
  O  O1767  1  0.818100  0.713400  0.281000  1
  O  O1768  1  0.181900  0.286600  0.719000  1
  O  O1769  1  0.618200  0.211400  0.504300  1
  O  O1770  1  0.381800  0.788600  0.495700  1
  O  O1771  1  0.777300  0.201800  0.422800  1
  O  O1772  1  0.222700  0.798200  0.577200  1
  O  O1773  1  0.718700  0.159400  0.484100  1
  O  O1774  1  0.281300  0.840600  0.515900  1
  O  O1775  1  0.611100  0.275700  0.461300  1
  O  O1776  1  0.388900  0.724300  0.538700  1
  O  O1777  1  0.132900  0.457500  0.381300  1
  O  O1778  1  0.867100  0.542500  0.618700  1
  O  O1779  1  0.074600  0.418000  0.436000  1
  O  O1780  1  0.925400  0.582000  0.564000  1
  O  O1781  1  0.836200  0.697000  0.312000  1
  O  O1782  1  0.163800  0.303000  0.688000  1
  O  O1783  1  0.870600  0.764900  0.261300  1
  O  O1784  1  0.129400  0.235100  0.738700  1
  O  O1785  1  0.942300  0.806100  0.373100  1
  O  O1786  1  0.057700  0.193900  0.626900  1
  O  O1787  1  0.719300  0.249100  0.407800  1
  O  O1788  1  0.280700  0.750900  0.592200  1
  O  O1789  1  0.775000  0.183200  0.445300  1
  O  O1790  1  0.225000  0.816800  0.554700  1
  F  F1791  1  0.920700  0.913800  0.077700  1
  F  F1792  1  0.079300  0.086200  0.922300  1
  F  F1793  1  0.973600  0.960600  0.038900  1
  F  F1794  1  0.026400  0.039400  0.961100  1
  F  F1795  1  0.932400  0.910800  0.014700  1
  F  F1796  1  0.067600  0.089200  0.985300  1
  F  F1797  1  0.702900  0.968900  0.024900  1
  F  F1798  1  0.297100  0.031100  0.975100  1
  F  F1799  1  0.713000  0.966000  0.962700  1
  F  F1800  1  0.287000  0.034000  0.037300  1
  F  F1801  1  0.752700  0.015700  0.984700  1
  F  F1802  1  0.247300  0.984300  0.015300  1
  F  F1803  1  0.083500  0.688700  0.165600  1
  F  F1804  1  0.916500  0.311300  0.834400  1
  F  F1805  1  0.000300  0.698200  0.184600  1
  F  F1806  1  0.999700  0.301800  0.815400  1
  F  F1807  1  0.033100  0.722900  0.126900  1
  F  F1808  1  0.966900  0.277100  0.873100  1
  F  F1809  1  0.101400  0.823900  0.064600  1
  F  F1810  1  0.898600  0.176100  0.935400  1
  F  F1811  1  0.030900  0.851400  0.098000  1
  F  F1812  1  0.969100  0.148600  0.902000  1
  F  F1813  1  0.097700  0.894400  0.074100  1
  F  F1814  1  0.902300  0.105600  0.925900  1
  F  F1815  1  0.746500  0.191300  0.039700  1
  F  F1816  1  0.253500  0.808700  0.960300  1
  F  F1817  1  0.752900  0.261700  0.025000  1
  F  F1818  1  0.247100  0.738300  0.975000  1
  F  F1819  1  0.818000  0.219100  0.006000  1
  F  F1820  1  0.182000  0.780900  0.994000  1
  F  F1821  1  0.815400  0.359700  0.141600  1
  F  F1822  1  0.184600  0.640300  0.858400  1
  F  F1823  1  0.834000  0.290200  0.153600  1
  F  F1824  1  0.166000  0.709800  0.846400  1
  F  F1825  1  0.892500  0.334300  0.119200  1
  F  F1826  1  0.107500  0.665700  0.880800  1
  F  F1827  1  0.761600  0.247600  0.310100  1
  F  F1828  1  0.238400  0.752400  0.689900  1
  F  F1829  1  0.783800  0.297300  0.339000  1
  F  F1830  1  0.216200  0.702700  0.661000  1
  F  F1831  1  0.841500  0.247100  0.328600  1
  F  F1832  1  0.158500  0.752900  0.671400  1
  F  F1833  1  0.922000  0.354300  0.197800  1
  F  F1834  1  0.078000  0.645700  0.802200  1
  F  F1835  1  0.938000  0.403500  0.233000  1
  F  F1836  1  0.062000  0.596500  0.767000  1
  F  F1837  1  0.000700  0.357500  0.215400  1
  F  F1838  1  0.999300  0.642500  0.784600  1
  F  F1839  1  0.591300  0.090300  0.358800  1
  F  F1840  1  0.408700  0.909700  0.641200  1
  F  F1841  1  0.511600  0.084300  0.342600  1
  F  F1842  1  0.488400  0.915700  0.657400  1
  F  F1843  1  0.573200  0.032300  0.336600  1
  F  F1844  1  0.426800  0.967700  0.663400  1
  F  F1845  1  0.713200  0.118000  0.200000  1
  F  F1846  1  0.286800  0.882000  0.800000  1
  F  F1847  1  0.656300  0.171000  0.212500  1
  F  F1848  1  0.343700  0.829000  0.787500  1
  F  F1849  1  0.742700  0.174300  0.219700  1
  F  F1850  1  0.257300  0.825700  0.780300  1
  F  F1851  1  0.787300  0.012000  0.530200  1
  F  F1852  1  0.212700  0.988000  0.469800  1
  F  F1853  1  0.707600  0.033800  0.508400  1
  F  F1854  1  0.292400  0.966200  0.491600  1
  F  F1855  1  0.741800  0.971000  0.499100  1
  F  F1856  1  0.258200  0.029000  0.500900  1
  F  F1857  1  0.913900  0.933400  0.489400  1
  F  F1858  1  0.086100  0.066600  0.510600  1
  F  F1859  1  0.979800  0.972500  0.465900  1
  F  F1860  1  0.020200  0.027500  0.534100  1
  F  F1861  1  0.928100  0.950600  0.428100  1
  F  F1862  1  0.071900  0.049400  0.571900  1
  F  F1863  1  0.177700  0.222100  0.351900  1
  F  F1864  1  0.822300  0.777900  0.648100  1
  F  F1865  1  0.219300  0.199300  0.299800  1
  F  F1866  1  0.780700  0.800700  0.700200  1
  F  F1867  1  0.265600  0.220600  0.343800  1
  F  F1868  1  0.734400  0.779400  0.656200  1
  F  F1869  1  0.393000  0.058300  0.399500  1
  F  F1870  1  0.607000  0.941700  0.600500  1
  F  F1871  1  0.330100  0.033300  0.376000  1
  F  F1872  1  0.669900  0.966700  0.624000  1
  F  F1873  1  0.313700  0.066800  0.424800  1
  F  F1874  1  0.686300  0.933200  0.575200  1
  F  F1875  1  0.105300  0.344300  0.205600  1
  F  F1876  1  0.894700  0.655700  0.794400  1
  F  F1877  1  0.172100  0.385900  0.187200  1
  F  F1878  1  0.827900  0.614100  0.812800  1
  F  F1879  1  0.180700  0.322700  0.223200  1
  F  F1880  1  0.819300  0.677300  0.776800  1
  F  F1881  1  0.229100  0.248300  0.094700  1
  F  F1882  1  0.770900  0.751700  0.905300  1
  F  F1883  1  0.302200  0.213700  0.113800  1
  F  F1884  1  0.697800  0.786300  0.886200  1
  F  F1885  1  0.305000  0.278800  0.081500  1
  F  F1886  1  0.695000  0.721200  0.918500  1
  F  F1887  1  0.632600  0.456000  0.562100  1
  F  F1888  1  0.367400  0.544000  0.437900  1
  F  F1889  1  0.634900  0.411200  0.519600  1
  F  F1890  1  0.365100  0.588800  0.480400  1
  F  F1891  1  0.690800  0.400400  0.566100  1
  F  F1892  1  0.309200  0.599600  0.433900  1
  F  F1893  1  0.587000  0.560800  0.481100  1
  F  F1894  1  0.413000  0.439200  0.518900  1
  F  F1895  1  0.556600  0.497700  0.493100  1
  F  F1896  1  0.443400  0.502300  0.506900  1
  F  F1897  1  0.541200  0.533700  0.439700  1
  F  F1898  1  0.458800  0.466300  0.560300  1
  F  F1899  1  0.686500  0.750800  0.183200  1
  F  F1900  1  0.313500  0.249200  0.816800  1
  F  F1901  1  0.619600  0.711300  0.209800  1
  F  F1902  1  0.380400  0.288700  0.790200  1
  F  F1903  1  0.700700  0.691000  0.226100  1
  F  F1904  1  0.299300  0.309000  0.773900  1
  F  F1905  1  0.685100  0.544500  0.141500  1
  F  F1906  1  0.314900  0.455500  0.858500  1
  F  F1907  1  0.588300  0.551000  0.128100  1
  F  F1908  1  0.411700  0.449000  0.871900  1
  F  F1909  1  0.645800  0.600700  0.100400  1
  F  F1910  1  0.354200  0.399300  0.899600  1
  F  F1911  1  0.475800  0.730200  0.218300  1
  F  F1912  1  0.524200  0.269800  0.781700  1
  F  F1913  1  0.446800  0.772200  0.260800  1
  F  F1914  1  0.553200  0.227800  0.739200  1
  F  F1915  1  0.528100  0.743200  0.262200  1
  F  F1916  1  0.471900  0.256800  0.737800  1
  F  F1917  1  0.484700  0.604600  0.421300  1
  F  F1918  1  0.515300  0.395400  0.578700  1
  F  F1919  1  0.408100  0.641800  0.419900  1
  F  F1920  1  0.591900  0.358200  0.580100  1
  F  F1921  1  0.432000  0.602300  0.374300  1
  F  F1922  1  0.568000  0.397700  0.625700  1
  F  F1923  1  0.116200  0.381500  0.284600  1
  F  F1924  1  0.883800  0.618500  0.715400  1
  F  F1925  1  0.055000  0.385500  0.332500  1
  F  F1926  1  0.945000  0.614500  0.667500  1
  F  F1927  1  0.095700  0.444400  0.303800  1
  F  F1928  1  0.904300  0.555600  0.696200  1
  F  F1929  1  0.181000  0.379500  0.457700  1
  F  F1930  1  0.819000  0.620500  0.542300  1
  F  F1931  1  0.183500  0.450700  0.453600  1
  F  F1932  1  0.816500  0.549300  0.546400  1
  F  F1933  1  0.121100  0.414600  0.491300  1
  F  F1934  1  0.878900  0.585400  0.508700  1
  F  F1935  1  0.933200  0.696300  0.246300  1
  F  F1936  1  0.066800  0.303700  0.753700  1
  F  F1937  1  0.971600  0.699100  0.300300  1
  F  F1938  1  0.028400  0.300900  0.699700  1
  F  F1939  1  0.914300  0.648900  0.299800  1
  F  F1940  1  0.085700  0.351100  0.700200  1
  F  F1941  1  0.794700  0.799200  0.324900  1
  F  F1942  1  0.205300  0.200800  0.675100  1
  F  F1943  1  0.828000  0.803400  0.380700  1
  F  F1944  1  0.172000  0.196600  0.619300  1
  F  F1945  1  0.818000  0.862500  0.336200  1
  F  F1946  1  0.182000  0.137500  0.663800  1
  F  F1947  1  0.635000  0.169500  0.417200  1
  F  F1948  1  0.365000  0.830500  0.582800  1
  F  F1949  1  0.694000  0.192200  0.369250  1
  F  F1950  1  0.306000  0.807800  0.630750  1
  F  F1951  1  0.706400  0.128300  0.406900  1
  F  F1952  1  0.293600  0.871700  0.593100  1
  F  F1953  1  0.706200  0.306000  0.493200  1
  F  F1954  1  0.293800  0.694000  0.506800  1
  F  F1955  1  0.713600  0.245500  0.536300  1
  F  F1956  1  0.286400  0.754500  0.463700  1
  F  F1957  1  0.750300  0.248400  0.476500  1
  F  F1958  1  0.249700  0.751600  0.523500  1
  F  F1959  1  0.779600  0.175400  0.041900  1
  F  F1960  1  0.220400  0.824600  0.958100  1
  F  F1961  1  0.925900  0.402000  0.226700  1
  F  F1962  1  0.074100  0.598000  0.773300  1
  F  F1963  1  0.000200  0.369100  0.241200  1
  F  F1964  1  0.999800  0.630900  0.758800  1
  F  F1965  1  0.960500  0.355100  0.193500  1
  F  F1966  1  0.039500  0.644900  0.806500  1
  F  F1967  1  0.183600  0.435400  0.459500  1
  F  F1968  1  0.816400  0.564600  0.540500  1
  F  F1969  1  0.173500  0.365000  0.464000  1
  F  F1970  1  0.826500  0.635000  0.536000  1
  F  F1971  1  0.224800  0.399700  0.415900  1
  F  F1972  1  0.775200  0.600300  0.584100  1
  F  F1973  1  0.061300  0.382200  0.307200  1
  F  F1974  1  0.938700  0.617800  0.692800  1
  F  F1975  1  0.889700  0.850800  0.362600  1
  F  F1976  1  0.110300  0.149200  0.637400  1
  F  F1977  1  0.638500  0.277400  0.540300  1
  F  F1978  1  0.361500  0.722600  0.459700  1
