
#######################################################################
#
#                 Cambridge Crystallographic Data Centre
#                                CCDC 
#
#######################################################################
#
# If this CIF has been generated from an entry in the Cambridge 
# Structural Database, then it will include bibliographic, chemical, 
# crystal, experimental, refinement or atomic coordinate data resulting 
# from the CCDC's data processing and validation procedures.
#
#######################################################################

data_QAGPOG
_chemical_formula_moiety         
'C120 H108 N28 Zn4 8+,7(C2 F6 N1 O4 S2 1-),O4 Re1 1-'
_chemical_name_systematic        
"(\m~4~-tetrakis(2,2',2''-(Benzene-1,3,5-triyltris((pyridine-5,2-diyl)methylimino))tris(ethyl))tetramine)-tetra-zinc perrhenate clathrate heptakis(bis(trifluoromethanesulfonyl)imide) unknown solvate"
_symmetry_cell_setting           triclinic
_symmetry_space_group_name_H-M   'P -1'
_symmetry_Int_Tables_number      2
_space_group_name_Hall           '-P 1'
loop_
_symmetry_equiv_pos_site_id
_symmetry_equiv_pos_as_xyz
1 x,y,z
2 -x,-y,-z
_cell_length_a                   22.866(3)
_cell_length_b                   25.495(3)
_cell_length_c                   35.966(4)
_cell_angle_alpha                88.150(5)
_cell_angle_beta                 84.817(5)
_cell_angle_gamma                66.580(5)
_cell_volume                     19160.9
_exptl_crystal_colour            'pale yellow'
_exptl_crystal_description       plate
_cell_formula_units_Z            4
_exptl_crystal_recrystallization_method 'acetonitrile/diethyl ether'
loop_
_atom_site_label
_atom_site_type_symbol
_atom_site_fract_x
_atom_site_fract_y
_atom_site_fract_z
Zn1 Zn 0.82953(7) 0.83531(6) 0.15655(4)
Zn2 Zn 0.32068(8) 0.81020(7) 0.15938(4)
Zn3 Zn 0.79426(8) 0.40120(6) 0.10597(5)
Zn4 Zn 0.64651(7) 0.75826(6) -0.12048(3)
N1 N 0.9121(6) 0.8923(5) 0.1873(4)
N2 N 0.1840(6) 0.8510(6) 0.1943(4)
N3 N 0.8569(6) 0.2735(5) 0.1180(4)
N4 N 0.6446(6) 0.7789(5) -0.2026(3)
N5 N 0.7796(5) 0.9083(4) 0.1907(3)
N6 N 0.7491(4) 0.8182(4) 0.1864(2)
N7 N 0.2877(5) 0.7466(5) 0.1770(3)
N8 N 0.4091(5) 0.7363(4) 0.1789(2)
N9 N 0.8880(5) 0.3721(4) 0.1218(4)
N10 N 0.7934(5) 0.4713(4) 0.1424(3)
N11 N 0.8828(5) 0.8655(5) 0.1163(3)
N12 N 0.7669(5) 0.8658(4) 0.1080(2)
N13 N 0.2991(5) 0.8592(5) 0.2091(3)
N14 N 0.3828(5) 0.8574(4) 0.1516(3)
N15 N 0.5594(5) 0.7751(4) -0.1426(2)
N16 N 0.5732(4) 0.8069(4) -0.0749(2)
N17 N 0.9005(5) 0.7843(5) 0.1915(3)
N18 N 0.8672(4) 0.7471(4) 0.1332(3)
N19 N 0.8031(6) 0.3484(4) 0.0591(3)
N20 N 0.8114(5) 0.4515(4) 0.0564(3)
N21 N 0.6722(6) 0.8261(5) -0.1393(3)
N22 N 0.7198(5) 0.7541(4) -0.0834(3)
N23 N 0.2481(5) 0.8637(5) 0.1256(3)
N24 N 0.3544(4) 0.7749(4) 0.1010(2)
N25 N 0.7468(5) 0.3671(4) 0.1480(3)
N26 N 0.6899(4) 0.4534(4) 0.1019(2)
N27 N 0.7097(5) 0.6875(4) -0.1530(2)
N28 N 0.6422(4) 0.6783(4) -0.0884(2)
C1 C 0.8627(6) 0.9399(6) 0.2083(4)
H1 H 0.8756 0.9727 0.2080
H2 H 0.8582 0.9284 0.2346
C2 C 0.7992(6) 0.9578(5) 0.1916(4)
H3 H 0.7661 0.9893 0.2066
H4 H 0.8028 0.9721 0.1659
C3 C 0.7311(7) 0.9087(5) 0.2116(4)
H5 H 0.7085 0.9395 0.2284
C4 C 0.7106(6) 0.8614(5) 0.2094(3)
C5 C 0.6569(6) 0.8607(5) 0.2279(3)
H6 H 0.6308 0.8920 0.2437
C6 C 0.6390(6) 0.8151(5) 0.2243(3)
H7 H 0.6020 0.8144 0.2381
C7 C 0.6767(6) 0.7700(5) 0.1998(3)
C8 C 0.7311(6) 0.7745(5) 0.1816(3)
H8 H 0.7572 0.7449 0.1647
C9 C 0.6610(5) 0.7200(4) 0.1936(3)
C10 C 0.5987(5) 0.7247(5) 0.1942(3)
H9 H 0.5645 0.7611 0.1982
C11 C 0.5851(5) 0.6771(5) 0.1889(3)
C12 C 0.6367(5) 0.6236(5) 0.1825(3)
H10 H 0.6282 0.5905 0.1795
C13 C 0.7001(5) 0.6184(4) 0.1806(3)
C14 C 0.7112(5) 0.6663(4) 0.1871(3)
H11 H 0.7540 0.6630 0.1873
C15 C 0.4705(6) 0.7297(5) 0.1792(3)
H12 H 0.4812 0.7607 0.1708
C16 C 0.5175(5) 0.6821(5) 0.1905(3)
C17 C 0.5023(6) 0.6355(5) 0.2018(3)
H13 H 0.5344 0.6008 0.2094
C18 C 0.4401(6) 0.6409(5) 0.2016(3)
H14 H 0.4290 0.6099 0.2095
C19 C 0.3941(6) 0.6906(6) 0.1901(3)
C20 C 0.3272(6) 0.7009(6) 0.1882(4)
H15 H 0.3132 0.6714 0.1958
C21 C 0.2213(6) 0.7506(6) 0.1756(4)
H16 H 0.2080 0.7597 0.1500
H17 H 0.2190 0.7136 0.1829
C22 C 0.1788(7) 0.7960(7) 0.2016(4)
H18 H 0.1340 0.8009 0.1996
H19 H 0.1894 0.7840 0.2275
C23 C 0.7474(5) 0.5227(5) 0.1519(3)
H20 H 0.7066 0.5317 0.1431
C24 C 0.7541(5) 0.5629(5) 0.1731(3)
C25 C 0.8149(6) 0.5503(5) 0.1852(4)
H21 H 0.8225 0.5765 0.2003
C26 C 0.8630(6) 0.4987(5) 0.1743(4)
H22 H 0.9047 0.4896 0.1819
C27 C 0.8529(6) 0.4606(5) 0.1533(4)
C28 C 0.9026(7) 0.4032(5) 0.1416(4)
H23 H 0.9447 0.3909 0.1491
C29 C 0.9386(7) 0.3150(5) 0.1098(5)
H24 H 0.9805 0.3110 0.1177
H25 H 0.9423 0.3112 0.0823
C30 C 0.9182(7) 0.2675(6) 0.1288(5)
H26 H 0.9506 0.2293 0.1213
H27 H 0.9162 0.2708 0.1562
C31 C 0.9373(8) 0.9099(7) 0.1527(4)
H28 H 0.9789 0.9117 0.1563
H29 H 0.9074 0.9484 0.1456
C32 C 0.9462(7) 0.8665(6) 0.1212(4)
H30 H 0.9635 0.8781 0.0976
H31 H 0.9766 0.8280 0.1279
C33 C 0.8601(6) 0.8827(6) 0.0858(4)
H32 H 0.8820 0.8970 0.0672
C34 C 0.7983(6) 0.8803(6) 0.0793(4)
C35 C 0.7725(6) 0.8952(6) 0.0449(4)
H33 H 0.7950 0.9068 0.0251
C36 C 0.7143(6) 0.8933(5) 0.0396(3)
H34 H 0.6972 0.9024 0.0160
C37 C 0.6802(5) 0.8773(5) 0.0703(3)
C38 C 0.7106(6) 0.8627(5) 0.1030(3)
H35 H 0.6905 0.8495 0.1233
C39 C 0.6201(5) 0.8716(4) 0.0652(3)
C40 C 0.5757(5) 0.8789(4) 0.0950(3)
H36 H 0.5843 0.8874 0.1189
C41 C 0.5174(5) 0.8740(4) 0.0908(3)
C42 C 0.5031(5) 0.8628(4) 0.0557(3)
H37 H 0.4633 0.8606 0.0525
C43 C 0.5496(5) 0.8547(4) 0.0248(3)
C44 C 0.6064(5) 0.8590(4) 0.0309(3)
H38 H 0.6375 0.8529 0.0103
C45 C 0.4284(6) 0.8531(5) 0.1239(3)
H39 H 0.4338 0.8281 0.1037
C46 C 0.4676(6) 0.8823(5) 0.1230(3)
C47 C 0.4606(6) 0.9175(6) 0.1531(3)
H40 H 0.4867 0.9384 0.1542
C48 C 0.4133(7) 0.9209(6) 0.1820(4)
H41 H 0.4063 0.9456 0.2026
C49 C 0.3773(7) 0.8891(6) 0.1806(4)
C50 C 0.3279(7) 0.8918(7) 0.2094(4)
H42 H 0.3170 0.9191 0.2289
C51 C 0.2516(7) 0.8583(7) 0.2397(4)
H43 H 0.2534 0.8806 0.2612
H44 H 0.2616 0.8184 0.2479
C52 C 0.1853(7) 0.8835(7) 0.2262(4)
H45 H 0.1535 0.8821 0.2464
H46 H 0.1743 0.9240 0.2191
C53 C 0.5844(5) 0.8186(4) -0.0403(3)
H47 H 0.6268 0.8116 -0.0348
C54 C 0.5332(5) 0.8412(4) -0.0124(3)
C55 C 0.4739(6) 0.8503(5) -0.0207(3)
H48 H 0.4393 0.8644 -0.0019
C56 C 0.4621(6) 0.8392(5) -0.0566(3)
H49 H 0.4199 0.8471 -0.0628
C57 C 0.5135(6) 0.8167(5) -0.0825(3)
C58 C 0.5073(6) 0.8001(5) -0.1209(3)
H50 H 0.4665 0.8076 -0.1292
C59 C 0.5527(7) 0.7607(5) -0.1801(3)
H51 H 0.5069 0.7718 -0.1837
H52 H 0.5750 0.7189 -0.1841
C60 C 0.5809(7) 0.7916(6) -0.2081(3)
H53 H 0.5780 0.7801 -0.2337
H54 H 0.5559 0.8333 -0.2056
C61 C 0.9538(7) 0.8465(6) 0.2075(5)
H55 H 0.9678 0.8619 0.2283
H56 H 0.9923 0.8245 0.1909
C62 C 0.9229(7) 0.8070(6) 0.2229(4)
H57 H 0.9541 0.7749 0.2362
H58 H 0.8861 0.8280 0.2409
C63 C 0.9270(6) 0.7334(6) 0.1847(4)
H59 H 0.9585 0.7094 0.2001
C64 C 0.9107(6) 0.7081(5) 0.1524(4)
C65 C 0.9355(6) 0.6533(5) 0.1423(4)
H60 H 0.9675 0.6269 0.1565
C66 C 0.9173(6) 0.6331(5) 0.1127(3)
H61 H 0.9358 0.5936 0.1063
C67 C 0.8708(5) 0.6723(5) 0.0920(3)
C68 C 0.8470(5) 0.7294(5) 0.1024(3)
H62 H 0.8162 0.7570 0.0882
C69 C 0.8484(5) 0.6556(5) 0.0586(3)
C70 C 0.8462(5) 0.6021(5) 0.0575(3)
H63 H 0.8580 0.5764 0.0779
C71 C 0.8251(6) 0.5868(5) 0.0244(3)
C72 C 0.8043(5) 0.6264(5) -0.0037(3)
H64 H 0.7876 0.6172 -0.0246
C73 C 0.8075(5) 0.6793(5) -0.0018(3)
C74 C 0.8290(5) 0.6948(5) 0.0295(3)
H65 H 0.8305 0.7314 0.0310
C75 C 0.8129(5) 0.5021(5) 0.0559(3)
H66 H 0.8099 0.5205 0.0789
C76 C 0.8188(6) 0.5300(5) 0.0230(3)
C77 C 0.8228(6) 0.5030(5) -0.0101(4)
H67 H 0.8273 0.5208 -0.0332
C78 C 0.8201(7) 0.4503(5) -0.0097(4)
H68 H 0.8225 0.4314 -0.0324
C79 C 0.8138(7) 0.4249(5) 0.0241(4)
C80 C 0.8116(7) 0.3696(5) 0.0273(4)
H69 H 0.8166 0.3480 0.0053
C81 C 0.8020(7) 0.2906(5) 0.0615(4)
H70 H 0.7615 0.2926 0.0750
H71 H 0.8049 0.2755 0.0361
C82 C 0.8564(7) 0.2531(6) 0.0813(5)
H72 H 0.8554 0.2146 0.0835
H73 H 0.8966 0.2492 0.0665
C83 C 0.7412(6) 0.7198(5) -0.0553(3)
H74 H 0.7235 0.6922 -0.0496
C84 C 0.7874(6) 0.7206(5) -0.0335(3)
C85 C 0.8109(7) 0.7621(5) -0.0423(3)
H75 H 0.8425 0.7654 -0.0283
C86 C 0.7880(7) 0.7994(6) -0.0720(3)
H76 H 0.8041 0.8279 -0.0783
C87 C 0.7429(7) 0.7944(6) -0.0916(3)
C88 C 0.7156(7) 0.8314(6) -0.1223(3)
H77 H 0.7305 0.8603 -0.1299
C89 C 0.6498(7) 0.8611(6) -0.1711(3)
H78 H 0.6690 0.8898 -0.1735
H79 H 0.6028 0.8819 -0.1672
C90 C 0.6662(7) 0.8268(6) -0.2064(3)
H80 H 0.6457 0.8519 -0.2271
H81 H 0.7131 0.8112 -0.2125
C91 C 0.1477(7) 0.8854(7) 0.1641(4)
H82 H 0.1086 0.9168 0.1750
H83 H 0.1343 0.8611 0.1488
C92 C 0.1877(6) 0.9104(6) 0.1393(4)
H84 H 0.1639 0.9307 0.1179
H85 H 0.1969 0.9383 0.1537
C93 C 0.2560(6) 0.8523(6) 0.0920(4)
H86 H 0.2244 0.8742 0.0760
C94 C 0.3157(6) 0.8036(5) 0.0761(3)
C95 C 0.3254(6) 0.7926(5) 0.0387(3)
H87 H 0.2947 0.8144 0.0221
C96 C 0.3820(5) 0.7481(5) 0.0259(3)
H88 H 0.3911 0.7390 0.0000
C97 C 0.4259(5) 0.7168(5) 0.0518(3)
C98 C 0.4083(5) 0.7320(5) 0.0885(3)
H89 H 0.4366 0.7105 0.1064
C99 C 0.4863(5) 0.6680(4) 0.0412(3)
C100 C 0.5121(5) 0.6225(4) 0.0652(3)
H90 H 0.4901 0.6225 0.0889
C101 C 0.5707(5) 0.5761(4) 0.0551(3)
C102 C 0.6033(5) 0.5772(4) 0.0198(3)
H91 H 0.6428 0.5465 0.0128
C103 C 0.5789(5) 0.6218(4) -0.0042(3)
C104 C 0.5208(5) 0.6672(4) 0.0070(3)
H92 H 0.5043 0.6986 -0.0094
C105 C 0.6623(5) 0.4981(4) 0.0807(3)
H93 H 0.6893 0.5106 0.0645
C106 C 0.5958(5) 0.5288(5) 0.0803(3)
C107 C 0.5602(6) 0.5094(5) 0.1067(3)
H94 H 0.5150 0.5291 0.1092
C108 C 0.5873(6) 0.4641(5) 0.1286(3)
H95 H 0.5617 0.4509 0.1454
C109 C 0.6533(6) 0.4368(5) 0.1263(3)
C110 C 0.6877(6) 0.3881(5) 0.1497(3)
H96 H 0.6643 0.3725 0.1664
C111 C 0.7827(7) 0.3203(5) 0.1723(4)
H97 H 0.7534 0.3145 0.1925
H98 H 0.8153 0.3294 0.1839
C112 C 0.8146(7) 0.2670(6) 0.1486(4)
H99 H 0.8394 0.2348 0.1644
H100 H 0.7813 0.2574 0.1384
C113 C 0.6123(5) 0.6736(5) -0.0559(3)
H101 H 0.5876 0.7076 -0.0423
C114 C 0.6147(5) 0.6224(4) -0.0406(3)
C115 C 0.6543(6) 0.5731(5) -0.0592(3)
H102 H 0.6593 0.5367 -0.0493
C116 C 0.6872(6) 0.5776(5) -0.0930(3)
H103 H 0.7139 0.5440 -0.1066
C117 C 0.6812(6) 0.6294(5) -0.1065(3)
C118 C 0.7172(6) 0.6376(5) -0.1416(3)
H104 H 0.7461 0.6052 -0.1555
C119 C 0.7436(6) 0.6942(6) -0.1887(3)
H105 H 0.7724 0.6564 -0.1991
H106 H 0.7693 0.7167 -0.1849
C120 C 0.6904(6) 0.7263(5) -0.2155(3)
H107 H 0.7113 0.7325 -0.2396
H108 H 0.6682 0.7012 -0.2205
Zn5 Zn 0.36180(12) 0.35260(10) 0.61429(4)
Zn6 Zn 0.16649(10) 0.58711(9) 0.34095(5)
Zn7 Zn 0.65217(8) 0.18844(7) 0.32550(4)
Zn8 Zn 0.17314(15) 0.13044(12) 0.40290(9)
N29 N 0.3694(9) 0.3725(7) 0.6961(3)
N30 N 0.0917(8) 0.7006(7) 0.3093(5)
N31 N 0.7865(6) 0.1321(6) 0.2824(4)
N32 N 0.1004(10) 0.0548(9) 0.3932(6)
N33 N 0.2983(7) 0.4326(6) 0.6362(3)
N34 N 0.3537(6) 0.4150(5) 0.5677(2)
N35 N 0.2019(7) 0.6050(6) 0.2896(3)
N36 N 0.2705(5) 0.5442(5) 0.3438(3)
N37 N 0.7282(5) 0.1525(5) 0.3603(3)
N38 N 0.6237(5) 0.2450(4) 0.3749(2)
N39 N 0.3407(8) 0.2921(7) 0.6514(3)
N40 N 0.2853(6) 0.3338(5) 0.5895(3)
N41 N 0.1543(6) 0.6592(5) 0.3733(4)
N42 N 0.1570(5) 0.5595(5) 0.3997(3)
N43 N 0.1042(8) 0.1557(7) 0.3648(5)
N44 N 0.1323(7) 0.2256(6) 0.4066(4)
N45 N 0.4504(7) 0.3470(6) 0.6270(3)
N46 N 0.4344(6) 0.2835(5) 0.5771(3)
N47 N 0.6685(6) 0.1180(5) 0.2893(3)
N48 N 0.5936(5) 0.1431(4) 0.3545(3)
N49 N 0.1236(8) 0.1152(8) 0.4534(5)
N50 N 0.2373(7) 0.1287(6) 0.4478(4)
N51 N 0.0700(7) 0.6014(6) 0.3319(4)
N52 N 0.1723(6) 0.4998(5) 0.3237(4)
N53 N 0.6832(6) 0.2403(5) 0.2878(3)
N54 N 0.5643(5) 0.2459(4) 0.3005(3)
N55 N 0.2315(8) 0.0458(6) 0.3866(5)
N56 N 0.2506(6) 0.1411(6) 0.3624(4)
C121 C 0.3218(9) 0.4301(8) 0.7018(4)
H109 H 0.3418 0.4578 0.6963
H110 H 0.3036 0.4352 0.7281
C122 C 0.2699(8) 0.4405(8) 0.6765(3)
H111 H 0.2370 0.4798 0.6803
H112 H 0.2491 0.4134 0.6823
C123 C 0.2855(9) 0.4756(7) 0.6156(3)
H113 H 0.2579 0.5123 0.6250
C124 C 0.3131(8) 0.4688(6) 0.5768(3)
C125 C 0.3018(7) 0.5128(6) 0.5524(3)
H114 H 0.2742 0.5506 0.5599
C126 C 0.3312(7) 0.5019(6) 0.5158(3)
H115 H 0.3241 0.5324 0.4985
C127 C 0.3714(6) 0.4453(5) 0.5047(3)
C128 C 0.3812(7) 0.4023(6) 0.5317(3)
H116 H 0.4074 0.3638 0.5250
C129 C 0.4028(6) 0.4294(5) 0.4662(3)
C130 C 0.3732(6) 0.4624(5) 0.4366(3)
H117 H 0.3338 0.4944 0.4411
C131 C 0.4013(6) 0.4485(5) 0.4000(3)
C132 C 0.4593(6) 0.4016(5) 0.3940(3)
H118 H 0.4783 0.3917 0.3692
C133 C 0.4899(5) 0.3688(5) 0.4241(3)
C134 C 0.4614(6) 0.3828(5) 0.4597(3)
H119 H 0.4816 0.3605 0.4802
C135 C 0.3052(7) 0.5111(6) 0.3710(3)
H120 H 0.2823 0.5058 0.3931
C136 C 0.3688(7) 0.4856(6) 0.3689(3)
C137 C 0.4024(7) 0.4919(6) 0.3347(3)
H121 H 0.4478 0.4748 0.3320
C138 C 0.3693(7) 0.5228(7) 0.3052(4)
H122 H 0.3911 0.5240 0.2816
C139 C 0.3046(7) 0.5512(7) 0.3112(4)
C140 C 0.2612(8) 0.5852(8) 0.2835(4)
H123 H 0.2792 0.5922 0.2600
C141 C 0.1651(9) 0.6395(8) 0.2588(4)
H124 H 0.1945 0.6404 0.2371
H125 H 0.1359 0.6228 0.2507
C142 C 0.1285(9) 0.6972(8) 0.2735(5)
H126 H 0.1586 0.7158 0.2762
H127 H 0.0988 0.7194 0.2550
C143 C 0.5671(6) 0.2900(5) 0.3838(3)
H128 H 0.5361 0.3014 0.3660
C144 C 0.5521(6) 0.3201(5) 0.4168(3)
C145 C 0.5971(6) 0.3013(6) 0.4437(3)
H129 H 0.5880 0.3194 0.4674
C146 C 0.6542(6) 0.2566(6) 0.4350(3)
H130 H 0.6863 0.2453 0.4521
C147 C 0.6658(6) 0.2278(6) 0.4016(4)
C148 C 0.7251(7) 0.1760(6) 0.3903(4)
H131 H 0.7594 0.1616 0.4059
C149 C 0.7878(7) 0.1009(6) 0.3501(4)
H132 H 0.7769 0.0681 0.3448
H133 H 0.8157 0.0904 0.3710
C150 C 0.8227(8) 0.1160(7) 0.3148(4)
H134 H 0.8344 0.1478 0.3212
H135 H 0.8629 0.0825 0.3082
C151 C 0.3504(10) 0.3265(8) 0.7122(4)
H136 H 0.3033 0.3415 0.7167
H137 H 0.3687 0.3147 0.7365
C152 C 0.3738(10) 0.2738(8) 0.6860(4)
H138 H 0.4207 0.2595 0.6801
H139 H 0.3635 0.2427 0.6981
C153 C 0.2998(9) 0.2737(8) 0.6438(4)
H140 H 0.2882 0.2486 0.6600
C154 C 0.2704(9) 0.2938(8) 0.6077(4)
C155 C 0.2271(9) 0.2749(7) 0.5954(4)
H141 H 0.2170 0.2471 0.6096
C156 C 0.1978(8) 0.2952(7) 0.5628(4)
H142 H 0.1674 0.2826 0.5544
C157 C 0.2157(8) 0.3356(7) 0.5428(4)
C158 C 0.2598(8) 0.3520(7) 0.5572(4)
H143 H 0.2729 0.3782 0.5431
C159 C 0.1893(8) 0.3589(7) 0.5068(4)
C160 C 0.1873(7) 0.4119(6) 0.4956(4)
H144 H 0.2018 0.4326 0.5114
C161 C 0.1639(7) 0.4362(6) 0.4613(4)
C162 C 0.1429(7) 0.4046(6) 0.4389(4)
H145 H 0.1269 0.4197 0.4157
C163 C 0.1452(8) 0.3507(7) 0.4502(4)
C164 C 0.1683(7) 0.3293(7) 0.4844(4)
H146 H 0.1695 0.2930 0.4923
C165 C 0.1608(7) 0.5084(6) 0.4119(4)
H147 H 0.1625 0.4808 0.3943
C166 C 0.1623(7) 0.4940(6) 0.4494(4)
C167 C 0.1585(7) 0.5344(6) 0.4752(4)
H148 H 0.1587 0.5265 0.5012
C168 C 0.1545(7) 0.5877(6) 0.4613(4)
H149 H 0.1528 0.6166 0.4780
C169 C 0.1528(8) 0.5982(7) 0.4233(4)
C170 C 0.1507(8) 0.6512(7) 0.4080(5)
H150 H 0.1466 0.6811 0.4244
C171 C 0.1507(8) 0.7143(7) 0.3569(5)
H151 H 0.1890 0.7079 0.3395
H152 H 0.1496 0.7406 0.3769
C172 C 0.0915(9) 0.7406(8) 0.3363(5)
H153 H 0.0530 0.7506 0.3541
H154 H 0.0905 0.7760 0.3237
C173 C 0.1494(8) 0.2580(7) 0.4278(5)
H155 H 0.1802 0.2402 0.4452
C174 C 0.1230(8) 0.3180(7) 0.4249(5)
C175 C 0.0822(8) 0.3407(8) 0.3986(5)
H156 H 0.0652 0.3809 0.3947
C176 C 0.0646(9) 0.3060(8) 0.3769(5)
H157 H 0.0369 0.3220 0.3577
C177 C 0.0873(10) 0.2494(8) 0.3836(6)
C178 C 0.0758(10) 0.2098(8) 0.3591(6)
H158 H 0.0481 0.2239 0.3397
C179 C 0.0869(12) 0.1200(9) 0.3411(6)
H159 H 0.1251 0.0951 0.3254
H160 H 0.0546 0.1443 0.3245
C180 C 0.0603(11) 0.0840(10) 0.3650(7)
H161 H 0.0177 0.1088 0.3768
H162 H 0.0546 0.0558 0.3490
C181 C 0.4351(9) 0.3619(9) 0.6955(4)
H163 H 0.4600 0.3207 0.6997
H164 H 0.4416 0.3836 0.7160
C182 C 0.4596(9) 0.3795(8) 0.6582(3)
H165 H 0.4361 0.4211 0.6544
H166 H 0.5056 0.3717 0.6585
C183 C 0.5009(9) 0.3132(7) 0.6102(4)
H167 H 0.5416 0.3105 0.6163
C184 C 0.4947(8) 0.2766(7) 0.5798(4)
C185 C 0.5432(8) 0.2387(7) 0.5592(4)
H168 H 0.5858 0.2320 0.5639
C186 C 0.5328(8) 0.2086(6) 0.5309(4)
H169 H 0.5677 0.1845 0.5148
C187 C 0.4711(8) 0.2140(6) 0.5264(4)
C188 C 0.4232(7) 0.2529(6) 0.5497(3)
H170 H 0.3802 0.2588 0.5466
C189 C 0.4539(7) 0.1854(6) 0.4970(4)
C190 C 0.4934(7) 0.1699(5) 0.4640(3)
H171 H 0.5311 0.1774 0.4607
C191 C 0.4763(7) 0.1426(6) 0.4352(3)
C192 C 0.4213(7) 0.1326(6) 0.4404(4)
H172 H 0.4105 0.1137 0.4215
C193 C 0.3816(7) 0.1498(6) 0.4730(4)
C194 C 0.3972(7) 0.1759(6) 0.5020(4)
H173 H 0.3701 0.1870 0.5244
C195 C 0.5555(6) 0.1554(5) 0.3850(3)
H174 H 0.5519 0.1878 0.3988
C196 C 0.5195(7) 0.1250(6) 0.3989(3)
C197 C 0.5249(7) 0.0786(6) 0.3790(4)
H175 H 0.5021 0.0558 0.3875
C198 C 0.5635(7) 0.0655(6) 0.3469(4)
H176 H 0.5667 0.0339 0.3323
C199 C 0.5976(7) 0.0971(6) 0.3352(4)
C200 C 0.6388(7) 0.0847(6) 0.3007(4)
H177 H 0.6443 0.0524 0.2861
C201 C 0.7120(7) 0.1039(7) 0.2555(4)
H178 H 0.6992 0.1375 0.2388
H179 H 0.7078 0.0722 0.2424
C202 C 0.7798(7) 0.0871(7) 0.2626(4)
H180 H 0.7943 0.0516 0.2776
H181 H 0.8066 0.0796 0.2387
C203 C 0.2903(8) 0.1379(7) 0.4470(5)
H182 H 0.3075 0.1455 0.4234
C204 C 0.3225(8) 0.1374(7) 0.4773(5)
C205 C 0.2944(9) 0.1297(7) 0.5116(5)
H183 H 0.3138 0.1301 0.5338
C206 C 0.2374(9) 0.1215(8) 0.5133(5)
H184 H 0.2178 0.1168 0.5369
C207 C 0.2099(9) 0.1201(9) 0.4819(5)
C208 C 0.1524(10) 0.1101(10) 0.4820(6)
H185 H 0.1358 0.0991 0.5047
C209 C 0.0674(10) 0.1048(10) 0.4545(6)
H186 H 0.0328 0.1393 0.4454
H187 H 0.0545 0.0989 0.4808
C210 C 0.0724(11) 0.0548(10) 0.4322(6)
H188 H 0.0992 0.0193 0.4446
H189 H 0.0292 0.0548 0.4315
C211 C 0.0289(9) 0.6970(8) 0.3060(6)
H190 H 0.0285 0.6823 0.2810
H191 H -0.0056 0.7357 0.3088
C212 C 0.0166(8) 0.6578(7) 0.3358(5)
H192 H 0.0136 0.6738 0.3609
H193 H -0.0242 0.6543 0.3324
C213 C 0.0649(8) 0.5609(7) 0.3181(6)
H194 H 0.0269 0.5666 0.3067
C214 C 0.1170(8) 0.5019(7) 0.3184(6)
C215 C 0.1047(8) 0.4546(7) 0.3145(6)
H195 H 0.0618 0.4583 0.3141
C216 C 0.1549(7) 0.4003(7) 0.3112(5)
H196 H 0.1476 0.3669 0.3068
C217 C 0.2166(7) 0.3980(6) 0.3147(5)
C218 C 0.2197(7) 0.4488(6) 0.3222(4)
H197 H 0.2606 0.4474 0.3268
C219 C 0.2737(7) 0.3429(6) 0.3132(4)
C220 C 0.3338(6) 0.3411(6) 0.3024(3)
H198 H 0.3383 0.3757 0.2953
C221 C 0.3887(6) 0.2900(6) 0.3017(3)
C222 C 0.3801(7) 0.2390(6) 0.3107(3)
H199 H 0.4166 0.2039 0.3101
C223 C 0.3213(7) 0.2386(6) 0.3202(4)
C224 C 0.2664(7) 0.2919(6) 0.3213(4)
H200 H 0.2250 0.2924 0.3277
C225 C 0.5056(6) 0.2502(5) 0.3082(3)
H201 H 0.4991 0.2246 0.3262
C226 C 0.4513(6) 0.2891(5) 0.2922(3)
C227 C 0.4640(7) 0.3246(6) 0.2649(3)
H202 H 0.4300 0.3517 0.2523
C228 C 0.5240(7) 0.3204(6) 0.2563(3)
H203 H 0.5323 0.3444 0.2377
C229 C 0.5750(7) 0.2807(6) 0.2750(3)
C230 C 0.6400(7) 0.2769(6) 0.2699(4)
H204 H 0.6504 0.3020 0.2531
C231 C 0.7489(7) 0.2378(6) 0.2810(4)
H205 H 0.7665 0.2398 0.3048
H206 H 0.7497 0.2698 0.2649
C232 C 0.7874(8) 0.1805(6) 0.2616(4)
H207 H 0.7702 0.1808 0.2373
H208 H 0.8323 0.1764 0.2565
C233 C 0.2616(8) 0.1856(7) 0.3537(4)
H209 H 0.2334 0.2211 0.3646
C234 C 0.3127(7) 0.1851(6) 0.3291(4)
C235 C 0.3570(8) 0.1328(6) 0.3176(4)
H210 H 0.3946 0.1299 0.3027
C236 C 0.3469(9) 0.0842(7) 0.3276(5)
H211 H 0.3770 0.0475 0.3196
C237 C 0.2937(9) 0.0904(7) 0.3489(5)
C238 C 0.2776(10) 0.0399(8) 0.3614(6)
H212 H 0.3019 0.0034 0.3506
C239 C 0.2195(10) -0.0069(8) 0.3985(7)
H213 H 0.2209 -0.0122 0.4258
H214 H 0.2524 -0.0414 0.3859
C240 C 0.1514(10) 0.0032(9) 0.3866(7)
H215 H 0.1561 -0.0043 0.3595
H216 H 0.1391 -0.0265 0.3991
Re1 Re 0.64485(3) 0.69848(2) 0.07747(2)
O1 O 0.6446(4) 0.7112(3) 0.02986(19)
O2 O 0.5677(4) 0.7249(3) 0.09812(19)
O3 O 0.6874(4) 0.7316(3) 0.0967(2)
O4 O 0.6812(4) 0.6251(3) 0.0858(2)
O5 O 0.3497(5) 0.3172(4) 0.4662(2)
Re2 Re 0.34236(3) 0.30945(3) 0.41919(2)
O6 O 0.4178(4) 0.2792(4) 0.3965(2)
O7 O 0.2985(5) 0.3773(4) 0.3997(2)
O8 O 0.3040(5) 0.2656(4) 0.4148(3)
S1 S 0.5637(2) 1.01660(17) 0.16061(10)
S2 S 0.5356(2) 1.04518(18) 0.23689(10)
N57 N 0.5246(5) 1.0605(4) 0.1937(2)
O9 O 0.5943(5) 0.9582(3) 0.1703(2)
O10 O 0.5250(5) 1.0306(4) 0.1297(2)
O11 O 0.5995(4) 1.0069(4) 0.2442(3)
O12 O 0.5054(5) 1.0977(3) 0.2578(2)
C241 C 0.6280(6) 1.0393(6) 0.1451(4)
C242 C 0.4847(7) 1.0060(6) 0.2505(4)
F1 F 0.6065(4) 1.0909(3) 0.1315(2)
F2 F 0.6610(5) 1.0388(4) 0.1741(3)
F3 F 0.6669(5) 1.0041(4) 0.1195(3)
F4 F 0.5057(4) 0.9551(4) 0.2335(2)
F5 F 0.4868(5) 0.9953(4) 0.2869(2)
F6 F 0.4250(5) 1.0350(4) 0.2425(2)
S3 S 0.6048(4) 0.4584(4) 0.2516(2)
S4 S 0.6001(4) 0.4243(3) 0.3269(2)
N58 N 0.6029(10) 0.4707(7) 0.2959(3)
O13 O 0.6294(8) 0.4964(7) 0.2309(5)
O14 O 0.6265(8) 0.4011(5) 0.2387(5)
O15 O 0.5764(11) 0.4567(9) 0.3616(5)
O16 O 0.5732(8) 0.3861(7) 0.3165(5)
C243 C 0.5198(6) 0.4863(9) 0.2447(6)
C244 C 0.6835(6) 0.3791(8) 0.3343(6)
F7 F 0.5141(10) 0.4930(9) 0.2083(5)
F8 F 0.4933(8) 0.5383(7) 0.2600(5)
F9 F 0.4901(7) 0.4553(7) 0.2606(4)
F10 F 0.6880(9) 0.3412(8) 0.3599(5)
F11 F 0.7082(9) 0.4150(8) 0.3462(5)
F12 F 0.7148(9) 0.3573(8) 0.3020(5)
S5 S 0.4040(3) 0.7077(2) -0.10182(12)
S6 S 0.3515(2) 0.77459(19) -0.16421(12)
N59 N 0.3960(6) 0.7594(5) -0.1304(3)
O17 O 0.4217(6) 0.7205(5) -0.0672(2)
O18 O 0.3565(5) 0.6835(5) -0.1015(3)
O19 O 0.3307(4) 0.7324(4) -0.1749(2)
O20 O 0.3784(5) 0.8019(4) -0.1924(2)
C245 C 0.4776(6) 0.6515(5) -0.1224(4)
C246 C 0.2788(6) 0.8336(5) -0.1452(4)
F13 F 0.4944(5) 0.6050(4) -0.1020(2)
F14 F 0.4688(4) 0.6401(4) -0.1565(2)
F15 F 0.5240(4) 0.6701(4) -0.1252(2)
F16 F 0.2536(5) 0.8176(4) -0.1153(3)
F17 F 0.2910(5) 0.8773(4) -0.1350(3)
F18 F 0.2349(5) 0.8502(4) -0.1691(3)
S7 S 0.3153(7) 0.5250(6) 0.1699(4)
S8 S 0.3684(6) 0.5651(6) 0.1040(4)
N60 N 0.3459(14) 0.5189(10) 0.1269(5)
O21 O 0.2581(10) 0.5136(12) 0.1709(7)
O22 O 0.3142(15) 0.5725(10) 0.1892(8)
O23 O 0.3981(15) 0.5863(12) 0.1303(7)
O24 O 0.4085(12) 0.5327(11) 0.0725(6)
C247 C 0.3609(11) 0.4586(8) 0.1936(7)
C248 C 0.3006(9) 0.6222(9) 0.0853(7)
F19 F 0.3176(12) 0.4499(12) 0.2183(7)
F20 F 0.4062(11) 0.4575(10) 0.2116(7)
F21 F 0.3893(11) 0.4158(9) 0.1691(6)
F22 F 0.2665(10) 0.6041(9) 0.0657(6)
F23 F 0.3176(11) 0.6557(10) 0.0618(6)
F24 F 0.2602(11) 0.6538(9) 0.1129(6)
S9 S 0.4439(5) 0.5939(4) 0.4621(3)
S10 S 0.3257(6) 0.6415(5) 0.4272(3)
N61 N 0.3705(7) 0.6015(10) 0.4599(6)
O25 O 0.4603(11) 0.5611(9) 0.4967(5)
O26 O 0.4582(9) 0.6406(7) 0.4615(5)
O27 O 0.3701(11) 0.6512(11) 0.4010(6)
O28 O 0.2867(10) 0.6117(10) 0.4245(7)
C249 C 0.4967(10) 0.5415(8) 0.4279(5)
C250 C 0.2832(11) 0.7131(7) 0.4467(7)
F25 F 0.5506(9) 0.5469(9) 0.4191(6)
F26 F 0.4705(10) 0.5479(9) 0.3955(5)
F27 F 0.5025(10) 0.4936(8) 0.4391(5)
F28 F 0.2918(12) 0.7100(10) 0.4815(6)
F29 F 0.3075(12) 0.7468(11) 0.4286(7)
F30 F 0.2244(10) 0.7365(10) 0.4399(7)
S11? S 0.3770(10) 0.5048(10) 0.1874(6)
S12? S 0.3209(10) 0.5458(9) 0.1173(6)
N62? N 0.3162(14) 0.5402(18) 0.1628(6)
O29? O 0.371(2) 0.5501(15) 0.2124(10)
O30? O 0.4358(15) 0.4670(17) 0.1702(11)
O31? O 0.2611(14) 0.5631(18) 0.1022(11)
O32? O 0.3743(17) 0.4937(13) 0.1051(12)
C251? C 0.3508(16) 0.4604(13) 0.2202(8)
C252? C 0.3547(16) 0.5963(13) 0.0989(9)
F31? F 0.3354(19) 0.4728(17) 0.2555(8)
F32? F 0.2896(16) 0.4720(18) 0.2140(11)
F33? F 0.3907(18) 0.4061(13) 0.2172(11)
F34? F 0.388(2) 0.6067(18) 0.1244(12)
F35? F 0.3139(18) 0.6440(14) 0.0849(11)
F36? F 0.3953(18) 0.5703(17) 0.0691(10)
S13? S 0.3754(8) 0.5283(6) 0.1690(4)
S14? S 0.3337(7) 0.4471(7) 0.2035(5)
N63? N 0.3698(15) 0.4664(9) 0.1683(7)
O33? O 0.3428(15) 0.3890(9) 0.1991(9)
O34? O 0.3539(16) 0.4636(14) 0.2366(7)
O35? O 0.4425(10) 0.5105(14) 0.1710(9)
O36? O 0.3257(15) 0.5655(13) 0.1936(9)
F37? F 0.3637(15) 0.6060(12) 0.1168(8)
F38? F 0.2937(11) 0.5697(12) 0.1239(7)
F39? F 0.3947(13) 0.5203(12) 0.0974(7)
C253? C 0.3565(13) 0.5576(12) 0.1223(5)
C254? C 0.2462(8) 0.4826(11) 0.2076(8)
F40? F 0.2241(12) 0.4498(11) 0.2291(7)
F41? F 0.2223(13) 0.4918(12) 0.1742(6)
F42? F 0.2238(12) 0.5331(10) 0.2233(7)
S15? S 0.6586(7) 0.4503(7) 0.2345(4)
S16? S 0.5595(7) 0.4796(7) 0.2912(4)
N64? N 0.6035(12) 0.4997(9) 0.2606(7)
O37? O 0.6513(15) 0.4776(13) 0.1983(6)
O38? O 0.6623(17) 0.3936(9) 0.2383(9)
O39? O 0.5140(13) 0.5340(10) 0.3057(8)
O40? O 0.5371(16) 0.4398(12) 0.2776(8)
C255? C 0.6018(12) 0.4465(12) 0.3320(6)
C256? C 0.7378(9) 0.4413(11) 0.2468(7)
F43? F 0.7436(13) 0.4900(10) 0.2462(8)
F44? F 0.7766(12) 0.4085(11) 0.2200(7)
F45? F 0.7492(13) 0.4133(12) 0.2784(7)
F46? F 0.6312(14) 0.4771(12) 0.3439(8)
F47? F 0.6445(14) 0.3959(11) 0.3252(8)
F48? F 0.5559(15) 0.4473(15) 0.3584(8)
loop_
_geom_bond_atom_site_label_1
_geom_bond_atom_site_label_2
_geom_bond_site_symmetry_1
_geom_bond_site_symmetry_2
Zn1 N5 1_555 1_555
Zn2 N7 1_555 1_555
Zn3 N9 1_555 1_555
Zn4 N15 1_555 1_555
N1 C1 1_555 1_555
N2 C22 1_555 1_555
N3 C30 1_555 1_555
N4 C60 1_555 1_555
N5 C2 1_555 1_555
N6 Zn1 1_555 1_555
N7 C20 1_555 1_555
N8 Zn2 1_555 1_555
N9 C28 1_555 1_555
N10 Zn3 1_555 1_555
N11 Zn1 1_555 1_555
N12 Zn1 1_555 1_555
N13 Zn2 1_555 1_555
N14 Zn2 1_555 1_555
N15 C58 1_555 1_555
N16 Zn4 1_555 1_555
N17 Zn1 1_555 1_555
N18 Zn1 1_555 1_555
N19 Zn3 1_555 1_555
N20 Zn3 1_555 1_555
N21 Zn4 1_555 1_555
N22 Zn4 1_555 1_555
N23 Zn2 1_555 1_555
N24 Zn2 1_555 1_555
N25 Zn3 1_555 1_555
N26 Zn3 1_555 1_555
N27 Zn4 1_555 1_555
N28 Zn4 1_555 1_555
C1 H1 1_555 1_555
H2 C1 1_555 1_555
C2 C1 1_555 1_555
H3 C2 1_555 1_555
H4 C2 1_555 1_555
C3 N5 1_555 1_555
H5 C3 1_555 1_555
C4 N6 1_555 1_555
C5 C4 1_555 1_555
H6 C5 1_555 1_555
C6 C5 1_555 1_555
H7 C6 1_555 1_555
C7 C6 1_555 1_555
C8 N6 1_555 1_555
H8 C8 1_555 1_555
C9 C7 1_555 1_555
C10 C9 1_555 1_555
H9 C10 1_555 1_555
C11 C10 1_555 1_555
C12 C11 1_555 1_555
H10 C12 1_555 1_555
C13 C12 1_555 1_555
C14 C9 1_555 1_555
H11 C14 1_555 1_555
C15 N8 1_555 1_555
H12 C15 1_555 1_555
C16 C11 1_555 1_555
C17 C16 1_555 1_555
H13 C17 1_555 1_555
C18 C17 1_555 1_555
H14 C18 1_555 1_555
C19 N8 1_555 1_555
C20 C19 1_555 1_555
H15 C20 1_555 1_555
C21 N7 1_555 1_555
H16 C21 1_555 1_555
H17 C21 1_555 1_555
C22 C21 1_555 1_555
H18 C22 1_555 1_555
H19 C22 1_555 1_555
C23 N10 1_555 1_555
H20 C23 1_555 1_555
C24 C13 1_555 1_555
C25 C24 1_555 1_555
H21 C25 1_555 1_555
C26 C25 1_555 1_555
H22 C26 1_555 1_555
C27 N10 1_555 1_555
C28 C27 1_555 1_555
H23 C28 1_555 1_555
C29 N9 1_555 1_555
H24 C29 1_555 1_555
H25 C29 1_555 1_555
C30 C29 1_555 1_555
H26 C30 1_555 1_555
H27 C30 1_555 1_555
C31 N1 1_555 1_555
H28 C31 1_555 1_555
H29 C31 1_555 1_555
C32 N11 1_555 1_555
H30 C32 1_555 1_555
H31 C32 1_555 1_555
C33 N11 1_555 1_555
H32 C33 1_555 1_555
C34 N12 1_555 1_555
C35 C34 1_555 1_555
H33 C35 1_555 1_555
C36 C35 1_555 1_555
H34 C36 1_555 1_555
C37 C36 1_555 1_555
C38 N12 1_555 1_555
H35 C38 1_555 1_555
C39 C37 1_555 1_555
C40 C39 1_555 1_555
H36 C40 1_555 1_555
C41 C40 1_555 1_555
C42 C41 1_555 1_555
H37 C42 1_555 1_555
C43 C42 1_555 1_555
C44 C39 1_555 1_555
H38 C44 1_555 1_555
C45 N14 1_555 1_555
H39 C45 1_555 1_555
C46 C41 1_555 1_555
C47 C46 1_555 1_555
H40 C47 1_555 1_555
C48 C47 1_555 1_555
H41 C48 1_555 1_555
C49 N14 1_555 1_555
C50 N13 1_555 1_555
H42 C50 1_555 1_555
C51 N13 1_555 1_555
H43 C51 1_555 1_555
H44 C51 1_555 1_555
C52 N2 1_555 1_555
H45 C52 1_555 1_555
H46 C52 1_555 1_555
C53 N16 1_555 1_555
H47 C53 1_555 1_555
C54 C43 1_555 1_555
C55 C54 1_555 1_555
H48 C55 1_555 1_555
C56 C55 1_555 1_555
H49 C56 1_555 1_555
C57 N16 1_555 1_555
C58 C57 1_555 1_555
H50 C58 1_555 1_555
C59 N15 1_555 1_555
H51 C59 1_555 1_555
H52 C59 1_555 1_555
C60 C59 1_555 1_555
H53 C60 1_555 1_555
H54 C60 1_555 1_555
C61 N1 1_555 1_555
H55 C61 1_555 1_555
H56 C61 1_555 1_555
C62 N17 1_555 1_555
H57 C62 1_555 1_555
H58 C62 1_555 1_555
C63 N17 1_555 1_555
H59 C63 1_555 1_555
C64 N18 1_555 1_555
C65 C64 1_555 1_555
H60 C65 1_555 1_555
C66 C65 1_555 1_555
H61 C66 1_555 1_555
C67 C66 1_555 1_555
C68 N18 1_555 1_555
H62 C68 1_555 1_555
C69 C67 1_555 1_555
C70 C69 1_555 1_555
H63 C70 1_555 1_555
C71 C70 1_555 1_555
C72 C71 1_555 1_555
H64 C72 1_555 1_555
C73 C72 1_555 1_555
C74 C69 1_555 1_555
H65 C74 1_555 1_555
C75 N20 1_555 1_555
H66 C75 1_555 1_555
C76 C71 1_555 1_555
C77 C76 1_555 1_555
H67 C77 1_555 1_555
C78 C77 1_555 1_555
H68 C78 1_555 1_555
C79 N20 1_555 1_555
C80 N19 1_555 1_555
H69 C80 1_555 1_555
C81 N19 1_555 1_555
H70 C81 1_555 1_555
H71 C81 1_555 1_555
C82 N3 1_555 1_555
H72 C82 1_555 1_555
H73 C82 1_555 1_555
C83 N22 1_555 1_555
H74 C83 1_555 1_555
C84 C73 1_555 1_555
C85 C84 1_555 1_555
H75 C85 1_555 1_555
C86 C85 1_555 1_555
H76 C86 1_555 1_555
C87 N22 1_555 1_555
C88 N21 1_555 1_555
H77 C88 1_555 1_555
C89 N21 1_555 1_555
H78 C89 1_555 1_555
H79 C89 1_555 1_555
C90 N4 1_555 1_555
H80 C90 1_555 1_555
H81 C90 1_555 1_555
C91 N2 1_555 1_555
H82 C91 1_555 1_555
H83 C91 1_555 1_555
C92 N23 1_555 1_555
H84 C92 1_555 1_555
H85 C92 1_555 1_555
C93 N23 1_555 1_555
H86 C93 1_555 1_555
C94 N24 1_555 1_555
C95 C94 1_555 1_555
H87 C95 1_555 1_555
C96 C95 1_555 1_555
H88 C96 1_555 1_555
C97 C96 1_555 1_555
C98 N24 1_555 1_555
H89 C98 1_555 1_555
C99 C97 1_555 1_555
C100 C99 1_555 1_555
H90 C100 1_555 1_555
C101 C100 1_555 1_555
C102 C101 1_555 1_555
H91 C102 1_555 1_555
C103 C102 1_555 1_555
C104 C99 1_555 1_555
H92 C104 1_555 1_555
C105 N26 1_555 1_555
H93 C105 1_555 1_555
C106 C101 1_555 1_555
C107 C106 1_555 1_555
H94 C107 1_555 1_555
C108 C107 1_555 1_555
H95 C108 1_555 1_555
C109 N26 1_555 1_555
C110 N25 1_555 1_555
H96 C110 1_555 1_555
C111 N25 1_555 1_555
H97 C111 1_555 1_555
H98 C111 1_555 1_555
C112 N3 1_555 1_555
H99 C112 1_555 1_555
H100 C112 1_555 1_555
C113 N28 1_555 1_555
H101 C113 1_555 1_555
C114 C103 1_555 1_555
C115 C114 1_555 1_555
H102 C115 1_555 1_555
C116 C115 1_555 1_555
H103 C116 1_555 1_555
C117 N28 1_555 1_555
C118 N27 1_555 1_555
H104 C118 1_555 1_555
C119 N27 1_555 1_555
H105 C119 1_555 1_555
H106 C119 1_555 1_555
C120 N4 1_555 1_555
H107 C120 1_555 1_555
H108 C120 1_555 1_555
Zn5 N33 1_555 1_555
Zn6 N35 1_555 1_555
Zn7 N37 1_555 1_555
Zn8 N43 1_555 1_555
N29 C121 1_555 1_555
N30 C142 1_555 1_555
N31 C150 1_555 1_555
N32 C180 1_555 1_555
N33 C122 1_555 1_555
N34 Zn5 1_555 1_555
N35 C140 1_555 1_555
N36 Zn6 1_555 1_555
N37 C148 1_555 1_555
N38 Zn7 1_555 1_555
N39 Zn5 1_555 1_555
N40 Zn5 1_555 1_555
N41 Zn6 1_555 1_555
N42 Zn6 1_555 1_555
N43 C178 1_555 1_555
N44 Zn8 1_555 1_555
N45 Zn5 1_555 1_555
N46 Zn5 1_555 1_555
N47 Zn7 1_555 1_555
N48 Zn7 1_555 1_555
N49 Zn8 1_555 1_555
N50 Zn8 1_555 1_555
N51 Zn6 1_555 1_555
N52 Zn6 1_555 1_555
N53 Zn7 1_555 1_555
N54 Zn7 1_555 1_555
N55 Zn8 1_555 1_555
N56 Zn8 1_555 1_555
C121 H109 1_555 1_555
H110 C121 1_555 1_555
C122 C121 1_555 1_555
H111 C122 1_555 1_555
H112 C122 1_555 1_555
C123 N33 1_555 1_555
H113 C123 1_555 1_555
C124 N34 1_555 1_555
C125 C124 1_555 1_555
H114 C125 1_555 1_555
C126 C125 1_555 1_555
H115 C126 1_555 1_555
C127 C126 1_555 1_555
C128 N34 1_555 1_555
H116 C128 1_555 1_555
C129 C127 1_555 1_555
C130 C129 1_555 1_555
H117 C130 1_555 1_555
C131 C130 1_555 1_555
C132 C131 1_555 1_555
H118 C132 1_555 1_555
C133 C132 1_555 1_555
C134 C129 1_555 1_555
H119 C134 1_555 1_555
C135 N36 1_555 1_555
H120 C135 1_555 1_555
C136 C131 1_555 1_555
C137 C136 1_555 1_555
H121 C137 1_555 1_555
C138 C137 1_555 1_555
H122 C138 1_555 1_555
C139 N36 1_555 1_555
C140 C139 1_555 1_555
H123 C140 1_555 1_555
C141 N35 1_555 1_555
H124 C141 1_555 1_555
H125 C141 1_555 1_555
C142 C141 1_555 1_555
H126 C142 1_555 1_555
H127 C142 1_555 1_555
C143 N38 1_555 1_555
H128 C143 1_555 1_555
C144 C133 1_555 1_555
C145 C144 1_555 1_555
H129 C145 1_555 1_555
C146 C145 1_555 1_555
H130 C146 1_555 1_555
C147 N38 1_555 1_555
C148 C147 1_555 1_555
H131 C148 1_555 1_555
C149 N37 1_555 1_555
H132 C149 1_555 1_555
H133 C149 1_555 1_555
C150 C149 1_555 1_555
H134 C150 1_555 1_555
H135 C150 1_555 1_555
C151 N29 1_555 1_555
H136 C151 1_555 1_555
H137 C151 1_555 1_555
C152 N39 1_555 1_555
H138 C152 1_555 1_555
H139 C152 1_555 1_555
C153 N39 1_555 1_555
H140 C153 1_555 1_555
C154 N40 1_555 1_555
C155 C154 1_555 1_555
H141 C155 1_555 1_555
C156 C155 1_555 1_555
H142 C156 1_555 1_555
C157 C156 1_555 1_555
C158 N40 1_555 1_555
H143 C158 1_555 1_555
C159 C157 1_555 1_555
C160 C159 1_555 1_555
H144 C160 1_555 1_555
C161 C160 1_555 1_555
C162 C161 1_555 1_555
H145 C162 1_555 1_555
C163 C162 1_555 1_555
C164 C159 1_555 1_555
H146 C164 1_555 1_555
C165 N42 1_555 1_555
H147 C165 1_555 1_555
C166 C161 1_555 1_555
C167 C166 1_555 1_555
H148 C167 1_555 1_555
C168 C167 1_555 1_555
H149 C168 1_555 1_555
C169 N42 1_555 1_555
C170 N41 1_555 1_555
H150 C170 1_555 1_555
C171 N41 1_555 1_555
H151 C171 1_555 1_555
H152 C171 1_555 1_555
C172 N30 1_555 1_555
H153 C172 1_555 1_555
H154 C172 1_555 1_555
C173 N44 1_555 1_555
H155 C173 1_555 1_555
C174 C163 1_555 1_555
C175 C174 1_555 1_555
H156 C175 1_555 1_555
C176 C175 1_555 1_555
H157 C176 1_555 1_555
C177 N44 1_555 1_555
C178 C177 1_555 1_555
H158 C178 1_555 1_555
C179 N43 1_555 1_555
H159 C179 1_555 1_555
H160 C179 1_555 1_555
C180 C179 1_555 1_555
H161 C180 1_555 1_555
H162 C180 1_555 1_555
C181 N29 1_555 1_555
H163 C181 1_555 1_555
H164 C181 1_555 1_555
C182 N45 1_555 1_555
H165 C182 1_555 1_555
H166 C182 1_555 1_555
C183 N45 1_555 1_555
H167 C183 1_555 1_555
C184 N46 1_555 1_555
C185 C184 1_555 1_555
H168 C185 1_555 1_555
C186 C185 1_555 1_555
H169 C186 1_555 1_555
C187 C186 1_555 1_555
C188 N46 1_555 1_555
H170 C188 1_555 1_555
C189 C187 1_555 1_555
C190 C189 1_555 1_555
H171 C190 1_555 1_555
C191 C190 1_555 1_555
C192 C191 1_555 1_555
H172 C192 1_555 1_555
C193 C192 1_555 1_555
C194 C189 1_555 1_555
H173 C194 1_555 1_555
C195 N48 1_555 1_555
H174 C195 1_555 1_555
C196 C191 1_555 1_555
C197 C196 1_555 1_555
H175 C197 1_555 1_555
C198 C197 1_555 1_555
H176 C198 1_555 1_555
C199 N48 1_555 1_555
C200 N47 1_555 1_555
H177 C200 1_555 1_555
C201 N47 1_555 1_555
H178 C201 1_555 1_555
H179 C201 1_555 1_555
C202 N31 1_555 1_555
H180 C202 1_555 1_555
H181 C202 1_555 1_555
C203 N50 1_555 1_555
H182 C203 1_555 1_555
C204 C193 1_555 1_555
C205 C204 1_555 1_555
H183 C205 1_555 1_555
C206 C205 1_555 1_555
H184 C206 1_555 1_555
C207 N50 1_555 1_555
C208 N49 1_555 1_555
H185 C208 1_555 1_555
C209 N49 1_555 1_555
H186 C209 1_555 1_555
H187 C209 1_555 1_555
C210 N32 1_555 1_555
H188 C210 1_555 1_555
H189 C210 1_555 1_555
C211 N30 1_555 1_555
H190 C211 1_555 1_555
H191 C211 1_555 1_555
C212 N51 1_555 1_555
H192 C212 1_555 1_555
H193 C212 1_555 1_555
C213 N51 1_555 1_555
H194 C213 1_555 1_555
C214 N52 1_555 1_555
C215 C214 1_555 1_555
H195 C215 1_555 1_555
C216 C215 1_555 1_555
H196 C216 1_555 1_555
C217 C216 1_555 1_555
C218 N52 1_555 1_555
H197 C218 1_555 1_555
C219 C217 1_555 1_555
C220 C219 1_555 1_555
H198 C220 1_555 1_555
C221 C220 1_555 1_555
C222 C221 1_555 1_555
H199 C222 1_555 1_555
C223 C222 1_555 1_555
C224 C219 1_555 1_555
H200 C224 1_555 1_555
C225 N54 1_555 1_555
H201 C225 1_555 1_555
C226 C221 1_555 1_555
C227 C226 1_555 1_555
H202 C227 1_555 1_555
C228 C227 1_555 1_555
H203 C228 1_555 1_555
C229 N54 1_555 1_555
C230 N53 1_555 1_555
H204 C230 1_555 1_555
C231 N53 1_555 1_555
H205 C231 1_555 1_555
H206 C231 1_555 1_555
C232 N31 1_555 1_555
H207 C232 1_555 1_555
H208 C232 1_555 1_555
C233 N56 1_555 1_555
H209 C233 1_555 1_555
C234 C223 1_555 1_555
C235 C234 1_555 1_555
H210 C235 1_555 1_555
C236 C235 1_555 1_555
H211 C236 1_555 1_555
C237 N56 1_555 1_555
C238 N55 1_555 1_555
H212 C238 1_555 1_555
C239 N55 1_555 1_555
H213 C239 1_555 1_555
H214 C239 1_555 1_555
C240 N32 1_555 1_555
H215 C240 1_555 1_555
H216 C240 1_555 1_555
Re1 O1 1_555 1_555
O2 Re1 1_555 1_555
O3 Re1 1_555 1_555
O4 Re1 1_555 1_555
O5 Re2 1_555 1_555
Re2 O6 1_555 1_555
O7 Re2 1_555 1_555
O8 Re2 1_555 1_555
S1 N57 1_555 1_555
S2 N57 1_555 1_555
O9 S1 1_555 1_555
O10 S1 1_555 1_555
O11 S2 1_555 1_555
O12 S2 1_555 1_555
C241 S1 1_555 1_555
C242 S2 1_555 1_555
F1 C241 1_555 1_555
F2 C241 1_555 1_555
F3 C241 1_555 1_555
F4 C242 1_555 1_555
F5 C242 1_555 1_555
F6 C242 1_555 1_555
S3 N58 1_555 1_555
S4 N58 1_555 1_555
O13 S3 1_555 1_555
O14 S3 1_555 1_555
O15 S4 1_555 1_555
O16 S4 1_555 1_555
C243 S3 1_555 1_555
C244 S4 1_555 1_555
F7 C243 1_555 1_555
F8 C243 1_555 1_555
F9 C243 1_555 1_555
F10 C244 1_555 1_555
F11 C244 1_555 1_555
F12 C244 1_555 1_555
S5 N59 1_555 1_555
S6 N59 1_555 1_555
O17 S5 1_555 1_555
O18 S5 1_555 1_555
O19 S6 1_555 1_555
O20 S6 1_555 1_555
C245 S5 1_555 1_555
C246 S6 1_555 1_555
F13 C245 1_555 1_555
F14 C245 1_555 1_555
F15 C245 1_555 1_555
F16 C246 1_555 1_555
F17 C246 1_555 1_555
F18 C246 1_555 1_555
S7 N60 1_555 1_555
S8 N60 1_555 1_555
O21 S7 1_555 1_555
O22 S7 1_555 1_555
O23 S8 1_555 1_555
O24 S8 1_555 1_555
C247 S7 1_555 1_555
C248 S8 1_555 1_555
F19 C247 1_555 1_555
F20 C247 1_555 1_555
F21 C247 1_555 1_555
F22 C248 1_555 1_555
F23 C248 1_555 1_555
F24 C248 1_555 1_555
S9 N61 1_555 1_555
S10 N61 1_555 1_555
O25 S9 1_555 1_555
O26 S9 1_555 1_555
O27 S10 1_555 1_555
O28 S10 1_555 1_555
C249 S9 1_555 1_555
C250 S10 1_555 1_555
F25 C249 1_555 1_555
F26 C249 1_555 1_555
F27 C249 1_555 1_555
F28 C250 1_555 1_555
F29 C250 1_555 1_555
F30 C250 1_555 1_555
C3 C4 1_555 1_555
C7 C8 1_555 1_555
C13 C14 1_555 1_555
C15 C16 1_555 1_555
C18 C19 1_555 1_555
C23 C24 1_555 1_555
C26 C27 1_555 1_555
C31 C32 1_555 1_555
C33 C34 1_555 1_555
C37 C38 1_555 1_555
C43 C44 1_555 1_555
C45 C46 1_555 1_555
C48 C49 1_555 1_555
C49 C50 1_555 1_555
C51 C52 1_555 1_555
C53 C54 1_555 1_555
C56 C57 1_555 1_555
C61 C62 1_555 1_555
C63 C64 1_555 1_555
C67 C68 1_555 1_555
C73 C74 1_555 1_555
C75 C76 1_555 1_555
C78 C79 1_555 1_555
C79 C80 1_555 1_555
C81 C82 1_555 1_555
C83 C84 1_555 1_555
C86 C87 1_555 1_555
C87 C88 1_555 1_555
C89 C90 1_555 1_555
C91 C92 1_555 1_555
C93 C94 1_555 1_555
C97 C98 1_555 1_555
C103 C104 1_555 1_555
C105 C106 1_555 1_555
C108 C109 1_555 1_555
C109 C110 1_555 1_555
C111 C112 1_555 1_555
C113 C114 1_555 1_555
C116 C117 1_555 1_555
C117 C118 1_555 1_555
C119 C120 1_555 1_555
C123 C124 1_555 1_555
C127 C128 1_555 1_555
C133 C134 1_555 1_555
C135 C136 1_555 1_555
C138 C139 1_555 1_555
C143 C144 1_555 1_555
C146 C147 1_555 1_555
C151 C152 1_555 1_555
C153 C154 1_555 1_555
C157 C158 1_555 1_555
C163 C164 1_555 1_555
C165 C166 1_555 1_555
C168 C169 1_555 1_555
C169 C170 1_555 1_555
C171 C172 1_555 1_555
C173 C174 1_555 1_555
C176 C177 1_555 1_555
C181 C182 1_555 1_555
C183 C184 1_555 1_555
C187 C188 1_555 1_555
C193 C194 1_555 1_555
C195 C196 1_555 1_555
C198 C199 1_555 1_555
C199 C200 1_555 1_555
C201 C202 1_555 1_555
C203 C204 1_555 1_555
C206 C207 1_555 1_555
C207 C208 1_555 1_555
C209 C210 1_555 1_555
C211 C212 1_555 1_555
C213 C214 1_555 1_555
C217 C218 1_555 1_555
C223 C224 1_555 1_555
C225 C226 1_555 1_555
C228 C229 1_555 1_555
C229 C230 1_555 1_555
C231 C232 1_555 1_555
C233 C234 1_555 1_555
C236 C237 1_555 1_555
C237 C238 1_555 1_555
C239 C240 1_555 1_555

#END
