# generated using pymatgen
data_Cd4H74C75N20O11
_symmetry_space_group_name_H-M   'P 1'
_cell_length_a   24.88290032
_cell_length_b   24.88290032
_cell_length_c   24.88290032
_cell_angle_alpha   85.67866761
_cell_angle_beta   85.67866761
_cell_angle_gamma   85.67866761
_symmetry_Int_Tables_number   1
_chemical_formula_structural   Cd4H74C75N20O11
_chemical_formula_sum   'Cd24 H444 C450 N120 O66'
_cell_volume   15281.33971858
_cell_formula_units_Z   6
loop_
 _symmetry_equiv_pos_site_id
 _symmetry_equiv_pos_as_xyz
  1  'x, y, z'
loop_
 _atom_site_type_symbol
 _atom_site_label
 _atom_site_symmetry_multiplicity
 _atom_site_fract_x
 _atom_site_fract_y
 _atom_site_fract_z
 _atom_site_occupancy
  C  C1  1  0.859800  0.209100  0.343000  1
  C  C2  1  0.343000  0.859800  0.209100  1
  C  C3  1  0.209100  0.343000  0.859800  1
  C  C4  1  0.657000  0.140200  0.790900  1
  C  C5  1  0.790900  0.657000  0.140200  1
  C  C6  1  0.140200  0.790900  0.657000  1
  C  C7  1  0.877100  0.210300  0.401300  1
  C  C8  1  0.401300  0.877100  0.210300  1
  C  C9  1  0.210300  0.401300  0.877100  1
  C  C10  1  0.598700  0.122900  0.789700  1
  C  C11  1  0.789700  0.598700  0.122900  1
  C  C12  1  0.122900  0.789700  0.598700  1
  C  C13  1  0.820300  0.144700  0.286100  1
  C  C14  1  0.286100  0.820300  0.144700  1
  C  C15  1  0.144700  0.286100  0.820300  1
  C  C16  1  0.713900  0.179700  0.855300  1
  C  C17  1  0.855300  0.713900  0.179700  1
  C  C18  1  0.179700  0.855300  0.713900  1
  C  C19  1  0.870200  0.135100  0.246100  1
  C  C20  1  0.246100  0.870200  0.135100  1
  C  C21  1  0.135100  0.246100  0.870200  1
  C  C22  1  0.753900  0.129800  0.864900  1
  C  C23  1  0.864900  0.753900  0.129800  1
  C  C24  1  0.129800  0.864900  0.753900  1
  C  C25  1  0.791100  0.145200  0.382900  1
  C  C26  1  0.382900  0.791100  0.145200  1
  C  C27  1  0.145200  0.382900  0.791100  1
  C  C28  1  0.617100  0.208900  0.854800  1
  C  C29  1  0.854800  0.617100  0.208900  1
  C  C30  1  0.208900  0.854800  0.617100  1
  C  C31  1  0.744000  0.183800  0.376700  1
  C  C32  1  0.376700  0.744000  0.183800  1
  C  C33  1  0.183800  0.376700  0.744000  1
  C  C34  1  0.623300  0.256000  0.816200  1
  C  C35  1  0.816200  0.623300  0.256000  1
  C  C36  1  0.256000  0.816200  0.623300  1
  C  C37  1  0.591500  0.139400  0.131400  1.0
  C  C38  1  0.131400  0.591500  0.139400  1.0
  C  C39  1  0.139400  0.131400  0.591500  1.0
  C  C40  1  0.868600  0.408500  0.860600  1.0
  C  C41  1  0.860600  0.868600  0.408500  1.0
  C  C42  1  0.408500  0.860600  0.868600  1.0
  C  C43  1  0.567800  0.048300  0.025400  1.0
  C  C44  1  0.025400  0.567800  0.048300  1.0
  C  C45  1  0.048300  0.025400  0.567800  1.0
  C  C46  1  0.974600  0.432200  0.951700  1.0
  C  C47  1  0.951700  0.974600  0.432200  1.0
  C  C48  1  0.432200  0.951700  0.974600  1.0
  C  C49  1  0.590600  0.029100  0.976800  1.0
  C  C50  1  0.976800  0.590600  0.029100  1.0
  C  C51  1  0.029100  0.976800  0.590600  1.0
  C  C52  1  0.023200  0.409400  0.970900  1.0
  C  C53  1  0.970900  0.023200  0.409400  1.0
  C  C54  1  0.409400  0.970900  0.023200  1.0
  C  C55  1  0.624900  0.052300  0.936400  1.0
  C  C56  1  0.936400  0.624900  0.052300  1.0
  C  C57  1  0.052300  0.936400  0.624900  1.0
  C  C58  1  0.063600  0.375100  0.947700  1.0
  C  C59  1  0.947700  0.063600  0.375100  1.0
  C  C60  1  0.375100  0.947700  0.063600  1.0
  C  C61  1  0.643600  0.023600  0.892100  1.0
  C  C62  1  0.892100  0.643600  0.023600  1.0
  C  C63  1  0.023600  0.892100  0.643600  1.0
  C  C64  1  0.107900  0.356400  0.976400  1.0
  C  C65  1  0.976400  0.107900  0.356400  1.0
  C  C66  1  0.356400  0.976400  0.107900  1.0
  C  C67  1  0.628000  0.971600  0.888300  1.0
  C  C68  1  0.888300  0.628000  0.971600  1.0
  C  C69  1  0.971600  0.888300  0.628000  1.0
  C  C70  1  0.111700  0.372000  0.028400  1.0
  C  C71  1  0.028400  0.111700  0.372000  1.0
  C  C72  1  0.372000  0.028400  0.111700  1.0
  C  C73  1  0.593700  0.948400  0.928700  1.0
  C  C74  1  0.928700  0.593700  0.948400  1.0
  C  C75  1  0.948400  0.928700  0.593700  1.0
  C  C76  1  0.071300  0.406300  0.051600  1.0
  C  C77  1  0.051600  0.071300  0.406300  1.0
  C  C78  1  0.406300  0.051600  0.071300  1.0
  C  C79  1  0.575000  0.977200  0.972900  1.0
  C  C80  1  0.972900  0.575000  0.977200  1.0
  C  C81  1  0.977200  0.972900  0.575000  1.0
  C  C82  1  0.027100  0.425000  0.022800  1.0
  C  C83  1  0.022800  0.027100  0.425000  1.0
  C  C84  1  0.425000  0.022800  0.027100  1.0
  C  C85  1  0.706300  0.198500  0.127000  1.0
  C  C86  1  0.127000  0.706300  0.198500  1.0
  C  C87  1  0.198500  0.127000  0.706300  1.0
  C  C88  1  0.873000  0.293700  0.801500  1.0
  C  C89  1  0.801500  0.873000  0.293700  1.0
  C  C90  1  0.293700  0.801500  0.873000  1.0
  C  C91  1  0.744700  0.228900  0.154200  1.0
  C  C92  1  0.154200  0.744700  0.228900  1.0
  C  C93  1  0.228900  0.154200  0.744700  1.0
  C  C94  1  0.845800  0.255300  0.771100  1.0
  C  C95  1  0.771100  0.845800  0.255300  1.0
  C  C96  1  0.255300  0.771100  0.845800  1.0
  C  C97  1  0.728200  0.251400  0.202800  1.0
  C  C98  1  0.202800  0.728200  0.251400  1.0
  C  C99  1  0.251400  0.202800  0.728200  1.0
  C  C100  1  0.797200  0.271800  0.748600  1.0
  C  C101  1  0.748600  0.797200  0.271800  1.0
  C  C102  1  0.271800  0.748600  0.797200  1.0
  C  C103  1  0.764800  0.277100  0.229900  1.0
  C  C104  1  0.229900  0.764800  0.277100  1.0
  C  C105  1  0.277100  0.229900  0.764800  1.0
  C  C106  1  0.770100  0.235200  0.722900  1.0
  C  C107  1  0.722900  0.770100  0.235200  1.0
  C  C108  1  0.235200  0.722900  0.770100  1.0
  C  C109  1  0.817800  0.280400  0.208400  1.0
  C  C110  1  0.208400  0.817800  0.280400  1.0
  C  C111  1  0.280400  0.208400  0.817800  1.0
  C  C112  1  0.791600  0.182200  0.719600  1.0
  C  C113  1  0.719600  0.791600  0.182200  1.0
  C  C114  1  0.182200  0.719600  0.791600  1.0
  C  C115  1  0.834200  0.258000  0.159800  1.0
  C  C116  1  0.159800  0.834200  0.258000  1.0
  C  C117  1  0.258000  0.159800  0.834200  1.0
  C  C118  1  0.840200  0.165800  0.742000  1.0
  C  C119  1  0.742000  0.840200  0.165800  1.0
  C  C120  1  0.165800  0.742000  0.840200  1.0
  C  C121  1  0.797700  0.232200  0.132700  1.0
  C  C122  1  0.132700  0.797700  0.232200  1.0
  C  C123  1  0.232200  0.132700  0.797700  1.0
  C  C124  1  0.867300  0.202300  0.767800  1.0
  C  C125  1  0.767800  0.867300  0.202300  1.0
  C  C126  1  0.202300  0.767800  0.867300  1.0
  C  C127  1  0.486400  0.147200  0.215200  1.0
  C  C128  1  0.215200  0.486400  0.147200  1.0
  C  C129  1  0.147200  0.215200  0.486400  1.0
  C  C130  1  0.784800  0.513600  0.852800  1.0
  C  C131  1  0.852800  0.784800  0.513600  1.0
  C  C132  1  0.513600  0.852800  0.784800  1.0
  C  C133  1  0.430500  0.130900  0.237600  1.0
  C  C134  1  0.237600  0.430500  0.130900  1.0
  C  C135  1  0.130900  0.237600  0.430500  1.0
  C  C136  1  0.762400  0.569500  0.869100  1.0
  C  C137  1  0.869100  0.762400  0.569500  1.0
  C  C138  1  0.569500  0.869100  0.762400  1.0
  C  C139  1  0.417800  0.078200  0.231900  1.0
  C  C140  1  0.231900  0.417800  0.078200  1.0
  C  C141  1  0.078200  0.231900  0.417800  1.0
  C  C142  1  0.768100  0.582200  0.921800  1.0
  C  C143  1  0.921800  0.768100  0.582200  1.0
  C  C144  1  0.582200  0.921800  0.768100  1.0
  C  C145  1  0.367900  0.061200  0.252300  1.0
  C  C146  1  0.252300  0.367900  0.061200  1.0
  C  C147  1  0.061200  0.252300  0.367900  1.0
  C  C148  1  0.747700  0.632100  0.938800  1.0
  C  C149  1  0.938800  0.747700  0.632100  1.0
  C  C150  1  0.632100  0.938800  0.747700  1.0
  C  C151  1  0.330700  0.096600  0.278400  1.0
  C  C152  1  0.278400  0.330700  0.096600  1.0
  C  C153  1  0.096600  0.278400  0.330700  1.0
  C  C154  1  0.721600  0.669300  0.903400  1.0
  C  C155  1  0.903400  0.721600  0.669300  1.0
  C  C156  1  0.669300  0.903400  0.721600  1.0
  C  C157  1  0.343400  0.149300  0.284100  1.0
  C  C158  1  0.284100  0.343400  0.149300  1.0
  C  C159  1  0.149300  0.284100  0.343400  1.0
  C  C160  1  0.715900  0.656600  0.850700  1.0
  C  C161  1  0.850700  0.715900  0.656600  1.0
  C  C162  1  0.656600  0.850700  0.715900  1.0
  C  C163  1  0.393200  0.166500  0.263600  1.0
  C  C164  1  0.263600  0.393200  0.166500  1.0
  C  C165  1  0.166500  0.263600  0.393200  1.0
  C  C166  1  0.736400  0.606800  0.833500  1.0
  C  C167  1  0.833500  0.736400  0.606800  1.0
  C  C168  1  0.606800  0.833500  0.736400  1.0
  C  C169  1  0.691000  0.337200  0.081300  1.0
  C  C170  1  0.081300  0.691000  0.337200  1.0
  C  C171  1  0.337200  0.081300  0.691000  1.0
  C  C172  1  0.918700  0.309000  0.662800  1.0
  C  C173  1  0.662800  0.918700  0.309000  1.0
  C  C174  1  0.309000  0.662800  0.918700  1.0
  C  C175  1  0.696600  0.441600  0.168400  1.0
  C  C176  1  0.168400  0.696600  0.441600  1.0
  C  C177  1  0.441600  0.168400  0.696600  1.0
  C  C178  1  0.831600  0.303400  0.558400  1.0
  C  C179  1  0.558400  0.831600  0.303400  1.0
  C  C180  1  0.303400  0.558400  0.831600  1.0
  C  C181  1  0.680500  0.450700  0.224600  1.0
  C  C182  1  0.224600  0.680500  0.450700  1.0
  C  C183  1  0.450700  0.224600  0.680500  1.0
  C  C184  1  0.775400  0.319500  0.549300  1.0
  C  C185  1  0.549300  0.775400  0.319500  1.0
  C  C186  1  0.319500  0.549300  0.775400  1.0
  C  C187  1  0.657400  0.424100  0.270700  1.0
  C  C188  1  0.270700  0.657400  0.424100  1.0
  C  C189  1  0.424100  0.270700  0.657400  1.0
  C  C190  1  0.729300  0.342600  0.575900  1.0
  C  C191  1  0.575900  0.729300  0.342600  1.0
  C  C192  1  0.342600  0.575900  0.729300  1.0
  C  C193  1  0.642200  0.452200  0.316300  1.0
  C  C194  1  0.316300  0.642200  0.452200  1.0
  C  C195  1  0.452200  0.316300  0.642200  1.0
  C  C196  1  0.683700  0.357800  0.547800  1.0
  C  C197  1  0.547800  0.683700  0.357800  1.0
  C  C198  1  0.357800  0.547800  0.683700  1.0
  C  C199  1  0.650200  0.506800  0.315800  1.0
  C  C200  1  0.315800  0.650200  0.506800  1.0
  C  C201  1  0.506800  0.315800  0.650200  1.0
  C  C202  1  0.684200  0.349800  0.493200  1.0
  C  C203  1  0.493200  0.684200  0.349800  1.0
  C  C204  1  0.349800  0.493200  0.684200  1.0
  C  C205  1  0.673300  0.533500  0.269600  1.0
  C  C206  1  0.269600  0.673300  0.533500  1.0
  C  C207  1  0.533500  0.269600  0.673300  1.0
  C  C208  1  0.730400  0.326700  0.466500  1.0
  C  C209  1  0.466500  0.730400  0.326700  1.0
  C  C210  1  0.326700  0.466500  0.730400  1.0
  C  C211  1  0.688400  0.505500  0.224000  1.0
  C  C212  1  0.224000  0.688400  0.505500  1.0
  C  C213  1  0.505500  0.224000  0.688400  1.0
  C  C214  1  0.776000  0.311600  0.494500  1.0
  C  C215  1  0.494500  0.776000  0.311600  1.0
  C  C216  1  0.311600  0.494500  0.776000  1.0
  C  C217  1  0.572700  0.273700  0.090900  1.0
  C  C218  1  0.090900  0.572700  0.273700  1.0
  C  C219  1  0.273700  0.090900  0.572700  1.0
  C  C220  1  0.909100  0.427300  0.726300  1.0
  C  C221  1  0.726300  0.909100  0.427300  1.0
  C  C222  1  0.427300  0.726300  0.909100  1.0
  C  C223  1  0.536900  0.243100  0.065500  1.0
  C  C224  1  0.065500  0.536900  0.243100  1.0
  C  C225  1  0.243100  0.065500  0.536900  1.0
  C  C226  1  0.934500  0.463100  0.756900  1.0
  C  C227  1  0.756900  0.934500  0.463100  1.0
  C  C228  1  0.463100  0.756900  0.934500  1.0
  C  C229  1  0.552000  0.222700  0.015600  1.0
  C  C230  1  0.015600  0.552000  0.222700  1.0
  C  C231  1  0.222700  0.015600  0.552000  1.0
  C  C232  1  0.984400  0.448000  0.777300  1.0
  C  C233  1  0.777300  0.984400  0.448000  1.0
  C  C234  1  0.448000  0.777300  0.984400  1.0
  C  C235  1  0.515100  0.196900  0.989200  1.0
  C  C236  1  0.989200  0.515100  0.196900  1.0
  C  C237  1  0.196900  0.989200  0.515100  1.0
  C  C238  1  0.010800  0.484900  0.803100  1.0
  C  C239  1  0.803100  0.010800  0.484900  1.0
  C  C240  1  0.484900  0.803100  0.010800  1.0
  C  C241  1  0.463100  0.191400  0.012500  1.0
  C  C242  1  0.012500  0.463100  0.191400  1.0
  C  C243  1  0.191400  0.012500  0.463100  1.0
  C  C244  1  0.987500  0.536900  0.808600  1.0
  C  C245  1  0.808600  0.987500  0.536900  1.0
  C  C246  1  0.536900  0.808600  0.987500  1.0
  C  C247  1  0.448000  0.211800  0.062400  1.0
  C  C248  1  0.062400  0.448000  0.211800  1.0
  C  C249  1  0.211800  0.062400  0.448000  1.0
  C  C250  1  0.937600  0.552000  0.788200  1.0
  C  C251  1  0.788200  0.937600  0.552000  1.0
  C  C252  1  0.552000  0.788200  0.937600  1.0
  C  C253  1  0.484900  0.237500  0.088900  1.0
  C  C254  1  0.088900  0.484900  0.237500  1.0
  C  C255  1  0.237500  0.088900  0.484900  1.0
  C  C256  1  0.911100  0.515100  0.762500  1.0
  C  C257  1  0.762500  0.911100  0.515100  1.0
  C  C258  1  0.515100  0.762500  0.911100  1.0
  C  C259  1  0.763600  0.379700  0.083200  1.0
  C  C260  1  0.083200  0.763600  0.379700  1.0
  C  C261  1  0.379700  0.083200  0.763600  1.0
  C  C262  1  0.916800  0.236400  0.620300  1.0
  C  C263  1  0.620300  0.916800  0.236400  1.0
  C  C264  1  0.236400  0.620300  0.916800  1.0
  C  C265  1  0.807800  0.411300  0.094700  1.0
  C  C266  1  0.094700  0.807800  0.411300  1.0
  C  C267  1  0.411300  0.094700  0.807800  1.0
  C  C268  1  0.905300  0.192200  0.588700  1.0
  C  C269  1  0.588700  0.905300  0.192200  1.0
  C  C270  1  0.192200  0.588700  0.905300  1.0
  C  C271  1  0.826200  0.442900  0.049500  1.0
  C  C272  1  0.049500  0.826200  0.442900  1.0
  C  C273  1  0.442900  0.049500  0.826200  1.0
  C  C274  1  0.950500  0.173800  0.557100  1.0
  C  C275  1  0.557100  0.950500  0.173800  1.0
  C  C276  1  0.173800  0.557100  0.950500  1.0
  C  C277  1  0.866000  0.478300  0.053800  1.0
  C  C278  1  0.053800  0.866000  0.478300  1.0
  C  C279  1  0.478300  0.053800  0.866000  1.0
  C  C280  1  0.946200  0.134000  0.521700  1.0
  C  C281  1  0.521700  0.946200  0.134000  1.0
  C  C282  1  0.134000  0.521700  0.946200  1.0
  C  C283  1  0.887300  0.482300  0.103200  1.0
  C  C284  1  0.103200  0.887300  0.482300  1.0
  C  C285  1  0.482300  0.103200  0.887300  1.0
  C  C286  1  0.896800  0.112700  0.517700  1.0
  C  C287  1  0.517700  0.896800  0.112700  1.0
  C  C288  1  0.112700  0.517700  0.896800  1.0
  C  C289  1  0.868900  0.450700  0.148400  1.0
  C  C290  1  0.148400  0.868900  0.450700  1.0
  C  C291  1  0.450700  0.148400  0.868900  1.0
  C  C292  1  0.851600  0.131100  0.549300  1.0
  C  C293  1  0.549300  0.851600  0.131100  1.0
  C  C294  1  0.131100  0.549300  0.851600  1.0
  C  C295  1  0.829100  0.415300  0.144100  1.0
  C  C296  1  0.144100  0.829100  0.415300  1.0
  C  C297  1  0.415300  0.144100  0.829100  1.0
  C  C298  1  0.855900  0.170900  0.584700  1.0
  C  C299  1  0.584700  0.855900  0.170900  1.0
  C  C300  1  0.170900  0.584700  0.855900  1.0
  C  C301  1  0.634800  0.114500  0.332300  1.0
  C  C302  1  0.332300  0.634800  0.114500  1.0
  C  C303  1  0.114500  0.332300  0.634800  1.0
  C  C304  1  0.667700  0.365200  0.885500  1.0
  C  C305  1  0.885500  0.667700  0.365200  1.0
  C  C306  1  0.365200  0.885500  0.667700  1.0
  C  C307  1  0.530300  0.218200  0.337000  1.0
  C  C308  1  0.337000  0.530300  0.218200  1.0
  C  C309  1  0.218200  0.337000  0.530300  1.0
  C  C310  1  0.663000  0.469700  0.781800  1.0
  C  C311  1  0.781800  0.663000  0.469700  1.0
  C  C312  1  0.469700  0.781800  0.663000  1.0
  C  C313  1  0.503500  0.259900  0.302900  1.0
  C  C314  1  0.302900  0.503500  0.259900  1.0
  C  C315  1  0.259900  0.302900  0.503500  1.0
  C  C316  1  0.697100  0.496500  0.740100  1.0
  C  C317  1  0.740100  0.697100  0.496500  1.0
  C  C318  1  0.496500  0.740100  0.697100  1.0
  C  C319  1  0.519600  0.283700  0.252500  1.0
  C  C320  1  0.252500  0.519600  0.283700  1.0
  C  C321  1  0.283700  0.252500  0.519600  1.0
  C  C322  1  0.747500  0.480400  0.716300  1.0
  C  C323  1  0.716300  0.747500  0.480400  1.0
  C  C324  1  0.480400  0.716300  0.747500  1.0
  C  C325  1  0.484400  0.320700  0.225800  1.0
  C  C326  1  0.225800  0.484400  0.320700  1.0
  C  C327  1  0.320700  0.225800  0.484400  1.0
  C  C328  1  0.774200  0.515600  0.679300  1.0
  C  C329  1  0.679300  0.774200  0.515600  1.0
  C  C330  1  0.515600  0.679300  0.774200  1.0
  C  C331  1  0.433200  0.334100  0.249500  1.0
  C  C332  1  0.249500  0.433200  0.334100  1.0
  C  C333  1  0.334100  0.249500  0.433200  1.0
  C  C334  1  0.750500  0.566800  0.665900  1.0
  C  C335  1  0.665900  0.750500  0.566800  1.0
  C  C336  1  0.566800  0.665900  0.750500  1.0
  C  C337  1  0.417100  0.310300  0.299900  1.0
  C  C338  1  0.299900  0.417100  0.310300  1.0
  C  C339  1  0.310300  0.299900  0.417100  1.0
  C  C340  1  0.700100  0.582900  0.689700  1.0
  C  C341  1  0.689700  0.700100  0.582900  1.0
  C  C342  1  0.582900  0.689700  0.700100  1.0
  C  C343  1  0.452300  0.273300  0.326600  1.0
  C  C344  1  0.326600  0.452300  0.273300  1.0
  C  C345  1  0.273300  0.326600  0.452300  1.0
  C  C346  1  0.673400  0.547700  0.726700  1.0
  C  C347  1  0.726700  0.673400  0.547700  1.0
  C  C348  1  0.547700  0.726700  0.673400  1.0
  C  C349  1  0.775500  0.282300  0.919700  1.0
  C  C350  1  0.919700  0.775500  0.282300  1.0
  C  C351  1  0.282300  0.919700  0.775500  1.0
  C  C352  1  0.080300  0.224500  0.717700  1.0
  C  C353  1  0.717700  0.080300  0.224500  1.0
  C  C354  1  0.224500  0.717700  0.080300  1.0
  C  C355  1  0.798200  0.237400  0.949100  1.0
  C  C356  1  0.949100  0.798200  0.237400  1.0
  C  C357  1  0.237400  0.949100  0.798200  1.0
  C  C358  1  0.050900  0.201800  0.762600  1.0
  C  C359  1  0.762600  0.050900  0.201800  1.0
  C  C360  1  0.201800  0.762600  0.050900  1.0
  C  C361  1  0.769600  0.199600  0.981300  1.0
  C  C362  1  0.981300  0.769600  0.199600  1.0
  C  C363  1  0.199600  0.981300  0.769600  1.0
  C  C364  1  0.018700  0.230400  0.800400  1.0
  C  C365  1  0.800400  0.018700  0.230400  1.0
  C  C366  1  0.230400  0.800400  0.018700  1.0
  C  C367  1  0.797000  0.155000  0.006300  1.0
  C  C368  1  0.006300  0.797000  0.155000  1.0
  C  C369  1  0.155000  0.006300  0.797000  1.0
  C  C370  1  0.993700  0.203000  0.845000  1.0
  C  C371  1  0.845000  0.993700  0.203000  1.0
  C  C372  1  0.203000  0.845000  0.993700  1.0
  C  C373  1  0.853000  0.148100  0.999200  1.0
  C  C374  1  0.999200  0.853000  0.148100  1.0
  C  C375  1  0.148100  0.999200  0.853000  1.0
  C  C376  1  0.000800  0.147000  0.851900  1.0
  C  C377  1  0.851900  0.000800  0.147000  1.0
  C  C378  1  0.147000  0.851900  0.000800  1.0
  C  C379  1  0.881500  0.185800  0.966900  1.0
  C  C380  1  0.966900  0.881500  0.185800  1.0
  C  C381  1  0.185800  0.966900  0.881500  1.0
  C  C382  1  0.033100  0.118500  0.814200  1.0
  C  C383  1  0.814200  0.033100  0.118500  1.0
  C  C384  1  0.118500  0.814200  0.033100  1.0
  C  C385  1  0.854100  0.230400  0.941900  1.0
  C  C386  1  0.941900  0.854100  0.230400  1.0
  C  C387  1  0.230400  0.941900  0.854100  1.0
  C  C388  1  0.058100  0.145900  0.769600  1.0
  C  C389  1  0.769600  0.058100  0.145900  1.0
  C  C390  1  0.145900  0.769600  0.058100  1.0
  C  C391  1  0.544700  0.344600  0.947500  1.0
  C  C392  1  0.947500  0.544700  0.344600  1.0
  C  C393  1  0.344600  0.947500  0.544700  1.0
  C  C394  1  0.052500  0.455300  0.655400  1.0
  C  C395  1  0.655400  0.052500  0.455300  1.0
  C  C396  1  0.455300  0.655400  0.052500  1.0
  C  C397  1  0.489200  0.359000  0.948400  1.0
  C  C398  1  0.948400  0.489200  0.359000  1.0
  C  C399  1  0.359000  0.948400  0.489200  1.0
  C  C400  1  0.051600  0.510800  0.641000  1.0
  C  C401  1  0.641000  0.051600  0.510800  1.0
  C  C402  1  0.510800  0.641000  0.051600  1.0
  C  C403  1  0.470900  0.396900  0.909900  1.0
  C  C404  1  0.909900  0.470900  0.396900  1.0
  C  C405  1  0.396900  0.909900  0.470900  1.0
  C  C406  1  0.090100  0.529100  0.603100  1.0
  C  C407  1  0.603100  0.090100  0.529100  1.0
  C  C408  1  0.529100  0.603100  0.090100  1.0
  C  C409  1  0.416000  0.414000  0.909000  1.0
  C  C410  1  0.909000  0.416000  0.414000  1.0
  C  C411  1  0.414000  0.909000  0.416000  1.0
  C  C412  1  0.091000  0.584000  0.586000  1.0
  C  C413  1  0.586000  0.091000  0.584000  1.0
  C  C414  1  0.584000  0.586000  0.091000  1.0
  C  C415  1  0.379500  0.391800  0.948200  1.0
  C  C416  1  0.948200  0.379500  0.391800  1.0
  C  C417  1  0.391800  0.948200  0.379500  1.0
  C  C418  1  0.051800  0.620500  0.608200  1.0
  C  C419  1  0.608200  0.051800  0.620500  1.0
  C  C420  1  0.620500  0.608200  0.051800  1.0
  C  C421  1  0.397800  0.352800  0.987800  1.0
  C  C422  1  0.987800  0.397800  0.352800  1.0
  C  C423  1  0.352800  0.987800  0.397800  1.0
  C  C424  1  0.012200  0.602200  0.647200  1.0
  C  C425  1  0.647200  0.012200  0.602200  1.0
  C  C426  1  0.602200  0.647200  0.012200  1.0
  C  C427  1  0.452700  0.336700  0.987700  1.0
  C  C428  1  0.987700  0.452700  0.336700  1.0
  C  C429  1  0.336700  0.987700  0.452700  1.0
  C  C430  1  0.012300  0.547300  0.663300  1.0
  C  C431  1  0.663300  0.012300  0.547300  1.0
  C  C432  1  0.547300  0.663300  0.012300  1.0
  C  C433  1  0.718400  0.023400  0.008000  1.0
  C  C434  1  0.008000  0.718400  0.023400  1.0
  C  C435  1  0.023400  0.008000  0.718400  1.0
  C  C436  1  0.992000  0.281600  0.976600  1.0
  C  C437  1  0.976600  0.992000  0.281600  1.0
  C  C438  1  0.281600  0.976600  0.992000  1.0
  C  C439  1  0.680500  0.971400  0.094300  1.0
  C  C440  1  0.094300  0.680500  0.971400  1.0
  C  C441  1  0.971400  0.094300  0.680500  1.0
  C  C442  1  0.905700  0.319500  0.028600  1.0
  C  C443  1  0.028600  0.905700  0.319500  1.0
  C  C444  1  0.319500  0.028600  0.905700  1.0
  C  C445  1  0.713500  0.929300  0.011900  1.0
  C  C446  1  0.011900  0.713500  0.929300  1.0
  C  C447  1  0.929300  0.011900  0.713500  1.0
  C  C448  1  0.988100  0.286500  0.070700  1.0
  C  C449  1  0.070700  0.988100  0.286500  1.0
  C  C450  1  0.286500  0.070700  0.988100  1.0
  Cd  Cd451  1  0.615990  0.190190  0.228680  1.0
  Cd  Cd452  1  0.228680  0.615990  0.190190  1.0
  Cd  Cd453  1  0.190190  0.228680  0.615990  1.0
  Cd  Cd454  1  0.771320  0.384010  0.809810  1.0
  Cd  Cd455  1  0.809810  0.771320  0.384010  1.0
  Cd  Cd456  1  0.384010  0.809810  0.771320  1.0
  Cd  Cd457  1  0.655090  0.144800  0.013690  1.0
  Cd  Cd458  1  0.013690  0.655090  0.144800  1.0
  Cd  Cd459  1  0.144800  0.013690  0.655090  1.0
  Cd  Cd460  1  0.986310  0.344910  0.855200  1.0
  Cd  Cd461  1  0.855200  0.986310  0.344910  1.0
  Cd  Cd462  1  0.344910  0.855200  0.986310  1.0
  Cd  Cd463  1  0.662370  0.285410  0.986820  1.0
  Cd  Cd464  1  0.986820  0.662370  0.285410  1.0
  Cd  Cd465  1  0.285410  0.986820  0.662370  1.0
  Cd  Cd466  1  0.013180  0.337630  0.714590  1.0
  Cd  Cd467  1  0.714590  0.013180  0.337630  1.0
  Cd  Cd468  1  0.337630  0.714590  0.013180  1.0
  Cd  Cd469  1  0.624820  0.330920  0.201520  1.0
  Cd  Cd470  1  0.201520  0.624820  0.330920  1.0
  Cd  Cd471  1  0.330920  0.201520  0.624820  1.0
  Cd  Cd472  1  0.798480  0.375180  0.669080  1.0
  Cd  Cd473  1  0.669080  0.798480  0.375180  1.0
  Cd  Cd474  1  0.375180  0.669080  0.798480  1.0
  H  H475  1  0.861500  0.129000  0.350000  1
  H  H476  1  0.350000  0.861500  0.129000  1
  H  H477  1  0.129000  0.350000  0.861500  1
  H  H478  1  0.650000  0.138500  0.871000  1
  H  H479  1  0.871000  0.650000  0.138500  1
  H  H480  1  0.138500  0.871000  0.650000  1
  H  H481  1  0.833500  0.239800  0.334400  1
  H  H482  1  0.334400  0.833500  0.239800  1
  H  H483  1  0.239800  0.334400  0.833500  1
  H  H484  1  0.665600  0.166500  0.760200  1
  H  H485  1  0.760200  0.665600  0.166500  1
  H  H486  1  0.166500  0.760200  0.665600  1
  H  H487  1  0.891600  0.210900  0.316600  1
  H  H488  1  0.316600  0.891600  0.210900  1
  H  H489  1  0.210900  0.316600  0.891600  1
  H  H490  1  0.683400  0.108400  0.789100  1
  H  H491  1  0.789100  0.683400  0.108400  1
  H  H492  1  0.108400  0.789100  0.683400  1
  H  H493  1  0.846400  0.224100  0.424500  1
  H  H494  1  0.424500  0.846400  0.224100  1
  H  H495  1  0.224100  0.424500  0.846400  1
  H  H496  1  0.575500  0.153600  0.775900  1
  H  H497  1  0.775900  0.575500  0.153600  1
  H  H498  1  0.153600  0.775900  0.575500  1
  H  H499  1  0.906900  0.233900  0.401300  1
  H  H500  1  0.401300  0.906900  0.233900  1
  H  H501  1  0.233900  0.401300  0.906900  1
  H  H502  1  0.598700  0.093100  0.766100  1
  H  H503  1  0.766100  0.598700  0.093100  1
  H  H504  1  0.093100  0.766100  0.598700  1
  H  H505  1  0.888900  0.173600  0.414800  1
  H  H506  1  0.414800  0.888900  0.173600  1
  H  H507  1  0.173600  0.414800  0.888900  1
  H  H508  1  0.585200  0.111100  0.826400  1
  H  H509  1  0.826400  0.585200  0.111100  1
  H  H510  1  0.111100  0.826400  0.585200  1
  H  H511  1  0.797400  0.175900  0.271500  1
  H  H512  1  0.271500  0.797400  0.175900  1
  H  H513  1  0.175900  0.271500  0.797400  1
  H  H514  1  0.728500  0.202600  0.824100  1
  H  H515  1  0.824100  0.728500  0.202600  1
  H  H516  1  0.202600  0.824100  0.728500  1
  H  H517  1  0.798800  0.112600  0.288400  1
  H  H518  1  0.288400  0.798800  0.112600  1
  H  H519  1  0.112600  0.288400  0.798800  1
  H  H520  1  0.711600  0.201200  0.887400  1
  H  H521  1  0.887400  0.711600  0.201200  1
  H  H522  1  0.201200  0.887400  0.711600  1
  H  H523  1  0.880300  0.169700  0.228400  1
  H  H524  1  0.228400  0.880300  0.169700  1
  H  H525  1  0.169700  0.228400  0.880300  1
  H  H526  1  0.771600  0.119700  0.830300  1
  H  H527  1  0.830300  0.771600  0.119700  1
  H  H528  1  0.119700  0.830300  0.771600  1
  H  H529  1  0.861400  0.111300  0.218700  1
  H  H530  1  0.218700  0.861400  0.111300  1
  H  H531  1  0.111300  0.218700  0.861400  1
  H  H532  1  0.781300  0.138600  0.888700  1
  H  H533  1  0.888700  0.781300  0.138600  1
  H  H534  1  0.138600  0.888700  0.781300  1
  H  H535  1  0.900300  0.118000  0.265800  1
  H  H536  1  0.265800  0.900300  0.118000  1
  H  H537  1  0.118000  0.265800  0.900300  1
  H  H538  1  0.734200  0.099700  0.882000  1
  H  H539  1  0.882000  0.734200  0.099700  1
  H  H540  1  0.099700  0.882000  0.734200  1
  H  H541  1  0.804700  0.147400  0.419000  1
  H  H542  1  0.419000  0.804700  0.147400  1
  H  H543  1  0.147400  0.419000  0.804700  1
  H  H544  1  0.581000  0.195300  0.852600  1
  H  H545  1  0.852600  0.581000  0.195300  1
  H  H546  1  0.195300  0.852600  0.581000  1
  H  H547  1  0.779900  0.108000  0.380900  1
  H  H548  1  0.380900  0.779900  0.108000  1
  H  H549  1  0.108000  0.380900  0.779900  1
  H  H550  1  0.619100  0.220100  0.892000  1
  H  H551  1  0.892000  0.619100  0.220100  1
  H  H552  1  0.220100  0.892000  0.619100  1
  H  H553  1  0.756200  0.220400  0.369600  1
  H  H554  1  0.369600  0.756200  0.220400  1
  H  H555  1  0.220400  0.369600  0.756200  1
  H  H556  1  0.630400  0.243800  0.779600  1
  H  H557  1  0.779600  0.630400  0.243800  1
  H  H558  1  0.243800  0.779600  0.630400  1
  H  H559  1  0.720200  0.182200  0.409900  1
  H  H560  1  0.409900  0.720200  0.182200  1
  H  H561  1  0.182200  0.409900  0.720200  1
  H  H562  1  0.590100  0.279800  0.817800  1
  H  H563  1  0.817800  0.590100  0.279800  1
  H  H564  1  0.279800  0.817800  0.590100  1
  H  H565  1  0.724200  0.174700  0.346500  1
  H  H566  1  0.346500  0.724200  0.174700  1
  H  H567  1  0.174700  0.346500  0.724200  1
  H  H568  1  0.653500  0.275800  0.825300  1
  H  H569  1  0.825300  0.653500  0.275800  1
  H  H570  1  0.275800  0.825300  0.653500  1
  H  H571  1  0.529200  0.103600  0.108600  1.0
  H  H572  1  0.108600  0.529200  0.103600  1.0
  H  H573  1  0.103600  0.108600  0.529200  1.0
  H  H574  1  0.891400  0.470800  0.896400  1.0
  H  H575  1  0.896400  0.891400  0.470800  1.0
  H  H576  1  0.470800  0.896400  0.891400  1.0
  H  H577  1  0.540000  0.028900  0.044400  1.0
  H  H578  1  0.044400  0.540000  0.028900  1.0
  H  H579  1  0.028900  0.044400  0.540000  1.0
  H  H580  1  0.955600  0.460000  0.971100  1.0
  H  H581  1  0.971100  0.955600  0.460000  1.0
  H  H582  1  0.460000  0.971100  0.955600  1.0
  H  H583  1  0.667100  0.039400  0.864500  1.0
  H  H584  1  0.864500  0.667100  0.039400  1.0
  H  H585  1  0.039400  0.864500  0.667100  1.0
  H  H586  1  0.135500  0.332900  0.960600  1.0
  H  H587  1  0.960600  0.135500  0.332900  1.0
  H  H588  1  0.332900  0.960600  0.135500  1.0
  H  H589  1  0.640900  0.952000  0.858100  1.0
  H  H590  1  0.858100  0.640900  0.952000  1.0
  H  H591  1  0.952000  0.858100  0.640900  1.0
  H  H592  1  0.141900  0.359100  0.048000  1.0
  H  H593  1  0.048000  0.141900  0.359100  1.0
  H  H594  1  0.359100  0.048000  0.141900  1.0
  H  H595  1  0.583000  0.912900  0.926000  1.0
  H  H596  1  0.926000  0.583000  0.912900  1.0
  H  H597  1  0.912900  0.926000  0.583000  1.0
  H  H598  1  0.074000  0.417000  0.087100  1.0
  H  H599  1  0.087100  0.074000  0.417000  1.0
  H  H600  1  0.417000  0.087100  0.074000  1.0
  H  H601  1  0.551500  0.961300  0.000600  1.0
  H  H602  1  0.000600  0.551500  0.961300  1.0
  H  H603  1  0.961300  0.000600  0.551500  1.0
  H  H604  1  0.999400  0.448500  0.038700  1.0
  H  H605  1  0.038700  0.999400  0.448500  1.0
  H  H606  1  0.448500  0.038700  0.999400  1.0
  H  H607  1  0.721000  0.187000  0.093200  1.0
  H  H608  1  0.093200  0.721000  0.187000  1.0
  H  H609  1  0.187000  0.093200  0.721000  1.0
  H  H610  1  0.906800  0.279000  0.813000  1.0
  H  H611  1  0.813000  0.906800  0.279000  1.0
  H  H612  1  0.279000  0.813000  0.906800  1.0
  H  H613  1  0.753500  0.292500  0.263000  1.0
  H  H614  1  0.263000  0.753500  0.292500  1.0
  H  H615  1  0.292500  0.263000  0.753500  1.0
  H  H616  1  0.737000  0.246500  0.707500  1.0
  H  H617  1  0.707500  0.737000  0.246500  1.0
  H  H618  1  0.246500  0.707500  0.737000  1.0
  H  H619  1  0.842700  0.298000  0.226800  1.0
  H  H620  1  0.226800  0.842700  0.298000  1.0
  H  H621  1  0.298000  0.226800  0.842700  1.0
  H  H622  1  0.773200  0.157300  0.702000  1.0
  H  H623  1  0.702000  0.773200  0.157300  1.0
  H  H624  1  0.157300  0.702000  0.773200  1.0
  H  H625  1  0.870400  0.260200  0.145100  1.0
  H  H626  1  0.145100  0.870400  0.260200  1.0
  H  H627  1  0.260200  0.145100  0.870400  1.0
  H  H628  1  0.854900  0.129600  0.739800  1.0
  H  H629  1  0.739800  0.854900  0.129600  1.0
  H  H630  1  0.129600  0.739800  0.854900  1.0
  H  H631  1  0.808900  0.216900  0.099600  1.0
  H  H632  1  0.099600  0.808900  0.216900  1.0
  H  H633  1  0.216900  0.099600  0.808900  1.0
  H  H634  1  0.900400  0.191100  0.783100  1.0
  H  H635  1  0.783100  0.900400  0.191100  1.0
  H  H636  1  0.191100  0.783100  0.900400  1.0
  H  H637  1  0.496100  0.180100  0.227800  1.0
  H  H638  1  0.227800  0.496100  0.180100  1.0
  H  H639  1  0.180100  0.227800  0.496100  1.0
  H  H640  1  0.772200  0.503900  0.819900  1.0
  H  H641  1  0.819900  0.772200  0.503900  1.0
  H  H642  1  0.503900  0.819900  0.772200  1.0
  H  H643  1  0.359200  0.025100  0.248500  1.0
  H  H644  1  0.248500  0.359200  0.025100  1.0
  H  H645  1  0.025100  0.248500  0.359200  1.0
  H  H646  1  0.751500  0.640800  0.974900  1.0
  H  H647  1  0.974900  0.751500  0.640800  1.0
  H  H648  1  0.640800  0.974900  0.751500  1.0
  H  H649  1  0.296600  0.085000  0.292300  1.0
  H  H650  1  0.292300  0.296600  0.085000  1.0
  H  H651  1  0.085000  0.292300  0.296600  1.0
  H  H652  1  0.707700  0.703400  0.915000  1.0
  H  H653  1  0.915000  0.707700  0.703400  1.0
  H  H654  1  0.703400  0.915000  0.707700  1.0
  H  H655  1  0.317900  0.173600  0.301800  1.0
  H  H656  1  0.301800  0.317900  0.173600  1.0
  H  H657  1  0.173600  0.301800  0.317900  1.0
  H  H658  1  0.698200  0.682100  0.826400  1.0
  H  H659  1  0.826400  0.698200  0.682100  1.0
  H  H660  1  0.682100  0.826400  0.698200  1.0
  H  H661  1  0.401900  0.202500  0.267500  1.0
  H  H662  1  0.267500  0.401900  0.202500  1.0
  H  H663  1  0.202500  0.267500  0.401900  1.0
  H  H664  1  0.732500  0.598100  0.797500  1.0
  H  H665  1  0.797500  0.732500  0.598100  1.0
  H  H666  1  0.598100  0.797500  0.732500  1.0
  H  H667  1  0.479400  0.057500  0.198200  1.0
  H  H668  1  0.198200  0.479400  0.057500  1.0
  H  H669  1  0.057500  0.198200  0.479400  1.0
  H  H670  1  0.801800  0.520600  0.942500  1.0
  H  H671  1  0.942500  0.801800  0.520600  1.0
  H  H672  1  0.520600  0.942500  0.801800  1.0
  H  H673  1  0.725100  0.370000  0.191400  1.0
  H  H674  1  0.191400  0.725100  0.370000  1.0
  H  H675  1  0.370000  0.191400  0.725100  1.0
  H  H676  1  0.808600  0.274900  0.630000  1.0
  H  H677  1  0.630000  0.808600  0.274900  1.0
  H  H678  1  0.274900  0.630000  0.808600  1.0
  H  H679  1  0.732800  0.454600  0.157600  1.0
  H  H680  1  0.157600  0.732800  0.454600  1.0
  H  H681  1  0.454600  0.157600  0.732800  1.0
  H  H682  1  0.842400  0.267200  0.545400  1.0
  H  H683  1  0.545400  0.842400  0.267200  1.0
  H  H684  1  0.267200  0.545400  0.842400  1.0
  H  H685  1  0.670100  0.459300  0.143900  1.0
  H  H686  1  0.143900  0.670100  0.459300  1.0
  H  H687  1  0.459300  0.143900  0.670100  1.0
  H  H688  1  0.856100  0.329900  0.540700  1.0
  H  H689  1  0.540700  0.856100  0.329900  1.0
  H  H690  1  0.329900  0.540700  0.856100  1.0
  H  H691  1  0.626500  0.433900  0.347900  1.0
  H  H692  1  0.347900  0.626500  0.433900  1.0
  H  H693  1  0.433900  0.347900  0.626500  1.0
  H  H694  1  0.652100  0.373500  0.566100  1.0
  H  H695  1  0.566100  0.652100  0.373500  1.0
  H  H696  1  0.373500  0.566100  0.652100  1.0
  H  H697  1  0.639900  0.526100  0.347000  1.0
  H  H698  1  0.347000  0.639900  0.526100  1.0
  H  H699  1  0.526100  0.347000  0.639900  1.0
  H  H700  1  0.653000  0.360100  0.473900  1.0
  H  H701  1  0.473900  0.653000  0.360100  1.0
  H  H702  1  0.360100  0.473900  0.653000  1.0
  H  H703  1  0.678700  0.571000  0.269300  1.0
  H  H704  1  0.269300  0.678700  0.571000  1.0
  H  H705  1  0.571000  0.269300  0.678700  1.0
  H  H706  1  0.730700  0.321300  0.429000  1.0
  H  H707  1  0.429000  0.730700  0.321300  1.0
  H  H708  1  0.321300  0.429000  0.730700  1.0
  H  H709  1  0.704300  0.523700  0.192600  1.0
  H  H710  1  0.192600  0.704300  0.523700  1.0
  H  H711  1  0.523700  0.192600  0.704300  1.0
  H  H712  1  0.807400  0.295700  0.476300  1.0
  H  H713  1  0.476300  0.807400  0.295700  1.0
  H  H714  1  0.295700  0.476300  0.807400  1.0
  H  H715  1  0.561500  0.280700  0.127200  1.0
  H  H716  1  0.127200  0.561500  0.280700  1.0
  H  H717  1  0.280700  0.127200  0.561500  1.0
  H  H718  1  0.872800  0.438500  0.719300  1.0
  H  H719  1  0.719300  0.872800  0.438500  1.0
  H  H720  1  0.438500  0.719300  0.872800  1.0
  H  H721  1  0.525400  0.182900  0.955100  1.0
  H  H722  1  0.955100  0.525400  0.182900  1.0
  H  H723  1  0.182900  0.955100  0.525400  1.0
  H  H724  1  0.044900  0.474600  0.817100  1.0
  H  H725  1  0.817100  0.044900  0.474600  1.0
  H  H726  1  0.474600  0.817100  0.044900  1.0
  H  H727  1  0.437900  0.173700  0.994500  1.0
  H  H728  1  0.994500  0.437900  0.173700  1.0
  H  H729  1  0.173700  0.994500  0.437900  1.0
  H  H730  1  0.005500  0.562100  0.826300  1.0
  H  H731  1  0.826300  0.005500  0.562100  1.0
  H  H732  1  0.562100  0.826300  0.005500  1.0
  H  H733  1  0.412400  0.208000  0.078400  1.0
  H  H734  1  0.078400  0.412400  0.208000  1.0
  H  H735  1  0.208000  0.078400  0.412400  1.0
  H  H736  1  0.921600  0.587600  0.792000  1.0
  H  H737  1  0.792000  0.921600  0.587600  1.0
  H  H738  1  0.587600  0.792000  0.921600  1.0
  H  H739  1  0.474500  0.251400  0.122900  1.0
  H  H740  1  0.122900  0.474500  0.251400  1.0
  H  H741  1  0.251400  0.122900  0.474500  1.0
  H  H742  1  0.877100  0.525500  0.748600  1.0
  H  H743  1  0.748600  0.877100  0.525500  1.0
  H  H744  1  0.525500  0.748600  0.877100  1.0
  H  H745  1  0.878500  0.499800  0.022800  1.0
  H  H746  1  0.022800  0.878500  0.499800  1.0
  H  H747  1  0.499800  0.022800  0.878500  1.0
  H  H748  1  0.977200  0.121500  0.500200  1.0
  H  H749  1  0.500200  0.977200  0.121500  1.0
  H  H750  1  0.121500  0.500200  0.977200  1.0
  H  H751  1  0.914400  0.506600  0.106100  1.0
  H  H752  1  0.106100  0.914400  0.506600  1.0
  H  H753  1  0.506600  0.106100  0.914400  1.0
  H  H754  1  0.893900  0.085600  0.493400  1.0
  H  H755  1  0.493400  0.893900  0.085600  1.0
  H  H756  1  0.085600  0.493400  0.893900  1.0
  H  H757  1  0.883500  0.453600  0.182200  1.0
  H  H758  1  0.182200  0.883500  0.453600  1.0
  H  H759  1  0.453600  0.182200  0.883500  1.0
  H  H760  1  0.817800  0.116500  0.546400  1.0
  H  H761  1  0.546400  0.817800  0.116500  1.0
  H  H762  1  0.116500  0.546400  0.817800  1.0
  H  H763  1  0.816600  0.393800  0.175100  1.0
  H  H764  1  0.175100  0.816600  0.393800  1.0
  H  H765  1  0.393800  0.175100  0.816600  1.0
  H  H766  1  0.824900  0.183400  0.606200  1.0
  H  H767  1  0.606200  0.824900  0.183400  1.0
  H  H768  1  0.183400  0.606200  0.824900  1.0
  H  H769  1  0.798900  0.416100  0.993200  1.0
  H  H770  1  0.993200  0.798900  0.416100  1.0
  H  H771  1  0.416100  0.993200  0.798900  1.0
  H  H772  1  0.006800  0.201100  0.583900  1.0
  H  H773  1  0.583900  0.006800  0.201100  1.0
  H  H774  1  0.201100  0.583900  0.006800  1.0
  H  H775  1  0.582500  0.149900  0.386100  1.0
  H  H776  1  0.386100  0.582500  0.149900  1.0
  H  H777  1  0.149900  0.386100  0.582500  1.0
  H  H778  1  0.613900  0.417500  0.850100  1.0
  H  H779  1  0.850100  0.613900  0.417500  1.0
  H  H780  1  0.417500  0.850100  0.613900  1.0
  H  H781  1  0.518900  0.212500  0.374200  1.0
  H  H782  1  0.374200  0.518900  0.212500  1.0
  H  H783  1  0.212500  0.374200  0.518900  1.0
  H  H784  1  0.625800  0.481100  0.787500  1.0
  H  H785  1  0.787500  0.625800  0.481100  1.0
  H  H786  1  0.481100  0.787500  0.625800  1.0
  H  H787  1  0.495400  0.337000  0.191300  1.0
  H  H788  1  0.191300  0.495400  0.337000  1.0
  H  H789  1  0.337000  0.191300  0.495400  1.0
  H  H790  1  0.808700  0.504600  0.663000  1.0
  H  H791  1  0.663000  0.808700  0.504600  1.0
  H  H792  1  0.504600  0.663000  0.808700  1.0
  H  H793  1  0.409100  0.359400  0.231200  1.0
  H  H794  1  0.231200  0.409100  0.359400  1.0
  H  H795  1  0.359400  0.231200  0.409100  1.0
  H  H796  1  0.768800  0.590900  0.640600  1.0
  H  H797  1  0.640600  0.768800  0.590900  1.0
  H  H798  1  0.590900  0.640600  0.768800  1.0
  H  H799  1  0.382200  0.319400  0.316100  1.0
  H  H800  1  0.316100  0.382200  0.319400  1.0
  H  H801  1  0.319400  0.316100  0.382200  1.0
  H  H802  1  0.683900  0.617800  0.680600  1.0
  H  H803  1  0.680600  0.683900  0.617800  1.0
  H  H804  1  0.617800  0.680600  0.683900  1.0
  H  H805  1  0.441400  0.256900  0.361100  1.0
  H  H806  1  0.361100  0.441400  0.256900  1.0
  H  H807  1  0.256900  0.361100  0.441400  1.0
  H  H808  1  0.638900  0.558600  0.743100  1.0
  H  H809  1  0.743100  0.638900  0.558600  1.0
  H  H810  1  0.558600  0.743100  0.638900  1.0
  H  H811  1  0.801500  0.303400  0.899900  1.0
  H  H812  1  0.899900  0.801500  0.303400  1.0
  H  H813  1  0.303400  0.899900  0.801500  1.0
  H  H814  1  0.100100  0.198500  0.696600  1.0
  H  H815  1  0.696600  0.100100  0.198500  1.0
  H  H816  1  0.198500  0.696600  0.100100  1.0
  H  H817  1  0.777400  0.129100  0.028400  1.0
  H  H818  1  0.028400  0.777400  0.129100  1.0
  H  H819  1  0.129100  0.028400  0.777400  1.0
  H  H820  1  0.971600  0.222600  0.870900  1.0
  H  H821  1  0.870900  0.971600  0.222600  1.0
  H  H822  1  0.222600  0.870900  0.971600  1.0
  H  H823  1  0.871600  0.117500  0.016300  1.0
  H  H824  1  0.016300  0.871600  0.117500  1.0
  H  H825  1  0.117500  0.016300  0.871600  1.0
  H  H826  1  0.983700  0.128400  0.882500  1.0
  H  H827  1  0.882500  0.983700  0.128400  1.0
  H  H828  1  0.128400  0.882500  0.983700  1.0
  H  H829  1  0.919700  0.181000  0.962000  1.0
  H  H830  1  0.962000  0.919700  0.181000  1.0
  H  H831  1  0.181000  0.962000  0.919700  1.0
  H  H832  1  0.038000  0.080300  0.819000  1.0
  H  H833  1  0.819000  0.038000  0.080300  1.0
  H  H834  1  0.080300  0.819000  0.038000  1.0
  H  H835  1  0.873700  0.256300  0.919800  1.0
  H  H836  1  0.919800  0.873700  0.256300  1.0
  H  H837  1  0.256300  0.919800  0.873700  1.0
  H  H838  1  0.080200  0.126300  0.743700  1.0
  H  H839  1  0.743700  0.080200  0.126300  1.0
  H  H840  1  0.126300  0.743700  0.080200  1.0
  H  H841  1  0.557700  0.318300  0.974000  1.0
  H  H842  1  0.974000  0.557700  0.318300  1.0
  H  H843  1  0.318300  0.974000  0.557700  1.0
  H  H844  1  0.026000  0.442300  0.681700  1.0
  H  H845  1  0.681700  0.026000  0.442300  1.0
  H  H846  1  0.442300  0.681700  0.026000  1.0
  H  H847  1  0.404100  0.439800  0.882200  1.0
  H  H848  1  0.882200  0.404100  0.439800  1.0
  H  H849  1  0.439800  0.882200  0.404100  1.0
  H  H850  1  0.117800  0.595900  0.560200  1.0
  H  H851  1  0.560200  0.117800  0.595900  1.0
  H  H852  1  0.595900  0.560200  0.117800  1.0
  H  H853  1  0.342400  0.402800  0.947900  1.0
  H  H854  1  0.947900  0.342400  0.402800  1.0
  H  H855  1  0.402800  0.947900  0.342400  1.0
  H  H856  1  0.052100  0.657600  0.597200  1.0
  H  H857  1  0.597200  0.052100  0.657600  1.0
  H  H858  1  0.657600  0.597200  0.052100  1.0
  H  H859  1  0.372700  0.338300  0.014200  1.0
  H  H860  1  0.014200  0.372700  0.338300  1.0
  H  H861  1  0.338300  0.014200  0.372700  1.0
  H  H862  1  0.985800  0.627300  0.661700  1.0
  H  H863  1  0.661700  0.985800  0.627300  1.0
  H  H864  1  0.627300  0.661700  0.985800  1.0
  H  H865  1  0.464700  0.310600  0.014700  1.0
  H  H866  1  0.014700  0.464700  0.310600  1.0
  H  H867  1  0.310600  0.014700  0.464700  1.0
  H  H868  1  0.985300  0.535300  0.689400  1.0
  H  H869  1  0.689400  0.985300  0.535300  1.0
  H  H870  1  0.535300  0.689400  0.985300  1.0
  H  H871  1  0.527500  0.409600  0.855000  1.0
  H  H872  1  0.855000  0.527500  0.409600  1.0
  H  H873  1  0.409600  0.855000  0.527500  1.0
  H  H874  1  0.145000  0.472500  0.590400  1.0
  H  H875  1  0.590400  0.145000  0.472500  1.0
  H  H876  1  0.472500  0.590400  0.145000  1.0
  H  H877  1  0.732700  0.021100  0.971700  1.0
  H  H878  1  0.971700  0.732700  0.021100  1.0
  H  H879  1  0.021100  0.971700  0.732700  1.0
  H  H880  1  0.028300  0.267300  0.978900  1.0
  H  H881  1  0.978900  0.028300  0.267300  1.0
  H  H882  1  0.267300  0.978900  0.028300  1.0
  H  H883  1  0.706500  0.973900  0.121600  1.0
  H  H884  1  0.121600  0.706500  0.973900  1.0
  H  H885  1  0.973900  0.121600  0.706500  1.0
  H  H886  1  0.878400  0.293500  0.026100  1.0
  H  H887  1  0.026100  0.878400  0.293500  1.0
  H  H888  1  0.293500  0.026100  0.878400  1.0
  H  H889  1  0.666600  0.935500  0.097900  1.0
  H  H890  1  0.097900  0.666600  0.935500  1.0
  H  H891  1  0.935500  0.097900  0.666600  1.0
  H  H892  1  0.902100  0.333400  0.064500  1.0
  H  H893  1  0.064500  0.902100  0.333400  1.0
  H  H894  1  0.333400  0.064500  0.902100  1.0
  H  H895  1  0.650500  0.998800  0.099600  1.0
  H  H896  1  0.099600  0.650500  0.998800  1.0
  H  H897  1  0.998800  0.099600  0.650500  1.0
  H  H898  1  0.900400  0.349500  0.001200  1.0
  H  H899  1  0.001200  0.900400  0.349500  1.0
  H  H900  1  0.349500  0.001200  0.900400  1.0
  H  H901  1  0.745500  0.931300  0.986600  1.0
  H  H902  1  0.986600  0.745500  0.931300  1.0
  H  H903  1  0.931300  0.986600  0.745500  1.0
  H  H904  1  0.013400  0.254500  0.068700  1.0
  H  H905  1  0.068700  0.013400  0.254500  1.0
  H  H906  1  0.254500  0.068700  0.013400  1.0
  H  H907  1  0.681500  0.926200  0.991800  1.0
  H  H908  1  0.991800  0.681500  0.926200  1.0
  H  H909  1  0.926200  0.991800  0.681500  1.0
  H  H910  1  0.008200  0.318500  0.073800  1.0
  H  H911  1  0.073800  0.008200  0.318500  1.0
  H  H912  1  0.318500  0.073800  0.008200  1.0
  H  H913  1  0.718200  0.897600  0.037400  1.0
  H  H914  1  0.037400  0.718200  0.897600  1.0
  H  H915  1  0.897600  0.037400  0.718200  1.0
  H  H916  1  0.962600  0.281800  0.102400  1.0
  H  H917  1  0.102400  0.962600  0.281800  1.0
  H  H918  1  0.281800  0.102400  0.962600  1.0
  N  N919  1  0.834100  0.155200  0.341900  1
  N  N920  1  0.341900  0.834100  0.155200  1
  N  N921  1  0.155200  0.341900  0.834100  1
  N  N922  1  0.658100  0.165900  0.844800  1
  N  N923  1  0.844800  0.658100  0.165900  1
  N  N924  1  0.165900  0.844800  0.658100  1
  N  N925  1  0.562600  0.110100  0.097200  1.0
  N  N926  1  0.097200  0.562600  0.110100  1.0
  N  N927  1  0.110100  0.097200  0.562600  1.0
  N  N928  1  0.902800  0.437400  0.889900  1.0
  N  N929  1  0.889900  0.902800  0.437400  1.0
  N  N930  1  0.437400  0.889900  0.902800  1.0
  N  N931  1  0.582000  0.089700  0.046300  1.0
  N  N932  1  0.046300  0.582000  0.089700  1.0
  N  N933  1  0.089700  0.046300  0.582000  1.0
  N  N934  1  0.953700  0.418000  0.910300  1.0
  N  N935  1  0.910300  0.953700  0.418000  1.0
  N  N936  1  0.418000  0.910300  0.953700  1.0
  N  N937  1  0.637900  0.152900  0.106300  1.0
  N  N938  1  0.106300  0.637900  0.152900  1.0
  N  N939  1  0.152900  0.106300  0.637900  1.0
  N  N940  1  0.893700  0.362100  0.847100  1.0
  N  N941  1  0.847100  0.893700  0.362100  1.0
  N  N942  1  0.362100  0.847100  0.893700  1.0
  N  N943  1  0.656800  0.183900  0.139200  1.0
  N  N944  1  0.139200  0.656800  0.183900  1.0
  N  N945  1  0.183900  0.139200  0.656800  1.0
  N  N946  1  0.860800  0.343200  0.816100  1.0
  N  N947  1  0.816100  0.860800  0.343200  1.0
  N  N948  1  0.343200  0.816100  0.860800  1.0
  N  N949  1  0.570300  0.153200  0.182000  1.0
  N  N950  1  0.182000  0.570300  0.153200  1.0
  N  N951  1  0.153200  0.182000  0.570300  1.0
  N  N952  1  0.818000  0.429700  0.846800  1.0
  N  N953  1  0.846800  0.818000  0.429700  1.0
  N  N954  1  0.429700  0.846800  0.818000  1.0
  N  N955  1  0.520500  0.126900  0.185200  1.0
  N  N956  1  0.185200  0.520500  0.126900  1.0
  N  N957  1  0.126900  0.185200  0.520500  1.0
  N  N958  1  0.814800  0.479500  0.873100  1.0
  N  N959  1  0.873100  0.814800  0.479500  1.0
  N  N960  1  0.479500  0.873100  0.814800  1.0
  N  N961  1  0.718300  0.371600  0.116200  1.0
  N  N962  1  0.116200  0.718300  0.371600  1.0
  N  N963  1  0.371600  0.116200  0.718300  1.0
  N  N964  1  0.883800  0.281700  0.628400  1.0
  N  N965  1  0.628400  0.883800  0.281700  1.0
  N  N966  1  0.281700  0.628400  0.883800  1.0
  N  N967  1  0.697400  0.382300  0.169600  1.0
  N  N968  1  0.169600  0.697400  0.382300  1.0
  N  N969  1  0.382300  0.169600  0.697400  1.0
  N  N970  1  0.830400  0.302600  0.617700  1.0
  N  N971  1  0.617700  0.830400  0.302600  1.0
  N  N972  1  0.302600  0.617700  0.830400  1.0
  N  N973  1  0.644700  0.323300  0.111500  1.0
  N  N974  1  0.111500  0.644700  0.323300  1.0
  N  N975  1  0.323300  0.111500  0.644700  1.0
  N  N976  1  0.888500  0.355300  0.676700  1.0
  N  N977  1  0.676700  0.888500  0.355300  1.0
  N  N978  1  0.355300  0.676700  0.888500  1.0
  N  N979  1  0.618800  0.294000  0.073100  1.0
  N  N980  1  0.073100  0.618800  0.294000  1.0
  N  N981  1  0.294000  0.073100  0.618800  1.0
  N  N982  1  0.926900  0.381200  0.706000  1.0
  N  N983  1  0.706000  0.926900  0.381200  1.0
  N  N984  1  0.381200  0.706000  0.926900  1.0
  N  N985  1  0.719200  0.334400  0.038500  1.0
  N  N986  1  0.038500  0.719200  0.334400  1.0
  N  N987  1  0.334400  0.038500  0.719200  1.0
  N  N988  1  0.961500  0.280800  0.665600  1.0
  N  N989  1  0.665600  0.961500  0.280800  1.0
  N  N990  1  0.280800  0.665600  0.961500  1.0
  N  N991  1  0.763000  0.357700  0.034700  1.0
  N  N992  1  0.034700  0.763000  0.357700  1.0
  N  N993  1  0.357700  0.034700  0.763000  1.0
  N  N994  1  0.965300  0.237000  0.642300  1.0
  N  N995  1  0.642300  0.965300  0.237000  1.0
  N  N996  1  0.237000  0.642300  0.965300  1.0
  N  N997  1  0.593700  0.150900  0.351700  1.0
  N  N998  1  0.351700  0.593700  0.150900  1.0
  N  N999  1  0.150900  0.351700  0.593700  1.0
  N  N1000  1  0.648300  0.406300  0.849100  1.0
  N  N1001  1  0.849100  0.648300  0.406300  1.0
  N  N1002  1  0.406300  0.849100  0.648300  1.0
  N  N1003  1  0.571800  0.187700  0.314900  1.0
  N  N1004  1  0.314900  0.571800  0.187700  1.0
  N  N1005  1  0.187700  0.314900  0.571800  1.0
  N  N1006  1  0.685100  0.428200  0.812300  1.0
  N  N1007  1  0.812300  0.685100  0.428200  1.0
  N  N1008  1  0.428200  0.812300  0.685100  1.0
  N  N1009  1  0.657000  0.118100  0.284300  1.0
  N  N1010  1  0.284300  0.657000  0.118100  1.0
  N  N1011  1  0.118100  0.284300  0.657000  1.0
  N  N1012  1  0.715700  0.343000  0.881900  1.0
  N  N1013  1  0.881900  0.715700  0.343000  1.0
  N  N1014  1  0.343000  0.881900  0.715700  1.0
  N  N1015  1  0.728900  0.299900  0.914200  1.0
  N  N1016  1  0.914200  0.728900  0.299900  1.0
  N  N1017  1  0.299900  0.914200  0.728900  1.0
  N  N1018  1  0.085800  0.271100  0.700100  1.0
  N  N1019  1  0.700100  0.085800  0.271100  1.0
  N  N1020  1  0.271100  0.700100  0.085800  1.0
  N  N1021  1  0.627400  0.343200  0.922300  1.0
  N  N1022  1  0.922300  0.627400  0.343200  1.0
  N  N1023  1  0.343200  0.922300  0.627400  1.0
  N  N1024  1  0.077700  0.372600  0.656800  1.0
  N  N1025  1  0.656800  0.077700  0.372600  1.0
  N  N1026  1  0.372600  0.656800  0.077700  1.0
  N  N1027  1  0.578000  0.364500  0.913800  1.0
  N  N1028  1  0.913800  0.578000  0.364500  1.0
  N  N1029  1  0.364500  0.913800  0.578000  1.0
  N  N1030  1  0.086200  0.422000  0.635500  1.0
  N  N1031  1  0.635500  0.086200  0.422000  1.0
  N  N1032  1  0.422000  0.635500  0.086200  1.0
  N  N1033  1  0.705900  0.980300  0.042900  1.0
  N  N1034  1  0.042900  0.705900  0.980300  1.0
  N  N1035  1  0.980300  0.042900  0.705900  1.0
  N  N1036  1  0.957100  0.294100  0.019700  1.0
  N  N1037  1  0.019700  0.957100  0.294100  1.0
  N  N1038  1  0.294100  0.019700  0.957100  1.0
  O  O1039  1  0.634700  0.104800  0.938300  1.0
  O  O1040  1  0.938300  0.634700  0.104800  1.0
  O  O1041  1  0.104800  0.938300  0.634700  1.0
  O  O1042  1  0.061700  0.365300  0.895200  1.0
  O  O1043  1  0.895200  0.061700  0.365300  1.0
  O  O1044  1  0.365300  0.895200  0.061700  1.0
  O  O1045  1  0.675200  0.253700  0.227100  1.0
  O  O1046  1  0.227100  0.675200  0.253700  1.0
  O  O1047  1  0.253700  0.227100  0.675200  1.0
  O  O1048  1  0.772900  0.324800  0.746300  1.0
  O  O1049  1  0.746300  0.772900  0.324800  1.0
  O  O1050  1  0.324800  0.746300  0.772900  1.0
  O  O1051  1  0.450800  0.043100  0.209400  1.0
  O  O1052  1  0.209400  0.450800  0.043100  1.0
  O  O1053  1  0.043100  0.209400  0.450800  1.0
  O  O1054  1  0.790600  0.549200  0.956900  1.0
  O  O1055  1  0.956900  0.790600  0.549200  1.0
  O  O1056  1  0.549200  0.956900  0.790600  1.0
  O  O1057  1  0.641100  0.373100  0.273500  1.0
  O  O1058  1  0.273500  0.641100  0.373100  1.0
  O  O1059  1  0.373100  0.273500  0.641100  1.0
  O  O1060  1  0.726500  0.358900  0.626900  1.0
  O  O1061  1  0.626900  0.726500  0.358900  1.0
  O  O1062  1  0.358900  0.626900  0.726500  1.0
  O  O1063  1  0.606300  0.223500  0.990800  1.0
  O  O1064  1  0.990800  0.606300  0.223500  1.0
  O  O1065  1  0.223500  0.990800  0.606300  1.0
  O  O1066  1  0.009200  0.393700  0.776500  1.0
  O  O1067  1  0.776500  0.009200  0.393700  1.0
  O  O1068  1  0.393700  0.776500  0.009200  1.0
  O  O1069  1  0.822700  0.437400  0.997300  1.0
  O  O1070  1  0.997300  0.822700  0.437400  1.0
  O  O1071  1  0.437400  0.997300  0.822700  1.0
  O  O1072  1  0.002700  0.177300  0.562600  1.0
  O  O1073  1  0.562600  0.002700  0.177300  1.0
  O  O1074  1  0.177300  0.562600  0.002700  1.0
  O  O1075  1  0.566700  0.275300  0.225800  1.0
  O  O1076  1  0.225800  0.566700  0.275300  1.0
  O  O1077  1  0.275300  0.225800  0.566700  1.0
  O  O1078  1  0.774200  0.433300  0.724700  1.0
  O  O1079  1  0.724700  0.774200  0.433300  1.0
  O  O1080  1  0.433300  0.724700  0.774200  1.0
  O  O1081  1  0.714700  0.206100  0.984700  1.0
  O  O1082  1  0.984700  0.714700  0.206100  1.0
  O  O1083  1  0.206100  0.984700  0.714700  1.0
  O  O1084  1  0.015300  0.285300  0.793900  1.0
  O  O1085  1  0.793900  0.015300  0.285300  1.0
  O  O1086  1  0.285300  0.793900  0.015300  1.0
  O  O1087  1  0.494600  0.420200  0.858700  1.0
  O  O1088  1  0.858700  0.494600  0.420200  1.0
  O  O1089  1  0.420200  0.858700  0.494600  1.0
  O  O1090  1  0.141300  0.505400  0.579800  1.0
  O  O1091  1  0.579800  0.141300  0.505400  1.0
  O  O1092  1  0.505400  0.579800  0.141300  1.0
  O  O1093  1  0.708600  0.065400  0.030400  1.0
  O  O1094  1  0.030400  0.708600  0.065400  1.0
  O  O1095  1  0.065400  0.030400  0.708600  1.0
  O  O1096  1  0.969600  0.291400  0.934600  1.0
  O  O1097  1  0.934600  0.969600  0.291400  1.0
  O  O1098  1  0.291400  0.934600  0.969600  1.0
  O  O1099  1  0.563300  0.408900  0.185300  1.0
  O  O1100  1  0.185300  0.563300  0.408900  1.0
  O  O1101  1  0.408900  0.185300  0.563300  1.0
  O  O1102  1  0.814700  0.436700  0.591100  1.0
  O  O1103  1  0.591100  0.814700  0.436700  1.0
  O  O1104  1  0.436700  0.591100  0.814700  1.0
