
#######################################################################
#
#                 Cambridge Crystallographic Data Centre
#                                CCDC 
#
#######################################################################
#
# If this CIF has been generated from an entry in the Cambridge 
# Structural Database, then it will include bibliographic, chemical, 
# crystal, experimental, refinement or atomic coordinate data resulting 
# from the CCDC's data processing and validation procedures.
#
#######################################################################

data_QANCEN
_chemical_formula_moiety         
'6(C6 H16 N1 1+),C414 H360 Cd24 N114 O66 6-,C3 H7 O1,H2 O1'
_chemical_name_systematic        
'hexakis[(Triethylammonium) bis(\m~3~-tris(2-hydroxybenzylidene)triaminoguanidine)-(\m~3~-4-(2-hydroxybenzylamino)-3-(2-hydroxybenzylidene-hydrazino)-5-(2-hydroxyphenyl)-1,2,4-triazole)-aqua-(dimethylformamide-O)-tetracadmium] dimethylformamide solvate hydrate'
_symmetry_cell_setting           rhombohedral
_symmetry_space_group_name_H-M   'R -3'
_symmetry_Int_Tables_number      148
_space_group_name_Hall           '-R 3'
loop_
_symmetry_equiv_pos_site_id
_symmetry_equiv_pos_as_xyz
1 x,y,z
2 -y,x-y,z
3 -x+y,-x,z
4 2/3+x,1/3+y,1/3+z
5 2/3-y,1/3+x-y,1/3+z
6 2/3-x+y,1/3-x,1/3+z
7 1/3+x,2/3+y,2/3+z
8 2/3+y,1/3-x+y,1/3-z
9 2/3+x-y,1/3+x,1/3-z
10 -x,-y,-z
11 y,-x+y,-z
12 x-y,x,-z
13 1/3-x,2/3-y,2/3-z
14 1/3+y,2/3-x+y,2/3-z
15 1/3+x-y,2/3+x,2/3-z
16 2/3-x,1/3-y,1/3-z
17 1/3-y,2/3+x-y,2/3+z
18 1/3-x+y,2/3-x,2/3+z
_cell_length_a                   33.838(7)
_cell_length_b                   33.838(7)
_cell_length_c                   46.232(11)
_cell_angle_alpha                90
_cell_angle_beta                 90
_cell_angle_gamma                120.00
_cell_volume                     45844
_exptl_crystal_colour            orange
_exptl_crystal_description       prism
_cell_formula_units_Z            3
loop_
_atom_site_label
_atom_site_type_symbol
_atom_site_fract_x
_atom_site_fract_y
_atom_site_fract_z
N20 N 0.7237(8) 0.7685(8) 0.1104(6)
H59 H 0.7480 0.7635 0.1135
C70 C 0.7225(10) 0.7943(10) 0.1373(7)
H60 H 0.6976 0.8015 0.1359
H61 H 0.7519 0.8231 0.1397
C71 C 0.7142(9) 0.7616(9) 0.1629(6)
H62 H 0.6814 0.7405 0.1650
H63 H 0.7262 0.7794 0.1807
H64 H 0.7298 0.7443 0.1591
C72 C 0.7366(8) 0.7976(8) 0.0837(6)
H65 H 0.7158 0.8101 0.0816
H66 H 0.7322 0.7782 0.0666
C73 C 0.7864(9) 0.8377(9) 0.0838(6)
H67 H 0.7875 0.8644 0.0928
H68 H 0.7976 0.8451 0.0638
H69 H 0.8056 0.8289 0.0947
C74 C 0.6847(10) 0.7235(10) 0.1064(7)
H70 H 0.6810 0.7047 0.1237
H71 H 0.6903 0.7087 0.0896
C75 C 0.6425(11) 0.7248(11) 0.1015(8)
H72 H 0.6408 0.7458 0.1154
H73 H 0.6161 0.6942 0.1041
H74 H 0.6424 0.7353 0.0818
Cd1 Cd 0.60437(6) 0.78294(6) 0.01162(5)
Cd2 Cd 0.71723(6) 0.92417(6) -0.06214(4)
Cd3 Cd 0.68417(6) 0.99138(7) -0.02180(5)
Cd4 Cd 0.57240(7) 0.85090(7) 0.05242(5)
C1 C 0.6374(16) 0.8227(18) -0.0459(7)
N1 N 0.6393(8) 0.8261(8) -0.0767(8)
H1 H 0.6154 0.8052 -0.0862
N2 N 0.6760(10) 0.8597(9) -0.0940(6)
C2 C 0.6873(8) 0.8551(9) -0.1195(7)
H2 H 0.6689 0.8267 -0.1289
C3 C 0.7251(5) 0.8887(7) -0.1345(4)
C4 C 0.7537(7) 0.9348(7) -0.1288(3)
C5 C 0.7905(6) 0.9610(4) -0.1469(4)
H3 H 0.8101 0.9925 -0.1430
C6 C 0.7987(5) 0.9410(6) -0.1707(4)
H4 H 0.8239 0.9589 -0.1830
C7 C 0.7701(6) 0.8949(6) -0.1764(3)
H5 H 0.7757 0.8813 -0.1927
C8 C 0.7333(5) 0.8688(4) -0.1583(4)
H6 H 0.7137 0.8372 -0.1622
O1 O 0.7421(6) 0.9543(5) -0.1074(4)
N3 N 0.6722(9) 0.8594(10) -0.0343(7)
N4 N 0.6635(8) 0.8541(7) -0.0067(6)
C9 C 0.6957(8) 0.8836(8) 0.0106(5)
H7 H 0.7206 0.9072 0.0004
C10 C 0.7021(7) 0.8884(6) 0.0426(3)
C11 C 0.6674(4) 0.8580(5) 0.0608(4)
C12 C 0.6742(5) 0.8607(4) 0.0906(4)
H8 H 0.6505 0.8400 0.1030
C13 C 0.7156(6) 0.8938(6) 0.1022(3)
H9 H 0.7202 0.8957 0.1225
C14 C 0.7502(4) 0.9242(4) 0.0840(4)
H10 H 0.7785 0.9468 0.0919
C15 C 0.7435(5) 0.9215(5) 0.0542(4)
H11 H 0.7671 0.9422 0.0418
O2 O 0.6232(4) 0.8249(4) 0.0520(3)
N5 N 0.6018(10) 0.7865(11) -0.0315(9)
N6 N 0.5763(9) 0.7590(9) -0.0558(7)
C16 C 0.5368(12) 0.7344(11) -0.0504(7)
H12 H 0.5281 0.7402 -0.0320
C17 C 0.4975(12) 0.6954(8) -0.0670(8)
C18 C 0.5085(8) 0.6774(12) -0.0907(9)
C19 C 0.4741(15) 0.6415(12) -0.1062(5)
H13 H 0.4816 0.6291 -0.1224
C20 C 0.4288(12) 0.6235(7) -0.0981(7)
H14 H 0.4053 0.5990 -0.1087
C21 C 0.4178(8) 0.6415(11) -0.0744(7)
H15 H 0.3868 0.6293 -0.0689
C22 C 0.4521(15) 0.6775(11) -0.0589(5)
H16 H 0.4446 0.6898 -0.0427
O3 O 0.5497(8) 0.6917(7) -0.0989(5)
H17 H 0.5677 0.7135 -0.0883
C23 C 0.6545(9) 0.9552(11) 0.0365(9)
N7 N 0.6496(8) 0.9525(9) 0.0687(9)
N8 N 0.6143(9) 0.9135(7) 0.0831(6)
H18 H 0.6296 0.9041 0.0955
C24 C 0.5944(10) 0.9338(10) 0.1022(7)
H19 H 0.6178 0.9574 0.1150
H20 H 0.5790 0.9472 0.0911
C25 C 0.5619(9) 0.8940(18) 0.1186(8)
C26 C 0.5400(15) 0.8467(19) 0.1174(7)
C27 C 0.5053(13) 0.8206(8) 0.1369(10)
H21 H 0.4904 0.7882 0.1361
C28 C 0.4926(8) 0.8418(16) 0.1576(7)
H22 H 0.4689 0.8240 0.1710
C29 C 0.5145(15) 0.8892(17) 0.1588(7)
H23 H 0.5057 0.9037 0.1730
C30 C 0.5491(13) 0.9153(7) 0.1393(10)
H24 H 0.5641 0.9476 0.1402
O4 O 0.5452(7) 0.8224(7) 0.0959(5)
N9 N 0.6182(7) 0.9150(8) 0.0265(7)
N10 N 0.6235(6) 0.9222(7) -0.0047(6)
C31 C 0.5936(9) 0.8882(9) -0.0209(5)
H25 H 0.5717 0.8626 -0.0102
C32 C 0.5884(8) 0.8830(8) -0.0515(3)
C33 C 0.6219(5) 0.9145(6) -0.0699(5)
C34 C 0.6147(6) 0.9112(6) -0.0996(5)
H26 H 0.6376 0.9327 -0.1122
C35 C 0.5741(8) 0.8765(7) -0.1110(3)
H27 H 0.5692 0.8742 -0.1313
C36 C 0.5406(5) 0.8450(5) -0.0926(5)
H28 H 0.5128 0.8212 -0.1004
C37 C 0.5478(7) 0.8482(6) -0.0629(5)
H29 H 0.5249 0.8267 -0.0504
O5 O 0.6661(4) 0.9494(5) -0.0598(3)
N11 N 0.6885(8) 0.9922(9) 0.0307(8)
N12 N 0.7112(10) 1.0171(11) 0.0518(8)
C38 C 0.6881(12) 0.9923(13) 0.0755(6)
C39 C 0.7032(6) 1.0099(8) 0.1046(4)
C40 C 0.7200(6) 1.0567(8) 0.1062(4)
C41 C 0.7333(5) 1.0789(5) 0.1327(5)
H30 H 0.7448 1.1109 0.1337
C42 C 0.7297(5) 1.0544(7) 0.1576(4)
H31 H 0.7387 1.0696 0.1757
C43 C 0.7129(6) 1.0076(7) 0.1560(4)
H32 H 0.7104 0.9909 0.1731
C44 C 0.6996(5) 0.9854(5) 0.1295(5)
H33 H 0.6881 0.9534 0.1285
O6 O 0.7369(6) 1.0885(6) 0.0858(4)
H34 H 0.7295 1.0762 0.0694
C45 C 0.6076(13) 0.6949(12) 0.0272(7)
N13 N 0.5616(10) 0.6804(7) 0.0321(5)
H35 H 0.5430 0.6534 0.0395
N14 N 0.5470(9) 0.7099(9) 0.0248(6)
C46 C 0.5018(12) 0.6915(11) 0.0285(7)
H36 H 0.4837 0.6610 0.0352
C47 C 0.4814(14) 0.7192(17) 0.0221(5)
C48 C 0.5010(7) 0.7661(15) 0.0186(6)
C49 C 0.4741(15) 0.7845(7) 0.0103(6)
H37 H 0.4875 0.8166 0.0079
C50 C 0.4276(14) 0.7561(14) 0.0056(5)
H38 H 0.4092 0.7687 -0.0001
C51 C 0.4080(7) 0.7092(13) 0.0091(6)
H39 H 0.3763 0.6898 0.0059
C52 C 0.4349(16) 0.6908(8) 0.0174(6)
H40 H 0.4216 0.6587 0.0198
O7 O 0.5441(5) 0.7968(6) 0.0226(4)
N15 N 0.6372(9) 0.7355(8) 0.0198(4)
N16 N 0.7479(7) 1.0668(7) -0.0190(5)
C53 C 0.7830(8) 1.0728(8) -0.0075(5)
H41 H 0.7999 1.1017 0.0016
C54 C 0.8033(4) 1.0458(5) -0.0051(4)
C55 C 0.7861(6) 1.0022(4) -0.0165(3)
C56 C 0.8109(6) 0.9798(5) -0.0139(3)
H42 H 0.7991 0.9499 -0.0217
C57 C 0.8529(4) 1.0009(5) 0.0001(3)
H43 H 0.8698 0.9855 0.0018
C58 C 0.8701(5) 1.0445(4) 0.0114(3)
H44 H 0.8988 1.0589 0.0209
C59 C 0.8453(5) 1.0669(6) 0.0088(3)
H45 H 0.8571 1.0968 0.0166
O8 O 0.7462(5) 0.9838(6) -0.0315(3)
N17 N 0.6631(8) 1.0420(11) -0.0357(7)
N18 N 0.6259(10) 1.0383(11) -0.0479(6)
C60 C 0.5991(10) 0.9981(10) -0.0544(6)
H46 H 0.6077 0.9760 -0.0500
C61 C 0.557(2) 0.9838(11) -0.0678(7)
C62 C 0.545(3) 1.016(2) -0.0741(10)
C63 C 0.5030(11) 1.004(3) -0.0870(10)
H47 H 0.4954 1.0265 -0.0913
C64 C 0.473(2) 0.9583(12) -0.0935(6)
H48 H 0.4447 0.9498 -0.1023
C65 C 0.485(2) 0.925(2) -0.0872(9)
H49 H 0.4643 0.8942 -0.0916
C66 C 0.5270(10) 0.938(3) -0.0743(9)
H50 H 0.5347 0.9153 -0.0700
O9 O 0.5701(7) 1.0658(8) -0.0755(6)
H51 H 0.5968 1.0757 -0.0693
O10 O 0.7738(5) 0.9044(5) -0.0652(4)
C67 C 0.8018(11) 0.9086(11) -0.0834(7)
H52 H 0.8242 0.9368 -0.0915
N19 N 0.7962(8) 0.8668(9) -0.0903(6)
C68 C 0.7651(11) 0.8211(11) -0.0846(7)
H53 H 0.7725 0.8124 -0.0660
H54 H 0.7666 0.8021 -0.1000
H55 H 0.7342 0.8167 -0.0837
C69 C 0.8286(13) 0.8730(13) -0.1151(9)
H56 H 0.8577 0.9012 -0.1122
H57 H 0.8150 0.8747 -0.1335
H58 H 0.8338 0.8470 -0.1156
O11 O 0.5108(7) 0.8672(7) 0.0525(5)
N16K N 0.6811(10) 0.7479(7) 0.0190(5)
Cd3K Cd 0.69279(9) 0.68417(6) 0.02180(5)
N10K N 0.7013(9) 0.6235(6) 0.0047(6)
N9K N 0.7032(11) 0.6182(7) -0.0265(7)
Cd4K Cd 0.72150(10) 0.57240(7) -0.05242(5)
O2K O 0.7983(6) 0.6232(4) -0.0520(3)
Cd1K Cd 0.82143(8) 0.60437(6) -0.01162(5)
N4K N 0.8094(11) 0.6635(8) 0.0067(6)
N3K N 0.8128(13) 0.6722(9) 0.0343(7)
Cd2K Cd 0.79306(8) 0.71723(6) 0.06214(4)
N2K N 0.8163(13) 0.6760(10) 0.0940(6)
N1K N 0.8132(11) 0.6393(8) 0.0767(8)
C1K C 0.8147(24) 0.6374(16) 0.0459(7)
N5K N 0.8153(15) 0.6018(10) 0.0315(9)
N14K N 0.8371(13) 0.5470(9) -0.0248(6)
N13K N 0.8812(12) 0.5616(10) -0.0321(5)
C45K C 0.9127(18) 0.6076(13) -0.0272(7)
N15K N 0.9017(12) 0.6372(9) -0.0198(4)
O7K O 0.7473(8) 0.5441(5) -0.0226(4)
N8K N 0.7008(11) 0.6143(9) -0.0831(6)
N7K N 0.6971(12) 0.6496(8) -0.0687(9)
C23K C 0.6993(14) 0.6545(9) -0.0365(9)
N11K N 0.6963(12) 0.6885(8) -0.0307(8)
O5K O 0.7167(6) 0.6661(4) 0.0598(3)
O1K O 0.7878(8) 0.7421(6) 0.1074(4)
C4K C 0.8189(10) 0.7537(7) 0.1288(3)
C3K C 0.8364(9) 0.7251(5) 0.1345(4)
C2K C 0.8322(12) 0.6873(8) 0.1195(7)
H2K H 0.8422 0.6689 0.1289
C8K C 0.8645(6) 0.7333(5) 0.1583(4)
C7K C 0.8752(8) 0.7701(6) 0.1764(3)
C6K C 0.8577(8) 0.7987(5) 0.1707(4)
C5K C 0.8295(7) 0.7905(6) 0.1469(4)
H3K H 0.8176 0.8101 0.1430
H4K H 0.8650 0.8239 0.1830
H5K H 0.8944 0.7757 0.1927
H6K H 0.8765 0.7137 0.1622
O8K O 0.7624(8) 0.7462(5) 0.0315(3)
N17K N 0.6211(14) 0.6631(8) 0.0357(7)
N18K N 0.5876(15) 0.6259(10) 0.0479(6)
C60K C 0.6010(14) 0.5991(10) 0.0544(6)
H46K H 0.6317 0.6077 0.0500
C61K C 0.5732(23) 0.557(2) 0.0678(7)
C62K C 0.529(4) 0.545(3) 0.0741(10)
C63K C 0.4990(32) 0.5030(11) 0.0870(10)
H47K H 0.4689 0.4954 0.0913
C64K C 0.5147(23) 0.473(2) 0.0935(6)
H48K H 0.4949 0.4447 0.1023
C65K C 0.560(3) 0.485(2) 0.0872(9)
H49K H 0.5701 0.4643 0.0916
C66K C 0.5890(32) 0.5270(10) 0.0743(9)
H50K H 0.6194 0.5347 0.0700
O9K O 0.5043(11) 0.5701(7) 0.0755(6)
H51K H 0.5211 0.5968 0.0693
C55K C 0.7839(7) 0.7861(6) 0.0165(3)
C54K C 0.7575(6) 0.8033(4) 0.0051(4)
C53K C 0.7102(11) 0.7830(8) 0.0075(5)
H41K H 0.6982 0.7999 -0.0016
C59K C 0.7784(8) 0.8453(5) -0.0088(3)
C58K C 0.8256(6) 0.8701(5) -0.0114(3)
C57K C 0.8520(6) 0.8529(4) -0.0001(3)
C56K C 0.8311(8) 0.8109(6) 0.0139(3)
H42K H 0.8492 0.7991 0.0217
H43K H 0.8843 0.8698 -0.0018
H44K H 0.8399 0.8988 -0.0209
H45K H 0.7603 0.8571 -0.0166
O10K O 0.8694(7) 0.7738(5) 0.0652(4)
C67K C 0.8932(16) 0.8018(11) 0.0834(7)
H52K H 0.8874 0.8242 0.0915
N19K N 0.9294(12) 0.7962(8) 0.0903(6)
C68K C 0.9440(16) 0.7651(11) 0.0846(7)
H53K H 0.9601 0.7725 0.0660
H54K H 0.9645 0.7666 0.1000
H55K H 0.9175 0.7342 0.0837
C69K C 0.9556(18) 0.8286(13) 0.1151(9)
H56K H 0.9565 0.8577 0.1122
H57K H 0.9403 0.8150 0.1335
H58K H 0.9868 0.8338 0.1156
C33K C 0.7074(8) 0.6219(5) 0.0699(5)
C32K C 0.7054(11) 0.5884(8) 0.0515(3)
C31K C 0.7054(13) 0.5936(9) 0.0209(5)
H25K H 0.7091 0.5717 0.0102
C37K C 0.6996(9) 0.5478(7) 0.0629(5)
C36K C 0.6956(7) 0.5406(5) 0.0926(5)
C35K C 0.6976(11) 0.5741(8) 0.1110(3)
C34K C 0.7035(8) 0.6147(6) 0.0996(5)
H26K H 0.7049 0.6376 0.1122
H27K H 0.6950 0.5692 0.1313
H28K H 0.6916 0.5128 0.1004
H29K H 0.6982 0.5249 0.0504
N12K N 0.6941(15) 0.7112(10) -0.0518(8)
C38K C 0.6958(18) 0.6881(12) -0.0755(6)
C39K C 0.6933(10) 0.7032(6) -0.1046(4)
C40K C 0.6633(10) 0.7200(6) -0.1062(4)
C41K C 0.6544(7) 0.7333(5) -0.1327(5)
H30K H 0.6339 0.7448 -0.1337
C42K C 0.6753(9) 0.7297(5) -0.1576(4)
H31K H 0.6691 0.7387 -0.1757
C43K C 0.7053(9) 0.7129(6) -0.1560(4)
H32K H 0.7195 0.7104 -0.1731
C44K C 0.7142(7) 0.6996(5) -0.1295(5)
H33K H 0.7347 0.6881 -0.1285
O6K O 0.6484(8) 0.7369(6) -0.0858(4)
H34K H 0.6533 0.7295 -0.0694
H18K H 0.7255 0.6296 -0.0955
C24K C 0.6606(14) 0.5944(10) -0.1022(7)
H19K H 0.6604 0.6178 -0.1150
H20K H 0.6318 0.5790 -0.0911
C25K C 0.6679(20) 0.5619(9) -0.1186(8)
C26K C 0.6933(24) 0.5400(15) -0.1174(7)
C27K C 0.6847(15) 0.5053(13) -0.1369(10)
H21K H 0.7022 0.4904 -0.1361
C28K C 0.6508(18) 0.4926(8) -0.1576(7)
H22K H 0.6449 0.4689 -0.1710
C29K C 0.6253(23) 0.5145(15) -0.1588(7)
H23K H 0.6020 0.5057 -0.1730
C30K C 0.6338(15) 0.5491(13) -0.1393(10)
H24K H 0.6165 0.5641 -0.1402
O4K O 0.7228(10) 0.5452(7) -0.0959(5)
O11K O 0.6436(10) 0.5108(7) -0.0525(5)
C48K C 0.7349(17) 0.5010(7) -0.0186(6)
C47K C 0.7622(22) 0.4814(14) -0.0221(5)
C46K C 0.8103(16) 0.5018(12) -0.0285(7)
H36K H 0.8227 0.4837 -0.0352
C52K C 0.7441(18) 0.4349(16) -0.0174(6)
C51K C 0.6988(15) 0.4080(7) -0.0091(6)
C50K C 0.6715(20) 0.4276(14) -0.0056(5)
C49K C 0.6896(17) 0.4741(15) -0.0103(6)
H37K H 0.6709 0.4875 -0.0079
H38K H 0.6405 0.4092 0.0001
H39K H 0.6865 0.3763 -0.0059
H40K H 0.7629 0.4216 -0.0198
N16A N 0.9332(7) 0.6811(10) -0.0190(5)
Cd3A Cd 1.00862(7) 0.69279(9) -0.02180(5)
N10A N 1.0778(7) 0.7013(9) -0.0047(6)
N9A N 1.0850(8) 0.7032(11) 0.0265(7)
Cd4A Cd 1.14910(7) 0.72150(10) 0.05242(5)
O2A O 1.1751(4) 0.7983(6) 0.0520(3)
Cd1A Cd 1.21706(6) 0.82143(8) 0.01162(5)
N4A N 1.1459(7) 0.8094(11) -0.0067(6)
N3A N 1.1406(10) 0.8128(13) -0.0343(7)
Cd2A Cd 1.07583(6) 0.79306(8) -0.06214(4)
N2A N 1.1403(9) 0.8163(13) -0.0940(6)
N1A N 1.1739(8) 0.8132(11) -0.0767(8)
C1A C 1.1773(18) 0.8147(24) -0.0459(7)
N5A N 1.2135(11) 0.8153(15) -0.0315(9)
N14A N 1.2901(9) 0.8371(13) 0.0248(6)
N13A N 1.3196(7) 0.8812(12) 0.0321(5)
C45A C 1.3051(12) 0.9127(18) 0.0272(7)
N15A N 1.2645(8) 0.9017(12) 0.0198(4)
O7A O 1.2032(6) 0.7473(8) 0.0226(4)
N8A N 1.0865(7) 0.7008(11) 0.0831(6)
N7A N 1.0475(9) 0.6971(12) 0.0687(9)
C23A C 1.0448(11) 0.6993(14) 0.0365(9)
N11A N 1.0078(9) 0.6963(12) 0.0307(8)
O5A O 1.0506(5) 0.7167(6) -0.0598(3)
O1A O 1.0457(5) 0.7878(8) -0.1074(4)
C4A C 1.0652(7) 0.8189(10) -0.1288(3)
C3A C 1.1113(7) 0.8364(9) -0.1345(4)
C2A C 1.1449(9) 0.8322(12) -0.1195(7)
H2A H 1.1733 0.8422 -0.1289
C8A C 1.1312(4) 0.8645(6) -0.1583(4)
C7A C 1.1051(6) 0.8752(8) -0.1764(3)
C6A C 1.0590(6) 0.8577(8) -0.1707(4)
C5A C 1.0390(4) 0.8295(7) -0.1469(4)
H3A H 1.0075 0.8176 -0.1430
H4A H 1.0411 0.8650 -0.1830
H5A H 1.1187 0.8944 -0.1927
H6A H 1.1628 0.8765 -0.1622
O8A O 1.0162(6) 0.7624(8) -0.0315(3)
N17A N 0.9580(11) 0.6211(14) -0.0357(7)
N18A N 0.9617(11) 0.5876(15) -0.0479(6)
C60A C 1.0019(10) 0.6010(14) -0.0544(6)
H46A H 1.0240 0.6317 -0.0500
C61A C 1.0162(11) 0.5732(23) -0.0678(7)
C62A C 0.984(2) 0.529(4) -0.0741(10)
C63A C 0.996(3) 0.4990(32) -0.0870(10)
H47A H 0.9735 0.4689 -0.0913
C64A C 1.0417(12) 0.5147(23) -0.0935(6)
H48A H 1.0502 0.4949 -0.1023
C65A C 1.075(2) 0.560(3) -0.0872(9)
H49A H 1.1058 0.5701 -0.0916
C66A C 1.062(3) 0.5890(32) -0.0743(9)
H50A H 1.0847 0.6194 -0.0700
O9A O 0.9342(8) 0.5043(11) -0.0755(6)
H51A H 0.9243 0.5211 -0.0693
C55A C 0.9978(4) 0.7839(7) -0.0165(3)
C54A C 0.9542(5) 0.7575(6) -0.0051(4)
C53A C 0.9272(8) 0.7102(11) -0.0075(5)
H41A H 0.8983 0.6982 0.0016
C59A C 0.9331(6) 0.7784(8) 0.0088(3)
C58A C 0.9555(4) 0.8256(6) 0.0114(3)
C57A C 0.9991(5) 0.8520(6) 0.0001(3)
C56A C 1.0202(5) 0.8311(8) -0.0139(3)
H42A H 1.0501 0.8492 -0.0217
H43A H 1.0145 0.8843 0.0018
H44A H 0.9411 0.8399 0.0209
H45A H 0.9032 0.7603 0.0166
O10A O 1.0956(5) 0.8694(7) -0.0652(4)
C67A C 1.0914(11) 0.8932(16) -0.0834(7)
H52A H 1.0632 0.8874 -0.0915
N19A N 1.1332(9) 0.9294(12) -0.0903(6)
C68A C 1.1789(11) 0.9440(16) -0.0846(7)
H53A H 1.1876 0.9601 -0.0660
H54A H 1.1979 0.9645 -0.1000
H55A H 1.1833 0.9175 -0.0837
C69A C 1.1270(13) 0.9556(18) -0.1151(9)
H56A H 1.0988 0.9565 -0.1122
H57A H 1.1253 0.9403 -0.1335
H58A H 1.1530 0.9868 -0.1156
C33A C 1.0855(6) 0.7074(8) -0.0699(5)
C32A C 1.1170(8) 0.7054(11) -0.0515(3)
C31A C 1.1118(9) 0.7054(13) -0.0209(5)
H25A H 1.1374 0.7091 -0.0102
C37A C 1.1518(6) 0.6996(9) -0.0629(5)
C36A C 1.1550(5) 0.6956(7) -0.0926(5)
C35A C 1.1235(7) 0.6976(11) -0.1110(3)
C34A C 1.0888(6) 0.7035(8) -0.0996(5)
H26A H 1.0673 0.7049 -0.1122
H27A H 1.1258 0.6950 -0.1313
H28A H 1.1788 0.6916 -0.1004
H29A H 1.1733 0.6982 -0.0504
N12A N 0.9829(11) 0.6941(15) 0.0518(8)
C38A C 1.0077(13) 0.6958(18) 0.0755(6)
C39A C 0.9901(8) 0.6933(10) 0.1046(4)
C40A C 0.9433(8) 0.6633(10) 0.1062(4)
C41A C 0.9211(5) 0.6544(7) 0.1327(5)
H30A H 0.8891 0.6339 0.1337
C42A C 0.9456(7) 0.6753(9) 0.1576(4)
H31A H 0.9304 0.6691 0.1757
C43A C 0.9924(7) 0.7053(9) 0.1560(4)
H32A H 1.0091 0.7195 0.1731
C44A C 1.0146(5) 0.7142(7) 0.1295(5)
H33A H 1.0466 0.7347 0.1285
O6A O 0.9115(6) 0.6484(8) 0.0858(4)
H34A H 0.9238 0.6533 0.0694
H18A H 1.0959 0.7255 0.0955
C24A C 1.0662(10) 0.6606(14) 0.1022(7)
H19A H 1.0426 0.6604 0.1150
H20A H 1.0528 0.6318 0.0911
C25A C 1.1060(18) 0.6679(20) 0.1186(8)
C26A C 1.1533(19) 0.6933(24) 0.1174(7)
C27A C 1.1794(8) 0.6847(15) 0.1369(10)
H21A H 1.2118 0.7022 0.1361
C28A C 1.1582(16) 0.6508(18) 0.1576(7)
H22A H 1.1760 0.6449 0.1710
C29A C 1.1108(17) 0.6253(23) 0.1588(7)
H23A H 1.0963 0.6020 0.1730
C30A C 1.0847(7) 0.6338(15) 0.1393(10)
H24A H 1.0524 0.6165 0.1402
O4A O 1.1776(7) 0.7228(10) 0.0959(5)
O11A O 1.1328(7) 0.6436(10) 0.0525(5)
C48A C 1.2339(15) 0.7349(17) 0.0186(6)
C47A C 1.2808(17) 0.7622(22) 0.0221(5)
C46A C 1.3085(11) 0.8103(16) 0.0285(7)
H36A H 1.3390 0.8227 0.0352
C52A C 1.3092(8) 0.7441(18) 0.0174(6)
C51A C 1.2908(13) 0.6988(15) 0.0091(6)
C50A C 1.2439(14) 0.6715(20) 0.0056(5)
C49A C 1.2155(7) 0.6896(17) 0.0103(6)
H37A H 1.1834 0.6709 0.0079
H38A H 1.2313 0.6405 -0.0001
H39A H 1.3102 0.6865 0.0059
H40A H 1.3413 0.7629 0.0198
N16I N 1.2521(7) 0.9332(7) 0.0190(5)
Cd3I Cd 1.31583(6) 1.00862(7) 0.02180(5)
N10I N 1.3765(6) 1.0778(7) 0.0047(6)
N9I N 1.3818(7) 1.0850(8) -0.0265(7)
Cd4I Cd 1.42760(7) 1.14910(7) -0.05242(5)
O2I O 1.3768(4) 1.1751(4) -0.0520(3)
Cd1I Cd 1.39563(6) 1.21706(6) -0.01162(5)
N4I N 1.3365(8) 1.1459(7) 0.0067(6)
N3I N 1.3278(9) 1.1406(10) 0.0343(7)
Cd2I Cd 1.28277(6) 1.07583(6) 0.06214(4)
N2I N 1.3240(10) 1.1403(9) 0.0940(6)
N1I N 1.3607(8) 1.1739(8) 0.0767(8)
C1I C 1.3626(16) 1.1773(18) 0.0459(7)
N5I N 1.3982(10) 1.2135(11) 0.0315(9)
N14I N 1.4530(9) 1.2901(9) -0.0248(6)
N13I N 1.4384(10) 1.3196(7) -0.0321(5)
C45I C 1.3924(13) 1.3051(12) -0.0272(7)
N15I N 1.3628(9) 1.2645(8) -0.0198(4)
O7I O 1.4559(5) 1.2032(6) -0.0226(4)
N8I N 1.3857(9) 1.0865(7) -0.0831(6)
N7I N 1.3504(8) 1.0475(9) -0.0687(9)
C23I C 1.3455(9) 1.0448(11) -0.0365(9)
N11I N 1.3115(8) 1.0078(9) -0.0307(8)
O5I O 1.3339(4) 1.0506(5) 0.0598(3)
O1I O 1.2579(6) 1.0457(5) 0.1074(4)
C4I C 1.2463(7) 1.0652(7) 0.1288(3)
C3I C 1.2749(5) 1.1113(7) 0.1345(4)
C2I C 1.3127(8) 1.1449(9) 0.1195(7)
H2I H 1.3311 1.1733 0.1289
C8I C 1.2667(5) 1.1312(4) 0.1583(4)
C7I C 1.2299(6) 1.1051(6) 0.1764(3)
C6I C 1.2013(5) 1.0590(6) 0.1707(4)
C5I C 1.2095(6) 1.0390(4) 0.1469(4)
H3I H 1.1899 1.0075 0.1430
H4I H 1.1761 1.0411 0.1830
H5I H 1.2243 1.1187 0.1927
H6I H 1.2863 1.1628 0.1622
O8I O 1.2538(5) 1.0162(6) 0.0315(3)
N17I N 1.3369(8) 0.9580(11) 0.0357(7)
N18I N 1.3741(10) 0.9617(11) 0.0479(6)
C60I C 1.4009(10) 1.0019(10) 0.0544(6)
H46I H 1.3923 1.0240 0.0500
C61I C 1.443(2) 1.0162(11) 0.0678(7)
C62I C 1.455(3) 0.984(2) 0.0741(10)
C63I C 1.4970(11) 0.996(3) 0.0870(10)
H47I H 1.5046 0.9735 0.0913
C64I C 1.527(2) 1.0417(12) 0.0935(6)
H48I H 1.5553 1.0502 0.1023
C65I C 1.515(2) 1.075(2) 0.0872(9)
H49I H 1.5357 1.1058 0.0916
C66I C 1.4730(10) 1.062(3) 0.0743(9)
H50I H 1.4653 1.0847 0.0700
O9I O 1.4299(7) 0.9342(8) 0.0755(6)
H51I H 1.4032 0.9243 0.0693
C55I C 1.2139(6) 0.9978(4) 0.0165(3)
C54I C 1.1967(4) 0.9542(5) 0.0051(4)
C53I C 1.2170(8) 0.9272(8) 0.0075(5)
H41I H 1.2001 0.8983 -0.0016
C59I C 1.1547(5) 0.9331(6) -0.0088(3)
C58I C 1.1299(5) 0.9555(4) -0.0114(3)
C57I C 1.1471(4) 0.9991(5) -0.0001(3)
C56I C 1.1891(6) 1.0202(5) 0.0139(3)
H42I H 1.2009 1.0501 0.0217
H43I H 1.1302 1.0145 -0.0018
H44I H 1.1012 0.9411 -0.0209
H45I H 1.1429 0.9032 -0.0166
O10I O 1.2262(5) 1.0956(5) 0.0652(4)
C67I C 1.1982(11) 1.0914(11) 0.0834(7)
H52I H 1.1758 1.0632 0.0915
N19I N 1.2038(8) 1.1332(9) 0.0903(6)
C68I C 1.2349(11) 1.1789(11) 0.0846(7)
H53I H 1.2275 1.1876 0.0660
H54I H 1.2334 1.1979 0.1000
H55I H 1.2658 1.1833 0.0837
C69I C 1.1714(13) 1.1270(13) 0.1151(9)
H56I H 1.1423 1.0988 0.1122
H57I H 1.1850 1.1253 0.1335
H58I H 1.1662 1.1530 0.1156
C33I C 1.3781(5) 1.0855(6) 0.0699(5)
C32I C 1.4116(8) 1.1170(8) 0.0515(3)
C31I C 1.4064(9) 1.1118(9) 0.0209(5)
H25I H 1.4283 1.1374 0.0102
C37I C 1.4522(7) 1.1518(6) 0.0629(5)
C36I C 1.4594(5) 1.1550(5) 0.0926(5)
C35I C 1.4259(8) 1.1235(7) 0.1110(3)
C34I C 1.3853(6) 1.0888(6) 0.0996(5)
H26I H 1.3624 1.0673 0.1122
H27I H 1.4308 1.1258 0.1313
H28I H 1.4872 1.1788 0.1004
H29I H 1.4751 1.1733 0.0504
N12I N 1.2888(10) 0.9829(11) -0.0518(8)
C38I C 1.3119(12) 1.0077(13) -0.0755(6)
C39I C 1.2968(6) 0.9901(8) -0.1046(4)
C40I C 1.2800(6) 0.9433(8) -0.1062(4)
C41I C 1.2667(5) 0.9211(5) -0.1327(5)
H30I H 1.2552 0.8891 -0.1337
C42I C 1.2703(5) 0.9456(7) -0.1576(4)
H31I H 1.2613 0.9304 -0.1757
C43I C 1.2871(6) 0.9924(7) -0.1560(4)
H32I H 1.2896 1.0091 -0.1731
C44I C 1.3004(5) 1.0146(5) -0.1295(5)
H33I H 1.3119 1.0466 -0.1285
O6I O 1.2631(6) 0.9115(6) -0.0858(4)
H34I H 1.2705 0.9238 -0.0694
H18I H 1.3704 1.0959 -0.0955
C24I C 1.4056(10) 1.0662(10) -0.1022(7)
H19I H 1.3822 1.0426 -0.1150
H20I H 1.4210 1.0528 -0.0911
C25I C 1.4381(9) 1.1060(18) -0.1186(8)
C26I C 1.4600(15) 1.1533(19) -0.1174(7)
C27I C 1.4947(13) 1.1794(8) -0.1369(10)
H21I H 1.5096 1.2118 -0.1361
C28I C 1.5074(8) 1.1582(16) -0.1576(7)
H22I H 1.5311 1.1760 -0.1710
C29I C 1.4855(15) 1.1108(17) -0.1588(7)
H23I H 1.4943 1.0963 -0.1730
C30I C 1.4509(13) 1.0847(7) -0.1393(10)
H24I H 1.4359 1.0524 -0.1402
O4I O 1.4548(7) 1.1776(7) -0.0959(5)
O11I O 1.4892(7) 1.1328(7) -0.0525(5)
C48I C 1.4990(7) 1.2339(15) -0.0186(6)
C47I C 1.5186(14) 1.2808(17) -0.0221(5)
C46I C 1.4982(12) 1.3085(11) -0.0285(7)
H36I H 1.5163 1.3390 -0.0352
C52I C 1.5651(16) 1.3092(8) -0.0174(6)
C51I C 1.5920(7) 1.2908(13) -0.0091(6)
C50I C 1.5724(14) 1.2439(14) -0.0056(5)
C49I C 1.5259(15) 1.2155(7) -0.0103(6)
H37I H 1.5125 1.1834 -0.0079
H38I H 1.5908 1.2313 0.0001
H39I H 1.6237 1.3102 -0.0059
H40I H 1.5784 1.3413 -0.0198
N16B N 1.3189(10) 1.2521(7) -0.0190(5)
Cd3B Cd 1.30721(9) 1.31583(6) -0.02180(5)
N10B N 1.2987(9) 1.3765(6) -0.0047(6)
N9B N 1.2968(11) 1.3818(7) 0.0265(7)
Cd4B Cd 1.27850(10) 1.42760(7) 0.05242(5)
O2B O 1.2017(6) 1.3768(4) 0.0520(3)
Cd1B Cd 1.17857(8) 1.39563(6) 0.01162(5)
N4B N 1.1906(11) 1.3365(8) -0.0067(6)
N3B N 1.1872(13) 1.3278(9) -0.0343(7)
Cd2B Cd 1.20694(8) 1.28277(6) -0.06214(4)
N2B N 1.1837(13) 1.3240(10) -0.0940(6)
N1B N 1.1868(11) 1.3607(8) -0.0767(8)
C1B C 1.1853(24) 1.3626(16) -0.0459(7)
N5B N 1.1847(15) 1.3982(10) -0.0315(9)
N14B N 1.1629(13) 1.4530(9) 0.0248(6)
N13B N 1.1188(12) 1.4384(10) 0.0321(5)
C45B C 1.0873(18) 1.3924(13) 0.0272(7)
N15B N 1.0983(12) 1.3628(9) 0.0198(4)
O7B O 1.2527(8) 1.4559(5) 0.0226(4)
N8B N 1.2992(11) 1.3857(9) 0.0831(6)
N7B N 1.3029(12) 1.3504(8) 0.0687(9)
C23B C 1.3007(14) 1.3455(9) 0.0365(9)
N11B N 1.3037(12) 1.3115(8) 0.0307(8)
O5B O 1.2833(6) 1.3339(4) -0.0598(3)
O1B O 1.2122(8) 1.2579(6) -0.1074(4)
C4B C 1.1811(10) 1.2463(7) -0.1288(3)
C3B C 1.1636(9) 1.2749(5) -0.1345(4)
C2B C 1.1678(12) 1.3127(8) -0.1195(7)
H2B H 1.1578 1.3311 -0.1289
C8B C 1.1355(6) 1.2667(5) -0.1583(4)
C7B C 1.1248(8) 1.2299(6) -0.1764(3)
C6B C 1.1423(8) 1.2013(5) -0.1707(4)
C5B C 1.1705(7) 1.2095(6) -0.1469(4)
H3B H 1.1824 1.1899 -0.1430
H4B H 1.1350 1.1761 -0.1830
H5B H 1.1056 1.2243 -0.1927
H6B H 1.1235 1.2863 -0.1622
O8B O 1.2376(8) 1.2538(5) -0.0315(3)
N17B N 1.3789(14) 1.3369(8) -0.0357(7)
N18B N 1.4124(15) 1.3741(10) -0.0479(6)
C60B C 1.3990(14) 1.4009(10) -0.0544(6)
H46B H 1.3683 1.3923 -0.0500
C61B C 1.4268(23) 1.443(2) -0.0678(7)
C62B C 1.471(4) 1.455(3) -0.0741(10)
C63B C 1.5010(32) 1.4970(11) -0.0870(10)
H47B H 1.5311 1.5046 -0.0913
C64B C 1.4853(23) 1.527(2) -0.0935(6)
H48B H 1.5051 1.5553 -0.1023
C65B C 1.440(3) 1.515(2) -0.0872(9)
H49B H 1.4299 1.5357 -0.0916
C66B C 1.4110(32) 1.4730(10) -0.0743(9)
H50B H 1.3806 1.4653 -0.0700
O9B O 1.4957(11) 1.4299(7) -0.0755(6)
H51B H 1.4789 1.4032 -0.0693
C55B C 1.2161(7) 1.2139(6) -0.0165(3)
C54B C 1.2425(6) 1.1967(4) -0.0051(4)
C53B C 1.2898(11) 1.2170(8) -0.0075(5)
H41B H 1.3018 1.2001 0.0016
C59B C 1.2216(8) 1.1547(5) 0.0088(3)
C58B C 1.1744(6) 1.1299(5) 0.0114(3)
C57B C 1.1480(6) 1.1471(4) 0.0001(3)
C56B C 1.1689(8) 1.1891(6) -0.0139(3)
H42B H 1.1508 1.2009 -0.0217
H43B H 1.1157 1.1302 0.0018
H44B H 1.1601 1.1012 0.0209
H45B H 1.2397 1.1429 0.0166
O10B O 1.1306(7) 1.2262(5) -0.0652(4)
C67B C 1.1068(16) 1.1982(11) -0.0834(7)
H52B H 1.1126 1.1758 -0.0915
N19B N 1.0706(12) 1.2038(8) -0.0903(6)
C68B C 1.0560(16) 1.2349(11) -0.0846(7)
H53B H 1.0399 1.2275 -0.0660
H54B H 1.0355 1.2334 -0.1000
H55B H 1.0825 1.2658 -0.0837
C69B C 1.0444(18) 1.1714(13) -0.1151(9)
H56B H 1.0435 1.1423 -0.1122
H57B H 1.0597 1.1850 -0.1335
H58B H 1.0132 1.1662 -0.1156
C33B C 1.2926(8) 1.3781(5) -0.0699(5)
C32B C 1.2946(11) 1.4116(8) -0.0515(3)
C31B C 1.2946(13) 1.4064(9) -0.0209(5)
H25B H 1.2909 1.4283 -0.0102
C37B C 1.3004(9) 1.4522(7) -0.0629(5)
C36B C 1.3044(7) 1.4594(5) -0.0926(5)
C35B C 1.3024(11) 1.4259(8) -0.1110(3)
C34B C 1.2965(8) 1.3853(6) -0.0996(5)
H26B H 1.2951 1.3624 -0.1122
H27B H 1.3050 1.4308 -0.1313
H28B H 1.3084 1.4872 -0.1004
H29B H 1.3018 1.4751 -0.0504
N12B N 1.3059(15) 1.2888(10) 0.0518(8)
C38B C 1.3042(18) 1.3119(12) 0.0755(6)
C39B C 1.3067(10) 1.2968(6) 0.1046(4)
C40B C 1.3367(10) 1.2800(6) 0.1062(4)
C41B C 1.3456(7) 1.2667(5) 0.1327(5)
H30B H 1.3661 1.2552 0.1337
C42B C 1.3247(9) 1.2703(5) 0.1576(4)
H31B H 1.3309 1.2613 0.1757
C43B C 1.2947(9) 1.2871(6) 0.1560(4)
H32B H 1.2805 1.2896 0.1731
C44B C 1.2858(7) 1.3004(5) 0.1295(5)
H33B H 1.2653 1.3119 0.1285
O6B O 1.3516(8) 1.2631(6) 0.0858(4)
H34B H 1.3467 1.2705 0.0694
H18B H 1.2745 1.3704 0.0955
C24B C 1.3394(14) 1.4056(10) 0.1022(7)
H19B H 1.3396 1.3822 0.1150
H20B H 1.3682 1.4210 0.0911
C25B C 1.3321(20) 1.4381(9) 0.1186(8)
C26B C 1.3067(24) 1.4600(15) 0.1174(7)
C27B C 1.3153(15) 1.4947(13) 0.1369(10)
H21B H 1.2978 1.5096 0.1361
C28B C 1.3492(18) 1.5074(8) 0.1576(7)
H22B H 1.3551 1.5311 0.1710
C29B C 1.3747(23) 1.4855(15) 0.1588(7)
H23B H 1.3980 1.4943 0.1730
C30B C 1.3662(15) 1.4509(13) 0.1393(10)
H24B H 1.3835 1.4359 0.1402
O4B O 1.2772(10) 1.4548(7) 0.0959(5)
O11B O 1.3564(10) 1.4892(7) 0.0525(5)
C48B C 1.2651(17) 1.4990(7) 0.0186(6)
C47B C 1.2378(22) 1.5186(14) 0.0221(5)
C46B C 1.1897(16) 1.4982(12) 0.0285(7)
H36B H 1.1773 1.5163 0.0352
C52B C 1.2559(18) 1.5651(16) 0.0174(6)
C51B C 1.3012(15) 1.5920(7) 0.0091(6)
C50B C 1.3285(20) 1.5724(14) 0.0056(5)
C49B C 1.3104(17) 1.5259(15) 0.0103(6)
H37B H 1.3291 1.5125 0.0079
H38B H 1.3595 1.5908 -0.0001
H39B H 1.3135 1.6237 0.0059
H40B H 1.2371 1.5784 0.0198
N16J N 1.0668(7) 1.3189(10) 0.0190(5)
Cd3J Cd 0.99138(7) 1.30721(9) 0.02180(5)
N10J N 0.9222(7) 1.2987(9) 0.0047(6)
N9J N 0.9150(8) 1.2968(11) -0.0265(7)
Cd4J Cd 0.85090(7) 1.27850(10) -0.05242(5)
O2J O 0.8249(4) 1.2017(6) -0.0520(3)
Cd1J Cd 0.78294(6) 1.17857(8) -0.01162(5)
N4J N 0.8541(7) 1.1906(11) 0.0067(6)
N3J N 0.8594(10) 1.1872(13) 0.0343(7)
Cd2J Cd 0.92417(6) 1.20694(8) 0.06214(4)
N2J N 0.8597(9) 1.1837(13) 0.0940(6)
N1J N 0.8261(8) 1.1868(11) 0.0767(8)
C1J C 0.8227(18) 1.1853(24) 0.0459(7)
N5J N 0.7865(11) 1.1847(15) 0.0315(9)
N14J N 0.7099(9) 1.1629(13) -0.0248(6)
N13J N 0.6804(7) 1.1188(12) -0.0321(5)
C45J C 0.6949(12) 1.0873(18) -0.0272(7)
N15J N 0.7355(8) 1.0983(12) -0.0198(4)
O7J O 0.7968(6) 1.2527(8) -0.0226(4)
N8J N 0.9135(7) 1.2992(11) -0.0831(6)
N7J N 0.9525(9) 1.3029(12) -0.0687(9)
C23J C 0.9552(11) 1.3007(14) -0.0365(9)
N11J N 0.9922(9) 1.3037(12) -0.0307(8)
O5J O 0.9494(5) 1.2833(6) 0.0598(3)
O1J O 0.9543(5) 1.2122(8) 0.1074(4)
C4J C 0.9348(7) 1.1811(10) 0.1288(3)
C3J C 0.8887(7) 1.1636(9) 0.1345(4)
C2J C 0.8551(9) 1.1678(12) 0.1195(7)
H2J H 0.8267 1.1578 0.1289
C8J C 0.8688(4) 1.1355(6) 0.1583(4)
C7J C 0.8949(6) 1.1248(8) 0.1764(3)
C6J C 0.9410(6) 1.1423(8) 0.1707(4)
C5J C 0.9610(4) 1.1705(7) 0.1469(4)
H3J H 0.9925 1.1824 0.1430
H4J H 0.9589 1.1350 0.1830
H5J H 0.8813 1.1056 0.1927
H6J H 0.8372 1.1235 0.1622
O8J O 0.9838(6) 1.2376(8) 0.0315(3)
N17J N 1.0420(11) 1.3789(14) 0.0357(7)
N18J N 1.0383(11) 1.4124(15) 0.0479(6)
C60J C 0.9981(10) 1.3990(14) 0.0544(6)
H46J H 0.9760 1.3683 0.0500
C61J C 0.9838(11) 1.4268(23) 0.0678(7)
C62J C 1.016(2) 1.471(4) 0.0741(10)
C63J C 1.004(3) 1.5010(32) 0.0870(10)
H47J H 1.0265 1.5311 0.0913
C64J C 0.9583(12) 1.4853(23) 0.0935(6)
H48J H 0.9498 1.5051 0.1023
C65J C 0.925(2) 1.440(3) 0.0872(9)
H49J H 0.8942 1.4299 0.0916
C66J C 0.938(3) 1.4110(32) 0.0743(9)
H50J H 0.9153 1.3806 0.0700
O9J O 1.0658(8) 1.4957(11) 0.0755(6)
H51J H 1.0757 1.4789 0.0693
C55J C 1.0022(4) 1.2161(7) 0.0165(3)
C54J C 1.0458(5) 1.2425(6) 0.0051(4)
C53J C 1.0728(8) 1.2898(11) 0.0075(5)
H41J H 1.1017 1.3018 -0.0016
C59J C 1.0669(6) 1.2216(8) -0.0088(3)
C58J C 1.0445(4) 1.1744(6) -0.0114(3)
C57J C 1.0009(5) 1.1480(6) -0.0001(3)
C56J C 0.9798(5) 1.1689(8) 0.0139(3)
H42J H 0.9499 1.1508 0.0217
H43J H 0.9855 1.1157 -0.0018
H44J H 1.0589 1.1601 -0.0209
H45J H 1.0968 1.2397 -0.0166
O10J O 0.9044(5) 1.1306(7) 0.0652(4)
C67J C 0.9086(11) 1.1068(16) 0.0834(7)
H52J H 0.9368 1.1126 0.0915
N19J N 0.8668(9) 1.0706(12) 0.0903(6)
C68J C 0.8211(11) 1.0560(16) 0.0846(7)
H53J H 0.8124 1.0399 0.0660
H54J H 0.8021 1.0355 0.1000
H55J H 0.8167 1.0825 0.0837
C69J C 0.8730(13) 1.0444(18) 0.1151(9)
H56J H 0.9012 1.0435 0.1122
H57J H 0.8747 1.0597 0.1335
H58J H 0.8470 1.0132 0.1156
C33J C 0.9145(6) 1.2926(8) 0.0699(5)
C32J C 0.8830(8) 1.2946(11) 0.0515(3)
C31J C 0.8882(9) 1.2946(13) 0.0209(5)
H25J H 0.8626 1.2909 0.0102
C37J C 0.8482(6) 1.3004(9) 0.0629(5)
C36J C 0.8450(5) 1.3044(7) 0.0926(5)
C35J C 0.8765(7) 1.3024(11) 0.1110(3)
C34J C 0.9112(6) 1.2965(8) 0.0996(5)
H26J H 0.9327 1.2951 0.1122
H27J H 0.8742 1.3050 0.1313
H28J H 0.8212 1.3084 0.1004
H29J H 0.8267 1.3018 0.0504
N12J N 1.0171(11) 1.3059(15) -0.0518(8)
C38J C 0.9923(13) 1.3042(18) -0.0755(6)
C39J C 1.0099(8) 1.3067(10) -0.1046(4)
C40J C 1.0567(8) 1.3367(10) -0.1062(4)
C41J C 1.0789(5) 1.3456(7) -0.1327(5)
H30J H 1.1109 1.3661 -0.1337
C42J C 1.0544(7) 1.3247(9) -0.1576(4)
H31J H 1.0696 1.3309 -0.1757
C43J C 1.0076(7) 1.2947(9) -0.1560(4)
H32J H 0.9909 1.2805 -0.1731
C44J C 0.9854(5) 1.2858(7) -0.1295(5)
H33J H 0.9534 1.2653 -0.1285
O6J O 1.0885(6) 1.3516(8) -0.0858(4)
H34J H 1.0762 1.3467 -0.0694
H18J H 0.9041 1.2745 -0.0955
C24J C 0.9338(10) 1.3394(14) -0.1022(7)
H19J H 0.9574 1.3396 -0.1150
H20J H 0.9472 1.3682 -0.0911
C25J C 0.8940(18) 1.3321(20) -0.1186(8)
C26J C 0.8467(19) 1.3067(24) -0.1174(7)
C27J C 0.8206(8) 1.3153(15) -0.1369(10)
H21J H 0.7882 1.2978 -0.1361
C28J C 0.8418(16) 1.3492(18) -0.1576(7)
H22J H 0.8240 1.3551 -0.1710
C29J C 0.8892(17) 1.3747(23) -0.1588(7)
H23J H 0.9037 1.3980 -0.1730
C30J C 0.9153(7) 1.3662(15) -0.1393(10)
H24J H 0.9476 1.3835 -0.1402
O4J O 0.8224(7) 1.2772(10) -0.0959(5)
O11J O 0.8672(7) 1.3564(10) -0.0525(5)
C48J C 0.7661(15) 1.2651(17) -0.0186(6)
C47J C 0.7192(17) 1.2378(22) -0.0221(5)
C46J C 0.6915(11) 1.1897(16) -0.0285(7)
H36J H 0.6610 1.1773 -0.0352
C52J C 0.6908(8) 1.2559(18) -0.0174(6)
C51J C 0.7092(13) 1.3012(15) -0.0091(6)
C50J C 0.7561(14) 1.3285(20) -0.0056(5)
C49J C 0.7845(7) 1.3104(17) -0.0103(6)
H37J H 0.8166 1.3291 -0.0079
H38J H 0.7687 1.3595 0.0001
H39J H 0.6898 1.3135 -0.0059
H40J H 0.6587 1.2371 -0.0198
H35J H 0.6534 1.1104 -0.0395
N6J N 0.7590(9) 1.1827(13) 0.0558(7)
C16J C 0.7344(11) 1.1976(16) 0.0504(7)
H12J H 0.7402 1.2121 0.0320
C17J C 0.6954(8) 1.1979(14) 0.0670(8)
C18J C 0.6774(12) 1.1689(14) 0.0907(9)
C19J C 0.6415(12) 1.1674(19) 0.1062(5)
H13J H 0.6291 1.1475 0.1224
C20J C 0.6235(7) 1.1947(14) 0.0981(7)
H14J H 0.5990 1.1937 0.1087
C21J C 0.6415(11) 1.2237(14) 0.0744(7)
H15J H 0.6293 1.2425 0.0689
C22J C 0.6775(11) 1.2254(19) 0.0589(5)
H16J H 0.6898 1.2452 0.0427
O3J O 0.6917(7) 1.1420(11) 0.0989(5)
H17J H 0.7135 1.1458 0.0883
H1J H 0.8052 1.1898 0.0862
C9J C 0.8836(8) 1.1879(11) -0.0106(5)
H7J H 0.9072 1.1866 -0.0004
C10J C 0.8884(6) 1.1863(9) -0.0426(3)
C11J C 0.8580(5) 1.1906(6) -0.0608(4)
C12J C 0.8607(4) 1.1865(6) -0.0906(4)
H8J H 0.8400 1.1895 -0.1030
C13J C 0.8938(6) 1.1782(8) -0.1022(3)
H9J H 0.8957 1.1755 -0.1225
C14J C 0.9242(4) 1.1740(6) -0.0840(4)
H10J H 0.9468 1.1683 -0.0919
C15J C 0.9215(5) 1.1780(7) -0.0542(4)
H11J H 0.9422 1.1751 -0.0418
H35B H 1.1104 1.4570 0.0395
N6B N 1.1827(13) 1.4237(9) -0.0558(7)
C16B C 1.1976(16) 1.4632(12) -0.0504(7)
H12B H 1.2121 1.4719 -0.0320
C17B C 1.1979(14) 1.5025(12) -0.0670(8)
C18B C 1.1689(14) 1.4915(8) -0.0907(9)
C19B C 1.1674(19) 1.5259(15) -0.1062(5)
H13B H 1.1475 1.5184 -0.1224
C20B C 1.1947(14) 1.5712(12) -0.0981(7)
H14B H 1.1937 1.5947 -0.1087
C21B C 1.2237(14) 1.5822(8) -0.0744(7)
H15B H 1.2425 1.6132 -0.0689
C22B C 1.2254(19) 1.5479(15) -0.0589(5)
H16B H 1.2452 1.5554 -0.0427
O3B O 1.1420(11) 1.4503(8) -0.0989(5)
H17B H 1.1458 1.4323 -0.0883
H1B H 1.1898 1.3846 -0.0862
C9B C 1.1879(11) 1.3043(8) 0.0106(5)
H7B H 1.1866 1.2794 0.0004
C10B C 1.1863(9) 1.2979(7) 0.0426(3)
C11B C 1.1906(6) 1.3326(4) 0.0608(4)
C12B C 1.1865(6) 1.3258(5) 0.0906(4)
H8B H 1.1895 1.3495 0.1030
C13B C 1.1782(8) 1.2844(6) 0.1022(3)
H9B H 1.1755 1.2798 0.1225
C14B C 1.1740(6) 1.2498(4) 0.0840(4)
H10B H 1.1683 1.2215 0.0919
C15B C 1.1780(7) 1.2565(5) 0.0542(4)
H11B H 1.1751 1.2329 0.0418
H35I H 1.4570 1.3466 -0.0395
N6I N 1.4237(9) 1.2410(9) 0.0558(7)
C16I C 1.4632(12) 1.2656(11) 0.0504(7)
H12I H 1.4719 1.2598 0.0320
C17I C 1.5025(12) 1.3046(8) 0.0670(8)
C18I C 1.4915(8) 1.3226(12) 0.0907(9)
C19I C 1.5259(15) 1.3585(12) 0.1062(5)
H13I H 1.5184 1.3709 0.1224
C20I C 1.5712(12) 1.3765(7) 0.0981(7)
H14I H 1.5947 1.4010 0.1087
C21I C 1.5822(8) 1.3585(11) 0.0744(7)
H15I H 1.6132 1.3707 0.0689
C22I C 1.5479(15) 1.3225(11) 0.0589(5)
H16I H 1.5554 1.3102 0.0427
O3I O 1.4503(8) 1.3083(7) 0.0989(5)
H17I H 1.4323 1.2865 0.0883
H1I H 1.3846 1.1948 0.0862
C9I C 1.3043(8) 1.1164(8) -0.0106(5)
H7I H 1.2794 1.0928 -0.0004
C10I C 1.2979(7) 1.1116(6) -0.0426(3)
C11I C 1.3326(4) 1.1420(5) -0.0608(4)
C12I C 1.3258(5) 1.1393(4) -0.0906(4)
H8I H 1.3495 1.1600 -0.1030
C13I C 1.2844(6) 1.1062(6) -0.1022(3)
H9I H 1.2798 1.1043 -0.1225
C14I C 1.2498(4) 1.0758(4) -0.0840(4)
H10I H 1.2215 1.0532 -0.0919
C15I C 1.2565(5) 1.0785(5) -0.0542(4)
H11I H 1.2329 1.0578 -0.0418
H35A H 1.3466 0.8896 0.0395
N6A N 1.2410(9) 0.8173(13) -0.0558(7)
C16A C 1.2656(11) 0.8024(16) -0.0504(7)
H12A H 1.2598 0.7879 -0.0320
C17A C 1.3046(8) 0.8021(14) -0.0670(8)
C18A C 1.3226(12) 0.8311(14) -0.0907(9)
C19A C 1.3585(12) 0.8326(19) -0.1062(5)
H13A H 1.3709 0.8525 -0.1224
C20A C 1.3765(7) 0.8053(14) -0.0981(7)
H14A H 1.4010 0.8063 -0.1087
C21A C 1.3585(11) 0.7763(14) -0.0744(7)
H15A H 1.3707 0.7575 -0.0689
C22A C 1.3225(11) 0.7746(19) -0.0589(5)
H16A H 1.3102 0.7548 -0.0427
O3A O 1.3083(7) 0.8580(11) -0.0989(5)
H17A H 1.2865 0.8542 -0.0883
H1A H 1.1948 0.8102 -0.0862
C9A C 1.1164(8) 0.8121(11) 0.0106(5)
H7A H 1.0928 0.8134 0.0004
C10A C 1.1116(6) 0.8137(9) 0.0426(3)
C11A C 1.1420(5) 0.8094(6) 0.0608(4)
C12A C 1.1393(4) 0.8135(6) 0.0906(4)
H8A H 1.1600 0.8105 0.1030
C13A C 1.1062(6) 0.8218(8) 0.1022(3)
H9A H 1.1043 0.8245 0.1225
C14A C 1.0758(4) 0.8260(6) 0.0840(4)
H10A H 1.0532 0.8317 0.0919
C15A C 1.0785(5) 0.8220(7) 0.0542(4)
H11A H 1.0578 0.8249 0.0418
H35K H 0.8896 0.5430 -0.0395
N6K N 0.8173(13) 0.5763(9) 0.0558(7)
C16K C 0.8024(16) 0.5368(12) 0.0504(7)
H12K H 0.7879 0.5281 0.0320
C17K C 0.8021(14) 0.4975(12) 0.0670(8)
C18K C 0.8311(14) 0.5085(8) 0.0907(9)
C19K C 0.8326(19) 0.4741(15) 0.1062(5)
H13K H 0.8525 0.4816 0.1224
C20K C 0.8053(14) 0.4288(12) 0.0981(7)
H14K H 0.8063 0.4053 0.1087
C21K C 0.7763(14) 0.4178(8) 0.0744(7)
H15K H 0.7575 0.3868 0.0689
C22K C 0.7746(19) 0.4521(15) 0.0589(5)
H16K H 0.7548 0.4446 0.0427
O3K O 0.8580(11) 0.5497(8) 0.0989(5)
H17K H 0.8542 0.5677 0.0883
H1K H 0.8102 0.6154 0.0862
C9K C 0.8121(11) 0.6957(8) -0.0106(5)
H7K H 0.8134 0.7206 -0.0004
C10K C 0.8137(9) 0.7021(7) -0.0426(3)
C11K C 0.8094(6) 0.6674(4) -0.0608(4)
C12K C 0.8135(6) 0.6742(5) -0.0906(4)
H8K H 0.8105 0.6505 -0.1030
C13K C 0.8218(8) 0.7156(6) -0.1022(3)
H9K H 0.8245 0.7202 -0.1225
C14K C 0.8260(6) 0.7502(4) -0.0840(4)
H10K H 0.8317 0.7785 -0.0919
C15K C 0.8220(7) 0.7435(5) -0.0542(4)
H11K H 0.8249 0.7671 -0.0418
loop_
_geom_bond_atom_site_label_1
_geom_bond_atom_site_label_2
_geom_bond_site_symmetry_1
_geom_bond_site_symmetry_2
Cd1 N4 1_555 1_555
Cd2 N2 1_555 1_555
Cd3 N10 1_555 1_555
Cd4 O2 1_555 1_555
C1 N1 1_555 1_555
N1 H1 1_555 1_555
N2 N1 1_555 1_555
C2 N2 1_555 1_555
H2 C2 1_555 1_555
C3 C2 1_555 1_555
C4 C3 1_555 1_555
C5 C4 1_555 1_555
H3 C5 1_555 1_555
C6 C5 1_555 1_555
H4 C6 1_555 1_555
C7 C6 1_555 1_555
H5 C7 1_555 1_555
C8 C3 1_555 1_555
H6 C8 1_555 1_555
O1 Cd2 1_555 1_555
N3 Cd2 1_555 1_555
N4 N3 1_555 1_555
C9 N4 1_555 1_555
H7 C9 1_555 1_555
C10 C9 1_555 1_555
C11 C10 1_555 1_555
C12 C11 1_555 1_555
H8 C12 1_555 1_555
C13 C12 1_555 1_555
H9 C13 1_555 1_555
C14 C13 1_555 1_555
H10 C14 1_555 1_555
C15 C10 1_555 1_555
H11 C15 1_555 1_555
O2 Cd1 1_555 1_555
N5 Cd1 1_555 1_555
N6 N5 1_555 1_555
C16 N6 1_555 1_555
H12 C16 1_555 1_555
C17 C16 1_555 1_555
C18 C17 1_555 1_555
C19 C18 1_555 1_555
H13 C19 1_555 1_555
C20 C19 1_555 1_555
H14 C20 1_555 1_555
C21 C20 1_555 1_555
H15 C21 1_555 1_555
C22 C17 1_555 1_555
H16 C22 1_555 1_555
O3 C18 1_555 1_555
H17 O3 1_555 1_555
C23 N7 1_555 1_555
N7 N8 1_555 1_555
N8 Cd4 1_555 1_555
H18 N8 1_555 1_555
C24 N8 1_555 1_555
H19 C24 1_555 1_555
H20 C24 1_555 1_555
C25 C24 1_555 1_555
C26 C25 1_555 1_555
C27 C26 1_555 1_555
H21 C27 1_555 1_555
C28 C27 1_555 1_555
H22 C28 1_555 1_555
C29 C28 1_555 1_555
H23 C29 1_555 1_555
C30 C25 1_555 1_555
H24 C30 1_555 1_555
O4 Cd4 1_555 1_555
N9 Cd4 1_555 1_555
N10 N9 1_555 1_555
C31 N10 1_555 1_555
H25 C31 1_555 1_555
C32 C31 1_555 1_555
C33 C32 1_555 1_555
C34 C33 1_555 1_555
H26 C34 1_555 1_555
C35 C34 1_555 1_555
H27 C35 1_555 1_555
C36 C35 1_555 1_555
H28 C36 1_555 1_555
C37 C32 1_555 1_555
H29 C37 1_555 1_555
O5 Cd2 1_555 1_555
N11 Cd3 1_555 1_555
N12 N11 1_555 1_555
C38 N7 1_555 1_555
C39 C38 1_555 1_555
C40 C39 1_555 1_555
C41 C40 1_555 1_555
H30 C41 1_555 1_555
C42 C41 1_555 1_555
H31 C42 1_555 1_555
C43 C42 1_555 1_555
H32 C43 1_555 1_555
C44 C39 1_555 1_555
H33 C44 1_555 1_555
O6 C40 1_555 1_555
H34 O6 1_555 1_555
C45 N13 1_555 1_555
N13 H35 1_555 1_555
N14 Cd1 1_555 1_555
C46 N14 1_555 1_555
H36 C46 1_555 1_555
C47 C46 1_555 1_555
C48 C47 1_555 1_555
C49 C48 1_555 1_555
H37 C49 1_555 1_555
C50 C49 1_555 1_555
H38 C50 1_555 1_555
C51 C50 1_555 1_555
H39 C51 1_555 1_555
C52 C47 1_555 1_555
H40 C52 1_555 1_555
O7 Cd1 1_555 1_555
N15 Cd1 1_555 1_555
N16 Cd3 1_555 1_555
C53 N16 1_555 1_555
H41 C53 1_555 1_555
C54 C53 1_555 1_555
C55 C54 1_555 1_555
C56 C55 1_555 1_555
H42 C56 1_555 1_555
C57 C56 1_555 1_555
H43 C57 1_555 1_555
C58 C57 1_555 1_555
H44 C58 1_555 1_555
C59 C54 1_555 1_555
H45 C59 1_555 1_555
O8 Cd2 1_555 1_555
N17 Cd3 1_555 1_555
N18 N17 1_555 1_555
C60 N18 1_555 1_555
H46 C60 1_555 1_555
C61 C60 1_555 1_555
C62 C61 1_555 1_555
C63 C62 1_555 1_555
H47 C63 1_555 1_555
C64 C63 1_555 1_555
H48 C64 1_555 1_555
C65 C64 1_555 1_555
H49 C65 1_555 1_555
C66 C61 1_555 1_555
H50 C66 1_555 1_555
O9 C62 1_555 1_555
H51 O9 1_555 1_555
O10 Cd2 1_555 1_555
C67 O10 1_555 1_555
H52 C67 1_555 1_555
N19 C67 1_555 1_555
C68 N19 1_555 1_555
H53 C68 1_555 1_555
H54 C68 1_555 1_555
H55 C68 1_555 1_555
C69 N19 1_555 1_555
H56 C69 1_555 1_555
H57 C69 1_555 1_555
H58 C69 1_555 1_555
O11 Cd4 1_555 1_555
N20 H59 1_555 1_555
C70 N20 1_555 1_555
H60 C70 1_555 1_555
H61 C70 1_555 1_555
C71 C70 1_555 1_555
H62 C71 1_555 1_555
H63 C71 1_555 1_555
H64 C71 1_555 1_555
C72 N20 1_555 1_555
H65 C72 1_555 1_555
H66 C72 1_555 1_555
C73 C72 1_555 1_555
H67 C73 1_555 1_555
H68 C73 1_555 1_555
H69 C73 1_555 1_555
C74 N20 1_555 1_555
H70 C74 1_555 1_555
H71 C74 1_555 1_555
C75 C74 1_555 1_555
H72 C75 1_555 1_555
H73 C75 1_555 1_555
H74 C75 1_555 1_555
N16K N15 1_555 1_555
Cd3K N16K 1_555 1_555
N10K Cd3K 1_555 1_555
N9K N10K 1_555 1_555
Cd4K N9K 1_555 1_555
O2K Cd4K 1_555 1_555
Cd1K O2K 1_555 1_555
N4K Cd1K 1_555 1_555
N3K N4K 1_555 1_555
Cd2K N3K 1_555 1_555
N2K Cd2K 1_555 1_555
N1K N2K 1_555 1_555
C1K N3K 1_555 1_555
N5K Cd1K 1_555 1_555
N14K Cd1K 1_555 1_555
N13K N14K 1_555 1_555
C45K N13K 1_555 1_555
N15K Cd1K 1_555 1_555
O7K Cd4K 1_555 1_555
N8K Cd4K 1_555 1_555
N7K N8K 1_555 1_555
C23K N9K 1_555 1_555
N11K Cd3K 1_555 1_555
O5K Cd3K 1_555 1_555
O1K Cd2K 1_555 1_555
C4K O1K 1_555 1_555
C3K C4K 1_555 1_555
C2K N2K 1_555 1_555
H2K C2K 1_555 1_555
C8K C3K 1_555 1_555
C7K C8K 1_555 1_555
C6K C7K 1_555 1_555
C5K C4K 1_555 1_555
H3K C5K 1_555 1_555
H4K C6K 1_555 1_555
H5K C7K 1_555 1_555
H6K C8K 1_555 1_555
O8K Cd3K 1_555 1_555
N17K C45 1_555 1_555
N18K N17K 1_555 1_555
C60K N18K 1_555 1_555
H46K C60K 1_555 1_555
C61K C60K 1_555 1_555
C62K C61K 1_555 1_555
C63K C62K 1_555 1_555
H47K C63K 1_555 1_555
C64K C63K 1_555 1_555
H48K C64K 1_555 1_555
C65K C64K 1_555 1_555
H49K C65K 1_555 1_555
C66K C61K 1_555 1_555
H50K C66K 1_555 1_555
O9K C62K 1_555 1_555
H51K O9K 1_555 1_555
C55K O8K 1_555 1_555
C54K C55K 1_555 1_555
C53K N16K 1_555 1_555
H41K C53K 1_555 1_555
C59K C54K 1_555 1_555
C58K C59K 1_555 1_555
C57K C58K 1_555 1_555
C56K C55K 1_555 1_555
H42K C56K 1_555 1_555
H43K C57K 1_555 1_555
H44K C58K 1_555 1_555
H45K C59K 1_555 1_555
O10K Cd2K 1_555 1_555
C67K O10K 1_555 1_555
H52K C67K 1_555 1_555
N19K C67K 1_555 1_555
C68K N19K 1_555 1_555
H53K C68K 1_555 1_555
H54K C68K 1_555 1_555
H55K C68K 1_555 1_555
C69K N19K 1_555 1_555
H56K C69K 1_555 1_555
H57K C69K 1_555 1_555
H58K C69K 1_555 1_555
C33K O5K 1_555 1_555
C32K C33K 1_555 1_555
C31K N10K 1_555 1_555
H25K C31K 1_555 1_555
C37K C32K 1_555 1_555
C36K C37K 1_555 1_555
C35K C36K 1_555 1_555
C34K C33K 1_555 1_555
H26K C34K 1_555 1_555
H27K C35K 1_555 1_555
H28K C36K 1_555 1_555
H29K C37K 1_555 1_555
N12K N11K 1_555 1_555
C38K N7K 1_555 1_555
C39K C38K 1_555 1_555
C40K C39K 1_555 1_555
C41K C40K 1_555 1_555
H30K C41K 1_555 1_555
C42K C41K 1_555 1_555
H31K C42K 1_555 1_555
C43K C42K 1_555 1_555
H32K C43K 1_555 1_555
C44K C39K 1_555 1_555
H33K C44K 1_555 1_555
O6K C40K 1_555 1_555
H34K O6K 1_555 1_555
H18K N8K 1_555 1_555
C24K N8K 1_555 1_555
H19K C24K 1_555 1_555
H20K C24K 1_555 1_555
C25K C24K 1_555 1_555
C26K C25K 1_555 1_555
C27K C26K 1_555 1_555
H21K C27K 1_555 1_555
C28K C27K 1_555 1_555
H22K C28K 1_555 1_555
C29K C28K 1_555 1_555
H23K C29K 1_555 1_555
C30K C25K 1_555 1_555
H24K C30K 1_555 1_555
O4K Cd4K 1_555 1_555
O11K Cd4K 1_555 1_555
C48K O7K 1_555 1_555
C47K C48K 1_555 1_555
C46K N14K 1_555 1_555
H36K C46K 1_555 1_555
C52K C47K 1_555 1_555
C51K C52K 1_555 1_555
C50K C51K 1_555 1_555
C49K C48K 1_555 1_555
H37K C49K 1_555 1_555
H38K C50K 1_555 1_555
H39K C51K 1_555 1_555
H40K C52K 1_555 1_555
N16A N15K 1_555 1_555
Cd3A N16A 1_555 1_555
N10A Cd3A 1_555 1_555
N9A N10A 1_555 1_555
Cd4A N9A 1_555 1_555
O2A Cd4A 1_555 1_555
Cd1A O2A 1_555 1_555
N4A Cd1A 1_555 1_555
N3A N4A 1_555 1_555
Cd2A N3A 1_555 1_555
N2A Cd2A 1_555 1_555
N1A N2A 1_555 1_555
C1A N3A 1_555 1_555
N5A Cd1A 1_555 1_555
N14A Cd1A 1_555 1_555
N13A N14A 1_555 1_555
C45A N13A 1_555 1_555
N15A Cd1A 1_555 1_555
O7A Cd4A 1_555 1_555
N8A Cd4A 1_555 1_555
N7A N8A 1_555 1_555
C23A N9A 1_555 1_555
N11A Cd3A 1_555 1_555
O5A Cd3A 1_555 1_555
O1A Cd2A 1_555 1_555
C4A O1A 1_555 1_555
C3A C4A 1_555 1_555
C2A N2A 1_555 1_555
H2A C2A 1_555 1_555
C8A C3A 1_555 1_555
C7A C8A 1_555 1_555
C6A C7A 1_555 1_555
C5A C4A 1_555 1_555
H3A C5A 1_555 1_555
H4A C6A 1_555 1_555
H5A C7A 1_555 1_555
H6A C8A 1_555 1_555
O8A Cd3A 1_555 1_555
N17A C45K 1_555 1_555
N18A N17A 1_555 1_555
C60A N18A 1_555 1_555
H46A C60A 1_555 1_555
C61A C60A 1_555 1_555
C62A C61A 1_555 1_555
C63A C62A 1_555 1_555
H47A C63A 1_555 1_555
C64A C63A 1_555 1_555
H48A C64A 1_555 1_555
C65A C64A 1_555 1_555
H49A C65A 1_555 1_555
C66A C61A 1_555 1_555
H50A C66A 1_555 1_555
O9A C62A 1_555 1_555
H51A O9A 1_555 1_555
C55A O8A 1_555 1_555
C54A C55A 1_555 1_555
C53A N16A 1_555 1_555
H41A C53A 1_555 1_555
C59A C54A 1_555 1_555
C58A C59A 1_555 1_555
C57A C58A 1_555 1_555
C56A C55A 1_555 1_555
H42A C56A 1_555 1_555
H43A C57A 1_555 1_555
H44A C58A 1_555 1_555
H45A C59A 1_555 1_555
O10A Cd2A 1_555 1_555
C67A O10A 1_555 1_555
H52A C67A 1_555 1_555
N19A C67A 1_555 1_555
C68A N19A 1_555 1_555
H53A C68A 1_555 1_555
H54A C68A 1_555 1_555
H55A C68A 1_555 1_555
C69A N19A 1_555 1_555
H56A C69A 1_555 1_555
H57A C69A 1_555 1_555
H58A C69A 1_555 1_555
C33A O5A 1_555 1_555
C32A C33A 1_555 1_555
C31A N10A 1_555 1_555
H25A C31A 1_555 1_555
C37A C32A 1_555 1_555
C36A C37A 1_555 1_555
C35A C36A 1_555 1_555
C34A C33A 1_555 1_555
H26A C34A 1_555 1_555
H27A C35A 1_555 1_555
H28A C36A 1_555 1_555
H29A C37A 1_555 1_555
N12A N11A 1_555 1_555
C38A N7A 1_555 1_555
C39A C38A 1_555 1_555
C40A C39A 1_555 1_555
C41A C40A 1_555 1_555
H30A C41A 1_555 1_555
C42A C41A 1_555 1_555
H31A C42A 1_555 1_555
C43A C42A 1_555 1_555
H32A C43A 1_555 1_555
C44A C39A 1_555 1_555
H33A C44A 1_555 1_555
O6A C40A 1_555 1_555
H34A O6A 1_555 1_555
H18A N8A 1_555 1_555
C24A N8A 1_555 1_555
H19A C24A 1_555 1_555
H20A C24A 1_555 1_555
C25A C24A 1_555 1_555
C26A C25A 1_555 1_555
C27A C26A 1_555 1_555
H21A C27A 1_555 1_555
C28A C27A 1_555 1_555
H22A C28A 1_555 1_555
C29A C28A 1_555 1_555
H23A C29A 1_555 1_555
C30A C25A 1_555 1_555
H24A C30A 1_555 1_555
O4A Cd4A 1_555 1_555
O11A Cd4A 1_555 1_555
C48A O7A 1_555 1_555
C47A C48A 1_555 1_555
C46A N14A 1_555 1_555
H36A C46A 1_555 1_555
C52A C47A 1_555 1_555
C51A C52A 1_555 1_555
C50A C51A 1_555 1_555
C49A C48A 1_555 1_555
H37A C49A 1_555 1_555
H38A C50A 1_555 1_555
H39A C51A 1_555 1_555
H40A C52A 1_555 1_555
N16I N15A 1_555 1_555
Cd3I N16I 1_555 1_555
N10I Cd3I 1_555 1_555
N9I N10I 1_555 1_555
Cd4I N9I 1_555 1_555
O2I Cd4I 1_555 1_555
Cd1I O2I 1_555 1_555
N4I Cd1I 1_555 1_555
N3I N4I 1_555 1_555
Cd2I N3I 1_555 1_555
N2I Cd2I 1_555 1_555
N1I N2I 1_555 1_555
C1I N3I 1_555 1_555
N5I Cd1I 1_555 1_555
N14I Cd1I 1_555 1_555
N13I N14I 1_555 1_555
C45I N13I 1_555 1_555
N15I Cd1I 1_555 1_555
O7I Cd4I 1_555 1_555
N8I Cd4I 1_555 1_555
N7I N8I 1_555 1_555
C23I N9I 1_555 1_555
N11I Cd3I 1_555 1_555
O5I Cd3I 1_555 1_555
O1I Cd2I 1_555 1_555
C4I O1I 1_555 1_555
C3I C4I 1_555 1_555
C2I N2I 1_555 1_555
H2I C2I 1_555 1_555
C8I C3I 1_555 1_555
C7I C8I 1_555 1_555
C6I C7I 1_555 1_555
C5I C4I 1_555 1_555
H3I C5I 1_555 1_555
H4I C6I 1_555 1_555
H5I C7I 1_555 1_555
H6I C8I 1_555 1_555
O8I Cd3I 1_555 1_555
N17I C45A 1_555 1_555
N18I N17I 1_555 1_555
C60I N18I 1_555 1_555
H46I C60I 1_555 1_555
C61I C60I 1_555 1_555
C62I C61I 1_555 1_555
C63I C62I 1_555 1_555
H47I C63I 1_555 1_555
C64I C63I 1_555 1_555
H48I C64I 1_555 1_555
C65I C64I 1_555 1_555
H49I C65I 1_555 1_555
C66I C61I 1_555 1_555
H50I C66I 1_555 1_555
O9I C62I 1_555 1_555
H51I O9I 1_555 1_555
C55I O8I 1_555 1_555
C54I C55I 1_555 1_555
C53I N16I 1_555 1_555
H41I C53I 1_555 1_555
C59I C54I 1_555 1_555
C58I C59I 1_555 1_555
C57I C58I 1_555 1_555
C56I C55I 1_555 1_555
H42I C56I 1_555 1_555
H43I C57I 1_555 1_555
H44I C58I 1_555 1_555
H45I C59I 1_555 1_555
O10I Cd2I 1_555 1_555
C67I O10I 1_555 1_555
H52I C67I 1_555 1_555
N19I C67I 1_555 1_555
C68I N19I 1_555 1_555
H53I C68I 1_555 1_555
H54I C68I 1_555 1_555
H55I C68I 1_555 1_555
C69I N19I 1_555 1_555
H56I C69I 1_555 1_555
H57I C69I 1_555 1_555
H58I C69I 1_555 1_555
C33I O5I 1_555 1_555
C32I C33I 1_555 1_555
C31I N10I 1_555 1_555
H25I C31I 1_555 1_555
C37I C32I 1_555 1_555
C36I C37I 1_555 1_555
C35I C36I 1_555 1_555
C34I C33I 1_555 1_555
H26I C34I 1_555 1_555
H27I C35I 1_555 1_555
H28I C36I 1_555 1_555
H29I C37I 1_555 1_555
N12I N11I 1_555 1_555
C38I N7I 1_555 1_555
C39I C38I 1_555 1_555
C40I C39I 1_555 1_555
C41I C40I 1_555 1_555
H30I C41I 1_555 1_555
C42I C41I 1_555 1_555
H31I C42I 1_555 1_555
C43I C42I 1_555 1_555
H32I C43I 1_555 1_555
C44I C39I 1_555 1_555
H33I C44I 1_555 1_555
O6I C40I 1_555 1_555
H34I O6I 1_555 1_555
H18I N8I 1_555 1_555
C24I N8I 1_555 1_555
H19I C24I 1_555 1_555
H20I C24I 1_555 1_555
C25I C24I 1_555 1_555
C26I C25I 1_555 1_555
C27I C26I 1_555 1_555
H21I C27I 1_555 1_555
C28I C27I 1_555 1_555
H22I C28I 1_555 1_555
C29I C28I 1_555 1_555
H23I C29I 1_555 1_555
C30I C25I 1_555 1_555
H24I C30I 1_555 1_555
O4I Cd4I 1_555 1_555
O11I Cd4I 1_555 1_555
C48I O7I 1_555 1_555
C47I C48I 1_555 1_555
C46I N14I 1_555 1_555
H36I C46I 1_555 1_555
C52I C47I 1_555 1_555
C51I C52I 1_555 1_555
C50I C51I 1_555 1_555
C49I C48I 1_555 1_555
H37I C49I 1_555 1_555
H38I C50I 1_555 1_555
H39I C51I 1_555 1_555
H40I C52I 1_555 1_555
N16B N15I 1_555 1_555
Cd3B N16B 1_555 1_555
N10B Cd3B 1_555 1_555
N9B N10B 1_555 1_555
Cd4B N9B 1_555 1_555
O2B Cd4B 1_555 1_555
Cd1B O2B 1_555 1_555
N4B Cd1B 1_555 1_555
N3B N4B 1_555 1_555
Cd2B N3B 1_555 1_555
N2B Cd2B 1_555 1_555
N1B N2B 1_555 1_555
C1B N3B 1_555 1_555
N5B Cd1B 1_555 1_555
N14B Cd1B 1_555 1_555
N13B N14B 1_555 1_555
C45B N13B 1_555 1_555
N15B Cd1B 1_555 1_555
O7B Cd4B 1_555 1_555
N8B Cd4B 1_555 1_555
N7B N8B 1_555 1_555
C23B N9B 1_555 1_555
N11B Cd3B 1_555 1_555
O5B Cd3B 1_555 1_555
O1B Cd2B 1_555 1_555
C4B O1B 1_555 1_555
C3B C4B 1_555 1_555
C2B N2B 1_555 1_555
H2B C2B 1_555 1_555
C8B C3B 1_555 1_555
C7B C8B 1_555 1_555
C6B C7B 1_555 1_555
C5B C4B 1_555 1_555
H3B C5B 1_555 1_555
H4B C6B 1_555 1_555
H5B C7B 1_555 1_555
H6B C8B 1_555 1_555
O8B Cd3B 1_555 1_555
N17B C45I 1_555 1_555
N18B N17B 1_555 1_555
C60B N18B 1_555 1_555
H46B C60B 1_555 1_555
C61B C60B 1_555 1_555
C62B C61B 1_555 1_555
C63B C62B 1_555 1_555
H47B C63B 1_555 1_555
C64B C63B 1_555 1_555
H48B C64B 1_555 1_555
C65B C64B 1_555 1_555
H49B C65B 1_555 1_555
C66B C61B 1_555 1_555
H50B C66B 1_555 1_555
O9B C62B 1_555 1_555
H51B O9B 1_555 1_555
C55B O8B 1_555 1_555
C54B C55B 1_555 1_555
C53B N16B 1_555 1_555
H41B C53B 1_555 1_555
C59B C54B 1_555 1_555
C58B C59B 1_555 1_555
C57B C58B 1_555 1_555
C56B C55B 1_555 1_555
H42B C56B 1_555 1_555
H43B C57B 1_555 1_555
H44B C58B 1_555 1_555
H45B C59B 1_555 1_555
O10B Cd2B 1_555 1_555
C67B O10B 1_555 1_555
H52B C67B 1_555 1_555
N19B C67B 1_555 1_555
C68B N19B 1_555 1_555
H53B C68B 1_555 1_555
H54B C68B 1_555 1_555
H55B C68B 1_555 1_555
C69B N19B 1_555 1_555
H56B C69B 1_555 1_555
H57B C69B 1_555 1_555
H58B C69B 1_555 1_555
C33B O5B 1_555 1_555
C32B C33B 1_555 1_555
C31B N10B 1_555 1_555
H25B C31B 1_555 1_555
C37B C32B 1_555 1_555
C36B C37B 1_555 1_555
C35B C36B 1_555 1_555
C34B C33B 1_555 1_555
H26B C34B 1_555 1_555
H27B C35B 1_555 1_555
H28B C36B 1_555 1_555
H29B C37B 1_555 1_555
N12B N11B 1_555 1_555
C38B N7B 1_555 1_555
C39B C38B 1_555 1_555
C40B C39B 1_555 1_555
C41B C40B 1_555 1_555
H30B C41B 1_555 1_555
C42B C41B 1_555 1_555
H31B C42B 1_555 1_555
C43B C42B 1_555 1_555
H32B C43B 1_555 1_555
C44B C39B 1_555 1_555
H33B C44B 1_555 1_555
O6B C40B 1_555 1_555
H34B O6B 1_555 1_555
H18B N8B 1_555 1_555
C24B N8B 1_555 1_555
H19B C24B 1_555 1_555
H20B C24B 1_555 1_555
C25B C24B 1_555 1_555
C26B C25B 1_555 1_555
C27B C26B 1_555 1_555
H21B C27B 1_555 1_555
C28B C27B 1_555 1_555
H22B C28B 1_555 1_555
C29B C28B 1_555 1_555
H23B C29B 1_555 1_555
C30B C25B 1_555 1_555
H24B C30B 1_555 1_555
O4B Cd4B 1_555 1_555
O11B Cd4B 1_555 1_555
C48B O7B 1_555 1_555
C47B C48B 1_555 1_555
C46B N14B 1_555 1_555
H36B C46B 1_555 1_555
C52B C47B 1_555 1_555
C51B C52B 1_555 1_555
C50B C51B 1_555 1_555
C49B C48B 1_555 1_555
H37B C49B 1_555 1_555
H38B C50B 1_555 1_555
H39B C51B 1_555 1_555
H40B C52B 1_555 1_555
N16J N15B 1_555 1_555
Cd3J N16J 1_555 1_555
N10J Cd3J 1_555 1_555
N9J N10J 1_555 1_555
Cd4J N9J 1_555 1_555
O2J Cd4J 1_555 1_555
Cd1J O2J 1_555 1_555
N4J Cd1J 1_555 1_555
N3J N4J 1_555 1_555
Cd2J N3J 1_555 1_555
N2J Cd2J 1_555 1_555
N1J N2J 1_555 1_555
C1J N3J 1_555 1_555
N5J Cd1J 1_555 1_555
N14J Cd1J 1_555 1_555
N13J N14J 1_555 1_555
C45J N17 1_555 1_555
N15J N16 1_555 1_555
O7J Cd4J 1_555 1_555
N8J Cd4J 1_555 1_555
N7J N8J 1_555 1_555
C23J N9J 1_555 1_555
N11J Cd3J 1_555 1_555
O5J Cd3J 1_555 1_555
O1J Cd2J 1_555 1_555
C4J O1J 1_555 1_555
C3J C4J 1_555 1_555
C2J N2J 1_555 1_555
H2J C2J 1_555 1_555
C8J C3J 1_555 1_555
C7J C8J 1_555 1_555
C6J C7J 1_555 1_555
C5J C4J 1_555 1_555
H3J C5J 1_555 1_555
H4J C6J 1_555 1_555
H5J C7J 1_555 1_555
H6J C8J 1_555 1_555
O8J Cd3J 1_555 1_555
N17J C45B 1_555 1_555
N18J N17J 1_555 1_555
C60J N18J 1_555 1_555
H46J C60J 1_555 1_555
C61J C60J 1_555 1_555
C62J C61J 1_555 1_555
C63J C62J 1_555 1_555
H47J C63J 1_555 1_555
C64J C63J 1_555 1_555
H48J C64J 1_555 1_555
C65J C64J 1_555 1_555
H49J C65J 1_555 1_555
C66J C61J 1_555 1_555
H50J C66J 1_555 1_555
O9J C62J 1_555 1_555
H51J O9J 1_555 1_555
C55J O8J 1_555 1_555
C54J C55J 1_555 1_555
C53J N16J 1_555 1_555
H41J C53J 1_555 1_555
C59J C54J 1_555 1_555
C58J C59J 1_555 1_555
C57J C58J 1_555 1_555
C56J C55J 1_555 1_555
H42J C56J 1_555 1_555
H43J C57J 1_555 1_555
H44J C58J 1_555 1_555
H45J C59J 1_555 1_555
O10J Cd2J 1_555 1_555
C67J O10J 1_555 1_555
H52J C67J 1_555 1_555
N19J C67J 1_555 1_555
C68J N19J 1_555 1_555
H53J C68J 1_555 1_555
H54J C68J 1_555 1_555
H55J C68J 1_555 1_555
C69J N19J 1_555 1_555
H56J C69J 1_555 1_555
H57J C69J 1_555 1_555
H58J C69J 1_555 1_555
C33J O5J 1_555 1_555
C32J C33J 1_555 1_555
C31J N10J 1_555 1_555
H25J C31J 1_555 1_555
C37J C32J 1_555 1_555
C36J C37J 1_555 1_555
C35J C36J 1_555 1_555
C34J C33J 1_555 1_555
H26J C34J 1_555 1_555
H27J C35J 1_555 1_555
H28J C36J 1_555 1_555
H29J C37J 1_555 1_555
N12J N11J 1_555 1_555
C38J N7J 1_555 1_555
C39J C38J 1_555 1_555
C40J C39J 1_555 1_555
C41J C40J 1_555 1_555
H30J C41J 1_555 1_555
C42J C41J 1_555 1_555
H31J C42J 1_555 1_555
C43J C42J 1_555 1_555
H32J C43J 1_555 1_555
C44J C39J 1_555 1_555
H33J C44J 1_555 1_555
O6J C40J 1_555 1_555
H34J O6J 1_555 1_555
H18J N8J 1_555 1_555
C24J N8J 1_555 1_555
H19J C24J 1_555 1_555
H20J C24J 1_555 1_555
C25J C24J 1_555 1_555
C26J C25J 1_555 1_555
C27J C26J 1_555 1_555
H21J C27J 1_555 1_555
C28J C27J 1_555 1_555
H22J C28J 1_555 1_555
C29J C28J 1_555 1_555
H23J C29J 1_555 1_555
C30J C25J 1_555 1_555
H24J C30J 1_555 1_555
O4J Cd4J 1_555 1_555
O11J Cd4J 1_555 1_555
C48J O7J 1_555 1_555
C47J C48J 1_555 1_555
C46J N14J 1_555 1_555
H36J C46J 1_555 1_555
C52J C47J 1_555 1_555
C51J C52J 1_555 1_555
C50J C51J 1_555 1_555
C49J C48J 1_555 1_555
H37J C49J 1_555 1_555
H38J C50J 1_555 1_555
H39J C51J 1_555 1_555
H40J C52J 1_555 1_555
H35J N13J 1_555 1_555
N6J N5J 1_555 1_555
C16J N6J 1_555 1_555
H12J C16J 1_555 1_555
C17J C16J 1_555 1_555
C18J C17J 1_555 1_555
C19J C18J 1_555 1_555
H13J C19J 1_555 1_555
C20J C19J 1_555 1_555
H14J C20J 1_555 1_555
C21J C20J 1_555 1_555
H15J C21J 1_555 1_555
C22J C17J 1_555 1_555
H16J C22J 1_555 1_555
O3J C18J 1_555 1_555
H17J O3J 1_555 1_555
H1J N1J 1_555 1_555
C9J N4J 1_555 1_555
H7J C9J 1_555 1_555
C10J C9J 1_555 1_555
C11J O2J 1_555 1_555
C12J C11J 1_555 1_555
H8J C12J 1_555 1_555
C13J C12J 1_555 1_555
H9J C13J 1_555 1_555
C14J C13J 1_555 1_555
H10J C14J 1_555 1_555
C15J C10J 1_555 1_555
H11J C15J 1_555 1_555
H35B N13B 1_555 1_555
N6B N5B 1_555 1_555
C16B N6B 1_555 1_555
H12B C16B 1_555 1_555
C17B C16B 1_555 1_555
C18B C17B 1_555 1_555
C19B C18B 1_555 1_555
H13B C19B 1_555 1_555
C20B C19B 1_555 1_555
H14B C20B 1_555 1_555
C21B C20B 1_555 1_555
H15B C21B 1_555 1_555
C22B C17B 1_555 1_555
H16B C22B 1_555 1_555
O3B C18B 1_555 1_555
H17B O3B 1_555 1_555
H1B N1B 1_555 1_555
C9B N4B 1_555 1_555
H7B C9B 1_555 1_555
C10B C9B 1_555 1_555
C11B O2B 1_555 1_555
C12B C11B 1_555 1_555
H8B C12B 1_555 1_555
C13B C12B 1_555 1_555
H9B C13B 1_555 1_555
C14B C13B 1_555 1_555
H10B C14B 1_555 1_555
C15B C10B 1_555 1_555
H11B C15B 1_555 1_555
H35I N13I 1_555 1_555
N6I N5I 1_555 1_555
C16I N6I 1_555 1_555
H12I C16I 1_555 1_555
C17I C16I 1_555 1_555
C18I C17I 1_555 1_555
C19I C18I 1_555 1_555
H13I C19I 1_555 1_555
C20I C19I 1_555 1_555
H14I C20I 1_555 1_555
C21I C20I 1_555 1_555
H15I C21I 1_555 1_555
C22I C17I 1_555 1_555
H16I C22I 1_555 1_555
O3I C18I 1_555 1_555
H17I O3I 1_555 1_555
H1I N1I 1_555 1_555
C9I N4I 1_555 1_555
H7I C9I 1_555 1_555
C10I C9I 1_555 1_555
C11I O2I 1_555 1_555
C12I C11I 1_555 1_555
H8I C12I 1_555 1_555
C13I C12I 1_555 1_555
H9I C13I 1_555 1_555
C14I C13I 1_555 1_555
H10I C14I 1_555 1_555
C15I C10I 1_555 1_555
H11I C15I 1_555 1_555
H35A N13A 1_555 1_555
N6A N5A 1_555 1_555
C16A N6A 1_555 1_555
H12A C16A 1_555 1_555
C17A C16A 1_555 1_555
C18A C17A 1_555 1_555
C19A C18A 1_555 1_555
H13A C19A 1_555 1_555
C20A C19A 1_555 1_555
H14A C20A 1_555 1_555
C21A C20A 1_555 1_555
H15A C21A 1_555 1_555
C22A C17A 1_555 1_555
H16A C22A 1_555 1_555
O3A C18A 1_555 1_555
H17A O3A 1_555 1_555
H1A N1A 1_555 1_555
C9A N4A 1_555 1_555
H7A C9A 1_555 1_555
C10A C9A 1_555 1_555
C11A O2A 1_555 1_555
C12A C11A 1_555 1_555
H8A C12A 1_555 1_555
C13A C12A 1_555 1_555
H9A C13A 1_555 1_555
C14A C13A 1_555 1_555
H10A C14A 1_555 1_555
C15A C10A 1_555 1_555
H11A C15A 1_555 1_555
H35K N13K 1_555 1_555
N6K N5K 1_555 1_555
C16K N6K 1_555 1_555
H12K C16K 1_555 1_555
C17K C16K 1_555 1_555
C18K C17K 1_555 1_555
C19K C18K 1_555 1_555
H13K C19K 1_555 1_555
C20K C19K 1_555 1_555
H14K C20K 1_555 1_555
C21K C20K 1_555 1_555
H15K C21K 1_555 1_555
C22K C17K 1_555 1_555
H16K C22K 1_555 1_555
O3K C18K 1_555 1_555
H17K O3K 1_555 1_555
H1K N1K 1_555 1_555
C9K N4K 1_555 1_555
H7K C9K 1_555 1_555
C10K C9K 1_555 1_555
C11K O2K 1_555 1_555
C12K C11K 1_555 1_555
H8K C12K 1_555 1_555
C13K C12K 1_555 1_555
H9K C13K 1_555 1_555
C14K C13K 1_555 1_555
H10K C14K 1_555 1_555
C15K C10K 1_555 1_555
H11K C15K 1_555 1_555
Cd3 O8 1_555 1_555
Cd3 O5 1_555 1_555
Cd4 O7 1_555 1_555
C1 N5 1_555 1_555
C1 N3 1_555 1_555
C4 O1 1_555 1_555
C7 C8 1_555 1_555
C11 O2 1_555 1_555
C14 C15 1_555 1_555
C21 C22 1_555 1_555
C23 N9 1_555 1_555
C23 N11 1_555 1_555
C26 O4 1_555 1_555
C29 C30 1_555 1_555
C33 O5 1_555 1_555
C36 C37 1_555 1_555
N12 C38 1_555 1_555
C43 C44 1_555 1_555
C45 N15 1_555 1_555
N13 N14 1_555 1_555
C48 O7 1_555 1_555
C51 C52 1_555 1_555
C55 O8 1_555 1_555
C58 C59 1_555 1_555
C65 C66 1_555 1_555
Cd3K N17K 1_555 1_555
Cd1K O7K 1_555 1_555
Cd2K O8K 1_555 1_555
Cd2K O5K 1_555 1_555
N1K C1K 1_555 1_555
C1K N5K 1_555 1_555
C45K N15K 1_555 1_555
N7K C23K 1_555 1_555
C23K N11K 1_555 1_555
C3K C2K 1_555 1_555
C6K C5K 1_555 1_555
C65K C66K 1_555 1_555
C54K C53K 1_555 1_555
C57K C56K 1_555 1_555
C32K C31K 1_555 1_555
C35K C34K 1_555 1_555
N12K C38K 1_555 1_555
C43K C44K 1_555 1_555
C26K O4K 1_555 1_555
C29K C30K 1_555 1_555
C47K C46K 1_555 1_555
C50K C49K 1_555 1_555
Cd3A N17A 1_555 1_555
Cd1A O7A 1_555 1_555
Cd2A O8A 1_555 1_555
Cd2A O5A 1_555 1_555
N1A C1A 1_555 1_555
C1A N5A 1_555 1_555
C45A N15A 1_555 1_555
N7A C23A 1_555 1_555
C23A N11A 1_555 1_555
C3A C2A 1_555 1_555
C6A C5A 1_555 1_555
C65A C66A 1_555 1_555
C54A C53A 1_555 1_555
C57A C56A 1_555 1_555
C32A C31A 1_555 1_555
C35A C34A 1_555 1_555
N12A C38A 1_555 1_555
C43A C44A 1_555 1_555
C26A O4A 1_555 1_555
C29A C30A 1_555 1_555
C47A C46A 1_555 1_555
C50A C49A 1_555 1_555
Cd3I N17I 1_555 1_555
Cd1I O7I 1_555 1_555
Cd2I O8I 1_555 1_555
Cd2I O5I 1_555 1_555
N1I C1I 1_555 1_555
C1I N5I 1_555 1_555
C45I N15I 1_555 1_555
N7I C23I 1_555 1_555
C23I N11I 1_555 1_555
C3I C2I 1_555 1_555
C6I C5I 1_555 1_555
C65I C66I 1_555 1_555
C54I C53I 1_555 1_555
C57I C56I 1_555 1_555
C32I C31I 1_555 1_555
C35I C34I 1_555 1_555
N12I C38I 1_555 1_555
C43I C44I 1_555 1_555
C26I O4I 1_555 1_555
C29I C30I 1_555 1_555
C47I C46I 1_555 1_555
C50I C49I 1_555 1_555
Cd3B N17B 1_555 1_555
Cd1B O7B 1_555 1_555
Cd2B O8B 1_555 1_555
Cd2B O5B 1_555 1_555
N1B C1B 1_555 1_555
C1B N5B 1_555 1_555
C45B N15B 1_555 1_555
N7B C23B 1_555 1_555
C23B N11B 1_555 1_555
C3B C2B 1_555 1_555
C6B C5B 1_555 1_555
C65B C66B 1_555 1_555
C54B C53B 1_555 1_555
C57B C56B 1_555 1_555
C32B C31B 1_555 1_555
C35B C34B 1_555 1_555
N12B C38B 1_555 1_555
C43B C44B 1_555 1_555
C26B O4B 1_555 1_555
C29B C30B 1_555 1_555
C47B C46B 1_555 1_555
C50B C49B 1_555 1_555
Cd3J N17J 1_555 1_555
Cd1J O7J 1_555 1_555
Cd1J N15J 1_555 1_555
Cd2J O8J 1_555 1_555
Cd2J O5J 1_555 1_555
N1J C1J 1_555 1_555
C1J N5J 1_555 1_555
N13J C45J 1_555 1_555
C45J N15J 1_555 1_555
N7J C23J 1_555 1_555
C23J N11J 1_555 1_555
C3J C2J 1_555 1_555
C6J C5J 1_555 1_555
C65J C66J 1_555 1_555
C54J C53J 1_555 1_555
C57J C56J 1_555 1_555
C32J C31J 1_555 1_555
C35J C34J 1_555 1_555
N12J C38J 1_555 1_555
C43J C44J 1_555 1_555
C26J O4J 1_555 1_555
C29J C30J 1_555 1_555
C47J C46J 1_555 1_555
C50J C49J 1_555 1_555
C21J C22J 1_555 1_555
C10J C11J 1_555 1_555
C14J C15J 1_555 1_555
C21B C22B 1_555 1_555
C10B C11B 1_555 1_555
C14B C15B 1_555 1_555
C21I C22I 1_555 1_555
C10I C11I 1_555 1_555
C14I C15I 1_555 1_555
C21A C22A 1_555 1_555
C10A C11A 1_555 1_555
C14A C15A 1_555 1_555
C21K C22K 1_555 1_555
C10K C11K 1_555 1_555
C14K C15K 1_555 1_555

#END
