# generated using pymatgen
data_CuH6C18S3NO5
_symmetry_space_group_name_H-M   'P 1'
_cell_length_a   29.45700000
_cell_length_b   29.45700000
_cell_length_c   54.23600000
_cell_angle_alpha   90.00000000
_cell_angle_beta   90.00000000
_cell_angle_gamma   120.00000000
_symmetry_Int_Tables_number   1
_chemical_formula_structural   CuH6C18S3NO5
_chemical_formula_sum   'Cu36 H216 C648 S108 N36 O180'
_cell_volume   40756.35282583
_cell_formula_units_Z   36
loop_
 _symmetry_equiv_pos_site_id
 _symmetry_equiv_pos_as_xyz
  1  'x, y, z'
loop_
 _atom_site_type_symbol
 _atom_site_label
 _atom_site_symmetry_multiplicity
 _atom_site_fract_x
 _atom_site_fract_y
 _atom_site_fract_z
 _atom_site_occupancy
  Cu  Cu1  1  0.926941  0.215300  0.962674  1.0
  Cu  Cu2  1  0.288359  0.073059  0.962674  1.0
  Cu  Cu3  1  0.784700  0.711641  0.962674  1.0
  Cu  Cu4  1  0.260274  0.881967  0.629341  1.0
  Cu  Cu5  1  0.621692  0.739726  0.629341  1.0
  Cu  Cu6  1  0.118033  0.378308  0.629341  1.0
  Cu  Cu7  1  0.593608  0.548633  0.296007  1.0
  Cu  Cu8  1  0.955026  0.406392  0.296007  1.0
  Cu  Cu9  1  0.451367  0.044974  0.296007  1.0
  Cu  Cu10  1  0.073059  0.784700  0.037326  1.0
  Cu  Cu11  1  0.711641  0.926941  0.037326  1.0
  Cu  Cu12  1  0.215300  0.288359  0.037326  1.0
  Cu  Cu13  1  0.739726  0.118033  0.370659  1.0
  Cu  Cu14  1  0.378308  0.260274  0.370659  1.0
  Cu  Cu15  1  0.881967  0.621692  0.370659  1.0
  Cu  Cu16  1  0.406392  0.451367  0.703993  1.0
  Cu  Cu17  1  0.044974  0.593608  0.703993  1.0
  Cu  Cu18  1  0.548633  0.955026  0.703993  1.0
  Cu  Cu19  1  0.868955  0.240611  0.934183  1.0
  Cu  Cu20  1  0.371656  0.131045  0.934183  1.0
  Cu  Cu21  1  0.759389  0.628344  0.934183  1.0
  Cu  Cu22  1  0.202288  0.907278  0.600850  1.0
  Cu  Cu23  1  0.704989  0.797712  0.600850  1.0
  Cu  Cu24  1  0.092722  0.295011  0.600850  1.0
  Cu  Cu25  1  0.535622  0.573944  0.267516  1.0
  Cu  Cu26  1  0.038323  0.464378  0.267516  1.0
  Cu  Cu27  1  0.426056  0.961677  0.267516  1.0
  Cu  Cu28  1  0.131045  0.759389  0.065817  1.0
  Cu  Cu29  1  0.628344  0.868955  0.065817  1.0
  Cu  Cu30  1  0.240611  0.371656  0.065817  1.0
  Cu  Cu31  1  0.797712  0.092722  0.399150  1.0
  Cu  Cu32  1  0.295011  0.202288  0.399150  1.0
  Cu  Cu33  1  0.907278  0.704989  0.399150  1.0
  Cu  Cu34  1  0.464378  0.426056  0.732484  1.0
  Cu  Cu35  1  0.961677  0.535622  0.732484  1.0
  Cu  Cu36  1  0.573944  0.038323  0.732484  1.0
  H  H37  1  0.911600  0.078800  0.915300  1.0
  H  H38  1  0.167200  0.088400  0.915300  1.0
  H  H39  1  0.921200  0.832800  0.915300  1.0
  H  H40  1  0.244933  0.745467  0.581967  1.0
  H  H41  1  0.500533  0.755067  0.581967  1.0
  H  H42  1  0.254533  0.499467  0.581967  1.0
  H  H43  1  0.578267  0.412133  0.248633  1.0
  H  H44  1  0.833867  0.421733  0.248633  1.0
  H  H45  1  0.587867  0.166133  0.248633  1.0
  H  H46  1  0.088400  0.921200  0.084700  1.0
  H  H47  1  0.832800  0.911600  0.084700  1.0
  H  H48  1  0.078800  0.167200  0.084700  1.0
  H  H49  1  0.755067  0.254533  0.418033  1.0
  H  H50  1  0.499467  0.244933  0.418033  1.0
  H  H51  1  0.745467  0.500533  0.418033  1.0
  H  H52  1  0.421733  0.587867  0.751367  1.0
  H  H53  1  0.166133  0.578267  0.751367  1.0
  H  H54  1  0.412133  0.833867  0.751367  1.0
  H  H55  1  0.881400  0.016000  0.881600  1.0
  H  H56  1  0.134600  0.118600  0.881600  1.0
  H  H57  1  0.984000  0.865400  0.881600  1.0
  H  H58  1  0.214733  0.682667  0.548267  1.0
  H  H59  1  0.467933  0.785267  0.548267  1.0
  H  H60  1  0.317333  0.532067  0.548267  1.0
  H  H61  1  0.548067  0.349333  0.214933  1.0
  H  H62  1  0.801267  0.451933  0.214933  1.0
  H  H63  1  0.650667  0.198733  0.214933  1.0
  H  H64  1  0.118600  0.984000  0.118400  1.0
  H  H65  1  0.865400  0.881400  0.118400  1.0
  H  H66  1  0.016000  0.134600  0.118400  1.0
  H  H67  1  0.785267  0.317333  0.451733  1.0
  H  H68  1  0.532067  0.214733  0.451733  1.0
  H  H69  1  0.682667  0.467933  0.451733  1.0
  H  H70  1  0.451933  0.650667  0.785067  1.0
  H  H71  1  0.198733  0.548067  0.785067  1.0
  H  H72  1  0.349333  0.801267  0.785067  1.0
  H  H73  1  0.837800  0.964600  0.842600  1.0
  H  H74  1  0.126800  0.162200  0.842600  1.0
  H  H75  1  0.035400  0.873200  0.842600  1.0
  H  H76  1  0.171133  0.631267  0.509267  1.0
  H  H77  1  0.460133  0.828867  0.509267  1.0
  H  H78  1  0.368733  0.539867  0.509267  1.0
  H  H79  1  0.504467  0.297933  0.175933  1.0
  H  H80  1  0.793467  0.495533  0.175933  1.0
  H  H81  1  0.702067  0.206533  0.175933  1.0
  H  H82  1  0.162200  0.035400  0.157400  1.0
  H  H83  1  0.873200  0.837800  0.157400  1.0
  H  H84  1  0.964600  0.126800  0.157400  1.0
  H  H85  1  0.828867  0.368733  0.490733  1.0
  H  H86  1  0.539867  0.171133  0.490733  1.0
  H  H87  1  0.631267  0.460133  0.490733  1.0
  H  H88  1  0.495533  0.702067  0.824067  1.0
  H  H89  1  0.206533  0.504467  0.824067  1.0
  H  H90  1  0.297933  0.793467  0.824067  1.0
  H  H91  1  0.785300  0.930100  0.804800  1.0
  H  H92  1  0.144800  0.214700  0.804800  1.0
  H  H93  1  0.069900  0.855200  0.804800  1.0
  H  H94  1  0.118633  0.596767  0.471467  1.0
  H  H95  1  0.478133  0.881367  0.471467  1.0
  H  H96  1  0.403233  0.521867  0.471467  1.0
  H  H97  1  0.451967  0.263433  0.138133  1.0
  H  H98  1  0.811467  0.548033  0.138133  1.0
  H  H99  1  0.736567  0.188533  0.138133  1.0
  H  H100  1  0.214700  0.069900  0.195200  1.0
  H  H101  1  0.855200  0.785300  0.195200  1.0
  H  H102  1  0.930100  0.144800  0.195200  1.0
  H  H103  1  0.881367  0.403233  0.528533  1.0
  H  H104  1  0.521867  0.118633  0.528533  1.0
  H  H105  1  0.596767  0.478133  0.528533  1.0
  H  H106  1  0.548033  0.736567  0.861867  1.0
  H  H107  1  0.188533  0.451967  0.861867  1.0
  H  H108  1  0.263433  0.811467  0.861867  1.0
  H  H109  1  0.722500  0.908500  0.770000  1.0
  H  H110  1  0.186000  0.277500  0.770000  1.0
  H  H111  1  0.091500  0.814000  0.770000  1.0
  H  H112  1  0.055833  0.575167  0.436667  1.0
  H  H113  1  0.519333  0.944167  0.436667  1.0
  H  H114  1  0.424833  0.480667  0.436667  1.0
  H  H115  1  0.389167  0.241833  0.103333  1.0
  H  H116  1  0.852667  0.610833  0.103333  1.0
  H  H117  1  0.758167  0.147333  0.103333  1.0
  H  H118  1  0.277500  0.091500  0.230000  1.0
  H  H119  1  0.814000  0.722500  0.230000  1.0
  H  H120  1  0.908500  0.186000  0.230000  1.0
  H  H121  1  0.944167  0.424833  0.563333  1.0
  H  H122  1  0.480667  0.055833  0.563333  1.0
  H  H123  1  0.575167  0.519333  0.563333  1.0
  H  H124  1  0.610833  0.758167  0.896667  1.0
  H  H125  1  0.147333  0.389167  0.896667  1.0
  H  H126  1  0.241833  0.852667  0.896667  1.0
  H  H127  1  0.657200  0.903900  0.741000  1.0
  H  H128  1  0.246700  0.342800  0.741000  1.0
  H  H129  1  0.096100  0.753300  0.741000  1.0
  H  H130  1  0.990533  0.570567  0.407667  1.0
  H  H131  1  0.580033  0.009467  0.407667  1.0
  H  H132  1  0.429433  0.419967  0.407667  1.0
  H  H133  1  0.323867  0.237233  0.074333  1.0
  H  H134  1  0.913367  0.676133  0.074333  1.0
  H  H135  1  0.762767  0.086633  0.074333  1.0
  H  H136  1  0.342800  0.096100  0.259000  1.0
  H  H137  1  0.753300  0.657200  0.259000  1.0
  H  H138  1  0.903900  0.246700  0.259000  1.0
  H  H139  1  0.009467  0.429433  0.592333  1.0
  H  H140  1  0.419967  0.990533  0.592333  1.0
  H  H141  1  0.570567  0.580033  0.592333  1.0
  H  H142  1  0.676133  0.762767  0.925667  1.0
  H  H143  1  0.086633  0.323867  0.925667  1.0
  H  H144  1  0.237233  0.913367  0.925667  1.0
  H  H145  1  0.792700  0.092500  0.010600  1.0
  H  H146  1  0.299800  0.207300  0.010600  1.0
  H  H147  1  0.907500  0.700200  0.010600  1.0
  H  H148  1  0.126033  0.759167  0.677267  1.0
  H  H149  1  0.633133  0.873967  0.677267  1.0
  H  H150  1  0.240833  0.366867  0.677267  1.0
  H  H151  1  0.459367  0.425833  0.343933  1.0
  H  H152  1  0.966467  0.540633  0.343933  1.0
  H  H153  1  0.574167  0.033533  0.343933  1.0
  H  H154  1  0.207300  0.907500  0.989400  1.0
  H  H155  1  0.700200  0.792700  0.989400  1.0
  H  H156  1  0.092500  0.299800  0.989400  1.0
  H  H157  1  0.873967  0.240833  0.322733  1.0
  H  H158  1  0.366867  0.126033  0.322733  1.0
  H  H159  1  0.759167  0.633133  0.322733  1.0
  H  H160  1  0.540633  0.574167  0.656067  1.0
  H  H161  1  0.033533  0.459367  0.656067  1.0
  H  H162  1  0.425833  0.966467  0.656067  1.0
  H  H163  1  0.704700  0.048500  0.028100  1.0
  H  H164  1  0.343800  0.295300  0.028100  1.0
  H  H165  1  0.951500  0.656200  0.028100  1.0
  H  H166  1  0.038033  0.715167  0.694767  1.0
  H  H167  1  0.677133  0.961967  0.694767  1.0
  H  H168  1  0.284833  0.322867  0.694767  1.0
  H  H169  1  0.371367  0.381833  0.361433  1.0
  H  H170  1  0.010467  0.628633  0.361433  1.0
  H  H171  1  0.618167  0.989533  0.361433  1.0
  H  H172  1  0.295300  0.951500  0.971900  1.0
  H  H173  1  0.656200  0.704700  0.971900  1.0
  H  H174  1  0.048500  0.343800  0.971900  1.0
  H  H175  1  0.961967  0.284833  0.305233  1.0
  H  H176  1  0.322867  0.038033  0.305233  1.0
  H  H177  1  0.715167  0.677133  0.305233  1.0
  H  H178  1  0.628633  0.618167  0.638567  1.0
  H  H179  1  0.989533  0.371367  0.638567  1.0
  H  H180  1  0.381833  0.010467  0.638567  1.0
  H  H181  1  0.611500  0.030400  0.045900  1.0
  H  H182  1  0.418900  0.388500  0.045900  1.0
  H  H183  1  0.969600  0.581100  0.045900  1.0
  H  H184  1  0.944833  0.697067  0.712567  1.0
  H  H185  1  0.752233  0.055167  0.712567  1.0
  H  H186  1  0.302933  0.247767  0.712567  1.0
  H  H187  1  0.278167  0.363733  0.379233  1.0
  H  H188  1  0.085567  0.721833  0.379233  1.0
  H  H189  1  0.636267  0.914433  0.379233  1.0
  H  H190  1  0.388500  0.969600  0.954100  1.0
  H  H191  1  0.581100  0.611500  0.954100  1.0
  H  H192  1  0.030400  0.418900  0.954100  1.0
  H  H193  1  0.055167  0.302933  0.287433  1.0
  H  H194  1  0.247767  0.944833  0.287433  1.0
  H  H195  1  0.697067  0.752233  0.287433  1.0
  H  H196  1  0.721833  0.636267  0.620767  1.0
  H  H197  1  0.914433  0.278167  0.620767  1.0
  H  H198  1  0.363733  0.085567  0.620767  1.0
  H  H199  1  0.524800  0.019100  0.047100  1.0
  H  H200  1  0.494300  0.475200  0.047100  1.0
  H  H201  1  0.980900  0.505700  0.047100  1.0
  H  H202  1  0.858133  0.685767  0.713767  1.0
  H  H203  1  0.827633  0.141867  0.713767  1.0
  H  H204  1  0.314233  0.172367  0.713767  1.0
  H  H205  1  0.191467  0.352433  0.380433  1.0
  H  H206  1  0.160967  0.808533  0.380433  1.0
  H  H207  1  0.647567  0.839033  0.380433  1.0
  H  H208  1  0.475200  0.980900  0.952900  1.0
  H  H209  1  0.505700  0.524800  0.952900  1.0
  H  H210  1  0.019100  0.494300  0.952900  1.0
  H  H211  1  0.141867  0.314233  0.286233  1.0
  H  H212  1  0.172367  0.858133  0.286233  1.0
  H  H213  1  0.685767  0.827633  0.286233  1.0
  H  H214  1  0.808533  0.647567  0.619567  1.0
  H  H215  1  0.839033  0.191467  0.619567  1.0
  H  H216  1  0.352433  0.160967  0.619567  1.0
  H  H217  1  0.444500  0.020800  0.039900  1.0
  H  H218  1  0.576300  0.555500  0.039900  1.0
  H  H219  1  0.979200  0.423700  0.039900  1.0
  H  H220  1  0.777833  0.687467  0.706567  1.0
  H  H221  1  0.909633  0.222167  0.706567  1.0
  H  H222  1  0.312533  0.090367  0.706567  1.0
  H  H223  1  0.111167  0.354133  0.373233  1.0
  H  H224  1  0.242967  0.888833  0.373233  1.0
  H  H225  1  0.645867  0.757033  0.373233  1.0
  H  H226  1  0.555500  0.979200  0.960100  1.0
  H  H227  1  0.423700  0.444500  0.960100  1.0
  H  H228  1  0.020800  0.576300  0.960100  1.0
  H  H229  1  0.222167  0.312533  0.293433  1.0
  H  H230  1  0.090367  0.777833  0.293433  1.0
  H  H231  1  0.687467  0.909633  0.293433  1.0
  H  H232  1  0.888833  0.645867  0.626767  1.0
  H  H233  1  0.757033  0.111167  0.626767  1.0
  H  H234  1  0.354133  0.242967  0.626767  1.0
  H  H235  1  0.374000  0.024000  0.021000  1.0
  H  H236  1  0.650000  0.626000  0.021000  1.0
  H  H237  1  0.976000  0.350000  0.021000  1.0
  H  H238  1  0.707333  0.690667  0.687667  1.0
  H  H239  1  0.983333  0.292667  0.687667  1.0
  H  H240  1  0.309333  0.016667  0.687667  1.0
  H  H241  1  0.040667  0.357333  0.354333  1.0
  H  H242  1  0.316667  0.959333  0.354333  1.0
  H  H243  1  0.642667  0.683333  0.354333  1.0
  H  H244  1  0.626000  0.976000  0.979000  1.0
  H  H245  1  0.350000  0.374000  0.979000  1.0
  H  H246  1  0.024000  0.650000  0.979000  1.0
  H  H247  1  0.292667  0.309333  0.312333  1.0
  H  H248  1  0.016667  0.707333  0.312333  1.0
  H  H249  1  0.690667  0.983333  0.312333  1.0
  H  H250  1  0.959333  0.642667  0.645667  1.0
  H  H251  1  0.683333  0.040667  0.645667  1.0
  H  H252  1  0.357333  0.316667  0.645667  1.0
  C  C253  1  0.005400  0.187000  0.985500  1
  C  C254  1  0.181600  0.994600  0.985500  1
  C  C255  1  0.813000  0.818400  0.985500  1
  C  C256  1  0.338733  0.853667  0.652167  1
  C  C257  1  0.514933  0.661267  0.652167  1
  C  C258  1  0.146333  0.485067  0.652167  1
  C  C259  1  0.672067  0.520333  0.318833  1
  C  C260  1  0.848267  0.327933  0.318833  1
  C  C261  1  0.479667  0.151733  0.318833  1
  C  C262  1  0.994600  0.813000  0.014500  1
  C  C263  1  0.818400  0.005400  0.014500  1
  C  C264  1  0.187000  0.181600  0.014500  1
  C  C265  1  0.661267  0.146333  0.347833  1
  C  C266  1  0.485067  0.338733  0.347833  1
  C  C267  1  0.853667  0.514933  0.347833  1
  C  C268  1  0.327933  0.479667  0.681167  1
  C  C269  1  0.151733  0.672067  0.681167  1
  C  C270  1  0.520333  0.848267  0.681167  1
  C  C271  1  0.019500  0.175800  0.961300  1
  C  C272  1  0.156300  0.980500  0.961300  1
  C  C273  1  0.824200  0.843700  0.961300  1
  C  C274  1  0.352833  0.842467  0.627967  1
  C  C275  1  0.489633  0.647167  0.627967  1
  C  C276  1  0.157533  0.510367  0.627967  1
  C  C277  1  0.686167  0.509133  0.294633  1
  C  C278  1  0.822967  0.313833  0.294633  1
  C  C279  1  0.490867  0.177033  0.294633  1
  C  C280  1  0.980500  0.824200  0.038700  1
  C  C281  1  0.843700  0.019500  0.038700  1
  C  C282  1  0.175800  0.156300  0.038700  1
  C  C283  1  0.647167  0.157533  0.372033  1
  C  C284  1  0.510367  0.352833  0.372033  1
  C  C285  1  0.842467  0.489633  0.372033  1
  C  C286  1  0.313833  0.490867  0.705367  1
  C  C287  1  0.177033  0.686167  0.705367  1
  C  C288  1  0.509133  0.822967  0.705367  1
  C  C289  1  0.060300  0.160700  0.970600  1
  C  C290  1  0.100400  0.939700  0.970600  1
  C  C291  1  0.839300  0.899600  0.970600  1
  C  C292  1  0.393633  0.827367  0.637267  1
  C  C293  1  0.433733  0.606367  0.637267  1
  C  C294  1  0.172633  0.566267  0.637267  1
  C  C295  1  0.726967  0.494033  0.303933  1
  C  C296  1  0.767067  0.273033  0.303933  1
  C  C297  1  0.505967  0.232933  0.303933  1
  C  C298  1  0.939700  0.839300  0.029400  1
  C  C299  1  0.899600  0.060300  0.029400  1
  C  C300  1  0.160700  0.100400  0.029400  1
  C  C301  1  0.606367  0.172633  0.362733  1
  C  C302  1  0.566267  0.393633  0.362733  1
  C  C303  1  0.827367  0.433733  0.362733  1
  C  C304  1  0.273033  0.505967  0.696067  1
  C  C305  1  0.232933  0.726967  0.696067  1
  C  C306  1  0.494033  0.767067  0.696067  1
  C  C307  1  0.880580  0.152880  0.920100  1.0
  C  C308  1  0.272300  0.119420  0.920100  1.0
  C  C309  1  0.847120  0.727700  0.920100  1.0
  C  C310  1  0.213913  0.819547  0.586767  1.0
  C  C311  1  0.605633  0.786087  0.586767  1.0
  C  C312  1  0.180453  0.394367  0.586767  1.0
  C  C313  1  0.547247  0.486213  0.253433  1.0
  C  C314  1  0.938967  0.452753  0.253433  1.0
  C  C315  1  0.513787  0.061033  0.253433  1.0
  C  C316  1  0.119420  0.847120  0.079900  1.0
  C  C317  1  0.727700  0.880580  0.079900  1.0
  C  C318  1  0.152880  0.272300  0.079900  1.0
  C  C319  1  0.786087  0.180453  0.413233  1.0
  C  C320  1  0.394367  0.213913  0.413233  1.0
  C  C321  1  0.819547  0.605633  0.413233  1.0
  C  C322  1  0.452753  0.513787  0.746567  1.0
  C  C323  1  0.061033  0.547247  0.746567  1.0
  C  C324  1  0.486213  0.938967  0.746567  1.0
  C  C325  1  0.869460  0.110560  0.902910  1.0
  C  C326  1  0.241100  0.130540  0.902910  1.0
  C  C327  1  0.889440  0.758900  0.902910  1.0
  C  C328  1  0.202793  0.777227  0.569577  1.0
  C  C329  1  0.574433  0.797207  0.569577  1.0
  C  C330  1  0.222773  0.425567  0.569577  1.0
  C  C331  1  0.536127  0.443893  0.236243  1.0
  C  C332  1  0.907767  0.463873  0.236243  1.0
  C  C333  1  0.556107  0.092233  0.236243  1.0
  C  C334  1  0.130540  0.889440  0.097090  1.0
  C  C335  1  0.758900  0.869460  0.097090  1.0
  C  C336  1  0.110560  0.241100  0.097090  1.0
  C  C337  1  0.797207  0.222773  0.430423  1.0
  C  C338  1  0.425567  0.202793  0.430423  1.0
  C  C339  1  0.777227  0.574433  0.430423  1.0
  C  C340  1  0.463873  0.556107  0.763757  1.0
  C  C341  1  0.092233  0.536127  0.763757  1.0
  C  C342  1  0.443893  0.907767  0.763757  1.0
  C  C343  1  0.888600  0.077500  0.903190  1.0
  C  C344  1  0.188900  0.111400  0.903190  1.0
  C  C345  1  0.922500  0.811100  0.903190  1.0
  C  C346  1  0.221933  0.744167  0.569857  1.0
  C  C347  1  0.522233  0.778067  0.569857  1.0
  C  C348  1  0.255833  0.477767  0.569857  1.0
  C  C349  1  0.555267  0.410833  0.236523  1.0
  C  C350  1  0.855567  0.444733  0.236523  1.0
  C  C351  1  0.589167  0.144433  0.236523  1.0
  C  C352  1  0.111400  0.922500  0.096810  1.0
  C  C353  1  0.811100  0.888600  0.096810  1.0
  C  C354  1  0.077500  0.188900  0.096810  1.0
  C  C355  1  0.778067  0.255833  0.430143  1.0
  C  C356  1  0.477767  0.221933  0.430143  1.0
  C  C357  1  0.744167  0.522233  0.430143  1.0
  C  C358  1  0.444733  0.589167  0.763477  1.0
  C  C359  1  0.144433  0.555267  0.763477  1.0
  C  C360  1  0.410833  0.855567  0.763477  1.0
  C  C361  1  0.871000  0.040780  0.883800  1.0
  C  C362  1  0.169780  0.129000  0.883800  1.0
  C  C363  1  0.959220  0.830220  0.883800  1.0
  C  C364  1  0.204333  0.707447  0.550467  1.0
  C  C365  1  0.503113  0.795667  0.550467  1.0
  C  C366  1  0.292553  0.496887  0.550467  1.0
  C  C367  1  0.537667  0.374113  0.217133  1.0
  C  C368  1  0.836447  0.462333  0.217133  1.0
  C  C369  1  0.625887  0.163553  0.217133  1.0
  C  C370  1  0.129000  0.959220  0.116200  1.0
  C  C371  1  0.830220  0.871000  0.116200  1.0
  C  C372  1  0.040780  0.169780  0.116200  1.0
  C  C373  1  0.795667  0.292553  0.449533  1.0
  C  C374  1  0.496887  0.204333  0.449533  1.0
  C  C375  1  0.707447  0.503113  0.449533  1.0
  C  C376  1  0.462333  0.625887  0.782867  1.0
  C  C377  1  0.163553  0.537667  0.782867  1.0
  C  C378  1  0.374113  0.836447  0.782867  1.0
  C  C379  1  0.837040  0.045970  0.868640  1.0
  C  C380  1  0.208930  0.162960  0.868640  1.0
  C  C381  1  0.954030  0.791070  0.868640  1.0
  C  C382  1  0.170373  0.712637  0.535307  1.0
  C  C383  1  0.542263  0.829627  0.535307  1.0
  C  C384  1  0.287363  0.457737  0.535307  1.0
  C  C385  1  0.503707  0.379303  0.201973  1.0
  C  C386  1  0.875597  0.496293  0.201973  1.0
  C  C387  1  0.620697  0.124403  0.201973  1.0
  C  C388  1  0.162960  0.954030  0.131360  1.0
  C  C389  1  0.791070  0.837040  0.131360  1.0
  C  C390  1  0.045970  0.208930  0.131360  1.0
  C  C391  1  0.829627  0.287363  0.464693  1.0
  C  C392  1  0.457737  0.170373  0.464693  1.0
  C  C393  1  0.712637  0.542263  0.464693  1.0
  C  C394  1  0.496293  0.620697  0.798027  1.0
  C  C395  1  0.124403  0.503707  0.798027  1.0
  C  C396  1  0.379303  0.875597  0.798027  1.0
  C  C397  1  0.811190  0.016590  0.846540  1.0
  C  C398  1  0.205400  0.188810  0.846540  1.0
  C  C399  1  0.983410  0.794600  0.846540  1.0
  C  C400  1  0.144523  0.683257  0.513207  1.0
  C  C401  1  0.538733  0.855477  0.513207  1.0
  C  C402  1  0.316743  0.461267  0.513207  1.0
  C  C403  1  0.477857  0.349923  0.179873  1.0
  C  C404  1  0.872067  0.522143  0.179873  1.0
  C  C405  1  0.650077  0.127933  0.179873  1.0
  C  C406  1  0.188810  0.983410  0.153460  1.0
  C  C407  1  0.794600  0.811190  0.153460  1.0
  C  C408  1  0.016590  0.205400  0.153460  1.0
  C  C409  1  0.855477  0.316743  0.486793  1.0
  C  C410  1  0.461267  0.144523  0.486793  1.0
  C  C411  1  0.683257  0.538733  0.486793  1.0
  C  C412  1  0.522143  0.650077  0.820127  1.0
  C  C413  1  0.127933  0.477857  0.820127  1.0
  C  C414  1  0.349923  0.872067  0.820127  1.0
  C  C415  1  0.816600  0.976800  0.836130  1.0
  C  C416  1  0.160200  0.183400  0.836130  1.0
  C  C417  1  0.023200  0.839800  0.836130  1.0
  C  C418  1  0.149933  0.643467  0.502797  1.0
  C  C419  1  0.493533  0.850067  0.502797  1.0
  C  C420  1  0.356533  0.506467  0.502797  1.0
  C  C421  1  0.483267  0.310133  0.169463  1.0
  C  C422  1  0.826867  0.516733  0.169463  1.0
  C  C423  1  0.689867  0.173133  0.169463  1.0
  C  C424  1  0.183400  0.023200  0.163870  1.0
  C  C425  1  0.839800  0.816600  0.163870  1.0
  C  C426  1  0.976800  0.160200  0.163870  1.0
  C  C427  1  0.850067  0.356533  0.497203  1.0
  C  C428  1  0.506467  0.149933  0.497203  1.0
  C  C429  1  0.643467  0.493533  0.497203  1.0
  C  C430  1  0.516733  0.689867  0.830537  1.0
  C  C431  1  0.173133  0.483267  0.830537  1.0
  C  C432  1  0.310133  0.826867  0.830537  1.0
  C  C433  1  0.785700  0.956600  0.814220  1.0
  C  C434  1  0.170900  0.214300  0.814220  1.0
  C  C435  1  0.043400  0.829100  0.814220  1.0
  C  C436  1  0.119033  0.623267  0.480887  1.0
  C  C437  1  0.504233  0.880967  0.480887  1.0
  C  C438  1  0.376733  0.495767  0.480887  1.0
  C  C439  1  0.452367  0.289933  0.147553  1.0
  C  C440  1  0.837567  0.547633  0.147553  1.0
  C  C441  1  0.710067  0.162433  0.147553  1.0
  C  C442  1  0.214300  0.043400  0.185780  1.0
  C  C443  1  0.829100  0.785700  0.185780  1.0
  C  C444  1  0.956600  0.170900  0.185780  1.0
  C  C445  1  0.880967  0.376733  0.519113  1.0
  C  C446  1  0.495767  0.119033  0.519113  1.0
  C  C447  1  0.623267  0.504233  0.519113  1.0
  C  C448  1  0.547633  0.710067  0.852447  1.0
  C  C449  1  0.162433  0.452367  0.852447  1.0
  C  C450  1  0.289933  0.837567  0.852447  1.0
  C  C451  1  0.757300  0.979600  0.808370  1.0
  C  C452  1  0.222300  0.242700  0.808370  1.0
  C  C453  1  0.020400  0.777700  0.808370  1.0
  C  C454  1  0.090633  0.646267  0.475037  1.0
  C  C455  1  0.555633  0.909367  0.475037  1.0
  C  C456  1  0.353733  0.444367  0.475037  1.0
  C  C457  1  0.423967  0.312933  0.141703  1.0
  C  C458  1  0.888967  0.576033  0.141703  1.0
  C  C459  1  0.687067  0.111033  0.141703  1.0
  C  C460  1  0.242700  0.020400  0.191630  1.0
  C  C461  1  0.777700  0.757300  0.191630  1.0
  C  C462  1  0.979600  0.222300  0.191630  1.0
  C  C463  1  0.909367  0.353733  0.524963  1.0
  C  C464  1  0.444367  0.090633  0.524963  1.0
  C  C465  1  0.646267  0.555633  0.524963  1.0
  C  C466  1  0.576033  0.687067  0.858297  1.0
  C  C467  1  0.111033  0.423967  0.858297  1.0
  C  C468  1  0.312933  0.888967  0.858297  1.0
  C  C469  1  0.722260  0.968290  0.787880  1.0
  C  C470  1  0.246030  0.277740  0.787880  1.0
  C  C471  1  0.031710  0.753970  0.787880  1.0
  C  C472  1  0.055593  0.634957  0.454547  1.0
  C  C473  1  0.579363  0.944407  0.454547  1.0
  C  C474  1  0.365043  0.420637  0.454547  1.0
  C  C475  1  0.388927  0.301623  0.121213  1.0
  C  C476  1  0.912697  0.611073  0.121213  1.0
  C  C477  1  0.698377  0.087303  0.121213  1.0
  C  C478  1  0.277740  0.031710  0.212120  1.0
  C  C479  1  0.753970  0.722260  0.212120  1.0
  C  C480  1  0.968290  0.246030  0.212120  1.0
  C  C481  1  0.944407  0.365043  0.545453  1.0
  C  C482  1  0.420637  0.055593  0.545453  1.0
  C  C483  1  0.634957  0.579363  0.545453  1.0
  C  C484  1  0.611073  0.698377  0.878787  1.0
  C  C485  1  0.087303  0.388927  0.878787  1.0
  C  C486  1  0.301623  0.912697  0.878787  1.0
  C  C487  1  0.708700  0.930810  0.770660  1.0
  C  C488  1  0.222110  0.291300  0.770660  1.0
  C  C489  1  0.069190  0.777890  0.770660  1.0
  C  C490  1  0.042033  0.597477  0.437327  1.0
  C  C491  1  0.555443  0.957967  0.437327  1.0
  C  C492  1  0.402523  0.444557  0.437327  1.0
  C  C493  1  0.375367  0.264143  0.103993  1.0
  C  C494  1  0.888777  0.624633  0.103993  1.0
  C  C495  1  0.735857  0.111223  0.103993  1.0
  C  C496  1  0.291300  0.069190  0.229340  1.0
  C  C497  1  0.777890  0.708700  0.229340  1.0
  C  C498  1  0.930810  0.222110  0.229340  1.0
  C  C499  1  0.957967  0.402523  0.562673  1.0
  C  C500  1  0.444557  0.042033  0.562673  1.0
  C  C501  1  0.597477  0.555443  0.562673  1.0
  C  C502  1  0.624633  0.735857  0.896007  1.0
  C  C503  1  0.111223  0.375367  0.896007  1.0
  C  C504  1  0.264143  0.888777  0.896007  1.0
  C  C505  1  0.671200  0.928600  0.753580  1.0
  C  C506  1  0.257400  0.328800  0.753580  1.0
  C  C507  1  0.071400  0.742600  0.753580  1.0
  C  C508  1  0.004533  0.595267  0.420247  1.0
  C  C509  1  0.590733  0.995467  0.420247  1.0
  C  C510  1  0.404733  0.409267  0.420247  1.0
  C  C511  1  0.337867  0.261933  0.086913  1.0
  C  C512  1  0.924067  0.662133  0.086913  1.0
  C  C513  1  0.738067  0.075933  0.086913  1.0
  C  C514  1  0.328800  0.071400  0.246420  1.0
  C  C515  1  0.742600  0.671200  0.246420  1.0
  C  C516  1  0.928600  0.257400  0.246420  1.0
  C  C517  1  0.995467  0.404733  0.579753  1.0
  C  C518  1  0.409267  0.004533  0.579753  1.0
  C  C519  1  0.595267  0.590733  0.579753  1.0
  C  C520  1  0.662133  0.738067  0.913087  1.0
  C  C521  1  0.075933  0.337867  0.913087  1.0
  C  C522  1  0.261933  0.924067  0.913087  1.0
  C  C523  1  0.657890  0.965390  0.757240  1.0
  C  C524  1  0.307500  0.342110  0.757240  1.0
  C  C525  1  0.034610  0.692500  0.757240  1.0
  C  C526  1  0.991223  0.632057  0.423907  1.0
  C  C527  1  0.640833  0.008777  0.423907  1.0
  C  C528  1  0.367943  0.359167  0.423907  1.0
  C  C529  1  0.324557  0.298723  0.090573  1.0
  C  C530  1  0.974167  0.675443  0.090573  1.0
  C  C531  1  0.701277  0.025833  0.090573  1.0
  C  C532  1  0.342110  0.034610  0.242760  1.0
  C  C533  1  0.692500  0.657890  0.242760  1.0
  C  C534  1  0.965390  0.307500  0.242760  1.0
  C  C535  1  0.008777  0.367943  0.576093  1.0
  C  C536  1  0.359167  0.991223  0.576093  1.0
  C  C537  1  0.632057  0.640833  0.576093  1.0
  C  C538  1  0.675443  0.701277  0.909427  1.0
  C  C539  1  0.025833  0.324557  0.909427  1.0
  C  C540  1  0.298723  0.974167  0.909427  1.0
  C  C541  1  0.978960  0.287320  0.924180  1.0
  C  C542  1  0.308360  0.021040  0.924180  1.0
  C  C543  1  0.712680  0.691640  0.924180  1.0
  C  C544  1  0.312293  0.953987  0.590847  1.0
  C  C545  1  0.641693  0.687707  0.590847  1.0
  C  C546  1  0.046013  0.358307  0.590847  1.0
  C  C547  1  0.645627  0.620653  0.257513  1.0
  C  C548  1  0.975027  0.354373  0.257513  1.0
  C  C549  1  0.379347  0.024973  0.257513  1.0
  C  C550  1  0.021040  0.712680  0.075820  1.0
  C  C551  1  0.691640  0.978960  0.075820  1.0
  C  C552  1  0.287320  0.308360  0.075820  1.0
  C  C553  1  0.687707  0.046013  0.409153  1.0
  C  C554  1  0.358307  0.312293  0.409153  1.0
  C  C555  1  0.953987  0.641693  0.409153  1.0
  C  C556  1  0.354373  0.379347  0.742487  1.0
  C  C557  1  0.024973  0.645627  0.742487  1.0
  C  C558  1  0.620653  0.975027  0.742487  1.0
  C  C559  1  0.819160  0.168420  0.973550  1.0
  C  C560  1  0.349260  0.180840  0.973550  1.0
  C  C561  1  0.831580  0.650740  0.973550  1.0
  C  C562  1  0.152493  0.835087  0.640217  1.0
  C  C563  1  0.682593  0.847507  0.640217  1.0
  C  C564  1  0.164913  0.317407  0.640217  1.0
  C  C565  1  0.485827  0.501753  0.306883  1.0
  C  C566  1  0.015927  0.514173  0.306883  1.0
  C  C567  1  0.498247  0.984073  0.306883  1.0
  C  C568  1  0.180840  0.831580  0.026450  1.0
  C  C569  1  0.650740  0.819160  0.026450  1.0
  C  C570  1  0.168420  0.349260  0.026450  1.0
  C  C571  1  0.847507  0.164913  0.359783  1.0
  C  C572  1  0.317407  0.152493  0.359783  1.0
  C  C573  1  0.835087  0.682593  0.359783  1.0
  C  C574  1  0.514173  0.498247  0.693117  1.0
  C  C575  1  0.984073  0.485827  0.693117  1.0
  C  C576  1  0.501753  0.015927  0.693117  1.0
  C  C577  1  0.773100  0.135850  0.988730  1.0
  C  C578  1  0.362750  0.226900  0.988730  1.0
  C  C579  1  0.864150  0.637250  0.988730  1.0
  C  C580  1  0.106433  0.802517  0.655397  1.0
  C  C581  1  0.696083  0.893567  0.655397  1.0
  C  C582  1  0.197483  0.303917  0.655397  1.0
  C  C583  1  0.439767  0.469183  0.322063  1.0
  C  C584  1  0.029417  0.560233  0.322063  1.0
  C  C585  1  0.530817  0.970583  0.322063  1.0
  C  C586  1  0.226900  0.864150  0.011270  1.0
  C  C587  1  0.637250  0.773100  0.011270  1.0
  C  C588  1  0.135850  0.362750  0.011270  1.0
  C  C589  1  0.893567  0.197483  0.344603  1.0
  C  C590  1  0.303917  0.106433  0.344603  1.0
  C  C591  1  0.802517  0.696083  0.344603  1.0
  C  C592  1  0.560233  0.530817  0.677937  1.0
  C  C593  1  0.970583  0.439767  0.677937  1.0
  C  C594  1  0.469183  0.029417  0.677937  1.0
  C  C595  1  0.766640  0.099920  0.006060  1.0
  C  C596  1  0.333280  0.233360  0.006060  1.0
  C  C597  1  0.900080  0.666720  0.006060  1.0
  C  C598  1  0.099973  0.766587  0.672727  1.0
  C  C599  1  0.666613  0.900027  0.672727  1.0
  C  C600  1  0.233413  0.333387  0.672727  1.0
  C  C601  1  0.433307  0.433253  0.339393  1.0
  C  C602  1  0.999947  0.566693  0.339393  1.0
  C  C603  1  0.566747  0.000053  0.339393  1.0
  C  C604  1  0.233360  0.900080  0.993940  1.0
  C  C605  1  0.666720  0.766640  0.993940  1.0
  C  C606  1  0.099920  0.333280  0.993940  1.0
  C  C607  1  0.900027  0.233413  0.327273  1.0
  C  C608  1  0.333387  0.099973  0.327273  1.0
  C  C609  1  0.766587  0.666613  0.327273  1.0
  C  C610  1  0.566693  0.566747  0.660607  1.0
  C  C611  1  0.000053  0.433307  0.660607  1.0
  C  C612  1  0.433253  0.999947  0.660607  1.0
  C  C613  1  0.715600  0.074900  0.016360  1.0
  C  C614  1  0.359300  0.284400  0.016360  1.0
  C  C615  1  0.925100  0.640700  0.016360  1.0
  C  C616  1  0.048933  0.741567  0.683027  1.0
  C  C617  1  0.692633  0.951067  0.683027  1.0
  C  C618  1  0.258433  0.307367  0.683027  1.0
  C  C619  1  0.382267  0.408233  0.349693  1.0
  C  C620  1  0.025967  0.617733  0.349693  1.0
  C  C621  1  0.591767  0.974033  0.349693  1.0
  C  C622  1  0.284400  0.925100  0.983640  1.0
  C  C623  1  0.640700  0.715600  0.983640  1.0
  C  C624  1  0.074900  0.359300  0.983640  1.0
  C  C625  1  0.951067  0.258433  0.316973  1.0
  C  C626  1  0.307367  0.048933  0.316973  1.0
  C  C627  1  0.741567  0.692633  0.316973  1.0
  C  C628  1  0.617733  0.591767  0.650307  1.0
  C  C629  1  0.974033  0.382267  0.650307  1.0
  C  C630  1  0.408233  0.025967  0.650307  1.0
  C  C631  1  0.683760  0.092720  0.007810  1.0
  C  C632  1  0.408960  0.316240  0.007810  1.0
  C  C633  1  0.907280  0.591040  0.007810  1.0
  C  C634  1  0.017093  0.759387  0.674477  1.0
  C  C635  1  0.742293  0.982907  0.674477  1.0
  C  C636  1  0.240613  0.257707  0.674477  1.0
  C  C637  1  0.350427  0.426053  0.341143  1.0
  C  C638  1  0.075627  0.649573  0.341143  1.0
  C  C639  1  0.573947  0.924373  0.341143  1.0
  C  C640  1  0.316240  0.907280  0.992190  1.0
  C  C641  1  0.591040  0.683760  0.992190  1.0
  C  C642  1  0.092720  0.408960  0.992190  1.0
  C  C643  1  0.982907  0.240613  0.325523  1.0
  C  C644  1  0.257707  0.017093  0.325523  1.0
  C  C645  1  0.759387  0.742293  0.325523  1.0
  C  C646  1  0.649573  0.573947  0.658857  1.0
  C  C647  1  0.924373  0.350427  0.658857  1.0
  C  C648  1  0.426053  0.075627  0.658857  1.0
  C  C649  1  0.630120  0.077020  0.015020  1.0
  C  C650  1  0.446900  0.369880  0.015020  1.0
  C  C651  1  0.922980  0.553100  0.015020  1.0
  C  C652  1  0.963453  0.743687  0.681687  1.0
  C  C653  1  0.780233  0.036547  0.681687  1.0
  C  C654  1  0.256313  0.219767  0.681687  1.0
  C  C655  1  0.296787  0.410353  0.348353  1.0
  C  C656  1  0.113567  0.703213  0.348353  1.0
  C  C657  1  0.589647  0.886433  0.348353  1.0
  C  C658  1  0.369880  0.922980  0.984980  1.0
  C  C659  1  0.553100  0.630120  0.984980  1.0
  C  C660  1  0.077020  0.446900  0.984980  1.0
  C  C661  1  0.036547  0.256313  0.318313  1.0
  C  C662  1  0.219767  0.963453  0.318313  1.0
  C  C663  1  0.743687  0.780233  0.318313  1.0
  C  C664  1  0.703213  0.589647  0.651647  1.0
  C  C665  1  0.886433  0.296787  0.651647  1.0
  C  C666  1  0.410353  0.113567  0.651647  1.0
  C  C667  1  0.599500  0.045500  0.034470  1.0
  C  C668  1  0.446000  0.400500  0.034470  1.0
  C  C669  1  0.954500  0.554000  0.034470  1.0
  C  C670  1  0.932833  0.712167  0.701137  1.0
  C  C671  1  0.779333  0.067167  0.701137  1.0
  C  C672  1  0.287833  0.220667  0.701137  1.0
  C  C673  1  0.266167  0.378833  0.367803  1.0
  C  C674  1  0.112667  0.733833  0.367803  1.0
  C  C675  1  0.621167  0.887333  0.367803  1.0
  C  C676  1  0.400500  0.954500  0.965530  1.0
  C  C677  1  0.554000  0.599500  0.965530  1.0
  C  C678  1  0.045500  0.446000  0.965530  1.0
  C  C679  1  0.067167  0.287833  0.298863  1.0
  C  C680  1  0.220667  0.932833  0.298863  1.0
  C  C681  1  0.712167  0.779333  0.298863  1.0
  C  C682  1  0.733833  0.621167  0.632197  1.0
  C  C683  1  0.887333  0.266167  0.632197  1.0
  C  C684  1  0.378833  0.112667  0.632197  1.0
  C  C685  1  0.549600  0.038700  0.035110  1.0
  C  C686  1  0.489100  0.450400  0.035110  1.0
  C  C687  1  0.961300  0.510900  0.035110  1.0
  C  C688  1  0.882933  0.705367  0.701777  1.0
  C  C689  1  0.822433  0.117067  0.701777  1.0
  C  C690  1  0.294633  0.177567  0.701777  1.0
  C  C691  1  0.216267  0.372033  0.368443  1.0
  C  C692  1  0.155767  0.783733  0.368443  1.0
  C  C693  1  0.627967  0.844233  0.368443  1.0
  C  C694  1  0.450400  0.961300  0.964890  1.0
  C  C695  1  0.510900  0.549600  0.964890  1.0
  C  C696  1  0.038700  0.489100  0.964890  1.0
  C  C697  1  0.117067  0.294633  0.298223  1.0
  C  C698  1  0.177567  0.882933  0.298223  1.0
  C  C699  1  0.705367  0.822433  0.298223  1.0
  C  C700  1  0.783733  0.627967  0.631557  1.0
  C  C701  1  0.844233  0.216267  0.631557  1.0
  C  C702  1  0.372033  0.155767  0.631557  1.0
  C  C703  1  0.540690  0.063990  0.016280  1.0
  C  C704  1  0.523300  0.459310  0.016280  1.0
  C  C705  1  0.936010  0.476700  0.016280  1.0
  C  C706  1  0.874023  0.730657  0.682947  1.0
  C  C707  1  0.856633  0.125977  0.682947  1.0
  C  C708  1  0.269343  0.143367  0.682947  1.0
  C  C709  1  0.207357  0.397323  0.349613  1.0
  C  C710  1  0.189967  0.792643  0.349613  1.0
  C  C711  1  0.602677  0.810033  0.349613  1.0
  C  C712  1  0.459310  0.936010  0.983720  1.0
  C  C713  1  0.476700  0.540690  0.983720  1.0
  C  C714  1  0.063990  0.523300  0.983720  1.0
  C  C715  1  0.125977  0.269343  0.317053  1.0
  C  C716  1  0.143367  0.874023  0.317053  1.0
  C  C717  1  0.730657  0.856633  0.317053  1.0
  C  C718  1  0.792643  0.602677  0.650387  1.0
  C  C719  1  0.810033  0.207357  0.650387  1.0
  C  C720  1  0.397323  0.189967  0.650387  1.0
  C  C721  1  0.491500  0.062200  0.011130  1.0
  C  C722  1  0.570700  0.508500  0.011130  1.0
  C  C723  1  0.937800  0.429300  0.011130  1.0
  C  C724  1  0.824833  0.728867  0.677797  1.0
  C  C725  1  0.904033  0.175167  0.677797  1.0
  C  C726  1  0.271133  0.095967  0.677797  1.0
  C  C727  1  0.158167  0.395533  0.344463  1.0
  C  C728  1  0.237367  0.841833  0.344463  1.0
  C  C729  1  0.604467  0.762633  0.344463  1.0
  C  C730  1  0.508500  0.937800  0.988870  1.0
  C  C731  1  0.429300  0.491500  0.988870  1.0
  C  C732  1  0.062200  0.570700  0.988870  1.0
  C  C733  1  0.175167  0.271133  0.322203  1.0
  C  C734  1  0.095967  0.824833  0.322203  1.0
  C  C735  1  0.728867  0.904033  0.322203  1.0
  C  C736  1  0.841833  0.604467  0.655537  1.0
  C  C737  1  0.762633  0.158167  0.655537  1.0
  C  C738  1  0.395533  0.237367  0.655537  1.0
  C  C739  1  0.447200  0.037710  0.025000  1.0
  C  C740  1  0.590510  0.552800  0.025000  1.0
  C  C741  1  0.962290  0.409490  0.025000  1.0
  C  C742  1  0.780533  0.704377  0.691667  1.0
  C  C743  1  0.923843  0.219467  0.691667  1.0
  C  C744  1  0.295623  0.076157  0.691667  1.0
  C  C745  1  0.113867  0.371043  0.358333  1.0
  C  C746  1  0.257177  0.886133  0.358333  1.0
  C  C747  1  0.628957  0.742823  0.358333  1.0
  C  C748  1  0.552800  0.962290  0.975000  1.0
  C  C749  1  0.409490  0.447200  0.975000  1.0
  C  C750  1  0.037710  0.590510  0.975000  1.0
  C  C751  1  0.219467  0.295623  0.308333  1.0
  C  C752  1  0.076157  0.780533  0.308333  1.0
  C  C753  1  0.704377  0.923843  0.308333  1.0
  C  C754  1  0.886133  0.628957  0.641667  1.0
  C  C755  1  0.742823  0.113867  0.641667  1.0
  C  C756  1  0.371043  0.257177  0.641667  1.0
  C  C757  1  0.407600  0.041200  0.014320  1.0
  C  C758  1  0.633600  0.592400  0.014320  1.0
  C  C759  1  0.958800  0.366400  0.014320  1.0
  C  C760  1  0.740933  0.707867  0.680987  1.0
  C  C761  1  0.966933  0.259067  0.680987  1.0
  C  C762  1  0.292133  0.033067  0.680987  1.0
  C  C763  1  0.074267  0.374533  0.347653  1.0
  C  C764  1  0.300267  0.925733  0.347653  1.0
  C  C765  1  0.625467  0.699733  0.347653  1.0
  C  C766  1  0.592400  0.958800  0.985680  1.0
  C  C767  1  0.366400  0.407600  0.985680  1.0
  C  C768  1  0.041200  0.633600  0.985680  1.0
  C  C769  1  0.259067  0.292133  0.319013  1.0
  C  C770  1  0.033067  0.740933  0.319013  1.0
  C  C771  1  0.707867  0.966933  0.319013  1.0
  C  C772  1  0.925733  0.625467  0.652347  1.0
  C  C773  1  0.699733  0.074267  0.652347  1.0
  C  C774  1  0.374533  0.300267  0.652347  1.0
  C  C775  1  0.418740  0.071190  0.993020  1.0
  C  C776  1  0.652450  0.581260  0.993020  1.0
  C  C777  1  0.928810  0.347550  0.993020  1.0
  C  C778  1  0.752073  0.737857  0.659687  1.0
  C  C779  1  0.985783  0.247927  0.659687  1.0
  C  C780  1  0.262143  0.014217  0.659687  1.0
  C  C781  1  0.085407  0.404523  0.326353  1.0
  C  C782  1  0.319117  0.914593  0.326353  1.0
  C  C783  1  0.595477  0.680883  0.326353  1.0
  C  C784  1  0.581260  0.928810  0.006980  1.0
  C  C785  1  0.347550  0.418740  0.006980  1.0
  C  C786  1  0.071190  0.652450  0.006980  1.0
  C  C787  1  0.247927  0.262143  0.340313  1.0
  C  C788  1  0.014217  0.752073  0.340313  1.0
  C  C789  1  0.737857  0.985783  0.340313  1.0
  C  C790  1  0.914593  0.595477  0.673647  1.0
  C  C791  1  0.680883  0.085407  0.673647  1.0
  C  C792  1  0.404523  0.319117  0.673647  1.0
  C  C793  1  0.914150  0.301600  0.975710  1.0
  C  C794  1  0.387450  0.085850  0.975710  1.0
  C  C795  1  0.698400  0.612550  0.975710  1.0
  C  C796  1  0.247483  0.968267  0.642377  1.0
  C  C797  1  0.720783  0.752517  0.642377  1.0
  C  C798  1  0.031733  0.279217  0.642377  1.0
  C  C799  1  0.580817  0.634933  0.309043  1.0
  C  C800  1  0.054117  0.419183  0.309043  1.0
  C  C801  1  0.365067  0.945883  0.309043  1.0
  C  C802  1  0.085850  0.698400  0.024290  1.0
  C  C803  1  0.612550  0.914150  0.024290  1.0
  C  C804  1  0.301600  0.387450  0.024290  1.0
  C  C805  1  0.752517  0.031733  0.357623  1.0
  C  C806  1  0.279217  0.247483  0.357623  1.0
  C  C807  1  0.968267  0.720783  0.357623  1.0
  C  C808  1  0.419183  0.365067  0.690957  1.0
  C  C809  1  0.945883  0.580817  0.690957  1.0
  C  C810  1  0.634933  0.054117  0.690957  1.0
  C  C811  1  0.990200  0.199800  0.002690  1.0
  C  C812  1  0.209600  0.009800  0.002690  1.0
  C  C813  1  0.800200  0.790400  0.002690  1.0
  C  C814  1  0.323533  0.866467  0.669357  1.0
  C  C815  1  0.542933  0.676467  0.669357  1.0
  C  C816  1  0.133533  0.457067  0.669357  1.0
  C  C817  1  0.656867  0.533133  0.336023  1.0
  C  C818  1  0.876267  0.343133  0.336023  1.0
  C  C819  1  0.466867  0.123733  0.336023  1.0
  C  C820  1  0.009800  0.800200  0.997310  1.0
  C  C821  1  0.790400  0.990200  0.997310  1.0
  C  C822  1  0.199800  0.209600  0.997310  1.0
  C  C823  1  0.676467  0.133533  0.330643  1.0
  C  C824  1  0.457067  0.323533  0.330643  1.0
  C  C825  1  0.866467  0.542933  0.330643  1.0
  C  C826  1  0.343133  0.466867  0.663977  1.0
  C  C827  1  0.123733  0.656867  0.663977  1.0
  C  C828  1  0.533133  0.876267  0.663977  1.0
  C  C829  1  0.972700  0.216000  0.022700  1.0
  C  C830  1  0.243300  0.027300  0.022700  1.0
  C  C831  1  0.784000  0.756700  0.022700  1.0
  C  C832  1  0.306033  0.882667  0.689367  1.0
  C  C833  1  0.576633  0.693967  0.689367  1.0
  C  C834  1  0.117333  0.423367  0.689367  1.0
  C  C835  1  0.639367  0.549333  0.356033  1.0
  C  C836  1  0.909967  0.360633  0.356033  1.0
  C  C837  1  0.450667  0.090033  0.356033  1.0
  C  C838  1  0.027300  0.784000  0.977300  1.0
  C  C839  1  0.756700  0.972700  0.977300  1.0
  C  C840  1  0.216000  0.243300  0.977300  1.0
  C  C841  1  0.693967  0.117333  0.310633  1.0
  C  C842  1  0.423367  0.306033  0.310633  1.0
  C  C843  1  0.882667  0.576633  0.310633  1.0
  C  C844  1  0.360633  0.450667  0.643967  1.0
  C  C845  1  0.090033  0.639367  0.643967  1.0
  C  C846  1  0.549333  0.909967  0.643967  1.0
  C  C847  1  0.010200  0.217300  0.045000  1.0
  C  C848  1  0.207100  0.989800  0.045000  1.0
  C  C849  1  0.782700  0.792900  0.045000  1.0
  C  C850  1  0.343533  0.883967  0.711667  1.0
  C  C851  1  0.540433  0.656467  0.711667  1.0
  C  C852  1  0.116033  0.459567  0.711667  1.0
  C  C853  1  0.676867  0.550633  0.378333  1.0
  C  C854  1  0.873767  0.323133  0.378333  1.0
  C  C855  1  0.449367  0.126233  0.378333  1.0
  C  C856  1  0.989800  0.782700  0.955000  1.0
  C  C857  1  0.792900  0.010200  0.955000  1.0
  C  C858  1  0.217300  0.207100  0.955000  1.0
  C  C859  1  0.656467  0.116033  0.288333  1.0
  C  C860  1  0.459567  0.343533  0.288333  1.0
  C  C861  1  0.883967  0.540433  0.288333  1.0
  C  C862  1  0.323133  0.449367  0.621667  1.0
  C  C863  1  0.126233  0.676867  0.621667  1.0
  C  C864  1  0.550633  0.873767  0.621667  1.0
  C  C865  1  0.035300  0.195900  0.034310  1.0
  C  C866  1  0.160600  0.964700  0.034310  1.0
  C  C867  1  0.804100  0.839400  0.034310  1.0
  C  C868  1  0.368633  0.862567  0.700977  1.0
  C  C869  1  0.493933  0.631367  0.700977  1.0
  C  C870  1  0.137433  0.506067  0.700977  1.0
  C  C871  1  0.701967  0.529233  0.367643  1.0
  C  C872  1  0.827267  0.298033  0.367643  1.0
  C  C873  1  0.470767  0.172733  0.367643  1.0
  C  C874  1  0.964700  0.804100  0.965690  1.0
  C  C875  1  0.839400  0.035300  0.965690  1.0
  C  C876  1  0.195900  0.160600  0.965690  1.0
  C  C877  1  0.631367  0.137433  0.299023  1.0
  C  C878  1  0.506067  0.368633  0.299023  1.0
  C  C879  1  0.862567  0.493933  0.299023  1.0
  C  C880  1  0.298033  0.470767  0.632357  1.0
  C  C881  1  0.172733  0.701967  0.632357  1.0
  C  C882  1  0.529233  0.827267  0.632357  1.0
  C  C883  1  0.060500  0.173300  0.995910  1.0
  C  C884  1  0.112800  0.939500  0.995910  1.0
  C  C885  1  0.826700  0.887200  0.995910  1.0
  C  C886  1  0.393833  0.839967  0.662577  1.0
  C  C887  1  0.446133  0.606167  0.662577  1.0
  C  C888  1  0.160033  0.553867  0.662577  1.0
  C  C889  1  0.727167  0.506633  0.329243  1.0
  C  C890  1  0.779467  0.272833  0.329243  1.0
  C  C891  1  0.493367  0.220533  0.329243  1.0
  C  C892  1  0.939500  0.826700  0.004090  1.0
  C  C893  1  0.887200  0.060500  0.004090  1.0
  C  C894  1  0.173300  0.112800  0.004090  1.0
  C  C895  1  0.606167  0.160033  0.337423  1.0
  C  C896  1  0.553867  0.393833  0.337423  1.0
  C  C897  1  0.839967  0.446133  0.337423  1.0
  C  C898  1  0.272833  0.493367  0.670757  1.0
  C  C899  1  0.220533  0.727167  0.670757  1.0
  C  C900  1  0.506633  0.779467  0.670757  1.0
  S  S901  1  0.827130  0.096370  0.878510  1.0
  S  S902  1  0.269240  0.172870  0.878510  1.0
  S  S903  1  0.903630  0.730760  0.878510  1.0
  S  S904  1  0.160463  0.763037  0.545177  1.0
  S  S905  1  0.602573  0.839537  0.545177  1.0
  S  S906  1  0.236963  0.397427  0.545177  1.0
  S  S907  1  0.493797  0.429703  0.211843  1.0
  S  S908  1  0.935907  0.506203  0.211843  1.0
  S  S909  1  0.570297  0.064093  0.211843  1.0
  S  S910  1  0.172870  0.903630  0.121490  1.0
  S  S911  1  0.730760  0.827130  0.121490  1.0
  S  S912  1  0.096370  0.269240  0.121490  1.0
  S  S913  1  0.839537  0.236963  0.454823  1.0
  S  S914  1  0.397427  0.160463  0.454823  1.0
  S  S915  1  0.763037  0.602573  0.454823  1.0
  S  S916  1  0.506203  0.570297  0.788157  1.0
  S  S917  1  0.064093  0.493797  0.788157  1.0
  S  S918  1  0.429703  0.935907  0.788157  1.0
  S  S919  1  0.767270  0.026510  0.830150  1.0
  S  S920  1  0.259240  0.232730  0.830150  1.0
  S  S921  1  0.973490  0.740760  0.830150  1.0
  S  S922  1  0.100603  0.693177  0.496817  1.0
  S  S923  1  0.592573  0.899397  0.496817  1.0
  S  S924  1  0.306823  0.407427  0.496817  1.0
  S  S925  1  0.433937  0.359843  0.163483  1.0
  S  S926  1  0.925907  0.566063  0.163483  1.0
  S  S927  1  0.640157  0.074093  0.163483  1.0
  S  S928  1  0.232730  0.973490  0.169850  1.0
  S  S929  1  0.740760  0.767270  0.169850  1.0
  S  S930  1  0.026510  0.259240  0.169850  1.0
  S  S931  1  0.899397  0.306823  0.503183  1.0
  S  S932  1  0.407427  0.100603  0.503183  1.0
  S  S933  1  0.693177  0.592573  0.503183  1.0
  S  S934  1  0.566063  0.640157  0.836517  1.0
  S  S935  1  0.074093  0.433937  0.836517  1.0
  S  S936  1  0.359843  0.925907  0.836517  1.0
  S  S937  1  0.689820  0.002590  0.782960  1.0
  S  S938  1  0.312770  0.310180  0.782960  1.0
  S  S939  1  0.997410  0.687230  0.782960  1.0
  S  S940  1  0.023153  0.669257  0.449627  1.0
  S  S941  1  0.646103  0.976847  0.449627  1.0
  S  S942  1  0.330743  0.353897  0.449627  1.0
  S  S943  1  0.356487  0.335923  0.116293  1.0
  S  S944  1  0.979437  0.643513  0.116293  1.0
  S  S945  1  0.664077  0.020563  0.116293  1.0
  S  S946  1  0.310180  0.997410  0.217040  1.0
  S  S947  1  0.687230  0.689820  0.217040  1.0
  S  S948  1  0.002590  0.312770  0.217040  1.0
  S  S949  1  0.976847  0.330743  0.550373  1.0
  S  S950  1  0.353897  0.023153  0.550373  1.0
  S  S951  1  0.669257  0.646103  0.550373  1.0
  S  S952  1  0.643513  0.664077  0.883707  1.0
  S  S953  1  0.020563  0.356487  0.883707  1.0
  S  S954  1  0.335923  0.979437  0.883707  1.0
  S  S955  1  0.716850  0.139840  0.985700  1.0
  S  S956  1  0.422990  0.283150  0.985700  1.0
  S  S957  1  0.860160  0.577010  0.985700  1.0
  S  S958  1  0.050183  0.806507  0.652367  1.0
  S  S959  1  0.756323  0.949817  0.652367  1.0
  S  S960  1  0.193493  0.243677  0.652367  1.0
  S  S961  1  0.383517  0.473173  0.319033  1.0
  S  S962  1  0.089657  0.616483  0.319033  1.0
  S  S963  1  0.526827  0.910343  0.319033  1.0
  S  S964  1  0.283150  0.860160  0.014300  1.0
  S  S965  1  0.577010  0.716850  0.014300  1.0
  S  S966  1  0.139840  0.422990  0.014300  1.0
  S  S967  1  0.949817  0.193493  0.347633  1.0
  S  S968  1  0.243677  0.050183  0.347633  1.0
  S  S969  1  0.806507  0.756323  0.347633  1.0
  S  S970  1  0.616483  0.526827  0.680967  1.0
  S  S971  1  0.910343  0.383517  0.680967  1.0
  S  S972  1  0.473173  0.089657  0.680967  1.0
  S  S973  1  0.593560  0.096120  0.997280  1.0
  S  S974  1  0.502560  0.406440  0.997280  1.0
  S  S975  1  0.903880  0.497440  0.997280  1.0
  S  S976  1  0.926893  0.762787  0.663947  1.0
  S  S977  1  0.835893  0.073107  0.663947  1.0
  S  S978  1  0.237213  0.164107  0.663947  1.0
  S  S979  1  0.260227  0.429453  0.330613  1.0
  S  S980  1  0.169227  0.739773  0.330613  1.0
  S  S981  1  0.570547  0.830773  0.330613  1.0
  S  S982  1  0.406440  0.903880  0.002720  1.0
  S  S983  1  0.497440  0.593560  0.002720  1.0
  S  S984  1  0.096120  0.502560  0.002720  1.0
  S  S985  1  0.073107  0.237213  0.336053  1.0
  S  S986  1  0.164107  0.926893  0.336053  1.0
  S  S987  1  0.762787  0.835893  0.336053  1.0
  S  S988  1  0.739773  0.570547  0.669387  1.0
  S  S989  1  0.830773  0.260227  0.669387  1.0
  S  S990  1  0.429453  0.169227  0.669387  1.0
  S  S991  1  0.483580  0.092660  0.985660  1.0
  S  S992  1  0.609080  0.516420  0.985660  1.0
  S  S993  1  0.907340  0.390920  0.985660  1.0
  S  S994  1  0.816913  0.759327  0.652327  1.0
  S  S995  1  0.942413  0.183087  0.652327  1.0
  S  S996  1  0.240673  0.057587  0.652327  1.0
  S  S997  1  0.150247  0.425993  0.318993  1.0
  S  S998  1  0.275747  0.849753  0.318993  1.0
  S  S999  1  0.574007  0.724253  0.318993  1.0
  S  S1000  1  0.516420  0.907340  0.014340  1.0
  S  S1001  1  0.390920  0.483580  0.014340  1.0
  S  S1002  1  0.092660  0.609080  0.014340  1.0
  S  S1003  1  0.183087  0.240673  0.347673  1.0
  S  S1004  1  0.057587  0.816913  0.347673  1.0
  S  S1005  1  0.759327  0.942413  0.347673  1.0
  S  S1006  1  0.849753  0.574007  0.681007  1.0
  S  S1007  1  0.724253  0.150247  0.681007  1.0
  S  S1008  1  0.425993  0.275747  0.681007  1.0
  N  N1009  1  0.032000  0.189900  0.010380  1
  N  N1010  1  0.157900  0.968000  0.010380  1
  N  N1011  1  0.810100  0.842100  0.010380  1
  N  N1012  1  0.365333  0.856567  0.677047  1
  N  N1013  1  0.491233  0.634667  0.677047  1
  N  N1014  1  0.143433  0.508767  0.677047  1
  N  N1015  1  0.698667  0.523233  0.343713  1
  N  N1016  1  0.824567  0.301333  0.343713  1
  N  N1017  1  0.476767  0.175433  0.343713  1
  N  N1018  1  0.968000  0.810100  0.989620  1
  N  N1019  1  0.842100  0.032000  0.989620  1
  N  N1020  1  0.189900  0.157900  0.989620  1
  N  N1021  1  0.634667  0.143433  0.322953  1
  N  N1022  1  0.508767  0.365333  0.322953  1
  N  N1023  1  0.856567  0.491233  0.322953  1
  N  N1024  1  0.301333  0.476767  0.656287  1
  N  N1025  1  0.175433  0.698667  0.656287  1
  N  N1026  1  0.523233  0.824567  0.656287  1
  N  N1027  1  0.024400  0.182800  0.008200  1.0
  N  N1028  1  0.158400  0.975600  0.008200  1.0
  N  N1029  1  0.817200  0.841600  0.008200  1.0
  N  N1030  1  0.357733  0.849467  0.674867  1.0
  N  N1031  1  0.491733  0.642267  0.674867  1.0
  N  N1032  1  0.150533  0.508267  0.674867  1.0
  N  N1033  1  0.691067  0.516133  0.341533  1.0
  N  N1034  1  0.825067  0.308933  0.341533  1.0
  N  N1035  1  0.483867  0.174933  0.341533  1.0
  N  N1036  1  0.975600  0.817200  0.991800  1.0
  N  N1037  1  0.841600  0.024400  0.991800  1.0
  N  N1038  1  0.182800  0.158400  0.991800  1.0
  N  N1039  1  0.642267  0.150533  0.325133  1.0
  N  N1040  1  0.508267  0.357733  0.325133  1.0
  N  N1041  1  0.849467  0.491733  0.325133  1.0
  N  N1042  1  0.308933  0.483867  0.658467  1.0
  N  N1043  1  0.174933  0.691067  0.658467  1.0
  N  N1044  1  0.516133  0.825067  0.658467  1.0
  O  O1045  1  0.912450  0.161950  0.937440  1.0
  O  O1046  1  0.249500  0.087550  0.937440  1.0
  O  O1047  1  0.838050  0.750500  0.937440  1.0
  O  O1048  1  0.245783  0.828617  0.604107  1.0
  O  O1049  1  0.582833  0.754217  0.604107  1.0
  O  O1050  1  0.171383  0.417167  0.604107  1.0
  O  O1051  1  0.579117  0.495283  0.270773  1.0
  O  O1052  1  0.916167  0.420883  0.270773  1.0
  O  O1053  1  0.504717  0.083833  0.270773  1.0
  O  O1054  1  0.087550  0.838050  0.062560  1.0
  O  O1055  1  0.750500  0.912450  0.062560  1.0
  O  O1056  1  0.161950  0.249500  0.062560  1.0
  O  O1057  1  0.754217  0.171383  0.395893  1.0
  O  O1058  1  0.417167  0.245783  0.395893  1.0
  O  O1059  1  0.828617  0.582833  0.395893  1.0
  O  O1060  1  0.420883  0.504717  0.729227  1.0
  O  O1061  1  0.083833  0.579117  0.729227  1.0
  O  O1062  1  0.495283  0.916167  0.729227  1.0
  O  O1063  1  0.856070  0.177950  0.915530  1.0
  O  O1064  1  0.321880  0.143930  0.915530  1.0
  O  O1065  1  0.822050  0.678120  0.915530  1.0
  O  O1066  1  0.189403  0.844617  0.582197  1.0
  O  O1067  1  0.655213  0.810597  0.582197  1.0
  O  O1068  1  0.155383  0.344787  0.582197  1.0
  O  O1069  1  0.522737  0.511283  0.248863  1.0
  O  O1070  1  0.988547  0.477263  0.248863  1.0
  O  O1071  1  0.488717  0.011453  0.248863  1.0
  O  O1072  1  0.143930  0.822050  0.084470  1.0
  O  O1073  1  0.678120  0.856070  0.084470  1.0
  O  O1074  1  0.177950  0.321880  0.084470  1.0
  O  O1075  1  0.810597  0.155383  0.417803  1.0
  O  O1076  1  0.344787  0.189403  0.417803  1.0
  O  O1077  1  0.844617  0.655213  0.417803  1.0
  O  O1078  1  0.477263  0.488717  0.751137  1.0
  O  O1079  1  0.011453  0.522737  0.751137  1.0
  O  O1080  1  0.511283  0.988547  0.751137  1.0
  O  O1081  1  0.931730  0.272020  0.983290  1.0
  O  O1082  1  0.340290  0.068270  0.983290  1.0
  O  O1083  1  0.727980  0.659710  0.983290  1.0
  O  O1084  1  0.265063  0.938687  0.649957  1.0
  O  O1085  1  0.673623  0.734937  0.649957  1.0
  O  O1086  1  0.061313  0.326377  0.649957  1.0
  O  O1087  1  0.598397  0.605353  0.316623  1.0
  O  O1088  1  0.006957  0.401603  0.316623  1.0
  O  O1089  1  0.394647  0.993043  0.316623  1.0
  O  O1090  1  0.068270  0.727980  0.016710  1.0
  O  O1091  1  0.659710  0.931730  0.016710  1.0
  O  O1092  1  0.272020  0.340290  0.016710  1.0
  O  O1093  1  0.734937  0.061313  0.350043  1.0
  O  O1094  1  0.326377  0.265063  0.350043  1.0
  O  O1095  1  0.938687  0.673623  0.350043  1.0
  O  O1096  1  0.401603  0.394647  0.683377  1.0
  O  O1097  1  0.993043  0.598397  0.683377  1.0
  O  O1098  1  0.605353  0.006957  0.683377  1.0
  O  O1099  1  0.890230  0.299620  0.956780  1.0
  O  O1100  1  0.409390  0.109770  0.956780  1.0
  O  O1101  1  0.700380  0.590610  0.956780  1.0
  O  O1102  1  0.223563  0.966287  0.623447  1.0
  O  O1103  1  0.742723  0.776437  0.623447  1.0
  O  O1104  1  0.033713  0.257277  0.623447  1.0
  O  O1105  1  0.556897  0.632953  0.290113  1.0
  O  O1106  1  0.076057  0.443103  0.290113  1.0
  O  O1107  1  0.367047  0.923943  0.290113  1.0
  O  O1108  1  0.109770  0.700380  0.043220  1.0
  O  O1109  1  0.590610  0.890230  0.043220  1.0
  O  O1110  1  0.299620  0.409390  0.043220  1.0
  O  O1111  1  0.776437  0.033713  0.376553  1.0
  O  O1112  1  0.257277  0.223563  0.376553  1.0
  O  O1113  1  0.966287  0.742723  0.376553  1.0
  O  O1114  1  0.443103  0.367047  0.709887  1.0
  O  O1115  1  0.923943  0.556897  0.709887  1.0
  O  O1116  1  0.632953  0.076057  0.709887  1.0
  O  O1117  1  0.859850  0.166900  0.978750  1.0
  O  O1118  1  0.307050  0.140150  0.978750  1.0
  O  O1119  1  0.833100  0.692950  0.978750  1.0
  O  O1120  1  0.193183  0.833567  0.645417  1.0
  O  O1121  1  0.640383  0.806817  0.645417  1.0
  O  O1122  1  0.166433  0.359617  0.645417  1.0
  O  O1123  1  0.526517  0.500233  0.312083  1.0
  O  O1124  1  0.973717  0.473483  0.312083  1.0
  O  O1125  1  0.499767  0.026283  0.312083  1.0
  O  O1126  1  0.140150  0.833100  0.021250  1.0
  O  O1127  1  0.692950  0.859850  0.021250  1.0
  O  O1128  1  0.166900  0.307050  0.021250  1.0
  O  O1129  1  0.806817  0.166433  0.354583  1.0
  O  O1130  1  0.359617  0.193183  0.354583  1.0
  O  O1131  1  0.833567  0.640383  0.354583  1.0
  O  O1132  1  0.473483  0.499767  0.687917  1.0
  O  O1133  1  0.026283  0.526517  0.687917  1.0
  O  O1134  1  0.500233  0.973717  0.687917  1.0
  O  O1135  1  0.813440  0.195700  0.957280  1.0
  O  O1136  1  0.382260  0.186560  0.957280  1.0
  O  O1137  1  0.804300  0.617740  0.957280  1.0
  O  O1138  1  0.146773  0.862367  0.623947  1.0
  O  O1139  1  0.715593  0.853227  0.623947  1.0
  O  O1140  1  0.137633  0.284407  0.623947  1.0
  O  O1141  1  0.480107  0.529033  0.290613  1.0
  O  O1142  1  0.048927  0.519893  0.290613  1.0
  O  O1143  1  0.470967  0.951073  0.290613  1.0
  O  O1144  1  0.186560  0.804300  0.042720  1.0
  O  O1145  1  0.617740  0.813440  0.042720  1.0
  O  O1146  1  0.195700  0.382260  0.042720  1.0
  O  O1147  1  0.853227  0.137633  0.376053  1.0
  O  O1148  1  0.284407  0.146773  0.376053  1.0
  O  O1149  1  0.862367  0.715593  0.376053  1.0
  O  O1150  1  0.519893  0.470967  0.709387  1.0
  O  O1151  1  0.951073  0.480107  0.709387  1.0
  O  O1152  1  0.529033  0.048927  0.709387  1.0
  O  O1153  1  0.985320  0.266630  0.942650  1.0
  O  O1154  1  0.281310  0.014680  0.942650  1.0
  O  O1155  1  0.733370  0.718690  0.942650  1.0
  O  O1156  1  0.318653  0.933297  0.609317  1.0
  O  O1157  1  0.614643  0.681347  0.609317  1.0
  O  O1158  1  0.066703  0.385357  0.609317  1.0
  O  O1159  1  0.651987  0.599963  0.275983  1.0
  O  O1160  1  0.947977  0.348013  0.275983  1.0
  O  O1161  1  0.400037  0.052023  0.275983  1.0
  O  O1162  1  0.014680  0.733370  0.057350  1.0
  O  O1163  1  0.718690  0.985320  0.057350  1.0
  O  O1164  1  0.266630  0.281310  0.057350  1.0
  O  O1165  1  0.681347  0.066703  0.390683  1.0
  O  O1166  1  0.385357  0.318653  0.390683  1.0
  O  O1167  1  0.933297  0.614643  0.390683  1.0
  O  O1168  1  0.348013  0.400037  0.724017  1.0
  O  O1169  1  0.052023  0.651987  0.724017  1.0
  O  O1170  1  0.599963  0.947977  0.724017  1.0
  O  O1171  1  0.935030  0.282080  0.915670  1.0
  O  O1172  1  0.347050  0.064970  0.915670  1.0
  O  O1173  1  0.717920  0.652950  0.915670  1.0
  O  O1174  1  0.268363  0.948747  0.582337  1.0
  O  O1175  1  0.680383  0.731637  0.582337  1.0
  O  O1176  1  0.051253  0.319617  0.582337  1.0
  O  O1177  1  0.601697  0.615413  0.249003  1.0
  O  O1178  1  0.013717  0.398303  0.249003  1.0
  O  O1179  1  0.384587  0.986283  0.249003  1.0
  O  O1180  1  0.064970  0.717920  0.084330  1.0
  O  O1181  1  0.652950  0.935030  0.084330  1.0
  O  O1182  1  0.282080  0.347050  0.084330  1.0
  O  O1183  1  0.731637  0.051253  0.417663  1.0
  O  O1184  1  0.319617  0.268363  0.417663  1.0
  O  O1185  1  0.948747  0.680383  0.417663  1.0
  O  O1186  1  0.398303  0.384587  0.750997  1.0
  O  O1187  1  0.986283  0.601697  0.750997  1.0
  O  O1188  1  0.615413  0.013717  0.750997  1.0
  O  O1189  1  0.975020  0.196900  0.984470  1.0
  O  O1190  1  0.221880  0.024980  0.984470  1.0
  O  O1191  1  0.803100  0.778120  0.984470  1.0
  O  O1192  1  0.308353  0.863567  0.651137  1.0
  O  O1193  1  0.555213  0.691647  0.651137  1.0
  O  O1194  1  0.136433  0.444787  0.651137  1.0
  O  O1195  1  0.641687  0.530233  0.317803  1.0
  O  O1196  1  0.888547  0.358313  0.317803  1.0
  O  O1197  1  0.469767  0.111453  0.317803  1.0
  O  O1198  1  0.024980  0.803100  0.015530  1.0
  O  O1199  1  0.778120  0.975020  0.015530  1.0
  O  O1200  1  0.196900  0.221880  0.015530  1.0
  O  O1201  1  0.691647  0.136433  0.348863  1.0
  O  O1202  1  0.444787  0.308353  0.348863  1.0
  O  O1203  1  0.863567  0.555213  0.348863  1.0
  O  O1204  1  0.358313  0.469767  0.682197  1.0
  O  O1205  1  0.111453  0.641687  0.682197  1.0
  O  O1206  1  0.530233  0.888547  0.682197  1.0
  O  O1207  1  0.820610  0.258510  0.911100  1.0
  O  O1208  1  0.437900  0.179390  0.911100  1.0
  O  O1209  1  0.741490  0.562100  0.911100  1.0
  O  O1210  1  0.153943  0.925177  0.577767  1.0
  O  O1211  1  0.771233  0.846057  0.577767  1.0
  O  O1212  1  0.074823  0.228767  0.577767  1.0
  O  O1213  1  0.487277  0.591843  0.244433  1.0
  O  O1214  1  0.104567  0.512723  0.244433  1.0
  O  O1215  1  0.408157  0.895433  0.244433  1.0
  O  O1216  1  0.179390  0.741490  0.088900  1.0
  O  O1217  1  0.562100  0.820610  0.088900  1.0
  O  O1218  1  0.258510  0.437900  0.088900  1.0
  O  O1219  1  0.846057  0.074823  0.422233  1.0
  O  O1220  1  0.228767  0.153943  0.422233  1.0
  O  O1221  1  0.925177  0.771233  0.422233  1.0
  O  O1222  1  0.512723  0.408157  0.755567  1.0
  O  O1223  1  0.895433  0.487277  0.755567  1.0
  O  O1224  1  0.591843  0.104567  0.755567  1.0
