
#######################################################################
#
#                 Cambridge Crystallographic Data Centre
#                                CCDC 
#
#######################################################################
#
# If this CIF has been generated from an entry in the Cambridge 
# Structural Database, then it will include bibliographic, chemical, 
# crystal, experimental, refinement or atomic coordinate data resulting 
# from the CCDC's data processing and validation procedures.
#
#######################################################################

data_QAVBOF
_chemical_name_common            MOP-28
_chemical_formula_moiety         
'C198 H120 Cu12 N6 O60 S36,13(C5 H6 N1 O1),C4 H9 N1 O1,H2 O1'
_chemical_name_systematic        
"dodecakis(\m~4~-2,2':5'2''-Terthiophene-5,5''-dicarboxylato)-hexakis(1-methyl-2-pyrrolidone)-hexa-aqua-dodeca-copper(ii) 1-methyl-2-pyrrolidine N,N-dimethylacetamide monohydrate clathrate"
_symmetry_cell_setting           rhombohedral
_symmetry_space_group_name_H-M   'R -3'
_symmetry_Int_Tables_number      148
_space_group_name_Hall           '-R 3'
loop_
_symmetry_equiv_pos_site_id
_symmetry_equiv_pos_as_xyz
1 x,y,z
2 -y,x-y,z
3 -x+y,-x,z
4 2/3+x,1/3+y,1/3+z
5 2/3-y,1/3+x-y,1/3+z
6 2/3-x+y,1/3-x,1/3+z
7 1/3+x,2/3+y,2/3+z
8 1/3-y,2/3+x-y,2/3+z
9 1/3-x+y,2/3-x,2/3+z
10 -x,-y,-z
11 y,-x+y,-z
12 x-y,x,-z
13 1/3-x,2/3-y,2/3-z
14 1/3+y,2/3-x+y,2/3-z
15 1/3+x-y,2/3+x,2/3-z
16 2/3-x,1/3-y,1/3-z
17 2/3+y,1/3-x+y,1/3-z
18 2/3+x-y,1/3+x,1/3-z
_cell_length_a                   29.457(5)
_cell_length_b                   29.457(5)
_cell_length_c                   54.236(20)
_cell_angle_alpha                90
_cell_angle_beta                 90
_cell_angle_gamma                120
_cell_volume                     40756.4
_exptl_crystal_colour            green
_exptl_crystal_description       rhombohedron
_cell_formula_units_Z            3
loop_
_atom_site_label
_atom_site_type_symbol
_atom_site_fract_x
_atom_site_fract_y
_atom_site_fract_z
Cu1 Cu 0.073059(18) 0.288359(17) 0.037326(8)
Cu2 Cu 0.131045(19) 0.371656(18) 0.065817(9)
S1 S 0.17287(5) 0.26924(4) 0.12149(2)
S2 S 0.23273(5) 0.25924(5) 0.16985(2)
S3 S 0.31018(5) 0.31277(5) 0.21704(2)
S4 S 0.28315(4) 0.42299(4) 0.01430(2)
S5 S 0.40644(5) 0.50256(5) 0.00272(2)
S6 S 0.51642(4) 0.60908(4) 0.01434(2)
O1 O 0.08755(10) 0.24950(10) 0.06256(5)
O2 O 0.14393(10) 0.32188(12) 0.08447(5)
O3 O 0.06827(10) 0.34029(12) 0.01671(5)
O4 O 0.10977(11) 0.40939(11) 0.04322(6)
O5 O 0.14015(11) 0.30705(11) 0.02125(5)
O6 O 0.18656(9) 0.38226(10) 0.04272(5)
O7 O 0.01468(10) 0.28131(10) 0.05735(5)
O8 O 0.06497(10) 0.34705(12) 0.08433(5)
O9 O 0.02498(12) 0.22188(13) 0.01553(7)
O10 O 0.17939(11) 0.43790(11) 0.08890(5)
C1 C 0.11942(18) 0.2723(2) 0.07990(10)
C2 C 0.13054(16) 0.2411(2) 0.09709(8)
C3 C 0.11140(19) 0.1889(2) 0.09681(9)
H1 H 0.0884 0.1672 0.0847
C4 C 0.1290(2) 0.16978(19) 0.11620(10)
H2 H 0.1186 0.1346 0.1184
C5 C 0.16296(19) 0.20893(18) 0.13136(10)
C6 C 0.18881(19) 0.2054(2) 0.15346(10)
C7 C 0.1834(2) 0.1602(2) 0.16387(11)
H3 H 0.1622 0.1268 0.1574
C8 C 0.2143(2) 0.1709(2) 0.18578(11)
H4 H 0.2147 0.1448 0.1952
C9 C 0.2427(2) 0.2223(2) 0.19163(9)
C10 C 0.27774(19) 0.24603(17) 0.21212(10)
C11 C 0.2913(2) 0.22211(19) 0.22934(10)
H5 H 0.2775 0.1860 0.2300
C12 C 0.3288(2) 0.2574(2) 0.24642(9)
H6 H 0.3428 0.2467 0.2590
C13 C 0.34211(17) 0.3075(2) 0.24276(8)
C14 C 0.02104(17) 0.30836(18) 0.07582(10)
C15 C 0.18084(18) 0.34926(19) 0.02645(9)
C16 C 0.22690(17) 0.36275(16) 0.01127(9)
C17 C 0.23336(18) 0.33328(16) -0.00606(9)
H7 H 0.2073 0.2998 -0.0106
C18 C 0.2844(2) 0.3593(2) -0.01636(8)
H8 H 0.2953 0.3438 -0.0281
C19 C 0.31624(18) 0.40896(19) -0.00781(7)
C20 C 0.36988(19) 0.44690(16) -0.01502(9)
C21 C 0.4005(2) 0.4460(2) -0.03447(9)
H9 H 0.3885 0.4189 -0.0459
C22 C 0.4504(2) 0.4891(2) -0.03511(10)
H10 H 0.4752 0.4943 -0.0471
C23 C 0.45931(19) 0.5233(2) -0.01628(10)
C24 C 0.5085(2) 0.57070(18) -0.01113(8)
C25 C 0.5528(2) 0.59051(19) -0.02500(10)
H11 H 0.5555 0.5763 -0.0399
C26 C 0.5924(2) 0.6336(2) -0.01432(10)
H12 H 0.6260 0.6500 -0.0210
C27 C 0.58126(15) 0.65245(19) 0.00698(11)
C28 C 0.08585(18) 0.38745(19) 0.02429(11)
N1 N -0.0244(9) 0.1584(8) -0.0082(3)
C29 C 0.0098(4) 0.2096(4) -0.00269(19)
C30 C 0.0273(4) 0.2433(4) -0.0227(2)
C31 C -0.0102(6) 0.2071(6) -0.0450(3)
C32 C -0.0353(3) 0.1606(3) -0.03431(18)
C33 C -0.0605(3) 0.1128(3) 0.00409(15)
Cu1P Cu -0.044974(17) 0.548633(25) 0.296007(8)
Cu1B Cu 0.215300(25) 0.926941(18) 0.037326(8)
Cu1O Cu 0.593608(18) 1.044974(17) 0.296007(8)
Cu1A Cu 0.711641(17) 0.784700(25) 0.037326(8)
Cu1Q Cu 0.451367(25) 0.406392(18) 0.296007(8)
Cu2P Cu 0.038323(18) 0.573944(26) 0.267516(9)
Cu2B Cu 0.240611(26) 0.868955(19) 0.065817(9)
Cu2O Cu 0.535622(19) 0.961677(18) 0.267516(9)
Cu2A Cu 0.628344(18) 0.759389(26) 0.065817(9)
Cu2Q Cu 0.426056(26) 0.464378(19) 0.267516(9)
S1P S -0.06409(4) 0.42970(6) 0.21184(2)
S1B S 0.09637(6) 0.82713(5) 0.12149(2)
S1O S 0.49380(5) 1.06409(4) 0.21184(2)
S1A S 0.73076(4) 0.90363(6) 0.12149(2)
S1Q S 0.57030(6) 0.50620(5) 0.21184(2)
S2P S -0.07409(5) 0.35984(7) 0.16348(2)
S2B S 0.02651(7) 0.76727(5) 0.16985(2)
S2O S 0.43394(5) 1.07409(5) 0.16348(2)
S2A S 0.74076(5) 0.97349(7) 0.16985(2)
S2Q S 0.64016(7) 0.56606(5) 0.16348(2)
S3P S -0.02056(5) 0.33592(7) 0.11629(2)
S3B S 0.00259(7) 0.68982(5) 0.21704(2)
S3O S 0.35649(5) 1.02056(5) 0.11629(2)
S3A S 0.68723(5) 0.99741(7) 0.21704(2)
S3Q S 0.66408(7) 0.64351(5) 0.11629(2)
S4Q S 0.52683(6) 0.61648(4) 0.31903(2)
S4P S 0.08966(4) 0.47317(6) 0.31903(2)
S4A S 0.57701(4) 0.86016(6) 0.01430(2)
S4O S 0.38352(4) 0.91034(4) 0.31903(2)
S4B S 0.13984(6) 0.71685(4) 0.01430(2)
S5Q S 0.57055(7) 0.73977(5) 0.33061(2)
S5P S 0.16923(5) 0.42945(7) 0.33061(2)
S5A S 0.49744(5) 0.90388(7) 0.00272(2)
S5O S 0.26023(5) 0.83077(5) 0.33061(2)
S5B S 0.09612(7) 0.59356(5) 0.00272(2)
S6Q S 0.57401(6) 0.84975(4) 0.31899(2)
S6P S 0.27575(4) 0.42599(6) 0.31899(2)
S6A S 0.39092(4) 0.90734(6) 0.01434(2)
S6O S 0.15025(4) 0.72425(4) 0.31899(2)
S6B S 0.09266(6) 0.48358(4) 0.01434(2)
O1P O -0.08383(10) 0.49528(14) 0.27077(5)
O1B O 0.16195(14) 0.91245(10) 0.06256(5)
O1O O 0.57912(10) 1.08383(10) 0.27077(5)
O1A O 0.75050(10) 0.83805(14) 0.06256(5)
O1Q O 0.50472(14) 0.42088(10) 0.27077(5)
O2P O -0.01145(12) 0.51128(16) 0.24886(5)
O2B O 0.17795(16) 0.85607(10) 0.08447(5)
O2O O 0.52274(10) 1.01145(12) 0.24886(5)
O2A O 0.67812(12) 0.82205(16) 0.08447(5)
O2Q O 0.48872(16) 0.47726(10) 0.24886(5)
O3P O 0.00696(12) 0.60535(16) 0.31662(5)
O3B O 0.27202(16) 0.93173(10) 0.01671(5)
O3O O 0.59840(10) 0.99304(12) 0.31662(5)
O3A O 0.65971(12) 0.72798(16) 0.01671(5)
O3Q O 0.39465(16) 0.40160(10) 0.31662(5)
O4P O 0.07606(11) 0.63295(16) 0.29011(6)
O4B O 0.29962(16) 0.89023(11) 0.04322(6)
O4O O 0.55690(11) 0.92394(11) 0.29011(6)
O4A O 0.59061(11) 0.70038(16) 0.04322(6)
O4Q O 0.36705(16) 0.44310(11) 0.29011(6)
O5P O -0.02628(11) 0.50023(16) 0.31208(5)
O5B O 0.16690(16) 0.85985(11) 0.02125(5)
O5O O 0.52652(11) 1.02628(11) 0.31208(5)
O5A O 0.69295(11) 0.83310(16) 0.02125(5)
O5Q O 0.49977(16) 0.47348(11) 0.31208(5)
O6P O 0.04893(10) 0.52903(13) 0.29061(5)
O6B O 0.19570(13) 0.81344(9) 0.04272(5)
O6O O 0.48011(9) 0.95107(10) 0.29061(5)
O6A O 0.61774(10) 0.80430(13) 0.04272(5)
O6Q O 0.47097(13) 0.51989(9) 0.29061(5)
O7P O -0.05202(10) 0.59996(14) 0.27598(5)
O7B O 0.26663(14) 0.98532(10) 0.05735(5)
O7O O 0.65199(10) 1.05202(10) 0.27598(5)
O7A O 0.71869(10) 0.73337(14) 0.05735(5)
O7Q O 0.40004(14) 0.34801(10) 0.27598(5)
O8P O 0.01372(12) 0.61541(16) 0.24900(5)
O8B O 0.28208(16) 0.93503(10) 0.08433(5)
O8O O 0.60170(10) 0.98628(12) 0.24900(5)
O8A O 0.65295(12) 0.71792(16) 0.08433(5)
O8Q O 0.38459(16) 0.39830(10) 0.24900(5)
O9P O -0.11145(13) 0.53023(18) 0.31780(7)
O9B O 0.19690(18) 0.97502(12) 0.01553(7)
O9O O 0.64169(12) 1.11145(13) 0.31780(7)
O9A O 0.77812(13) 0.80310(18) 0.01553(7)
O9Q O 0.46977(18) 0.35831(12) 0.31780(7)
O10Q O 0.40816(16) 0.51272(11) 0.24443(5)
O10A O 0.56210(11) 0.74149(16) 0.08890(5)
O10O O 0.48728(11) 0.89543(11) 0.24443(5)
O10B O 0.25851(16) 0.82061(11) 0.08890(5)
O10P O 0.10457(11) 0.59184(16) 0.24443(5)
C1P C -0.0610(2) 0.48621(27) 0.25343(10)
C1B C 0.15288(27) 0.88058(18) 0.07990(10)
C1O C 0.54725(18) 1.0610(2) 0.25343(10)
C1A C 0.7277(2) 0.84712(27) 0.07990(10)
C1Q C 0.51379(27) 0.45275(18) 0.25343(10)
C2P C -0.0922(2) 0.44389(26) 0.23624(8)
C2B C 0.11056(26) 0.86946(16) 0.09709(8)
C2O C 0.53613(16) 1.0922(2) 0.23624(8)
C2A C 0.7589(2) 0.88944(26) 0.09709(8)
C2Q C 0.55611(26) 0.46387(16) 0.23624(8)
C3Q C 0.58917(28) 0.44473(19) 0.23652(9)
C3A C 0.8111(2) 0.92250(28) 0.09681(9)
C3O C 0.55527(19) 1.1444(2) 0.23652(9)
C3B C 0.07750(28) 0.88860(19) 0.09681(9)
C3P C -0.1444(2) 0.41083(28) 0.23652(9)
H1Q H 0.5879 0.4217 0.2486
H1A H 0.8328 0.9212 0.0847
H1O H 0.5783 1.1661 0.2486
H1B H 0.0788 0.9116 0.0847
H1P H -0.1661 0.4121 0.2486
C4Q C 0.62589(28) 0.4623(2) 0.21713(10)
C4A C 0.83022(19) 0.95922(28) 0.11620(10)
C4O C 0.5377(2) 1.16355(19) 0.21713(10)
C4B C 0.04078(28) 0.8710(2) 0.11620(10)
C4P C -0.16355(19) 0.37411(28) 0.21713(10)
H2Q H 0.6507 0.4519 0.2149
H2A H 0.8654 0.9840 0.1184
H2O H 0.5481 1.1987 0.2149
H2B H 0.0160 0.8814 0.1184
H2P H -0.1987 0.3493 0.2149
C5P C -0.12440(18) 0.37930(26) 0.20197(10)
C5B C 0.04597(26) 0.83704(19) 0.13136(10)
C5O C 0.50371(19) 1.12440(18) 0.20197(10)
C5A C 0.79107(18) 0.95403(26) 0.13136(10)
C5Q C 0.62070(26) 0.49629(19) 0.20197(10)
C6P C -0.1279(2) 0.34992(28) 0.17987(10)
C6B C 0.01659(28) 0.81119(19) 0.15346(10)
C6O C 0.47786(19) 1.1279(2) 0.17987(10)
C6A C 0.7946(2) 0.98341(28) 0.15346(10)
C6Q C 0.65008(28) 0.52214(19) 0.17987(10)
C7Q C 0.6899(3) 0.5167(2) 0.16946(11)
C7A C 0.8398(2) 1.0232(3) 0.16387(11)
C7O C 0.4833(2) 1.1731(2) 0.16946(11)
C7B C -0.0232(3) 0.8166(2) 0.16387(11)
C7P C -0.1731(2) 0.3101(3) 0.16946(11)
H3Q H 0.7021 0.4955 0.1759
H3A H 0.8732 1.0354 0.1574
H3O H 0.5045 1.2065 0.1759
H3B H -0.0354 0.8378 0.1574
H3P H -0.2065 0.2979 0.1759
C8Q C 0.7101(3) 0.5476(2) 0.14755(11)
C8A C 0.8291(2) 1.0434(3) 0.18578(11)
C8O C 0.4524(2) 1.1624(2) 0.14755(11)
C8B C -0.0434(3) 0.7857(2) 0.18578(11)
C8P C -0.1624(2) 0.2899(3) 0.14755(11)
H4Q H 0.7366 0.5480 0.1381
H4A H 0.8552 1.0699 0.1952
H4O H 0.4520 1.1885 0.1381
H4B H -0.0699 0.7853 0.1952
H4P H -0.1885 0.2634 0.1381
C9P C -0.1110(2) 0.3129(3) 0.14170(9)
C9B C -0.0204(3) 0.7573(2) 0.19163(9)
C9O C 0.4240(2) 1.1110(2) 0.14170(9)
C9A C 0.7777(2) 1.0204(3) 0.19163(9)
C9Q C 0.6871(3) 0.5760(2) 0.14170(9)
C10P C -0.08730(17) 0.30162(25) 0.12121(10)
C10B C -0.03171(25) 0.72226(19) 0.21212(10)
C10O C 0.38893(19) 1.08730(17) 0.12121(10)
C10A C 0.75397(17) 1.03171(25) 0.21212(10)
C10Q C 0.69838(25) 0.61107(19) 0.12121(10)
C11Q C 0.73586(28) 0.6246(2) 0.10399(10)
C11A C 0.77789(19) 1.06919(28) 0.22934(10)
C11O C 0.3754(2) 1.11122(19) 0.10399(10)
C11B C -0.06919(28) 0.7087(2) 0.22934(10)
C11P C -0.11122(19) 0.26414(28) 0.10399(10)
H5Q H 0.7582 0.6108 0.1033
H5A H 0.8140 1.0915 0.2300
H5O H 0.3892 1.1473 0.1033
H5B H -0.0915 0.7225 0.2300
H5P H -0.1473 0.2418 0.1033
C12Q C 0.7381(3) 0.6621(2) 0.08691(9)
C12A C 0.7426(2) 1.0714(3) 0.24642(9)
C12O C 0.3379(2) 1.0759(2) 0.08691(9)
C12B C -0.0714(3) 0.6712(2) 0.24642(9)
C12P C -0.0759(2) 0.2619(3) 0.08691(9)
H6Q H 0.7628 0.6761 0.0743
H6A H 0.7533 1.0961 0.2590
H6O H 0.3239 1.0866 0.0743
H6B H -0.0961 0.6572 0.2590
H6P H -0.0866 0.2372 0.0743
C13P C -0.0258(2) 0.29872(26) 0.09057(8)
C13B C -0.03461(26) 0.65789(17) 0.24276(8)
C13O C 0.32456(17) 1.0258(2) 0.09057(8)
C13A C 0.6925(2) 1.03461(26) 0.24276(8)
C13Q C 0.70128(26) 0.67544(17) 0.09057(8)
C14P C -0.02497(18) 0.62065(25) 0.25751(10)
C14B C 0.28732(25) 0.97896(17) 0.07582(10)
C14O C 0.64563(17) 1.02497(18) 0.25751(10)
C14A C 0.69164(18) 0.71268(25) 0.07582(10)
C14Q C 0.37935(25) 0.35437(17) 0.25751(10)
C15P C 0.01593(19) 0.50175(26) 0.30688(9)
C15B C 0.16842(26) 0.81916(18) 0.02645(9)
C15O C 0.48583(18) 0.98407(19) 0.30688(9)
C15A C 0.65074(19) 0.83158(26) 0.02645(9)
C15Q C 0.49825(26) 0.51417(18) 0.30688(9)
C16Q C 0.53082(23) 0.56023(17) 0.32206(9)
C16P C 0.02942(16) 0.46918(23) 0.32206(9)
C16A C 0.63725(16) 0.86415(23) 0.01127(9)
C16O C 0.43977(17) 0.97058(16) 0.32206(9)
C16B C 0.13585(23) 0.77310(17) 0.01127(9)
C17Q C 0.56675(24) 0.56669(18) 0.33939(9)
C17P C -0.00005(16) 0.43325(24) 0.33939(9)
C17A C 0.66672(16) 0.90008(24) -0.00606(9)
C17O C 0.43331(18) 1.00005(16) 0.33939(9)
C17B C 0.09992(24) 0.76664(18) -0.00606(9)
H7Q H 0.5742 0.5406 0.3439
H7P H -0.0335 0.4258 0.3439
H7A H 0.7002 0.9075 -0.0106
H7O H 0.4594 1.0335 0.3439
H7B H 0.0925 0.7927 -0.0106
C18Q C 0.5918(3) 0.6177(2) 0.34969(8)
C18P C 0.0260(2) 0.4082(3) 0.34969(8)
C18A C 0.6407(2) 0.9251(3) -0.01636(8)
C18O C 0.3823(2) 0.9740(2) 0.34969(8)
C18B C 0.0749(3) 0.7156(2) -0.01636(8)
H8Q H 0.6182 0.6286 0.3614
H8P H 0.0105 0.3818 0.3614
H8A H 0.6562 0.9515 -0.0281
H8O H 0.3714 0.9895 0.3614
H8B H 0.0485 0.7047 -0.0281
C19Q C 0.57395(26) 0.64957(18) 0.34114(7)
C19P C 0.07563(19) 0.42605(26) 0.34114(7)
C19A C 0.59104(19) 0.90728(26) -0.00781(7)
C19O C 0.35043(18) 0.92437(19) 0.34114(7)
C19B C 0.09272(26) 0.68376(18) -0.00781(7)
C20Q C 0.58965(25) 0.70321(19) 0.34835(9)
C20P C 0.11357(16) 0.41035(25) 0.34835(9)
C20A C 0.55310(16) 0.92298(25) -0.01502(9)
C20O C 0.29679(19) 0.88643(16) 0.34835(9)
C20B C 0.07702(25) 0.63012(19) -0.01502(9)
C21Q C 0.6212(3) 0.7338(2) 0.36780(9)
C21P C 0.1127(2) 0.3788(3) 0.36780(9)
C21A C 0.5540(2) 0.9545(3) -0.03447(9)
C21O C 0.2662(2) 0.8873(2) 0.36780(9)
C21B C 0.0455(3) 0.5995(2) -0.03447(9)
H9Q H 0.6363 0.7218 0.3792
H9P H 0.0856 0.3637 0.3792
H9A H 0.5811 0.9696 -0.0459
H9O H 0.2782 0.9144 0.3792
H9B H 0.0304 0.6115 -0.0459
C22Q C 0.6280(3) 0.7837(2) 0.36844(10)
C22P C 0.1558(2) 0.3720(3) 0.36844(10)
C22A C 0.5109(2) 0.9613(3) -0.03511(10)
C22O C 0.2163(2) 0.8442(2) 0.36844(10)
C22B C 0.0387(3) 0.5496(2) -0.03511(10)
H10Q H 0.6476 0.8085 0.3804
H10P H 0.1610 0.3524 0.3804
H10A H 0.5057 0.9809 -0.0471
H10O H 0.1915 0.8390 0.3804
H10B H 0.0191 0.5248 -0.0471
C23Q C 0.60268(28) 0.79264(19) 0.34961(10)
C23P C 0.1900(2) 0.39732(28) 0.34961(10)
C23A C 0.4767(2) 0.93601(28) -0.01628(10)
C23O C 0.20736(19) 0.8100(2) 0.34961(10)
C23B C 0.06399(28) 0.54069(19) -0.01628(10)
C24Q C 0.60447(27) 0.8418(2) 0.34446(8)
C24P C 0.23737(18) 0.39553(27) 0.34446(8)
C24A C 0.42930(18) 0.93780(27) -0.01113(8)
C24O C 0.1582(2) 0.76263(18) 0.34446(8)
C24B C 0.06220(27) 0.4915(2) -0.01113(8)
C25Q C 0.62896(28) 0.8861(2) 0.35833(10)
C25P C 0.25718(19) 0.37104(28) 0.35833(10)
C25A C 0.40949(19) 0.96229(28) -0.02500(10)
C25O C 0.1139(2) 0.74282(19) 0.35833(10)
C25B C 0.03771(28) 0.4472(2) -0.02500(10)
H11Q H 0.6459 0.8888 0.3732
H11P H 0.2430 0.3541 0.3732
H11A H 0.4237 0.9792 -0.0399
H11O H 0.1112 0.7570 0.3732
H11B H 0.0208 0.4445 -0.0399
C26Q C 0.6255(3) 0.9257(2) 0.34765(10)
C26P C 0.3003(2) 0.3745(3) 0.34765(10)
C26A C 0.3664(2) 0.9588(3) -0.01432(10)
C26O C 0.0743(2) 0.6997(2) 0.34765(10)
C26B C 0.0412(3) 0.4076(2) -0.01432(10)
H12Q H 0.6427 0.9593 0.3543
H12P H 0.3167 0.3573 0.3543
H12A H 0.3500 0.9760 -0.0210
H12O H 0.0407 0.6833 0.3543
H12B H 0.0240 0.3740 -0.0210
C27Q C 0.59548(24) 0.91459(15) 0.32635(11)
C27P C 0.31912(19) 0.40452(24) 0.32635(11)
C27A C 0.34755(19) 0.92881(24) 0.00698(11)
C27O C 0.08541(15) 0.68088(19) 0.32635(11)
C27B C 0.07119(24) 0.41874(15) 0.00698(11)
C28P C 0.05412(19) 0.63493(26) 0.30904(11)
C28B C 0.30160(26) 0.91415(18) 0.02429(11)
C28O C 0.58082(18) 0.94588(19) 0.30904(11)
C28A C 0.61255(19) 0.69840(26) 0.02429(11)
C28Q C 0.36507(26) 0.41918(18) 0.30904(11)
N1P N -0.1749(8) 0.5161(12) 0.3415(3)
N1B N 0.1828(12) 1.0244(9) -0.0082(3)
N1O N 0.6911(9) 1.1749(8) 0.3415(3)
N1A N 0.8416(8) 0.8172(12) -0.0082(3)
N1Q N 0.4839(12) 0.3089(9) 0.3415(3)
C29P C -0.1237(4) 0.5331(6) 0.33602(19)
C29B C 0.1998(6) 0.9902(4) -0.00269(19)
C29O C 0.6569(4) 1.1237(4) 0.33602(19)
C29A C 0.7904(4) 0.8002(6) -0.00269(19)
C29Q C 0.4669(6) 0.3431(4) 0.33602(19)
C30P C -0.0900(4) 0.5493(6) 0.3560(2)
C30B C 0.2160(6) 0.9727(4) -0.0227(2)
C30O C 0.6394(4) 1.0900(4) 0.3560(2)
C30A C 0.7567(4) 0.7840(6) -0.0227(2)
C30Q C 0.4507(6) 0.3606(4) 0.3560(2)
C31P C -0.1262(6) 0.5506(8) 0.3783(3)
C31B C 0.2173(8) 1.0102(6) -0.0450(3)
C31O C 0.6769(6) 1.1262(6) 0.3783(3)
C31A C 0.7929(6) 0.7827(8) -0.0450(3)
C31Q C 0.4494(8) 0.3231(6) 0.3783(3)
C32P C -0.1727(3) 0.5292(4) 0.36764(18)
C32B C 0.1959(4) 1.0353(3) -0.03431(18)
C32O C 0.7020(3) 1.1727(3) 0.36764(18)
C32A C 0.8394(3) 0.8041(4) -0.03431(18)
C32Q C 0.4708(4) 0.2980(3) 0.36764(18)
C33P C -0.2205(3) 0.5066(4) 0.32924(15)
C33B C 0.1733(4) 1.0605(3) 0.00409(15)
C33O C 0.7272(3) 1.2205(3) 0.32924(15)
C33A C 0.8872(3) 0.8267(4) 0.00409(15)
C33Q C 0.4934(4) 0.2728(3) 0.32924(15)
N2? N -0.0320(3) 0.1579(3) -0.01038(13)
C34? C -0.0054(5) 0.1816(5) 0.0145(3)
C35? C -0.0195(5) 0.1563(5) 0.0387(3)
C36? C -0.0603(5) 0.1004(5) 0.0294(2)
loop_
_geom_bond_atom_site_label_1
_geom_bond_atom_site_label_2
_geom_bond_site_symmetry_1
_geom_bond_site_symmetry_2
Cu1 Cu2 1_555 1_555
Cu2 O2 1_555 1_555
S1 C2 1_555 1_555
S2 C6 1_555 1_555
S3 C10 1_555 1_555
S4 C16 1_555 1_555
S5 C20 1_555 1_555
S6 C24 1_555 1_555
O1 Cu1 1_555 1_555
O2 C1 1_555 1_555
O3 Cu1 1_555 1_555
O4 Cu2 1_555 1_555
O5 Cu1 1_555 1_555
O6 Cu2 1_555 1_555
O7 Cu1 1_555 1_555
O8 Cu2 1_555 1_555
O9 Cu1 1_555 1_555
O10 Cu2 1_555 1_555
C1 O1 1_555 1_555
C2 C1 1_555 1_555
C3 C2 1_555 1_555
H1 C3 1_555 1_555
C4 C3 1_555 1_555
H2 C4 1_555 1_555
C5 S1 1_555 1_555
C6 C5 1_555 1_555
C7 C6 1_555 1_555
H3 C7 1_555 1_555
C8 C7 1_555 1_555
H4 C8 1_555 1_555
C9 S2 1_555 1_555
C10 C9 1_555 1_555
C11 C10 1_555 1_555
H5 C11 1_555 1_555
C12 C11 1_555 1_555
H6 C12 1_555 1_555
C13 S3 1_555 1_555
C14 O7 1_555 1_555
C15 O5 1_555 1_555
C16 C15 1_555 1_555
C17 C16 1_555 1_555
H7 C17 1_555 1_555
C18 C17 1_555 1_555
H8 C18 1_555 1_555
C19 S4 1_555 1_555
C20 C19 1_555 1_555
C21 C20 1_555 1_555
H9 C21 1_555 1_555
C22 C21 1_555 1_555
H10 C22 1_555 1_555
C23 S5 1_555 1_555
C24 C23 1_555 1_555
C25 C24 1_555 1_555
H11 C25 1_555 1_555
C26 C25 1_555 1_555
H12 C26 1_555 1_555
C27 S6 1_555 1_555
C28 O3 1_555 1_555
N1 C29 1_555 1_555
C29 O9 1_555 1_555
C30 C29 1_555 1_555
C31 C30 1_555 1_555
C32 N1 1_555 1_555
C33 N1 1_555 1_555
Cu1P Cu2P 1_555 1_555
Cu1B Cu2B 1_555 1_555
Cu1O Cu2O 1_555 1_555
Cu1A Cu2A 1_555 1_555
Cu1Q Cu2Q 1_555 1_555
Cu2P O2P 1_555 1_555
Cu2B O2B 1_555 1_555
Cu2O O2O 1_555 1_555
Cu2A O2A 1_555 1_555
Cu2Q O2Q 1_555 1_555
S1P C2P 1_555 1_555
S1B C2B 1_555 1_555
S1O C2O 1_555 1_555
S1A C2A 1_555 1_555
S1Q C2Q 1_555 1_555
S2P C6P 1_555 1_555
S2B C6B 1_555 1_555
S2O C6O 1_555 1_555
S2A C6A 1_555 1_555
S2Q C6Q 1_555 1_555
S3P C10P 1_555 1_555
S3B C10B 1_555 1_555
S3O C10O 1_555 1_555
S3A C10A 1_555 1_555
S3Q C10Q 1_555 1_555
S4Q C16Q 1_555 1_555
S4P C16P 1_555 1_555
S4A C16A 1_555 1_555
S4O C16O 1_555 1_555
S4B C16B 1_555 1_555
S5Q C20Q 1_555 1_555
S5P C20P 1_555 1_555
S5A C20A 1_555 1_555
S5O C20O 1_555 1_555
S5B C20B 1_555 1_555
S6Q C24Q 1_555 1_555
S6P C24P 1_555 1_555
S6A C24A 1_555 1_555
S6O C24O 1_555 1_555
S6B C24B 1_555 1_555
O1P Cu1P 1_555 1_555
O1B Cu1B 1_555 1_555
O1O Cu1O 1_555 1_555
O1A Cu1A 1_555 1_555
O1Q Cu1Q 1_555 1_555
O2P C1P 1_555 1_555
O2B C1B 1_555 1_555
O2O C1O 1_555 1_555
O2A C1A 1_555 1_555
O2Q C1Q 1_555 1_555
O3P Cu1P 1_555 1_555
O3B Cu1B 1_555 1_555
O3O Cu1O 1_555 1_555
O3A Cu1A 1_555 1_555
O3Q Cu1Q 1_555 1_555
O4P Cu2P 1_555 1_555
O4B Cu2B 1_555 1_555
O4O Cu2O 1_555 1_555
O4A Cu2A 1_555 1_555
O4Q Cu2Q 1_555 1_555
O5P Cu1P 1_555 1_555
O5B Cu1B 1_555 1_555
O5O Cu1O 1_555 1_555
O5A Cu1A 1_555 1_555
O5Q Cu1Q 1_555 1_555
O6P Cu2P 1_555 1_555
O6B Cu2B 1_555 1_555
O6O Cu2O 1_555 1_555
O6A Cu2A 1_555 1_555
O6Q Cu2Q 1_555 1_555
O7P Cu1P 1_555 1_555
O7B Cu1B 1_555 1_555
O7O Cu1O 1_555 1_555
O7A Cu1A 1_555 1_555
O7Q Cu1Q 1_555 1_555
O8P Cu2P 1_555 1_555
O8B Cu2B 1_555 1_555
O8O Cu2O 1_555 1_555
O8A Cu2A 1_555 1_555
O8Q Cu2Q 1_555 1_555
O9P Cu1P 1_555 1_555
O9B Cu1B 1_555 1_555
O9O Cu1O 1_555 1_555
O9A Cu1A 1_555 1_555
O9Q Cu1Q 1_555 1_555
O10Q Cu2Q 1_555 1_555
O10A Cu2A 1_555 1_555
O10O Cu2O 1_555 1_555
O10B Cu2B 1_555 1_555
O10P Cu2P 1_555 1_555
C1P O1P 1_555 1_555
C1B O1B 1_555 1_555
C1O O1O 1_555 1_555
C1A O1A 1_555 1_555
C1Q O1Q 1_555 1_555
C2P C1P 1_555 1_555
C2B C1B 1_555 1_555
C2O C1O 1_555 1_555
C2A C1A 1_555 1_555
C2Q C1Q 1_555 1_555
C3Q C2Q 1_555 1_555
C3A C2A 1_555 1_555
C3O C2O 1_555 1_555
C3B C2B 1_555 1_555
C3P C2P 1_555 1_555
H1Q C3Q 1_555 1_555
H1A C3A 1_555 1_555
H1O C3O 1_555 1_555
H1B C3B 1_555 1_555
H1P C3P 1_555 1_555
C4Q C3Q 1_555 1_555
C4A C3A 1_555 1_555
C4O C3O 1_555 1_555
C4B C3B 1_555 1_555
C4P C3P 1_555 1_555
H2Q C4Q 1_555 1_555
H2A C4A 1_555 1_555
H2O C4O 1_555 1_555
H2B C4B 1_555 1_555
H2P C4P 1_555 1_555
C5P S1P 1_555 1_555
C5B S1B 1_555 1_555
C5O S1O 1_555 1_555
C5A S1A 1_555 1_555
C5Q S1Q 1_555 1_555
C6P C5P 1_555 1_555
C6B C5B 1_555 1_555
C6O C5O 1_555 1_555
C6A C5A 1_555 1_555
C6Q C5Q 1_555 1_555
C7Q C6Q 1_555 1_555
C7A C6A 1_555 1_555
C7O C6O 1_555 1_555
C7B C6B 1_555 1_555
C7P C6P 1_555 1_555
H3Q C7Q 1_555 1_555
H3A C7A 1_555 1_555
H3O C7O 1_555 1_555
H3B C7B 1_555 1_555
H3P C7P 1_555 1_555
C8Q C7Q 1_555 1_555
C8A C7A 1_555 1_555
C8O C7O 1_555 1_555
C8B C7B 1_555 1_555
C8P C7P 1_555 1_555
H4Q C8Q 1_555 1_555
H4A C8A 1_555 1_555
H4O C8O 1_555 1_555
H4B C8B 1_555 1_555
H4P C8P 1_555 1_555
C9P S2P 1_555 1_555
C9B S2B 1_555 1_555
C9O S2O 1_555 1_555
C9A S2A 1_555 1_555
C9Q S2Q 1_555 1_555
C10P C9P 1_555 1_555
C10B C9B 1_555 1_555
C10O C9O 1_555 1_555
C10A C9A 1_555 1_555
C10Q C9Q 1_555 1_555
C11Q C10Q 1_555 1_555
C11A C10A 1_555 1_555
C11O C10O 1_555 1_555
C11B C10B 1_555 1_555
C11P C10P 1_555 1_555
H5Q C11Q 1_555 1_555
H5A C11A 1_555 1_555
H5O C11O 1_555 1_555
H5B C11B 1_555 1_555
H5P C11P 1_555 1_555
C12Q C11Q 1_555 1_555
C12A C11A 1_555 1_555
C12O C11O 1_555 1_555
C12B C11B 1_555 1_555
C12P C11P 1_555 1_555
H6Q C12Q 1_555 1_555
H6A C12A 1_555 1_555
H6O C12O 1_555 1_555
H6B C12B 1_555 1_555
H6P C12P 1_555 1_555
C13P C14 1_555 1_555
C13B S3B 1_555 1_555
C13O S3O 1_555 1_555
C13A S3A 1_555 1_555
C13Q S3Q 1_555 1_555
C14P O7P 1_555 1_555
C14B O7B 1_555 1_555
C14O O7O 1_555 1_555
C14A O7A 1_555 1_555
C14Q C13 1_555 1_555
C15P O5P 1_555 1_555
C15B O5B 1_555 1_555
C15O O5O 1_555 1_555
C15A O5A 1_555 1_555
C15Q O5Q 1_555 1_555
C16Q C15Q 1_555 1_555
C16P C15P 1_555 1_555
C16A C15A 1_555 1_555
C16O C15O 1_555 1_555
C16B C15B 1_555 1_555
C17Q C16Q 1_555 1_555
C17P C16P 1_555 1_555
C17A C16A 1_555 1_555
C17O C16O 1_555 1_555
C17B C16B 1_555 1_555
H7Q C17Q 1_555 1_555
H7P C17P 1_555 1_555
H7A C17A 1_555 1_555
H7O C17O 1_555 1_555
H7B C17B 1_555 1_555
C18Q C17Q 1_555 1_555
C18P C17P 1_555 1_555
C18A C17A 1_555 1_555
C18O C17O 1_555 1_555
C18B C17B 1_555 1_555
H8Q C18Q 1_555 1_555
H8P C18P 1_555 1_555
H8A C18A 1_555 1_555
H8O C18O 1_555 1_555
H8B C18B 1_555 1_555
C19Q S4Q 1_555 1_555
C19P S4P 1_555 1_555
C19A S4A 1_555 1_555
C19O S4O 1_555 1_555
C19B S4B 1_555 1_555
C20Q C19Q 1_555 1_555
C20P C19P 1_555 1_555
C20A C19A 1_555 1_555
C20O C19O 1_555 1_555
C20B C19B 1_555 1_555
C21Q C20Q 1_555 1_555
C21P C20P 1_555 1_555
C21A C20A 1_555 1_555
C21O C20O 1_555 1_555
C21B C20B 1_555 1_555
H9Q C21Q 1_555 1_555
H9P C21P 1_555 1_555
H9A C21A 1_555 1_555
H9O C21O 1_555 1_555
H9B C21B 1_555 1_555
C22Q C21Q 1_555 1_555
C22P C21P 1_555 1_555
C22A C21A 1_555 1_555
C22O C21O 1_555 1_555
C22B C21B 1_555 1_555
H10Q C22Q 1_555 1_555
H10P C22P 1_555 1_555
H10A C22A 1_555 1_555
H10O C22O 1_555 1_555
H10B C22B 1_555 1_555
C23Q S5Q 1_555 1_555
C23P S5P 1_555 1_555
C23A S5A 1_555 1_555
C23O S5O 1_555 1_555
C23B S5B 1_555 1_555
C24Q C23Q 1_555 1_555
C24P C23P 1_555 1_555
C24A C23A 1_555 1_555
C24O C23O 1_555 1_555
C24B C23B 1_555 1_555
C25Q C24Q 1_555 1_555
C25P C24P 1_555 1_555
C25A C24A 1_555 1_555
C25O C24O 1_555 1_555
C25B C24B 1_555 1_555
H11Q C25Q 1_555 1_555
H11P C25P 1_555 1_555
H11A C25A 1_555 1_555
H11O C25O 1_555 1_555
H11B C25B 1_555 1_555
C26Q C25Q 1_555 1_555
C26P C25P 1_555 1_555
C26A C25A 1_555 1_555
C26O C25O 1_555 1_555
C26B C25B 1_555 1_555
H12Q C26Q 1_555 1_555
H12P C26P 1_555 1_555
H12A C26A 1_555 1_555
H12O C26O 1_555 1_555
H12B C26B 1_555 1_555
C27Q S6Q 1_555 1_555
C27P S6P 1_555 1_555
C27A S6A 1_555 1_555
C27O S6O 1_555 1_555
C27B C28 1_555 1_555
C28P O3P 1_555 1_555
C28B O3B 1_555 1_555
C28O O3O 1_555 1_555
C28A C27 1_555 1_555
C28Q O3Q 1_555 1_555
N1P C29P 1_555 1_555
N1B C29B 1_555 1_555
N1O C29O 1_555 1_555
N1A C29A 1_555 1_555
N1Q C29Q 1_555 1_555
C29P O9P 1_555 1_555
C29B O9B 1_555 1_555
C29O O9O 1_555 1_555
C29A O9A 1_555 1_555
C29Q O9Q 1_555 1_555
C30P C29P 1_555 1_555
C30B C29B 1_555 1_555
C30O C29O 1_555 1_555
C30A C29A 1_555 1_555
C30Q C29Q 1_555 1_555
C31P C30P 1_555 1_555
C31B C30B 1_555 1_555
C31O C30O 1_555 1_555
C31A C30A 1_555 1_555
C31Q C30Q 1_555 1_555
C32P N1P 1_555 1_555
C32B N1B 1_555 1_555
C32O N1O 1_555 1_555
C32A N1A 1_555 1_555
C32Q N1Q 1_555 1_555
C33P N1P 1_555 1_555
C33B N1B 1_555 1_555
C33O N1O 1_555 1_555
C33A N1A 1_555 1_555
C33Q N1Q 1_555 1_555
O4 C28 1_555 1_555
O6 C15 1_555 1_555
O8 C14 1_555 1_555
C4 C5 1_555 1_555
C8 C9 1_555 1_555
C12 C13 1_555 1_555
C18 C19 1_555 1_555
C22 C23 1_555 1_555
C26 C27 1_555 1_555
C31 C32 1_555 1_555
S3P C13P 1_555 1_555
S6B C27B 1_555 1_555
O3A C28A 1_555 1_555
O4P C28P 1_555 1_555
O4B C28B 1_555 1_555
O4O C28O 1_555 1_555
O4A C28A 1_555 1_555
O4Q C28Q 1_555 1_555
O6P C15P 1_555 1_555
O6B C15B 1_555 1_555
O6O C15O 1_555 1_555
O6A C15A 1_555 1_555
O6Q C15Q 1_555 1_555
O7Q C14Q 1_555 1_555
O8P C14P 1_555 1_555
O8B C14B 1_555 1_555
O8O C14O 1_555 1_555
O8A C14A 1_555 1_555
O8Q C14Q 1_555 1_555
C4Q C5Q 1_555 1_555
C4A C5A 1_555 1_555
C4O C5O 1_555 1_555
C4B C5B 1_555 1_555
C4P C5P 1_555 1_555
C8Q C9Q 1_555 1_555
C8A C9A 1_555 1_555
C8O C9O 1_555 1_555
C8B C9B 1_555 1_555
C8P C9P 1_555 1_555
C12Q C13Q 1_555 1_555
C12A C13A 1_555 1_555
C12O C13O 1_555 1_555
C12B C13B 1_555 1_555
C12P C13P 1_555 1_555
C13B C14P 1_555 1_555
C13O C14B 1_555 1_555
C13A C14O 1_555 1_555
C13Q C14A 1_555 1_555
C18Q C19Q 1_555 1_555
C18P C19P 1_555 1_555
C18A C19A 1_555 1_555
C18O C19O 1_555 1_555
C18B C19B 1_555 1_555
C22Q C23Q 1_555 1_555
C22P C23P 1_555 1_555
C22A C23A 1_555 1_555
C22O C23O 1_555 1_555
C22B C23B 1_555 1_555
C26Q C27Q 1_555 1_555
C26P C27P 1_555 1_555
C26A C27A 1_555 1_555
C26O C27O 1_555 1_555
C26B C27B 1_555 1_555
C27Q C28O 1_555 1_555
C27P C28Q 1_555 1_555
C27A C28B 1_555 1_555
C27O C28P 1_555 1_555
C31P C32P 1_555 1_555
C31B C32B 1_555 1_555
C31O C32O 1_555 1_555
C31A C32A 1_555 1_555
C31Q C32Q 1_555 1_555

#END
