
#######################################################################
#
#                 Cambridge Crystallographic Data Centre
#                                CCDC 
#
#######################################################################
#
# If this CIF has been generated from an entry in the Cambridge 
# Structural Database, then it will include bibliographic, chemical, 
# crystal, experimental, refinement or atomic coordinate data resulting 
# from the CCDC's data processing and validation procedures.
#
#######################################################################

data_QAXWOB
_chemical_formula_moiety         'C45 H70 O11 P2 Zr2,C7 H8'
_chemical_name_systematic        
"bis(\m~2~-Isopropoxo)-(\m~2~-diphenylphosphinato-O,O')-(diphenylphosphinic acid-O)-pentakis(isopropoxy)-di-zirconium toluene solvate"
_symmetry_cell_setting           monoclinic
_symmetry_space_group_name_H-M   'P 21/n'
_symmetry_Int_Tables_number      14
_space_group_name_Hall           '-P 2yn'
loop_
_symmetry_equiv_pos_site_id
_symmetry_equiv_pos_as_xyz
1 x,y,z
2 1/2-x,1/2+y,1/2-z
3 -x,-y,-z
4 1/2+x,1/2-y,1/2+z
_cell_length_a                   9.944(3)
_cell_length_b                   22.096(9)
_cell_length_c                   25.878(10)
_cell_angle_alpha                90
_cell_angle_beta                 96.472(11)
_cell_angle_gamma                90
_cell_volume                     5649.75
_exptl_crystal_colour            colorless
_exptl_crystal_description       blocks
_cell_formula_units_Z            4
loop_
_atom_site_label
_atom_site_type_symbol
_atom_site_fract_x
_atom_site_fract_y
_atom_site_fract_z
Zr1 Zr 0.86805(3) 0.819794(16) 0.234639(14)
P1 P 0.86194(10) 0.69712(4) 0.30992(4)
O1 O 0.7882(2) 0.84225(11) 0.30711(10)
Zr2 Zr 0.94940(3) 0.829664(16) 0.371201(14)
P2 P 1.03149(10) 0.98107(4) 0.35161(4)
O2 O 1.0339(2) 0.82914(11) 0.29569(9)
O3 O 0.8568(3) 0.72740(11) 0.25693(10)
O4 O 0.9138(3) 0.73448(11) 0.35662(10)
O5 O 0.9943(3) 0.92147(11) 0.37499(10)
O6 O 1.0145(3) 0.98682(12) 0.29359(10)
H1 H 0.9326 0.9822 0.2823
O7 O 0.6914(3) 0.82053(12) 0.19451(11)
C1 C 0.5207(8) 0.7671(3) 0.1425(4)
H2 H 0.5513 0.7311 0.1627
H3 H 0.5612 0.7673 0.1097
H4 H 0.4219 0.7664 0.1351
C2 C 0.5591(6) 0.8173(3) 0.1700(3)
H5 H 0.5087 0.8112 0.2009
C3 C 0.5060(6) 0.8744(3) 0.1524(3)
H6 H 0.5243 0.9044 0.1802
H7 H 0.4080 0.8710 0.1430
H8 H 0.5490 0.8873 0.1220
O8 O 0.9763(3) 0.80248(12) 0.17887(10)
C4 C 0.9484(8) 0.8040(3) 0.0869(2)
H9 H 0.9277 0.8473 0.0877
H10 H 0.8642 0.7807 0.0852
H11 H 0.9944 0.7951 0.0562
C5 C 1.0374(5) 0.7872(2) 0.13451(18)
H12 H 1.1230 0.8111 0.1351
C6 C 1.0735(7) 0.7222(3) 0.1353(2)
H13 H 1.1393 0.7139 0.1656
H14 H 1.1132 0.7119 0.1035
H15 H 0.9920 0.6979 0.1375
O9 O 0.8919(2) 0.91724(11) 0.22538(10)
C7 C 0.7737(4) 1.0041(2) 0.18735(19)
H16 H 0.6915 0.9894 0.2008
H17 H 0.7491 1.0261 0.1548
H18 H 0.8226 1.0312 0.2129
C8 C 0.8624(4) 0.95127(18) 0.17746(16)
H19 H 0.8118 0.9244 0.1509
C9 C 0.9929(5) 0.9702(2) 0.15776(18)
H20 H 1.0466 0.9342 0.1518
H21 H 1.0441 0.9962 0.1836
H22 H 0.9729 0.9926 0.1251
O10 O 0.8353(3) 0.83279(13) 0.42639(11)
C10 C 0.7652(9) 0.8931(4) 0.4927(3)
H23 H 0.7396 0.9238 0.4661
H24 H 0.8559 0.9020 0.5100
H25 H 0.7002 0.8935 0.5185
C11 C 0.7652(9) 0.8369(4) 0.4697(3)
H26 H 0.6711 0.8376 0.4514
C12 C 0.7578(12) 0.7808(4) 0.4966(3)
H27 H 0.7189 0.7498 0.4723
H28 H 0.7005 0.7856 0.5247
H29 H 0.8489 0.7684 0.5112
O11 O 1.1212(3) 0.80600(12) 0.41029(10)
C13 C 1.3438(5) 0.7824(3) 0.4475(2)
H30 H 1.3772 0.8010 0.4170
H31 H 1.4027 0.7484 0.4595
H32 H 1.3440 0.8125 0.4753
C14 C 1.2043(5) 0.7600(2) 0.4333(2)
H33 H 1.2089 0.7276 0.4065
C15 C 1.1414(6) 0.7324(3) 0.4776(2)
H34 H 1.0481 0.7204 0.4658
H35 H 1.1415 0.7621 0.5058
H36 H 1.1936 0.6967 0.4903
C16 C 0.6947(4) 0.67202(17) 0.31816(18)
C17 C 0.5280(6) 0.6446(3) 0.3745(3)
H37 H 0.5027 0.6387 0.4084
C18 C 0.6588(5) 0.6632(2) 0.3678(2)
H38 H 0.7233 0.6699 0.3972
C19 C 0.4367(5) 0.6348(2) 0.3319(3)
H39 H 0.3479 0.6218 0.3367
C20 C 0.4696(5) 0.6432(2) 0.2829(3)
H40 H 0.4043 0.6362 0.2538
C21 C 0.5993(4) 0.66194(19) 0.2757(2)
H41 H 0.6229 0.6679 0.2415
C22 C 0.9664(4) 0.63151(17) 0.30925(16)
C23 C 1.0209(4) 0.6054(2) 0.35552(19)
H42 H 1.0049 0.6232 0.3877
C24 C 1.0984(5) 0.5534(2) 0.3552(2)
H43 H 1.1352 0.5358 0.3872
C25 C 1.1223(4) 0.5276(2) 0.3096(2)
H44 H 1.1753 0.4918 0.3098
C26 C 1.0706(5) 0.5527(2) 0.2631(2)
H45 H 1.0882 0.5346 0.2313
C27 C 0.9922(4) 0.6048(2) 0.26271(19)
H46 H 0.9561 0.6223 0.2306
C28 C 1.2047(4) 0.99485(17) 0.37749(15)
C29 C 1.2747(4) 0.9537(2) 0.41068(17)
H47 H 1.2308 0.9177 0.4199
C30 C 1.4083(5) 0.9642(2) 0.4308(2)
H48 H 1.4550 0.9357 0.4536
C31 C 1.4714(5) 1.0150(2) 0.4177(2)
H49 H 1.5627 1.0222 0.4315
C32 C 1.4054(5) 1.0562(2) 0.3849(2)
H50 H 1.4507 1.0918 0.3758
C33 C 1.2718(4) 1.0461(2) 0.36478(18)
H51 H 1.2263 1.0750 0.3419
C34 C 0.9317(4) 1.03814(17) 0.37899(16)
C35 C 0.9246(5) 1.0414(2) 0.43153(18)
H52 H 0.9732 1.0130 0.4540
C36 C 0.8472(6) 1.0857(3) 0.4523(2)
H53 H 0.8443 1.0883 0.4888
C37 C 0.7761(5) 1.1252(2) 0.4197(2)
H54 H 0.7227 1.1555 0.4337
C38 C 0.7798(5) 1.1221(2) 0.3672(2)
H55 H 0.7285 1.1497 0.3448
C39 C 0.8578(5) 1.0790(2) 0.34704(18)
H56 H 0.8611 1.0773 0.3105
C40 C 0.5666(4) 0.8248(2) 0.33421(19)
H57 H 0.5611 0.7863 0.3152
H58 H 0.4758 0.8421 0.3338
H59 H 0.6050 0.8177 0.3703
C41 C 0.6546(4) 0.86750(19) 0.30902(19)
H60 H 0.6139 0.8704 0.2720
C42 C 0.6590(5) 0.9289(2) 0.3285(2)
H61 H 0.7180 0.9534 0.3088
H62 H 0.6945 0.9290 0.3654
H63 H 0.5675 0.9461 0.3243
C43 C 1.2176(4) 0.76209(19) 0.28281(17)
H64 H 1.1888 0.7353 0.3097
H65 H 1.3160 0.7595 0.2829
H66 H 1.1733 0.7497 0.2487
C44 C 1.1788(3) 0.82581(17) 0.29372(15)
H67 H 1.2241 0.8368 0.3289
C45 C 1.2230(4) 0.87075(19) 0.25564(16)
H68 H 1.1931 0.9113 0.2645
H69 H 1.1829 0.8601 0.2205
H70 H 1.3219 0.8701 0.2571
C46 C 0.7609(9) 1.0567(4) -0.0147(3)
C47 C 0.8296(7) 1.0061(5) -0.0298(3)
H71 H 0.8932 1.0100 -0.0544
C48 C 0.8052(7) 0.9497(4) -0.0089(3)
H72 H 0.8522 0.9150 -0.0192
C49 C 0.7122(8) 0.9439(4) 0.0270(3)
H73 H 0.6956 0.9054 0.0413
C50 C 0.6435(7) 0.9946(5) 0.0421(2)
H74 H 0.5799 0.9907 0.0667
C51 C 0.6679(8) 1.0510(4) 0.0213(4)
H75 H 0.6209 1.0856 0.0316
C52 C 0.7783(18) 1.1071(8) -0.0281(6)
H76 H 0.8712 1.1195 -0.0160
H77 H 0.7145 1.1340 -0.0132
H78 H 0.7637 1.1094 -0.0661
loop_
_geom_bond_atom_site_label_1
_geom_bond_atom_site_label_2
_geom_bond_site_symmetry_1
_geom_bond_site_symmetry_2
Zr1 O1 1_555 1_555
P1 O3 1_555 1_555
O1 Zr2 1_555 1_555
Zr2 O2 1_555 1_555
P2 O5 1_555 1_555
O2 Zr1 1_555 1_555
O3 Zr1 1_555 1_555
O4 P1 1_555 1_555
O5 Zr2 1_555 1_555
O6 P2 1_555 1_555
H1 O6 1_555 1_555
O7 Zr1 1_555 1_555
C1 H2 1_555 1_555
H3 C1 1_555 1_555
H4 C1 1_555 1_555
C2 O7 1_555 1_555
H5 C2 1_555 1_555
C3 C2 1_555 1_555
H6 C3 1_555 1_555
H7 C3 1_555 1_555
H8 C3 1_555 1_555
O8 Zr1 1_555 1_555
C4 H9 1_555 1_555
H10 C4 1_555 1_555
H11 C4 1_555 1_555
C5 O8 1_555 1_555
H12 C5 1_555 1_555
C6 C5 1_555 1_555
H13 C6 1_555 1_555
H14 C6 1_555 1_555
H15 C6 1_555 1_555
O9 Zr1 1_555 1_555
C7 H16 1_555 1_555
H17 C7 1_555 1_555
H18 C7 1_555 1_555
C8 O9 1_555 1_555
H19 C8 1_555 1_555
C9 C8 1_555 1_555
H20 C9 1_555 1_555
H21 C9 1_555 1_555
H22 C9 1_555 1_555
O10 Zr2 1_555 1_555
C10 H23 1_555 1_555
H24 C10 1_555 1_555
H25 C10 1_555 1_555
C11 O10 1_555 1_555
H26 C11 1_555 1_555
C12 C11 1_555 1_555
H27 C12 1_555 1_555
H28 C12 1_555 1_555
H29 C12 1_555 1_555
O11 Zr2 1_555 1_555
C13 H30 1_555 1_555
H31 C13 1_555 1_555
H32 C13 1_555 1_555
C14 O11 1_555 1_555
H33 C14 1_555 1_555
C15 C14 1_555 1_555
H34 C15 1_555 1_555
H35 C15 1_555 1_555
H36 C15 1_555 1_555
C16 P1 1_555 1_555
C17 H37 1_555 1_555
C18 C16 1_555 1_555
H38 C18 1_555 1_555
C19 C17 1_555 1_555
H39 C19 1_555 1_555
C20 C19 1_555 1_555
H40 C20 1_555 1_555
C21 C16 1_555 1_555
H41 C21 1_555 1_555
C22 P1 1_555 1_555
C23 C22 1_555 1_555
H42 C23 1_555 1_555
C24 C23 1_555 1_555
H43 C24 1_555 1_555
C25 C24 1_555 1_555
H44 C25 1_555 1_555
C26 C25 1_555 1_555
H45 C26 1_555 1_555
C27 C22 1_555 1_555
H46 C27 1_555 1_555
C28 P2 1_555 1_555
C29 C28 1_555 1_555
H47 C29 1_555 1_555
C30 C29 1_555 1_555
H48 C30 1_555 1_555
C31 C30 1_555 1_555
H49 C31 1_555 1_555
C32 C31 1_555 1_555
H50 C32 1_555 1_555
C33 C28 1_555 1_555
H51 C33 1_555 1_555
C34 P2 1_555 1_555
C35 C34 1_555 1_555
H52 C35 1_555 1_555
C36 C35 1_555 1_555
H53 C36 1_555 1_555
C37 C36 1_555 1_555
H54 C37 1_555 1_555
C38 C37 1_555 1_555
H55 C38 1_555 1_555
C39 C34 1_555 1_555
H56 C39 1_555 1_555
C40 H57 1_555 1_555
H58 C40 1_555 1_555
H59 C40 1_555 1_555
C41 O1 1_555 1_555
H60 C41 1_555 1_555
C42 C41 1_555 1_555
H61 C42 1_555 1_555
H62 C42 1_555 1_555
H63 C42 1_555 1_555
C43 H64 1_555 1_555
H65 C43 1_555 1_555
H66 C43 1_555 1_555
C44 O2 1_555 1_555
H67 C44 1_555 1_555
C45 C44 1_555 1_555
H68 C45 1_555 1_555
H69 C45 1_555 1_555
H70 C45 1_555 1_555
C46 C47 1_555 1_555
C47 H71 1_555 1_555
C48 C47 1_555 1_555
H72 C48 1_555 1_555
C49 C48 1_555 1_555
H73 C49 1_555 1_555
C50 C49 1_555 1_555
H74 C50 1_555 1_555
C51 C46 1_555 1_555
H75 C51 1_555 1_555
C52 C46 1_555 1_555
H76 C52 1_555 1_555
H77 C52 1_555 1_555
H78 C52 1_555 1_555
Zr2 O4 1_555 1_555
C1 C2 1_555 1_555
C4 C5 1_555 1_555
C7 C8 1_555 1_555
C10 C11 1_555 1_555
C13 C14 1_555 1_555
C17 C18 1_555 1_555
C20 C21 1_555 1_555
C26 C27 1_555 1_555
C32 C33 1_555 1_555
C38 C39 1_555 1_555
C40 C41 1_555 1_555
C43 C44 1_555 1_555
C50 C51 1_555 1_555

#END
