# generated using pymatgen
data_Fe4H103Pd3C108N12Cl2O27
_symmetry_space_group_name_H-M   'P 1'
_cell_length_a   30.42490000
_cell_length_b   31.33380000
_cell_length_c   38.64620000
_cell_angle_alpha   90.00000000
_cell_angle_beta   90.00000000
_cell_angle_gamma   90.00000000
_symmetry_Int_Tables_number   1
_chemical_formula_structural   Fe4H103Pd3C108N12Cl2O27
_chemical_formula_sum   'Fe32 H824 Pd24 C864 N96 Cl16 O216'
_cell_volume   36842.49418173
_cell_formula_units_Z   8
loop_
 _symmetry_equiv_pos_site_id
 _symmetry_equiv_pos_as_xyz
  1  'x, y, z'
loop_
 _atom_site_type_symbol
 _atom_site_label
 _atom_site_symmetry_multiplicity
 _atom_site_fract_x
 _atom_site_fract_y
 _atom_site_fract_z
 _atom_site_occupancy
  Fe  Fe1  1  0.520920  0.033480  0.408080  1.0
  Fe  Fe2  1  0.979080  0.966520  0.408080  1.0
  Fe  Fe3  1  0.479080  0.033480  0.091920  1.0
  Fe  Fe4  1  0.020920  0.966520  0.091920  1.0
  Fe  Fe5  1  0.479080  0.966520  0.591920  1.0
  Fe  Fe6  1  0.020920  0.033480  0.591920  1.0
  Fe  Fe7  1  0.520920  0.966520  0.908080  1.0
  Fe  Fe8  1  0.979080  0.033480  0.908080  1.0
  Fe  Fe9  1  0.543510  0.474080  0.401580  1.0
  Fe  Fe10  1  0.956490  0.525920  0.401580  1.0
  Fe  Fe11  1  0.456490  0.474080  0.098420  1.0
  Fe  Fe12  1  0.043510  0.525920  0.098420  1.0
  Fe  Fe13  1  0.456490  0.525920  0.598420  1.0
  Fe  Fe14  1  0.043510  0.474080  0.598420  1.0
  Fe  Fe15  1  0.543510  0.525920  0.901580  1.0
  Fe  Fe16  1  0.956490  0.474080  0.901580  1.0
  Fe  Fe17  1  0.814340  0.744020  0.371010  1.0
  Fe  Fe18  1  0.685660  0.255980  0.371010  1.0
  Fe  Fe19  1  0.185660  0.744020  0.128990  1.0
  Fe  Fe20  1  0.314340  0.255980  0.128990  1.0
  Fe  Fe21  1  0.185660  0.255980  0.628990  1.0
  Fe  Fe22  1  0.314340  0.744020  0.628990  1.0
  Fe  Fe23  1  0.814340  0.255980  0.871010  1.0
  Fe  Fe24  1  0.685660  0.744020  0.871010  1.0
  Fe  Fe25  1  0.751900  0.768770  0.057050  1.0
  Fe  Fe26  1  0.748100  0.231230  0.057050  1.0
  Fe  Fe27  1  0.248100  0.768770  0.442950  1.0
  Fe  Fe28  1  0.251900  0.231230  0.442950  1.0
  Fe  Fe29  1  0.248100  0.231230  0.942950  1.0
  Fe  Fe30  1  0.251900  0.768770  0.942950  1.0
  Fe  Fe31  1  0.751900  0.231230  0.557050  1.0
  Fe  Fe32  1  0.748100  0.768770  0.557050  1.0
  H  H33  1  0.590900  0.684300  0.231900  1
  H  H34  1  0.909100  0.315700  0.231900  1
  H  H35  1  0.409100  0.684300  0.268100  1
  H  H36  1  0.090900  0.315700  0.268100  1
  H  H37  1  0.409100  0.315700  0.768100  1
  H  H38  1  0.090900  0.684300  0.768100  1
  H  H39  1  0.590900  0.315700  0.731900  1
  H  H40  1  0.909100  0.684300  0.731900  1
  H  H41  1  0.572900  0.644100  0.232300  1
  H  H42  1  0.927100  0.355900  0.232300  1
  H  H43  1  0.427100  0.644100  0.267700  1
  H  H44  1  0.072900  0.355900  0.267700  1
  H  H45  1  0.427100  0.355900  0.767700  1
  H  H46  1  0.072900  0.644100  0.767700  1
  H  H47  1  0.572900  0.355900  0.732300  1
  H  H48  1  0.927100  0.644100  0.732300  1
  H  H49  1  0.566300  0.850100  0.250400  1
  H  H50  1  0.933700  0.149900  0.250400  1
  H  H51  1  0.433700  0.850100  0.249600  1
  H  H52  1  0.066300  0.149900  0.249600  1
  H  H53  1  0.433700  0.149900  0.749600  1
  H  H54  1  0.066300  0.850100  0.749600  1
  H  H55  1  0.566300  0.149900  0.750400  1
  H  H56  1  0.933700  0.850100  0.750400  1
  H  H57  1  0.597500  0.819200  0.232700  1
  H  H58  1  0.902500  0.180800  0.232700  1
  H  H59  1  0.402500  0.819200  0.267300  1
  H  H60  1  0.097500  0.180800  0.267300  1
  H  H61  1  0.402500  0.180800  0.767300  1
  H  H62  1  0.097500  0.819200  0.767300  1
  H  H63  1  0.597500  0.180800  0.732700  1
  H  H64  1  0.902500  0.819200  0.732700  1
  H  H65  1  0.495700  0.741300  0.339600  1
  H  H66  1  0.004300  0.258700  0.339600  1
  H  H67  1  0.504300  0.741300  0.160400  1
  H  H68  1  0.995700  0.258700  0.160400  1
  H  H69  1  0.504300  0.258700  0.660400  1
  H  H70  1  0.995700  0.741300  0.660400  1
  H  H71  1  0.495700  0.258700  0.839600  1
  H  H72  1  0.004300  0.741300  0.839600  1
  H  H73  1  0.536800  0.766900  0.334500  1
  H  H74  1  0.963200  0.233100  0.334500  1
  H  H75  1  0.463200  0.766900  0.165500  1
  H  H76  1  0.036800  0.233100  0.165500  1
  H  H77  1  0.463200  0.233100  0.665500  1
  H  H78  1  0.036800  0.766900  0.665500  1
  H  H79  1  0.536800  0.233100  0.834500  1
  H  H80  1  0.963200  0.766900  0.834500  1
  H  H81  1  0.709900  0.886200  0.060800  1
  H  H82  1  0.790100  0.113800  0.060800  1
  H  H83  1  0.290100  0.886200  0.439200  1
  H  H84  1  0.209900  0.113800  0.439200  1
  H  H85  1  0.290100  0.113800  0.939200  1
  H  H86  1  0.209900  0.886200  0.939200  1
  H  H87  1  0.709900  0.113800  0.560800  1
  H  H88  1  0.790100  0.886200  0.560800  1
  H  H89  1  0.426800  0.057100  0.493400  1.0
  H  H90  1  0.073200  0.942900  0.493400  1.0
  H  H91  1  0.573200  0.057100  0.006600  1.0
  H  H92  1  0.926800  0.942900  0.006600  1.0
  H  H93  1  0.573200  0.942900  0.506600  1.0
  H  H94  1  0.926800  0.057100  0.506600  1.0
  H  H95  1  0.426800  0.942900  0.993400  1.0
  H  H96  1  0.073200  0.057100  0.993400  1.0
  H  H97  1  0.429300  0.012200  0.513000  1.0
  H  H98  1  0.070700  0.987800  0.513000  1.0
  H  H99  1  0.570700  0.012200  0.987000  1.0
  H  H100  1  0.929300  0.987800  0.987000  1.0
  H  H101  1  0.570700  0.987800  0.487000  1.0
  H  H102  1  0.929300  0.012200  0.487000  1.0
  H  H103  1  0.429300  0.987800  0.013000  1.0
  H  H104  1  0.070700  0.012200  0.013000  1.0
  H  H105  1  0.397700  0.017800  0.480200  1.0
  H  H106  1  0.102300  0.982200  0.480200  1.0
  H  H107  1  0.602300  0.017800  0.019800  1.0
  H  H108  1  0.897700  0.982200  0.019800  1.0
  H  H109  1  0.602300  0.982200  0.519800  1.0
  H  H110  1  0.897700  0.017800  0.519800  1.0
  H  H111  1  0.397700  0.982200  0.980200  1.0
  H  H112  1  0.102300  0.017800  0.980200  1.0
  H  H113  1  0.456700  0.950100  0.479200  1.0
  H  H114  1  0.043300  0.049900  0.479200  1.0
  H  H115  1  0.543300  0.950100  0.020800  1.0
  H  H116  1  0.956700  0.049900  0.020800  1.0
  H  H117  1  0.543300  0.049900  0.520800  1.0
  H  H118  1  0.956700  0.950100  0.520800  1.0
  H  H119  1  0.456700  0.049900  0.979200  1.0
  H  H120  1  0.043300  0.950100  0.979200  1.0
  H  H121  1  0.500400  0.892400  0.493100  1.0
  H  H122  1  0.999600  0.107600  0.493100  1.0
  H  H123  1  0.499600  0.892400  0.006900  1.0
  H  H124  1  0.000400  0.107600  0.006900  1.0
  H  H125  1  0.499600  0.107600  0.506900  1.0
  H  H126  1  0.000400  0.892400  0.506900  1.0
  H  H127  1  0.500400  0.107600  0.993100  1.0
  H  H128  1  0.999600  0.892400  0.993100  1.0
  H  H129  1  0.516400  0.819400  0.489800  1.0
  H  H130  1  0.983600  0.180600  0.489800  1.0
  H  H131  1  0.483600  0.819400  0.010200  1.0
  H  H132  1  0.016400  0.180600  0.010200  1.0
  H  H133  1  0.483600  0.180600  0.510200  1.0
  H  H134  1  0.016400  0.819400  0.510200  1.0
  H  H135  1  0.516400  0.180600  0.989800  1.0
  H  H136  1  0.983600  0.819400  0.989800  1.0
  H  H137  1  0.536900  0.828800  0.389700  1.0
  H  H138  1  0.963100  0.171200  0.389700  1.0
  H  H139  1  0.463100  0.828800  0.110300  1.0
  H  H140  1  0.036900  0.171200  0.110300  1.0
  H  H141  1  0.463100  0.171200  0.610300  1.0
  H  H142  1  0.036900  0.828800  0.610300  1.0
  H  H143  1  0.536900  0.171200  0.889700  1.0
  H  H144  1  0.963100  0.828800  0.889700  1.0
  H  H145  1  0.527400  0.901600  0.391100  1.0
  H  H146  1  0.972600  0.098400  0.391100  1.0
  H  H147  1  0.472600  0.901600  0.108900  1.0
  H  H148  1  0.027400  0.098400  0.108900  1.0
  H  H149  1  0.472600  0.098400  0.608900  1.0
  H  H150  1  0.027400  0.901600  0.608900  1.0
  H  H151  1  0.527400  0.098400  0.891100  1.0
  H  H152  1  0.972600  0.901600  0.891100  1.0
  H  H153  1  0.462000  0.168400  0.370600  1.0
  H  H154  1  0.038000  0.831600  0.370600  1.0
  H  H155  1  0.538000  0.168400  0.129400  1.0
  H  H156  1  0.962000  0.831600  0.129400  1.0
  H  H157  1  0.538000  0.831600  0.629400  1.0
  H  H158  1  0.962000  0.168400  0.629400  1.0
  H  H159  1  0.462000  0.831600  0.870600  1.0
  H  H160  1  0.038000  0.168400  0.870600  1.0
  H  H161  1  0.491400  0.160000  0.337000  1.0
  H  H162  1  0.008600  0.840000  0.337000  1.0
  H  H163  1  0.508600  0.160000  0.163000  1.0
  H  H164  1  0.991400  0.840000  0.163000  1.0
  H  H165  1  0.508600  0.840000  0.663000  1.0
  H  H166  1  0.991400  0.160000  0.663000  1.0
  H  H167  1  0.491400  0.840000  0.837000  1.0
  H  H168  1  0.008600  0.160000  0.837000  1.0
  H  H169  1  0.514400  0.166900  0.373800  1.0
  H  H170  1  0.985600  0.833100  0.373800  1.0
  H  H171  1  0.485600  0.166900  0.126200  1.0
  H  H172  1  0.014400  0.833100  0.126200  1.0
  H  H173  1  0.485600  0.833100  0.626200  1.0
  H  H174  1  0.014400  0.166900  0.626200  1.0
  H  H175  1  0.514400  0.833100  0.873800  1.0
  H  H176  1  0.985600  0.166900  0.873800  1.0
  H  H177  1  0.448800  0.094600  0.326800  1.0
  H  H178  1  0.051200  0.905400  0.326800  1.0
  H  H179  1  0.551200  0.094600  0.173200  1.0
  H  H180  1  0.948800  0.905400  0.173200  1.0
  H  H181  1  0.551200  0.905400  0.673200  1.0
  H  H182  1  0.948800  0.094600  0.673200  1.0
  H  H183  1  0.448800  0.905400  0.826800  1.0
  H  H184  1  0.051200  0.094600  0.826800  1.0
  H  H185  1  0.392000  0.062100  0.304900  1.0
  H  H186  1  0.108000  0.937900  0.304900  1.0
  H  H187  1  0.608000  0.062100  0.195100  1.0
  H  H188  1  0.892000  0.937900  0.195100  1.0
  H  H189  1  0.608000  0.937900  0.695100  1.0
  H  H190  1  0.892000  0.062100  0.695100  1.0
  H  H191  1  0.392000  0.937900  0.804900  1.0
  H  H192  1  0.108000  0.062100  0.804900  1.0
  H  H193  1  0.345200  0.019900  0.273600  1.0
  H  H194  1  0.154800  0.980100  0.273600  1.0
  H  H195  1  0.654800  0.019900  0.226400  1.0
  H  H196  1  0.845200  0.980100  0.226400  1.0
  H  H197  1  0.654800  0.980100  0.726400  1.0
  H  H198  1  0.845200  0.019900  0.726400  1.0
  H  H199  1  0.345200  0.980100  0.773600  1.0
  H  H200  1  0.154800  0.019900  0.773600  1.0
  H  H201  1  0.401800  0.916000  0.310900  1.0
  H  H202  1  0.098200  0.084000  0.310900  1.0
  H  H203  1  0.598200  0.916000  0.189100  1.0
  H  H204  1  0.901800  0.084000  0.189100  1.0
  H  H205  1  0.598200  0.084000  0.689100  1.0
  H  H206  1  0.901800  0.916000  0.689100  1.0
  H  H207  1  0.401800  0.084000  0.810900  1.0
  H  H208  1  0.098200  0.916000  0.810900  1.0
  H  H209  1  0.448800  0.956400  0.344400  1.0
  H  H210  1  0.051200  0.043600  0.344400  1.0
  H  H211  1  0.551200  0.956400  0.155600  1.0
  H  H212  1  0.948800  0.043600  0.155600  1.0
  H  H213  1  0.551200  0.043600  0.655600  1.0
  H  H214  1  0.948800  0.956400  0.655600  1.0
  H  H215  1  0.448800  0.043600  0.844400  1.0
  H  H216  1  0.051200  0.956400  0.844400  1.0
  H  H217  1  0.633600  0.076500  0.472400  1.0
  H  H218  1  0.866400  0.923500  0.472400  1.0
  H  H219  1  0.366400  0.076500  0.027600  1.0
  H  H220  1  0.133600  0.923500  0.027600  1.0
  H  H221  1  0.366400  0.923500  0.527600  1.0
  H  H222  1  0.133600  0.076500  0.527600  1.0
  H  H223  1  0.633600  0.923500  0.972400  1.0
  H  H224  1  0.866400  0.076500  0.972400  1.0
  H  H225  1  0.673900  0.061600  0.448600  1.0
  H  H226  1  0.826100  0.938400  0.448600  1.0
  H  H227  1  0.326100  0.061600  0.051400  1.0
  H  H228  1  0.173900  0.938400  0.051400  1.0
  H  H229  1  0.326100  0.938400  0.551400  1.0
  H  H230  1  0.173900  0.061600  0.551400  1.0
  H  H231  1  0.673900  0.938400  0.948600  1.0
  H  H232  1  0.826100  0.061600  0.948600  1.0
  H  H233  1  0.650400  0.028100  0.473800  1.0
  H  H234  1  0.849600  0.971900  0.473800  1.0
  H  H235  1  0.349600  0.028100  0.026200  1.0
  H  H236  1  0.150400  0.971900  0.026200  1.0
  H  H237  1  0.349600  0.971900  0.526200  1.0
  H  H238  1  0.150400  0.028100  0.526200  1.0
  H  H239  1  0.650400  0.971900  0.973800  1.0
  H  H240  1  0.849600  0.028100  0.973800  1.0
  H  H241  1  0.658800  0.010500  0.400700  1.0
  H  H242  1  0.841200  0.989500  0.400700  1.0
  H  H243  1  0.341200  0.010500  0.099300  1.0
  H  H244  1  0.158800  0.989500  0.099300  1.0
  H  H245  1  0.341200  0.989500  0.599300  1.0
  H  H246  1  0.158800  0.010500  0.599300  1.0
  H  H247  1  0.658800  0.989500  0.900700  1.0
  H  H248  1  0.841200  0.010500  0.900700  1.0
  H  H249  1  0.686200  0.008200  0.347000  1.0
  H  H250  1  0.813800  0.991800  0.347000  1.0
  H  H251  1  0.313800  0.008200  0.153000  1.0
  H  H252  1  0.186200  0.991800  0.153000  1.0
  H  H253  1  0.313800  0.991800  0.653000  1.0
  H  H254  1  0.186200  0.008200  0.653000  1.0
  H  H255  1  0.686200  0.991800  0.847000  1.0
  H  H256  1  0.813800  0.008200  0.847000  1.0
  H  H257  1  0.711300  0.976200  0.296000  1.0
  H  H258  1  0.788700  0.023800  0.296000  1.0
  H  H259  1  0.288700  0.976200  0.204000  1.0
  H  H260  1  0.211300  0.023800  0.204000  1.0
  H  H261  1  0.288700  0.023800  0.704000  1.0
  H  H262  1  0.211300  0.976200  0.704000  1.0
  H  H263  1  0.711300  0.023800  0.796000  1.0
  H  H264  1  0.788700  0.976200  0.796000  1.0
  H  H265  1  0.592100  0.930100  0.277300  1.0
  H  H266  1  0.907900  0.069900  0.277300  1.0
  H  H267  1  0.407900  0.930100  0.222700  1.0
  H  H268  1  0.092100  0.069900  0.222700  1.0
  H  H269  1  0.407900  0.069900  0.722700  1.0
  H  H270  1  0.092100  0.930100  0.722700  1.0
  H  H271  1  0.592100  0.069900  0.777300  1.0
  H  H272  1  0.907900  0.930100  0.777300  1.0
  H  H273  1  0.564100  0.965000  0.325300  1.0
  H  H274  1  0.935900  0.035000  0.325300  1.0
  H  H275  1  0.435900  0.965000  0.174700  1.0
  H  H276  1  0.064100  0.035000  0.174700  1.0
  H  H277  1  0.435900  0.035000  0.674700  1.0
  H  H278  1  0.064100  0.965000  0.674700  1.0
  H  H279  1  0.564100  0.035000  0.825300  1.0
  H  H280  1  0.935900  0.965000  0.825300  1.0
  H  H281  1  0.656800  0.451600  0.472200  1.0
  H  H282  1  0.843200  0.548400  0.472200  1.0
  H  H283  1  0.343200  0.451600  0.027800  1.0
  H  H284  1  0.156800  0.548400  0.027800  1.0
  H  H285  1  0.343200  0.548400  0.527800  1.0
  H  H286  1  0.156800  0.451600  0.527800  1.0
  H  H287  1  0.656800  0.548400  0.972200  1.0
  H  H288  1  0.843200  0.451600  0.972200  1.0
  H  H289  1  0.666500  0.499700  0.483900  1.0
  H  H290  1  0.833500  0.500300  0.483900  1.0
  H  H291  1  0.333500  0.499700  0.016100  1.0
  H  H292  1  0.166500  0.500300  0.016100  1.0
  H  H293  1  0.333500  0.500300  0.516100  1.0
  H  H294  1  0.166500  0.499700  0.516100  1.0
  H  H295  1  0.666500  0.500300  0.983900  1.0
  H  H296  1  0.833500  0.499700  0.983900  1.0
  H  H297  1  0.686100  0.482100  0.448200  1.0
  H  H298  1  0.813900  0.517900  0.448200  1.0
  H  H299  1  0.313900  0.482100  0.051800  1.0
  H  H300  1  0.186100  0.517900  0.051800  1.0
  H  H301  1  0.313900  0.517900  0.551800  1.0
  H  H302  1  0.186100  0.482100  0.551800  1.0
  H  H303  1  0.686100  0.517900  0.948200  1.0
  H  H304  1  0.813900  0.482100  0.948200  1.0
  H  H305  1  0.634600  0.559000  0.452100  1.0
  H  H306  1  0.865400  0.441000  0.452100  1.0
  H  H307  1  0.365400  0.559000  0.047900  1.0
  H  H308  1  0.134600  0.441000  0.047900  1.0
  H  H309  1  0.365400  0.441000  0.547900  1.0
  H  H310  1  0.134600  0.559000  0.547900  1.0
  H  H311  1  0.634600  0.441000  0.952100  1.0
  H  H312  1  0.865400  0.559000  0.952100  1.0
  H  H313  1  0.604000  0.617000  0.473400  1.0
  H  H314  1  0.896000  0.383000  0.473400  1.0
  H  H315  1  0.396000  0.617000  0.026600  1.0
  H  H316  1  0.104000  0.383000  0.026600  1.0
  H  H317  1  0.396000  0.383000  0.526600  1.0
  H  H318  1  0.104000  0.617000  0.526600  1.0
  H  H319  1  0.604000  0.383000  0.973400  1.0
  H  H320  1  0.896000  0.617000  0.973400  1.0
  H  H321  1  0.587100  0.687600  0.476200  1.0
  H  H322  1  0.912900  0.312400  0.476200  1.0
  H  H323  1  0.412900  0.687600  0.023800  1.0
  H  H324  1  0.087100  0.312400  0.023800  1.0
  H  H325  1  0.412900  0.312400  0.523800  1.0
  H  H326  1  0.087100  0.687600  0.523800  1.0
  H  H327  1  0.587100  0.312400  0.976200  1.0
  H  H328  1  0.912900  0.687600  0.976200  1.0
  H  H329  1  0.509700  0.679100  0.394400  1.0
  H  H330  1  0.990300  0.320900  0.394400  1.0
  H  H331  1  0.490300  0.679100  0.105600  1.0
  H  H332  1  0.009700  0.320900  0.105600  1.0
  H  H333  1  0.490300  0.320900  0.605600  1.0
  H  H334  1  0.009700  0.679100  0.605600  1.0
  H  H335  1  0.509700  0.320900  0.894400  1.0
  H  H336  1  0.990300  0.679100  0.894400  1.0
  H  H337  1  0.523000  0.605300  0.392100  1.0
  H  H338  1  0.977000  0.394700  0.392100  1.0
  H  H339  1  0.477000  0.605300  0.107900  1.0
  H  H340  1  0.023000  0.394700  0.107900  1.0
  H  H341  1  0.477000  0.394700  0.607900  1.0
  H  H342  1  0.023000  0.605300  0.607900  1.0
  H  H343  1  0.523000  0.394700  0.892100  1.0
  H  H344  1  0.977000  0.605300  0.892100  1.0
  H  H345  1  0.546900  0.338600  0.371100  1.0
  H  H346  1  0.953100  0.661400  0.371100  1.0
  H  H347  1  0.453100  0.338600  0.128900  1.0
  H  H348  1  0.046900  0.661400  0.128900  1.0
  H  H349  1  0.453100  0.661400  0.628900  1.0
  H  H350  1  0.046900  0.338600  0.628900  1.0
  H  H351  1  0.546900  0.661400  0.871100  1.0
  H  H352  1  0.953100  0.338600  0.871100  1.0
  H  H353  1  0.586700  0.339400  0.344000  1.0
  H  H354  1  0.913300  0.660600  0.344000  1.0
  H  H355  1  0.413300  0.339400  0.156000  1.0
  H  H356  1  0.086700  0.660600  0.156000  1.0
  H  H357  1  0.413300  0.660600  0.656000  1.0
  H  H358  1  0.086700  0.339400  0.656000  1.0
  H  H359  1  0.586700  0.660600  0.844000  1.0
  H  H360  1  0.913300  0.339400  0.844000  1.0
  H  H361  1  0.537500  0.347800  0.331100  1.0
  H  H362  1  0.962500  0.652200  0.331100  1.0
  H  H363  1  0.462500  0.347800  0.168900  1.0
  H  H364  1  0.037500  0.652200  0.168900  1.0
  H  H365  1  0.462500  0.652200  0.668900  1.0
  H  H366  1  0.037500  0.347800  0.668900  1.0
  H  H367  1  0.537500  0.652200  0.831100  1.0
  H  H368  1  0.962500  0.347800  0.831100  1.0
  H  H369  1  0.590500  0.411600  0.309800  1.0
  H  H370  1  0.909500  0.588400  0.309800  1.0
  H  H371  1  0.409500  0.411600  0.190200  1.0
  H  H372  1  0.090500  0.588400  0.190200  1.0
  H  H373  1  0.409500  0.588400  0.690200  1.0
  H  H374  1  0.090500  0.411600  0.690200  1.0
  H  H375  1  0.590500  0.588400  0.809800  1.0
  H  H376  1  0.909500  0.411600  0.809800  1.0
  H  H377  1  0.633300  0.446600  0.275100  1.0
  H  H378  1  0.866700  0.553400  0.275100  1.0
  H  H379  1  0.366700  0.446600  0.224900  1.0
  H  H380  1  0.133300  0.553400  0.224900  1.0
  H  H381  1  0.366700  0.553400  0.724900  1.0
  H  H382  1  0.133300  0.446600  0.724900  1.0
  H  H383  1  0.633300  0.553400  0.775100  1.0
  H  H384  1  0.866700  0.446600  0.775100  1.0
  H  H385  1  0.664500  0.490000  0.234600  1.0
  H  H386  1  0.835500  0.510000  0.234600  1.0
  H  H387  1  0.335500  0.490000  0.265400  1.0
  H  H388  1  0.164500  0.510000  0.265400  1.0
  H  H389  1  0.335500  0.510000  0.765400  1.0
  H  H390  1  0.164500  0.490000  0.765400  1.0
  H  H391  1  0.664500  0.510000  0.734600  1.0
  H  H392  1  0.835500  0.490000  0.734600  1.0
  H  H393  1  0.625500  0.592400  0.282800  1.0
  H  H394  1  0.874500  0.407600  0.282800  1.0
  H  H395  1  0.374500  0.592400  0.217200  1.0
  H  H396  1  0.125500  0.407600  0.217200  1.0
  H  H397  1  0.374500  0.407600  0.717200  1.0
  H  H398  1  0.125500  0.592400  0.717200  1.0
  H  H399  1  0.625500  0.407600  0.782800  1.0
  H  H400  1  0.874500  0.592400  0.782800  1.0
  H  H401  1  0.590800  0.551400  0.324800  1.0
  H  H402  1  0.909200  0.448600  0.324800  1.0
  H  H403  1  0.409200  0.551400  0.175200  1.0
  H  H404  1  0.090800  0.448600  0.175200  1.0
  H  H405  1  0.409200  0.448600  0.675200  1.0
  H  H406  1  0.090800  0.551400  0.675200  1.0
  H  H407  1  0.590800  0.448600  0.824800  1.0
  H  H408  1  0.909200  0.551400  0.824800  1.0
  H  H409  1  0.442600  0.419400  0.480900  1.0
  H  H410  1  0.057400  0.580600  0.480900  1.0
  H  H411  1  0.557400  0.419400  0.019100  1.0
  H  H412  1  0.942600  0.580600  0.019100  1.0
  H  H413  1  0.557400  0.580600  0.519100  1.0
  H  H414  1  0.942600  0.419400  0.519100  1.0
  H  H415  1  0.442600  0.580600  0.980900  1.0
  H  H416  1  0.057400  0.419400  0.980900  1.0
  H  H417  1  0.418500  0.464800  0.483400  1.0
  H  H418  1  0.081500  0.535200  0.483400  1.0
  H  H419  1  0.581500  0.464800  0.016600  1.0
  H  H420  1  0.918500  0.535200  0.016600  1.0
  H  H421  1  0.581500  0.535200  0.516600  1.0
  H  H422  1  0.918500  0.464800  0.516600  1.0
  H  H423  1  0.418500  0.535200  0.983400  1.0
  H  H424  1  0.081500  0.464800  0.983400  1.0
  H  H425  1  0.467700  0.459400  0.497400  1.0
  H  H426  1  0.032300  0.540600  0.497400  1.0
  H  H427  1  0.532300  0.459400  0.002600  1.0
  H  H428  1  0.967700  0.540600  0.002600  1.0
  H  H429  1  0.532300  0.540600  0.502600  1.0
  H  H430  1  0.967700  0.459400  0.502600  1.0
  H  H431  1  0.467700  0.540600  0.997400  1.0
  H  H432  1  0.032300  0.459400  0.997400  1.0
  H  H433  1  0.408800  0.488200  0.427100  1.0
  H  H434  1  0.091200  0.511800  0.427100  1.0
  H  H435  1  0.591200  0.488200  0.072900  1.0
  H  H436  1  0.908800  0.511800  0.072900  1.0
  H  H437  1  0.591200  0.511800  0.572900  1.0
  H  H438  1  0.908800  0.488200  0.572900  1.0
  H  H439  1  0.408800  0.511800  0.927100  1.0
  H  H440  1  0.091200  0.488200  0.927100  1.0
  H  H441  1  0.361300  0.495100  0.384600  1.0
  H  H442  1  0.138700  0.504900  0.384600  1.0
  H  H443  1  0.638700  0.495100  0.115400  1.0
  H  H444  1  0.861300  0.504900  0.115400  1.0
  H  H445  1  0.638700  0.504900  0.615400  1.0
  H  H446  1  0.861300  0.495100  0.615400  1.0
  H  H447  1  0.361300  0.504900  0.884600  1.0
  H  H448  1  0.138700  0.495100  0.884600  1.0
  H  H449  1  0.317400  0.528100  0.343800  1.0
  H  H450  1  0.182600  0.471900  0.343800  1.0
  H  H451  1  0.682600  0.528100  0.156200  1.0
  H  H452  1  0.817400  0.471900  0.156200  1.0
  H  H453  1  0.682600  0.471900  0.656200  1.0
  H  H454  1  0.817400  0.528100  0.656200  1.0
  H  H455  1  0.317400  0.471900  0.843800  1.0
  H  H456  1  0.182600  0.528100  0.843800  1.0
  H  H457  1  0.417900  0.580300  0.298700  1.0
  H  H458  1  0.082100  0.419700  0.298700  1.0
  H  H459  1  0.582100  0.580300  0.201300  1.0
  H  H460  1  0.917900  0.419700  0.201300  1.0
  H  H461  1  0.582100  0.419700  0.701300  1.0
  H  H462  1  0.917900  0.580300  0.701300  1.0
  H  H463  1  0.417900  0.419700  0.798700  1.0
  H  H464  1  0.082100  0.580300  0.798700  1.0
  H  H465  1  0.467000  0.545500  0.336400  1.0
  H  H466  1  0.033000  0.454500  0.336400  1.0
  H  H467  1  0.533000  0.545500  0.163600  1.0
  H  H468  1  0.967000  0.454500  0.163600  1.0
  H  H469  1  0.533000  0.454500  0.663600  1.0
  H  H470  1  0.967000  0.545500  0.663600  1.0
  H  H471  1  0.467000  0.454500  0.836400  1.0
  H  H472  1  0.033000  0.545500  0.836400  1.0
  H  H473  1  0.875200  0.636500  0.428300  1.0
  H  H474  1  0.624800  0.363500  0.428300  1.0
  H  H475  1  0.124800  0.636500  0.071700  1.0
  H  H476  1  0.375200  0.363500  0.071700  1.0
  H  H477  1  0.124800  0.363500  0.571700  1.0
  H  H478  1  0.375200  0.636500  0.571700  1.0
  H  H479  1  0.875200  0.363500  0.928300  1.0
  H  H480  1  0.624800  0.636500  0.928300  1.0
  H  H481  1  0.860100  0.596900  0.405000  1.0
  H  H482  1  0.639900  0.403100  0.405000  1.0
  H  H483  1  0.139900  0.596900  0.095000  1.0
  H  H484  1  0.360100  0.403100  0.095000  1.0
  H  H485  1  0.139900  0.403100  0.595000  1.0
  H  H486  1  0.360100  0.596900  0.595000  1.0
  H  H487  1  0.860100  0.403100  0.905000  1.0
  H  H488  1  0.639900  0.596900  0.905000  1.0
  H  H489  1  0.827500  0.616100  0.433500  1.0
  H  H490  1  0.672500  0.383900  0.433500  1.0
  H  H491  1  0.172500  0.616100  0.066500  1.0
  H  H492  1  0.327500  0.383900  0.066500  1.0
  H  H493  1  0.172500  0.383900  0.566500  1.0
  H  H494  1  0.327500  0.616100  0.566500  1.0
  H  H495  1  0.827500  0.383900  0.933500  1.0
  H  H496  1  0.672500  0.616100  0.933500  1.0
  H  H497  1  0.807800  0.608200  0.357800  1.0
  H  H498  1  0.692200  0.391800  0.357800  1.0
  H  H499  1  0.192200  0.608200  0.142200  1.0
  H  H500  1  0.307800  0.391800  0.142200  1.0
  H  H501  1  0.192200  0.391800  0.642200  1.0
  H  H502  1  0.307800  0.608200  0.642200  1.0
  H  H503  1  0.807800  0.391800  0.857800  1.0
  H  H504  1  0.692200  0.608200  0.857800  1.0
  H  H505  1  0.793800  0.584800  0.307700  1.0
  H  H506  1  0.706200  0.415200  0.307700  1.0
  H  H507  1  0.206200  0.584800  0.192300  1.0
  H  H508  1  0.293800  0.415200  0.192300  1.0
  H  H509  1  0.206200  0.415200  0.692300  1.0
  H  H510  1  0.293800  0.584800  0.692300  1.0
  H  H511  1  0.793800  0.415200  0.807700  1.0
  H  H512  1  0.706200  0.584800  0.807700  1.0
  H  H513  1  0.752300  0.557800  0.262800  1.0
  H  H514  1  0.747700  0.442200  0.262800  1.0
  H  H515  1  0.247700  0.557800  0.237200  1.0
  H  H516  1  0.252300  0.442200  0.237200  1.0
  H  H517  1  0.247700  0.442200  0.737200  1.0
  H  H518  1  0.252300  0.557800  0.737200  1.0
  H  H519  1  0.752300  0.442200  0.762800  1.0
  H  H520  1  0.747700  0.557800  0.762800  1.0
  H  H521  1  0.684100  0.664100  0.255100  1.0
  H  H522  1  0.815900  0.335900  0.255100  1.0
  H  H523  1  0.315900  0.664100  0.244900  1.0
  H  H524  1  0.184100  0.335900  0.244900  1.0
  H  H525  1  0.315900  0.335900  0.744900  1.0
  H  H526  1  0.184100  0.664100  0.744900  1.0
  H  H527  1  0.684100  0.335900  0.755100  1.0
  H  H528  1  0.815900  0.664100  0.755100  1.0
  H  H529  1  0.728100  0.695000  0.297300  1.0
  H  H530  1  0.771900  0.305000  0.297300  1.0
  H  H531  1  0.271900  0.695000  0.202700  1.0
  H  H532  1  0.228100  0.305000  0.202700  1.0
  H  H533  1  0.271900  0.305000  0.702700  1.0
  H  H534  1  0.228100  0.695000  0.702700  1.0
  H  H535  1  0.728100  0.305000  0.797300  1.0
  H  H536  1  0.771900  0.695000  0.797300  1.0
  H  H537  1  0.866300  0.800600  0.469500  1.0
  H  H538  1  0.633700  0.199400  0.469500  1.0
  H  H539  1  0.133700  0.800600  0.030500  1.0
  H  H540  1  0.366300  0.199400  0.030500  1.0
  H  H541  1  0.133700  0.199400  0.530500  1.0
  H  H542  1  0.366300  0.800600  0.530500  1.0
  H  H543  1  0.866300  0.199400  0.969500  1.0
  H  H544  1  0.633700  0.800600  0.969500  1.0
  H  H545  1  0.822700  0.824400  0.482400  1.0
  H  H546  1  0.677300  0.175600  0.482400  1.0
  H  H547  1  0.177300  0.824400  0.017600  1.0
  H  H548  1  0.322700  0.175600  0.017600  1.0
  H  H549  1  0.177300  0.175600  0.517600  1.0
  H  H550  1  0.322700  0.824400  0.517600  1.0
  H  H551  1  0.822700  0.175600  0.982400  1.0
  H  H552  1  0.677300  0.824400  0.982400  1.0
  H  H553  1  0.851800  0.844800  0.452100  1.0
  H  H554  1  0.648200  0.155200  0.452100  1.0
  H  H555  1  0.148200  0.844800  0.047900  1.0
  H  H556  1  0.351800  0.155200  0.047900  1.0
  H  H557  1  0.148200  0.155200  0.547900  1.0
  H  H558  1  0.351800  0.844800  0.547900  1.0
  H  H559  1  0.851800  0.155200  0.952100  1.0
  H  H560  1  0.648200  0.844800  0.952100  1.0
  H  H561  1  0.755500  0.802700  0.459800  1.0
  H  H562  1  0.744500  0.197300  0.459800  1.0
  H  H563  1  0.244500  0.802700  0.040200  1.0
  H  H564  1  0.255500  0.197300  0.040200  1.0
  H  H565  1  0.244500  0.197300  0.540200  1.0
  H  H566  1  0.255500  0.802700  0.540200  1.0
  H  H567  1  0.755500  0.197300  0.959800  1.0
  H  H568  1  0.744500  0.802700  0.959800  1.0
  H  H569  1  0.690300  0.783600  0.474600  1.0
  H  H570  1  0.809700  0.216400  0.474600  1.0
  H  H571  1  0.309700  0.783600  0.025400  1.0
  H  H572  1  0.190300  0.216400  0.025400  1.0
  H  H573  1  0.309700  0.216400  0.525400  1.0
  H  H574  1  0.190300  0.783600  0.525400  1.0
  H  H575  1  0.690300  0.216400  0.974600  1.0
  H  H576  1  0.809700  0.783600  0.974600  1.0
  H  H577  1  0.614100  0.778700  0.479400  1.0
  H  H578  1  0.885900  0.221300  0.479400  1.0
  H  H579  1  0.385900  0.778700  0.020600  1.0
  H  H580  1  0.114100  0.221300  0.020600  1.0
  H  H581  1  0.385900  0.221300  0.520600  1.0
  H  H582  1  0.114100  0.778700  0.520600  1.0
  H  H583  1  0.614100  0.221300  0.979400  1.0
  H  H584  1  0.885900  0.778700  0.979400  1.0
  H  H585  1  0.602800  0.747600  0.380800  1.0
  H  H586  1  0.897200  0.252400  0.380800  1.0
  H  H587  1  0.397200  0.747600  0.119200  1.0
  H  H588  1  0.102800  0.252400  0.119200  1.0
  H  H589  1  0.397200  0.252400  0.619200  1.0
  H  H590  1  0.102800  0.747600  0.619200  1.0
  H  H591  1  0.602800  0.252400  0.880800  1.0
  H  H592  1  0.897200  0.747600  0.880800  1.0
  H  H593  1  0.679000  0.749600  0.374000  1.0
  H  H594  1  0.821000  0.250400  0.374000  1.0
  H  H595  1  0.321000  0.749600  0.126000  1.0
  H  H596  1  0.179000  0.250400  0.126000  1.0
  H  H597  1  0.321000  0.250400  0.626000  1.0
  H  H598  1  0.179000  0.749600  0.626000  1.0
  H  H599  1  0.679000  0.250400  0.874000  1.0
  H  H600  1  0.821000  0.749600  0.874000  1.0
  H  H601  1  0.944900  0.784500  0.312700  1.0
  H  H602  1  0.555100  0.215500  0.312700  1.0
  H  H603  1  0.055100  0.784500  0.187300  1.0
  H  H604  1  0.444900  0.215500  0.187300  1.0
  H  H605  1  0.055100  0.215500  0.687300  1.0
  H  H606  1  0.444900  0.784500  0.687300  1.0
  H  H607  1  0.944900  0.215500  0.812700  1.0
  H  H608  1  0.555100  0.784500  0.812700  1.0
  H  H609  1  0.923000  0.765900  0.278200  1.0
  H  H610  1  0.577000  0.234100  0.278200  1.0
  H  H611  1  0.077000  0.765900  0.221800  1.0
  H  H612  1  0.423000  0.234100  0.221800  1.0
  H  H613  1  0.077000  0.234100  0.721800  1.0
  H  H614  1  0.423000  0.765900  0.721800  1.0
  H  H615  1  0.923000  0.234100  0.778200  1.0
  H  H616  1  0.577000  0.765900  0.778200  1.0
  H  H617  1  0.935000  0.734500  0.309400  1.0
  H  H618  1  0.565000  0.265500  0.309400  1.0
  H  H619  1  0.065000  0.734500  0.190600  1.0
  H  H620  1  0.435000  0.265500  0.190600  1.0
  H  H621  1  0.065000  0.265500  0.690600  1.0
  H  H622  1  0.435000  0.734500  0.690600  1.0
  H  H623  1  0.935000  0.265500  0.809400  1.0
  H  H624  1  0.565000  0.734500  0.809400  1.0
  H  H625  1  0.857000  0.806700  0.278500  1.0
  H  H626  1  0.643000  0.193300  0.278500  1.0
  H  H627  1  0.143000  0.806700  0.221500  1.0
  H  H628  1  0.357000  0.193300  0.221500  1.0
  H  H629  1  0.143000  0.193300  0.721500  1.0
  H  H630  1  0.357000  0.806700  0.721500  1.0
  H  H631  1  0.857000  0.193300  0.778500  1.0
  H  H632  1  0.643000  0.806700  0.778500  1.0
  H  H633  1  0.822600  0.870500  0.268700  1.0
  H  H634  1  0.677400  0.129500  0.268700  1.0
  H  H635  1  0.177400  0.870500  0.231300  1.0
  H  H636  1  0.322600  0.129500  0.231300  1.0
  H  H637  1  0.177400  0.129500  0.731300  1.0
  H  H638  1  0.322600  0.870500  0.731300  1.0
  H  H639  1  0.822600  0.129500  0.768700  1.0
  H  H640  1  0.677400  0.870500  0.768700  1.0
  H  H641  1  0.771900  0.914800  0.242100  1.0
  H  H642  1  0.728100  0.085200  0.242100  1.0
  H  H643  1  0.228100  0.914800  0.257900  1.0
  H  H644  1  0.271900  0.085200  0.257900  1.0
  H  H645  1  0.228100  0.085200  0.757900  1.0
  H  H646  1  0.271900  0.914800  0.757900  1.0
  H  H647  1  0.771900  0.085200  0.742100  1.0
  H  H648  1  0.728100  0.914800  0.742100  1.0
  H  H649  1  0.673900  0.855400  0.286600  1.0
  H  H650  1  0.826100  0.144600  0.286600  1.0
  H  H651  1  0.326100  0.855400  0.213400  1.0
  H  H652  1  0.173900  0.144600  0.213400  1.0
  H  H653  1  0.326100  0.144600  0.713400  1.0
  H  H654  1  0.173900  0.855400  0.713400  1.0
  H  H655  1  0.673900  0.144600  0.786600  1.0
  H  H656  1  0.826100  0.855400  0.786600  1.0
  H  H657  1  0.721800  0.808300  0.313100  1.0
  H  H658  1  0.778200  0.191700  0.313100  1.0
  H  H659  1  0.278200  0.808300  0.186900  1.0
  H  H660  1  0.221800  0.191700  0.186900  1.0
  H  H661  1  0.278200  0.191700  0.686900  1.0
  H  H662  1  0.221800  0.808300  0.686900  1.0
  H  H663  1  0.721800  0.191700  0.813100  1.0
  H  H664  1  0.778200  0.808300  0.813100  1.0
  H  H665  1  0.896300  0.750300  0.079500  1.0
  H  H666  1  0.603700  0.249700  0.079500  1.0
  H  H667  1  0.103700  0.750300  0.420500  1.0
  H  H668  1  0.396300  0.249700  0.420500  1.0
  H  H669  1  0.103700  0.249700  0.920500  1.0
  H  H670  1  0.396300  0.750300  0.920500  1.0
  H  H671  1  0.896300  0.249700  0.579500  1.0
  H  H672  1  0.603700  0.750300  0.579500  1.0
  H  H673  1  0.890600  0.736600  0.119100  1.0
  H  H674  1  0.609400  0.263400  0.119100  1.0
  H  H675  1  0.109400  0.736600  0.380900  1.0
  H  H676  1  0.390600  0.263400  0.380900  1.0
  H  H677  1  0.109400  0.263400  0.880900  1.0
  H  H678  1  0.390600  0.736600  0.880900  1.0
  H  H679  1  0.890600  0.263400  0.619100  1.0
  H  H680  1  0.609400  0.736600  0.619100  1.0
  H  H681  1  0.882000  0.785000  0.107700  1.0
  H  H682  1  0.618000  0.215000  0.107700  1.0
  H  H683  1  0.118000  0.785000  0.392300  1.0
  H  H684  1  0.382000  0.215000  0.392300  1.0
  H  H685  1  0.118000  0.215000  0.892300  1.0
  H  H686  1  0.382000  0.785000  0.892300  1.0
  H  H687  1  0.882000  0.215000  0.607700  1.0
  H  H688  1  0.618000  0.785000  0.607700  1.0
  H  H689  1  0.824900  0.706800  0.136200  1.0
  H  H690  1  0.675100  0.293200  0.136200  1.0
  H  H691  1  0.175100  0.706800  0.363800  1.0
  H  H692  1  0.324900  0.293200  0.363800  1.0
  H  H693  1  0.175100  0.293200  0.863800  1.0
  H  H694  1  0.324900  0.706800  0.863800  1.0
  H  H695  1  0.824900  0.293200  0.636200  1.0
  H  H696  1  0.675100  0.706800  0.636200  1.0
  H  H697  1  0.801500  0.644100  0.150900  1.0
  H  H698  1  0.698500  0.355900  0.150900  1.0
  H  H699  1  0.198500  0.644100  0.349100  1.0
  H  H700  1  0.301500  0.355900  0.349100  1.0
  H  H701  1  0.198500  0.355900  0.849100  1.0
  H  H702  1  0.301500  0.644100  0.849100  1.0
  H  H703  1  0.801500  0.355900  0.650900  1.0
  H  H704  1  0.698500  0.644100  0.650900  1.0
  H  H705  1  0.764100  0.593000  0.186700  1.0
  H  H706  1  0.735900  0.407000  0.186700  1.0
  H  H707  1  0.235900  0.593000  0.313300  1.0
  H  H708  1  0.264100  0.407000  0.313300  1.0
  H  H709  1  0.235900  0.407000  0.813300  1.0
  H  H710  1  0.264100  0.593000  0.813300  1.0
  H  H711  1  0.764100  0.407000  0.686700  1.0
  H  H712  1  0.735900  0.593000  0.686700  1.0
  H  H713  1  0.652600  0.653700  0.172500  1.0
  H  H714  1  0.847400  0.346300  0.172500  1.0
  H  H715  1  0.347400  0.653700  0.327500  1.0
  H  H716  1  0.152600  0.346300  0.327500  1.0
  H  H717  1  0.347400  0.346300  0.827500  1.0
  H  H718  1  0.152600  0.653700  0.827500  1.0
  H  H719  1  0.652600  0.346300  0.672500  1.0
  H  H720  1  0.847400  0.653700  0.672500  1.0
  H  H721  1  0.684400  0.701000  0.133500  1.0
  H  H722  1  0.815600  0.299000  0.133500  1.0
  H  H723  1  0.315600  0.701000  0.366500  1.0
  H  H724  1  0.184400  0.299000  0.366500  1.0
  H  H725  1  0.315600  0.299000  0.866500  1.0
  H  H726  1  0.184400  0.701000  0.866500  1.0
  H  H727  1  0.684400  0.299000  0.633500  1.0
  H  H728  1  0.815600  0.701000  0.633500  1.0
  H  H729  1  0.760900  0.873500  0.981400  1.0
  H  H730  1  0.739100  0.126500  0.981400  1.0
  H  H731  1  0.239100  0.873500  0.518600  1.0
  H  H732  1  0.260900  0.126500  0.518600  1.0
  H  H733  1  0.239100  0.126500  0.018600  1.0
  H  H734  1  0.260900  0.873500  0.018600  1.0
  H  H735  1  0.760900  0.126500  0.481400  1.0
  H  H736  1  0.739100  0.873500  0.481400  1.0
  H  H737  1  0.783600  0.908300  0.005800  1.0
  H  H738  1  0.716400  0.091700  0.005800  1.0
  H  H739  1  0.216400  0.908300  0.494200  1.0
  H  H740  1  0.283600  0.091700  0.494200  1.0
  H  H741  1  0.216400  0.091700  0.994200  1.0
  H  H742  1  0.283600  0.908300  0.994200  1.0
  H  H743  1  0.783600  0.091700  0.505800  1.0
  H  H744  1  0.716400  0.908300  0.505800  1.0
  H  H745  1  0.731200  0.907400  0.001700  1.0
  H  H746  1  0.768800  0.092600  0.001700  1.0
  H  H747  1  0.268800  0.907400  0.498300  1.0
  H  H748  1  0.231200  0.092600  0.498300  1.0
  H  H749  1  0.268800  0.092600  0.998300  1.0
  H  H750  1  0.231200  0.907400  0.998300  1.0
  H  H751  1  0.731200  0.092600  0.501700  1.0
  H  H752  1  0.768800  0.907400  0.501700  1.0
  H  H753  1  0.758600  0.898700  0.071300  1.0
  H  H754  1  0.741400  0.101300  0.071300  1.0
  H  H755  1  0.241400  0.898700  0.428700  1.0
  H  H756  1  0.258600  0.101300  0.428700  1.0
  H  H757  1  0.241400  0.101300  0.928700  1.0
  H  H758  1  0.258600  0.898700  0.928700  1.0
  H  H759  1  0.758600  0.101300  0.571300  1.0
  H  H760  1  0.741400  0.898700  0.571300  1.0
  H  H761  1  0.737600  0.930600  0.118000  1.0
  H  H762  1  0.762400  0.069400  0.118000  1.0
  H  H763  1  0.262400  0.930600  0.382000  1.0
  H  H764  1  0.237600  0.069400  0.382000  1.0
  H  H765  1  0.262400  0.069400  0.882000  1.0
  H  H766  1  0.237600  0.930600  0.882000  1.0
  H  H767  1  0.737600  0.069400  0.618000  1.0
  H  H768  1  0.762400  0.930600  0.618000  1.0
  H  H769  1  0.719900  0.956100  0.172400  1.0
  H  H770  1  0.780100  0.043900  0.172400  1.0
  H  H771  1  0.280100  0.956100  0.327600  1.0
  H  H772  1  0.219900  0.043900  0.327600  1.0
  H  H773  1  0.280100  0.043900  0.827600  1.0
  H  H774  1  0.219900  0.956100  0.827600  1.0
  H  H775  1  0.719900  0.043900  0.672400  1.0
  H  H776  1  0.780100  0.956100  0.672400  1.0
  H  H777  1  0.674000  0.842700  0.200200  1.0
  H  H778  1  0.826000  0.157300  0.200200  1.0
  H  H779  1  0.326000  0.842700  0.299800  1.0
  H  H780  1  0.174000  0.157300  0.299800  1.0
  H  H781  1  0.326000  0.157300  0.799800  1.0
  H  H782  1  0.174000  0.842700  0.799800  1.0
  H  H783  1  0.674000  0.157300  0.700200  1.0
  H  H784  1  0.826000  0.842700  0.700200  1.0
  H  H785  1  0.698600  0.813200  0.147700  1.0
  H  H786  1  0.801400  0.186800  0.147700  1.0
  H  H787  1  0.301400  0.813200  0.352300  1.0
  H  H788  1  0.198600  0.186800  0.352300  1.0
  H  H789  1  0.301400  0.186800  0.852300  1.0
  H  H790  1  0.198600  0.813200  0.852300  1.0
  H  H791  1  0.698600  0.186800  0.647700  1.0
  H  H792  1  0.801400  0.813200  0.647700  1.0
  H  H793  1  0.775100  0.682700  0.969300  1.0
  H  H794  1  0.724900  0.317300  0.969300  1.0
  H  H795  1  0.224900  0.682700  0.530700  1.0
  H  H796  1  0.275100  0.317300  0.530700  1.0
  H  H797  1  0.224900  0.317300  0.030700  1.0
  H  H798  1  0.275100  0.682700  0.030700  1.0
  H  H799  1  0.775100  0.317300  0.469300  1.0
  H  H800  1  0.724900  0.682700  0.469300  1.0
  H  H801  1  0.728700  0.686700  0.950000  1.0
  H  H802  1  0.771300  0.313300  0.950000  1.0
  H  H803  1  0.271300  0.686700  0.550000  1.0
  H  H804  1  0.228700  0.313300  0.550000  1.0
  H  H805  1  0.271300  0.313300  0.050000  1.0
  H  H806  1  0.228700  0.686700  0.050000  1.0
  H  H807  1  0.728700  0.313300  0.450000  1.0
  H  H808  1  0.771300  0.686700  0.450000  1.0
  H  H809  1  0.735900  0.650800  0.978900  1.0
  H  H810  1  0.764100  0.349200  0.978900  1.0
  H  H811  1  0.264100  0.650800  0.521100  1.0
  H  H812  1  0.235900  0.349200  0.521100  1.0
  H  H813  1  0.264100  0.349200  0.021100  1.0
  H  H814  1  0.235900  0.650800  0.021100  1.0
  H  H815  1  0.735900  0.349200  0.478900  1.0
  H  H816  1  0.764100  0.650800  0.478900  1.0
  H  H817  1  0.662800  0.695000  0.995900  1.0
  H  H818  1  0.837200  0.305000  0.995900  1.0
  H  H819  1  0.337200  0.695000  0.504100  1.0
  H  H820  1  0.162800  0.305000  0.504100  1.0
  H  H821  1  0.337200  0.305000  0.004100  1.0
  H  H822  1  0.162800  0.695000  0.004100  1.0
  H  H823  1  0.662800  0.305000  0.495900  1.0
  H  H824  1  0.837200  0.695000  0.495900  1.0
  H  H825  1  0.593900  0.723000  0.991700  1.0
  H  H826  1  0.906100  0.277000  0.991700  1.0
  H  H827  1  0.406100  0.723000  0.508300  1.0
  H  H828  1  0.093900  0.277000  0.508300  1.0
  H  H829  1  0.406100  0.277000  0.008300  1.0
  H  H830  1  0.093900  0.723000  0.008300  1.0
  H  H831  1  0.593900  0.277000  0.491700  1.0
  H  H832  1  0.906100  0.723000  0.491700  1.0
  H  H833  1  0.521100  0.725900  0.005600  1.0
  H  H834  1  0.978900  0.274100  0.005600  1.0
  H  H835  1  0.478900  0.725900  0.494400  1.0
  H  H836  1  0.021100  0.274100  0.494400  1.0
  H  H837  1  0.478900  0.274100  0.994400  1.0
  H  H838  1  0.021100  0.725900  0.994400  1.0
  H  H839  1  0.521100  0.274100  0.505600  1.0
  H  H840  1  0.978900  0.725900  0.505600  1.0
  H  H841  1  0.548900  0.761800  0.100500  1.0
  H  H842  1  0.951100  0.238200  0.100500  1.0
  H  H843  1  0.451100  0.761800  0.399500  1.0
  H  H844  1  0.048900  0.238200  0.399500  1.0
  H  H845  1  0.451100  0.238200  0.899500  1.0
  H  H846  1  0.048900  0.761800  0.899500  1.0
  H  H847  1  0.548900  0.238200  0.600500  1.0
  H  H848  1  0.951100  0.761800  0.600500  1.0
  H  H849  1  0.621400  0.760700  0.089000  1.0
  H  H850  1  0.878600  0.239300  0.089000  1.0
  H  H851  1  0.378600  0.760700  0.411000  1.0
  H  H852  1  0.121400  0.239300  0.411000  1.0
  H  H853  1  0.378600  0.239300  0.911000  1.0
  H  H854  1  0.121400  0.760700  0.911000  1.0
  H  H855  1  0.621400  0.239300  0.589000  1.0
  H  H856  1  0.878600  0.760700  0.589000  1.0
  Pd  Pd857  1  0.537100  0.753870  0.437640  1.0
  Pd  Pd858  1  0.962900  0.246130  0.437640  1.0
  Pd  Pd859  1  0.462900  0.753870  0.062360  1.0
  Pd  Pd860  1  0.037100  0.246130  0.062360  1.0
  Pd  Pd861  1  0.462900  0.246130  0.562360  1.0
  Pd  Pd862  1  0.037100  0.753870  0.562360  1.0
  Pd  Pd863  1  0.537100  0.246130  0.937640  1.0
  Pd  Pd864  1  0.962900  0.753870  0.937640  1.0
  Pd  Pd865  1  0.676000  0.581630  0.218430  1.0
  Pd  Pd866  1  0.824000  0.418370  0.218430  1.0
  Pd  Pd867  1  0.324000  0.581630  0.281570  1.0
  Pd  Pd868  1  0.176000  0.418370  0.281570  1.0
  Pd  Pd869  1  0.324000  0.418370  0.781570  1.0
  Pd  Pd870  1  0.176000  0.581630  0.781570  1.0
  Pd  Pd871  1  0.676000  0.418370  0.718430  1.0
  Pd  Pd872  1  0.824000  0.581630  0.718430  1.0
  Pd  Pd873  1  0.675230  0.926720  0.236360  1.0
  Pd  Pd874  1  0.824770  0.073280  0.236360  1.0
  Pd  Pd875  1  0.324770  0.926720  0.263640  1.0
  Pd  Pd876  1  0.175230  0.073280  0.263640  1.0
  Pd  Pd877  1  0.324770  0.073280  0.763640  1.0
  Pd  Pd878  1  0.175230  0.926720  0.763640  1.0
  Pd  Pd879  1  0.675230  0.073280  0.736360  1.0
  Pd  Pd880  1  0.824770  0.926720  0.736360  1.0
  C  C881  1  0.425900  0.026030  0.490430  1.0
  C  C882  1  0.074100  0.973970  0.490430  1.0
  C  C883  1  0.574100  0.026030  0.009570  1.0
  C  C884  1  0.925900  0.973970  0.009570  1.0
  C  C885  1  0.574100  0.973970  0.509570  1.0
  C  C886  1  0.925900  0.026030  0.509570  1.0
  C  C887  1  0.425900  0.973970  0.990430  1.0
  C  C888  1  0.074100  0.026030  0.990430  1.0
  C  C889  1  0.462800  0.012200  0.466800  1.0
  C  C890  1  0.037200  0.987800  0.466800  1.0
  C  C891  1  0.537200  0.012200  0.033200  1.0
  C  C892  1  0.962800  0.987800  0.033200  1.0
  C  C893  1  0.537200  0.987800  0.533200  1.0
  C  C894  1  0.962800  0.012200  0.533200  1.0
  C  C895  1  0.462800  0.987800  0.966800  1.0
  C  C896  1  0.037200  0.012200  0.966800  1.0
  C  C897  1  0.472560  0.968980  0.464630  1.0
  C  C898  1  0.027440  0.031020  0.464630  1.0
  C  C899  1  0.527440  0.968980  0.035370  1.0
  C  C900  1  0.972560  0.031020  0.035370  1.0
  C  C901  1  0.527440  0.031020  0.535370  1.0
  C  C902  1  0.972560  0.968980  0.535370  1.0
  C  C903  1  0.472560  0.031020  0.964630  1.0
  C  C904  1  0.027440  0.968980  0.964630  1.0
  C  C905  1  0.503670  0.951440  0.442800  1.0
  C  C906  1  0.996330  0.048560  0.442800  1.0
  C  C907  1  0.496330  0.951440  0.057200  1.0
  C  C908  1  0.003670  0.048560  0.057200  1.0
  C  C909  1  0.496330  0.048560  0.557200  1.0
  C  C910  1  0.003670  0.951440  0.557200  1.0
  C  C911  1  0.503670  0.048560  0.942800  1.0
  C  C912  1  0.996330  0.951440  0.942800  1.0
  C  C913  1  0.511640  0.904730  0.442540  1.0
  C  C914  1  0.988360  0.095270  0.442540  1.0
  C  C915  1  0.488360  0.904730  0.057460  1.0
  C  C916  1  0.011640  0.095270  0.057460  1.0
  C  C917  1  0.488360  0.095270  0.557460  1.0
  C  C918  1  0.011640  0.904730  0.557460  1.0
  C  C919  1  0.511640  0.095270  0.942540  1.0
  C  C920  1  0.988360  0.904730  0.942540  1.0
  C  C921  1  0.508600  0.880030  0.471610  1.0
  C  C922  1  0.991400  0.119970  0.471610  1.0
  C  C923  1  0.491400  0.880030  0.028390  1.0
  C  C924  1  0.008600  0.119970  0.028390  1.0
  C  C925  1  0.491400  0.119970  0.528390  1.0
  C  C926  1  0.008600  0.880030  0.528390  1.0
  C  C927  1  0.508600  0.119970  0.971610  1.0
  C  C928  1  0.991400  0.880030  0.971610  1.0
  C  C929  1  0.517620  0.836260  0.469420  1.0
  C  C930  1  0.982380  0.163740  0.469420  1.0
  C  C931  1  0.482380  0.836260  0.030580  1.0
  C  C932  1  0.017620  0.163740  0.030580  1.0
  C  C933  1  0.482380  0.163740  0.530580  1.0
  C  C934  1  0.017620  0.836260  0.530580  1.0
  C  C935  1  0.517620  0.163740  0.969420  1.0
  C  C936  1  0.982380  0.836260  0.969420  1.0
  C  C937  1  0.530300  0.842070  0.411190  1.0
  C  C938  1  0.969700  0.157930  0.411190  1.0
  C  C939  1  0.469700  0.842070  0.088810  1.0
  C  C940  1  0.030300  0.157930  0.088810  1.0
  C  C941  1  0.469700  0.157930  0.588810  1.0
  C  C942  1  0.030300  0.842070  0.588810  1.0
  C  C943  1  0.530300  0.157930  0.911190  1.0
  C  C944  1  0.969700  0.842070  0.911190  1.0
  C  C945  1  0.523800  0.885210  0.411610  1.0
  C  C946  1  0.976200  0.114790  0.411610  1.0
  C  C947  1  0.476200  0.885210  0.088390  1.0
  C  C948  1  0.023800  0.114790  0.088390  1.0
  C  C949  1  0.476200  0.114790  0.588390  1.0
  C  C950  1  0.023800  0.885210  0.588390  1.0
  C  C951  1  0.523800  0.114790  0.911610  1.0
  C  C952  1  0.976200  0.885210  0.911610  1.0
  C  C953  1  0.488800  0.154840  0.361900  1.0
  C  C954  1  0.011200  0.845160  0.361900  1.0
  C  C955  1  0.511200  0.154840  0.138100  1.0
  C  C956  1  0.988800  0.845160  0.138100  1.0
  C  C957  1  0.511200  0.845160  0.638100  1.0
  C  C958  1  0.988800  0.154840  0.638100  1.0
  C  C959  1  0.488800  0.845160  0.861900  1.0
  C  C960  1  0.011200  0.154840  0.861900  1.0
  C  C961  1  0.486700  0.108150  0.368540  1.0
  C  C962  1  0.013300  0.891850  0.368540  1.0
  C  C963  1  0.513300  0.108150  0.131460  1.0
  C  C964  1  0.986700  0.891850  0.131460  1.0
  C  C965  1  0.513300  0.891850  0.631460  1.0
  C  C966  1  0.986700  0.108150  0.631460  1.0
  C  C967  1  0.486700  0.891850  0.868540  1.0
  C  C968  1  0.013300  0.108150  0.868540  1.0
  C  C969  1  0.461600  0.082100  0.346840  1.0
  C  C970  1  0.038400  0.917900  0.346840  1.0
  C  C971  1  0.538400  0.082100  0.153160  1.0
  C  C972  1  0.961600  0.917900  0.153160  1.0
  C  C973  1  0.538400  0.917900  0.653160  1.0
  C  C974  1  0.961600  0.082100  0.653160  1.0
  C  C975  1  0.461600  0.917900  0.846840  1.0
  C  C976  1  0.038400  0.082100  0.846840  1.0
  C  C977  1  0.454420  0.039330  0.352800  1.0
  C  C978  1  0.045580  0.960670  0.352800  1.0
  C  C979  1  0.545580  0.039330  0.147200  1.0
  C  C980  1  0.954420  0.960670  0.147200  1.0
  C  C981  1  0.545580  0.960670  0.647200  1.0
  C  C982  1  0.954420  0.039330  0.647200  1.0
  C  C983  1  0.454420  0.960670  0.852800  1.0
  C  C984  1  0.045580  0.039330  0.852800  1.0
  C  C985  1  0.424450  0.014090  0.329520  1.0
  C  C986  1  0.075550  0.985910  0.329520  1.0
  C  C987  1  0.575550  0.014090  0.170480  1.0
  C  C988  1  0.924450  0.985910  0.170480  1.0
  C  C989  1  0.575550  0.985910  0.670480  1.0
  C  C990  1  0.924450  0.014090  0.670480  1.0
  C  C991  1  0.424450  0.985910  0.829520  1.0
  C  C992  1  0.075550  0.014090  0.829520  1.0
  C  C993  1  0.393800  0.031930  0.307070  1.0
  C  C994  1  0.106200  0.968070  0.307070  1.0
  C  C995  1  0.606200  0.031930  0.192930  1.0
  C  C996  1  0.893800  0.968070  0.192930  1.0
  C  C997  1  0.606200  0.968070  0.692930  1.0
  C  C998  1  0.893800  0.031930  0.692930  1.0
  C  C999  1  0.393800  0.968070  0.807070  1.0
  C  C1000  1  0.106200  0.031930  0.807070  1.0
  C  C1001  1  0.366500  0.006890  0.288170  1.0
  C  C1002  1  0.133500  0.993110  0.288170  1.0
  C  C1003  1  0.633500  0.006890  0.211830  1.0
  C  C1004  1  0.866500  0.993110  0.211830  1.0
  C  C1005  1  0.633500  0.993110  0.711830  1.0
  C  C1006  1  0.866500  0.006890  0.711830  1.0
  C  C1007  1  0.366500  0.993110  0.788170  1.0
  C  C1008  1  0.133500  0.006890  0.788170  1.0
  C  C1009  1  0.399400  0.946220  0.310150  1.0
  C  C1010  1  0.100600  0.053780  0.310150  1.0
  C  C1011  1  0.600600  0.946220  0.189850  1.0
  C  C1012  1  0.899400  0.053780  0.189850  1.0
  C  C1013  1  0.600600  0.053780  0.689850  1.0
  C  C1014  1  0.899400  0.946220  0.689850  1.0
  C  C1015  1  0.399400  0.053780  0.810150  1.0
  C  C1016  1  0.100600  0.946220  0.810150  1.0
  C  C1017  1  0.427500  0.969990  0.330220  1.0
  C  C1018  1  0.072500  0.030010  0.330220  1.0
  C  C1019  1  0.572500  0.969990  0.169780  1.0
  C  C1020  1  0.927500  0.030010  0.169780  1.0
  C  C1021  1  0.572500  0.030010  0.669780  1.0
  C  C1022  1  0.927500  0.969990  0.669780  1.0
  C  C1023  1  0.427500  0.030010  0.830220  1.0
  C  C1024  1  0.072500  0.969990  0.830220  1.0
  C  C1025  1  0.645740  0.052890  0.458750  1.0
  C  C1026  1  0.854260  0.947110  0.458750  1.0
  C  C1027  1  0.354260  0.052890  0.041250  1.0
  C  C1028  1  0.145740  0.947110  0.041250  1.0
  C  C1029  1  0.354260  0.947110  0.541250  1.0
  C  C1030  1  0.145740  0.052890  0.541250  1.0
  C  C1031  1  0.645740  0.947110  0.958750  1.0
  C  C1032  1  0.854260  0.052890  0.958750  1.0
  C  C1033  1  0.614300  0.041430  0.430560  1.0
  C  C1034  1  0.885700  0.958570  0.430560  1.0
  C  C1035  1  0.385700  0.041430  0.069440  1.0
  C  C1036  1  0.114300  0.958570  0.069440  1.0
  C  C1037  1  0.385700  0.958570  0.569440  1.0
  C  C1038  1  0.114300  0.041430  0.569440  1.0
  C  C1039  1  0.614300  0.958570  0.930560  1.0
  C  C1040  1  0.885700  0.041430  0.930560  1.0
  C  C1041  1  0.629150  0.020040  0.401070  1.0
  C  C1042  1  0.870850  0.979960  0.401070  1.0
  C  C1043  1  0.370850  0.020040  0.098930  1.0
  C  C1044  1  0.129150  0.979960  0.098930  1.0
  C  C1045  1  0.370850  0.979960  0.598930  1.0
  C  C1046  1  0.129150  0.020040  0.598930  1.0
  C  C1047  1  0.629150  0.979960  0.901070  1.0
  C  C1048  1  0.870850  0.020040  0.901070  1.0
  C  C1049  1  0.603590  0.012090  0.372720  1.0
  C  C1050  1  0.896410  0.987910  0.372720  1.0
  C  C1051  1  0.396410  0.012090  0.127280  1.0
  C  C1052  1  0.103590  0.987910  0.127280  1.0
  C  C1053  1  0.396410  0.987910  0.627280  1.0
  C  C1054  1  0.103590  0.012090  0.627280  1.0
  C  C1055  1  0.603590  0.987910  0.872720  1.0
  C  C1056  1  0.896410  0.012090  0.872720  1.0
  C  C1057  1  0.622360  0.990410  0.341130  1.0
  C  C1058  1  0.877640  0.009590  0.341130  1.0
  C  C1059  1  0.377640  0.990410  0.158870  1.0
  C  C1060  1  0.122360  0.009590  0.158870  1.0
  C  C1061  1  0.377640  0.009590  0.658870  1.0
  C  C1062  1  0.122360  0.990410  0.658870  1.0
  C  C1063  1  0.622360  0.009590  0.841130  1.0
  C  C1064  1  0.877640  0.990410  0.841130  1.0
  C  C1065  1  0.666300  0.993170  0.332440  1.0
  C  C1066  1  0.833700  0.006830  0.332440  1.0
  C  C1067  1  0.333700  0.993170  0.167560  1.0
  C  C1068  1  0.166300  0.006830  0.167560  1.0
  C  C1069  1  0.333700  0.006830  0.667560  1.0
  C  C1070  1  0.166300  0.993170  0.667560  1.0
  C  C1071  1  0.666300  0.006830  0.832440  1.0
  C  C1072  1  0.833700  0.993170  0.832440  1.0
  C  C1073  1  0.681200  0.973800  0.302200  1.0
  C  C1074  1  0.818800  0.026200  0.302200  1.0
  C  C1075  1  0.318800  0.973800  0.197800  1.0
  C  C1076  1  0.181200  0.026200  0.197800  1.0
  C  C1077  1  0.318800  0.026200  0.697800  1.0
  C  C1078  1  0.181200  0.973800  0.697800  1.0
  C  C1079  1  0.681200  0.026200  0.802200  1.0
  C  C1080  1  0.818800  0.973800  0.802200  1.0
  C  C1081  1  0.611020  0.947310  0.291050  1.0
  C  C1082  1  0.888980  0.052690  0.291050  1.0
  C  C1083  1  0.388980  0.947310  0.208950  1.0
  C  C1084  1  0.111020  0.052690  0.208950  1.0
  C  C1085  1  0.388980  0.052690  0.708950  1.0
  C  C1086  1  0.111020  0.947310  0.708950  1.0
  C  C1087  1  0.611020  0.052690  0.791050  1.0
  C  C1088  1  0.888980  0.947310  0.791050  1.0
  C  C1089  1  0.594500  0.967170  0.319880  1.0
  C  C1090  1  0.905500  0.032830  0.319880  1.0
  C  C1091  1  0.405500  0.967170  0.180120  1.0
  C  C1092  1  0.094500  0.032830  0.180120  1.0
  C  C1093  1  0.405500  0.032830  0.680120  1.0
  C  C1094  1  0.094500  0.967170  0.680120  1.0
  C  C1095  1  0.594500  0.032830  0.819880  1.0
  C  C1096  1  0.905500  0.967170  0.819880  1.0
  C  C1097  1  0.661000  0.481000  0.464100  1.0
  C  C1098  1  0.839000  0.519000  0.464100  1.0
  C  C1099  1  0.339000  0.481000  0.035900  1.0
  C  C1100  1  0.161000  0.519000  0.035900  1.0
  C  C1101  1  0.339000  0.519000  0.535900  1.0
  C  C1102  1  0.161000  0.481000  0.535900  1.0
  C  C1103  1  0.661000  0.519000  0.964100  1.0
  C  C1104  1  0.839000  0.481000  0.964100  1.0
  C  C1105  1  0.620500  0.495500  0.445620  1.0
  C  C1106  1  0.879500  0.504500  0.445620  1.0
  C  C1107  1  0.379500  0.495500  0.054380  1.0
  C  C1108  1  0.120500  0.504500  0.054380  1.0
  C  C1109  1  0.379500  0.504500  0.554380  1.0
  C  C1110  1  0.120500  0.495500  0.554380  1.0
  C  C1111  1  0.620500  0.504500  0.945620  1.0
  C  C1112  1  0.879500  0.495500  0.945620  1.0
  C  C1113  1  0.612700  0.539940  0.443780  1.0
  C  C1114  1  0.887300  0.460060  0.443780  1.0
  C  C1115  1  0.387300  0.539940  0.056220  1.0
  C  C1116  1  0.112700  0.460060  0.056220  1.0
  C  C1117  1  0.387300  0.460060  0.556220  1.0
  C  C1118  1  0.112700  0.539940  0.556220  1.0
  C  C1119  1  0.612700  0.460060  0.943780  1.0
  C  C1120  1  0.887300  0.539940  0.943780  1.0
  C  C1121  1  0.574080  0.556480  0.430170  1.0
  C  C1122  1  0.925920  0.443520  0.430170  1.0
  C  C1123  1  0.425920  0.556480  0.069830  1.0
  C  C1124  1  0.074080  0.443520  0.069830  1.0
  C  C1125  1  0.425920  0.443520  0.569830  1.0
  C  C1126  1  0.074080  0.556480  0.569830  1.0
  C  C1127  1  0.574080  0.443520  0.930170  1.0
  C  C1128  1  0.925920  0.556480  0.930170  1.0
  C  C1129  1  0.566090  0.603300  0.432270  1.0
  C  C1130  1  0.933910  0.396700  0.432270  1.0
  C  C1131  1  0.433910  0.603300  0.067730  1.0
  C  C1132  1  0.066090  0.396700  0.067730  1.0
  C  C1133  1  0.433910  0.396700  0.567730  1.0
  C  C1134  1  0.066090  0.603300  0.567730  1.0
  C  C1135  1  0.566090  0.396700  0.932270  1.0
  C  C1136  1  0.933910  0.603300  0.932270  1.0
  C  C1137  1  0.584280  0.628840  0.456950  1.0
  C  C1138  1  0.915720  0.371160  0.456950  1.0
  C  C1139  1  0.415720  0.628840  0.043050  1.0
  C  C1140  1  0.084280  0.371160  0.043050  1.0
  C  C1141  1  0.415720  0.371160  0.543050  1.0
  C  C1142  1  0.084280  0.628840  0.543050  1.0
  C  C1143  1  0.584280  0.371160  0.956950  1.0
  C  C1144  1  0.915720  0.628840  0.956950  1.0
  C  C1145  1  0.574450  0.670880  0.458280  1.0
  C  C1146  1  0.925550  0.329120  0.458280  1.0
  C  C1147  1  0.425550  0.670880  0.041720  1.0
  C  C1148  1  0.074450  0.329120  0.041720  1.0
  C  C1149  1  0.425550  0.329120  0.541720  1.0
  C  C1150  1  0.074450  0.670880  0.541720  1.0
  C  C1151  1  0.574450  0.329120  0.958280  1.0
  C  C1152  1  0.925550  0.670880  0.958280  1.0
  C  C1153  1  0.528800  0.666150  0.410790  1.0
  C  C1154  1  0.971200  0.333850  0.410790  1.0
  C  C1155  1  0.471200  0.666150  0.089210  1.0
  C  C1156  1  0.028800  0.333850  0.089210  1.0
  C  C1157  1  0.471200  0.333850  0.589210  1.0
  C  C1158  1  0.028800  0.666150  0.589210  1.0
  C  C1159  1  0.528800  0.333850  0.910790  1.0
  C  C1160  1  0.971200  0.666150  0.910790  1.0
  C  C1161  1  0.537200  0.622200  0.409160  1.0
  C  C1162  1  0.962800  0.377800  0.409160  1.0
  C  C1163  1  0.462800  0.622200  0.090840  1.0
  C  C1164  1  0.037200  0.377800  0.090840  1.0
  C  C1165  1  0.462800  0.377800  0.590840  1.0
  C  C1166  1  0.037200  0.622200  0.590840  1.0
  C  C1167  1  0.537200  0.377800  0.909160  1.0
  C  C1168  1  0.962800  0.622200  0.909160  1.0
  C  C1169  1  0.558300  0.352170  0.350100  1.0
  C  C1170  1  0.941700  0.647830  0.350100  1.0
  C  C1171  1  0.441700  0.352170  0.149900  1.0
  C  C1172  1  0.058300  0.647830  0.149900  1.0
  C  C1173  1  0.441700  0.647830  0.649900  1.0
  C  C1174  1  0.058300  0.352170  0.649900  1.0
  C  C1175  1  0.558300  0.647830  0.850100  1.0
  C  C1176  1  0.941700  0.352170  0.850100  1.0
  C  C1177  1  0.564140  0.399240  0.356300  1.0
  C  C1178  1  0.935860  0.600760  0.356300  1.0
  C  C1179  1  0.435860  0.399240  0.143700  1.0
  C  C1180  1  0.064140  0.600760  0.143700  1.0
  C  C1181  1  0.435860  0.600760  0.643700  1.0
  C  C1182  1  0.064140  0.399240  0.643700  1.0
  C  C1183  1  0.564140  0.600760  0.856300  1.0
  C  C1184  1  0.935860  0.399240  0.856300  1.0
  C  C1185  1  0.582100  0.424750  0.330900  1.0
  C  C1186  1  0.917900  0.575250  0.330900  1.0
  C  C1187  1  0.417900  0.424750  0.169100  1.0
  C  C1188  1  0.082100  0.575250  0.169100  1.0
  C  C1189  1  0.417900  0.575250  0.669100  1.0
  C  C1190  1  0.082100  0.424750  0.669100  1.0
  C  C1191  1  0.582100  0.575250  0.830900  1.0
  C  C1192  1  0.917900  0.424750  0.830900  1.0
  C  C1193  1  0.588840  0.468440  0.334160  1.0
  C  C1194  1  0.911160  0.531560  0.334160  1.0
  C  C1195  1  0.411160  0.468440  0.165840  1.0
  C  C1196  1  0.088840  0.531560  0.165840  1.0
  C  C1197  1  0.411160  0.531560  0.665840  1.0
  C  C1198  1  0.088840  0.468440  0.665840  1.0
  C  C1199  1  0.588840  0.531560  0.834160  1.0
  C  C1200  1  0.911160  0.468440  0.834160  1.0
  C  C1201  1  0.609090  0.493560  0.305810  1.0
  C  C1202  1  0.890910  0.506440  0.305810  1.0
  C  C1203  1  0.390910  0.493560  0.194190  1.0
  C  C1204  1  0.109090  0.506440  0.194190  1.0
  C  C1205  1  0.390910  0.506440  0.694190  1.0
  C  C1206  1  0.109090  0.493560  0.694190  1.0
  C  C1207  1  0.609090  0.506440  0.805810  1.0
  C  C1208  1  0.890910  0.493560  0.805810  1.0
  C  C1209  1  0.631000  0.476660  0.277670  1.0
  C  C1210  1  0.869000  0.523340  0.277670  1.0
  C  C1211  1  0.369000  0.476660  0.222330  1.0
  C  C1212  1  0.131000  0.523340  0.222330  1.0
  C  C1213  1  0.369000  0.523340  0.722330  1.0
  C  C1214  1  0.131000  0.476660  0.722330  1.0
  C  C1215  1  0.631000  0.523340  0.777670  1.0
  C  C1216  1  0.869000  0.476660  0.777670  1.0
  C  C1217  1  0.649500  0.502760  0.253510  1.0
  C  C1218  1  0.850500  0.497240  0.253510  1.0
  C  C1219  1  0.350500  0.502760  0.246490  1.0
  C  C1220  1  0.149500  0.497240  0.246490  1.0
  C  C1221  1  0.350500  0.497240  0.746490  1.0
  C  C1222  1  0.149500  0.502760  0.746490  1.0
  C  C1223  1  0.649500  0.497240  0.753510  1.0
  C  C1224  1  0.850500  0.502760  0.753510  1.0
  C  C1225  1  0.626700  0.562200  0.281200  1.0
  C  C1226  1  0.873300  0.437800  0.281200  1.0
  C  C1227  1  0.373300  0.562200  0.218800  1.0
  C  C1228  1  0.126700  0.437800  0.218800  1.0
  C  C1229  1  0.373300  0.437800  0.718800  1.0
  C  C1230  1  0.126700  0.562200  0.718800  1.0
  C  C1231  1  0.626700  0.437800  0.781200  1.0
  C  C1232  1  0.873300  0.562200  0.781200  1.0
  C  C1233  1  0.606500  0.537700  0.306670  1.0
  C  C1234  1  0.893500  0.462300  0.306670  1.0
  C  C1235  1  0.393500  0.537700  0.193330  1.0
  C  C1236  1  0.106500  0.462300  0.193330  1.0
  C  C1237  1  0.393500  0.462300  0.693330  1.0
  C  C1238  1  0.106500  0.537700  0.693330  1.0
  C  C1239  1  0.606500  0.462300  0.806670  1.0
  C  C1240  1  0.893500  0.537700  0.806670  1.0
  C  C1241  1  0.446700  0.450400  0.479600  1.0
  C  C1242  1  0.053300  0.549600  0.479600  1.0
  C  C1243  1  0.553300  0.450400  0.020400  1.0
  C  C1244  1  0.946700  0.549600  0.020400  1.0
  C  C1245  1  0.553300  0.549600  0.520400  1.0
  C  C1246  1  0.946700  0.450400  0.520400  1.0
  C  C1247  1  0.446700  0.549600  0.979600  1.0
  C  C1248  1  0.053300  0.450400  0.979600  1.0
  C  C1249  1  0.464200  0.462100  0.444460  1.0
  C  C1250  1  0.035800  0.537900  0.444460  1.0
  C  C1251  1  0.535800  0.462100  0.055540  1.0
  C  C1252  1  0.964200  0.537900  0.055540  1.0
  C  C1253  1  0.535800  0.537900  0.555540  1.0
  C  C1254  1  0.964200  0.462100  0.555540  1.0
  C  C1255  1  0.464200  0.537900  0.944460  1.0
  C  C1256  1  0.035800  0.462100  0.944460  1.0
  C  C1257  1  0.438100  0.481800  0.420520  1.0
  C  C1258  1  0.061900  0.518200  0.420520  1.0
  C  C1259  1  0.561900  0.481800  0.079480  1.0
  C  C1260  1  0.938100  0.518200  0.079480  1.0
  C  C1261  1  0.561900  0.518200  0.579480  1.0
  C  C1262  1  0.938100  0.481800  0.579480  1.0
  C  C1263  1  0.438100  0.518200  0.920520  1.0
  C  C1264  1  0.061900  0.481800  0.920520  1.0
  C  C1265  1  0.451000  0.493190  0.387350  1.0
  C  C1266  1  0.049000  0.506810  0.387350  1.0
  C  C1267  1  0.549000  0.493190  0.112650  1.0
  C  C1268  1  0.951000  0.506810  0.112650  1.0
  C  C1269  1  0.549000  0.506810  0.612650  1.0
  C  C1270  1  0.951000  0.493190  0.612650  1.0
  C  C1271  1  0.451000  0.506810  0.887350  1.0
  C  C1272  1  0.049000  0.493190  0.887350  1.0
  C  C1273  1  0.419900  0.515130  0.363480  1.0
  C  C1274  1  0.080100  0.484870  0.363480  1.0
  C  C1275  1  0.580100  0.515130  0.136520  1.0
  C  C1276  1  0.919900  0.484870  0.136520  1.0
  C  C1277  1  0.580100  0.484870  0.636520  1.0
  C  C1278  1  0.919900  0.515130  0.636520  1.0
  C  C1279  1  0.419900  0.484870  0.863480  1.0
  C  C1280  1  0.080100  0.515130  0.863480  1.0
  C  C1281  1  0.374100  0.511300  0.366430  1.0
  C  C1282  1  0.125900  0.488700  0.366430  1.0
  C  C1283  1  0.625900  0.511300  0.133570  1.0
  C  C1284  1  0.874100  0.488700  0.133570  1.0
  C  C1285  1  0.625900  0.488700  0.633570  1.0
  C  C1286  1  0.874100  0.511300  0.633570  1.0
  C  C1287  1  0.374100  0.488700  0.866430  1.0
  C  C1288  1  0.125900  0.511300  0.866430  1.0
  C  C1289  1  0.348300  0.531500  0.342350  1.0
  C  C1290  1  0.151700  0.468500  0.342350  1.0
  C  C1291  1  0.651700  0.531500  0.157650  1.0
  C  C1292  1  0.848300  0.468500  0.157650  1.0
  C  C1293  1  0.651700  0.468500  0.657650  1.0
  C  C1294  1  0.848300  0.531500  0.657650  1.0
  C  C1295  1  0.348300  0.468500  0.842350  1.0
  C  C1296  1  0.151700  0.531500  0.842350  1.0
  C  C1297  1  0.406700  0.561400  0.315870  1.0
  C  C1298  1  0.093300  0.438600  0.315870  1.0
  C  C1299  1  0.593300  0.561400  0.184130  1.0
  C  C1300  1  0.906700  0.438600  0.184130  1.0
  C  C1301  1  0.593300  0.438600  0.684130  1.0
  C  C1302  1  0.906700  0.561400  0.684130  1.0
  C  C1303  1  0.406700  0.438600  0.815870  1.0
  C  C1304  1  0.093300  0.561400  0.815870  1.0
  C  C1305  1  0.436200  0.541100  0.338550  1.0
  C  C1306  1  0.063800  0.458900  0.338550  1.0
  C  C1307  1  0.563800  0.541100  0.161450  1.0
  C  C1308  1  0.936200  0.458900  0.161450  1.0
  C  C1309  1  0.563800  0.458900  0.661450  1.0
  C  C1310  1  0.936200  0.541100  0.661450  1.0
  C  C1311  1  0.436200  0.458900  0.838550  1.0
  C  C1312  1  0.063800  0.541100  0.838550  1.0
  C  C1313  1  0.850300  0.623070  0.416490  1.0
  C  C1314  1  0.649700  0.376930  0.416490  1.0
  C  C1315  1  0.149700  0.623070  0.083510  1.0
  C  C1316  1  0.350300  0.376930  0.083510  1.0
  C  C1317  1  0.149700  0.376930  0.583510  1.0
  C  C1318  1  0.350300  0.623070  0.583510  1.0
  C  C1319  1  0.850300  0.376930  0.916490  1.0
  C  C1320  1  0.649700  0.623070  0.916490  1.0
  C  C1321  1  0.831840  0.653370  0.390070  1.0
  C  C1322  1  0.668160  0.346630  0.390070  1.0
  C  C1323  1  0.168160  0.653370  0.109930  1.0
  C  C1324  1  0.331840  0.346630  0.109930  1.0
  C  C1325  1  0.168160  0.346630  0.609930  1.0
  C  C1326  1  0.331840  0.653370  0.609930  1.0
  C  C1327  1  0.831840  0.346630  0.890070  1.0
  C  C1328  1  0.668160  0.653370  0.890070  1.0
  C  C1329  1  0.809500  0.638200  0.360730  1.0
  C  C1330  1  0.690500  0.361800  0.360730  1.0
  C  C1331  1  0.190500  0.638200  0.139270  1.0
  C  C1332  1  0.309500  0.361800  0.139270  1.0
  C  C1333  1  0.190500  0.361800  0.639270  1.0
  C  C1334  1  0.309500  0.638200  0.639270  1.0
  C  C1335  1  0.809500  0.361800  0.860730  1.0
  C  C1336  1  0.690500  0.638200  0.860730  1.0
  C  C1337  1  0.790340  0.662720  0.336480  1.0
  C  C1338  1  0.709660  0.337280  0.336480  1.0
  C  C1339  1  0.209660  0.662720  0.163520  1.0
  C  C1340  1  0.290340  0.337280  0.163520  1.0
  C  C1341  1  0.209660  0.337280  0.663520  1.0
  C  C1342  1  0.290340  0.662720  0.663520  1.0
  C  C1343  1  0.790340  0.337280  0.836480  1.0
  C  C1344  1  0.709660  0.662720  0.836480  1.0
  C  C1345  1  0.765300  0.642940  0.307950  1.0
  C  C1346  1  0.734700  0.357060  0.307950  1.0
  C  C1347  1  0.234700  0.642940  0.192050  1.0
  C  C1348  1  0.265300  0.357060  0.192050  1.0
  C  C1349  1  0.234700  0.357060  0.692050  1.0
  C  C1350  1  0.265300  0.642940  0.692050  1.0
  C  C1351  1  0.765300  0.357060  0.807950  1.0
  C  C1352  1  0.734700  0.642940  0.807950  1.0
  C  C1353  1  0.772000  0.602000  0.297070  1.0
  C  C1354  1  0.728000  0.398000  0.297070  1.0
  C  C1355  1  0.228000  0.602000  0.202930  1.0
  C  C1356  1  0.272000  0.398000  0.202930  1.0
  C  C1357  1  0.228000  0.398000  0.702930  1.0
  C  C1358  1  0.272000  0.602000  0.702930  1.0
  C  C1359  1  0.772000  0.398000  0.797070  1.0
  C  C1360  1  0.728000  0.602000  0.797070  1.0
  C  C1361  1  0.746800  0.586100  0.270480  1.0
  C  C1362  1  0.753200  0.413900  0.270480  1.0
  C  C1363  1  0.253200  0.586100  0.229520  1.0
  C  C1364  1  0.246800  0.413900  0.229520  1.0
  C  C1365  1  0.253200  0.413900  0.729520  1.0
  C  C1366  1  0.246800  0.586100  0.729520  1.0
  C  C1367  1  0.746800  0.413900  0.770480  1.0
  C  C1368  1  0.753200  0.586100  0.770480  1.0
  C  C1369  1  0.707200  0.648230  0.265430  1.0
  C  C1370  1  0.792800  0.351770  0.265430  1.0
  C  C1371  1  0.292800  0.648230  0.234570  1.0
  C  C1372  1  0.207200  0.351770  0.234570  1.0
  C  C1373  1  0.292800  0.351770  0.734570  1.0
  C  C1374  1  0.207200  0.648230  0.734570  1.0
  C  C1375  1  0.707200  0.351770  0.765430  1.0
  C  C1376  1  0.792800  0.648230  0.765430  1.0
  C  C1377  1  0.732800  0.666070  0.291010  1.0
  C  C1378  1  0.767200  0.333930  0.291010  1.0
  C  C1379  1  0.267200  0.666070  0.208990  1.0
  C  C1380  1  0.232800  0.333930  0.208990  1.0
  C  C1381  1  0.267200  0.333930  0.708990  1.0
  C  C1382  1  0.232800  0.666070  0.708990  1.0
  C  C1383  1  0.732800  0.333930  0.791010  1.0
  C  C1384  1  0.767200  0.666070  0.791010  1.0
  C  C1385  1  0.841100  0.818000  0.462240  1.0
  C  C1386  1  0.658900  0.182000  0.462240  1.0
  C  C1387  1  0.158900  0.818000  0.037760  1.0
  C  C1388  1  0.341100  0.182000  0.037760  1.0
  C  C1389  1  0.158900  0.182000  0.537760  1.0
  C  C1390  1  0.341100  0.818000  0.537760  1.0
  C  C1391  1  0.841100  0.182000  0.962240  1.0
  C  C1392  1  0.658900  0.818000  0.962240  1.0
  C  C1393  1  0.814950  0.794300  0.436220  1.0
  C  C1394  1  0.685050  0.205700  0.436220  1.0
  C  C1395  1  0.185050  0.794300  0.063780  1.0
  C  C1396  1  0.314950  0.205700  0.063780  1.0
  C  C1397  1  0.185050  0.205700  0.563780  1.0
  C  C1398  1  0.314950  0.794300  0.563780  1.0
  C  C1399  1  0.814950  0.205700  0.936220  1.0
  C  C1400  1  0.685050  0.794300  0.936220  1.0
  C  C1401  1  0.768780  0.789430  0.440360  1.0
  C  C1402  1  0.731220  0.210570  0.440360  1.0
  C  C1403  1  0.231220  0.789430  0.059640  1.0
  C  C1404  1  0.268780  0.210570  0.059640  1.0
  C  C1405  1  0.231220  0.210570  0.559640  1.0
  C  C1406  1  0.268780  0.789430  0.559640  1.0
  C  C1407  1  0.768780  0.210570  0.940360  1.0
  C  C1408  1  0.731220  0.789430  0.940360  1.0
  C  C1409  1  0.742110  0.767080  0.418390  1.0
  C  C1410  1  0.757890  0.232920  0.418390  1.0
  C  C1411  1  0.257890  0.767080  0.081610  1.0
  C  C1412  1  0.242110  0.232920  0.081610  1.0
  C  C1413  1  0.257890  0.232920  0.581610  1.0
  C  C1414  1  0.242110  0.767080  0.581610  1.0
  C  C1415  1  0.742110  0.232920  0.918390  1.0
  C  C1416  1  0.757890  0.767080  0.918390  1.0
  C  C1417  1  0.693530  0.766690  0.423670  1.0
  C  C1418  1  0.806470  0.233310  0.423670  1.0
  C  C1419  1  0.306470  0.766690  0.076330  1.0
  C  C1420  1  0.193530  0.233310  0.076330  1.0
  C  C1421  1  0.306470  0.233310  0.576330  1.0
  C  C1422  1  0.193530  0.766690  0.576330  1.0
  C  C1423  1  0.693530  0.233310  0.923670  1.0
  C  C1424  1  0.806470  0.766690  0.923670  1.0
  C  C1425  1  0.673200  0.775670  0.455110  1.0
  C  C1426  1  0.826800  0.224330  0.455110  1.0
  C  C1427  1  0.326800  0.775670  0.044890  1.0
  C  C1428  1  0.173200  0.224330  0.044890  1.0
  C  C1429  1  0.326800  0.224330  0.544890  1.0
  C  C1430  1  0.173200  0.775670  0.544890  1.0
  C  C1431  1  0.673200  0.224330  0.955110  1.0
  C  C1432  1  0.826800  0.775670  0.955110  1.0
  C  C1433  1  0.627720  0.772930  0.457820  1.0
  C  C1434  1  0.872280  0.227070  0.457820  1.0
  C  C1435  1  0.372280  0.772930  0.042180  1.0
  C  C1436  1  0.127720  0.227070  0.042180  1.0
  C  C1437  1  0.372280  0.227070  0.542180  1.0
  C  C1438  1  0.127720  0.772930  0.542180  1.0
  C  C1439  1  0.627720  0.227070  0.957820  1.0
  C  C1440  1  0.872280  0.772930  0.957820  1.0
  C  C1441  1  0.621000  0.754430  0.400030  1.0
  C  C1442  1  0.879000  0.245570  0.400030  1.0
  C  C1443  1  0.379000  0.754430  0.099970  1.0
  C  C1444  1  0.121000  0.245570  0.099970  1.0
  C  C1445  1  0.379000  0.245570  0.599970  1.0
  C  C1446  1  0.121000  0.754430  0.599970  1.0
  C  C1447  1  0.621000  0.245570  0.900030  1.0
  C  C1448  1  0.879000  0.754430  0.900030  1.0
  C  C1449  1  0.666410  0.755930  0.395910  1.0
  C  C1450  1  0.833590  0.244070  0.395910  1.0
  C  C1451  1  0.333590  0.755930  0.104090  1.0
  C  C1452  1  0.166410  0.244070  0.104090  1.0
  C  C1453  1  0.333590  0.244070  0.604090  1.0
  C  C1454  1  0.166410  0.755930  0.604090  1.0
  C  C1455  1  0.666410  0.244070  0.895910  1.0
  C  C1456  1  0.833590  0.755930  0.895910  1.0
  C  C1457  1  0.924500  0.763100  0.303410  1.0
  C  C1458  1  0.575500  0.236900  0.303410  1.0
  C  C1459  1  0.075500  0.763100  0.196590  1.0
  C  C1460  1  0.424500  0.236900  0.196590  1.0
  C  C1461  1  0.075500  0.236900  0.696590  1.0
  C  C1462  1  0.424500  0.763100  0.696590  1.0
  C  C1463  1  0.924500  0.236900  0.803410  1.0
  C  C1464  1  0.575500  0.763100  0.803410  1.0
  C  C1465  1  0.879900  0.769870  0.318540  1.0
  C  C1466  1  0.620100  0.230130  0.318540  1.0
  C  C1467  1  0.120100  0.769870  0.181460  1.0
  C  C1468  1  0.379900  0.230130  0.181460  1.0
  C  C1469  1  0.120100  0.230130  0.681460  1.0
  C  C1470  1  0.379900  0.769870  0.681460  1.0
  C  C1471  1  0.879900  0.230130  0.818540  1.0
  C  C1472  1  0.620100  0.769870  0.818540  1.0
  C  C1473  1  0.849170  0.795740  0.300600  1.0
  C  C1474  1  0.650830  0.204260  0.300600  1.0
  C  C1475  1  0.150830  0.795740  0.199400  1.0
  C  C1476  1  0.349170  0.204260  0.199400  1.0
  C  C1477  1  0.150830  0.204260  0.699400  1.0
  C  C1478  1  0.349170  0.795740  0.699400  1.0
  C  C1479  1  0.849170  0.204260  0.800600  1.0
  C  C1480  1  0.650830  0.795740  0.800600  1.0
  C  C1481  1  0.807980  0.805670  0.314030  1.0
  C  C1482  1  0.692020  0.194330  0.314030  1.0
  C  C1483  1  0.192020  0.805670  0.185970  1.0
  C  C1484  1  0.307980  0.194330  0.185970  1.0
  C  C1485  1  0.192020  0.194330  0.685970  1.0
  C  C1486  1  0.307980  0.805670  0.685970  1.0
  C  C1487  1  0.807980  0.194330  0.814030  1.0
  C  C1488  1  0.692020  0.805670  0.814030  1.0
  C  C1489  1  0.777830  0.834880  0.294460  1.0
  C  C1490  1  0.722170  0.165120  0.294460  1.0
  C  C1491  1  0.222170  0.834880  0.205540  1.0
  C  C1492  1  0.277830  0.165120  0.205540  1.0
  C  C1493  1  0.222170  0.165120  0.705540  1.0
  C  C1494  1  0.277830  0.834880  0.705540  1.0
  C  C1495  1  0.777830  0.165120  0.794460  1.0
  C  C1496  1  0.722170  0.834880  0.794460  1.0
  C  C1497  1  0.792100  0.866580  0.272780  1.0
  C  C1498  1  0.707900  0.133420  0.272780  1.0
  C  C1499  1  0.207900  0.866580  0.227220  1.0
  C  C1500  1  0.292100  0.133420  0.227220  1.0
  C  C1501  1  0.207900  0.133420  0.727220  1.0
  C  C1502  1  0.292100  0.866580  0.727220  1.0
  C  C1503  1  0.792100  0.133420  0.772780  1.0
  C  C1504  1  0.707900  0.866580  0.772780  1.0
  C  C1505  1  0.761600  0.892750  0.256830  1.0
  C  C1506  1  0.738400  0.107250  0.256830  1.0
  C  C1507  1  0.238400  0.892750  0.243170  1.0
  C  C1508  1  0.261600  0.107250  0.243170  1.0
  C  C1509  1  0.238400  0.107250  0.743170  1.0
  C  C1510  1  0.261600  0.892750  0.743170  1.0
  C  C1511  1  0.761600  0.107250  0.756830  1.0
  C  C1512  1  0.738400  0.892750  0.756830  1.0
  C  C1513  1  0.704500  0.858100  0.282510  1.0
  C  C1514  1  0.795500  0.141900  0.282510  1.0
  C  C1515  1  0.295500  0.858100  0.217490  1.0
  C  C1516  1  0.204500  0.141900  0.217490  1.0
  C  C1517  1  0.295500  0.141900  0.717490  1.0
  C  C1518  1  0.204500  0.858100  0.717490  1.0
  C  C1519  1  0.704500  0.141900  0.782510  1.0
  C  C1520  1  0.795500  0.858100  0.782510  1.0
  C  C1521  1  0.733030  0.830490  0.298790  1.0
  C  C1522  1  0.766970  0.169510  0.298790  1.0
  C  C1523  1  0.266970  0.830490  0.201210  1.0
  C  C1524  1  0.233030  0.169510  0.201210  1.0
  C  C1525  1  0.266970  0.169510  0.701210  1.0
  C  C1526  1  0.233030  0.830490  0.701210  1.0
  C  C1527  1  0.733030  0.169510  0.798790  1.0
  C  C1528  1  0.766970  0.830490  0.798790  1.0
  C  C1529  1  0.879300  0.755000  0.100700  1.0
  C  C1530  1  0.620700  0.245000  0.100700  1.0
  C  C1531  1  0.120700  0.755000  0.399300  1.0
  C  C1532  1  0.379300  0.245000  0.399300  1.0
  C  C1533  1  0.120700  0.245000  0.899300  1.0
  C  C1534  1  0.379300  0.755000  0.899300  1.0
  C  C1535  1  0.879300  0.245000  0.600700  1.0
  C  C1536  1  0.620700  0.755000  0.600700  1.0
  C  C1537  1  0.833500  0.745100  0.094390  1.0
  C  C1538  1  0.666500  0.254900  0.094390  1.0
  C  C1539  1  0.166500  0.745100  0.405610  1.0
  C  C1540  1  0.333500  0.254900  0.405610  1.0
  C  C1541  1  0.166500  0.254900  0.905610  1.0
  C  C1542  1  0.333500  0.745100  0.905610  1.0
  C  C1543  1  0.833500  0.254900  0.594390  1.0
  C  C1544  1  0.666500  0.745100  0.594390  1.0
  C  C1545  1  0.809900  0.717700  0.116530  1.0
  C  C1546  1  0.690100  0.282300  0.116530  1.0
  C  C1547  1  0.190100  0.717700  0.383470  1.0
  C  C1548  1  0.309900  0.282300  0.383470  1.0
  C  C1549  1  0.190100  0.282300  0.883470  1.0
  C  C1550  1  0.309900  0.717700  0.883470  1.0
  C  C1551  1  0.809900  0.282300  0.616530  1.0
  C  C1552  1  0.690100  0.717700  0.616530  1.0
  C  C1553  1  0.767520  0.705650  0.112180  1.0
  C  C1554  1  0.732480  0.294350  0.112180  1.0
  C  C1555  1  0.232480  0.705650  0.387820  1.0
  C  C1556  1  0.267520  0.294350  0.387820  1.0
  C  C1557  1  0.232480  0.294350  0.887820  1.0
  C  C1558  1  0.267520  0.705650  0.887820  1.0
  C  C1559  1  0.767520  0.294350  0.612180  1.0
  C  C1560  1  0.732480  0.705650  0.612180  1.0
  C  C1561  1  0.745800  0.675000  0.136960  1.0
  C  C1562  1  0.754200  0.325000  0.136960  1.0
  C  C1563  1  0.254200  0.675000  0.363040  1.0
  C  C1564  1  0.245800  0.325000  0.363040  1.0
  C  C1565  1  0.254200  0.325000  0.863040  1.0
  C  C1566  1  0.245800  0.675000  0.863040  1.0
  C  C1567  1  0.745800  0.325000  0.636960  1.0
  C  C1568  1  0.754200  0.675000  0.636960  1.0
  C  C1569  1  0.770500  0.645300  0.153900  1.0
  C  C1570  1  0.729500  0.354700  0.153900  1.0
  C  C1571  1  0.229500  0.645300  0.346100  1.0
  C  C1572  1  0.270500  0.354700  0.346100  1.0
  C  C1573  1  0.229500  0.354700  0.846100  1.0
  C  C1574  1  0.270500  0.645300  0.846100  1.0
  C  C1575  1  0.770500  0.354700  0.653900  1.0
  C  C1576  1  0.729500  0.645300  0.653900  1.0
  C  C1577  1  0.748300  0.615800  0.176400  1.0
  C  C1578  1  0.751700  0.384200  0.176400  1.0
  C  C1579  1  0.251700  0.615800  0.323600  1.0
  C  C1580  1  0.248300  0.384200  0.323600  1.0
  C  C1581  1  0.251700  0.384200  0.823600  1.0
  C  C1582  1  0.248300  0.615800  0.823600  1.0
  C  C1583  1  0.748300  0.384200  0.676400  1.0
  C  C1584  1  0.751700  0.615800  0.676400  1.0
  C  C1585  1  0.683000  0.650800  0.167440  1.0
  C  C1586  1  0.817000  0.349200  0.167440  1.0
  C  C1587  1  0.317000  0.650800  0.332560  1.0
  C  C1588  1  0.183000  0.349200  0.332560  1.0
  C  C1589  1  0.317000  0.349200  0.832560  1.0
  C  C1590  1  0.183000  0.650800  0.832560  1.0
  C  C1591  1  0.683000  0.349200  0.667440  1.0
  C  C1592  1  0.817000  0.650800  0.667440  1.0
  C  C1593  1  0.701500  0.679300  0.144110  1.0
  C  C1594  1  0.798500  0.320700  0.144110  1.0
  C  C1595  1  0.298500  0.679300  0.355890  1.0
  C  C1596  1  0.201500  0.320700  0.355890  1.0
  C  C1597  1  0.298500  0.320700  0.855890  1.0
  C  C1598  1  0.201500  0.679300  0.855890  1.0
  C  C1599  1  0.701500  0.320700  0.644110  1.0
  C  C1600  1  0.798500  0.679300  0.644110  1.0
  C  C1601  1  0.757800  0.889800  0.002830  1.0
  C  C1602  1  0.742200  0.110200  0.002830  1.0
  C  C1603  1  0.242200  0.889800  0.497170  1.0
  C  C1604  1  0.257800  0.110200  0.497170  1.0
  C  C1605  1  0.242200  0.110200  0.997170  1.0
  C  C1606  1  0.257800  0.889800  0.997170  1.0
  C  C1607  1  0.757800  0.110200  0.502830  1.0
  C  C1608  1  0.742200  0.889800  0.502830  1.0
  C  C1609  1  0.754500  0.859500  0.033070  1.0
  C  C1610  1  0.745500  0.140500  0.033070  1.0
  C  C1611  1  0.245500  0.859500  0.466930  1.0
  C  C1612  1  0.254500  0.140500  0.466930  1.0
  C  C1613  1  0.245500  0.140500  0.966930  1.0
  C  C1614  1  0.254500  0.859500  0.966930  1.0
  C  C1615  1  0.754500  0.140500  0.533070  1.0
  C  C1616  1  0.745500  0.859500  0.533070  1.0
  C  C1617  1  0.739500  0.874300  0.065020  1.0
  C  C1618  1  0.760500  0.125700  0.065020  1.0
  C  C1619  1  0.260500  0.874300  0.434980  1.0
  C  C1620  1  0.239500  0.125700  0.434980  1.0
  C  C1621  1  0.260500  0.125700  0.934980  1.0
  C  C1622  1  0.239500  0.874300  0.934980  1.0
  C  C1623  1  0.739500  0.125700  0.565020  1.0
  C  C1624  1  0.760500  0.874300  0.565020  1.0
  C  C1625  1  0.736000  0.849550  0.094310  1.0
  C  C1626  1  0.764000  0.150450  0.094310  1.0
  C  C1627  1  0.264000  0.849550  0.405690  1.0
  C  C1628  1  0.236000  0.150450  0.405690  1.0
  C  C1629  1  0.264000  0.150450  0.905690  1.0
  C  C1630  1  0.236000  0.849550  0.905690  1.0
  C  C1631  1  0.736000  0.150450  0.594310  1.0
  C  C1632  1  0.764000  0.849550  0.594310  1.0
  C  C1633  1  0.721900  0.868660  0.127650  1.0
  C  C1634  1  0.778100  0.131340  0.127650  1.0
  C  C1635  1  0.278100  0.868660  0.372350  1.0
  C  C1636  1  0.221900  0.131340  0.372350  1.0
  C  C1637  1  0.278100  0.131340  0.872350  1.0
  C  C1638  1  0.221900  0.868660  0.872350  1.0
  C  C1639  1  0.721900  0.131340  0.627650  1.0
  C  C1640  1  0.778100  0.868660  0.627650  1.0
  C  C1641  1  0.726300  0.911720  0.135020  1.0
  C  C1642  1  0.773700  0.088280  0.135020  1.0
  C  C1643  1  0.273700  0.911720  0.364980  1.0
  C  C1644  1  0.226300  0.088280  0.364980  1.0
  C  C1645  1  0.273700  0.088280  0.864980  1.0
  C  C1646  1  0.226300  0.911720  0.864980  1.0
  C  C1647  1  0.726300  0.088280  0.635020  1.0
  C  C1648  1  0.773700  0.911720  0.635020  1.0
  C  C1649  1  0.714400  0.927100  0.166980  1.0
  C  C1650  1  0.785600  0.072900  0.166980  1.0
  C  C1651  1  0.285600  0.927100  0.333020  1.0
  C  C1652  1  0.214400  0.072900  0.333020  1.0
  C  C1653  1  0.285600  0.072900  0.833020  1.0
  C  C1654  1  0.214400  0.927100  0.833020  1.0
  C  C1655  1  0.714400  0.072900  0.666980  1.0
  C  C1656  1  0.785600  0.927100  0.666980  1.0
  C  C1657  1  0.688400  0.860240  0.183670  1.0
  C  C1658  1  0.811600  0.139760  0.183670  1.0
  C  C1659  1  0.311600  0.860240  0.316330  1.0
  C  C1660  1  0.188400  0.139760  0.316330  1.0
  C  C1661  1  0.311600  0.139760  0.816330  1.0
  C  C1662  1  0.188400  0.860240  0.816330  1.0
  C  C1663  1  0.688400  0.139760  0.683670  1.0
  C  C1664  1  0.811600  0.860240  0.683670  1.0
  C  C1665  1  0.702500  0.842790  0.152190  1.0
  C  C1666  1  0.797500  0.157210  0.152190  1.0
  C  C1667  1  0.297500  0.842790  0.347810  1.0
  C  C1668  1  0.202500  0.157210  0.347810  1.0
  C  C1669  1  0.297500  0.157210  0.847810  1.0
  C  C1670  1  0.202500  0.842790  0.847810  1.0
  C  C1671  1  0.702500  0.157210  0.652190  1.0
  C  C1672  1  0.797500  0.842790  0.652190  1.0
  C  C1673  1  0.743200  0.680040  0.972010  1.0
  C  C1674  1  0.756800  0.319960  0.972010  1.0
  C  C1675  1  0.256800  0.680040  0.527990  1.0
  C  C1676  1  0.243200  0.319960  0.527990  1.0
  C  C1677  1  0.256800  0.319960  0.027990  1.0
  C  C1678  1  0.243200  0.680040  0.027990  1.0
  C  C1679  1  0.743200  0.319960  0.472010  1.0
  C  C1680  1  0.756800  0.680040  0.472010  1.0
  C  C1681  1  0.727570  0.710900  0.999640  1.0
  C  C1682  1  0.772430  0.289100  0.999640  1.0
  C  C1683  1  0.272430  0.710900  0.500360  1.0
  C  C1684  1  0.227570  0.289100  0.500360  1.0
  C  C1685  1  0.272430  0.289100  0.000360  1.0
  C  C1686  1  0.227570  0.710900  0.000360  1.0
  C  C1687  1  0.727570  0.289100  0.499640  1.0
  C  C1688  1  0.772430  0.710900  0.499640  1.0
  C  C1689  1  0.682530  0.713550  0.007530  1.0
  C  C1690  1  0.817470  0.286450  0.007530  1.0
  C  C1691  1  0.317470  0.713550  0.492470  1.0
  C  C1692  1  0.182530  0.286450  0.492470  1.0
  C  C1693  1  0.317470  0.286450  0.992470  1.0
  C  C1694  1  0.182530  0.713550  0.992470  1.0
  C  C1695  1  0.682530  0.286450  0.507530  1.0
  C  C1696  1  0.817470  0.713550  0.507530  1.0
  C  C1697  1  0.665970  0.741420  0.031010  1.0
  C  C1698  1  0.834030  0.258580  0.031010  1.0
  C  C1699  1  0.334030  0.741420  0.468990  1.0
  C  C1700  1  0.165970  0.258580  0.468990  1.0
  C  C1701  1  0.334030  0.258580  0.968990  1.0
  C  C1702  1  0.165970  0.741420  0.968990  1.0
  C  C1703  1  0.665970  0.258580  0.531010  1.0
  C  C1704  1  0.834030  0.741420  0.531010  1.0
  C  C1705  1  0.616910  0.741820  0.039040  1.0
  C  C1706  1  0.883090  0.258180  0.039040  1.0
  C  C1707  1  0.383090  0.741820  0.460960  1.0
  C  C1708  1  0.116910  0.258180  0.460960  1.0
  C  C1709  1  0.383090  0.258180  0.960960  1.0
  C  C1710  1  0.116910  0.741820  0.960960  1.0
  C  C1711  1  0.616910  0.258180  0.539040  1.0
  C  C1712  1  0.883090  0.741820  0.539040  1.0
  C  C1713  1  0.585300  0.731500  0.014280  1.0
  C  C1714  1  0.914700  0.268500  0.014280  1.0
  C  C1715  1  0.414700  0.731500  0.485720  1.0
  C  C1716  1  0.085300  0.268500  0.485720  1.0
  C  C1717  1  0.414700  0.268500  0.985720  1.0
  C  C1718  1  0.085300  0.731500  0.985720  1.0
  C  C1719  1  0.585300  0.268500  0.514280  1.0
  C  C1720  1  0.914700  0.731500  0.514280  1.0
  C  C1721  1  0.542100  0.733500  0.022700  1.0
  C  C1722  1  0.957900  0.266500  0.022700  1.0
  C  C1723  1  0.457900  0.733500  0.477300  1.0
  C  C1724  1  0.042100  0.266500  0.477300  1.0
  C  C1725  1  0.457900  0.266500  0.977300  1.0
  C  C1726  1  0.042100  0.733500  0.977300  1.0
  C  C1727  1  0.542100  0.266500  0.522700  1.0
  C  C1728  1  0.957900  0.733500  0.522700  1.0
  C  C1729  1  0.558310  0.754480  0.077820  1.0
  C  C1730  1  0.941690  0.245520  0.077820  1.0
  C  C1731  1  0.441690  0.754480  0.422180  1.0
  C  C1732  1  0.058310  0.245520  0.422180  1.0
  C  C1733  1  0.441690  0.245520  0.922180  1.0
  C  C1734  1  0.058310  0.754480  0.922180  1.0
  C  C1735  1  0.558310  0.245520  0.577820  1.0
  C  C1736  1  0.941690  0.754480  0.577820  1.0
  C  C1737  1  0.601230  0.753410  0.071260  1.0
  C  C1738  1  0.898770  0.246590  0.071260  1.0
  C  C1739  1  0.398770  0.753410  0.428740  1.0
  C  C1740  1  0.101230  0.246590  0.428740  1.0
  C  C1741  1  0.398770  0.246590  0.928740  1.0
  C  C1742  1  0.101230  0.753410  0.928740  1.0
  C  C1743  1  0.601230  0.246590  0.571260  1.0
  C  C1744  1  0.898770  0.753410  0.571260  1.0
  N  N1745  1  0.527660  0.745710  0.053900  1.0
  N  N1746  1  0.972340  0.254290  0.053900  1.0
  N  N1747  1  0.472340  0.745710  0.446100  1.0
  N  N1748  1  0.027660  0.254290  0.446100  1.0
  N  N1749  1  0.472340  0.254290  0.946100  1.0
  N  N1750  1  0.027660  0.745710  0.946100  1.0
  N  N1751  1  0.527660  0.254290  0.553900  1.0
  N  N1752  1  0.972340  0.745710  0.553900  1.0
  N  N1753  1  0.547710  0.690010  0.435560  1.0
  N  N1754  1  0.952290  0.309990  0.435560  1.0
  N  N1755  1  0.452290  0.690010  0.064440  1.0
  N  N1756  1  0.047710  0.309990  0.064440  1.0
  N  N1757  1  0.452290  0.309990  0.564440  1.0
  N  N1758  1  0.047710  0.690010  0.564440  1.0
  N  N1759  1  0.547710  0.309990  0.935560  1.0
  N  N1760  1  0.952290  0.690010  0.935560  1.0
  N  N1761  1  0.718470  0.888260  0.261340  1.0
  N  N1762  1  0.781530  0.111740  0.261340  1.0
  N  N1763  1  0.281530  0.888260  0.238660  1.0
  N  N1764  1  0.218470  0.111740  0.238660  1.0
  N  N1765  1  0.281530  0.111740  0.738660  1.0
  N  N1766  1  0.218470  0.888260  0.738660  1.0
  N  N1767  1  0.718470  0.111740  0.761340  1.0
  N  N1768  1  0.781530  0.888260  0.761340  1.0
  N  N1769  1  0.647640  0.544450  0.254870  1.0
  N  N1770  1  0.852360  0.455550  0.254870  1.0
  N  N1771  1  0.352360  0.544450  0.245130  1.0
  N  N1772  1  0.147640  0.455550  0.245130  1.0
  N  N1773  1  0.352360  0.455550  0.745130  1.0
  N  N1774  1  0.147640  0.544450  0.745130  1.0
  N  N1775  1  0.647640  0.455550  0.754870  1.0
  N  N1776  1  0.852360  0.544450  0.754870  1.0
  N  N1777  1  0.715520  0.607770  0.255210  1.0
  N  N1778  1  0.784480  0.392230  0.255210  1.0
  N  N1779  1  0.284480  0.607770  0.244790  1.0
  N  N1780  1  0.215520  0.392230  0.244790  1.0
  N  N1781  1  0.284480  0.392230  0.744790  1.0
  N  N1782  1  0.215520  0.607770  0.744790  1.0
  N  N1783  1  0.715520  0.392230  0.755210  1.0
  N  N1784  1  0.784480  0.607770  0.755210  1.0
  N  N1785  1  0.602790  0.762400  0.430610  1.0
  N  N1786  1  0.897210  0.237600  0.430610  1.0
  N  N1787  1  0.397210  0.762400  0.069390  1.0
  N  N1788  1  0.102790  0.237600  0.069390  1.0
  N  N1789  1  0.397210  0.237600  0.569390  1.0
  N  N1790  1  0.102790  0.762400  0.569390  1.0
  N  N1791  1  0.602790  0.237600  0.930610  1.0
  N  N1792  1  0.897210  0.762400  0.930610  1.0
  N  N1793  1  0.695350  0.902220  0.190480  1.0
  N  N1794  1  0.804650  0.097780  0.190480  1.0
  N  N1795  1  0.304650  0.902220  0.309520  1.0
  N  N1796  1  0.195350  0.097780  0.309520  1.0
  N  N1797  1  0.304650  0.097780  0.809520  1.0
  N  N1798  1  0.195350  0.902220  0.809520  1.0
  N  N1799  1  0.695350  0.097780  0.690480  1.0
  N  N1800  1  0.804650  0.902220  0.690480  1.0
  N  N1801  1  0.364040  0.555080  0.317740  1.0
  N  N1802  1  0.135960  0.444920  0.317740  1.0
  N  N1803  1  0.635960  0.555080  0.182260  1.0
  N  N1804  1  0.864040  0.444920  0.182260  1.0
  N  N1805  1  0.635960  0.444920  0.682260  1.0
  N  N1806  1  0.864040  0.555080  0.682260  1.0
  N  N1807  1  0.364040  0.444920  0.817740  1.0
  N  N1808  1  0.135960  0.555080  0.817740  1.0
  N  N1809  1  0.704580  0.620450  0.182840  1.0
  N  N1810  1  0.795420  0.379550  0.182840  1.0
  N  N1811  1  0.295420  0.620450  0.317160  1.0
  N  N1812  1  0.204580  0.379550  0.317160  1.0
  N  N1813  1  0.295420  0.379550  0.817160  1.0
  N  N1814  1  0.204580  0.620450  0.817160  1.0
  N  N1815  1  0.704580  0.379550  0.682840  1.0
  N  N1816  1  0.795420  0.620450  0.682840  1.0
  N  N1817  1  0.527790  0.817580  0.439530  1.0
  N  N1818  1  0.972210  0.182420  0.439530  1.0
  N  N1819  1  0.472210  0.817580  0.060470  1.0
  N  N1820  1  0.027790  0.182420  0.060470  1.0
  N  N1821  1  0.472210  0.182420  0.560470  1.0
  N  N1822  1  0.027790  0.817580  0.560470  1.0
  N  N1823  1  0.527790  0.182420  0.939530  1.0
  N  N1824  1  0.972210  0.817580  0.939530  1.0
  N  N1825  1  0.368840  0.963620  0.289580  1.0
  N  N1826  1  0.131160  0.036380  0.289580  1.0
  N  N1827  1  0.631160  0.963620  0.210420  1.0
  N  N1828  1  0.868840  0.036380  0.210420  1.0
  N  N1829  1  0.631160  0.036380  0.710420  1.0
  N  N1830  1  0.868840  0.963620  0.710420  1.0
  N  N1831  1  0.368840  0.036380  0.789580  1.0
  N  N1832  1  0.131160  0.963620  0.789580  1.0
  N  N1833  1  0.653750  0.951710  0.281780  1.0
  N  N1834  1  0.846250  0.048290  0.281780  1.0
  N  N1835  1  0.346250  0.951710  0.218220  1.0
  N  N1836  1  0.153750  0.048290  0.218220  1.0
  N  N1837  1  0.346250  0.048290  0.718220  1.0
  N  N1838  1  0.153750  0.951710  0.718220  1.0
  N  N1839  1  0.653750  0.048290  0.781780  1.0
  N  N1840  1  0.846250  0.951710  0.781780  1.0
  Cl  Cl1841  1  0.553640  0.748970  0.524090  1
  Cl  Cl1842  1  0.946360  0.251030  0.524090  1
  Cl  Cl1843  1  0.446360  0.748970  0.975910  1
  Cl  Cl1844  1  0.053640  0.251030  0.975910  1
  Cl  Cl1845  1  0.446360  0.251030  0.475910  1
  Cl  Cl1846  1  0.053640  0.748970  0.475910  1
  Cl  Cl1847  1  0.553640  0.251030  0.024090  1
  Cl  Cl1848  1  0.946360  0.748970  0.024090  1
  Cl  Cl1849  1  0.750000  0.500000  0.206110  1
  Cl  Cl1850  1  0.250000  0.500000  0.293890  1
  Cl  Cl1851  1  0.250000  0.500000  0.793890  1
  Cl  Cl1852  1  0.750000  0.500000  0.706110  1
  Cl  Cl1853  1  0.750000  0.000000  0.230810  1
  Cl  Cl1854  1  0.250000  0.000000  0.269190  1
  Cl  Cl1855  1  0.250000  0.000000  0.769190  1
  Cl  Cl1856  1  0.750000  0.000000  0.730810  1
  O  O1857  1  0.596320  0.658140  0.234380  1
  O  O1858  1  0.903680  0.341860  0.234380  1
  O  O1859  1  0.403680  0.658140  0.265620  1
  O  O1860  1  0.096320  0.341860  0.265620  1
  O  O1861  1  0.403680  0.341860  0.765620  1
  O  O1862  1  0.096320  0.658140  0.765620  1
  O  O1863  1  0.596320  0.341860  0.734380  1
  O  O1864  1  0.903680  0.658140  0.734380  1
  O  O1865  1  0.594840  0.847550  0.240830  1
  O  O1866  1  0.905160  0.152450  0.240830  1
  O  O1867  1  0.405160  0.847550  0.259170  1
  O  O1868  1  0.094840  0.152450  0.259170  1
  O  O1869  1  0.405160  0.152450  0.759170  1
  O  O1870  1  0.094840  0.847550  0.759170  1
  O  O1871  1  0.594840  0.152450  0.740830  1
  O  O1872  1  0.905160  0.847550  0.740830  1
  O  O1873  1  0.519270  0.753970  0.351370  1
  O  O1874  1  0.980730  0.246030  0.351370  1
  O  O1875  1  0.480730  0.753970  0.148630  1
  O  O1876  1  0.019270  0.246030  0.148630  1
  O  O1877  1  0.480730  0.246030  0.648630  1
  O  O1878  1  0.019270  0.753970  0.648630  1
  O  O1879  1  0.519270  0.246030  0.851370  1
  O  O1880  1  0.980730  0.753970  0.851370  1
  O  O1881  1  0.481680  0.041050  0.449510  1.0
  O  O1882  1  0.018320  0.958950  0.449510  1.0
  O  O1883  1  0.518320  0.041050  0.050490  1.0
  O  O1884  1  0.981680  0.958950  0.050490  1.0
  O  O1885  1  0.518320  0.958950  0.550490  1.0
  O  O1886  1  0.981680  0.041050  0.550490  1.0
  O  O1887  1  0.481680  0.958950  0.949510  1.0
  O  O1888  1  0.018320  0.041050  0.949510  1.0
  O  O1889  1  0.527570  0.973070  0.421920  1.0
  O  O1890  1  0.972430  0.026930  0.421920  1.0
  O  O1891  1  0.472430  0.973070  0.078080  1.0
  O  O1892  1  0.027570  0.026930  0.078080  1.0
  O  O1893  1  0.472430  0.026930  0.578080  1.0
  O  O1894  1  0.027570  0.973070  0.578080  1.0
  O  O1895  1  0.527570  0.026930  0.921920  1.0
  O  O1896  1  0.972430  0.973070  0.921920  1.0
  O  O1897  1  0.508750  0.094030  0.394250  1.0
  O  O1898  1  0.991250  0.905970  0.394250  1.0
  O  O1899  1  0.491250  0.094030  0.105750  1.0
  O  O1900  1  0.008750  0.905970  0.105750  1.0
  O  O1901  1  0.491250  0.905970  0.605750  1.0
  O  O1902  1  0.008750  0.094030  0.605750  1.0
  O  O1903  1  0.508750  0.905970  0.894250  1.0
  O  O1904  1  0.991250  0.094030  0.894250  1.0
  O  O1905  1  0.472250  0.017570  0.376940  1.0
  O  O1906  1  0.027750  0.982430  0.376940  1.0
  O  O1907  1  0.527750  0.017570  0.123060  1.0
  O  O1908  1  0.972250  0.982430  0.123060  1.0
  O  O1909  1  0.527750  0.982430  0.623060  1.0
  O  O1910  1  0.972250  0.017570  0.623060  1.0
  O  O1911  1  0.472250  0.982430  0.876940  1.0
  O  O1912  1  0.027750  0.017570  0.876940  1.0
  O  O1913  1  0.574030  0.052740  0.435050  1.0
  O  O1914  1  0.925970  0.947260  0.435050  1.0
  O  O1915  1  0.425970  0.052740  0.064950  1.0
  O  O1916  1  0.074030  0.947260  0.064950  1.0
  O  O1917  1  0.425970  0.947260  0.564950  1.0
  O  O1918  1  0.074030  0.052740  0.564950  1.0
  O  O1919  1  0.574030  0.947260  0.935050  1.0
  O  O1920  1  0.925970  0.052740  0.935050  1.0
  O  O1921  1  0.562390  0.021280  0.369740  1.0
  O  O1922  1  0.937610  0.978720  0.369740  1.0
  O  O1923  1  0.437610  0.021280  0.130260  1.0
  O  O1924  1  0.062390  0.978720  0.130260  1.0
  O  O1925  1  0.437610  0.978720  0.630260  1.0
  O  O1926  1  0.062390  0.021280  0.630260  1.0
  O  O1927  1  0.562390  0.978720  0.869740  1.0
  O  O1928  1  0.937610  0.021280  0.869740  1.0
  O  O1929  1  0.594940  0.467260  0.433040  1.0
  O  O1930  1  0.905060  0.532740  0.433040  1.0
  O  O1931  1  0.405060  0.467260  0.066960  1.0
  O  O1932  1  0.094940  0.532740  0.066960  1.0
  O  O1933  1  0.405060  0.532740  0.566960  1.0
  O  O1934  1  0.094940  0.467260  0.566960  1.0
  O  O1935  1  0.594940  0.532740  0.933040  1.0
  O  O1936  1  0.905060  0.467260  0.933040  1.0
  O  O1937  1  0.542510  0.534930  0.415810  1.0
  O  O1938  1  0.957490  0.465070  0.415810  1.0
  O  O1939  1  0.457490  0.534930  0.084190  1.0
  O  O1940  1  0.042510  0.465070  0.084190  1.0
  O  O1941  1  0.457490  0.465070  0.584190  1.0
  O  O1942  1  0.042510  0.534930  0.584190  1.0
  O  O1943  1  0.542510  0.465070  0.915810  1.0
  O  O1944  1  0.957490  0.534930  0.915810  1.0
  O  O1945  1  0.549510  0.413250  0.385370  1.0
  O  O1946  1  0.950490  0.586750  0.385370  1.0
  O  O1947  1  0.450490  0.413250  0.114630  1.0
  O  O1948  1  0.049510  0.586750  0.114630  1.0
  O  O1949  1  0.450490  0.586750  0.614630  1.0
  O  O1950  1  0.049510  0.413250  0.614630  1.0
  O  O1951  1  0.549510  0.586750  0.885370  1.0
  O  O1952  1  0.950490  0.413250  0.885370  1.0
  O  O1953  1  0.579180  0.490340  0.360860  1.0
  O  O1954  1  0.920820  0.509660  0.360860  1.0
  O  O1955  1  0.420820  0.490340  0.139140  1.0
  O  O1956  1  0.079180  0.509660  0.139140  1.0
  O  O1957  1  0.420820  0.509660  0.639140  1.0
  O  O1958  1  0.079180  0.490340  0.639140  1.0
  O  O1959  1  0.579180  0.509660  0.860860  1.0
  O  O1960  1  0.920820  0.490340  0.860860  1.0
  O  O1961  1  0.504760  0.453750  0.440020  1.0
  O  O1962  1  0.995240  0.546250  0.440020  1.0
  O  O1963  1  0.495240  0.453750  0.059980  1.0
  O  O1964  1  0.004760  0.546250  0.059980  1.0
  O  O1965  1  0.495240  0.546250  0.559980  1.0
  O  O1966  1  0.004760  0.453750  0.559980  1.0
  O  O1967  1  0.504760  0.546250  0.940020  1.0
  O  O1968  1  0.995240  0.453750  0.940020  1.0
  O  O1969  1  0.489240  0.486520  0.375170  1.0
  O  O1970  1  0.010760  0.513480  0.375170  1.0
  O  O1971  1  0.510760  0.486520  0.124830  1.0
  O  O1972  1  0.989240  0.513480  0.124830  1.0
  O  O1973  1  0.510760  0.513480  0.624830  1.0
  O  O1974  1  0.989240  0.486520  0.624830  1.0
  O  O1975  1  0.489240  0.513480  0.875170  1.0
  O  O1976  1  0.010760  0.486520  0.875170  1.0
  O  O1977  1  0.837640  0.692440  0.396410  1.0
  O  O1978  1  0.662360  0.307560  0.396410  1.0
  O  O1979  1  0.162360  0.692440  0.103590  1.0
  O  O1980  1  0.337640  0.307560  0.103590  1.0
  O  O1981  1  0.162360  0.307560  0.603590  1.0
  O  O1982  1  0.337640  0.692440  0.603590  1.0
  O  O1983  1  0.837640  0.307560  0.896410  1.0
  O  O1984  1  0.662360  0.692440  0.896410  1.0
  O  O1985  1  0.790920  0.703310  0.335780  1.0
  O  O1986  1  0.709080  0.296690  0.335780  1.0
  O  O1987  1  0.209080  0.703310  0.164220  1.0
  O  O1988  1  0.290920  0.296690  0.164220  1.0
  O  O1989  1  0.209080  0.296690  0.664220  1.0
  O  O1990  1  0.290920  0.703310  0.664220  1.0
  O  O1991  1  0.790920  0.296690  0.835780  1.0
  O  O1992  1  0.709080  0.703310  0.835780  1.0
  O  O1993  1  0.836170  0.778160  0.411560  1.0
  O  O1994  1  0.663830  0.221840  0.411560  1.0
  O  O1995  1  0.163830  0.778160  0.088440  1.0
  O  O1996  1  0.336170  0.221840  0.088440  1.0
  O  O1997  1  0.163830  0.221840  0.588440  1.0
  O  O1998  1  0.336170  0.778160  0.588440  1.0
  O  O1999  1  0.836170  0.221840  0.911560  1.0
  O  O2000  1  0.663830  0.778160  0.911560  1.0
  O  O2001  1  0.755440  0.744360  0.393270  1.0
  O  O2002  1  0.744560  0.255640  0.393270  1.0
  O  O2003  1  0.244560  0.744360  0.106730  1.0
  O  O2004  1  0.255440  0.255640  0.106730  1.0
  O  O2005  1  0.244560  0.255640  0.606730  1.0
  O  O2006  1  0.255440  0.744360  0.606730  1.0
  O  O2007  1  0.755440  0.255640  0.893270  1.0
  O  O2008  1  0.744560  0.744360  0.893270  1.0
  O  O2009  1  0.872100  0.751740  0.346980  1.0
  O  O2010  1  0.627900  0.248260  0.346980  1.0
  O  O2011  1  0.127900  0.751740  0.153020  1.0
  O  O2012  1  0.372100  0.248260  0.153020  1.0
  O  O2013  1  0.127900  0.248260  0.653020  1.0
  O  O2014  1  0.372100  0.751740  0.653020  1.0
  O  O2015  1  0.872100  0.248260  0.846980  1.0
  O  O2016  1  0.627900  0.751740  0.846980  1.0
  O  O2017  1  0.792680  0.792390  0.342550  1.0
  O  O2018  1  0.707320  0.207610  0.342550  1.0
  O  O2019  1  0.207320  0.792390  0.157450  1.0
  O  O2020  1  0.292680  0.207610  0.157450  1.0
  O  O2021  1  0.207320  0.207610  0.657450  1.0
  O  O2022  1  0.292680  0.792390  0.657450  1.0
  O  O2023  1  0.792680  0.207610  0.842550  1.0
  O  O2024  1  0.707320  0.792390  0.842550  1.0
  O  O2025  1  0.815860  0.763040  0.068160  1.0
  O  O2026  1  0.684140  0.236960  0.068160  1.0
  O  O2027  1  0.184140  0.763040  0.431840  1.0
  O  O2028  1  0.315860  0.236960  0.431840  1.0
  O  O2029  1  0.184140  0.236960  0.931840  1.0
  O  O2030  1  0.315860  0.763040  0.931840  1.0
  O  O2031  1  0.815860  0.236960  0.568160  1.0
  O  O2032  1  0.684140  0.763040  0.568160  1.0
  O  O2033  1  0.740900  0.719810  0.088690  1.0
  O  O2034  1  0.759100  0.280190  0.088690  1.0
  O  O2035  1  0.259100  0.719810  0.411310  1.0
  O  O2036  1  0.240900  0.280190  0.411310  1.0
  O  O2037  1  0.259100  0.280190  0.911310  1.0
  O  O2038  1  0.240900  0.719810  0.911310  1.0
  O  O2039  1  0.740900  0.280190  0.588690  1.0
  O  O2040  1  0.759100  0.719810  0.588690  1.0
  O  O2041  1  0.763110  0.820160  0.026990  1.0
  O  O2042  1  0.736890  0.179840  0.026990  1.0
  O  O2043  1  0.236890  0.820160  0.473010  1.0
  O  O2044  1  0.263110  0.179840  0.473010  1.0
  O  O2045  1  0.236890  0.179840  0.973010  1.0
  O  O2046  1  0.263110  0.820160  0.973010  1.0
  O  O2047  1  0.763110  0.179840  0.526990  1.0
  O  O2048  1  0.736890  0.820160  0.526990  1.0
  O  O2049  1  0.742230  0.808930  0.095490  1.0
  O  O2050  1  0.757770  0.191070  0.095490  1.0
  O  O2051  1  0.257770  0.808930  0.404510  1.0
  O  O2052  1  0.242230  0.191070  0.404510  1.0
  O  O2053  1  0.257770  0.191070  0.904510  1.0
  O  O2054  1  0.242230  0.808930  0.904510  1.0
  O  O2055  1  0.742230  0.191070  0.595490  1.0
  O  O2056  1  0.757770  0.808930  0.595490  1.0
  O  O2057  1  0.757590  0.731900  0.015070  1.0
  O  O2058  1  0.742410  0.268100  0.015070  1.0
  O  O2059  1  0.242410  0.731900  0.484930  1.0
  O  O2060  1  0.257590  0.268100  0.484930  1.0
  O  O2061  1  0.242410  0.268100  0.984930  1.0
  O  O2062  1  0.257590  0.731900  0.984930  1.0
  O  O2063  1  0.757590  0.268100  0.515070  1.0
  O  O2064  1  0.742410  0.731900  0.515070  1.0
  O  O2065  1  0.687360  0.768670  0.048620  1.0
  O  O2066  1  0.812640  0.231330  0.048620  1.0
  O  O2067  1  0.312640  0.768670  0.451380  1.0
  O  O2068  1  0.187360  0.231330  0.451380  1.0
  O  O2069  1  0.312640  0.231330  0.951380  1.0
  O  O2070  1  0.187360  0.768670  0.951380  1.0
  O  O2071  1  0.687360  0.231330  0.548620  1.0
  O  O2072  1  0.812640  0.768670  0.548620  1.0
