
#######################################################################
#
#                 Cambridge Crystallographic Data Centre
#                                CCDC 
#
#######################################################################
#
# If this CIF has been generated from an entry in the Cambridge 
# Structural Database, then it will include bibliographic, chemical, 
# crystal, experimental, refinement or atomic coordinate data resulting 
# from the CCDC's data processing and validation procedures.
#
#######################################################################

data_QELWUC
_chemical_formula_moiety         
'C216 H192 Fe8 N24 O48 Pd6 4+,6(H2 O1),4(Cl1 1-)'
_chemical_name_systematic        
'tetracosakis(\m-1-(4-pyridyl)butane-1,3-dionato)-octa-iron-hexa-palladium tetrachloride hexahydrate unknown solvate'
_symmetry_cell_setting           orthorhombic
_symmetry_space_group_name_H-M   'P c c a'
_symmetry_Int_Tables_number      54
_space_group_name_Hall           '-P 2a 2ac'
loop_
_symmetry_equiv_pos_site_id
_symmetry_equiv_pos_as_xyz
1 x,y,z
2 1/2-x,-y,z
3 -x,y,1/2-z
4 1/2+x,-y,1/2-z
5 -x,-y,-z
6 1/2+x,y,-z
7 x,-y,1/2+z
8 1/2-x,y,1/2+z
_cell_length_a                   30.4249(5)
_cell_length_b                   31.3338(4)
_cell_length_c                   38.6462(5)
_cell_angle_alpha                90
_cell_angle_beta                 90
_cell_angle_gamma                90
_cell_volume                     36842.5
_exptl_crystal_colour            'dark red'
_exptl_crystal_description       prism
_cell_formula_units_Z            4
loop_
_atom_site_label
_atom_site_type_symbol
_atom_site_fract_x
_atom_site_fract_y
_atom_site_fract_z
Pd1 Pd 0.53710(2) 0.75387(2) 0.43764(2)
Pd2 Pd 0.67600(2) 0.58163(2) 0.21843(2)
Pd3 Pd 0.67523(2) 0.92672(2) 0.23636(2)
Fe1 Fe 0.52092(2) 1.03348(2) 0.40808(2)
Fe2 Fe 0.54351(3) 0.47408(2) 0.40158(2)
Fe3 Fe 0.81434(2) 0.74402(2) 0.37101(2)
Fe4 Fe 0.75190(3) 0.76877(2) 0.05705(2)
O1 O 0.48168(11) 1.04105(9) 0.44951(8)
O2 O 0.52757(11) 0.97307(9) 0.42192(8)
O3 O 0.50875(12) 1.09403(9) 0.39425(8)
O4 O 0.47225(11) 1.01757(9) 0.37694(8)
O5 O 0.57403(12) 1.05274(10) 0.43505(8)
O6 O 0.56239(12) 1.02128(10) 0.36974(8)
O7 O 0.59494(14) 0.46726(11) 0.43304(10)
O8 O 0.54251(12) 0.53493(10) 0.41581(9)
O9 O 0.54951(13) 0.41325(10) 0.38537(10)
O10 O 0.57918(12) 0.49034(10) 0.36086(9)
O11 O 0.50476(15) 0.45375(12) 0.44002(10)
O12 O 0.48924(13) 0.48652(10) 0.37517(9)
O13 O 0.83764(12) 0.69244(11) 0.39641(9)
O14 O 0.79092(12) 0.70331(11) 0.33578(9)
O15 O 0.83617(11) 0.77816(11) 0.41156(9)
O16 O 0.75544(11) 0.74436(10) 0.39327(9)
O17 O 0.87210(12) 0.75174(10) 0.34698(10)
O18 O 0.79268(11) 0.79239(10) 0.34255(9)
O19 O 0.81586(12) 0.76304(12) 0.06816(9)
O20 O 0.74090(11) 0.71981(11) 0.08869(9)
O21 O 0.76311(14) 0.82016(12) 0.02699(9)
O22 O 0.74223(12) 0.80893(11) 0.09549(8)
O23 O 0.75759(12) 0.73190(11) 0.01507(9)
O24 O 0.68736(12) 0.76867(11) 0.04862(9)
N1 N 0.52766(15) 0.74571(13) 0.05390(14)
N2 N 0.54771(15) 0.69001(13) 0.43556(12)
N3 N 0.71847(15) 0.88826(14) 0.26134(10)
N4 N 0.64764(17) 0.54445(15) 0.25487(12)
N5 N 0.71552(17) 0.60777(15) 0.25521(12)
N6 N 0.60279(14) 0.76240(13) 0.43061(12)
N7 N 0.69535(16) 0.90222(14) 0.19048(10)
N8 N 0.36404(18) 0.55508(17) 0.31774(12)
N9 N 0.70458(19) 0.62045(18) 0.18284(13)
N10 N 0.52779(14) 0.81758(13) 0.43953(12)
N11 N 0.36884(16) 0.96362(14) 0.28958(11)
N12 N 0.65375(15) 0.95171(14) 0.28178(10)
C1 C 0.42590(17) 1.02603(18) 0.49043(14)
H1 H 0.4268 1.0571 0.4934
H2 H 0.4293 1.0122 0.5130
H3 H 0.3977 1.0178 0.4802
C2 C 0.46280(16) 1.01220(15) 0.46680(12)
C3 C 0.47256(16) 0.96898(15) 0.46463(13)
H4 H 0.4567 0.9501 0.4792
C4 C 0.50367(16) 0.95144(14) 0.44280(12)
C5 C 0.51164(16) 0.90473(15) 0.44254(13)
C6 C 0.50860(18) 0.88003(15) 0.47161(14)
H5 H 0.5004 0.8924 0.4931
C7 C 0.51762(18) 0.83626(16) 0.46942(16)
H6 H 0.5164 0.8194 0.4898
C8 C 0.5303(2) 0.84207(16) 0.41119(16)
H7 H 0.5369 0.8288 0.3897
C9 C 0.5238(2) 0.88521(16) 0.41161(15)
H8 H 0.5274 0.9016 0.3911
C10 C 0.4888(3) 1.15484(18) 0.3619(2)
H9 H 0.4620 1.1684 0.3706
H10 H 0.4914 1.1600 0.3370
H11 H 0.5144 1.1669 0.3738
C11 C 0.4867(2) 1.10815(16) 0.36854(15)
C12 C 0.4616(2) 1.08210(15) 0.34684(15)
H12 H 0.4488 1.0946 0.3268
C13 C 0.45442(17) 1.03933(15) 0.35280(12)
C14 C 0.42445(18) 1.01409(15) 0.32952(12)
C15 C 0.3938(2) 1.03193(18) 0.30707(15)
H13 H 0.3920 1.0621 0.3049
C16 C 0.3665(2) 1.00689(18) 0.28817(16)
H14 H 0.3452 1.0199 0.2736
C17 C 0.3994(2) 0.94622(18) 0.31015(15)
H15 H 0.4018 0.9160 0.3109
C18 C 0.4275(2) 0.96999(16) 0.33022(14)
H16 H 0.4488 0.9564 0.3444
C19 C 0.64574(19) 1.05289(19) 0.45875(13)
H17 H 0.6336 1.0765 0.4724
H18 H 0.6739 1.0616 0.4486
H19 H 0.6504 1.0281 0.4738
C20 C 0.61430(18) 1.04143(15) 0.43056(12)
C21 C 0.62915(19) 1.02004(16) 0.40107(12)
H20 H 0.6588 1.0105 0.4007
C22 C 0.60359(17) 1.01209(15) 0.37272(12)
C23 C 0.62236(18) 0.99041(15) 0.34113(12)
C24 C 0.6663(2) 0.99317(19) 0.33244(14)
H21 H 0.6862 1.0082 0.3470
C25 C 0.6812(2) 0.9738(2) 0.30220(14)
H22 H 0.7113 0.9762 0.2960
C26 C 0.61102(19) 0.94731(18) 0.29105(13)
H23 H 0.5921 0.9301 0.2773
C27 C 0.5945(2) 0.96717(18) 0.31988(13)
H24 H 0.5641 0.9650 0.3253
C28 C 0.6610(3) 0.4810(2) 0.4641(2)
H25 H 0.6568 0.4516 0.4722
H26 H 0.6665 0.4997 0.4839
H27 H 0.6861 0.4821 0.4482
C29 C 0.6205(2) 0.49550(19) 0.44562(17)
C30 C 0.6127(2) 0.53994(18) 0.44378(16)
H28 H 0.6346 0.5590 0.4521
C31 C 0.57408(17) 0.55648(16) 0.43017(12)
C32 C 0.56609(17) 0.60330(15) 0.43227(13)
C33 C 0.58428(17) 0.62884(15) 0.45695(14)
H29 H 0.6040 0.6170 0.4734
C34 C 0.57445(18) 0.67088(16) 0.45828(15)
H30 H 0.5871 0.6876 0.4762
C35 C 0.5288(2) 0.66615(17) 0.41079(18)
H31 H 0.5097 0.6791 0.3944
C36 C 0.5372(2) 0.62220(17) 0.40916(16)
H32 H 0.5230 0.6053 0.3921
C37 C 0.5583(3) 0.35217(17) 0.3501(2)
H33 H 0.5469 0.3386 0.3711
H34 H 0.5867 0.3394 0.3440
H35 H 0.5375 0.3478 0.3311
C38 C 0.56414(19) 0.39924(16) 0.35630(16)
C39 C 0.5821(2) 0.42475(16) 0.33090(16)
H36 H 0.5905 0.4116 0.3098
C40 C 0.58884(18) 0.46844(15) 0.33416(14)
C41 C 0.60909(18) 0.49356(16) 0.30581(14)
C42 C 0.6310(2) 0.47666(19) 0.27767(16)
H37 H 0.6333 0.4466 0.2751
C43 C 0.6495(2) 0.50276(19) 0.25351(16)
H38 H 0.6645 0.4900 0.2346
C44 C 0.6267(3) 0.5622(2) 0.28120(17)
H39 H 0.6255 0.5924 0.2828
C45 C 0.6065(3) 0.53770(19) 0.30667(17)
H40 H 0.5908 0.5514 0.3248
C46 C 0.4467(3) 0.4504(3) 0.47960(19)
H41 H 0.4426 0.4194 0.4809
H42 H 0.4185 0.4648 0.4834
H43 H 0.4677 0.4594 0.4974
C47 C 0.4642(2) 0.4621(2) 0.44446(17)
C48 C 0.4381(2) 0.4818(2) 0.42052(16)
H44 H 0.4088 0.4882 0.4271
C49 C 0.4510(2) 0.49319(17) 0.38735(14)
C50 C 0.4199(2) 0.51513(17) 0.36348(14)
C51 C 0.3741(2) 0.5113(3) 0.36643(19)
H45 H 0.3613 0.4951 0.3846
C52 C 0.3483(2) 0.5315(3) 0.34235(17)
H46 H 0.3174 0.5281 0.3438
C53 C 0.4067(2) 0.5614(2) 0.31587(16)
H47 H 0.4179 0.5803 0.2987
C54 C 0.4362(2) 0.5411(2) 0.33855(15)
H48 H 0.4670 0.5455 0.3364
C55 C 0.8503(2) 0.62307(19) 0.41649(17)
H49 H 0.8752 0.6365 0.4283
H50 H 0.8601 0.5969 0.4050
H51 H 0.8275 0.6161 0.4335
C56 C 0.83184(19) 0.65337(17) 0.39007(15)
C57 C 0.8095(2) 0.63820(18) 0.36073(16)
H52 H 0.8078 0.6082 0.3578
C58 C 0.79034(18) 0.66272(17) 0.33648(14)
C59 C 0.76530(19) 0.64294(17) 0.30795(14)
C60 C 0.7720(3) 0.6020(2) 0.29707(19)
H53 H 0.7938 0.5848 0.3077
C61 C 0.7468(3) 0.5861(2) 0.27048(19)
H54 H 0.7523 0.5578 0.2628
C62 C 0.7072(2) 0.64823(19) 0.26543(16)
H55 H 0.6841 0.6641 0.2551
C63 C 0.7328(2) 0.66607(19) 0.29101(16)
H56 H 0.7281 0.6950 0.2973
C64 C 0.8411(2) 0.8180(2) 0.46224(15)
H57 H 0.8663 0.8006 0.4695
H58 H 0.8227 0.8244 0.4824
H59 H 0.8518 0.8448 0.4521
C65 C 0.81495(19) 0.79430(18) 0.43622(14)
C66 C 0.76878(19) 0.78943(19) 0.44036(14)
H60 H 0.7555 0.8027 0.4598
C67 C 0.74211(17) 0.76708(16) 0.41839(13)
C68 C 0.69353(16) 0.76669(14) 0.42367(13)
C69 C 0.67320(18) 0.77567(18) 0.45511(15)
H61 H 0.6903 0.7836 0.4746
C70 C 0.62772(19) 0.77293(19) 0.45782(16)
H62 H 0.6141 0.7787 0.4794
C71 C 0.6210(2) 0.75443(19) 0.40003(17)
H63 H 0.6028 0.7476 0.3808
C72 C 0.66641(19) 0.75593(19) 0.39591(15)
H64 H 0.6790 0.7496 0.3740
C73 C 0.9245(2) 0.7631(2) 0.30341(19)
H65 H 0.9449 0.7845 0.3127
H66 H 0.9230 0.7659 0.2782
H67 H 0.9350 0.7345 0.3094
C74 C 0.87990(18) 0.76987(16) 0.31854(16)
C75 C 0.84917(17) 0.79574(16) 0.30060(14)
H68 H 0.8570 0.8067 0.2785
C76 C 0.80798(17) 0.80567(15) 0.31403(13)
C77 C 0.77783(17) 0.83488(15) 0.29446(12)
C78 C 0.7921(2) 0.86658(18) 0.27278(15)
H69 H 0.8226 0.8705 0.2687
C79 C 0.7616(2) 0.89275(18) 0.25683(15)
H70 H 0.7719 0.9148 0.2421
C80 C 0.7045(2) 0.85810(19) 0.28251(15)
H71 H 0.6739 0.8554 0.2866
C81 C 0.73303(19) 0.83049(18) 0.29879(14)
H72 H 0.7218 0.8083 0.3131
C82 C 0.8793(2) 0.7550(3) 0.1007(2)
H73 H 0.8963 0.7503 0.0795
H74 H 0.8906 0.7366 0.1191
H75 H 0.8820 0.7850 0.1077
C83 C 0.8335(2) 0.7451(2) 0.09439(16)
C84 C 0.8099(2) 0.7177(2) 0.11653(16)
H76 H 0.8249 0.7068 0.1362
C85 C 0.76752(19) 0.70565(18) 0.11218(14)
C86 C 0.7458(2) 0.6750(2) 0.13696(15)
C87 C 0.7705(3) 0.6453(3) 0.1539(2)
H77 H 0.8015 0.6441 0.1509
C88 C 0.7483(3) 0.6158(3) 0.1764(2)
H78 H 0.7641 0.5930 0.1867
C89 C 0.6830(2) 0.6508(2) 0.16744(17)
H79 H 0.6526 0.6537 0.1725
C90 C 0.7015(2) 0.6793(2) 0.14411(16)
H80 H 0.6844 0.7010 0.1335
C91 C 0.7578(4) 0.8898(2) 0.00283(19)
H81 H 0.7609 0.8735 -0.0186
H82 H 0.7836 0.9083 0.0058
H83 H 0.7312 0.9074 0.0017
C92 C 0.7545(3) 0.8595(2) 0.03307(16)
C93 C 0.7395(3) 0.8743(2) 0.06502(15)
H84 H 0.7586 0.8987 0.0713
C94 C 0.7360(2) 0.84955(18) 0.09431(14)
C95 C 0.7219(2) 0.86866(18) 0.12765(13)
C96 C 0.7263(3) 0.91172(19) 0.13502(15)
H85 H 0.7376 0.9306 0.1180
C97 C 0.7144(3) 0.9271(2) 0.16698(14)
H86 H 0.7199 0.9561 0.1724
C98 C 0.6884(2) 0.86024(19) 0.18367(14)
H87 H 0.6740 0.8427 0.2002
C99 C 0.7025(2) 0.84279(19) 0.15219(14)
H88 H 0.6986 0.8132 0.1477
C100 C 0.7432(2) 0.68004(18) -0.02799(15)
H89 H 0.7751 0.6827 -0.0307
H90 H 0.7287 0.6867 -0.0500
H91 H 0.7359 0.6508 -0.0211
C101 C 0.72757(19) 0.71090(16) -0.00036(14)
C102 C 0.68253(19) 0.71355(19) 0.00753(16)
H92 H 0.6628 0.6950 -0.0041
C103 C 0.66597(19) 0.74142(17) 0.03101(15)
C104 C 0.61691(19) 0.74182(16) 0.03904(16)
C105 C 0.5853(2) 0.7315(2) 0.01428(19)
H93 H 0.5939 0.7230 -0.0083
C106 C 0.5421(2) 0.7335(2) 0.0227(2)
H94 H 0.5211 0.7259 0.0056
C107 C 0.55831(19) 0.75448(16) 0.07782(16)
H95 H 0.5489 0.7618 0.1005
C108 C 0.60123(19) 0.75341(16) 0.07126(15)
H96 H 0.6214 0.7607 0.0890
Pd1B Pd 0.46290(2) 0.75387(2) 0.06236(2)
Pd2B Pd 0.32400(2) 0.58163(2) 0.28157(2)
Pd3B Pd 0.32477(2) 0.92672(2) 0.26364(2)
Fe1B Fe 0.47908(2) 1.03348(2) 0.09192(2)
Fe2B Fe 0.45649(3) 0.47408(2) 0.09842(2)
Fe3B Fe 0.18566(2) 0.74402(2) 0.12899(2)
Fe4B Fe 0.24810(3) 0.76877(2) 0.44295(2)
O1B O 0.51832(11) 1.04105(9) 0.05049(8)
O2B O 0.47243(11) 0.97307(9) 0.07808(8)
O3B O 0.49125(12) 1.09403(9) 0.10575(8)
O4B O 0.52775(11) 1.01757(9) 0.12306(8)
O5B O 0.42597(12) 1.05274(10) 0.06495(8)
O6B O 0.43761(12) 1.02128(10) 0.13026(8)
O7B O 0.40506(14) 0.46726(11) 0.06696(10)
O8B O 0.45749(12) 0.53493(10) 0.08419(9)
O9B O 0.45049(13) 0.41325(10) 0.11463(10)
O10B O 0.42082(12) 0.49034(10) 0.13914(9)
O11B O 0.49524(15) 0.45375(12) 0.05998(10)
O12B O 0.51076(13) 0.48652(10) 0.12483(9)
O13B O 0.16236(12) 0.69244(11) 0.10359(9)
O14B O 0.20908(12) 0.70331(11) 0.16422(9)
O15B O 0.16383(11) 0.77816(11) 0.08844(9)
O16B O 0.24456(11) 0.74436(10) 0.10673(9)
O17B O 0.12790(12) 0.75174(10) 0.15302(10)
O18B O 0.20732(11) 0.79239(10) 0.15745(9)
O19B O 0.18414(12) 0.76304(12) 0.43184(9)
O20B O 0.25910(11) 0.71981(11) 0.41131(9)
O21B O 0.23689(14) 0.82016(12) 0.47301(9)
O22B O 0.25777(12) 0.80893(11) 0.40451(8)
O23B O 0.24241(12) 0.73190(11) 0.48493(9)
O24B O 0.31264(12) 0.76867(11) 0.45138(9)
N1B N 0.47234(15) 0.74571(13) 0.44610(14)
N2B N 0.45229(15) 0.69001(13) 0.06444(12)
N3B N 0.28153(15) 0.88826(14) 0.23866(10)
N4B N 0.35236(17) 0.54445(15) 0.24513(12)
N5B N 0.28448(17) 0.60777(15) 0.24479(12)
N6B N 0.39721(14) 0.76240(13) 0.06939(12)
N7B N 0.30465(16) 0.90222(14) 0.30952(10)
N8B N 0.63596(18) 0.55508(17) 0.18226(12)
N9B N 0.29542(19) 0.62045(18) 0.31716(13)
N10B N 0.47221(14) 0.81758(13) 0.06047(12)
N11B N 0.63116(16) 0.96362(14) 0.21042(11)
N12B N 0.34625(15) 0.95171(14) 0.21822(10)
C1B C 0.57410(17) 1.02603(18) 0.00957(14)
H1B H 0.5732 1.0571 0.0066
H2B H 0.5707 1.0122 -0.0130
H3B H 0.6023 1.0178 0.0198
C2B C 0.53720(16) 1.01220(15) 0.03320(12)
C3B C 0.52744(16) 0.96898(15) 0.03537(13)
H4B H 0.5433 0.9501 0.0208
C4B C 0.49633(16) 0.95144(14) 0.05720(12)
C5B C 0.48836(16) 0.90473(15) 0.05746(13)
C6B C 0.49140(18) 0.88003(15) 0.02839(14)
H5B H 0.4996 0.8924 0.0069
C7B C 0.48238(18) 0.83626(16) 0.03058(16)
H6B H 0.4836 0.8194 0.0102
C8B C 0.4697(2) 0.84207(16) 0.08881(16)
H7B H 0.4631 0.8288 0.1103
C9B C 0.4762(2) 0.88521(16) 0.08839(15)
H8B H 0.4726 0.9016 0.1089
C10B C 0.5112(3) 1.15484(18) 0.1381(2)
H9B H 0.5380 1.1684 0.1294
H10B H 0.5086 1.1600 0.1630
H11B H 0.4856 1.1669 0.1262
C11B C 0.5133(2) 1.10815(16) 0.13146(15)
C12B C 0.5384(2) 1.08210(15) 0.15316(15)
H12B H 0.5512 1.0946 0.1732
C13B C 0.54558(17) 1.03933(15) 0.14720(12)
C14B C 0.57555(18) 1.01409(15) 0.17048(12)
C15B C 0.6062(2) 1.03193(18) 0.19293(15)
H13B H 0.6080 1.0621 0.1951
C16B C 0.6335(2) 1.00689(18) 0.21183(16)
H14B H 0.6548 1.0199 0.2264
C17B C 0.6006(2) 0.94622(18) 0.18985(15)
H15B H 0.5982 0.9160 0.1891
C18B C 0.5725(2) 0.96999(16) 0.16978(14)
H16B H 0.5512 0.9564 0.1556
C19B C 0.35426(19) 1.05289(19) 0.04125(13)
H17B H 0.3664 1.0765 0.0276
H18B H 0.3261 1.0616 0.0514
H19B H 0.3496 1.0281 0.0262
C20B C 0.38570(18) 1.04143(15) 0.06944(12)
C21B C 0.37085(19) 1.02004(16) 0.09893(12)
H20B H 0.3412 1.0105 0.0993
C22B C 0.39641(17) 1.01209(15) 0.12728(12)
C23B C 0.37764(18) 0.99041(15) 0.15887(12)
C24B C 0.3337(2) 0.99317(19) 0.16756(14)
H21B H 0.3138 1.0082 0.1530
C25B C 0.3188(2) 0.9738(2) 0.19780(14)
H22B H 0.2887 0.9762 0.2040
C26B C 0.38898(19) 0.94731(18) 0.20895(13)
H23B H 0.4079 0.9301 0.2227
C27B C 0.4055(2) 0.96717(18) 0.18012(13)
H24B H 0.4359 0.9650 0.1747
C28B C 0.3390(3) 0.4810(2) 0.0359(2)
H25B H 0.3432 0.4516 0.0278
H26B H 0.3335 0.4997 0.0161
H27B H 0.3139 0.4821 0.0518
C29B C 0.3795(2) 0.49550(19) 0.05438(17)
C30B C 0.3873(2) 0.53994(18) 0.05622(16)
H28B H 0.3654 0.5590 0.0479
C31B C 0.42592(17) 0.55648(16) 0.06983(12)
C32B C 0.43391(17) 0.60330(15) 0.06773(13)
C33B C 0.41572(17) 0.62884(15) 0.04305(14)
H29B H 0.3960 0.6170 0.0266
C34B C 0.42555(18) 0.67088(16) 0.04172(15)
H30B H 0.4129 0.6876 0.0238
C35B C 0.4712(2) 0.66615(17) 0.08921(18)
H31B H 0.4903 0.6791 0.1056
C36B C 0.4628(2) 0.62220(17) 0.09084(16)
H32B H 0.4770 0.6053 0.1079
C37B C 0.4417(3) 0.35217(17) 0.1499(2)
H33B H 0.4531 0.3386 0.1289
H34B H 0.4133 0.3394 0.1560
H35B H 0.4625 0.3478 0.1689
C38B C 0.43586(19) 0.39924(16) 0.14370(16)
C39B C 0.4179(2) 0.42475(16) 0.16910(16)
H36B H 0.4095 0.4116 0.1902
C40B C 0.41116(18) 0.46844(15) 0.16584(14)
C41B C 0.39091(18) 0.49356(16) 0.19419(14)
C42B C 0.3690(2) 0.47666(19) 0.22233(16)
H37B H 0.3667 0.4466 0.2249
C43B C 0.3505(2) 0.50276(19) 0.24649(16)
H38B H 0.3355 0.4900 0.2654
C44B C 0.3733(3) 0.5622(2) 0.21880(17)
H39B H 0.3745 0.5924 0.2172
C45B C 0.3935(3) 0.53770(19) 0.19333(17)
H40B H 0.4092 0.5514 0.1752
C46B C 0.5533(3) 0.4504(3) 0.02040(19)
H41B H 0.5574 0.4194 0.0191
H42B H 0.5815 0.4648 0.0166
H43B H 0.5323 0.4594 0.0026
C47B C 0.5358(2) 0.4621(2) 0.05554(17)
C48B C 0.5619(2) 0.4818(2) 0.07948(16)
H44B H 0.5912 0.4882 0.0729
C49B C 0.5490(2) 0.49319(17) 0.11265(14)
C50B C 0.5801(2) 0.51513(17) 0.13652(14)
C51B C 0.6259(2) 0.5113(3) 0.13357(19)
H45B H 0.6387 0.4951 0.1154
C52B C 0.6517(2) 0.5315(3) 0.15765(17)
H46B H 0.6826 0.5281 0.1562
C53B C 0.5933(2) 0.5614(2) 0.18413(16)
H47B H 0.5821 0.5803 0.2013
C54B C 0.5638(2) 0.5411(2) 0.16145(15)
H48B H 0.5330 0.5455 0.1636
C55B C 0.1497(2) 0.62307(19) 0.08351(17)
H49B H 0.1248 0.6365 0.0717
H50B H 0.1399 0.5969 0.0950
H51B H 0.1725 0.6161 0.0665
C56B C 0.16816(19) 0.65337(17) 0.10993(15)
C57B C 0.1905(2) 0.63820(18) 0.13927(16)
H52B H 0.1922 0.6082 0.1422
C58B C 0.20966(18) 0.66272(17) 0.16352(14)
C59B C 0.23470(19) 0.64294(17) 0.19205(14)
C60B C 0.2280(3) 0.6020(2) 0.20293(19)
H53B H 0.2062 0.5848 0.1923
C61B C 0.2532(3) 0.5861(2) 0.22952(19)
H54B H 0.2477 0.5578 0.2372
C62B C 0.2928(2) 0.64823(19) 0.23457(16)
H55B H 0.3159 0.6641 0.2449
C63B C 0.2672(2) 0.66607(19) 0.20899(16)
H56B H 0.2719 0.6950 0.2027
C64B C 0.1589(2) 0.8180(2) 0.03776(15)
H57B H 0.1337 0.8006 0.0305
H58B H 0.1773 0.8244 0.0176
H59B H 0.1482 0.8448 0.0479
C65B C 0.18505(19) 0.79430(18) 0.06378(14)
C66B C 0.23122(19) 0.78943(19) 0.05964(14)
H60B H 0.2445 0.8027 0.0402
C67B C 0.25789(17) 0.76708(16) 0.08161(13)
C68B C 0.30647(16) 0.76669(14) 0.07633(13)
C69B C 0.32680(18) 0.77567(18) 0.04489(15)
H61B H 0.3097 0.7836 0.0254
C70B C 0.37228(19) 0.77293(19) 0.04218(16)
H62B H 0.3859 0.7787 0.0206
C71B C 0.3790(2) 0.75443(19) 0.09997(17)
H63B H 0.3972 0.7476 0.1192
C72B C 0.33359(19) 0.75593(19) 0.10409(15)
H64B H 0.3210 0.7496 0.1260
C73B C 0.0755(2) 0.7631(2) 0.19659(19)
H65B H 0.0551 0.7845 0.1873
H66B H 0.0770 0.7659 0.2218
H67B H 0.0650 0.7345 0.1906
C74B C 0.12010(18) 0.76987(16) 0.18146(16)
C75B C 0.15083(17) 0.79574(16) 0.19940(14)
H68B H 0.1430 0.8067 0.2215
C76B C 0.19202(17) 0.80567(15) 0.18597(13)
C77B C 0.22217(17) 0.83488(15) 0.20554(12)
C78B C 0.2079(2) 0.86658(18) 0.22722(15)
H69B H 0.1774 0.8705 0.2313
C79B C 0.2384(2) 0.89275(18) 0.24317(15)
H70B H 0.2281 0.9148 0.2579
C80B C 0.2955(2) 0.85810(19) 0.21749(15)
H71B H 0.3261 0.8554 0.2134
C81B C 0.26697(19) 0.83049(18) 0.20121(14)
H72B H 0.2782 0.8083 0.1869
C82B C 0.1207(2) 0.7550(3) 0.3993(2)
H73B H 0.1037 0.7503 0.4205
H74B H 0.1094 0.7366 0.3809
H75B H 0.1180 0.7850 0.3923
C83B C 0.1665(2) 0.7451(2) 0.40561(16)
C84B C 0.1901(2) 0.7177(2) 0.38347(16)
H76B H 0.1751 0.7068 0.3638
C85B C 0.23248(19) 0.70565(18) 0.38782(14)
C86B C 0.2542(2) 0.6750(2) 0.36304(15)
C87B C 0.2295(3) 0.6453(3) 0.3461(2)
H77B H 0.1985 0.6441 0.3491
C88B C 0.2517(3) 0.6158(3) 0.3236(2)
H78B H 0.2359 0.5930 0.3133
C89B C 0.3170(2) 0.6508(2) 0.33256(17)
H79B H 0.3474 0.6537 0.3275
C90B C 0.2985(2) 0.6793(2) 0.35589(16)
H80B H 0.3156 0.7010 0.3665
C91B C 0.2422(4) 0.8898(2) 0.49717(19)
H81B H 0.2391 0.8735 0.5186
H82B H 0.2164 0.9083 0.4942
H83B H 0.2688 0.9074 0.4983
C92B C 0.2455(3) 0.8595(2) 0.46693(16)
C93B C 0.2605(3) 0.8743(2) 0.43498(15)
H84B H 0.2414 0.8987 0.4287
C94B C 0.2640(2) 0.84955(18) 0.40569(14)
C95B C 0.2781(2) 0.86866(18) 0.37235(13)
C96B C 0.2737(3) 0.91172(19) 0.36498(15)
H85B H 0.2624 0.9306 0.3820
C97B C 0.2856(3) 0.9271(2) 0.33302(14)
H86B H 0.2801 0.9561 0.3276
C98B C 0.3116(2) 0.86024(19) 0.31633(14)
H87B H 0.3260 0.8427 0.2998
C99B C 0.2975(2) 0.84279(19) 0.34781(14)
H88B H 0.3014 0.8132 0.3523
C100B C 0.2568(2) 0.68004(18) 0.52799(15)
H89B H 0.2249 0.6827 0.5307
H90B H 0.2713 0.6867 0.5500
H91B H 0.2641 0.6508 0.5211
C101B C 0.27243(19) 0.71090(16) 0.50036(14)
C102B C 0.31747(19) 0.71355(19) 0.49247(16)
H92B H 0.3372 0.6950 0.5041
C103B C 0.33403(19) 0.74142(17) 0.46899(15)
C104B C 0.38309(19) 0.74182(16) 0.46096(16)
C105B C 0.4147(2) 0.7315(2) 0.48572(19)
H93B H 0.4061 0.7230 0.5083
C106B C 0.4579(2) 0.7335(2) 0.4773(2)
H94B H 0.4789 0.7259 0.4944
C107B C 0.44169(19) 0.75448(16) 0.42218(16)
H95B H 0.4511 0.7618 0.3995
C108B C 0.39877(19) 0.75341(16) 0.42874(15)
H96B H 0.3786 0.7607 0.4110
Cl1 Cl 0.55364(7) 0.74897(7) 0.52409(5)
Cl2 Cl 0.7500 0.5000 0.20611(6)
Cl3 Cl 0.7500 1.0000 0.23081(5)
O25 O 0.59632(15) 0.65814(14) 0.23438(13)
H97 H 0.5909(15) 0.6843(4) 0.2319(16)
H98 H 0.5729(9) 0.6441(12) 0.2323(15)
O26 O 0.59484(16) 0.84755(16) 0.24083(13)
H99 H 0.5663 0.8501 0.2504
H100 H 0.5975 0.8192 0.2327
O27 O 0.51927(10) 0.75397(9) 0.35137(8)
H101 H 0.4957 0.7413 0.3396
H102 H 0.5368 0.7669 0.3345
H103? H 0.7099 0.8862 0.0608
loop_
_geom_bond_atom_site_label_1
_geom_bond_atom_site_label_2
_geom_bond_site_symmetry_1
_geom_bond_site_symmetry_2
Pd1 N2 1_555 1_555
Pd2 N4 1_555 1_555
Pd3 N3 1_555 1_555
Fe1 O1 1_555 1_555
Fe2 O7 1_555 1_555
Fe3 O13 1_555 1_555
Fe4 O19 1_555 1_555
O1 C2 1_555 1_555
O2 Fe1 1_555 1_555
O3 Fe1 1_555 1_555
O4 Fe1 1_555 1_555
O5 Fe1 1_555 1_555
O6 Fe1 1_555 1_555
O7 C29 1_555 1_555
O8 Fe2 1_555 1_555
O9 Fe2 1_555 1_555
O10 Fe2 1_555 1_555
O11 Fe2 1_555 1_555
O12 Fe2 1_555 1_555
O13 C56 1_555 1_555
O14 Fe3 1_555 1_555
O15 Fe3 1_555 1_555
O16 Fe3 1_555 1_555
O17 Fe3 1_555 1_555
O18 Fe3 1_555 1_555
O19 C83 1_555 1_555
O20 Fe4 1_555 1_555
O21 Fe4 1_555 1_555
O22 Fe4 1_555 1_555
O23 Fe4 1_555 1_555
O24 Fe4 1_555 1_555
N1 C106 1_555 1_555
N2 C34 1_555 1_555
N3 C79 1_555 1_555
N4 C43 1_555 1_555
N5 Pd2 1_555 1_555
N6 Pd1 1_555 1_555
N7 Pd3 1_555 1_555
N8 C52 1_555 1_555
N9 Pd2 1_555 1_555
N10 Pd1 1_555 1_555
N11 C16 1_555 1_555
N12 Pd3 1_555 1_555
C1 H1 1_555 1_555
H2 C1 1_555 1_555
H3 C1 1_555 1_555
C2 C1 1_555 1_555
C3 C2 1_555 1_555
H4 C3 1_555 1_555
C4 O2 1_555 1_555
C5 C4 1_555 1_555
C6 C5 1_555 1_555
H5 C6 1_555 1_555
C7 N10 1_555 1_555
H6 C7 1_555 1_555
C8 N10 1_555 1_555
H7 C8 1_555 1_555
C9 C5 1_555 1_555
H8 C9 1_555 1_555
C10 H9 1_555 1_555
H10 C10 1_555 1_555
H11 C10 1_555 1_555
C11 O3 1_555 1_555
C12 C11 1_555 1_555
H12 C12 1_555 1_555
C13 O4 1_555 1_555
C14 C13 1_555 1_555
C15 C14 1_555 1_555
H13 C15 1_555 1_555
C16 C15 1_555 1_555
H14 C16 1_555 1_555
C17 N11 1_555 1_555
H15 C17 1_555 1_555
C18 C14 1_555 1_555
H16 C18 1_555 1_555
C19 H17 1_555 1_555
H18 C19 1_555 1_555
H19 C19 1_555 1_555
C20 O5 1_555 1_555
C21 C20 1_555 1_555
H20 C21 1_555 1_555
C22 O6 1_555 1_555
C23 C22 1_555 1_555
C24 C23 1_555 1_555
H21 C24 1_555 1_555
C25 N12 1_555 1_555
H22 C25 1_555 1_555
C26 N12 1_555 1_555
H23 C26 1_555 1_555
C27 C23 1_555 1_555
H24 C27 1_555 1_555
C28 H25 1_555 1_555
H26 C28 1_555 1_555
H27 C28 1_555 1_555
C29 C28 1_555 1_555
C30 C29 1_555 1_555
H28 C30 1_555 1_555
C31 O8 1_555 1_555
C32 C31 1_555 1_555
C33 C32 1_555 1_555
H29 C33 1_555 1_555
C34 C33 1_555 1_555
H30 C34 1_555 1_555
C35 N2 1_555 1_555
H31 C35 1_555 1_555
C36 C32 1_555 1_555
H32 C36 1_555 1_555
C37 H33 1_555 1_555
H34 C37 1_555 1_555
H35 C37 1_555 1_555
C38 O9 1_555 1_555
C39 C38 1_555 1_555
H36 C39 1_555 1_555
C40 O10 1_555 1_555
C41 C40 1_555 1_555
C42 C41 1_555 1_555
H37 C42 1_555 1_555
C43 C42 1_555 1_555
H38 C43 1_555 1_555
C44 N4 1_555 1_555
H39 C44 1_555 1_555
C45 C41 1_555 1_555
H40 C45 1_555 1_555
C46 H41 1_555 1_555
H42 C46 1_555 1_555
H43 C46 1_555 1_555
C47 O11 1_555 1_555
C48 C47 1_555 1_555
H44 C48 1_555 1_555
C49 O12 1_555 1_555
C50 C49 1_555 1_555
C51 C50 1_555 1_555
H45 C51 1_555 1_555
C52 C51 1_555 1_555
H46 C52 1_555 1_555
C53 N8 1_555 1_555
H47 C53 1_555 1_555
C54 C50 1_555 1_555
H48 C54 1_555 1_555
C55 H49 1_555 1_555
H50 C55 1_555 1_555
H51 C55 1_555 1_555
C56 C55 1_555 1_555
C57 C56 1_555 1_555
H52 C57 1_555 1_555
C58 O14 1_555 1_555
C59 C58 1_555 1_555
C60 C59 1_555 1_555
H53 C60 1_555 1_555
C61 N5 1_555 1_555
H54 C61 1_555 1_555
C62 N5 1_555 1_555
H55 C62 1_555 1_555
C63 C59 1_555 1_555
H56 C63 1_555 1_555
C64 H57 1_555 1_555
H58 C64 1_555 1_555
H59 C64 1_555 1_555
C65 O15 1_555 1_555
C66 C65 1_555 1_555
H60 C66 1_555 1_555
C67 O16 1_555 1_555
C68 C67 1_555 1_555
C69 C68 1_555 1_555
H61 C69 1_555 1_555
C70 N6 1_555 1_555
H62 C70 1_555 1_555
C71 N6 1_555 1_555
H63 C71 1_555 1_555
C72 C68 1_555 1_555
H64 C72 1_555 1_555
C73 H65 1_555 1_555
H66 C73 1_555 1_555
H67 C73 1_555 1_555
C74 O17 1_555 1_555
C75 C74 1_555 1_555
H68 C75 1_555 1_555
C76 O18 1_555 1_555
C77 C76 1_555 1_555
C78 C77 1_555 1_555
H69 C78 1_555 1_555
C79 C78 1_555 1_555
H70 C79 1_555 1_555
C80 N3 1_555 1_555
H71 C80 1_555 1_555
C81 C77 1_555 1_555
H72 C81 1_555 1_555
C82 H73 1_555 1_555
H74 C82 1_555 1_555
H75 C82 1_555 1_555
C83 C82 1_555 1_555
C84 C83 1_555 1_555
H76 C84 1_555 1_555
C85 O20 1_555 1_555
C86 C85 1_555 1_555
C87 C86 1_555 1_555
H77 C87 1_555 1_555
C88 N9 1_555 1_555
H78 C88 1_555 1_555
C89 N9 1_555 1_555
H79 C89 1_555 1_555
C90 C86 1_555 1_555
H80 C90 1_555 1_555
C91 H81 1_555 1_555
H82 C91 1_555 1_555
H83 C91 1_555 1_555
C92 O21 1_555 1_555
C93 C92 1_555 1_555
H84 C93 1_555 1_555
C94 O22 1_555 1_555
C95 C94 1_555 1_555
C96 C95 1_555 1_555
H85 C96 1_555 1_555
C97 N7 1_555 1_555
H86 C97 1_555 1_555
C98 N7 1_555 1_555
H87 C98 1_555 1_555
C99 C95 1_555 1_555
H88 C99 1_555 1_555
C100 H89 1_555 1_555
H90 C100 1_555 1_555
H91 C100 1_555 1_555
C101 O23 1_555 1_555
C102 C101 1_555 1_555
H92 C102 1_555 1_555
C103 O24 1_555 1_555
C104 C103 1_555 1_555
C105 C104 1_555 1_555
H93 C105 1_555 1_555
C106 C105 1_555 1_555
H94 C106 1_555 1_555
C107 N1 1_555 1_555
H95 C107 1_555 1_555
C108 C104 1_555 1_555
H96 C108 1_555 1_555
O25 H97 1_555 1_555
H98 O25 1_555 1_555
O26 H99 1_555 1_555
H100 O26 1_555 1_555
O27 H101 1_555 1_555
H102 O27 1_555 1_555
Pd1B N1 1_555 1_555
Pd2B N8 1_555 1_555
Pd3B N11 1_555 1_555
Fe1B O1B 1_555 1_555
Fe2B O7B 1_555 1_555
Fe3B O13B 1_555 1_555
Fe4B O19B 1_555 1_555
O1B C2B 1_555 1_555
O2B Fe1B 1_555 1_555
O3B Fe1B 1_555 1_555
O4B Fe1B 1_555 1_555
O5B Fe1B 1_555 1_555
O6B Fe1B 1_555 1_555
O7B C29B 1_555 1_555
O8B Fe2B 1_555 1_555
O9B Fe2B 1_555 1_555
O10B Fe2B 1_555 1_555
O11B Fe2B 1_555 1_555
O12B Fe2B 1_555 1_555
O13B C56B 1_555 1_555
O14B Fe3B 1_555 1_555
O15B Fe3B 1_555 1_555
O16B Fe3B 1_555 1_555
O17B Fe3B 1_555 1_555
O18B Fe3B 1_555 1_555
O19B C83B 1_555 1_555
O20B Fe4B 1_555 1_555
O21B Fe4B 1_555 1_555
O22B Fe4B 1_555 1_555
O23B Fe4B 1_555 1_555
O24B Fe4B 1_555 1_555
N1B Pd1 1_555 1_555
N2B Pd1B 1_555 1_555
N3B Pd3B 1_555 1_555
N4B Pd2B 1_555 1_555
N5B Pd2B 1_555 1_555
N6B Pd1B 1_555 1_555
N7B Pd3B 1_555 1_555
N8B Pd2 1_555 1_555
N9B Pd2B 1_555 1_555
N10B Pd1B 1_555 1_555
N11B Pd3 1_555 1_555
N12B Pd3B 1_555 1_555
C1B H1B 1_555 1_555
H2B C1B 1_555 1_555
H3B C1B 1_555 1_555
C2B C1B 1_555 1_555
C3B C2B 1_555 1_555
H4B C3B 1_555 1_555
C4B O2B 1_555 1_555
C5B C4B 1_555 1_555
C6B C5B 1_555 1_555
H5B C6B 1_555 1_555
C7B N10B 1_555 1_555
H6B C7B 1_555 1_555
C8B N10B 1_555 1_555
H7B C8B 1_555 1_555
C9B C5B 1_555 1_555
H8B C9B 1_555 1_555
C10B H9B 1_555 1_555
H10B C10B 1_555 1_555
H11B C10B 1_555 1_555
C11B O3B 1_555 1_555
C12B C11B 1_555 1_555
H12B C12B 1_555 1_555
C13B O4B 1_555 1_555
C14B C13B 1_555 1_555
C15B C14B 1_555 1_555
H13B C15B 1_555 1_555
C16B N11B 1_555 1_555
H14B C16B 1_555 1_555
C17B N11B 1_555 1_555
H15B C17B 1_555 1_555
C18B C14B 1_555 1_555
H16B C18B 1_555 1_555
C19B H17B 1_555 1_555
H18B C19B 1_555 1_555
H19B C19B 1_555 1_555
C20B O5B 1_555 1_555
C21B C20B 1_555 1_555
H20B C21B 1_555 1_555
C22B O6B 1_555 1_555
C23B C22B 1_555 1_555
C24B C23B 1_555 1_555
H21B C24B 1_555 1_555
C25B N12B 1_555 1_555
H22B C25B 1_555 1_555
C26B N12B 1_555 1_555
H23B C26B 1_555 1_555
C27B C23B 1_555 1_555
H24B C27B 1_555 1_555
C28B H25B 1_555 1_555
H26B C28B 1_555 1_555
H27B C28B 1_555 1_555
C29B C28B 1_555 1_555
C30B C29B 1_555 1_555
H28B C30B 1_555 1_555
C31B O8B 1_555 1_555
C32B C31B 1_555 1_555
C33B C32B 1_555 1_555
H29B C33B 1_555 1_555
C34B N2B 1_555 1_555
H30B C34B 1_555 1_555
C35B N2B 1_555 1_555
H31B C35B 1_555 1_555
C36B C32B 1_555 1_555
H32B C36B 1_555 1_555
C37B H33B 1_555 1_555
H34B C37B 1_555 1_555
H35B C37B 1_555 1_555
C38B O9B 1_555 1_555
C39B C38B 1_555 1_555
H36B C39B 1_555 1_555
C40B O10B 1_555 1_555
C41B C40B 1_555 1_555
C42B C41B 1_555 1_555
H37B C42B 1_555 1_555
C43B N4B 1_555 1_555
H38B C43B 1_555 1_555
C44B N4B 1_555 1_555
H39B C44B 1_555 1_555
C45B C41B 1_555 1_555
H40B C45B 1_555 1_555
C46B H41B 1_555 1_555
H42B C46B 1_555 1_555
H43B C46B 1_555 1_555
C47B O11B 1_555 1_555
C48B C47B 1_555 1_555
H44B C48B 1_555 1_555
C49B O12B 1_555 1_555
C50B C49B 1_555 1_555
C51B C50B 1_555 1_555
H45B C51B 1_555 1_555
C52B N8B 1_555 1_555
H46B C52B 1_555 1_555
C53B N8B 1_555 1_555
H47B C53B 1_555 1_555
C54B C50B 1_555 1_555
H48B C54B 1_555 1_555
C55B H49B 1_555 1_555
H50B C55B 1_555 1_555
H51B C55B 1_555 1_555
C56B C55B 1_555 1_555
C57B C56B 1_555 1_555
H52B C57B 1_555 1_555
C58B O14B 1_555 1_555
C59B C58B 1_555 1_555
C60B C59B 1_555 1_555
H53B C60B 1_555 1_555
C61B N5B 1_555 1_555
H54B C61B 1_555 1_555
C62B N5B 1_555 1_555
H55B C62B 1_555 1_555
C63B C59B 1_555 1_555
H56B C63B 1_555 1_555
C64B H57B 1_555 1_555
H58B C64B 1_555 1_555
H59B C64B 1_555 1_555
C65B O15B 1_555 1_555
C66B C65B 1_555 1_555
H60B C66B 1_555 1_555
C67B O16B 1_555 1_555
C68B C67B 1_555 1_555
C69B C68B 1_555 1_555
H61B C69B 1_555 1_555
C70B N6B 1_555 1_555
H62B C70B 1_555 1_555
C71B N6B 1_555 1_555
H63B C71B 1_555 1_555
C72B C68B 1_555 1_555
H64B C72B 1_555 1_555
C73B H65B 1_555 1_555
H66B C73B 1_555 1_555
H67B C73B 1_555 1_555
C74B O17B 1_555 1_555
C75B C74B 1_555 1_555
H68B C75B 1_555 1_555
C76B O18B 1_555 1_555
C77B C76B 1_555 1_555
C78B C77B 1_555 1_555
H69B C78B 1_555 1_555
C79B N3B 1_555 1_555
H70B C79B 1_555 1_555
C80B N3B 1_555 1_555
H71B C80B 1_555 1_555
C81B C77B 1_555 1_555
H72B C81B 1_555 1_555
C82B H73B 1_555 1_555
H74B C82B 1_555 1_555
H75B C82B 1_555 1_555
C83B C82B 1_555 1_555
C84B C83B 1_555 1_555
H76B C84B 1_555 1_555
C85B O20B 1_555 1_555
C86B C85B 1_555 1_555
C87B C86B 1_555 1_555
H77B C87B 1_555 1_555
C88B N9B 1_555 1_555
H78B C88B 1_555 1_555
C89B N9B 1_555 1_555
H79B C89B 1_555 1_555
C90B C86B 1_555 1_555
H80B C90B 1_555 1_555
C91B H81B 1_555 1_555
H82B C91B 1_555 1_555
H83B C91B 1_555 1_555
C92B O21B 1_555 1_555
C93B C92B 1_555 1_555
H84B C93B 1_555 1_555
C94B O22B 1_555 1_555
C95B C94B 1_555 1_555
C96B C95B 1_555 1_555
H85B C96B 1_555 1_555
C97B N7B 1_555 1_555
H86B C97B 1_555 1_555
C98B N7B 1_555 1_555
H87B C98B 1_555 1_555
C99B C95B 1_555 1_555
H88B C99B 1_555 1_555
C100B H89B 1_555 1_555
H90B C100B 1_555 1_555
H91B C100B 1_555 1_555
C101B O23B 1_555 1_555
C102B C101B 1_555 1_555
H92B C102B 1_555 1_555
C103B O24B 1_555 1_555
C104B C103B 1_555 1_555
C105B C104B 1_555 1_555
H93B C105B 1_555 1_555
C106B N1B 1_555 1_555
H94B C106B 1_555 1_555
C107B N1B 1_555 1_555
H95B C107B 1_555 1_555
C108B C104B 1_555 1_555
H96B C108B 1_555 1_555
C3 C4 1_555 1_555
C6 C7 1_555 1_555
C8 C9 1_555 1_555
C10 C11 1_555 1_555
C12 C13 1_555 1_555
C17 C18 1_555 1_555
C19 C20 1_555 1_555
C21 C22 1_555 1_555
C24 C25 1_555 1_555
C26 C27 1_555 1_555
C30 C31 1_555 1_555
C35 C36 1_555 1_555
C37 C38 1_555 1_555
C39 C40 1_555 1_555
C44 C45 1_555 1_555
C46 C47 1_555 1_555
C48 C49 1_555 1_555
C53 C54 1_555 1_555
C57 C58 1_555 1_555
C60 C61 1_555 1_555
C62 C63 1_555 1_555
C64 C65 1_555 1_555
C66 C67 1_555 1_555
C69 C70 1_555 1_555
C71 C72 1_555 1_555
C73 C74 1_555 1_555
C75 C76 1_555 1_555
C80 C81 1_555 1_555
C84 C85 1_555 1_555
C87 C88 1_555 1_555
C89 C90 1_555 1_555
C91 C92 1_555 1_555
C93 C94 1_555 1_555
C96 C97 1_555 1_555
C98 C99 1_555 1_555
C100 C101 1_555 1_555
C102 C103 1_555 1_555
C107 C108 1_555 1_555
C3B C4B 1_555 1_555
C6B C7B 1_555 1_555
C8B C9B 1_555 1_555
C10B C11B 1_555 1_555
C12B C13B 1_555 1_555
C15B C16B 1_555 1_555
C17B C18B 1_555 1_555
C19B C20B 1_555 1_555
C21B C22B 1_555 1_555
C24B C25B 1_555 1_555
C26B C27B 1_555 1_555
C30B C31B 1_555 1_555
C33B C34B 1_555 1_555
C35B C36B 1_555 1_555
C37B C38B 1_555 1_555
C39B C40B 1_555 1_555
C42B C43B 1_555 1_555
C44B C45B 1_555 1_555
C46B C47B 1_555 1_555
C48B C49B 1_555 1_555
C51B C52B 1_555 1_555
C53B C54B 1_555 1_555
C57B C58B 1_555 1_555
C60B C61B 1_555 1_555
C62B C63B 1_555 1_555
C64B C65B 1_555 1_555
C66B C67B 1_555 1_555
C69B C70B 1_555 1_555
C71B C72B 1_555 1_555
C73B C74B 1_555 1_555
C75B C76B 1_555 1_555
C78B C79B 1_555 1_555
C80B C81B 1_555 1_555
C84B C85B 1_555 1_555
C87B C88B 1_555 1_555
C89B C90B 1_555 1_555
C91B C92B 1_555 1_555
C93B C94B 1_555 1_555
C96B C97B 1_555 1_555
C98B C99B 1_555 1_555
C100B C101B 1_555 1_555
C102B C103B 1_555 1_555
C105B C106B 1_555 1_555
C107B C108B 1_555 1_555

#END
