# generated using pymatgen
data_Fe8Ni6H192C232S19N36(ClO24)2
_symmetry_space_group_name_H-M   'P 1'
_cell_length_a   26.85100000
_cell_length_b   29.64400000
_cell_length_c   29.64400000
_cell_angle_alpha   90.00000000
_cell_angle_beta   90.00000000
_cell_angle_gamma   90.00000000
_symmetry_Int_Tables_number   1
_chemical_formula_structural   Fe8Ni6H192C232S19N36(ClO24)2
_chemical_formula_sum   'Fe16 Ni12 H384 C464 S38 N72 Cl4 O96'
_cell_volume   23595.76562834
_cell_formula_units_Z   2
loop_
 _symmetry_equiv_pos_site_id
 _symmetry_equiv_pos_as_xyz
  1  'x, y, z'
loop_
 _atom_site_type_symbol
 _atom_site_label
 _atom_site_symmetry_multiplicity
 _atom_site_fract_x
 _atom_site_fract_y
 _atom_site_fract_z
 _atom_site_occupancy
  Fe  Fe1  1  0.955040  0.479130  0.879080  1.0
  Fe  Fe2  1  0.955040  0.020870  0.620920  1.0
  Fe  Fe3  1  0.955040  0.620920  0.479130  1.0
  Fe  Fe4  1  0.955040  0.879080  0.020870  1.0
  Fe  Fe5  1  0.044960  0.520870  0.120920  1.0
  Fe  Fe6  1  0.044960  0.979130  0.379080  1.0
  Fe  Fe7  1  0.044960  0.379080  0.520870  1.0
  Fe  Fe8  1  0.044960  0.120920  0.979130  1.0
  Fe  Fe9  1  0.489550  0.616830  0.481500  1.0
  Fe  Fe10  1  0.489550  0.883170  0.018500  1.0
  Fe  Fe11  1  0.489550  0.018500  0.616830  1.0
  Fe  Fe12  1  0.489550  0.481500  0.883170  1.0
  Fe  Fe13  1  0.510450  0.383170  0.518500  1.0
  Fe  Fe14  1  0.510450  0.116830  0.981500  1.0
  Fe  Fe15  1  0.510450  0.981500  0.383170  1.0
  Fe  Fe16  1  0.510450  0.518500  0.116830  1.0
  Ni  Ni17  1  0.441270  0.750000  0.750000  1
  Ni  Ni18  1  0.558730  0.250000  0.250000  1
  Ni  Ni19  1  0.008000  0.750000  0.750000  1
  Ni  Ni20  1  0.992000  0.250000  0.250000  1
  Ni  Ni21  1  0.722380  0.501640  0.664190  1.0
  Ni  Ni22  1  0.722380  0.998360  0.835810  1.0
  Ni  Ni23  1  0.722380  0.835810  0.501640  1.0
  Ni  Ni24  1  0.722380  0.664190  0.998360  1.0
  Ni  Ni25  1  0.277620  0.498360  0.335810  1.0
  Ni  Ni26  1  0.277620  0.001640  0.164190  1.0
  Ni  Ni27  1  0.277620  0.164190  0.498360  1.0
  Ni  Ni28  1  0.277620  0.335810  0.001640  1.0
  H  H29  1  0.061200  0.494400  0.993000  1.0
  H  H30  1  0.061200  0.005600  0.507000  1.0
  H  H31  1  0.061200  0.507000  0.494400  1.0
  H  H32  1  0.061200  0.993000  0.005600  1.0
  H  H33  1  0.938800  0.505600  0.007000  1.0
  H  H34  1  0.938800  0.994400  0.493000  1.0
  H  H35  1  0.938800  0.493000  0.505600  1.0
  H  H36  1  0.938800  0.007000  0.994400  1.0
  H  H37  1  0.061200  0.548400  0.993600  1.0
  H  H38  1  0.061200  0.951600  0.506400  1.0
  H  H39  1  0.061200  0.506400  0.548400  1.0
  H  H40  1  0.061200  0.993600  0.951600  1.0
  H  H41  1  0.938800  0.451600  0.006400  1.0
  H  H42  1  0.938800  0.048400  0.493600  1.0
  H  H43  1  0.938800  0.493600  0.451600  1.0
  H  H44  1  0.938800  0.006400  0.048400  1.0
  H  H45  1  0.103200  0.521700  0.966200  1.0
  H  H46  1  0.103200  0.978300  0.533800  1.0
  H  H47  1  0.103200  0.533800  0.521700  1.0
  H  H48  1  0.103200  0.966200  0.978300  1.0
  H  H49  1  0.896800  0.478300  0.033800  1.0
  H  H50  1  0.896800  0.021700  0.466200  1.0
  H  H51  1  0.896800  0.466200  0.478300  1.0
  H  H52  1  0.896800  0.033800  0.021700  1.0
  H  H53  1  0.399500  0.732200  0.514500  1.0
  H  H54  1  0.399500  0.767800  0.985500  1.0
  H  H55  1  0.399500  0.985500  0.732200  1.0
  H  H56  1  0.399500  0.514500  0.767800  1.0
  H  H57  1  0.600500  0.267800  0.485500  1.0
  H  H58  1  0.600500  0.232200  0.014500  1.0
  H  H59  1  0.600500  0.014500  0.267800  1.0
  H  H60  1  0.600500  0.485500  0.232200  1.0
  H  H61  1  0.054200  0.587200  0.916100  1.0
  H  H62  1  0.054200  0.912800  0.583900  1.0
  H  H63  1  0.054200  0.583900  0.587200  1.0
  H  H64  1  0.054200  0.916100  0.912800  1.0
  H  H65  1  0.945800  0.412800  0.083900  1.0
  H  H66  1  0.945800  0.087200  0.416100  1.0
  H  H67  1  0.945800  0.416100  0.412800  1.0
  H  H68  1  0.945800  0.083900  0.087200  1.0
  H  H69  1  0.951200  0.595100  0.799100  1.0
  H  H70  1  0.951200  0.904900  0.700900  1.0
  H  H71  1  0.951200  0.700900  0.595100  1.0
  H  H72  1  0.951200  0.799100  0.904900  1.0
  H  H73  1  0.048800  0.404900  0.200900  1.0
  H  H74  1  0.048800  0.095100  0.299100  1.0
  H  H75  1  0.048800  0.299100  0.404900  1.0
  H  H76  1  0.048800  0.200900  0.095100  1.0
  H  H77  1  0.950800  0.661700  0.760300  1.0
  H  H78  1  0.950800  0.838300  0.739700  1.0
  H  H79  1  0.950800  0.739700  0.661700  1.0
  H  H80  1  0.950800  0.760300  0.838300  1.0
  H  H81  1  0.049200  0.338300  0.239700  1.0
  H  H82  1  0.049200  0.161700  0.260300  1.0
  H  H83  1  0.049200  0.260300  0.338300  1.0
  H  H84  1  0.049200  0.239700  0.161700  1.0
  H  H85  1  0.064100  0.706900  0.828800  1.0
  H  H86  1  0.064100  0.793100  0.671200  1.0
  H  H87  1  0.064100  0.671200  0.706900  1.0
  H  H88  1  0.064100  0.828800  0.793100  1.0
  H  H89  1  0.935900  0.293100  0.171200  1.0
  H  H90  1  0.935900  0.206900  0.328800  1.0
  H  H91  1  0.935900  0.328800  0.293100  1.0
  H  H92  1  0.935900  0.171200  0.206900  1.0
  H  H93  1  0.066100  0.639700  0.872100  1.0
  H  H94  1  0.066100  0.860300  0.627900  1.0
  H  H95  1  0.066100  0.627900  0.639700  1.0
  H  H96  1  0.066100  0.872100  0.860300  1.0
  H  H97  1  0.933900  0.360300  0.127900  1.0
  H  H98  1  0.933900  0.139700  0.372100  1.0
  H  H99  1  0.933900  0.372100  0.360300  1.0
  H  H100  1  0.933900  0.127900  0.139700  1.0
  H  H101  1  0.877700  0.351300  0.915500  1.0
  H  H102  1  0.877700  0.148700  0.584500  1.0
  H  H103  1  0.877700  0.584500  0.351300  1.0
  H  H104  1  0.877700  0.915500  0.148700  1.0
  H  H105  1  0.122300  0.648700  0.084500  1.0
  H  H106  1  0.122300  0.851300  0.415500  1.0
  H  H107  1  0.122300  0.415500  0.648700  1.0
  H  H108  1  0.122300  0.084500  0.851300  1.0
  H  H109  1  0.833600  0.370200  0.946400  1.0
  H  H110  1  0.833600  0.129800  0.553600  1.0
  H  H111  1  0.833600  0.553600  0.370200  1.0
  H  H112  1  0.833600  0.946400  0.129800  1.0
  H  H113  1  0.166400  0.629800  0.053600  1.0
  H  H114  1  0.166400  0.870200  0.446400  1.0
  H  H115  1  0.166400  0.446400  0.629800  1.0
  H  H116  1  0.166400  0.053600  0.870200  1.0
  H  H117  1  0.887200  0.360800  0.967900  1.0
  H  H118  1  0.887200  0.139200  0.532100  1.0
  H  H119  1  0.887200  0.532100  0.360800  1.0
  H  H120  1  0.887200  0.967900  0.139200  1.0
  H  H121  1  0.112800  0.639200  0.032100  1.0
  H  H122  1  0.112800  0.860800  0.467900  1.0
  H  H123  1  0.112800  0.467900  0.639200  1.0
  H  H124  1  0.112800  0.032100  0.860800  1.0
  H  H125  1  0.820300  0.448000  0.951800  1.0
  H  H126  1  0.820300  0.052000  0.548200  1.0
  H  H127  1  0.820300  0.548200  0.448000  1.0
  H  H128  1  0.820300  0.951800  0.052000  1.0
  H  H129  1  0.179700  0.552000  0.048200  1.0
  H  H130  1  0.179700  0.948000  0.451800  1.0
  H  H131  1  0.179700  0.451800  0.552000  1.0
  H  H132  1  0.179700  0.048200  0.948000  1.0
  H  H133  1  0.789400  0.501700  0.995800  1.0
  H  H134  1  0.789400  0.998300  0.504200  1.0
  H  H135  1  0.789400  0.504200  0.501700  1.0
  H  H136  1  0.789400  0.995800  0.998300  1.0
  H  H137  1  0.210600  0.498300  0.004200  1.0
  H  H138  1  0.210600  0.001700  0.495800  1.0
  H  H139  1  0.210600  0.495800  0.498300  1.0
  H  H140  1  0.210600  0.004200  0.001700  1.0
  H  H141  1  0.739100  0.561100  0.018300  1.0
  H  H142  1  0.739100  0.938900  0.481700  1.0
  H  H143  1  0.739100  0.481700  0.561100  1.0
  H  H144  1  0.739100  0.018300  0.938900  1.0
  H  H145  1  0.260900  0.438900  0.981700  1.0
  H  H146  1  0.260900  0.061100  0.518300  1.0
  H  H147  1  0.260900  0.518300  0.438900  1.0
  H  H148  1  0.260900  0.981700  0.061100  1.0
  H  H149  1  0.810100  0.644300  0.934500  1.0
  H  H150  1  0.810100  0.855700  0.565500  1.0
  H  H151  1  0.810100  0.565500  0.644300  1.0
  H  H152  1  0.810100  0.934500  0.855700  1.0
  H  H153  1  0.189900  0.355700  0.065500  1.0
  H  H154  1  0.189900  0.144300  0.434500  1.0
  H  H155  1  0.189900  0.434500  0.355700  1.0
  H  H156  1  0.189900  0.065500  0.144300  1.0
  H  H157  1  0.858600  0.587100  0.909000  1.0
  H  H158  1  0.858600  0.912900  0.591000  1.0
  H  H159  1  0.858600  0.591000  0.587100  1.0
  H  H160  1  0.858600  0.909000  0.912900  1.0
  H  H161  1  0.141400  0.412900  0.091000  1.0
  H  H162  1  0.141400  0.087100  0.409000  1.0
  H  H163  1  0.141400  0.409000  0.412900  1.0
  H  H164  1  0.141400  0.091000  0.087100  1.0
  H  H165  1  0.039400  0.410600  0.746000  1.0
  H  H166  1  0.039400  0.089400  0.754000  1.0
  H  H167  1  0.039400  0.754000  0.410600  1.0
  H  H168  1  0.039400  0.746000  0.089400  1.0
  H  H169  1  0.960600  0.589400  0.254000  1.0
  H  H170  1  0.960600  0.910600  0.246000  1.0
  H  H171  1  0.960600  0.246000  0.589400  1.0
  H  H172  1  0.960600  0.254000  0.910600  1.0
  H  H173  1  0.051200  0.384700  0.792100  1.0
  H  H174  1  0.051200  0.115300  0.707900  1.0
  H  H175  1  0.051200  0.707900  0.384700  1.0
  H  H176  1  0.051200  0.792100  0.115300  1.0
  H  H177  1  0.948800  0.615300  0.207900  1.0
  H  H178  1  0.948800  0.884700  0.292100  1.0
  H  H179  1  0.948800  0.292100  0.615300  1.0
  H  H180  1  0.948800  0.207900  0.884700  1.0
  H  H181  1  0.072700  0.434300  0.784000  1.0
  H  H182  1  0.072700  0.065700  0.716000  1.0
  H  H183  1  0.072700  0.716000  0.434300  1.0
  H  H184  1  0.072700  0.784000  0.065700  1.0
  H  H185  1  0.927300  0.565700  0.216000  1.0
  H  H186  1  0.927300  0.934300  0.284000  1.0
  H  H187  1  0.927300  0.284000  0.565700  1.0
  H  H188  1  0.927300  0.216000  0.934300  1.0
  H  H189  1  0.960800  0.439600  0.740600  1.0
  H  H190  1  0.960800  0.060400  0.759400  1.0
  H  H191  1  0.960800  0.759400  0.439600  1.0
  H  H192  1  0.960800  0.740600  0.060400  1.0
  H  H193  1  0.039200  0.560400  0.259400  1.0
  H  H194  1  0.039200  0.939600  0.240600  1.0
  H  H195  1  0.039200  0.240600  0.560400  1.0
  H  H196  1  0.039200  0.259400  0.939600  1.0
  H  H197  1  0.890500  0.433200  0.701900  1.0
  H  H198  1  0.890500  0.066800  0.798100  1.0
  H  H199  1  0.890500  0.798100  0.433200  1.0
  H  H200  1  0.890500  0.701900  0.066800  1.0
  H  H201  1  0.109500  0.566800  0.298100  1.0
  H  H202  1  0.109500  0.933200  0.201900  1.0
  H  H203  1  0.109500  0.201900  0.566800  1.0
  H  H204  1  0.109500  0.298100  0.933200  1.0
  H  H205  1  0.822600  0.451500  0.659700  1.0
  H  H206  1  0.822600  0.048500  0.840300  1.0
  H  H207  1  0.822600  0.840300  0.451500  1.0
  H  H208  1  0.822600  0.659700  0.048500  1.0
  H  H209  1  0.177400  0.548500  0.340300  1.0
  H  H210  1  0.177400  0.951500  0.159700  1.0
  H  H211  1  0.177400  0.159700  0.548500  1.0
  H  H212  1  0.177400  0.340300  0.951500  1.0
  H  H213  1  0.765500  0.526300  0.755500  1.0
  H  H214  1  0.765500  0.973700  0.744500  1.0
  H  H215  1  0.765500  0.744500  0.526300  1.0
  H  H216  1  0.765500  0.755500  0.973700  1.0
  H  H217  1  0.234500  0.473700  0.244500  1.0
  H  H218  1  0.234500  0.026300  0.255500  1.0
  H  H219  1  0.234500  0.255500  0.473700  1.0
  H  H220  1  0.234500  0.244500  0.026300  1.0
  H  H221  1  0.831600  0.509500  0.803600  1.0
  H  H222  1  0.831600  0.990500  0.696400  1.0
  H  H223  1  0.831600  0.696400  0.509500  1.0
  H  H224  1  0.831600  0.803600  0.990500  1.0
  H  H225  1  0.168400  0.490500  0.196400  1.0
  H  H226  1  0.168400  0.009500  0.303600  1.0
  H  H227  1  0.168400  0.303600  0.490500  1.0
  H  H228  1  0.168400  0.196400  0.009500  1.0
  H  H229  1  0.587900  0.544500  0.375200  1.0
  H  H230  1  0.587900  0.955500  0.124800  1.0
  H  H231  1  0.587900  0.124800  0.544500  1.0
  H  H232  1  0.587900  0.375200  0.955500  1.0
  H  H233  1  0.412100  0.455500  0.624800  1.0
  H  H234  1  0.412100  0.044500  0.875200  1.0
  H  H235  1  0.412100  0.875200  0.455500  1.0
  H  H236  1  0.412100  0.624800  0.044500  1.0
  H  H237  1  0.597200  0.588400  0.344800  1.0
  H  H238  1  0.597200  0.911600  0.155200  1.0
  H  H239  1  0.597200  0.155200  0.588400  1.0
  H  H240  1  0.597200  0.344800  0.911600  1.0
  H  H241  1  0.402800  0.411600  0.655200  1.0
  H  H242  1  0.402800  0.088400  0.844800  1.0
  H  H243  1  0.402800  0.844800  0.411600  1.0
  H  H244  1  0.402800  0.655200  0.088400  1.0
  H  H245  1  0.543500  0.564900  0.345500  1.0
  H  H246  1  0.543500  0.935100  0.154500  1.0
  H  H247  1  0.543500  0.154500  0.564900  1.0
  H  H248  1  0.543500  0.345500  0.935100  1.0
  H  H249  1  0.456500  0.435100  0.654500  1.0
  H  H250  1  0.456500  0.064900  0.845500  1.0
  H  H251  1  0.456500  0.845500  0.435100  1.0
  H  H252  1  0.456500  0.654500  0.064900  1.0
  H  H253  1  0.620800  0.640500  0.401300  1.0
  H  H254  1  0.620800  0.859500  0.098700  1.0
  H  H255  1  0.620800  0.098700  0.640500  1.0
  H  H256  1  0.620800  0.401300  0.859500  1.0
  H  H257  1  0.379200  0.359500  0.598700  1.0
  H  H258  1  0.379200  0.140500  0.901300  1.0
  H  H259  1  0.379200  0.901300  0.359500  1.0
  H  H260  1  0.379200  0.598700  0.140500  1.0
  H  H261  1  0.656900  0.707900  0.403600  1.0
  H  H262  1  0.656900  0.792100  0.096400  1.0
  H  H263  1  0.656900  0.096400  0.707900  1.0
  H  H264  1  0.656900  0.403600  0.792100  1.0
  H  H265  1  0.343100  0.292100  0.596400  1.0
  H  H266  1  0.343100  0.207900  0.903600  1.0
  H  H267  1  0.343100  0.903600  0.292100  1.0
  H  H268  1  0.343100  0.596400  0.207900  1.0
  H  H269  1  0.703900  0.769000  0.423900  1.0
  H  H270  1  0.703900  0.731000  0.076100  1.0
  H  H271  1  0.703900  0.076100  0.769000  1.0
  H  H272  1  0.703900  0.423900  0.731000  1.0
  H  H273  1  0.296100  0.231000  0.576100  1.0
  H  H274  1  0.296100  0.269000  0.923900  1.0
  H  H275  1  0.296100  0.923900  0.231000  1.0
  H  H276  1  0.296100  0.576100  0.269000  1.0
  H  H277  1  0.637300  0.780300  0.538900  1.0
  H  H278  1  0.637300  0.719700  0.961100  1.0
  H  H279  1  0.637300  0.961100  0.780300  1.0
  H  H280  1  0.637300  0.538900  0.719700  1.0
  H  H281  1  0.362700  0.219700  0.461100  1.0
  H  H282  1  0.362700  0.280300  0.038900  1.0
  H  H283  1  0.362700  0.038900  0.219700  1.0
  H  H284  1  0.362700  0.461100  0.280300  1.0
  H  H285  1  0.586400  0.719100  0.523500  1.0
  H  H286  1  0.586400  0.780900  0.976500  1.0
  H  H287  1  0.586400  0.976500  0.719100  1.0
  H  H288  1  0.586400  0.523500  0.780900  1.0
  H  H289  1  0.413600  0.280900  0.476500  1.0
  H  H290  1  0.413600  0.219100  0.023500  1.0
  H  H291  1  0.413600  0.023500  0.280900  1.0
  H  H292  1  0.413600  0.476500  0.219100  1.0
  H  H293  1  0.403700  0.718900  0.401600  1.0
  H  H294  1  0.403700  0.781100  0.098400  1.0
  H  H295  1  0.403700  0.098400  0.718900  1.0
  H  H296  1  0.403700  0.401600  0.781100  1.0
  H  H297  1  0.596300  0.281100  0.598400  1.0
  H  H298  1  0.596300  0.218900  0.901600  1.0
  H  H299  1  0.596300  0.901600  0.281100  1.0
  H  H300  1  0.596300  0.598400  0.218900  1.0
  H  H301  1  0.373800  0.743500  0.441300  1.0
  H  H302  1  0.373800  0.756500  0.058700  1.0
  H  H303  1  0.373800  0.058700  0.743500  1.0
  H  H304  1  0.373800  0.441300  0.756500  1.0
  H  H305  1  0.626200  0.256500  0.558700  1.0
  H  H306  1  0.626200  0.243500  0.941300  1.0
  H  H307  1  0.626200  0.941300  0.256500  1.0
  H  H308  1  0.626200  0.558700  0.243500  1.0
  H  H309  1  0.354000  0.696600  0.421500  1.0
  H  H310  1  0.354000  0.803400  0.078500  1.0
  H  H311  1  0.354000  0.078500  0.696600  1.0
  H  H312  1  0.354000  0.421500  0.803400  1.0
  H  H313  1  0.646000  0.303400  0.578500  1.0
  H  H314  1  0.646000  0.196600  0.921500  1.0
  H  H315  1  0.646000  0.921500  0.303400  1.0
  H  H316  1  0.646000  0.578500  0.196600  1.0
  H  H317  1  0.381400  0.744000  0.586000  1.0
  H  H318  1  0.381400  0.756000  0.914000  1.0
  H  H319  1  0.381400  0.914000  0.744000  1.0
  H  H320  1  0.381400  0.586000  0.756000  1.0
  H  H321  1  0.618600  0.256000  0.414000  1.0
  H  H322  1  0.618600  0.244000  0.086000  1.0
  H  H323  1  0.618600  0.086000  0.256000  1.0
  H  H324  1  0.618600  0.414000  0.244000  1.0
  H  H325  1  0.385600  0.767600  0.661600  1.0
  H  H326  1  0.385600  0.732400  0.838400  1.0
  H  H327  1  0.385600  0.838400  0.767600  1.0
  H  H328  1  0.385600  0.661600  0.732400  1.0
  H  H329  1  0.614400  0.232400  0.338400  1.0
  H  H330  1  0.614400  0.267600  0.161600  1.0
  H  H331  1  0.614400  0.161600  0.232400  1.0
  H  H332  1  0.614400  0.338400  0.267600  1.0
  H  H333  1  0.498200  0.688000  0.687000  1.0
  H  H334  1  0.498200  0.812000  0.813000  1.0
  H  H335  1  0.498200  0.813000  0.688000  1.0
  H  H336  1  0.498200  0.687000  0.812000  1.0
  H  H337  1  0.501800  0.312000  0.313000  1.0
  H  H338  1  0.501800  0.188000  0.187000  1.0
  H  H339  1  0.501800  0.187000  0.312000  1.0
  H  H340  1  0.501800  0.313000  0.188000  1.0
  H  H341  1  0.501600  0.665000  0.611700  1.0
  H  H342  1  0.501600  0.835000  0.888300  1.0
  H  H343  1  0.501600  0.888300  0.665000  1.0
  H  H344  1  0.501600  0.611700  0.835000  1.0
  H  H345  1  0.498400  0.335000  0.388300  1.0
  H  H346  1  0.498400  0.165000  0.111700  1.0
  H  H347  1  0.498400  0.111700  0.335000  1.0
  H  H348  1  0.498400  0.388300  0.165000  1.0
  H  H349  1  0.381100  0.517900  0.560100  1.0
  H  H350  1  0.381100  0.982100  0.939900  1.0
  H  H351  1  0.381100  0.939900  0.517900  1.0
  H  H352  1  0.381100  0.560100  0.982100  1.0
  H  H353  1  0.618900  0.482100  0.439900  1.0
  H  H354  1  0.618900  0.017900  0.060100  1.0
  H  H355  1  0.618900  0.060100  0.482100  1.0
  H  H356  1  0.618900  0.439900  0.017900  1.0
  H  H357  1  0.403400  0.477600  0.530400  1.0
  H  H358  1  0.403400  0.022400  0.969600  1.0
  H  H359  1  0.403400  0.969600  0.477600  1.0
  H  H360  1  0.403400  0.530400  0.022400  1.0
  H  H361  1  0.596600  0.522400  0.469600  1.0
  H  H362  1  0.596600  0.977600  0.030400  1.0
  H  H363  1  0.596600  0.030400  0.522400  1.0
  H  H364  1  0.596600  0.469600  0.977600  1.0
  H  H365  1  0.371600  0.516700  0.506900  1.0
  H  H366  1  0.371600  0.983300  0.993100  1.0
  H  H367  1  0.371600  0.993100  0.516700  1.0
  H  H368  1  0.371600  0.506900  0.983300  1.0
  H  H369  1  0.628400  0.483300  0.493100  1.0
  H  H370  1  0.628400  0.016700  0.006900  1.0
  H  H371  1  0.628400  0.006900  0.483300  1.0
  H  H372  1  0.628400  0.493100  0.016700  1.0
  H  H373  1  0.479800  0.510900  0.577800  1.0
  H  H374  1  0.479800  0.989100  0.922200  1.0
  H  H375  1  0.479800  0.922200  0.510900  1.0
  H  H376  1  0.479800  0.577800  0.989100  1.0
  H  H377  1  0.520200  0.489100  0.422200  1.0
  H  H378  1  0.520200  0.010900  0.077800  1.0
  H  H379  1  0.520200  0.077800  0.489100  1.0
  H  H380  1  0.520200  0.422200  0.010900  1.0
  H  H381  1  0.551000  0.474600  0.596500  1.0
  H  H382  1  0.551000  0.025400  0.903500  1.0
  H  H383  1  0.551000  0.903500  0.474600  1.0
  H  H384  1  0.551000  0.596500  0.025400  1.0
  H  H385  1  0.449000  0.525400  0.403500  1.0
  H  H386  1  0.449000  0.974600  0.096500  1.0
  H  H387  1  0.449000  0.096500  0.525400  1.0
  H  H388  1  0.449000  0.403500  0.974600  1.0
  H  H389  1  0.622900  0.458600  0.636500  1.0
  H  H390  1  0.622900  0.041400  0.863500  1.0
  H  H391  1  0.622900  0.863500  0.458600  1.0
  H  H392  1  0.622900  0.636500  0.041400  1.0
  H  H393  1  0.377100  0.541400  0.363500  1.0
  H  H394  1  0.377100  0.958600  0.136500  1.0
  H  H395  1  0.377100  0.136500  0.541400  1.0
  H  H396  1  0.377100  0.363500  0.958600  1.0
  H  H397  1  0.680400  0.577600  0.606600  1.0
  H  H398  1  0.680400  0.922400  0.893400  1.0
  H  H399  1  0.680400  0.893400  0.577600  1.0
  H  H400  1  0.680400  0.606600  0.922400  1.0
  H  H401  1  0.319600  0.422400  0.393400  1.0
  H  H402  1  0.319600  0.077600  0.106600  1.0
  H  H403  1  0.319600  0.106600  0.422400  1.0
  H  H404  1  0.319600  0.393400  0.077600  1.0
  H  H405  1  0.611100  0.594800  0.562600  1.0
  H  H406  1  0.611100  0.905200  0.937400  1.0
  H  H407  1  0.611100  0.937400  0.594800  1.0
  H  H408  1  0.611100  0.562600  0.905200  1.0
  H  H409  1  0.388900  0.405200  0.437400  1.0
  H  H410  1  0.388900  0.094800  0.062600  1.0
  H  H411  1  0.388900  0.062600  0.405200  1.0
  H  H412  1  0.388900  0.437400  0.094800  1.0
  C  C413  1  0.554200  0.750000  0.750000  1
  C  C414  1  0.445800  0.250000  0.250000  1
  C  C415  1  0.895900  0.750000  0.750000  1
  C  C416  1  0.104100  0.250000  0.250000  1
  C  C417  1  0.320400  0.750000  0.750000  1
  C  C418  1  0.679600  0.250000  0.250000  1
  C  C419  1  0.728000  0.398500  0.639000  1
  C  C420  1  0.728000  0.101500  0.861000  1
  C  C421  1  0.728000  0.861000  0.398500  1
  C  C422  1  0.728000  0.639000  0.101500  1
  C  C423  1  0.272000  0.601500  0.361000  1
  C  C424  1  0.272000  0.898500  0.139000  1
  C  C425  1  0.272000  0.139000  0.601500  1
  C  C426  1  0.272000  0.361000  0.898500  1
  C  C427  1  0.127200  0.750000  0.750000  1
  C  C428  1  0.872800  0.250000  0.250000  1
  C  C429  1  0.068200  0.521600  0.975300  1.0
  C  C430  1  0.068200  0.978400  0.524700  1.0
  C  C431  1  0.068200  0.524700  0.521600  1.0
  C  C432  1  0.068200  0.975300  0.978400  1.0
  C  C433  1  0.931800  0.478400  0.024700  1.0
  C  C434  1  0.931800  0.021600  0.475300  1.0
  C  C435  1  0.931800  0.475300  0.478400  1.0
  C  C436  1  0.931800  0.024700  0.021600  1.0
  C  C437  1  0.416100  0.704700  0.507760  1.0
  C  C438  1  0.416100  0.795300  0.992240  1.0
  C  C439  1  0.416100  0.992240  0.704700  1.0
  C  C440  1  0.416100  0.507760  0.795300  1.0
  C  C441  1  0.583900  0.295300  0.492240  1.0
  C  C442  1  0.583900  0.204700  0.007760  1.0
  C  C443  1  0.583900  0.007760  0.295300  1.0
  C  C444  1  0.583900  0.492240  0.204700  1.0
  C  C445  1  0.034800  0.522100  0.933000  1.0
  C  C446  1  0.034800  0.977900  0.567000  1.0
  C  C447  1  0.034800  0.567000  0.522100  1.0
  C  C448  1  0.034800  0.933000  0.977900  1.0
  C  C449  1  0.965200  0.477900  0.067000  1.0
  C  C450  1  0.965200  0.022100  0.433000  1.0
  C  C451  1  0.965200  0.433000  0.477900  1.0
  C  C452  1  0.965200  0.067000  0.022100  1.0
  C  C453  1  0.034500  0.562500  0.906300  1.0
  C  C454  1  0.034500  0.937500  0.593700  1.0
  C  C455  1  0.034500  0.593700  0.562500  1.0
  C  C456  1  0.034500  0.906300  0.937500  1.0
  C  C457  1  0.965500  0.437500  0.093700  1.0
  C  C458  1  0.965500  0.062500  0.406300  1.0
  C  C459  1  0.965500  0.406300  0.437500  1.0
  C  C460  1  0.965500  0.093700  0.062500  1.0
  C  C461  1  0.006800  0.567300  0.866800  1.0
  C  C462  1  0.006800  0.932700  0.633200  1.0
  C  C463  1  0.006800  0.633200  0.567300  1.0
  C  C464  1  0.006800  0.866800  0.932700  1.0
  C  C465  1  0.993200  0.432700  0.133200  1.0
  C  C466  1  0.993200  0.067300  0.366800  1.0
  C  C467  1  0.993200  0.366800  0.432700  1.0
  C  C468  1  0.993200  0.133200  0.067300  1.0
  C  C469  1  0.007500  0.610100  0.840500  1.0
  C  C470  1  0.007500  0.889900  0.659500  1.0
  C  C471  1  0.007500  0.659500  0.610100  1.0
  C  C472  1  0.007500  0.840500  0.889900  1.0
  C  C473  1  0.992500  0.389900  0.159500  1.0
  C  C474  1  0.992500  0.110100  0.340500  1.0
  C  C475  1  0.992500  0.340500  0.389900  1.0
  C  C476  1  0.992500  0.159500  0.110100  1.0
  C  C477  1  0.974900  0.617700  0.806600  1.0
  C  C478  1  0.974900  0.882300  0.693400  1.0
  C  C479  1  0.974900  0.693400  0.617700  1.0
  C  C480  1  0.974900  0.806600  0.882300  1.0
  C  C481  1  0.025100  0.382300  0.193400  1.0
  C  C482  1  0.025100  0.117700  0.306600  1.0
  C  C483  1  0.025100  0.306600  0.382300  1.0
  C  C484  1  0.025100  0.193400  0.117700  1.0
  C  C485  1  0.975500  0.657500  0.782800  1.0
  C  C486  1  0.975500  0.842500  0.717200  1.0
  C  C487  1  0.975500  0.717200  0.657500  1.0
  C  C488  1  0.975500  0.782800  0.842500  1.0
  C  C489  1  0.024500  0.342500  0.217200  1.0
  C  C490  1  0.024500  0.157500  0.282800  1.0
  C  C491  1  0.024500  0.282800  0.342500  1.0
  C  C492  1  0.024500  0.217200  0.157500  1.0
  C  C493  1  0.040600  0.683800  0.822400  1.0
  C  C494  1  0.040600  0.816200  0.677600  1.0
  C  C495  1  0.040600  0.677600  0.683800  1.0
  C  C496  1  0.040600  0.822400  0.816200  1.0
  C  C497  1  0.959400  0.316200  0.177600  1.0
  C  C498  1  0.959400  0.183800  0.322400  1.0
  C  C499  1  0.959400  0.322400  0.316200  1.0
  C  C500  1  0.959400  0.177600  0.183800  1.0
  C  C501  1  0.041900  0.643400  0.849000  1.0
  C  C502  1  0.041900  0.856600  0.651000  1.0
  C  C503  1  0.041900  0.651000  0.643400  1.0
  C  C504  1  0.041900  0.849000  0.856600  1.0
  C  C505  1  0.958100  0.356600  0.151000  1.0
  C  C506  1  0.958100  0.143400  0.349000  1.0
  C  C507  1  0.958100  0.349000  0.356600  1.0
  C  C508  1  0.958100  0.151000  0.143400  1.0
  C  C509  1  0.869500  0.371100  0.940900  1.0
  C  C510  1  0.869500  0.128900  0.559100  1.0
  C  C511  1  0.869500  0.559100  0.371100  1.0
  C  C512  1  0.869500  0.940900  0.128900  1.0
  C  C513  1  0.130500  0.628900  0.059100  1.0
  C  C514  1  0.130500  0.871100  0.440900  1.0
  C  C515  1  0.130500  0.440900  0.628900  1.0
  C  C516  1  0.130500  0.059100  0.871100  1.0
  C  C517  1  0.885300  0.419400  0.929700  1.0
  C  C518  1  0.885300  0.080600  0.570300  1.0
  C  C519  1  0.885300  0.570300  0.419400  1.0
  C  C520  1  0.885300  0.929700  0.080600  1.0
  C  C521  1  0.114700  0.580600  0.070300  1.0
  C  C522  1  0.114700  0.919400  0.429700  1.0
  C  C523  1  0.114700  0.429700  0.580600  1.0
  C  C524  1  0.114700  0.070300  0.919400  1.0
  C  C525  1  0.852200  0.454900  0.939800  1.0
  C  C526  1  0.852200  0.045100  0.560200  1.0
  C  C527  1  0.852200  0.560200  0.454900  1.0
  C  C528  1  0.852200  0.939800  0.045100  1.0
  C  C529  1  0.147800  0.545100  0.060200  1.0
  C  C530  1  0.147800  0.954900  0.439800  1.0
  C  C531  1  0.147800  0.439800  0.545100  1.0
  C  C532  1  0.147800  0.060200  0.954900  1.0
  C  C533  1  0.865100  0.500300  0.932720  1.0
  C  C534  1  0.865100  0.999700  0.567280  1.0
  C  C535  1  0.865100  0.567280  0.500300  1.0
  C  C536  1  0.865100  0.932720  0.999700  1.0
  C  C537  1  0.134900  0.499700  0.067280  1.0
  C  C538  1  0.134900  0.000300  0.432720  1.0
  C  C539  1  0.134900  0.432720  0.499700  1.0
  C  C540  1  0.134900  0.067280  0.000300  1.0
  C  C541  1  0.830400  0.536430  0.949800  1.0
  C  C542  1  0.830400  0.963570  0.550200  1.0
  C  C543  1  0.830400  0.550200  0.536430  1.0
  C  C544  1  0.830400  0.949800  0.963570  1.0
  C  C545  1  0.169600  0.463570  0.050200  1.0
  C  C546  1  0.169600  0.036430  0.449800  1.0
  C  C547  1  0.169600  0.449800  0.463570  1.0
  C  C548  1  0.169600  0.050200  0.036430  1.0
  C  C549  1  0.794000  0.530600  0.982600  1.0
  C  C550  1  0.794000  0.969400  0.517400  1.0
  C  C551  1  0.794000  0.517400  0.530600  1.0
  C  C552  1  0.794000  0.982600  0.969400  1.0
  C  C553  1  0.206000  0.469400  0.017400  1.0
  C  C554  1  0.206000  0.030600  0.482600  1.0
  C  C555  1  0.206000  0.482600  0.469400  1.0
  C  C556  1  0.206000  0.017400  0.030600  1.0
  C  C557  1  0.764200  0.566370  0.996400  1.0
  C  C558  1  0.764200  0.933630  0.503600  1.0
  C  C559  1  0.764200  0.503600  0.566370  1.0
  C  C560  1  0.764200  0.996400  0.933630  1.0
  C  C561  1  0.235800  0.433630  0.003600  1.0
  C  C562  1  0.235800  0.066370  0.496400  1.0
  C  C563  1  0.235800  0.496400  0.433630  1.0
  C  C564  1  0.235800  0.003600  0.066370  1.0
  C  C565  1  0.805500  0.615000  0.947000  1.0
  C  C566  1  0.805500  0.885000  0.553000  1.0
  C  C567  1  0.805500  0.553000  0.615000  1.0
  C  C568  1  0.805500  0.947000  0.885000  1.0
  C  C569  1  0.194500  0.385000  0.053000  1.0
  C  C570  1  0.194500  0.115000  0.447000  1.0
  C  C571  1  0.194500  0.447000  0.385000  1.0
  C  C572  1  0.194500  0.053000  0.115000  1.0
  C  C573  1  0.834700  0.581200  0.931900  1.0
  C  C574  1  0.834700  0.918800  0.568100  1.0
  C  C575  1  0.834700  0.568100  0.581200  1.0
  C  C576  1  0.834700  0.931900  0.918800  1.0
  C  C577  1  0.165300  0.418800  0.068100  1.0
  C  C578  1  0.165300  0.081200  0.431900  1.0
  C  C579  1  0.165300  0.431900  0.418800  1.0
  C  C580  1  0.165300  0.068100  0.081200  1.0
  C  C581  1  0.044400  0.414200  0.778500  1.0
  C  C582  1  0.044400  0.085800  0.721500  1.0
  C  C583  1  0.044400  0.721500  0.414200  1.0
  C  C584  1  0.044400  0.778500  0.085800  1.0
  C  C585  1  0.955600  0.585800  0.221500  1.0
  C  C586  1  0.955600  0.914200  0.278500  1.0
  C  C587  1  0.955600  0.278500  0.585800  1.0
  C  C588  1  0.955600  0.221500  0.914200  1.0
  C  C589  1  0.999000  0.433700  0.799000  1.0
  C  C590  1  0.999000  0.066300  0.701000  1.0
  C  C591  1  0.999000  0.701000  0.433700  1.0
  C  C592  1  0.999000  0.799000  0.066300  1.0
  C  C593  1  0.001000  0.566300  0.201000  1.0
  C  C594  1  0.001000  0.933700  0.299000  1.0
  C  C595  1  0.001000  0.299000  0.566300  1.0
  C  C596  1  0.001000  0.201000  0.933700  1.0
  C  C597  1  0.958100  0.444500  0.772200  1.0
  C  C598  1  0.958100  0.055500  0.727800  1.0
  C  C599  1  0.958100  0.727800  0.444500  1.0
  C  C600  1  0.958100  0.772200  0.055500  1.0
  C  C601  1  0.041900  0.555500  0.227800  1.0
  C  C602  1  0.041900  0.944500  0.272200  1.0
  C  C603  1  0.041900  0.272200  0.555500  1.0
  C  C604  1  0.041900  0.227800  0.944500  1.0
  C  C605  1  0.913700  0.461700  0.788300  1.0
  C  C606  1  0.913700  0.038300  0.711700  1.0
  C  C607  1  0.913700  0.711700  0.461700  1.0
  C  C608  1  0.913700  0.788300  0.038300  1.0
  C  C609  1  0.086300  0.538300  0.211700  1.0
  C  C610  1  0.086300  0.961700  0.288300  1.0
  C  C611  1  0.086300  0.288300  0.538300  1.0
  C  C612  1  0.086300  0.211700  0.961700  1.0
  C  C613  1  0.869700  0.470700  0.757080  1.0
  C  C614  1  0.869700  0.029300  0.742920  1.0
  C  C615  1  0.869700  0.742920  0.470700  1.0
  C  C616  1  0.869700  0.757080  0.029300  1.0
  C  C617  1  0.130300  0.529300  0.242920  1.0
  C  C618  1  0.130300  0.970700  0.257080  1.0
  C  C619  1  0.130300  0.257080  0.529300  1.0
  C  C620  1  0.130300  0.242920  0.970700  1.0
  C  C621  1  0.865400  0.452400  0.713900  1.0
  C  C622  1  0.865400  0.047600  0.786100  1.0
  C  C623  1  0.865400  0.786100  0.452400  1.0
  C  C624  1  0.865400  0.713900  0.047600  1.0
  C  C625  1  0.134600  0.547600  0.286100  1.0
  C  C626  1  0.134600  0.952400  0.213900  1.0
  C  C627  1  0.134600  0.213900  0.547600  1.0
  C  C628  1  0.134600  0.286100  0.952400  1.0
  C  C629  1  0.824300  0.463000  0.689600  1.0
  C  C630  1  0.824300  0.037000  0.810400  1.0
  C  C631  1  0.824300  0.810400  0.463000  1.0
  C  C632  1  0.824300  0.689600  0.037000  1.0
  C  C633  1  0.175700  0.537000  0.310400  1.0
  C  C634  1  0.175700  0.963000  0.189600  1.0
  C  C635  1  0.175700  0.189600  0.537000  1.0
  C  C636  1  0.175700  0.310400  0.963000  1.0
  C  C637  1  0.790800  0.506300  0.745150  1.0
  C  C638  1  0.790800  0.993700  0.754850  1.0
  C  C639  1  0.790800  0.754850  0.506300  1.0
  C  C640  1  0.790800  0.745150  0.993700  1.0
  C  C641  1  0.209200  0.493700  0.254850  1.0
  C  C642  1  0.209200  0.006300  0.245150  1.0
  C  C643  1  0.209200  0.245150  0.493700  1.0
  C  C644  1  0.209200  0.254850  0.006300  1.0
  C  C645  1  0.830700  0.497600  0.773800  1.0
  C  C646  1  0.830700  0.002400  0.726200  1.0
  C  C647  1  0.830700  0.726200  0.497600  1.0
  C  C648  1  0.830700  0.773800  0.002400  1.0
  C  C649  1  0.169300  0.502400  0.226200  1.0
  C  C650  1  0.169300  0.997600  0.273800  1.0
  C  C651  1  0.169300  0.273800  0.502400  1.0
  C  C652  1  0.169300  0.226200  0.997600  1.0
  C  C653  1  0.572900  0.572400  0.363600  1.0
  C  C654  1  0.572900  0.927600  0.136400  1.0
  C  C655  1  0.572900  0.136400  0.572400  1.0
  C  C656  1  0.572900  0.363600  0.927600  1.0
  C  C657  1  0.427100  0.427600  0.636400  1.0
  C  C658  1  0.427100  0.072400  0.863600  1.0
  C  C659  1  0.427100  0.863600  0.427600  1.0
  C  C660  1  0.427100  0.636400  0.072400  1.0
  C  C661  1  0.557400  0.602600  0.403300  1.0
  C  C662  1  0.557400  0.897400  0.096700  1.0
  C  C663  1  0.557400  0.096700  0.602600  1.0
  C  C664  1  0.557400  0.403300  0.897400  1.0
  C  C665  1  0.442600  0.397400  0.596700  1.0
  C  C666  1  0.442600  0.102600  0.903300  1.0
  C  C667  1  0.442600  0.903300  0.397400  1.0
  C  C668  1  0.442600  0.596700  0.102600  1.0
  C  C669  1  0.589800  0.637660  0.416610  1.0
  C  C670  1  0.589800  0.862340  0.083390  1.0
  C  C671  1  0.589800  0.083390  0.637660  1.0
  C  C672  1  0.589800  0.416610  0.862340  1.0
  C  C673  1  0.410200  0.362340  0.583390  1.0
  C  C674  1  0.410200  0.137660  0.916610  1.0
  C  C675  1  0.410200  0.916610  0.362340  1.0
  C  C676  1  0.410200  0.583390  0.137660  1.0
  C  C677  1  0.579300  0.667790  0.450250  1.0
  C  C678  1  0.579300  0.832210  0.049750  1.0
  C  C679  1  0.579300  0.049750  0.667790  1.0
  C  C680  1  0.579300  0.450250  0.832210  1.0
  C  C681  1  0.420700  0.332210  0.549750  1.0
  C  C682  1  0.420700  0.167790  0.950250  1.0
  C  C683  1  0.420700  0.950250  0.332210  1.0
  C  C684  1  0.420700  0.549750  0.167790  1.0
  C  C685  1  0.613800  0.706470  0.461030  1.0
  C  C686  1  0.613800  0.793530  0.038970  1.0
  C  C687  1  0.613800  0.038970  0.706470  1.0
  C  C688  1  0.613800  0.461030  0.793530  1.0
  C  C689  1  0.386200  0.293530  0.538970  1.0
  C  C690  1  0.386200  0.206470  0.961030  1.0
  C  C691  1  0.386200  0.961030  0.293530  1.0
  C  C692  1  0.386200  0.538970  0.206470  1.0
  C  C693  1  0.651300  0.722200  0.431800  1.0
  C  C694  1  0.651300  0.777800  0.068200  1.0
  C  C695  1  0.651300  0.068200  0.722200  1.0
  C  C696  1  0.651300  0.431800  0.777800  1.0
  C  C697  1  0.348700  0.277800  0.568200  1.0
  C  C698  1  0.348700  0.222200  0.931800  1.0
  C  C699  1  0.348700  0.931800  0.277800  1.0
  C  C700  1  0.348700  0.568200  0.222200  1.0
  C  C701  1  0.679400  0.758600  0.444700  1.0
  C  C702  1  0.679400  0.741400  0.055300  1.0
  C  C703  1  0.679400  0.055300  0.758600  1.0
  C  C704  1  0.679400  0.444700  0.741400  1.0
  C  C705  1  0.320600  0.241400  0.555300  1.0
  C  C706  1  0.320600  0.258600  0.944700  1.0
  C  C707  1  0.320600  0.944700  0.241400  1.0
  C  C708  1  0.320600  0.555300  0.258600  1.0
  C  C709  1  0.641200  0.765200  0.510800  1.0
  C  C710  1  0.641200  0.734800  0.989200  1.0
  C  C711  1  0.641200  0.989200  0.765200  1.0
  C  C712  1  0.641200  0.510800  0.734800  1.0
  C  C713  1  0.358800  0.234800  0.489200  1.0
  C  C714  1  0.358800  0.265200  0.010800  1.0
  C  C715  1  0.358800  0.010800  0.234800  1.0
  C  C716  1  0.358800  0.489200  0.265200  1.0
  C  C717  1  0.610100  0.728660  0.501700  1.0
  C  C718  1  0.610100  0.771340  0.998300  1.0
  C  C719  1  0.610100  0.998300  0.728660  1.0
  C  C720  1  0.610100  0.501700  0.771340  1.0
  C  C721  1  0.389900  0.271340  0.498300  1.0
  C  C722  1  0.389900  0.228660  0.001700  1.0
  C  C723  1  0.389900  0.001700  0.271340  1.0
  C  C724  1  0.389900  0.498300  0.228660  1.0
  C  C725  1  0.383800  0.714300  0.428900  1.0
  C  C726  1  0.383800  0.785700  0.071100  1.0
  C  C727  1  0.383800  0.071100  0.714300  1.0
  C  C728  1  0.383800  0.428900  0.785700  1.0
  C  C729  1  0.616200  0.285700  0.571100  1.0
  C  C730  1  0.616200  0.214300  0.928900  1.0
  C  C731  1  0.616200  0.928900  0.285700  1.0
  C  C732  1  0.616200  0.571100  0.214300  1.0
  C  C733  1  0.414400  0.689200  0.463440  1.0
  C  C734  1  0.414400  0.810800  0.036560  1.0
  C  C735  1  0.414400  0.036560  0.689200  1.0
  C  C736  1  0.414400  0.463440  0.810800  1.0
  C  C737  1  0.585600  0.310800  0.536560  1.0
  C  C738  1  0.585600  0.189200  0.963440  1.0
  C  C739  1  0.585600  0.963440  0.310800  1.0
  C  C740  1  0.585600  0.536560  0.189200  1.0
  C  C741  1  0.440900  0.682180  0.543670  1.0
  C  C742  1  0.440900  0.817820  0.956330  1.0
  C  C743  1  0.440900  0.956330  0.682180  1.0
  C  C744  1  0.440900  0.543670  0.817820  1.0
  C  C745  1  0.559100  0.317820  0.456330  1.0
  C  C746  1  0.559100  0.182180  0.043670  1.0
  C  C747  1  0.559100  0.043670  0.317820  1.0
  C  C748  1  0.559100  0.456330  0.182180  1.0
  C  C749  1  0.439900  0.699920  0.591280  1.0
  C  C750  1  0.439900  0.800080  0.908720  1.0
  C  C751  1  0.439900  0.908720  0.699920  1.0
  C  C752  1  0.439900  0.591280  0.800080  1.0
  C  C753  1  0.560100  0.300080  0.408720  1.0
  C  C754  1  0.560100  0.199920  0.091280  1.0
  C  C755  1  0.560100  0.091280  0.300080  1.0
  C  C756  1  0.560100  0.408720  0.199920  1.0
  C  C757  1  0.405700  0.731810  0.605800  1.0
  C  C758  1  0.405700  0.768190  0.894200  1.0
  C  C759  1  0.405700  0.894200  0.731810  1.0
  C  C760  1  0.405700  0.605800  0.768190  1.0
  C  C761  1  0.594300  0.268190  0.394200  1.0
  C  C762  1  0.594300  0.231810  0.105800  1.0
  C  C763  1  0.594300  0.105800  0.268190  1.0
  C  C764  1  0.594300  0.394200  0.231810  1.0
  C  C765  1  0.408600  0.745500  0.651600  1.0
  C  C766  1  0.408600  0.754500  0.848400  1.0
  C  C767  1  0.408600  0.848400  0.745500  1.0
  C  C768  1  0.408600  0.651600  0.754500  1.0
  C  C769  1  0.591400  0.254500  0.348400  1.0
  C  C770  1  0.591400  0.245500  0.151600  1.0
  C  C771  1  0.591400  0.151600  0.254500  1.0
  C  C772  1  0.591400  0.348400  0.245500  1.0
  C  C773  1  0.474500  0.699720  0.666320  1.0
  C  C774  1  0.474500  0.800280  0.833680  1.0
  C  C775  1  0.474500  0.833680  0.699720  1.0
  C  C776  1  0.474500  0.666320  0.800280  1.0
  C  C777  1  0.525500  0.300280  0.333680  1.0
  C  C778  1  0.525500  0.199720  0.166320  1.0
  C  C779  1  0.525500  0.166320  0.300280  1.0
  C  C780  1  0.525500  0.333680  0.199720  1.0
  C  C781  1  0.476100  0.684990  0.621430  1.0
  C  C782  1  0.476100  0.815010  0.878570  1.0
  C  C783  1  0.476100  0.878570  0.684990  1.0
  C  C784  1  0.476100  0.621430  0.815010  1.0
  C  C785  1  0.523900  0.315010  0.378570  1.0
  C  C786  1  0.523900  0.184990  0.121430  1.0
  C  C787  1  0.523900  0.121430  0.315010  1.0
  C  C788  1  0.523900  0.378570  0.184990  1.0
  C  C789  1  0.395600  0.509800  0.530850  1.0
  C  C790  1  0.395600  0.990200  0.969150  1.0
  C  C791  1  0.395600  0.969150  0.509800  1.0
  C  C792  1  0.395600  0.530850  0.990200  1.0
  C  C793  1  0.604400  0.490200  0.469150  1.0
  C  C794  1  0.604400  0.009800  0.030850  1.0
  C  C795  1  0.604400  0.030850  0.490200  1.0
  C  C796  1  0.604400  0.469150  0.009800  1.0
  C  C797  1  0.442000  0.536380  0.523450  1.0
  C  C798  1  0.442000  0.963620  0.976550  1.0
  C  C799  1  0.442000  0.976550  0.536380  1.0
  C  C800  1  0.442000  0.523450  0.963620  1.0
  C  C801  1  0.558000  0.463620  0.476550  1.0
  C  C802  1  0.558000  0.036380  0.023450  1.0
  C  C803  1  0.558000  0.023450  0.463620  1.0
  C  C804  1  0.558000  0.476550  0.036380  1.0
  C  C805  1  0.483700  0.530200  0.552400  1.0
  C  C806  1  0.483700  0.969800  0.947600  1.0
  C  C807  1  0.483700  0.947600  0.530200  1.0
  C  C808  1  0.483700  0.552400  0.969800  1.0
  C  C809  1  0.516300  0.469800  0.447600  1.0
  C  C810  1  0.516300  0.030200  0.052400  1.0
  C  C811  1  0.516300  0.052400  0.469800  1.0
  C  C812  1  0.516300  0.447600  0.030200  1.0
  C  C813  1  0.528600  0.550100  0.546040  1.0
  C  C814  1  0.528600  0.949900  0.953960  1.0
  C  C815  1  0.528600  0.953960  0.550100  1.0
  C  C816  1  0.528600  0.546040  0.949900  1.0
  C  C817  1  0.471400  0.449900  0.453960  1.0
  C  C818  1  0.471400  0.050100  0.046040  1.0
  C  C819  1  0.471400  0.046040  0.449900  1.0
  C  C820  1  0.471400  0.453960  0.050100  1.0
  C  C821  1  0.573500  0.536830  0.575070  1.0
  C  C822  1  0.573500  0.963170  0.924930  1.0
  C  C823  1  0.573500  0.924930  0.536830  1.0
  C  C824  1  0.573500  0.575070  0.963170  1.0
  C  C825  1  0.426500  0.463170  0.424930  1.0
  C  C826  1  0.426500  0.036830  0.075070  1.0
  C  C827  1  0.426500  0.075070  0.463170  1.0
  C  C828  1  0.426500  0.424930  0.036830  1.0
  C  C829  1  0.577300  0.495960  0.597570  1.0
  C  C830  1  0.577300  0.004040  0.902430  1.0
  C  C831  1  0.577300  0.902430  0.495960  1.0
  C  C832  1  0.577300  0.597570  0.004040  1.0
  C  C833  1  0.422700  0.504040  0.402430  1.0
  C  C834  1  0.422700  0.995960  0.097570  1.0
  C  C835  1  0.422700  0.097570  0.504040  1.0
  C  C836  1  0.422700  0.402430  0.995960  1.0
  C  C837  1  0.620400  0.486900  0.621630  1.0
  C  C838  1  0.620400  0.013100  0.878370  1.0
  C  C839  1  0.620400  0.878370  0.486900  1.0
  C  C840  1  0.620400  0.621630  0.013100  1.0
  C  C841  1  0.379600  0.513100  0.378370  1.0
  C  C842  1  0.379600  0.986900  0.121630  1.0
  C  C843  1  0.379600  0.121630  0.513100  1.0
  C  C844  1  0.379600  0.378370  0.986900  1.0
  C  C845  1  0.654400  0.556000  0.603960  1.0
  C  C846  1  0.654400  0.944000  0.896040  1.0
  C  C847  1  0.654400  0.896040  0.556000  1.0
  C  C848  1  0.654400  0.603960  0.944000  1.0
  C  C849  1  0.345600  0.444000  0.396040  1.0
  C  C850  1  0.345600  0.056000  0.103960  1.0
  C  C851  1  0.345600  0.103960  0.444000  1.0
  C  C852  1  0.345600  0.396040  0.056000  1.0
  C  C853  1  0.612600  0.566800  0.578130  1.0
  C  C854  1  0.612600  0.933200  0.921870  1.0
  C  C855  1  0.612600  0.921870  0.566800  1.0
  C  C856  1  0.612600  0.578130  0.933200  1.0
  C  C857  1  0.387400  0.433200  0.421870  1.0
  C  C858  1  0.387400  0.066800  0.078130  1.0
  C  C859  1  0.387400  0.078130  0.433200  1.0
  C  C860  1  0.387400  0.421870  0.066800  1.0
  C  C861  1  0.726000  0.603100  0.699800  1.0
  C  C862  1  0.726000  0.896900  0.800200  1.0
  C  C863  1  0.726000  0.800200  0.603100  1.0
  C  C864  1  0.726000  0.699800  0.896900  1.0
  C  C865  1  0.274000  0.396900  0.300200  1.0
  C  C866  1  0.274000  0.103100  0.199800  1.0
  C  C867  1  0.274000  0.199800  0.396900  1.0
  C  C868  1  0.274000  0.300200  0.103100  1.0
  C  C869  1  0.728000  0.400100  0.626200  1.0
  C  C870  1  0.728000  0.099900  0.873800  1.0
  C  C871  1  0.728000  0.873800  0.400100  1.0
  C  C872  1  0.728000  0.626200  0.099900  1.0
  C  C873  1  0.272000  0.599900  0.373800  1.0
  C  C874  1  0.272000  0.900100  0.126200  1.0
  C  C875  1  0.272000  0.126200  0.599900  1.0
  C  C876  1  0.272000  0.373800  0.900100  1.0
  S  S877  1  0.828900  0.750000  0.750000  1
  S  S878  1  0.171100  0.250000  0.250000  1
  S  S879  1  0.259100  0.750000  0.750000  1
  S  S880  1  0.740900  0.250000  0.250000  1
  S  S881  1  0.725900  0.342600  0.633800  1
  S  S882  1  0.725900  0.157400  0.866200  1
  S  S883  1  0.725900  0.866200  0.342600  1
  S  S884  1  0.725900  0.633800  0.157400  1
  S  S885  1  0.274100  0.657400  0.366200  1
  S  S886  1  0.274100  0.842600  0.133800  1
  S  S887  1  0.274100  0.133800  0.657400  1
  S  S888  1  0.274100  0.366200  0.842600  1
  S  S889  1  0.190700  0.750000  0.750000  1
  S  S890  1  0.809300  0.250000  0.250000  1
  S  S891  1  0.618100  0.760500  0.724200  1.0
  S  S892  1  0.618100  0.739500  0.775800  1.0
  S  S893  1  0.618100  0.775800  0.760500  1.0
  S  S894  1  0.618100  0.724200  0.739500  1.0
  S  S895  1  0.381900  0.239500  0.275800  1.0
  S  S896  1  0.381900  0.260500  0.224200  1.0
  S  S897  1  0.381900  0.224200  0.239500  1.0
  S  S898  1  0.381900  0.275800  0.260500  1.0
  S  S899  1  0.732750  0.656030  0.717200  1.0
  S  S900  1  0.732750  0.843970  0.782800  1.0
  S  S901  1  0.732750  0.782800  0.656030  1.0
  S  S902  1  0.732750  0.717200  0.843970  1.0
  S  S903  1  0.267250  0.343970  0.282800  1.0
  S  S904  1  0.267250  0.156030  0.217200  1.0
  S  S905  1  0.267250  0.217200  0.343970  1.0
  S  S906  1  0.267250  0.282800  0.156030  1.0
  S  S907  1  0.739800  0.350300  0.605800  1.0
  S  S908  1  0.739800  0.149700  0.894200  1.0
  S  S909  1  0.739800  0.894200  0.350300  1.0
  S  S910  1  0.739800  0.605800  0.149700  1.0
  S  S911  1  0.260200  0.649700  0.394200  1.0
  S  S912  1  0.260200  0.850300  0.105800  1.0
  S  S913  1  0.260200  0.105800  0.649700  1.0
  S  S914  1  0.260200  0.394200  0.850300  1.0
  N  N915  1  0.516800  0.750000  0.750000  1
  N  N916  1  0.483200  0.250000  0.250000  1
  N  N917  1  0.931800  0.750000  0.750000  1
  N  N918  1  0.068200  0.250000  0.250000  1
  N  N919  1  0.363730  0.750000  0.750000  1
  N  N920  1  0.636270  0.250000  0.250000  1
  N  N921  1  0.082400  0.750000  0.750000  1
  N  N922  1  0.917600  0.250000  0.250000  1
  N  N923  1  0.008400  0.690600  0.789400  1.0
  N  N924  1  0.008400  0.809400  0.710600  1.0
  N  N925  1  0.008400  0.710600  0.690600  1.0
  N  N926  1  0.008400  0.789400  0.809400  1.0
  N  N927  1  0.991600  0.309400  0.210600  1.0
  N  N928  1  0.991600  0.190600  0.289400  1.0
  N  N929  1  0.991600  0.289400  0.309400  1.0
  N  N930  1  0.991600  0.210600  0.190600  1.0
  N  N931  1  0.770100  0.609300  0.979050  1.0
  N  N932  1  0.770100  0.890700  0.520950  1.0
  N  N933  1  0.770100  0.520950  0.609300  1.0
  N  N934  1  0.770100  0.979050  0.890700  1.0
  N  N935  1  0.229900  0.390700  0.020950  1.0
  N  N936  1  0.229900  0.109300  0.479050  1.0
  N  N937  1  0.229900  0.479050  0.390700  1.0
  N  N938  1  0.229900  0.020950  0.109300  1.0
  N  N939  1  0.785660  0.488140  0.703500  1.0
  N  N940  1  0.785660  0.011860  0.796500  1.0
  N  N941  1  0.785660  0.796500  0.488140  1.0
  N  N942  1  0.785660  0.703500  0.011860  1.0
  N  N943  1  0.214340  0.511860  0.296500  1.0
  N  N944  1  0.214340  0.988140  0.203500  1.0
  N  N945  1  0.214340  0.203500  0.511860  1.0
  N  N946  1  0.214340  0.296500  0.988140  1.0
  N  N947  1  0.675780  0.780260  0.482710  1.0
  N  N948  1  0.675780  0.719740  0.017290  1.0
  N  N949  1  0.675780  0.017290  0.780260  1.0
  N  N950  1  0.675780  0.482710  0.719740  1.0
  N  N951  1  0.324220  0.219740  0.517290  1.0
  N  N952  1  0.324220  0.280260  0.982710  1.0
  N  N953  1  0.324220  0.982710  0.219740  1.0
  N  N954  1  0.324220  0.517290  0.280260  1.0
  N  N955  1  0.440990  0.729620  0.681510  1.0
  N  N956  1  0.440990  0.770380  0.818490  1.0
  N  N957  1  0.440990  0.818490  0.729620  1.0
  N  N958  1  0.440990  0.681510  0.770380  1.0
  N  N959  1  0.559010  0.270380  0.318490  1.0
  N  N960  1  0.559010  0.229620  0.181510  1.0
  N  N961  1  0.559010  0.181510  0.270380  1.0
  N  N962  1  0.559010  0.318490  0.229620  1.0
  N  N963  1  0.659270  0.516080  0.625280  1.0
  N  N964  1  0.659270  0.983920  0.874720  1.0
  N  N965  1  0.659270  0.874720  0.516080  1.0
  N  N966  1  0.659270  0.625280  0.983920  1.0
  N  N967  1  0.340730  0.483920  0.374720  1.0
  N  N968  1  0.340730  0.016080  0.125280  1.0
  N  N969  1  0.340730  0.125280  0.483920  1.0
  N  N970  1  0.340730  0.374720  0.016080  1.0
  N  N971  1  0.722360  0.567760  0.687280  1.0
  N  N972  1  0.722360  0.932240  0.812720  1.0
  N  N973  1  0.722360  0.812720  0.567760  1.0
  N  N974  1  0.722360  0.687280  0.932240  1.0
  N  N975  1  0.277640  0.432240  0.312720  1.0
  N  N976  1  0.277640  0.067760  0.187280  1.0
  N  N977  1  0.277640  0.187280  0.432240  1.0
  N  N978  1  0.277640  0.312720  0.067760  1.0
  N  N979  1  0.722590  0.435710  0.641460  1.0
  N  N980  1  0.722590  0.064290  0.858540  1.0
  N  N981  1  0.722590  0.858540  0.435710  1.0
  N  N982  1  0.722590  0.641460  0.064290  1.0
  N  N983  1  0.277410  0.564290  0.358540  1.0
  N  N984  1  0.277410  0.935710  0.141460  1.0
  N  N985  1  0.277410  0.141460  0.564290  1.0
  N  N986  1  0.277410  0.358540  0.935710  1.0
  Cl  Cl987  1  0.104800  0.750000  0.750000  1
  Cl  Cl988  1  0.895200  0.250000  0.250000  1
  Cl  Cl989  1  0.348530  0.750000  0.750000  1
  Cl  Cl990  1  0.651470  0.250000  0.250000  1
  O  O991  1  0.009600  0.486850  0.924810  1.0
  O  O992  1  0.009600  0.013150  0.575190  1.0
  O  O993  1  0.009600  0.575190  0.486850  1.0
  O  O994  1  0.009600  0.924810  0.013150  1.0
  O  O995  1  0.990400  0.513150  0.075190  1.0
  O  O996  1  0.990400  0.986850  0.424810  1.0
  O  O997  1  0.990400  0.424810  0.513150  1.0
  O  O998  1  0.990400  0.075190  0.986850  1.0
  O  O999  1  0.978350  0.536120  0.851130  1.0
  O  O1000  1  0.978350  0.963880  0.648870  1.0
  O  O1001  1  0.978350  0.648870  0.536120  1.0
  O  O1002  1  0.978350  0.851130  0.963880  1.0
  O  O1003  1  0.021650  0.463880  0.148870  1.0
  O  O1004  1  0.021650  0.036120  0.351130  1.0
  O  O1005  1  0.021650  0.351130  0.463880  1.0
  O  O1006  1  0.021650  0.148870  0.036120  1.0
  O  O1007  1  0.929500  0.424470  0.911500  1.0
  O  O1008  1  0.929500  0.075530  0.588500  1.0
  O  O1009  1  0.929500  0.588500  0.424470  1.0
  O  O1010  1  0.929500  0.911500  0.075530  1.0
  O  O1011  1  0.070500  0.575530  0.088500  1.0
  O  O1012  1  0.070500  0.924470  0.411500  1.0
  O  O1013  1  0.070500  0.411500  0.575530  1.0
  O  O1014  1  0.070500  0.088500  0.924470  1.0
  O  O1015  1  0.905430  0.514230  0.915280  1.0
  O  O1016  1  0.905430  0.985770  0.584720  1.0
  O  O1017  1  0.905430  0.584720  0.514230  1.0
  O  O1018  1  0.905430  0.915280  0.985770  1.0
  O  O1019  1  0.094570  0.485770  0.084720  1.0
  O  O1020  1  0.094570  0.014230  0.415280  1.0
  O  O1021  1  0.094570  0.415280  0.485770  1.0
  O  O1022  1  0.094570  0.084720  0.014230  1.0
  O  O1023  1  0.000850  0.440010  0.841400  1.0
  O  O1024  1  0.000850  0.059990  0.658600  1.0
  O  O1025  1  0.000850  0.658600  0.440010  1.0
  O  O1026  1  0.000850  0.841400  0.059990  1.0
  O  O1027  1  0.999150  0.559990  0.158600  1.0
  O  O1028  1  0.999150  0.940010  0.341400  1.0
  O  O1029  1  0.999150  0.341400  0.559990  1.0
  O  O1030  1  0.999150  0.158600  0.940010  1.0
  O  O1031  1  0.905600  0.472170  0.829710  1.0
  O  O1032  1  0.905600  0.027830  0.670290  1.0
  O  O1033  1  0.905600  0.670290  0.472170  1.0
  O  O1034  1  0.905600  0.829710  0.027830  1.0
  O  O1035  1  0.094400  0.527830  0.170290  1.0
  O  O1036  1  0.094400  0.972170  0.329710  1.0
  O  O1037  1  0.094400  0.329710  0.527830  1.0
  O  O1038  1  0.094400  0.170290  0.972170  1.0
  O  O1039  1  0.514900  0.593240  0.422420  1.0
  O  O1040  1  0.514900  0.906760  0.077580  1.0
  O  O1041  1  0.514900  0.077580  0.593240  1.0
  O  O1042  1  0.514900  0.422420  0.906760  1.0
  O  O1043  1  0.485100  0.406760  0.577580  1.0
  O  O1044  1  0.485100  0.093240  0.922420  1.0
  O  O1045  1  0.485100  0.922420  0.406760  1.0
  O  O1046  1  0.485100  0.577580  0.093240  1.0
  O  O1047  1  0.539430  0.666310  0.475390  1.0
  O  O1048  1  0.539430  0.833690  0.024610  1.0
  O  O1049  1  0.539430  0.024610  0.666310  1.0
  O  O1050  1  0.539430  0.475390  0.833690  1.0
  O  O1051  1  0.460570  0.333690  0.524610  1.0
  O  O1052  1  0.460570  0.166310  0.975390  1.0
  O  O1053  1  0.460570  0.975390  0.333690  1.0
  O  O1054  1  0.460570  0.524610  0.166310  1.0
  O  O1055  1  0.436130  0.653180  0.449340  1.0
  O  O1056  1  0.436130  0.846820  0.050660  1.0
  O  O1057  1  0.436130  0.050660  0.653180  1.0
  O  O1058  1  0.436130  0.449340  0.846820  1.0
  O  O1059  1  0.563870  0.346820  0.550660  1.0
  O  O1060  1  0.563870  0.153180  0.949340  1.0
  O  O1061  1  0.563870  0.949340  0.346820  1.0
  O  O1062  1  0.563870  0.550660  0.153180  1.0
  O  O1063  1  0.466340  0.646290  0.538490  1.0
  O  O1064  1  0.466340  0.853710  0.961510  1.0
  O  O1065  1  0.466340  0.961510  0.646290  1.0
  O  O1066  1  0.466340  0.538490  0.853710  1.0
  O  O1067  1  0.533660  0.353710  0.461510  1.0
  O  O1068  1  0.533660  0.146290  0.038490  1.0
  O  O1069  1  0.533660  0.038490  0.353710  1.0
  O  O1070  1  0.533660  0.461510  0.146290  1.0
  O  O1071  1  0.441910  0.564900  0.491540  1.0
  O  O1072  1  0.441910  0.935100  0.008460  1.0
  O  O1073  1  0.441910  0.008460  0.564900  1.0
  O  O1074  1  0.441910  0.491540  0.935100  1.0
  O  O1075  1  0.558090  0.435100  0.508460  1.0
  O  O1076  1  0.558090  0.064900  0.991540  1.0
  O  O1077  1  0.558090  0.991540  0.435100  1.0
  O  O1078  1  0.558090  0.508460  0.064900  1.0
  O  O1079  1  0.538350  0.581200  0.516620  1.0
  O  O1080  1  0.538350  0.918800  0.983380  1.0
  O  O1081  1  0.538350  0.983380  0.581200  1.0
  O  O1082  1  0.538350  0.516620  0.918800  1.0
  O  O1083  1  0.461650  0.418800  0.483380  1.0
  O  O1084  1  0.461650  0.081200  0.016620  1.0
  O  O1085  1  0.461650  0.016620  0.418800  1.0
  O  O1086  1  0.461650  0.483380  0.081200  1.0
