# generated using pymatgen
data_Fe4Cu3H106C108(N2O5)6
_symmetry_space_group_name_H-M   'P 1'
_cell_length_a   29.60510000
_cell_length_b   31.39620000
_cell_length_c   38.07830000
_cell_angle_alpha   90.00000000
_cell_angle_beta   90.00000000
_cell_angle_gamma   90.00000000
_symmetry_Int_Tables_number   1
_chemical_formula_structural   Fe4Cu3H106C108(N2O5)6
_chemical_formula_sum   'Fe32 Cu24 H848 C864 N96 O240'
_cell_volume   35393.30922582
_cell_formula_units_Z   8
loop_
 _symmetry_equiv_pos_site_id
 _symmetry_equiv_pos_as_xyz
  1  'x, y, z'
loop_
 _atom_site_type_symbol
 _atom_site_label
 _atom_site_symmetry_multiplicity
 _atom_site_fract_x
 _atom_site_fract_y
 _atom_site_fract_z
 _atom_site_occupancy
  Fe  Fe1  1  0.813500  0.240320  0.380690  1.0
  Fe  Fe2  1  0.686500  0.759680  0.380690  1.0
  Fe  Fe3  1  0.186500  0.240320  0.119310  1.0
  Fe  Fe4  1  0.313500  0.759680  0.119310  1.0
  Fe  Fe5  1  0.186500  0.759680  0.619310  1.0
  Fe  Fe6  1  0.313500  0.240320  0.619310  1.0
  Fe  Fe7  1  0.813500  0.759680  0.880690  1.0
  Fe  Fe8  1  0.686500  0.240320  0.880690  1.0
  Fe  Fe9  1  0.541730  0.977320  0.401040  1.0
  Fe  Fe10  1  0.958270  0.022680  0.401040  1.0
  Fe  Fe11  1  0.458270  0.977320  0.098960  1.0
  Fe  Fe12  1  0.041730  0.022680  0.098960  1.0
  Fe  Fe13  1  0.458270  0.022680  0.598960  1.0
  Fe  Fe14  1  0.041730  0.977320  0.598960  1.0
  Fe  Fe15  1  0.541730  0.022680  0.901040  1.0
  Fe  Fe16  1  0.958270  0.977320  0.901040  1.0
  Fe  Fe17  1  0.230570  0.269370  0.442060  1.0
  Fe  Fe18  1  0.269430  0.730630  0.442060  1.0
  Fe  Fe19  1  0.769430  0.269370  0.057940  1.0
  Fe  Fe20  1  0.730570  0.730630  0.057940  1.0
  Fe  Fe21  1  0.769430  0.730630  0.557940  1.0
  Fe  Fe22  1  0.730570  0.269370  0.557940  1.0
  Fe  Fe23  1  0.230570  0.730630  0.942060  1.0
  Fe  Fe24  1  0.269430  0.269370  0.942060  1.0
  Fe  Fe25  1  0.517080  0.534340  0.410870  1.0
  Fe  Fe26  1  0.982920  0.465660  0.410870  1.0
  Fe  Fe27  1  0.482920  0.534340  0.089130  1.0
  Fe  Fe28  1  0.017080  0.465660  0.089130  1.0
  Fe  Fe29  1  0.482920  0.465660  0.589130  1.0
  Fe  Fe30  1  0.017080  0.534340  0.589130  1.0
  Fe  Fe31  1  0.517080  0.465660  0.910870  1.0
  Fe  Fe32  1  0.982920  0.534340  0.910870  1.0
  Cu  Cu33  1  0.684920  0.083080  0.218540  1.0
  Cu  Cu34  1  0.815080  0.916920  0.218540  1.0
  Cu  Cu35  1  0.315080  0.083080  0.281460  1.0
  Cu  Cu36  1  0.184920  0.916920  0.281460  1.0
  Cu  Cu37  1  0.315080  0.916920  0.781460  1.0
  Cu  Cu38  1  0.184920  0.083080  0.781460  1.0
  Cu  Cu39  1  0.684920  0.916920  0.718540  1.0
  Cu  Cu40  1  0.815080  0.083080  0.718540  1.0
  Cu  Cu41  1  0.526430  0.255790  0.441730  1.0
  Cu  Cu42  1  0.973570  0.744210  0.441730  1.0
  Cu  Cu43  1  0.473570  0.255790  0.058270  1.0
  Cu  Cu44  1  0.026430  0.744210  0.058270  1.0
  Cu  Cu45  1  0.473570  0.744210  0.558270  1.0
  Cu  Cu46  1  0.026430  0.255790  0.558270  1.0
  Cu  Cu47  1  0.526430  0.744210  0.941730  1.0
  Cu  Cu48  1  0.973570  0.255790  0.941730  1.0
  Cu  Cu49  1  0.670230  0.416250  0.239830  1.0
  Cu  Cu50  1  0.829770  0.583750  0.239830  1.0
  Cu  Cu51  1  0.329770  0.416250  0.260170  1.0
  Cu  Cu52  1  0.170230  0.583750  0.260170  1.0
  Cu  Cu53  1  0.329770  0.583750  0.760170  1.0
  Cu  Cu54  1  0.170230  0.416250  0.760170  1.0
  Cu  Cu55  1  0.670230  0.583750  0.739830  1.0
  Cu  Cu56  1  0.829770  0.416250  0.739830  1.0
  H  H57  1  0.544600  0.278700  0.520800  1.0
  H  H58  1  0.955400  0.721300  0.520800  1.0
  H  H59  1  0.455400  0.278700  0.979200  1.0
  H  H60  1  0.044600  0.721300  0.979200  1.0
  H  H61  1  0.455400  0.721300  0.479200  1.0
  H  H62  1  0.044600  0.278700  0.479200  1.0
  H  H63  1  0.544600  0.721300  0.020800  1.0
  H  H64  1  0.955400  0.278700  0.020800  1.0
  H  H65  1  0.540900  0.227400  0.520100  1.0
  H  H66  1  0.959100  0.772600  0.520100  1.0
  H  H67  1  0.459100  0.227400  0.979900  1.0
  H  H68  1  0.040900  0.772600  0.979900  1.0
  H  H69  1  0.459100  0.772600  0.479900  1.0
  H  H70  1  0.040900  0.227400  0.479900  1.0
  H  H71  1  0.540900  0.772600  0.020100  1.0
  H  H72  1  0.959100  0.227400  0.020100  1.0
  H  H73  1  0.612700  0.342000  0.259600  1.0
  H  H74  1  0.887300  0.658000  0.259600  1.0
  H  H75  1  0.387300  0.342000  0.240400  1.0
  H  H76  1  0.112700  0.658000  0.240400  1.0
  H  H77  1  0.387300  0.658000  0.740400  1.0
  H  H78  1  0.112700  0.342000  0.740400  1.0
  H  H79  1  0.612700  0.658000  0.759600  1.0
  H  H80  1  0.887300  0.342000  0.759600  1.0
  H  H81  1  0.591400  0.359700  0.226700  1.0
  H  H82  1  0.908600  0.640300  0.226700  1.0
  H  H83  1  0.408600  0.359700  0.273300  1.0
  H  H84  1  0.091400  0.640300  0.273300  1.0
  H  H85  1  0.408600  0.640300  0.773300  1.0
  H  H86  1  0.091400  0.359700  0.773300  1.0
  H  H87  1  0.591400  0.640300  0.726700  1.0
  H  H88  1  0.908600  0.359700  0.726700  1.0
  H  H89  1  0.731000  0.502500  0.250100  1.0
  H  H90  1  0.769000  0.497500  0.250100  1.0
  H  H91  1  0.269000  0.502500  0.249900  1.0
  H  H92  1  0.231000  0.497500  0.249900  1.0
  H  H93  1  0.269000  0.497500  0.749900  1.0
  H  H94  1  0.231000  0.502500  0.749900  1.0
  H  H95  1  0.731000  0.497500  0.750100  1.0
  H  H96  1  0.769000  0.502500  0.750100  1.0
  H  H97  1  0.760700  0.473200  0.223800  1.0
  H  H98  1  0.739300  0.526800  0.223800  1.0
  H  H99  1  0.239300  0.473200  0.276200  1.0
  H  H100  1  0.260700  0.526800  0.276200  1.0
  H  H101  1  0.239300  0.526800  0.776200  1.0
  H  H102  1  0.260700  0.473200  0.776200  1.0
  H  H103  1  0.760700  0.526800  0.723800  1.0
  H  H104  1  0.739300  0.473200  0.723800  1.0
  H  H105  1  0.947300  0.245400  0.330800  1.0
  H  H106  1  0.552700  0.754600  0.330800  1.0
  H  H107  1  0.052700  0.245400  0.169200  1.0
  H  H108  1  0.447300  0.754600  0.169200  1.0
  H  H109  1  0.052700  0.754600  0.669200  1.0
  H  H110  1  0.447300  0.245400  0.669200  1.0
  H  H111  1  0.947300  0.754600  0.830800  1.0
  H  H112  1  0.552700  0.245400  0.830800  1.0
  H  H113  1  0.941600  0.287300  0.307400  1.0
  H  H114  1  0.558400  0.712700  0.307400  1.0
  H  H115  1  0.058400  0.287300  0.192600  1.0
  H  H116  1  0.441600  0.712700  0.192600  1.0
  H  H117  1  0.058400  0.712700  0.692600  1.0
  H  H118  1  0.441600  0.287300  0.692600  1.0
  H  H119  1  0.941600  0.712700  0.807400  1.0
  H  H120  1  0.558400  0.287300  0.807400  1.0
  H  H121  1  0.927700  0.241900  0.291800  1.0
  H  H122  1  0.572300  0.758100  0.291800  1.0
  H  H123  1  0.072300  0.241900  0.208200  1.0
  H  H124  1  0.427700  0.758100  0.208200  1.0
  H  H125  1  0.072300  0.758100  0.708200  1.0
  H  H126  1  0.427700  0.241900  0.708200  1.0
  H  H127  1  0.927700  0.758100  0.791800  1.0
  H  H128  1  0.572300  0.241900  0.791800  1.0
  H  H129  1  0.857400  0.297400  0.285000  1.0
  H  H130  1  0.642600  0.702600  0.285000  1.0
  H  H131  1  0.142600  0.297400  0.215000  1.0
  H  H132  1  0.357400  0.702600  0.215000  1.0
  H  H133  1  0.142600  0.702600  0.715000  1.0
  H  H134  1  0.357400  0.297400  0.715000  1.0
  H  H135  1  0.857400  0.702600  0.785000  1.0
  H  H136  1  0.642600  0.297400  0.785000  1.0
  H  H137  1  0.720800  0.312100  0.328700  1.0
  H  H138  1  0.779200  0.687900  0.328700  1.0
  H  H139  1  0.279200  0.312100  0.171300  1.0
  H  H140  1  0.220800  0.687900  0.171300  1.0
  H  H141  1  0.279200  0.687900  0.671300  1.0
  H  H142  1  0.220800  0.312100  0.671300  1.0
  H  H143  1  0.720800  0.687900  0.828700  1.0
  H  H144  1  0.779200  0.312100  0.828700  1.0
  H  H145  1  0.671500  0.352900  0.298100  1.0
  H  H146  1  0.828500  0.647100  0.298100  1.0
  H  H147  1  0.328500  0.352900  0.201900  1.0
  H  H148  1  0.171500  0.647100  0.201900  1.0
  H  H149  1  0.328500  0.647100  0.701900  1.0
  H  H150  1  0.171500  0.352900  0.701900  1.0
  H  H151  1  0.671500  0.647100  0.798100  1.0
  H  H152  1  0.828500  0.352900  0.798100  1.0
  H  H153  1  0.769100  0.396500  0.239100  1.0
  H  H154  1  0.730900  0.603500  0.239100  1.0
  H  H155  1  0.230900  0.396500  0.260900  1.0
  H  H156  1  0.269100  0.603500  0.260900  1.0
  H  H157  1  0.230900  0.603500  0.760900  1.0
  H  H158  1  0.269100  0.396500  0.760900  1.0
  H  H159  1  0.769100  0.603500  0.739100  1.0
  H  H160  1  0.730900  0.396500  0.739100  1.0
  H  H161  1  0.821300  0.353400  0.266700  1.0
  H  H162  1  0.678700  0.646600  0.266700  1.0
  H  H163  1  0.178700  0.353400  0.233300  1.0
  H  H164  1  0.321300  0.646600  0.233300  1.0
  H  H165  1  0.178700  0.646600  0.733300  1.0
  H  H166  1  0.321300  0.353400  0.733300  1.0
  H  H167  1  0.821300  0.646600  0.766700  1.0
  H  H168  1  0.678700  0.353400  0.766700  1.0
  H  H169  1  0.865200  0.311800  0.474600  1.0
  H  H170  1  0.634800  0.688200  0.474600  1.0
  H  H171  1  0.134800  0.311800  0.025400  1.0
  H  H172  1  0.365200  0.688200  0.025400  1.0
  H  H173  1  0.134800  0.688200  0.525400  1.0
  H  H174  1  0.365200  0.311800  0.525400  1.0
  H  H175  1  0.865200  0.688200  0.974600  1.0
  H  H176  1  0.634800  0.311800  0.974600  1.0
  H  H177  1  0.818400  0.329400  0.489700  1.0
  H  H178  1  0.681600  0.670600  0.489700  1.0
  H  H179  1  0.181600  0.329400  0.010300  1.0
  H  H180  1  0.318400  0.670600  0.010300  1.0
  H  H181  1  0.181600  0.670600  0.510300  1.0
  H  H182  1  0.318400  0.329400  0.510300  1.0
  H  H183  1  0.818400  0.670600  0.989700  1.0
  H  H184  1  0.681600  0.329400  0.989700  1.0
  H  H185  1  0.842000  0.352700  0.457200  1.0
  H  H186  1  0.658000  0.647300  0.457200  1.0
  H  H187  1  0.158000  0.352700  0.042800  1.0
  H  H188  1  0.342000  0.647300  0.042800  1.0
  H  H189  1  0.158000  0.647300  0.542800  1.0
  H  H190  1  0.342000  0.352700  0.542800  1.0
  H  H191  1  0.842000  0.647300  0.957200  1.0
  H  H192  1  0.658000  0.352700  0.957200  1.0
  H  H193  1  0.749900  0.311600  0.462000  1.0
  H  H194  1  0.750100  0.688400  0.462000  1.0
  H  H195  1  0.250100  0.311600  0.038000  1.0
  H  H196  1  0.249900  0.688400  0.038000  1.0
  H  H197  1  0.250100  0.688400  0.538000  1.0
  H  H198  1  0.249900  0.311600  0.538000  1.0
  H  H199  1  0.749900  0.688400  0.962000  1.0
  H  H200  1  0.750100  0.311600  0.962000  1.0
  H  H201  1  0.682900  0.300800  0.473900  1.0
  H  H202  1  0.817100  0.699200  0.473900  1.0
  H  H203  1  0.317100  0.300800  0.026100  1.0
  H  H204  1  0.182900  0.699200  0.026100  1.0
  H  H205  1  0.317100  0.699200  0.526100  1.0
  H  H206  1  0.182900  0.300800  0.526100  1.0
  H  H207  1  0.682900  0.699200  0.973900  1.0
  H  H208  1  0.817100  0.300800  0.973900  1.0
  H  H209  1  0.603300  0.298200  0.477300  1.0
  H  H210  1  0.896700  0.701800  0.477300  1.0
  H  H211  1  0.396700  0.298200  0.022700  1.0
  H  H212  1  0.103300  0.701800  0.022700  1.0
  H  H213  1  0.396700  0.701800  0.522700  1.0
  H  H214  1  0.103300  0.298200  0.522700  1.0
  H  H215  1  0.603300  0.701800  0.977300  1.0
  H  H216  1  0.896700  0.298200  0.977300  1.0
  H  H217  1  0.598600  0.234000  0.387900  1.0
  H  H218  1  0.901400  0.766000  0.387900  1.0
  H  H219  1  0.401400  0.234000  0.112100  1.0
  H  H220  1  0.098600  0.766000  0.112100  1.0
  H  H221  1  0.401400  0.766000  0.612100  1.0
  H  H222  1  0.098600  0.234000  0.612100  1.0
  H  H223  1  0.598600  0.766000  0.887900  1.0
  H  H224  1  0.901400  0.234000  0.887900  1.0
  H  H225  1  0.676100  0.235900  0.382600  1.0
  H  H226  1  0.823900  0.764100  0.382600  1.0
  H  H227  1  0.323900  0.235900  0.117400  1.0
  H  H228  1  0.176100  0.764100  0.117400  1.0
  H  H229  1  0.323900  0.764100  0.617400  1.0
  H  H230  1  0.176100  0.235900  0.617400  1.0
  H  H231  1  0.676100  0.764100  0.882600  1.0
  H  H232  1  0.823900  0.235900  0.882600  1.0
  H  H233  1  0.878700  0.133700  0.439600  1.0
  H  H234  1  0.621300  0.866300  0.439600  1.0
  H  H235  1  0.121300  0.133700  0.060400  1.0
  H  H236  1  0.378700  0.866300  0.060400  1.0
  H  H237  1  0.121300  0.866300  0.560400  1.0
  H  H238  1  0.378700  0.133700  0.560400  1.0
  H  H239  1  0.878700  0.866300  0.939600  1.0
  H  H240  1  0.621300  0.133700  0.939600  1.0
  H  H241  1  0.858800  0.094900  0.417200  1.0
  H  H242  1  0.641200  0.905100  0.417200  1.0
  H  H243  1  0.141200  0.094900  0.082800  1.0
  H  H244  1  0.358800  0.905100  0.082800  1.0
  H  H245  1  0.141200  0.905100  0.582800  1.0
  H  H246  1  0.358800  0.094900  0.582800  1.0
  H  H247  1  0.858800  0.905100  0.917200  1.0
  H  H248  1  0.641200  0.094900  0.917200  1.0
  H  H249  1  0.828200  0.117500  0.446400  1.0
  H  H250  1  0.671800  0.882500  0.446400  1.0
  H  H251  1  0.171800  0.117500  0.053600  1.0
  H  H252  1  0.328200  0.882500  0.053600  1.0
  H  H253  1  0.171800  0.882500  0.553600  1.0
  H  H254  1  0.328200  0.117500  0.553600  1.0
  H  H255  1  0.828200  0.882500  0.946400  1.0
  H  H256  1  0.671800  0.117500  0.946400  1.0
  H  H257  1  0.815000  0.105700  0.366700  1.0
  H  H258  1  0.685000  0.894300  0.366700  1.0
  H  H259  1  0.185000  0.105700  0.133300  1.0
  H  H260  1  0.315000  0.894300  0.133300  1.0
  H  H261  1  0.185000  0.894300  0.633300  1.0
  H  H262  1  0.315000  0.105700  0.633300  1.0
  H  H263  1  0.815000  0.894300  0.866700  1.0
  H  H264  1  0.685000  0.105700  0.866700  1.0
  H  H265  1  0.788900  0.079300  0.321500  1.0
  H  H266  1  0.711100  0.920700  0.321500  1.0
  H  H267  1  0.211100  0.079300  0.178500  1.0
  H  H268  1  0.288900  0.920700  0.178500  1.0
  H  H269  1  0.211100  0.920700  0.678500  1.0
  H  H270  1  0.288900  0.079300  0.678500  1.0
  H  H271  1  0.788900  0.920700  0.821500  1.0
  H  H272  1  0.711100  0.079300  0.821500  1.0
  H  H273  1  0.755900  0.051400  0.271500  1.0
  H  H274  1  0.744100  0.948600  0.271500  1.0
  H  H275  1  0.244100  0.051400  0.228500  1.0
  H  H276  1  0.255900  0.948600  0.228500  1.0
  H  H277  1  0.244100  0.948600  0.728500  1.0
  H  H278  1  0.255900  0.051400  0.728500  1.0
  H  H279  1  0.755900  0.948600  0.771500  1.0
  H  H280  1  0.744100  0.051400  0.771500  1.0
  H  H281  1  0.707300  0.167300  0.249900  1.0
  H  H282  1  0.792700  0.832700  0.249900  1.0
  H  H283  1  0.292700  0.167300  0.250100  1.0
  H  H284  1  0.207300  0.832700  0.250100  1.0
  H  H285  1  0.292700  0.832700  0.750100  1.0
  H  H286  1  0.207300  0.167300  0.750100  1.0
  H  H287  1  0.707300  0.832700  0.749900  1.0
  H  H288  1  0.792700  0.167300  0.749900  1.0
  H  H289  1  0.746100  0.195000  0.294500  1.0
  H  H290  1  0.753900  0.805000  0.294500  1.0
  H  H291  1  0.253900  0.195000  0.205500  1.0
  H  H292  1  0.246100  0.805000  0.205500  1.0
  H  H293  1  0.253900  0.805000  0.705500  1.0
  H  H294  1  0.246100  0.195000  0.705500  1.0
  H  H295  1  0.746100  0.805000  0.794500  1.0
  H  H296  1  0.753900  0.195000  0.794500  1.0
  H  H297  1  0.467100  0.969000  0.502800  1.0
  H  H298  1  0.032900  0.031000  0.502800  1.0
  H  H299  1  0.532900  0.969000  0.997200  1.0
  H  H300  1  0.967100  0.031000  0.997200  1.0
  H  H301  1  0.532900  0.031000  0.497200  1.0
  H  H302  1  0.967100  0.969000  0.497200  1.0
  H  H303  1  0.467100  0.031000  0.002800  1.0
  H  H304  1  0.032900  0.969000  0.002800  1.0
  H  H305  1  0.442900  0.927800  0.486700  1.0
  H  H306  1  0.057100  0.072200  0.486700  1.0
  H  H307  1  0.557100  0.927800  0.013300  1.0
  H  H308  1  0.942900  0.072200  0.013300  1.0
  H  H309  1  0.557100  0.072200  0.513300  1.0
  H  H310  1  0.942900  0.927800  0.513300  1.0
  H  H311  1  0.442900  0.072200  0.986700  1.0
  H  H312  1  0.057100  0.927800  0.986700  1.0
  H  H313  1  0.416300  0.972100  0.488800  1.0
  H  H314  1  0.083700  0.027900  0.488800  1.0
  H  H315  1  0.583700  0.972100  0.011200  1.0
  H  H316  1  0.916300  0.027900  0.011200  1.0
  H  H317  1  0.583700  0.027900  0.511200  1.0
  H  H318  1  0.916300  0.972100  0.511200  1.0
  H  H319  1  0.416300  0.027900  0.988800  1.0
  H  H320  1  0.083700  0.972100  0.988800  1.0
  H  H321  1  0.407400  0.999500  0.434000  1.0
  H  H322  1  0.092600  0.000500  0.434000  1.0
  H  H323  1  0.592600  0.999500  0.066000  1.0
  H  H324  1  0.907400  0.000500  0.066000  1.0
  H  H325  1  0.592600  0.000500  0.566000  1.0
  H  H326  1  0.907400  0.999500  0.566000  1.0
  H  H327  1  0.407400  0.000500  0.934000  1.0
  H  H328  1  0.092600  0.999500  0.934000  1.0
  H  H329  1  0.461400  0.036000  0.330000  1.0
  H  H330  1  0.038600  0.964000  0.330000  1.0
  H  H331  1  0.538600  0.036000  0.170000  1.0
  H  H332  1  0.961400  0.964000  0.170000  1.0
  H  H333  1  0.538600  0.964000  0.670000  1.0
  H  H334  1  0.961400  0.036000  0.670000  1.0
  H  H335  1  0.461400  0.964000  0.830000  1.0
  H  H336  1  0.038600  0.036000  0.830000  1.0
  H  H337  1  0.411100  0.072200  0.294100  1.0
  H  H338  1  0.088900  0.927800  0.294100  1.0
  H  H339  1  0.588900  0.072200  0.205900  1.0
  H  H340  1  0.911100  0.927800  0.205900  1.0
  H  H341  1  0.588900  0.927800  0.705900  1.0
  H  H342  1  0.911100  0.072200  0.705900  1.0
  H  H343  1  0.411100  0.927800  0.794100  1.0
  H  H344  1  0.088900  0.072200  0.794100  1.0
  H  H345  1  0.311300  0.045000  0.352900  1.0
  H  H346  1  0.188700  0.955000  0.352900  1.0
  H  H347  1  0.688700  0.045000  0.147100  1.0
  H  H348  1  0.811300  0.955000  0.147100  1.0
  H  H349  1  0.688700  0.955000  0.647100  1.0
  H  H350  1  0.811300  0.045000  0.647100  1.0
  H  H351  1  0.311300  0.955000  0.852900  1.0
  H  H352  1  0.188700  0.045000  0.852900  1.0
  H  H353  1  0.354100  0.009300  0.392500  1.0
  H  H354  1  0.145900  0.990700  0.392500  1.0
  H  H355  1  0.645900  0.009300  0.107500  1.0
  H  H356  1  0.854100  0.990700  0.107500  1.0
  H  H357  1  0.645900  0.990700  0.607500  1.0
  H  H358  1  0.854100  0.009300  0.607500  1.0
  H  H359  1  0.354100  0.990700  0.892500  1.0
  H  H360  1  0.145900  0.009300  0.892500  1.0
  H  H361  1  0.537200  0.842400  0.367500  1.0
  H  H362  1  0.962800  0.157600  0.367500  1.0
  H  H363  1  0.462800  0.842400  0.132500  1.0
  H  H364  1  0.037200  0.157600  0.132500  1.0
  H  H365  1  0.462800  0.157600  0.632500  1.0
  H  H366  1  0.037200  0.842400  0.632500  1.0
  H  H367  1  0.537200  0.157600  0.867500  1.0
  H  H368  1  0.962800  0.842400  0.867500  1.0
  H  H369  1  0.589200  0.839700  0.356300  1.0
  H  H370  1  0.910800  0.160300  0.356300  1.0
  H  H371  1  0.410800  0.839700  0.143700  1.0
  H  H372  1  0.089200  0.160300  0.143700  1.0
  H  H373  1  0.410800  0.160300  0.643700  1.0
  H  H374  1  0.089200  0.839700  0.643700  1.0
  H  H375  1  0.589200  0.160300  0.856300  1.0
  H  H376  1  0.910800  0.839700  0.856300  1.0
  H  H377  1  0.551400  0.849000  0.327300  1.0
  H  H378  1  0.948600  0.151000  0.327300  1.0
  H  H379  1  0.448600  0.849000  0.172700  1.0
  H  H380  1  0.051400  0.151000  0.172700  1.0
  H  H381  1  0.448600  0.151000  0.672700  1.0
  H  H382  1  0.051400  0.849000  0.672700  1.0
  H  H383  1  0.551400  0.151000  0.827300  1.0
  H  H384  1  0.948600  0.849000  0.827300  1.0
  H  H385  1  0.597800  0.912900  0.312000  1.0
  H  H386  1  0.902200  0.087100  0.312000  1.0
  H  H387  1  0.402200  0.912900  0.188000  1.0
  H  H388  1  0.097800  0.087100  0.188000  1.0
  H  H389  1  0.402200  0.087100  0.688000  1.0
  H  H390  1  0.097800  0.912900  0.688000  1.0
  H  H391  1  0.597800  0.087100  0.812000  1.0
  H  H392  1  0.902200  0.912900  0.812000  1.0
  H  H393  1  0.628900  0.947600  0.269900  1.0
  H  H394  1  0.871100  0.052400  0.269900  1.0
  H  H395  1  0.371100  0.947600  0.230100  1.0
  H  H396  1  0.128900  0.052400  0.230100  1.0
  H  H397  1  0.371100  0.052400  0.730100  1.0
  H  H398  1  0.128900  0.947600  0.730100  1.0
  H  H399  1  0.628900  0.052400  0.769900  1.0
  H  H400  1  0.871100  0.947600  0.769900  1.0
  H  H401  1  0.663800  0.988700  0.230700  1.0
  H  H402  1  0.836200  0.011300  0.230700  1.0
  H  H403  1  0.336200  0.988700  0.269300  1.0
  H  H404  1  0.163800  0.011300  0.269300  1.0
  H  H405  1  0.336200  0.011300  0.769300  1.0
  H  H406  1  0.163800  0.988700  0.769300  1.0
  H  H407  1  0.663800  0.011300  0.730700  1.0
  H  H408  1  0.836200  0.988700  0.730700  1.0
  H  H409  1  0.642600  0.091800  0.287300  1.0
  H  H410  1  0.857400  0.908200  0.287300  1.0
  H  H411  1  0.357400  0.091800  0.212700  1.0
  H  H412  1  0.142600  0.908200  0.212700  1.0
  H  H413  1  0.357400  0.908200  0.712700  1.0
  H  H414  1  0.142600  0.091800  0.712700  1.0
  H  H415  1  0.642600  0.908200  0.787300  1.0
  H  H416  1  0.857400  0.091800  0.787300  1.0
  H  H417  1  0.604900  0.052800  0.329600  1.0
  H  H418  1  0.895100  0.947200  0.329600  1.0
  H  H419  1  0.395100  0.052800  0.170400  1.0
  H  H420  1  0.104900  0.947200  0.170400  1.0
  H  H421  1  0.395100  0.947200  0.670400  1.0
  H  H422  1  0.104900  0.052800  0.670400  1.0
  H  H423  1  0.604900  0.947200  0.829600  1.0
  H  H424  1  0.895100  0.052800  0.829600  1.0
  H  H425  1  0.683900  0.015200  0.465200  1.0
  H  H426  1  0.816100  0.984800  0.465200  1.0
  H  H427  1  0.316100  0.015200  0.034800  1.0
  H  H428  1  0.183900  0.984800  0.034800  1.0
  H  H429  1  0.316100  0.984800  0.534800  1.0
  H  H430  1  0.183900  0.015200  0.534800  1.0
  H  H431  1  0.683900  0.984800  0.965200  1.0
  H  H432  1  0.816100  0.015200  0.965200  1.0
  H  H433  1  0.661400  0.972700  0.480400  1.0
  H  H434  1  0.838600  0.027300  0.480400  1.0
  H  H435  1  0.338600  0.972700  0.019600  1.0
  H  H436  1  0.161400  0.027300  0.019600  1.0
  H  H437  1  0.338600  0.027300  0.519600  1.0
  H  H438  1  0.161400  0.972700  0.519600  1.0
  H  H439  1  0.661400  0.027300  0.980400  1.0
  H  H440  1  0.838600  0.972700  0.980400  1.0
  H  H441  1  0.686100  0.972000  0.443000  1.0
  H  H442  1  0.813900  0.028000  0.443000  1.0
  H  H443  1  0.313900  0.972000  0.057000  1.0
  H  H444  1  0.186100  0.028000  0.057000  1.0
  H  H445  1  0.313900  0.028000  0.557000  1.0
  H  H446  1  0.186100  0.972000  0.557000  1.0
  H  H447  1  0.686100  0.028000  0.943000  1.0
  H  H448  1  0.813900  0.972000  0.943000  1.0
  H  H449  1  0.636100  0.064900  0.445900  1.0
  H  H450  1  0.863900  0.935100  0.445900  1.0
  H  H451  1  0.363900  0.064900  0.054100  1.0
  H  H452  1  0.136100  0.935100  0.054100  1.0
  H  H453  1  0.363900  0.935100  0.554100  1.0
  H  H454  1  0.136100  0.064900  0.554100  1.0
  H  H455  1  0.636100  0.935100  0.945900  1.0
  H  H456  1  0.863900  0.064900  0.945900  1.0
  H  H457  1  0.607500  0.122900  0.470500  1.0
  H  H458  1  0.892500  0.877100  0.470500  1.0
  H  H459  1  0.392500  0.122900  0.029500  1.0
  H  H460  1  0.107500  0.877100  0.029500  1.0
  H  H461  1  0.392500  0.877100  0.529500  1.0
  H  H462  1  0.107500  0.122900  0.529500  1.0
  H  H463  1  0.607500  0.877100  0.970500  1.0
  H  H464  1  0.892500  0.122900  0.970500  1.0
  H  H465  1  0.590100  0.193400  0.473100  1.0
  H  H466  1  0.909900  0.806600  0.473100  1.0
  H  H467  1  0.409900  0.193400  0.026900  1.0
  H  H468  1  0.090100  0.806600  0.026900  1.0
  H  H469  1  0.409900  0.806600  0.526900  1.0
  H  H470  1  0.090100  0.193400  0.526900  1.0
  H  H471  1  0.590100  0.806600  0.973100  1.0
  H  H472  1  0.909900  0.193400  0.973100  1.0
  H  H473  1  0.490600  0.177800  0.406000  1.0
  H  H474  1  0.009400  0.822200  0.406000  1.0
  H  H475  1  0.509400  0.177800  0.094000  1.0
  H  H476  1  0.990600  0.822200  0.094000  1.0
  H  H477  1  0.509400  0.822200  0.594000  1.0
  H  H478  1  0.990600  0.177800  0.594000  1.0
  H  H479  1  0.490600  0.822200  0.906000  1.0
  H  H480  1  0.009400  0.177800  0.906000  1.0
  H  H481  1  0.505000  0.106400  0.401000  1.0
  H  H482  1  0.995000  0.893600  0.401000  1.0
  H  H483  1  0.495000  0.106400  0.099000  1.0
  H  H484  1  0.005000  0.893600  0.099000  1.0
  H  H485  1  0.495000  0.893600  0.599000  1.0
  H  H486  1  0.005000  0.106400  0.599000  1.0
  H  H487  1  0.505000  0.893600  0.901000  1.0
  H  H488  1  0.995000  0.106400  0.901000  1.0
  H  H489  1  0.083800  0.222100  0.393100  1.0
  H  H490  1  0.416200  0.777900  0.393100  1.0
  H  H491  1  0.916200  0.222100  0.106900  1.0
  H  H492  1  0.583800  0.777900  0.106900  1.0
  H  H493  1  0.916200  0.777900  0.606900  1.0
  H  H494  1  0.583800  0.222100  0.606900  1.0
  H  H495  1  0.083800  0.777900  0.893100  1.0
  H  H496  1  0.416200  0.222100  0.893100  1.0
  H  H497  1  0.093900  0.269400  0.379500  1.0
  H  H498  1  0.406100  0.730600  0.379500  1.0
  H  H499  1  0.906100  0.269400  0.120500  1.0
  H  H500  1  0.593900  0.730600  0.120500  1.0
  H  H501  1  0.906100  0.730600  0.620500  1.0
  H  H502  1  0.593900  0.269400  0.620500  1.0
  H  H503  1  0.093900  0.730600  0.879500  1.0
  H  H504  1  0.406100  0.269400  0.879500  1.0
  H  H505  1  0.084200  0.261000  0.420300  1.0
  H  H506  1  0.415800  0.739000  0.420300  1.0
  H  H507  1  0.915800  0.261000  0.079700  1.0
  H  H508  1  0.584200  0.739000  0.079700  1.0
  H  H509  1  0.915800  0.739000  0.579700  1.0
  H  H510  1  0.584200  0.261000  0.579700  1.0
  H  H511  1  0.084200  0.739000  0.920300  1.0
  H  H512  1  0.415800  0.261000  0.920300  1.0
  H  H513  1  0.157000  0.203600  0.363000  1.0
  H  H514  1  0.343000  0.796400  0.363000  1.0
  H  H515  1  0.843000  0.203600  0.137000  1.0
  H  H516  1  0.657000  0.796400  0.137000  1.0
  H  H517  1  0.843000  0.796400  0.637000  1.0
  H  H518  1  0.657000  0.203600  0.637000  1.0
  H  H519  1  0.157000  0.796400  0.863000  1.0
  H  H520  1  0.343000  0.203600  0.863000  1.0
  H  H521  1  0.303700  0.193300  0.374600  1.0
  H  H522  1  0.196300  0.806700  0.374600  1.0
  H  H523  1  0.696300  0.193300  0.125400  1.0
  H  H524  1  0.803700  0.806700  0.125400  1.0
  H  H525  1  0.696300  0.806700  0.625400  1.0
  H  H526  1  0.803700  0.193300  0.625400  1.0
  H  H527  1  0.303700  0.806700  0.874600  1.0
  H  H528  1  0.196300  0.193300  0.874600  1.0
  H  H529  1  0.338500  0.146000  0.337000  1.0
  H  H530  1  0.161500  0.854000  0.337000  1.0
  H  H531  1  0.661500  0.146000  0.163000  1.0
  H  H532  1  0.838500  0.854000  0.163000  1.0
  H  H533  1  0.661500  0.854000  0.663000  1.0
  H  H534  1  0.838500  0.146000  0.663000  1.0
  H  H535  1  0.338500  0.854000  0.837000  1.0
  H  H536  1  0.161500  0.146000  0.837000  1.0
  H  H537  1  0.225100  0.102500  0.303200  1.0
  H  H538  1  0.274900  0.897500  0.303200  1.0
  H  H539  1  0.774900  0.102500  0.196800  1.0
  H  H540  1  0.725100  0.897500  0.196800  1.0
  H  H541  1  0.774900  0.897500  0.696800  1.0
  H  H542  1  0.725100  0.102500  0.696800  1.0
  H  H543  1  0.225100  0.897500  0.803200  1.0
  H  H544  1  0.274900  0.102500  0.803200  1.0
  H  H545  1  0.182900  0.145000  0.341700  1.0
  H  H546  1  0.317100  0.855000  0.341700  1.0
  H  H547  1  0.817100  0.145000  0.158300  1.0
  H  H548  1  0.682900  0.855000  0.158300  1.0
  H  H549  1  0.817100  0.855000  0.658300  1.0
  H  H550  1  0.682900  0.145000  0.658300  1.0
  H  H551  1  0.182900  0.855000  0.841700  1.0
  H  H552  1  0.317100  0.145000  0.841700  1.0
  H  H553  1  0.202800  0.184600  0.531100  1.0
  H  H554  1  0.297200  0.815400  0.531100  1.0
  H  H555  1  0.797200  0.184600  0.968900  1.0
  H  H556  1  0.702800  0.815400  0.968900  1.0
  H  H557  1  0.797200  0.815400  0.468900  1.0
  H  H558  1  0.702800  0.184600  0.468900  1.0
  H  H559  1  0.202800  0.815400  0.031100  1.0
  H  H560  1  0.297200  0.184600  0.031100  1.0
  H  H561  1  0.252600  0.176700  0.546100  1.0
  H  H562  1  0.247400  0.823300  0.546100  1.0
  H  H563  1  0.747400  0.176700  0.953900  1.0
  H  H564  1  0.752600  0.823300  0.953900  1.0
  H  H565  1  0.747400  0.823300  0.453900  1.0
  H  H566  1  0.752600  0.176700  0.453900  1.0
  H  H567  1  0.252600  0.823300  0.046100  1.0
  H  H568  1  0.247400  0.176700  0.046100  1.0
  H  H569  1  0.233800  0.148000  0.514600  1.0
  H  H570  1  0.266200  0.852000  0.514600  1.0
  H  H571  1  0.766200  0.148000  0.985400  1.0
  H  H572  1  0.733800  0.852000  0.985400  1.0
  H  H573  1  0.766200  0.852000  0.485400  1.0
  H  H574  1  0.733800  0.148000  0.485400  1.0
  H  H575  1  0.233800  0.852000  0.014600  1.0
  H  H576  1  0.266200  0.148000  0.014600  1.0
  H  H577  1  0.317000  0.191200  0.503500  1.0
  H  H578  1  0.183000  0.808800  0.503500  1.0
  H  H579  1  0.683000  0.191200  0.996500  1.0
  H  H580  1  0.817000  0.808800  0.996500  1.0
  H  H581  1  0.683000  0.808800  0.496500  1.0
  H  H582  1  0.817000  0.191200  0.496500  1.0
  H  H583  1  0.317000  0.808800  0.003500  1.0
  H  H584  1  0.183000  0.191200  0.003500  1.0
  H  H585  1  0.390900  0.205000  0.504100  1.0
  H  H586  1  0.109100  0.795000  0.504100  1.0
  H  H587  1  0.609100  0.205000  0.995900  1.0
  H  H588  1  0.890900  0.795000  0.995900  1.0
  H  H589  1  0.609100  0.795000  0.495900  1.0
  H  H590  1  0.890900  0.205000  0.495900  1.0
  H  H591  1  0.390900  0.795000  0.004100  1.0
  H  H592  1  0.109100  0.205000  0.004100  1.0
  H  H593  1  0.464600  0.210900  0.490900  1.0
  H  H594  1  0.035400  0.789100  0.490900  1.0
  H  H595  1  0.535400  0.210900  0.009100  1.0
  H  H596  1  0.964600  0.789100  0.009100  1.0
  H  H597  1  0.535400  0.789100  0.509100  1.0
  H  H598  1  0.964600  0.210900  0.509100  1.0
  H  H599  1  0.464600  0.789100  0.990900  1.0
  H  H600  1  0.035400  0.210900  0.990900  1.0
  H  H601  1  0.439500  0.282200  0.409900  1.0
  H  H602  1  0.060500  0.717800  0.409900  1.0
  H  H603  1  0.560500  0.282200  0.090100  1.0
  H  H604  1  0.939500  0.717800  0.090100  1.0
  H  H605  1  0.560500  0.717800  0.590100  1.0
  H  H606  1  0.939500  0.282200  0.590100  1.0
  H  H607  1  0.439500  0.717800  0.909900  1.0
  H  H608  1  0.060500  0.282200  0.909900  1.0
  H  H609  1  0.363700  0.276000  0.418800  1.0
  H  H610  1  0.136300  0.724000  0.418800  1.0
  H  H611  1  0.636300  0.276000  0.081200  1.0
  H  H612  1  0.863700  0.724000  0.081200  1.0
  H  H613  1  0.636300  0.724000  0.581200  1.0
  H  H614  1  0.863700  0.276000  0.581200  1.0
  H  H615  1  0.363700  0.724000  0.918800  1.0
  H  H616  1  0.136300  0.276000  0.918800  1.0
  H  H617  1  0.194000  0.385600  0.506600  1.0
  H  H618  1  0.306000  0.614400  0.506600  1.0
  H  H619  1  0.806000  0.385600  0.993400  1.0
  H  H620  1  0.694000  0.614400  0.993400  1.0
  H  H621  1  0.806000  0.614400  0.493400  1.0
  H  H622  1  0.694000  0.385600  0.493400  1.0
  H  H623  1  0.194000  0.614400  0.006600  1.0
  H  H624  1  0.306000  0.385600  0.006600  1.0
  H  H625  1  0.220000  0.420800  0.483900  1.0
  H  H626  1  0.280000  0.579200  0.483900  1.0
  H  H627  1  0.780000  0.420800  0.016100  1.0
  H  H628  1  0.720000  0.579200  0.016100  1.0
  H  H629  1  0.780000  0.579200  0.516100  1.0
  H  H630  1  0.720000  0.420800  0.516100  1.0
  H  H631  1  0.220000  0.579200  0.983900  1.0
  H  H632  1  0.280000  0.420800  0.983900  1.0
  H  H633  1  0.247700  0.390500  0.510000  1.0
  H  H634  1  0.252300  0.609500  0.510000  1.0
  H  H635  1  0.752300  0.390500  0.990000  1.0
  H  H636  1  0.747700  0.609500  0.990000  1.0
  H  H637  1  0.752300  0.609500  0.490000  1.0
  H  H638  1  0.747700  0.390500  0.490000  1.0
  H  H639  1  0.247700  0.609500  0.010000  1.0
  H  H640  1  0.252300  0.390500  0.010000  1.0
  H  H641  1  0.254600  0.402200  0.430500  1.0
  H  H642  1  0.245400  0.597800  0.430500  1.0
  H  H643  1  0.745400  0.402200  0.069500  1.0
  H  H644  1  0.754600  0.597800  0.069500  1.0
  H  H645  1  0.745400  0.597800  0.569500  1.0
  H  H646  1  0.754600  0.402200  0.569500  1.0
  H  H647  1  0.254600  0.597800  0.930500  1.0
  H  H648  1  0.245400  0.402200  0.930500  1.0
  H  H649  1  0.262100  0.429300  0.379900  1.0
  H  H650  1  0.237900  0.570700  0.379900  1.0
  H  H651  1  0.737900  0.429300  0.120100  1.0
  H  H652  1  0.762100  0.570700  0.120100  1.0
  H  H653  1  0.737900  0.570700  0.620100  1.0
  H  H654  1  0.762100  0.429300  0.620100  1.0
  H  H655  1  0.262100  0.570700  0.879900  1.0
  H  H656  1  0.237900  0.429300  0.879900  1.0
  H  H657  1  0.287200  0.451100  0.325100  1.0
  H  H658  1  0.212800  0.548900  0.325100  1.0
  H  H659  1  0.712800  0.451100  0.174900  1.0
  H  H660  1  0.787200  0.548900  0.174900  1.0
  H  H661  1  0.712800  0.548900  0.674900  1.0
  H  H662  1  0.787200  0.451100  0.674900  1.0
  H  H663  1  0.287200  0.548900  0.825100  1.0
  H  H664  1  0.212800  0.451100  0.825100  1.0
  H  H665  1  0.315400  0.333333  0.296600  1.0
  H  H666  1  0.184600  0.666667  0.296600  1.0
  H  H667  1  0.684600  0.333333  0.203400  1.0
  H  H668  1  0.815400  0.666667  0.203400  1.0
  H  H669  1  0.684600  0.666667  0.703400  1.0
  H  H670  1  0.815400  0.333333  0.703400  1.0
  H  H671  1  0.315400  0.666667  0.796600  1.0
  H  H672  1  0.184600  0.333333  0.796600  1.0
  H  H673  1  0.288400  0.308100  0.349800  1.0
  H  H674  1  0.211600  0.691900  0.349800  1.0
  H  H675  1  0.711600  0.308100  0.150200  1.0
  H  H676  1  0.788400  0.691900  0.150200  1.0
  H  H677  1  0.711600  0.691900  0.650200  1.0
  H  H678  1  0.788400  0.308100  0.650200  1.0
  H  H679  1  0.288400  0.691900  0.849800  1.0
  H  H680  1  0.211600  0.308100  0.849800  1.0
  H  H681  1  0.636300  0.580900  0.471700  1.0
  H  H682  1  0.863700  0.419100  0.471700  1.0
  H  H683  1  0.363700  0.580900  0.028300  1.0
  H  H684  1  0.136300  0.419100  0.028300  1.0
  H  H685  1  0.363700  0.419100  0.528300  1.0
  H  H686  1  0.136300  0.580900  0.528300  1.0
  H  H687  1  0.636300  0.419100  0.971700  1.0
  H  H688  1  0.863700  0.580900  0.971700  1.0
  H  H689  1  0.675900  0.557500  0.450600  1.0
  H  H690  1  0.824100  0.442500  0.450600  1.0
  H  H691  1  0.324100  0.557500  0.049400  1.0
  H  H692  1  0.175900  0.442500  0.049400  1.0
  H  H693  1  0.324100  0.442500  0.549400  1.0
  H  H694  1  0.175900  0.557500  0.549400  1.0
  H  H695  1  0.675900  0.442500  0.950600  1.0
  H  H696  1  0.824100  0.557500  0.950600  1.0
  H  H697  1  0.647500  0.532000  0.479500  1.0
  H  H698  1  0.852500  0.468000  0.479500  1.0
  H  H699  1  0.352500  0.532000  0.020500  1.0
  H  H700  1  0.147500  0.468000  0.020500  1.0
  H  H701  1  0.352500  0.468000  0.520500  1.0
  H  H702  1  0.147500  0.532000  0.520500  1.0
  H  H703  1  0.647500  0.468000  0.979500  1.0
  H  H704  1  0.852500  0.532000  0.979500  1.0
  H  H705  1  0.656700  0.506000  0.404900  1.0
  H  H706  1  0.843300  0.494000  0.404900  1.0
  H  H707  1  0.343300  0.506000  0.095100  1.0
  H  H708  1  0.156700  0.494000  0.095100  1.0
  H  H709  1  0.343300  0.494000  0.595100  1.0
  H  H710  1  0.156700  0.506000  0.595100  1.0
  H  H711  1  0.656700  0.494000  0.904900  1.0
  H  H712  1  0.843300  0.506000  0.904900  1.0
  H  H713  1  0.557800  0.468300  0.325900  1.0
  H  H714  1  0.942200  0.531700  0.325900  1.0
  H  H715  1  0.442200  0.468300  0.174100  1.0
  H  H716  1  0.057800  0.531700  0.174100  1.0
  H  H717  1  0.442200  0.531700  0.674100  1.0
  H  H718  1  0.057800  0.468300  0.674100  1.0
  H  H719  1  0.557800  0.531700  0.825900  1.0
  H  H720  1  0.942200  0.468300  0.825900  1.0
  H  H721  1  0.584100  0.431900  0.276700  1.0
  H  H722  1  0.915900  0.568100  0.276700  1.0
  H  H723  1  0.415900  0.431900  0.223300  1.0
  H  H724  1  0.084100  0.568100  0.223300  1.0
  H  H725  1  0.415900  0.568100  0.723300  1.0
  H  H726  1  0.084100  0.431900  0.723300  1.0
  H  H727  1  0.584100  0.568100  0.776700  1.0
  H  H728  1  0.915900  0.431900  0.776700  1.0
  H  H729  1  0.708600  0.457300  0.303900  1.0
  H  H730  1  0.791400  0.542700  0.303900  1.0
  H  H731  1  0.291400  0.457300  0.196100  1.0
  H  H732  1  0.208600  0.542700  0.196100  1.0
  H  H733  1  0.291400  0.542700  0.696100  1.0
  H  H734  1  0.208600  0.457300  0.696100  1.0
  H  H735  1  0.708600  0.542700  0.803900  1.0
  H  H736  1  0.791400  0.457300  0.803900  1.0
  H  H737  1  0.686200  0.491300  0.354700  1.0
  H  H738  1  0.813800  0.508700  0.354700  1.0
  H  H739  1  0.313800  0.491300  0.145300  1.0
  H  H740  1  0.186200  0.508700  0.145300  1.0
  H  H741  1  0.313800  0.508700  0.645300  1.0
  H  H742  1  0.186200  0.491300  0.645300  1.0
  H  H743  1  0.686200  0.508700  0.854700  1.0
  H  H744  1  0.813800  0.491300  0.854700  1.0
  H  H745  1  0.465600  0.667700  0.364200  1.0
  H  H746  1  0.034400  0.332300  0.364200  1.0
  H  H747  1  0.534400  0.667700  0.135800  1.0
  H  H748  1  0.965600  0.332300  0.135800  1.0
  H  H749  1  0.534400  0.332300  0.635800  1.0
  H  H750  1  0.965600  0.667700  0.635800  1.0
  H  H751  1  0.465600  0.332300  0.864200  1.0
  H  H752  1  0.034400  0.667700  0.864200  1.0
  H  H753  1  0.493600  0.654600  0.329900  1.0
  H  H754  1  0.006400  0.345400  0.329900  1.0
  H  H755  1  0.506400  0.654600  0.170100  1.0
  H  H756  1  0.993600  0.345400  0.170100  1.0
  H  H757  1  0.506400  0.345400  0.670100  1.0
  H  H758  1  0.993600  0.654600  0.670100  1.0
  H  H759  1  0.493600  0.345400  0.829900  1.0
  H  H760  1  0.006400  0.654600  0.829900  1.0
  H  H761  1  0.519500  0.663800  0.366000  1.0
  H  H762  1  0.980500  0.336200  0.366000  1.0
  H  H763  1  0.480500  0.663800  0.134000  1.0
  H  H764  1  0.019500  0.336200  0.134000  1.0
  H  H765  1  0.480500  0.336200  0.634000  1.0
  H  H766  1  0.019500  0.663800  0.634000  1.0
  H  H767  1  0.519500  0.336200  0.866000  1.0
  H  H768  1  0.980500  0.663800  0.866000  1.0
  H  H769  1  0.450500  0.589200  0.322500  1.0
  H  H770  1  0.049500  0.410800  0.322500  1.0
  H  H771  1  0.549500  0.589200  0.177500  1.0
  H  H772  1  0.950500  0.410800  0.177500  1.0
  H  H773  1  0.549500  0.410800  0.677500  1.0
  H  H774  1  0.950500  0.589200  0.677500  1.0
  H  H775  1  0.450500  0.410800  0.822500  1.0
  H  H776  1  0.049500  0.589200  0.822500  1.0
  H  H777  1  0.396400  0.554600  0.298100  1.0
  H  H778  1  0.103600  0.445400  0.298100  1.0
  H  H779  1  0.603600  0.554600  0.201900  1.0
  H  H780  1  0.896400  0.445400  0.201900  1.0
  H  H781  1  0.603600  0.445400  0.701900  1.0
  H  H782  1  0.896400  0.554600  0.701900  1.0
  H  H783  1  0.396400  0.445400  0.798100  1.0
  H  H784  1  0.103600  0.554600  0.798100  1.0
  H  H785  1  0.349700  0.509800  0.266700  1.0
  H  H786  1  0.150300  0.490200  0.266700  1.0
  H  H787  1  0.650300  0.509800  0.233300  1.0
  H  H788  1  0.849700  0.490200  0.233300  1.0
  H  H789  1  0.650300  0.490200  0.733300  1.0
  H  H790  1  0.849700  0.509800  0.733300  1.0
  H  H791  1  0.349700  0.490200  0.766700  1.0
  H  H792  1  0.150300  0.509800  0.766700  1.0
  H  H793  1  0.399500  0.410100  0.315800  1.0
  H  H794  1  0.100500  0.589900  0.315800  1.0
  H  H795  1  0.600500  0.410100  0.184200  1.0
  H  H796  1  0.899500  0.589900  0.184200  1.0
  H  H797  1  0.600500  0.589900  0.684200  1.0
  H  H798  1  0.899500  0.410100  0.684200  1.0
  H  H799  1  0.399500  0.589900  0.815800  1.0
  H  H800  1  0.100500  0.410100  0.815800  1.0
  H  H801  1  0.445100  0.453100  0.349800  1.0
  H  H802  1  0.054900  0.546900  0.349800  1.0
  H  H803  1  0.554900  0.453100  0.150200  1.0
  H  H804  1  0.945100  0.546900  0.150200  1.0
  H  H805  1  0.554900  0.546900  0.650200  1.0
  H  H806  1  0.945100  0.453100  0.650200  1.0
  H  H807  1  0.445100  0.546900  0.849800  1.0
  H  H808  1  0.054900  0.453100  0.849800  1.0
  H  H809  1  0.424800  0.565800  0.496800  1.0
  H  H810  1  0.075200  0.434200  0.496800  1.0
  H  H811  1  0.575200  0.565800  0.003200  1.0
  H  H812  1  0.924800  0.434200  0.003200  1.0
  H  H813  1  0.575200  0.434200  0.503200  1.0
  H  H814  1  0.924800  0.565800  0.503200  1.0
  H  H815  1  0.424800  0.434200  0.996800  1.0
  H  H816  1  0.075200  0.565800  0.996800  1.0
  H  H817  1  0.422500  0.521300  0.517200  1.0
  H  H818  1  0.077500  0.478700  0.517200  1.0
  H  H819  1  0.577500  0.521300  0.982800  1.0
  H  H820  1  0.922500  0.478700  0.982800  1.0
  H  H821  1  0.577500  0.478700  0.482800  1.0
  H  H822  1  0.922500  0.521300  0.482800  1.0
  H  H823  1  0.422500  0.478700  0.017200  1.0
  H  H824  1  0.077500  0.521300  0.017200  1.0
  H  H825  1  0.389800  0.529900  0.484500  1.0
  H  H826  1  0.110200  0.470100  0.484500  1.0
  H  H827  1  0.610200  0.529900  0.015500  1.0
  H  H828  1  0.889800  0.470100  0.015500  1.0
  H  H829  1  0.610200  0.470100  0.515500  1.0
  H  H830  1  0.889800  0.529900  0.515500  1.0
  H  H831  1  0.389800  0.470100  0.984500  1.0
  H  H832  1  0.110200  0.529900  0.984500  1.0
  H  H833  1  0.445600  0.455100  0.484300  1.0
  H  H834  1  0.054400  0.544900  0.484300  1.0
  H  H835  1  0.554400  0.455100  0.015700  1.0
  H  H836  1  0.945600  0.544900  0.015700  1.0
  H  H837  1  0.554400  0.544900  0.515700  1.0
  H  H838  1  0.945600  0.455100  0.515700  1.0
  H  H839  1  0.445600  0.544900  0.984300  1.0
  H  H840  1  0.054400  0.455100  0.984300  1.0
  H  H841  1  0.472800  0.392800  0.495500  1.0
  H  H842  1  0.027200  0.607200  0.495500  1.0
  H  H843  1  0.527200  0.392800  0.004500  1.0
  H  H844  1  0.972800  0.607200  0.004500  1.0
  H  H845  1  0.527200  0.607200  0.504500  1.0
  H  H846  1  0.972800  0.392800  0.504500  1.0
  H  H847  1  0.472800  0.607200  0.995500  1.0
  H  H848  1  0.027200  0.392800  0.995500  1.0
  H  H849  1  0.485800  0.318000  0.490100  1.0
  H  H850  1  0.014200  0.682000  0.490100  1.0
  H  H851  1  0.514200  0.318000  0.009900  1.0
  H  H852  1  0.985800  0.682000  0.009900  1.0
  H  H853  1  0.514200  0.682000  0.509900  1.0
  H  H854  1  0.985800  0.318000  0.509900  1.0
  H  H855  1  0.485800  0.682000  0.990100  1.0
  H  H856  1  0.014200  0.318000  0.990100  1.0
  H  H857  1  0.545300  0.333000  0.399900  1.0
  H  H858  1  0.954700  0.667000  0.399900  1.0
  H  H859  1  0.454700  0.333000  0.100100  1.0
  H  H860  1  0.045300  0.667000  0.100100  1.0
  H  H861  1  0.454700  0.667000  0.600100  1.0
  H  H862  1  0.045300  0.333000  0.600100  1.0
  H  H863  1  0.545300  0.667000  0.899900  1.0
  H  H864  1  0.954700  0.333000  0.899900  1.0
  H  H865  1  0.535200  0.405900  0.400500  1.0
  H  H866  1  0.964800  0.594100  0.400500  1.0
  H  H867  1  0.464800  0.405900  0.099500  1.0
  H  H868  1  0.035200  0.594100  0.099500  1.0
  H  H869  1  0.464800  0.594100  0.599500  1.0
  H  H870  1  0.035200  0.405900  0.599500  1.0
  H  H871  1  0.535200  0.594100  0.900500  1.0
  H  H872  1  0.964800  0.405900  0.900500  1.0
  H  H873  1  0.510200  0.231800  0.364300  1.0
  H  H874  1  0.989800  0.768200  0.364300  1.0
  H  H875  1  0.489800  0.231800  0.135700  1.0
  H  H876  1  0.010200  0.768200  0.135700  1.0
  H  H877  1  0.489800  0.768200  0.635700  1.0
  H  H878  1  0.010200  0.231800  0.635700  1.0
  H  H879  1  0.510200  0.768200  0.864300  1.0
  H  H880  1  0.989800  0.231800  0.864300  1.0
  H  H881  1  0.510900  0.280000  0.364400  1.0
  H  H882  1  0.989100  0.720000  0.364400  1.0
  H  H883  1  0.489100  0.280000  0.135600  1.0
  H  H884  1  0.010900  0.720000  0.135600  1.0
  H  H885  1  0.489100  0.720000  0.635600  1.0
  H  H886  1  0.010900  0.280000  0.635600  1.0
  H  H887  1  0.510900  0.720000  0.864400  1.0
  H  H888  1  0.989100  0.280000  0.864400  1.0
  H  H889  1  0.604400  0.149000  0.213700  1.0
  H  H890  1  0.895600  0.851000  0.213700  1.0
  H  H891  1  0.395600  0.149000  0.286300  1.0
  H  H892  1  0.104400  0.851000  0.286300  1.0
  H  H893  1  0.395600  0.851000  0.786300  1.0
  H  H894  1  0.104400  0.149000  0.786300  1.0
  H  H895  1  0.604400  0.851000  0.713700  1.0
  H  H896  1  0.895600  0.149000  0.713700  1.0
  H  H897  1  0.623800  0.154700  0.252200  1.0
  H  H898  1  0.876200  0.845300  0.252200  1.0
  H  H899  1  0.376200  0.154700  0.247800  1.0
  H  H900  1  0.123800  0.845300  0.247800  1.0
  H  H901  1  0.376200  0.845300  0.747800  1.0
  H  H902  1  0.123800  0.154700  0.747800  1.0
  H  H903  1  0.623800  0.845300  0.752200  1.0
  H  H904  1  0.876200  0.154700  0.752200  1.0
  C  C905  1  0.928600  0.259400  0.313100  1.0
  C  C906  1  0.571400  0.740600  0.313100  1.0
  C  C907  1  0.071400  0.259400  0.186900  1.0
  C  C908  1  0.428600  0.740600  0.186900  1.0
  C  C909  1  0.071400  0.740600  0.686900  1.0
  C  C910  1  0.428600  0.259400  0.686900  1.0
  C  C911  1  0.928600  0.740600  0.813100  1.0
  C  C912  1  0.571400  0.259400  0.813100  1.0
  C  C913  1  0.881300  0.265200  0.327100  1.0
  C  C914  1  0.618700  0.734800  0.327100  1.0
  C  C915  1  0.118700  0.265200  0.172900  1.0
  C  C916  1  0.381300  0.734800  0.172900  1.0
  C  C917  1  0.118700  0.734800  0.672900  1.0
  C  C918  1  0.381300  0.265200  0.672900  1.0
  C  C919  1  0.881300  0.734800  0.827100  1.0
  C  C920  1  0.618700  0.265200  0.827100  1.0
  C  C921  1  0.849600  0.288300  0.308000  1.0
  C  C922  1  0.650400  0.711700  0.308000  1.0
  C  C923  1  0.150400  0.288300  0.192000  1.0
  C  C924  1  0.349600  0.711700  0.192000  1.0
  C  C925  1  0.150400  0.711700  0.692000  1.0
  C  C926  1  0.349600  0.288300  0.692000  1.0
  C  C927  1  0.849600  0.711700  0.808000  1.0
  C  C928  1  0.650400  0.288300  0.808000  1.0
  C  C929  1  0.807700  0.298600  0.320800  1.0
  C  C930  1  0.692300  0.701400  0.320800  1.0
  C  C931  1  0.192300  0.298600  0.179200  1.0
  C  C932  1  0.307700  0.701400  0.179200  1.0
  C  C933  1  0.192300  0.701400  0.679200  1.0
  C  C934  1  0.307700  0.298600  0.679200  1.0
  C  C935  1  0.807700  0.701400  0.820800  1.0
  C  C936  1  0.692300  0.298600  0.820800  1.0
  C  C937  1  0.775600  0.328000  0.300400  1.0
  C  C938  1  0.724400  0.672000  0.300400  1.0
  C  C939  1  0.224400  0.328000  0.199600  1.0
  C  C940  1  0.275600  0.672000  0.199600  1.0
  C  C941  1  0.224400  0.672000  0.699600  1.0
  C  C942  1  0.275600  0.328000  0.699600  1.0
  C  C943  1  0.775600  0.672000  0.800400  1.0
  C  C944  1  0.724400  0.328000  0.800400  1.0
  C  C945  1  0.731300  0.328900  0.309600  1.0
  C  C946  1  0.768700  0.671100  0.309600  1.0
  C  C947  1  0.268700  0.328900  0.190400  1.0
  C  C948  1  0.231300  0.671100  0.190400  1.0
  C  C949  1  0.268700  0.671100  0.690400  1.0
  C  C950  1  0.231300  0.328900  0.690400  1.0
  C  C951  1  0.731300  0.671100  0.809600  1.0
  C  C952  1  0.768700  0.328900  0.809600  1.0
  C  C953  1  0.702500  0.353600  0.291800  1.0
  C  C954  1  0.797500  0.646400  0.291800  1.0
  C  C955  1  0.297500  0.353600  0.208200  1.0
  C  C956  1  0.202500  0.646400  0.208200  1.0
  C  C957  1  0.297500  0.646400  0.708200  1.0
  C  C958  1  0.202500  0.353600  0.708200  1.0
  C  C959  1  0.702500  0.646400  0.791800  1.0
  C  C960  1  0.797500  0.353600  0.791800  1.0
  C  C961  1  0.759000  0.378300  0.257400  1.0
  C  C962  1  0.741000  0.621700  0.257400  1.0
  C  C963  1  0.241000  0.378300  0.242600  1.0
  C  C964  1  0.259000  0.621700  0.242600  1.0
  C  C965  1  0.241000  0.621700  0.742600  1.0
  C  C966  1  0.259000  0.378300  0.742600  1.0
  C  C967  1  0.759000  0.621700  0.757400  1.0
  C  C968  1  0.741000  0.378300  0.757400  1.0
  C  C969  1  0.790500  0.353200  0.273700  1.0
  C  C970  1  0.709500  0.646800  0.273700  1.0
  C  C971  1  0.209500  0.353200  0.226300  1.0
  C  C972  1  0.290500  0.646800  0.226300  1.0
  C  C973  1  0.209500  0.646800  0.726300  1.0
  C  C974  1  0.290500  0.353200  0.726300  1.0
  C  C975  1  0.790500  0.646800  0.773700  1.0
  C  C976  1  0.709500  0.353200  0.773700  1.0
  C  C977  1  0.836400  0.325100  0.468400  1.0
  C  C978  1  0.663600  0.674900  0.468400  1.0
  C  C979  1  0.163600  0.325100  0.031600  1.0
  C  C980  1  0.336400  0.674900  0.031600  1.0
  C  C981  1  0.163600  0.674900  0.531600  1.0
  C  C982  1  0.336400  0.325100  0.531600  1.0
  C  C983  1  0.836400  0.674900  0.968400  1.0
  C  C984  1  0.663600  0.325100  0.968400  1.0
  C  C985  1  0.810600  0.296200  0.443000  1.0
  C  C986  1  0.689400  0.703800  0.443000  1.0
  C  C987  1  0.189400  0.296200  0.057000  1.0
  C  C988  1  0.310600  0.703800  0.057000  1.0
  C  C989  1  0.189400  0.703800  0.557000  1.0
  C  C990  1  0.310600  0.296200  0.557000  1.0
  C  C991  1  0.810600  0.703800  0.943000  1.0
  C  C992  1  0.689400  0.296200  0.943000  1.0
  C  C993  1  0.764300  0.293900  0.445130  1.0
  C  C994  1  0.735700  0.706100  0.445130  1.0
  C  C995  1  0.235700  0.293900  0.054870  1.0
  C  C996  1  0.264300  0.706100  0.054870  1.0
  C  C997  1  0.235700  0.706100  0.554870  1.0
  C  C998  1  0.264300  0.293900  0.554870  1.0
  C  C999  1  0.764300  0.706100  0.945130  1.0
  C  C1000  1  0.735700  0.293900  0.945130  1.0
  C  C1001  1  0.736500  0.267900  0.424810  1.0
  C  C1002  1  0.763500  0.732100  0.424810  1.0
  C  C1003  1  0.263500  0.267900  0.075190  1.0
  C  C1004  1  0.236500  0.732100  0.075190  1.0
  C  C1005  1  0.263500  0.732100  0.575190  1.0
  C  C1006  1  0.236500  0.267900  0.575190  1.0
  C  C1007  1  0.736500  0.732100  0.924810  1.0
  C  C1008  1  0.763500  0.267900  0.924810  1.0
  C  C1009  1  0.687400  0.267920  0.427910  1.0
  C  C1010  1  0.812600  0.732080  0.427910  1.0
  C  C1011  1  0.312600  0.267920  0.072090  1.0
  C  C1012  1  0.187400  0.732080  0.072090  1.0
  C  C1013  1  0.312600  0.732080  0.572090  1.0
  C  C1014  1  0.187400  0.267920  0.572090  1.0
  C  C1015  1  0.687400  0.732080  0.927910  1.0
  C  C1016  1  0.812600  0.267920  0.927910  1.0
  C  C1017  1  0.666000  0.286800  0.456100  1.0
  C  C1018  1  0.834000  0.713200  0.456100  1.0
  C  C1019  1  0.334000  0.286800  0.043900  1.0
  C  C1020  1  0.166000  0.713200  0.043900  1.0
  C  C1021  1  0.334000  0.713200  0.543900  1.0
  C  C1022  1  0.166000  0.286800  0.543900  1.0
  C  C1023  1  0.666000  0.713200  0.956100  1.0
  C  C1024  1  0.834000  0.286800  0.956100  1.0
  C  C1025  1  0.618100  0.285000  0.458000  1.0
  C  C1026  1  0.881900  0.715000  0.458000  1.0
  C  C1027  1  0.381900  0.285000  0.042000  1.0
  C  C1028  1  0.118100  0.715000  0.042000  1.0
  C  C1029  1  0.381900  0.715000  0.542000  1.0
  C  C1030  1  0.118100  0.285000  0.542000  1.0
  C  C1031  1  0.618100  0.715000  0.958000  1.0
  C  C1032  1  0.881900  0.285000  0.958000  1.0
  C  C1033  1  0.615600  0.247600  0.405800  1.0
  C  C1034  1  0.884400  0.752400  0.405800  1.0
  C  C1035  1  0.384400  0.247600  0.094200  1.0
  C  C1036  1  0.115600  0.752400  0.094200  1.0
  C  C1037  1  0.384400  0.752400  0.594200  1.0
  C  C1038  1  0.115600  0.247600  0.594200  1.0
  C  C1039  1  0.615600  0.752400  0.905800  1.0
  C  C1040  1  0.884400  0.247600  0.905800  1.0
  C  C1041  1  0.661900  0.248600  0.402450  1.0
  C  C1042  1  0.838100  0.751400  0.402450  1.0
  C  C1043  1  0.338100  0.248600  0.097550  1.0
  C  C1044  1  0.161900  0.751400  0.097550  1.0
  C  C1045  1  0.338100  0.751400  0.597550  1.0
  C  C1046  1  0.161900  0.248600  0.597550  1.0
  C  C1047  1  0.661900  0.751400  0.902450  1.0
  C  C1048  1  0.838100  0.248600  0.902450  1.0
  C  C1049  1  0.851500  0.122000  0.428500  1.0
  C  C1050  1  0.648500  0.878000  0.428500  1.0
  C  C1051  1  0.148500  0.122000  0.071500  1.0
  C  C1052  1  0.351500  0.878000  0.071500  1.0
  C  C1053  1  0.148500  0.878000  0.571500  1.0
  C  C1054  1  0.351500  0.122000  0.571500  1.0
  C  C1055  1  0.851500  0.878000  0.928500  1.0
  C  C1056  1  0.648500  0.122000  0.928500  1.0
  C  C1057  1  0.834600  0.152400  0.401800  1.0
  C  C1058  1  0.665400  0.847600  0.401800  1.0
  C  C1059  1  0.165400  0.152400  0.098200  1.0
  C  C1060  1  0.334600  0.847600  0.098200  1.0
  C  C1061  1  0.165400  0.847600  0.598200  1.0
  C  C1062  1  0.334600  0.152400  0.598200  1.0
  C  C1063  1  0.834600  0.847600  0.901800  1.0
  C  C1064  1  0.665400  0.152400  0.901800  1.0
  C  C1065  1  0.814200  0.135700  0.369900  1.0
  C  C1066  1  0.685800  0.864300  0.369900  1.0
  C  C1067  1  0.185800  0.135700  0.130100  1.0
  C  C1068  1  0.314200  0.864300  0.130100  1.0
  C  C1069  1  0.185800  0.864300  0.630100  1.0
  C  C1070  1  0.314200  0.135700  0.630100  1.0
  C  C1071  1  0.814200  0.864300  0.869900  1.0
  C  C1072  1  0.685800  0.135700  0.869900  1.0
  C  C1073  1  0.794100  0.159600  0.344100  1.0
  C  C1074  1  0.705900  0.840400  0.344100  1.0
  C  C1075  1  0.205900  0.159600  0.155900  1.0
  C  C1076  1  0.294100  0.840400  0.155900  1.0
  C  C1077  1  0.205900  0.840400  0.655900  1.0
  C  C1078  1  0.294100  0.159600  0.655900  1.0
  C  C1079  1  0.794100  0.840400  0.844100  1.0
  C  C1080  1  0.705900  0.159600  0.844100  1.0
  C  C1081  1  0.772700  0.140100  0.313600  1.0
  C  C1082  1  0.727300  0.859900  0.313600  1.0
  C  C1083  1  0.227300  0.140100  0.186400  1.0
  C  C1084  1  0.272700  0.859900  0.186400  1.0
  C  C1085  1  0.227300  0.859900  0.686400  1.0
  C  C1086  1  0.272700  0.140100  0.686400  1.0
  C  C1087  1  0.772700  0.859900  0.813600  1.0
  C  C1088  1  0.727300  0.140100  0.813600  1.0
  C  C1089  1  0.773200  0.097800  0.306100  1.0
  C  C1090  1  0.726800  0.902200  0.306100  1.0
  C  C1091  1  0.226800  0.097800  0.193900  1.0
  C  C1092  1  0.273200  0.902200  0.193900  1.0
  C  C1093  1  0.226800  0.902200  0.693900  1.0
  C  C1094  1  0.273200  0.097800  0.693900  1.0
  C  C1095  1  0.773200  0.902200  0.806100  1.0
  C  C1096  1  0.726800  0.097800  0.806100  1.0
  C  C1097  1  0.752300  0.080600  0.277400  1.0
  C  C1098  1  0.747700  0.919400  0.277400  1.0
  C  C1099  1  0.247700  0.080600  0.222600  1.0
  C  C1100  1  0.252300  0.919400  0.222600  1.0
  C  C1101  1  0.247700  0.919400  0.722600  1.0
  C  C1102  1  0.252300  0.080600  0.722600  1.0
  C  C1103  1  0.752300  0.919400  0.777400  1.0
  C  C1104  1  0.747700  0.080600  0.777400  1.0
  C  C1105  1  0.724700  0.148900  0.264300  1.0
  C  C1106  1  0.775300  0.851100  0.264300  1.0
  C  C1107  1  0.275300  0.148900  0.235700  1.0
  C  C1108  1  0.224700  0.851100  0.235700  1.0
  C  C1109  1  0.275300  0.851100  0.735700  1.0
  C  C1110  1  0.224700  0.148900  0.735700  1.0
  C  C1111  1  0.724700  0.851100  0.764300  1.0
  C  C1112  1  0.775300  0.148900  0.764300  1.0
  C  C1113  1  0.747200  0.165100  0.290800  1.0
  C  C1114  1  0.752800  0.834900  0.290800  1.0
  C  C1115  1  0.252800  0.165100  0.209200  1.0
  C  C1116  1  0.247200  0.834900  0.209200  1.0
  C  C1117  1  0.252800  0.834900  0.709200  1.0
  C  C1118  1  0.247200  0.165100  0.709200  1.0
  C  C1119  1  0.747200  0.834900  0.790800  1.0
  C  C1120  1  0.752800  0.165100  0.790800  1.0
  C  C1121  1  0.445800  0.958800  0.485000  1.0
  C  C1122  1  0.054200  0.041200  0.485000  1.0
  C  C1123  1  0.554200  0.958800  0.015000  1.0
  C  C1124  1  0.945800  0.041200  0.015000  1.0
  C  C1125  1  0.554200  0.041200  0.515000  1.0
  C  C1126  1  0.945800  0.958800  0.515000  1.0
  C  C1127  1  0.445800  0.041200  0.985000  1.0
  C  C1128  1  0.054200  0.958800  0.985000  1.0
  C  C1129  1  0.463400  0.970800  0.448200  1.0
  C  C1130  1  0.036600  0.029200  0.448200  1.0
  C  C1131  1  0.536600  0.970800  0.051800  1.0
  C  C1132  1  0.963400  0.029200  0.051800  1.0
  C  C1133  1  0.536600  0.029200  0.551800  1.0
  C  C1134  1  0.963400  0.970800  0.551800  1.0
  C  C1135  1  0.463400  0.029200  0.948200  1.0
  C  C1136  1  0.036600  0.970800  0.948200  1.0
  C  C1137  1  0.435900  0.990400  0.425400  1.0
  C  C1138  1  0.064100  0.009600  0.425400  1.0
  C  C1139  1  0.564100  0.990400  0.074600  1.0
  C  C1140  1  0.935900  0.009600  0.074600  1.0
  C  C1141  1  0.564100  0.009600  0.574600  1.0
  C  C1142  1  0.935900  0.990400  0.574600  1.0
  C  C1143  1  0.435900  0.009600  0.925400  1.0
  C  C1144  1  0.064100  0.990400  0.925400  1.0
  C  C1145  1  0.445300  0.998900  0.390100  1.0
  C  C1146  1  0.054700  0.001100  0.390100  1.0
  C  C1147  1  0.554700  0.998900  0.109900  1.0
  C  C1148  1  0.945300  0.001100  0.109900  1.0
  C  C1149  1  0.554700  0.001100  0.609900  1.0
  C  C1150  1  0.945300  0.998900  0.609900  1.0
  C  C1151  1  0.445300  0.001100  0.890100  1.0
  C  C1152  1  0.054700  0.998900  0.890100  1.0
  C  C1153  1  0.412400  0.020100  0.367400  1.0
  C  C1154  1  0.087600  0.979900  0.367400  1.0
  C  C1155  1  0.587600  0.020100  0.132600  1.0
  C  C1156  1  0.912400  0.979900  0.132600  1.0
  C  C1157  1  0.587600  0.979900  0.632600  1.0
  C  C1158  1  0.912400  0.020100  0.632600  1.0
  C  C1159  1  0.412400  0.979900  0.867400  1.0
  C  C1160  1  0.087600  0.020100  0.867400  1.0
  C  C1161  1  0.430200  0.037800  0.335800  1.0
  C  C1162  1  0.069800  0.962200  0.335800  1.0
  C  C1163  1  0.569800  0.037800  0.164200  1.0
  C  C1164  1  0.930200  0.962200  0.164200  1.0
  C  C1165  1  0.569800  0.962200  0.664200  1.0
  C  C1166  1  0.930200  0.037800  0.664200  1.0
  C  C1167  1  0.430200  0.962200  0.835800  1.0
  C  C1168  1  0.069800  0.037800  0.835800  1.0
  C  C1169  1  0.399300  0.057700  0.314000  1.0
  C  C1170  1  0.100700  0.942300  0.314000  1.0
  C  C1171  1  0.600700  0.057700  0.186000  1.0
  C  C1172  1  0.899300  0.942300  0.186000  1.0
  C  C1173  1  0.600700  0.942300  0.686000  1.0
  C  C1174  1  0.899300  0.057700  0.686000  1.0
  C  C1175  1  0.399300  0.942300  0.814000  1.0
  C  C1176  1  0.100700  0.057700  0.814000  1.0
  C  C1177  1  0.342500  0.042300  0.347500  1.0
  C  C1178  1  0.157500  0.957700  0.347500  1.0
  C  C1179  1  0.657500  0.042300  0.152500  1.0
  C  C1180  1  0.842500  0.957700  0.152500  1.0
  C  C1181  1  0.657500  0.957700  0.652500  1.0
  C  C1182  1  0.842500  0.042300  0.652500  1.0
  C  C1183  1  0.342500  0.957700  0.847500  1.0
  C  C1184  1  0.157500  0.042300  0.847500  1.0
  C  C1185  1  0.367800  0.021800  0.372400  1.0
  C  C1186  1  0.132200  0.978200  0.372400  1.0
  C  C1187  1  0.632200  0.021800  0.127600  1.0
  C  C1188  1  0.867800  0.978200  0.127600  1.0
  C  C1189  1  0.632200  0.978200  0.627600  1.0
  C  C1190  1  0.867800  0.021800  0.627600  1.0
  C  C1191  1  0.367800  0.978200  0.872400  1.0
  C  C1192  1  0.132200  0.021800  0.872400  1.0
  C  C1193  1  0.560400  0.853900  0.351700  1.0
  C  C1194  1  0.939600  0.146100  0.351700  1.0
  C  C1195  1  0.439600  0.853900  0.148300  1.0
  C  C1196  1  0.060400  0.146100  0.148300  1.0
  C  C1197  1  0.439600  0.146100  0.648300  1.0
  C  C1198  1  0.060400  0.853900  0.648300  1.0
  C  C1199  1  0.560400  0.146100  0.851700  1.0
  C  C1200  1  0.939600  0.853900  0.851700  1.0
  C  C1201  1  0.565500  0.902500  0.358300  1.0
  C  C1202  1  0.934500  0.097500  0.358300  1.0
  C  C1203  1  0.434500  0.902500  0.141700  1.0
  C  C1204  1  0.065500  0.097500  0.141700  1.0
  C  C1205  1  0.434500  0.097500  0.641700  1.0
  C  C1206  1  0.065500  0.902500  0.641700  1.0
  C  C1207  1  0.565500  0.097500  0.858300  1.0
  C  C1208  1  0.934500  0.902500  0.858300  1.0
  C  C1209  1  0.586100  0.927100  0.332100  1.0
  C  C1210  1  0.913900  0.072900  0.332100  1.0
  C  C1211  1  0.413900  0.927100  0.167900  1.0
  C  C1212  1  0.086100  0.072900  0.167900  1.0
  C  C1213  1  0.413900  0.072900  0.667900  1.0
  C  C1214  1  0.086100  0.927100  0.667900  1.0
  C  C1215  1  0.586100  0.072900  0.832100  1.0
  C  C1216  1  0.913900  0.927100  0.832100  1.0
  C  C1217  1  0.590300  0.970600  0.333800  1.0
  C  C1218  1  0.909700  0.029400  0.333800  1.0
  C  C1219  1  0.409700  0.970600  0.166200  1.0
  C  C1220  1  0.090300  0.029400  0.166200  1.0
  C  C1221  1  0.409700  0.029400  0.666200  1.0
  C  C1222  1  0.090300  0.970600  0.666200  1.0
  C  C1223  1  0.590300  0.029400  0.833800  1.0
  C  C1224  1  0.909700  0.970600  0.833800  1.0
  C  C1225  1  0.615000  0.994600  0.305800  1.0
  C  C1226  1  0.885000  0.005400  0.305800  1.0
  C  C1227  1  0.385000  0.994600  0.194200  1.0
  C  C1228  1  0.115000  0.005400  0.194200  1.0
  C  C1229  1  0.385000  0.005400  0.694200  1.0
  C  C1230  1  0.115000  0.994600  0.694200  1.0
  C  C1231  1  0.615000  0.005400  0.805800  1.0
  C  C1232  1  0.885000  0.994600  0.805800  1.0
  C  C1233  1  0.631900  0.977200  0.274400  1.0
  C  C1234  1  0.868100  0.022800  0.274400  1.0
  C  C1235  1  0.368100  0.977200  0.225600  1.0
  C  C1236  1  0.131900  0.022800  0.225600  1.0
  C  C1237  1  0.368100  0.022800  0.725600  1.0
  C  C1238  1  0.131900  0.977200  0.725600  1.0
  C  C1239  1  0.631900  0.022800  0.774400  1.0
  C  C1240  1  0.868100  0.977200  0.774400  1.0
  C  C1241  1  0.651800  0.001800  0.251200  1.0
  C  C1242  1  0.848200  0.998200  0.251200  1.0
  C  C1243  1  0.348200  0.001800  0.248800  1.0
  C  C1244  1  0.151800  0.998200  0.248800  1.0
  C  C1245  1  0.348200  0.998200  0.748800  1.0
  C  C1246  1  0.151800  0.001800  0.748800  1.0
  C  C1247  1  0.651800  0.998200  0.751200  1.0
  C  C1248  1  0.848200  0.001800  0.751200  1.0
  C  C1249  1  0.639500  0.062000  0.283900  1.0
  C  C1250  1  0.860500  0.938000  0.283900  1.0
  C  C1251  1  0.360500  0.062000  0.216100  1.0
  C  C1252  1  0.139500  0.938000  0.216100  1.0
  C  C1253  1  0.360500  0.938000  0.716100  1.0
  C  C1254  1  0.139500  0.062000  0.716100  1.0
  C  C1255  1  0.639500  0.938000  0.783900  1.0
  C  C1256  1  0.860500  0.062000  0.783900  1.0
  C  C1257  1  0.617700  0.039000  0.309800  1.0
  C  C1258  1  0.882300  0.961000  0.309800  1.0
  C  C1259  1  0.382300  0.039000  0.190200  1.0
  C  C1260  1  0.117700  0.961000  0.190200  1.0
  C  C1261  1  0.382300  0.961000  0.690200  1.0
  C  C1262  1  0.117700  0.039000  0.690200  1.0
  C  C1263  1  0.617700  0.961000  0.809800  1.0
  C  C1264  1  0.882300  0.039000  0.809800  1.0
  C  C1265  1  0.667600  0.989100  0.459100  1.0
  C  C1266  1  0.832400  0.010900  0.459100  1.0
  C  C1267  1  0.332400  0.989100  0.040900  1.0
  C  C1268  1  0.167600  0.010900  0.040900  1.0
  C  C1269  1  0.332400  0.010900  0.540900  1.0
  C  C1270  1  0.167600  0.989100  0.540900  1.0
  C  C1271  1  0.667600  0.010900  0.959100  1.0
  C  C1272  1  0.832400  0.989100  0.959100  1.0
  C  C1273  1  0.622500  0.000800  0.440900  1.0
  C  C1274  1  0.877500  0.999200  0.440900  1.0
  C  C1275  1  0.377500  0.000800  0.059100  1.0
  C  C1276  1  0.122500  0.999200  0.059100  1.0
  C  C1277  1  0.377500  0.999200  0.559100  1.0
  C  C1278  1  0.122500  0.000800  0.559100  1.0
  C  C1279  1  0.622500  0.999200  0.940900  1.0
  C  C1280  1  0.877500  0.000800  0.940900  1.0
  C  C1281  1  0.613400  0.045000  0.439500  1.0
  C  C1282  1  0.886600  0.955000  0.439500  1.0
  C  C1283  1  0.386600  0.045000  0.060500  1.0
  C  C1284  1  0.113400  0.955000  0.060500  1.0
  C  C1285  1  0.386600  0.955000  0.560500  1.0
  C  C1286  1  0.113400  0.045000  0.560500  1.0
  C  C1287  1  0.613400  0.955000  0.939500  1.0
  C  C1288  1  0.886600  0.045000  0.939500  1.0
  C  C1289  1  0.570100  0.059500  0.428600  1.0
  C  C1290  1  0.929900  0.940500  0.428600  1.0
  C  C1291  1  0.429900  0.059500  0.071400  1.0
  C  C1292  1  0.070100  0.940500  0.071400  1.0
  C  C1293  1  0.429900  0.940500  0.571400  1.0
  C  C1294  1  0.070100  0.059500  0.571400  1.0
  C  C1295  1  0.570100  0.940500  0.928600  1.0
  C  C1296  1  0.929900  0.059500  0.928600  1.0
  C  C1297  1  0.561800  0.105900  0.433600  1.0
  C  C1298  1  0.938200  0.894100  0.433600  1.0
  C  C1299  1  0.438200  0.105900  0.066400  1.0
  C  C1300  1  0.061800  0.894100  0.066400  1.0
  C  C1301  1  0.438200  0.894100  0.566400  1.0
  C  C1302  1  0.061800  0.105900  0.566400  1.0
  C  C1303  1  0.561800  0.894100  0.933600  1.0
  C  C1304  1  0.938200  0.105900  0.933600  1.0
  C  C1305  1  0.583800  0.133600  0.456100  1.0
  C  C1306  1  0.916200  0.866400  0.456100  1.0
  C  C1307  1  0.416200  0.133600  0.043900  1.0
  C  C1308  1  0.083800  0.866400  0.043900  1.0
  C  C1309  1  0.416200  0.866400  0.543900  1.0
  C  C1310  1  0.083800  0.133600  0.543900  1.0
  C  C1311  1  0.583800  0.866400  0.956100  1.0
  C  C1312  1  0.916200  0.133600  0.956100  1.0
  C  C1313  1  0.572800  0.175300  0.458200  1.0
  C  C1314  1  0.927200  0.824700  0.458200  1.0
  C  C1315  1  0.427200  0.175300  0.041800  1.0
  C  C1316  1  0.072800  0.824700  0.041800  1.0
  C  C1317  1  0.427200  0.824700  0.541800  1.0
  C  C1318  1  0.072800  0.175300  0.541800  1.0
  C  C1319  1  0.572800  0.824700  0.958200  1.0
  C  C1320  1  0.927200  0.175300  0.958200  1.0
  C  C1321  1  0.514900  0.166200  0.419200  1.0
  C  C1322  1  0.985100  0.833800  0.419200  1.0
  C  C1323  1  0.485100  0.166200  0.080800  1.0
  C  C1324  1  0.014900  0.833800  0.080800  1.0
  C  C1325  1  0.485100  0.833800  0.580800  1.0
  C  C1326  1  0.014900  0.166200  0.580800  1.0
  C  C1327  1  0.514900  0.833800  0.919200  1.0
  C  C1328  1  0.985100  0.166200  0.919200  1.0
  C  C1329  1  0.523700  0.123800  0.415300  1.0
  C  C1330  1  0.976300  0.876200  0.415300  1.0
  C  C1331  1  0.476300  0.123800  0.084700  1.0
  C  C1332  1  0.023700  0.876200  0.084700  1.0
  C  C1333  1  0.476300  0.876200  0.584700  1.0
  C  C1334  1  0.023700  0.123800  0.584700  1.0
  C  C1335  1  0.523700  0.876200  0.915300  1.0
  C  C1336  1  0.976300  0.123800  0.915300  1.0
  C  C1337  1  0.098100  0.249400  0.399000  1.0
  C  C1338  1  0.401900  0.750600  0.399000  1.0
  C  C1339  1  0.901900  0.249400  0.101000  1.0
  C  C1340  1  0.598100  0.750600  0.101000  1.0
  C  C1341  1  0.901900  0.750600  0.601000  1.0
  C  C1342  1  0.598100  0.249400  0.601000  1.0
  C  C1343  1  0.098100  0.750600  0.899000  1.0
  C  C1344  1  0.401900  0.249400  0.899000  1.0
  C  C1345  1  0.146800  0.242700  0.405000  1.0
  C  C1346  1  0.353200  0.757300  0.405000  1.0
  C  C1347  1  0.853200  0.242700  0.095000  1.0
  C  C1348  1  0.646800  0.757300  0.095000  1.0
  C  C1349  1  0.853200  0.757300  0.595000  1.0
  C  C1350  1  0.646800  0.242700  0.595000  1.0
  C  C1351  1  0.146800  0.757300  0.905000  1.0
  C  C1352  1  0.353200  0.242700  0.905000  1.0
  C  C1353  1  0.172000  0.215700  0.382600  1.0
  C  C1354  1  0.328000  0.784300  0.382600  1.0
  C  C1355  1  0.828000  0.215700  0.117400  1.0
  C  C1356  1  0.672000  0.784300  0.117400  1.0
  C  C1357  1  0.828000  0.784300  0.617400  1.0
  C  C1358  1  0.672000  0.215700  0.617400  1.0
  C  C1359  1  0.172000  0.784300  0.882600  1.0
  C  C1360  1  0.328000  0.215700  0.882600  1.0
  C  C1361  1  0.217700  0.205900  0.387600  1.0
  C  C1362  1  0.282300  0.794100  0.387600  1.0
  C  C1363  1  0.782300  0.205900  0.112400  1.0
  C  C1364  1  0.717700  0.794100  0.112400  1.0
  C  C1365  1  0.782300  0.794100  0.612400  1.0
  C  C1366  1  0.717700  0.205900  0.612400  1.0
  C  C1367  1  0.217700  0.794100  0.887600  1.0
  C  C1368  1  0.282300  0.205900  0.887600  1.0
  C  C1369  1  0.239600  0.174500  0.362800  1.0
  C  C1370  1  0.260400  0.825500  0.362800  1.0
  C  C1371  1  0.760400  0.174500  0.137200  1.0
  C  C1372  1  0.739600  0.825500  0.137200  1.0
  C  C1373  1  0.760400  0.825500  0.637200  1.0
  C  C1374  1  0.739600  0.174500  0.637200  1.0
  C  C1375  1  0.239600  0.825500  0.862800  1.0
  C  C1376  1  0.260400  0.174500  0.862800  1.0
  C  C1377  1  0.286200  0.174400  0.360700  1.0
  C  C1378  1  0.213800  0.825600  0.360700  1.0
  C  C1379  1  0.713800  0.174400  0.139300  1.0
  C  C1380  1  0.786200  0.825600  0.139300  1.0
  C  C1381  1  0.713800  0.825600  0.639300  1.0
  C  C1382  1  0.786200  0.174400  0.639300  1.0
  C  C1383  1  0.286200  0.825600  0.860700  1.0
  C  C1384  1  0.213800  0.174400  0.860700  1.0
  C  C1385  1  0.306400  0.146400  0.337900  1.0
  C  C1386  1  0.193600  0.853600  0.337900  1.0
  C  C1387  1  0.693600  0.146400  0.162100  1.0
  C  C1388  1  0.806400  0.853600  0.162100  1.0
  C  C1389  1  0.693600  0.853600  0.662100  1.0
  C  C1390  1  0.806400  0.146400  0.662100  1.0
  C  C1391  1  0.306400  0.853600  0.837900  1.0
  C  C1392  1  0.193600  0.146400  0.837900  1.0
  C  C1393  1  0.240600  0.121000  0.318800  1.0
  C  C1394  1  0.259400  0.879000  0.318800  1.0
  C  C1395  1  0.759400  0.121000  0.181200  1.0
  C  C1396  1  0.740600  0.879000  0.181200  1.0
  C  C1397  1  0.759400  0.879000  0.681200  1.0
  C  C1398  1  0.740600  0.121000  0.681200  1.0
  C  C1399  1  0.240600  0.879000  0.818800  1.0
  C  C1400  1  0.259400  0.121000  0.818800  1.0
  C  C1401  1  0.214900  0.146400  0.341100  1.0
  C  C1402  1  0.285100  0.853600  0.341100  1.0
  C  C1403  1  0.785100  0.146400  0.158900  1.0
  C  C1404  1  0.714900  0.853600  0.158900  1.0
  C  C1405  1  0.785100  0.853600  0.658900  1.0
  C  C1406  1  0.714900  0.146400  0.658900  1.0
  C  C1407  1  0.214900  0.853600  0.841100  1.0
  C  C1408  1  0.285100  0.146400  0.841100  1.0
  C  C1409  1  0.233800  0.176600  0.525000  1.0
  C  C1410  1  0.266200  0.823400  0.525000  1.0
  C  C1411  1  0.766200  0.176600  0.975000  1.0
  C  C1412  1  0.733800  0.823400  0.975000  1.0
  C  C1413  1  0.766200  0.823400  0.475000  1.0
  C  C1414  1  0.733800  0.176600  0.475000  1.0
  C  C1415  1  0.233800  0.823400  0.025000  1.0
  C  C1416  1  0.266200  0.176600  0.025000  1.0
  C  C1417  1  0.252600  0.208100  0.498600  1.0
  C  C1418  1  0.247400  0.791900  0.498600  1.0
  C  C1419  1  0.747400  0.208100  0.001400  1.0
  C  C1420  1  0.752600  0.791900  0.001400  1.0
  C  C1421  1  0.747400  0.791900  0.501400  1.0
  C  C1422  1  0.752600  0.208100  0.501400  1.0
  C  C1423  1  0.252600  0.791900  0.998600  1.0
  C  C1424  1  0.247400  0.208100  0.998600  1.0
  C  C1425  1  0.297800  0.211100  0.492100  1.0
  C  C1426  1  0.202200  0.788900  0.492100  1.0
  C  C1427  1  0.702200  0.211100  0.007900  1.0
  C  C1428  1  0.797800  0.788900  0.007900  1.0
  C  C1429  1  0.702200  0.788900  0.507900  1.0
  C  C1430  1  0.797800  0.211100  0.507900  1.0
  C  C1431  1  0.297800  0.788900  0.992100  1.0
  C  C1432  1  0.202200  0.211100  0.992100  1.0
  C  C1433  1  0.318200  0.240600  0.470170  1.0
  C  C1434  1  0.181800  0.759400  0.470170  1.0
  C  C1435  1  0.681800  0.240600  0.029830  1.0
  C  C1436  1  0.818200  0.759400  0.029830  1.0
  C  C1437  1  0.681800  0.759400  0.529830  1.0
  C  C1438  1  0.818200  0.240600  0.529830  1.0
  C  C1439  1  0.318200  0.759400  0.970170  1.0
  C  C1440  1  0.181800  0.240600  0.970170  1.0
  C  C1441  1  0.365900  0.241600  0.463900  1.0
  C  C1442  1  0.134100  0.758400  0.463900  1.0
  C  C1443  1  0.634100  0.241600  0.036100  1.0
  C  C1444  1  0.865900  0.758400  0.036100  1.0
  C  C1445  1  0.634100  0.758400  0.536100  1.0
  C  C1446  1  0.865900  0.241600  0.536100  1.0
  C  C1447  1  0.365900  0.758400  0.963900  1.0
  C  C1448  1  0.134100  0.241600  0.963900  1.0
  C  C1449  1  0.399500  0.221300  0.484200  1.0
  C  C1450  1  0.100500  0.778700  0.484200  1.0
  C  C1451  1  0.600500  0.221300  0.015800  1.0
  C  C1452  1  0.899500  0.778700  0.015800  1.0
  C  C1453  1  0.600500  0.778700  0.515800  1.0
  C  C1454  1  0.899500  0.221300  0.515800  1.0
  C  C1455  1  0.399500  0.778700  0.984200  1.0
  C  C1456  1  0.100500  0.221300  0.984200  1.0
  C  C1457  1  0.443600  0.224800  0.475900  1.0
  C  C1458  1  0.056400  0.775200  0.475900  1.0
  C  C1459  1  0.556400  0.224800  0.024100  1.0
  C  C1460  1  0.943600  0.775200  0.024100  1.0
  C  C1461  1  0.556400  0.775200  0.524100  1.0
  C  C1462  1  0.943600  0.224800  0.524100  1.0
  C  C1463  1  0.443600  0.775200  0.975900  1.0
  C  C1464  1  0.056400  0.224800  0.975900  1.0
  C  C1465  1  0.429200  0.265500  0.429100  1.0
  C  C1466  1  0.070800  0.734500  0.429100  1.0
  C  C1467  1  0.570800  0.265500  0.070900  1.0
  C  C1468  1  0.929200  0.734500  0.070900  1.0
  C  C1469  1  0.570800  0.734500  0.570900  1.0
  C  C1470  1  0.929200  0.265500  0.570900  1.0
  C  C1471  1  0.429200  0.734500  0.929100  1.0
  C  C1472  1  0.070800  0.265500  0.929100  1.0
  C  C1473  1  0.383700  0.262900  0.434900  1.0
  C  C1474  1  0.116300  0.737100  0.434900  1.0
  C  C1475  1  0.616300  0.262900  0.065100  1.0
  C  C1476  1  0.883700  0.737100  0.065100  1.0
  C  C1477  1  0.616300  0.737100  0.565100  1.0
  C  C1478  1  0.883700  0.262900  0.565100  1.0
  C  C1479  1  0.383700  0.737100  0.934900  1.0
  C  C1480  1  0.116300  0.262900  0.934900  1.0
  C  C1481  1  0.222000  0.392100  0.493800  1.0
  C  C1482  1  0.278000  0.607900  0.493800  1.0
  C  C1483  1  0.778000  0.392100  0.006200  1.0
  C  C1484  1  0.722000  0.607900  0.006200  1.0
  C  C1485  1  0.778000  0.607900  0.506200  1.0
  C  C1486  1  0.722000  0.392100  0.506200  1.0
  C  C1487  1  0.222000  0.607900  0.993800  1.0
  C  C1488  1  0.278000  0.392100  0.993800  1.0
  C  C1489  1  0.228400  0.359800  0.464200  1.0
  C  C1490  1  0.271600  0.640200  0.464200  1.0
  C  C1491  1  0.771600  0.359800  0.035800  1.0
  C  C1492  1  0.728400  0.640200  0.035800  1.0
  C  C1493  1  0.771600  0.640200  0.535800  1.0
  C  C1494  1  0.728400  0.359800  0.535800  1.0
  C  C1495  1  0.228400  0.640200  0.964200  1.0
  C  C1496  1  0.271600  0.359800  0.964200  1.0
  C  C1497  1  0.246200  0.373000  0.432360  1.0
  C  C1498  1  0.253800  0.627000  0.432360  1.0
  C  C1499  1  0.753800  0.373000  0.067640  1.0
  C  C1500  1  0.746200  0.627000  0.067640  1.0
  C  C1501  1  0.753800  0.627000  0.567640  1.0
  C  C1502  1  0.746200  0.373000  0.567640  1.0
  C  C1503  1  0.246200  0.627000  0.932360  1.0
  C  C1504  1  0.253800  0.373000  0.932360  1.0
  C  C1505  1  0.252800  0.348300  0.403740  1.0
  C  C1506  1  0.247200  0.651700  0.403740  1.0
  C  C1507  1  0.747200  0.348300  0.096260  1.0
  C  C1508  1  0.752800  0.651700  0.096260  1.0
  C  C1509  1  0.747200  0.651700  0.596260  1.0
  C  C1510  1  0.752800  0.348300  0.596260  1.0
  C  C1511  1  0.252800  0.651700  0.903740  1.0
  C  C1512  1  0.247200  0.348300  0.903740  1.0
  C  C1513  1  0.271300  0.365500  0.369760  1.0
  C  C1514  1  0.228700  0.634500  0.369760  1.0
  C  C1515  1  0.728700  0.365500  0.130240  1.0
  C  C1516  1  0.771300  0.634500  0.130240  1.0
  C  C1517  1  0.728700  0.634500  0.630240  1.0
  C  C1518  1  0.771300  0.365500  0.630240  1.0
  C  C1519  1  0.271300  0.634500  0.869760  1.0
  C  C1520  1  0.228700  0.365500  0.869760  1.0
  C  C1521  1  0.272100  0.409200  0.363000  1.0
  C  C1522  1  0.227900  0.590800  0.363000  1.0
  C  C1523  1  0.727900  0.409200  0.137000  1.0
  C  C1524  1  0.772100  0.590800  0.137000  1.0
  C  C1525  1  0.727900  0.590800  0.637000  1.0
  C  C1526  1  0.772100  0.409200  0.637000  1.0
  C  C1527  1  0.272100  0.590800  0.863000  1.0
  C  C1528  1  0.227900  0.409200  0.863000  1.0
  C  C1529  1  0.288200  0.421600  0.330850  1.0
  C  C1530  1  0.211800  0.578400  0.330850  1.0
  C  C1531  1  0.711800  0.421600  0.169150  1.0
  C  C1532  1  0.788200  0.578400  0.169150  1.0
  C  C1533  1  0.711800  0.578400  0.669150  1.0
  C  C1534  1  0.788200  0.421600  0.669150  1.0
  C  C1535  1  0.288200  0.578400  0.830850  1.0
  C  C1536  1  0.211800  0.421600  0.830850  1.0
  C  C1537  1  0.304500  0.352900  0.313700  1.0
  C  C1538  1  0.195500  0.647100  0.313700  1.0
  C  C1539  1  0.695500  0.352900  0.186300  1.0
  C  C1540  1  0.804500  0.647100  0.186300  1.0
  C  C1541  1  0.695500  0.647100  0.686300  1.0
  C  C1542  1  0.804500  0.352900  0.686300  1.0
  C  C1543  1  0.304500  0.647100  0.813700  1.0
  C  C1544  1  0.195500  0.352900  0.813700  1.0
  C  C1545  1  0.288100  0.337800  0.345110  1.0
  C  C1546  1  0.211900  0.662200  0.345110  1.0
  C  C1547  1  0.711900  0.337800  0.154890  1.0
  C  C1548  1  0.788100  0.662200  0.154890  1.0
  C  C1549  1  0.711900  0.662200  0.654890  1.0
  C  C1550  1  0.788100  0.337800  0.654890  1.0
  C  C1551  1  0.288100  0.662200  0.845110  1.0
  C  C1552  1  0.211900  0.337800  0.845110  1.0
  C  C1553  1  0.646000  0.553900  0.461300  1.0
  C  C1554  1  0.854000  0.446100  0.461300  1.0
  C  C1555  1  0.354000  0.553900  0.038700  1.0
  C  C1556  1  0.146000  0.446100  0.038700  1.0
  C  C1557  1  0.354000  0.446100  0.538700  1.0
  C  C1558  1  0.146000  0.553900  0.538700  1.0
  C  C1559  1  0.646000  0.446100  0.961300  1.0
  C  C1560  1  0.854000  0.553900  0.961300  1.0
  C  C1561  1  0.612900  0.540700  0.433700  1.0
  C  C1562  1  0.887100  0.459300  0.433700  1.0
  C  C1563  1  0.387100  0.540700  0.066300  1.0
  C  C1564  1  0.112900  0.459300  0.066300  1.0
  C  C1565  1  0.387100  0.459300  0.566300  1.0
  C  C1566  1  0.112900  0.540700  0.566300  1.0
  C  C1567  1  0.612900  0.459300  0.933700  1.0
  C  C1568  1  0.887100  0.540700  0.933700  1.0
  C  C1569  1  0.626800  0.517100  0.405090  1.0
  C  C1570  1  0.873200  0.482900  0.405090  1.0
  C  C1571  1  0.373200  0.517100  0.094910  1.0
  C  C1572  1  0.126800  0.482900  0.094910  1.0
  C  C1573  1  0.373200  0.482900  0.594910  1.0
  C  C1574  1  0.126800  0.517100  0.594910  1.0
  C  C1575  1  0.626800  0.482900  0.905090  1.0
  C  C1576  1  0.873200  0.517100  0.905090  1.0
  C  C1577  1  0.598300  0.508600  0.376080  1.0
  C  C1578  1  0.901700  0.491400  0.376080  1.0
  C  C1579  1  0.401700  0.508600  0.123920  1.0
  C  C1580  1  0.098300  0.491400  0.123920  1.0
  C  C1581  1  0.401700  0.491400  0.623920  1.0
  C  C1582  1  0.098300  0.508600  0.623920  1.0
  C  C1583  1  0.598300  0.491400  0.876080  1.0
  C  C1584  1  0.901700  0.508600  0.876080  1.0
  C  C1585  1  0.618300  0.483000  0.344980  1.0
  C  C1586  1  0.881700  0.517000  0.344980  1.0
  C  C1587  1  0.381700  0.483000  0.155020  1.0
  C  C1588  1  0.118300  0.517000  0.155020  1.0
  C  C1589  1  0.381700  0.517000  0.655020  1.0
  C  C1590  1  0.118300  0.483000  0.655020  1.0
  C  C1591  1  0.618300  0.517000  0.844980  1.0
  C  C1592  1  0.881700  0.483000  0.844980  1.0
  C  C1593  1  0.589400  0.465800  0.321970  1.0
  C  C1594  1  0.910600  0.534200  0.321970  1.0
  C  C1595  1  0.410600  0.465800  0.178030  1.0
  C  C1596  1  0.089400  0.534200  0.178030  1.0
  C  C1597  1  0.410600  0.534200  0.678030  1.0
  C  C1598  1  0.089400  0.465800  0.678030  1.0
  C  C1599  1  0.589400  0.534200  0.821970  1.0
  C  C1600  1  0.910600  0.465800  0.821970  1.0
  C  C1601  1  0.605100  0.444600  0.292460  1.0
  C  C1602  1  0.894900  0.555400  0.292460  1.0
  C  C1603  1  0.394900  0.444600  0.207540  1.0
  C  C1604  1  0.105100  0.555400  0.207540  1.0
  C  C1605  1  0.394900  0.555400  0.707540  1.0
  C  C1606  1  0.105100  0.444600  0.707540  1.0
  C  C1607  1  0.605100  0.555400  0.792460  1.0
  C  C1608  1  0.894900  0.444600  0.792460  1.0
  C  C1609  1  0.677200  0.459200  0.308700  1.0
  C  C1610  1  0.822800  0.540800  0.308700  1.0
  C  C1611  1  0.322800  0.459200  0.191300  1.0
  C  C1612  1  0.177200  0.540800  0.191300  1.0
  C  C1613  1  0.322800  0.540800  0.691300  1.0
  C  C1614  1  0.177200  0.459200  0.691300  1.0
  C  C1615  1  0.677200  0.540800  0.808700  1.0
  C  C1616  1  0.822800  0.459200  0.808700  1.0
  C  C1617  1  0.664600  0.479800  0.338900  1.0
  C  C1618  1  0.835400  0.520200  0.338900  1.0
  C  C1619  1  0.335400  0.479800  0.161100  1.0
  C  C1620  1  0.164600  0.520200  0.161100  1.0
  C  C1621  1  0.335400  0.520200  0.661100  1.0
  C  C1622  1  0.164600  0.479800  0.661100  1.0
  C  C1623  1  0.664600  0.520200  0.838900  1.0
  C  C1624  1  0.835400  0.479800  0.838900  1.0
  C  C1625  1  0.491900  0.652000  0.355500  1.0
  C  C1626  1  0.008100  0.348000  0.355500  1.0
  C  C1627  1  0.508100  0.652000  0.144500  1.0
  C  C1628  1  0.991900  0.348000  0.144500  1.0
  C  C1629  1  0.508100  0.348000  0.644500  1.0
  C  C1630  1  0.991900  0.652000  0.644500  1.0
  C  C1631  1  0.491900  0.348000  0.855500  1.0
  C  C1632  1  0.008100  0.652000  0.855500  1.0
  C  C1633  1  0.487400  0.604100  0.365700  1.0
  C  C1634  1  0.012600  0.395900  0.365700  1.0
  C  C1635  1  0.512600  0.604100  0.134300  1.0
  C  C1636  1  0.987400  0.395900  0.134300  1.0
  C  C1637  1  0.512600  0.395900  0.634300  1.0
  C  C1638  1  0.987400  0.604100  0.634300  1.0
  C  C1639  1  0.487400  0.395900  0.865700  1.0
  C  C1640  1  0.012600  0.604100  0.865700  1.0
  C  C1641  1  0.462000  0.577800  0.343820  1.0
  C  C1642  1  0.038000  0.422200  0.343820  1.0
  C  C1643  1  0.538000  0.577800  0.156180  1.0
  C  C1644  1  0.962000  0.422200  0.156180  1.0
  C  C1645  1  0.538000  0.422200  0.656180  1.0
  C  C1646  1  0.962000  0.577800  0.656180  1.0
  C  C1647  1  0.462000  0.422200  0.843820  1.0
  C  C1648  1  0.038000  0.577800  0.843820  1.0
  C  C1649  1  0.452900  0.535900  0.352030  1.0
  C  C1650  1  0.047100  0.464100  0.352030  1.0
  C  C1651  1  0.547100  0.535900  0.147970  1.0
  C  C1652  1  0.952900  0.464100  0.147970  1.0
  C  C1653  1  0.547100  0.464100  0.647970  1.0
  C  C1654  1  0.952900  0.535900  0.647970  1.0
  C  C1655  1  0.452900  0.464100  0.852030  1.0
  C  C1656  1  0.047100  0.535900  0.852030  1.0
  C  C1657  1  0.424500  0.509200  0.328410  1.0
  C  C1658  1  0.075500  0.490800  0.328410  1.0
  C  C1659  1  0.575500  0.509200  0.171590  1.0
  C  C1660  1  0.924500  0.490800  0.171590  1.0
  C  C1661  1  0.575500  0.490800  0.671590  1.0
  C  C1662  1  0.924500  0.509200  0.671590  1.0
  C  C1663  1  0.424500  0.490800  0.828410  1.0
  C  C1664  1  0.075500  0.509200  0.828410  1.0
  C  C1665  1  0.397000  0.524800  0.302600  1.0
  C  C1666  1  0.103000  0.475200  0.302600  1.0
  C  C1667  1  0.603000  0.524800  0.197400  1.0
  C  C1668  1  0.897000  0.475200  0.197400  1.0
  C  C1669  1  0.603000  0.475200  0.697400  1.0
  C  C1670  1  0.897000  0.524800  0.697400  1.0
  C  C1671  1  0.397000  0.475200  0.802600  1.0
  C  C1672  1  0.103000  0.524800  0.802600  1.0
  C  C1673  1  0.370300  0.497900  0.283160  1.0
  C  C1674  1  0.129700  0.502100  0.283160  1.0
  C  C1675  1  0.629700  0.497900  0.216840  1.0
  C  C1676  1  0.870300  0.502100  0.216840  1.0
  C  C1677  1  0.629700  0.502100  0.716840  1.0
  C  C1678  1  0.870300  0.497900  0.716840  1.0
  C  C1679  1  0.370300  0.502100  0.783160  1.0
  C  C1680  1  0.129700  0.497900  0.783160  1.0
  C  C1681  1  0.399000  0.440000  0.311990  1.0
  C  C1682  1  0.101000  0.560000  0.311990  1.0
  C  C1683  1  0.601000  0.440000  0.188010  1.0
  C  C1684  1  0.899000  0.560000  0.188010  1.0
  C  C1685  1  0.601000  0.560000  0.688010  1.0
  C  C1686  1  0.899000  0.440000  0.688010  1.0
  C  C1687  1  0.399000  0.560000  0.811990  1.0
  C  C1688  1  0.101000  0.440000  0.811990  1.0
  C  C1689  1  0.425800  0.465500  0.332640  1.0
  C  C1690  1  0.074200  0.534500  0.332640  1.0
  C  C1691  1  0.574200  0.465500  0.167360  1.0
  C  C1692  1  0.925800  0.534500  0.167360  1.0
  C  C1693  1  0.574200  0.534500  0.667360  1.0
  C  C1694  1  0.925800  0.465500  0.667360  1.0
  C  C1695  1  0.425800  0.534500  0.832640  1.0
  C  C1696  1  0.074200  0.465500  0.832640  1.0
  C  C1697  1  0.420000  0.535000  0.494200  1.0
  C  C1698  1  0.080000  0.465000  0.494200  1.0
  C  C1699  1  0.580000  0.535000  0.005800  1.0
  C  C1700  1  0.920000  0.465000  0.005800  1.0
  C  C1701  1  0.580000  0.465000  0.505800  1.0
  C  C1702  1  0.920000  0.535000  0.505800  1.0
  C  C1703  1  0.420000  0.465000  0.994200  1.0
  C  C1704  1  0.080000  0.535000  0.994200  1.0
  C  C1705  1  0.454500  0.517200  0.470160  1.0
  C  C1706  1  0.045500  0.482800  0.470160  1.0
  C  C1707  1  0.545500  0.517200  0.029840  1.0
  C  C1708  1  0.954500  0.482800  0.029840  1.0
  C  C1709  1  0.545500  0.482800  0.529840  1.0
  C  C1710  1  0.954500  0.517200  0.529840  1.0
  C  C1711  1  0.454500  0.482800  0.970160  1.0
  C  C1712  1  0.045500  0.517200  0.970160  1.0
  C  C1713  1  0.462600  0.473100  0.469250  1.0
  C  C1714  1  0.037400  0.526900  0.469250  1.0
  C  C1715  1  0.537400  0.473100  0.030750  1.0
  C  C1716  1  0.962600  0.526900  0.030750  1.0
  C  C1717  1  0.537400  0.526900  0.530750  1.0
  C  C1718  1  0.962600  0.473100  0.530750  1.0
  C  C1719  1  0.462600  0.526900  0.969250  1.0
  C  C1720  1  0.037400  0.473100  0.969250  1.0
  C  C1721  1  0.494200  0.455100  0.447310  1.0
  C  C1722  1  0.005800  0.544900  0.447310  1.0
  C  C1723  1  0.505800  0.455100  0.052690  1.0
  C  C1724  1  0.994200  0.544900  0.052690  1.0
  C  C1725  1  0.505800  0.544900  0.552690  1.0
  C  C1726  1  0.994200  0.455100  0.552690  1.0
  C  C1727  1  0.494200  0.544900  0.947310  1.0
  C  C1728  1  0.005800  0.455100  0.947310  1.0
  C  C1729  1  0.500800  0.407500  0.447410  1.0
  C  C1730  1  0.999200  0.592500  0.447410  1.0
  C  C1731  1  0.499200  0.407500  0.052590  1.0
  C  C1732  1  0.000800  0.592500  0.052590  1.0
  C  C1733  1  0.499200  0.592500  0.552590  1.0
  C  C1734  1  0.000800  0.407500  0.552590  1.0
  C  C1735  1  0.500800  0.592500  0.947410  1.0
  C  C1736  1  0.999200  0.407500  0.947410  1.0
  C  C1737  1  0.487100  0.381400  0.475200  1.0
  C  C1738  1  0.012900  0.618600  0.475200  1.0
  C  C1739  1  0.512900  0.381400  0.024800  1.0
  C  C1740  1  0.987100  0.618600  0.024800  1.0
  C  C1741  1  0.512900  0.618600  0.524800  1.0
  C  C1742  1  0.987100  0.381400  0.524800  1.0
  C  C1743  1  0.487100  0.618600  0.975200  1.0
  C  C1744  1  0.012900  0.381400  0.975200  1.0
  C  C1745  1  0.495600  0.336400  0.471800  1.0
  C  C1746  1  0.004400  0.663600  0.471800  1.0
  C  C1747  1  0.504400  0.336400  0.028200  1.0
  C  C1748  1  0.995600  0.663600  0.028200  1.0
  C  C1749  1  0.504400  0.663600  0.528200  1.0
  C  C1750  1  0.995600  0.336400  0.528200  1.0
  C  C1751  1  0.495600  0.663600  0.971800  1.0
  C  C1752  1  0.004400  0.336400  0.971800  1.0
  C  C1753  1  0.530000  0.345300  0.419400  1.0
  C  C1754  1  0.970000  0.654700  0.419400  1.0
  C  C1755  1  0.470000  0.345300  0.080600  1.0
  C  C1756  1  0.030000  0.654700  0.080600  1.0
  C  C1757  1  0.470000  0.654700  0.580600  1.0
  C  C1758  1  0.030000  0.345300  0.580600  1.0
  C  C1759  1  0.530000  0.654700  0.919400  1.0
  C  C1760  1  0.970000  0.345300  0.919400  1.0
  C  C1761  1  0.523900  0.388900  0.419300  1.0
  C  C1762  1  0.976100  0.611100  0.419300  1.0
  C  C1763  1  0.476100  0.388900  0.080700  1.0
  C  C1764  1  0.023900  0.611100  0.080700  1.0
  C  C1765  1  0.476100  0.611100  0.580700  1.0
  C  C1766  1  0.023900  0.388900  0.580700  1.0
  C  C1767  1  0.523900  0.611100  0.919300  1.0
  C  C1768  1  0.976100  0.388900  0.919300  1.0
  N  N1769  1  0.715000  0.379000  0.265530  1.0
  N  N1770  1  0.785000  0.621000  0.265530  1.0
  N  N1771  1  0.285000  0.379000  0.234470  1.0
  N  N1772  1  0.215000  0.621000  0.234470  1.0
  N  N1773  1  0.285000  0.621000  0.734470  1.0
  N  N1774  1  0.215000  0.379000  0.734470  1.0
  N  N1775  1  0.715000  0.621000  0.765530  1.0
  N  N1776  1  0.785000  0.379000  0.765530  1.0
  N  N1777  1  0.592800  0.265000  0.433270  1.0
  N  N1778  1  0.907200  0.735000  0.433270  1.0
  N  N1779  1  0.407200  0.265000  0.066730  1.0
  N  N1780  1  0.092800  0.735000  0.066730  1.0
  N  N1781  1  0.407200  0.735000  0.566730  1.0
  N  N1782  1  0.092800  0.265000  0.566730  1.0
  N  N1783  1  0.592800  0.735000  0.933270  1.0
  N  N1784  1  0.907200  0.265000  0.933270  1.0
  N  N1785  1  0.725500  0.107700  0.257100  1.0
  N  N1786  1  0.774500  0.892300  0.257100  1.0
  N  N1787  1  0.274500  0.107700  0.242900  1.0
  N  N1788  1  0.225500  0.892300  0.242900  1.0
  N  N1789  1  0.274500  0.892300  0.742900  1.0
  N  N1790  1  0.225500  0.107700  0.742900  1.0
  N  N1791  1  0.725500  0.892300  0.757100  1.0
  N  N1792  1  0.774500  0.107700  0.757100  1.0
  N  N1793  1  0.354400  0.058400  0.318200  1.0
  N  N1794  1  0.145600  0.941600  0.318200  1.0
  N  N1795  1  0.645600  0.058400  0.181800  1.0
  N  N1796  1  0.854400  0.941600  0.181800  1.0
  N  N1797  1  0.645600  0.941600  0.681800  1.0
  N  N1798  1  0.854400  0.058400  0.681800  1.0
  N  N1799  1  0.354400  0.941600  0.818200  1.0
  N  N1800  1  0.145600  0.058400  0.818200  1.0
  N  N1801  1  0.656500  0.045200  0.254500  1.0
  N  N1802  1  0.843500  0.954800  0.254500  1.0
  N  N1803  1  0.343500  0.045200  0.245500  1.0
  N  N1804  1  0.156500  0.954800  0.245500  1.0
  N  N1805  1  0.343500  0.954800  0.745500  1.0
  N  N1806  1  0.156500  0.045200  0.745500  1.0
  N  N1807  1  0.656500  0.954800  0.754500  1.0
  N  N1808  1  0.843500  0.045200  0.754500  1.0
  N  N1809  1  0.537600  0.192100  0.439700  1.0
  N  N1810  1  0.962400  0.807900  0.439700  1.0
  N  N1811  1  0.462400  0.192100  0.060300  1.0
  N  N1812  1  0.037600  0.807900  0.060300  1.0
  N  N1813  1  0.462400  0.807900  0.560300  1.0
  N  N1814  1  0.037600  0.192100  0.560300  1.0
  N  N1815  1  0.537600  0.807900  0.939700  1.0
  N  N1816  1  0.962400  0.192100  0.939700  1.0
  N  N1817  1  0.285200  0.121000  0.318000  1.0
  N  N1818  1  0.214800  0.879000  0.318000  1.0
  N  N1819  1  0.714800  0.121000  0.182000  1.0
  N  N1820  1  0.785200  0.879000  0.182000  1.0
  N  N1821  1  0.714800  0.879000  0.682000  1.0
  N  N1822  1  0.785200  0.121000  0.682000  1.0
  N  N1823  1  0.285200  0.879000  0.818000  1.0
  N  N1824  1  0.214800  0.121000  0.818000  1.0
  N  N1825  1  0.460200  0.245640  0.449200  1.0
  N  N1826  1  0.039800  0.754360  0.449200  1.0
  N  N1827  1  0.539800  0.245640  0.050800  1.0
  N  N1828  1  0.960200  0.754360  0.050800  1.0
  N  N1829  1  0.539800  0.754360  0.550800  1.0
  N  N1830  1  0.960200  0.245640  0.550800  1.0
  N  N1831  1  0.460200  0.754360  0.949200  1.0
  N  N1832  1  0.039800  0.245640  0.949200  1.0
  N  N1833  1  0.305400  0.394300  0.306960  1.0
  N  N1834  1  0.194600  0.605700  0.306960  1.0
  N  N1835  1  0.694600  0.394300  0.193040  1.0
  N  N1836  1  0.805400  0.605700  0.193040  1.0
  N  N1837  1  0.694600  0.605700  0.693040  1.0
  N  N1838  1  0.805400  0.394300  0.693040  1.0
  N  N1839  1  0.305400  0.605700  0.806960  1.0
  N  N1840  1  0.194600  0.394300  0.806960  1.0
  N  N1841  1  0.649200  0.441600  0.285840  1.0
  N  N1842  1  0.850800  0.558400  0.285840  1.0
  N  N1843  1  0.350800  0.441600  0.214160  1.0
  N  N1844  1  0.149200  0.558400  0.214160  1.0
  N  N1845  1  0.350800  0.558400  0.714160  1.0
  N  N1846  1  0.149200  0.441600  0.714160  1.0
  N  N1847  1  0.649200  0.558400  0.785840  1.0
  N  N1848  1  0.850800  0.441600  0.785840  1.0
  N  N1849  1  0.372200  0.455400  0.286700  1.0
  N  N1850  1  0.127800  0.544600  0.286700  1.0
  N  N1851  1  0.627800  0.455400  0.213300  1.0
  N  N1852  1  0.872200  0.544600  0.213300  1.0
  N  N1853  1  0.627800  0.544600  0.713300  1.0
  N  N1854  1  0.872200  0.455400  0.713300  1.0
  N  N1855  1  0.372200  0.544600  0.786700  1.0
  N  N1856  1  0.127800  0.455400  0.786700  1.0
  N  N1857  1  0.516300  0.319470  0.444300  1.0
  N  N1858  1  0.983700  0.680530  0.444300  1.0
  N  N1859  1  0.483700  0.319470  0.055700  1.0
  N  N1860  1  0.016300  0.680530  0.055700  1.0
  N  N1861  1  0.483700  0.680530  0.555700  1.0
  N  N1862  1  0.016300  0.319470  0.555700  1.0
  N  N1863  1  0.516300  0.680530  0.944300  1.0
  N  N1864  1  0.983700  0.319470  0.944300  1.0
  O  O1865  1  0.742400  0.015600  0.204300  1
  O  O1866  1  0.757600  0.984400  0.204300  1
  O  O1867  1  0.257600  0.015600  0.295700  1
  O  O1868  1  0.242400  0.984400  0.295700  1
  O  O1869  1  0.257600  0.984400  0.795700  1
  O  O1870  1  0.242400  0.015600  0.795700  1
  O  O1871  1  0.742400  0.984400  0.704300  1
  O  O1872  1  0.757600  0.015600  0.704300  1
  O  O1873  1  0.873400  0.248590  0.357130  1.0
  O  O1874  1  0.626600  0.751410  0.357130  1.0
  O  O1875  1  0.126600  0.248590  0.142870  1.0
  O  O1876  1  0.373400  0.751410  0.142870  1.0
  O  O1877  1  0.126600  0.751410  0.642870  1.0
  O  O1878  1  0.373400  0.248590  0.642870  1.0
  O  O1879  1  0.873400  0.751410  0.857130  1.0
  O  O1880  1  0.626600  0.248590  0.857130  1.0
  O  O1881  1  0.792100  0.287680  0.350820  1.0
  O  O1882  1  0.707900  0.712320  0.350820  1.0
  O  O1883  1  0.207900  0.287680  0.149180  1.0
  O  O1884  1  0.292100  0.712320  0.149180  1.0
  O  O1885  1  0.207900  0.712320  0.649180  1.0
  O  O1886  1  0.292100  0.287680  0.649180  1.0
  O  O1887  1  0.792100  0.712320  0.850820  1.0
  O  O1888  1  0.707900  0.287680  0.850820  1.0
  O  O1889  1  0.834220  0.276420  0.420640  1.0
  O  O1890  1  0.665780  0.723580  0.420640  1.0
  O  O1891  1  0.165780  0.276420  0.079360  1.0
  O  O1892  1  0.334220  0.723580  0.079360  1.0
  O  O1893  1  0.165780  0.723580  0.579360  1.0
  O  O1894  1  0.334220  0.276420  0.579360  1.0
  O  O1895  1  0.834220  0.723580  0.920640  1.0
  O  O1896  1  0.665780  0.276420  0.920640  1.0
  O  O1897  1  0.753150  0.241320  0.402520  1.0
  O  O1898  1  0.746850  0.758680  0.402520  1.0
  O  O1899  1  0.246850  0.241320  0.097480  1.0
  O  O1900  1  0.253150  0.758680  0.097480  1.0
  O  O1901  1  0.246850  0.758680  0.597480  1.0
  O  O1902  1  0.253150  0.241320  0.597480  1.0
  O  O1903  1  0.753150  0.758680  0.902520  1.0
  O  O1904  1  0.746850  0.241320  0.902520  1.0
  O  O1905  1  0.836000  0.190300  0.408280  1.0
  O  O1906  1  0.664000  0.809700  0.408280  1.0
  O  O1907  1  0.164000  0.190300  0.091720  1.0
  O  O1908  1  0.336000  0.809700  0.091720  1.0
  O  O1909  1  0.164000  0.809700  0.591720  1.0
  O  O1910  1  0.336000  0.190300  0.591720  1.0
  O  O1911  1  0.836000  0.809700  0.908280  1.0
  O  O1912  1  0.664000  0.190300  0.908280  1.0
  O  O1913  1  0.792700  0.200370  0.344770  1.0
  O  O1914  1  0.707300  0.799630  0.344770  1.0
  O  O1915  1  0.207300  0.200370  0.155230  1.0
  O  O1916  1  0.292700  0.799630  0.155230  1.0
  O  O1917  1  0.207300  0.799630  0.655230  1.0
  O  O1918  1  0.292700  0.200370  0.655230  1.0
  O  O1919  1  0.792700  0.799630  0.844770  1.0
  O  O1920  1  0.707300  0.200370  0.844770  1.0
  O  O1921  1  0.503100  0.960000  0.442380  1.0
  O  O1922  1  0.996900  0.040000  0.442380  1.0
  O  O1923  1  0.496900  0.960000  0.057620  1.0
  O  O1924  1  0.003100  0.040000  0.057620  1.0
  O  O1925  1  0.496900  0.040000  0.557620  1.0
  O  O1926  1  0.003100  0.960000  0.557620  1.0
  O  O1927  1  0.503100  0.040000  0.942380  1.0
  O  O1928  1  0.996900  0.960000  0.942380  1.0
  O  O1929  1  0.484000  0.988780  0.375830  1.0
  O  O1930  1  0.016000  0.011220  0.375830  1.0
  O  O1931  1  0.516000  0.988780  0.124170  1.0
  O  O1932  1  0.984000  0.011220  0.124170  1.0
  O  O1933  1  0.516000  0.011220  0.624170  1.0
  O  O1934  1  0.984000  0.988780  0.624170  1.0
  O  O1935  1  0.484000  0.011220  0.875830  1.0
  O  O1936  1  0.016000  0.988780  0.875830  1.0
  O  O1937  1  0.547700  0.917650  0.385710  1.0
  O  O1938  1  0.952300  0.082350  0.385710  1.0
  O  O1939  1  0.452300  0.917650  0.114290  1.0
  O  O1940  1  0.047700  0.082350  0.114290  1.0
  O  O1941  1  0.452300  0.082350  0.614290  1.0
  O  O1942  1  0.047700  0.917650  0.614290  1.0
  O  O1943  1  0.547700  0.082350  0.885710  1.0
  O  O1944  1  0.952300  0.917650  0.885710  1.0
  O  O1945  1  0.576400  0.993180  0.358840  1.0
  O  O1946  1  0.923600  0.006820  0.358840  1.0
  O  O1947  1  0.423600  0.993180  0.141160  1.0
  O  O1948  1  0.076400  0.006820  0.141160  1.0
  O  O1949  1  0.423600  0.006820  0.641160  1.0
  O  O1950  1  0.076400  0.993180  0.641160  1.0
  O  O1951  1  0.576400  0.006820  0.858840  1.0
  O  O1952  1  0.923600  0.993180  0.858840  1.0
  O  O1953  1  0.596900  0.972100  0.431100  1.0
  O  O1954  1  0.903100  0.027900  0.431100  1.0
  O  O1955  1  0.403100  0.972100  0.068900  1.0
  O  O1956  1  0.096900  0.027900  0.068900  1.0
  O  O1957  1  0.403100  0.027900  0.568900  1.0
  O  O1958  1  0.096900  0.972100  0.568900  1.0
  O  O1959  1  0.596900  0.027900  0.931100  1.0
  O  O1960  1  0.903100  0.972100  0.931100  1.0
  O  O1961  1  0.539600  0.037890  0.415830  1.0
  O  O1962  1  0.960400  0.962110  0.415830  1.0
  O  O1963  1  0.460400  0.037890  0.084170  1.0
  O  O1964  1  0.039600  0.962110  0.084170  1.0
  O  O1965  1  0.460400  0.962110  0.584170  1.0
  O  O1966  1  0.039600  0.037890  0.584170  1.0
  O  O1967  1  0.539600  0.962110  0.915830  1.0
  O  O1968  1  0.960400  0.037890  0.915830  1.0
  O  O1969  1  0.165700  0.262740  0.430320  1.0
  O  O1970  1  0.334300  0.737260  0.430320  1.0
  O  O1971  1  0.834300  0.262740  0.069680  1.0
  O  O1972  1  0.665700  0.737260  0.069680  1.0
  O  O1973  1  0.834300  0.737260  0.569680  1.0
  O  O1974  1  0.665700  0.262740  0.569680  1.0
  O  O1975  1  0.165700  0.737260  0.930320  1.0
  O  O1976  1  0.334300  0.262740  0.930320  1.0
  O  O1977  1  0.241900  0.220570  0.410350  1.0
  O  O1978  1  0.258100  0.779430  0.410350  1.0
  O  O1979  1  0.758100  0.220570  0.089650  1.0
  O  O1980  1  0.741900  0.779430  0.089650  1.0
  O  O1981  1  0.758100  0.779430  0.589650  1.0
  O  O1982  1  0.741900  0.220570  0.589650  1.0
  O  O1983  1  0.241900  0.779430  0.910350  1.0
  O  O1984  1  0.258100  0.220570  0.910350  1.0
  O  O1985  1  0.221400  0.231420  0.484320  1.0
  O  O1986  1  0.278600  0.768580  0.484320  1.0
  O  O1987  1  0.778600  0.231420  0.015680  1.0
  O  O1988  1  0.721400  0.768580  0.015680  1.0
  O  O1989  1  0.778600  0.768580  0.515680  1.0
  O  O1990  1  0.721400  0.231420  0.515680  1.0
  O  O1991  1  0.221400  0.768580  0.984320  1.0
  O  O1992  1  0.278600  0.231420  0.984320  1.0
  O  O1993  1  0.294520  0.269820  0.453560  1.0
  O  O1994  1  0.205480  0.730180  0.453560  1.0
  O  O1995  1  0.705480  0.269820  0.046440  1.0
  O  O1996  1  0.794520  0.730180  0.046440  1.0
  O  O1997  1  0.705480  0.730180  0.546440  1.0
  O  O1998  1  0.794520  0.269820  0.546440  1.0
  O  O1999  1  0.294520  0.730180  0.953560  1.0
  O  O2000  1  0.205480  0.269820  0.953560  1.0
  O  O2001  1  0.218300  0.321300  0.470880  1.0
  O  O2002  1  0.281700  0.678700  0.470880  1.0
  O  O2003  1  0.781700  0.321300  0.029120  1.0
  O  O2004  1  0.718300  0.678700  0.029120  1.0
  O  O2005  1  0.781700  0.678700  0.529120  1.0
  O  O2006  1  0.718300  0.321300  0.529120  1.0
  O  O2007  1  0.218300  0.678700  0.970880  1.0
  O  O2008  1  0.281700  0.321300  0.970880  1.0
  O  O2009  1  0.242880  0.308490  0.402260  1.0
  O  O2010  1  0.257120  0.691510  0.402260  1.0
  O  O2011  1  0.757120  0.308490  0.097740  1.0
  O  O2012  1  0.742880  0.691510  0.097740  1.0
  O  O2013  1  0.757120  0.691510  0.597740  1.0
  O  O2014  1  0.742880  0.308490  0.597740  1.0
  O  O2015  1  0.242880  0.691510  0.902260  1.0
  O  O2016  1  0.257120  0.308490  0.902260  1.0
  O  O2017  1  0.572100  0.553790  0.438070  1.0
  O  O2018  1  0.927900  0.446210  0.438070  1.0
  O  O2019  1  0.427900  0.553790  0.061930  1.0
  O  O2020  1  0.072100  0.446210  0.061930  1.0
  O  O2021  1  0.427900  0.446210  0.561930  1.0
  O  O2022  1  0.072100  0.553790  0.561930  1.0
  O  O2023  1  0.572100  0.446210  0.938070  1.0
  O  O2024  1  0.927900  0.553790  0.938070  1.0
  O  O2025  1  0.557800  0.519440  0.372640  1.0
  O  O2026  1  0.942200  0.480560  0.372640  1.0
  O  O2027  1  0.442200  0.519440  0.127360  1.0
  O  O2028  1  0.057800  0.480560  0.127360  1.0
  O  O2029  1  0.442200  0.480560  0.627360  1.0
  O  O2030  1  0.057800  0.519440  0.627360  1.0
  O  O2031  1  0.557800  0.480560  0.872640  1.0
  O  O2032  1  0.942200  0.519440  0.872640  1.0
  O  O2033  1  0.506600  0.593440  0.393820  1.0
  O  O2034  1  0.993400  0.406560  0.393820  1.0
  O  O2035  1  0.493400  0.593440  0.106180  1.0
  O  O2036  1  0.006600  0.406560  0.106180  1.0
  O  O2037  1  0.493400  0.406560  0.606180  1.0
  O  O2038  1  0.006600  0.593440  0.606180  1.0
  O  O2039  1  0.506600  0.406560  0.893820  1.0
  O  O2040  1  0.993400  0.593440  0.893820  1.0
  O  O2041  1  0.466100  0.517240  0.379600  1.0
  O  O2042  1  0.033900  0.482760  0.379600  1.0
  O  O2043  1  0.533900  0.517240  0.120400  1.0
  O  O2044  1  0.966100  0.482760  0.120400  1.0
  O  O2045  1  0.533900  0.482760  0.620400  1.0
  O  O2046  1  0.966100  0.517240  0.620400  1.0
  O  O2047  1  0.466100  0.482760  0.879600  1.0
  O  O2048  1  0.033900  0.517240  0.879600  1.0
  O  O2049  1  0.476770  0.544730  0.452210  1.0
  O  O2050  1  0.023230  0.455270  0.452210  1.0
  O  O2051  1  0.523230  0.544730  0.047790  1.0
  O  O2052  1  0.976770  0.455270  0.047790  1.0
  O  O2053  1  0.523230  0.455270  0.547790  1.0
  O  O2054  1  0.976770  0.544730  0.547790  1.0
  O  O2055  1  0.476770  0.455270  0.952210  1.0
  O  O2056  1  0.023230  0.544730  0.952210  1.0
  O  O2057  1  0.522010  0.474770  0.427100  1.0
  O  O2058  1  0.977990  0.525230  0.427100  1.0
  O  O2059  1  0.477990  0.474770  0.072900  1.0
  O  O2060  1  0.022010  0.525230  0.072900  1.0
  O  O2061  1  0.477990  0.525230  0.572900  1.0
  O  O2062  1  0.022010  0.474770  0.572900  1.0
  O  O2063  1  0.522010  0.525230  0.927100  1.0
  O  O2064  1  0.977990  0.474770  0.927100  1.0
  O  O2065  1  0.539700  0.253550  0.505240  1.0
  O  O2066  1  0.960300  0.746450  0.505240  1.0
  O  O2067  1  0.460300  0.253550  0.994760  1.0
  O  O2068  1  0.039700  0.746450  0.994760  1.0
  O  O2069  1  0.460300  0.746450  0.494760  1.0
  O  O2070  1  0.039700  0.253550  0.494760  1.0
  O  O2071  1  0.539700  0.746450  0.005240  1.0
  O  O2072  1  0.960300  0.253550  0.005240  1.0
  O  O2073  1  0.614900  0.363080  0.242590  1.0
  O  O2074  1  0.885100  0.636920  0.242590  1.0
  O  O2075  1  0.385100  0.363080  0.257410  1.0
  O  O2076  1  0.114900  0.636920  0.257410  1.0
  O  O2077  1  0.385100  0.636920  0.757410  1.0
  O  O2078  1  0.114900  0.363080  0.757410  1.0
  O  O2079  1  0.614900  0.636920  0.742590  1.0
  O  O2080  1  0.885100  0.363080  0.742590  1.0
  O  O2081  1  0.731000  0.473700  0.237490  1.0
  O  O2082  1  0.769000  0.526300  0.237490  1.0
  O  O2083  1  0.269000  0.473700  0.262510  1.0
  O  O2084  1  0.231000  0.526300  0.262510  1.0
  O  O2085  1  0.269000  0.526300  0.762510  1.0
  O  O2086  1  0.231000  0.473700  0.762510  1.0
  O  O2087  1  0.731000  0.526300  0.737490  1.0
  O  O2088  1  0.769000  0.473700  0.737490  1.0
  O  O2089  1  0.513300  0.255850  0.378350  1.0
  O  O2090  1  0.986700  0.744150  0.378350  1.0
  O  O2091  1  0.486700  0.255850  0.121650  1.0
  O  O2092  1  0.013300  0.744150  0.121650  1.0
  O  O2093  1  0.486700  0.744150  0.621650  1.0
  O  O2094  1  0.013300  0.255850  0.621650  1.0
  O  O2095  1  0.513300  0.744150  0.878350  1.0
  O  O2096  1  0.986700  0.255850  0.878350  1.0
  O  O2097  1  0.627200  0.139000  0.230240  1.0
  O  O2098  1  0.872800  0.861000  0.230240  1.0
  O  O2099  1  0.372800  0.139000  0.269760  1.0
  O  O2100  1  0.127200  0.861000  0.269760  1.0
  O  O2101  1  0.372800  0.861000  0.769760  1.0
  O  O2102  1  0.127200  0.139000  0.769760  1.0
  O  O2103  1  0.627200  0.861000  0.730240  1.0
  O  O2104  1  0.872800  0.139000  0.730240  1.0
