
#######################################################################
#
#                 Cambridge Crystallographic Data Centre
#                                CCDC 
#
#######################################################################
#
# If this CIF has been generated from an entry in the Cambridge 
# Structural Database, then it will include bibliographic, chemical, 
# crystal, experimental, refinement or atomic coordinate data resulting 
# from the CCDC's data processing and validation procedures.
#
#######################################################################

data_QELXAJ
_chemical_formula_moiety         'C216 H200 Br2 Cu6 Fe8 N24 O52 10+,10(Br1 1-)'
_chemical_name_systematic        
'tetracosakis(\m-1-(4-pyridyl)butane-1,3-dionato)-tetra-aqua-dibromo-octa-iron(iii)-hexa-copper(ii) decabromide unknown solvate'
_symmetry_cell_setting           tetragonal
_symmetry_space_group_name_H-M   'P 4/n n c'
_symmetry_Int_Tables_number      126
_space_group_name_Hall           '-P 4a 2bc'
loop_
_symmetry_equiv_pos_site_id
_symmetry_equiv_pos_as_xyz
1 x,y,z
2 1/2-x,1/2-y,z
3 x,1/2-y,1/2-z
4 1/2-x,y,1/2-z
5 1/2-y,1/2-x,1/2-z
6 y,x,1/2-z
7 y,1/2-x,z
8 1/2-y,x,z
9 -x,-y,-z
10 1/2+x,1/2+y,-z
11 -x,1/2+y,1/2+z
12 1/2+x,-y,1/2+z
13 1/2+y,1/2+x,1/2+z
14 -y,-x,1/2+z
15 -y,1/2+x,-z
16 1/2+y,-x,-z
_cell_length_a                   20.076(3)
_cell_length_b                   20.076(3)
_cell_length_c                   37.225(3)
_cell_angle_alpha                90
_cell_angle_beta                 90
_cell_angle_gamma                90
_cell_volume                     15003.4
_exptl_crystal_colour            red
_exptl_crystal_description       block
_cell_formula_units_Z            2
loop_
_atom_site_label
_atom_site_type_symbol
_atom_site_fract_x
_atom_site_fract_y
_atom_site_fract_z
Br1 Br 0.7500 -0.2500 0.15399(6)
Cu1 Cu 0.7500 0.0887(5) 0.2500
Cu2 Cu 0.7500 -0.2500 0.08348(4)
Fe1 Fe 1.05437(5) 0.06065(5) 0.08204(2)
O1 O 1.1398(2) 0.0369(2) 0.05795(11)
O2 O 1.0864(2) 0.0052(2) 0.12325(11)
O3 O 1.0936(2) 0.1509(2) 0.09240(11)
O4 O 0.9798(2) 0.0893(2) 0.11335(10)
O5 O 1.0239(2) 0.1021(2) 0.03509(11)
O6 O 0.9980(2) -0.0153(2) 0.06874(11)
N1 N 1.1028(4) -0.1872(3) 0.20650(14)
N2 N 0.8304(11) 0.0942(9) 0.2183(6)
N3 N 0.8073(3) -0.1697(3) 0.07453(14)
C1 C 1.2354(4) -0.0236(5) 0.0399(2)
H1 H 1.2185 -0.0381 0.0165
H2 H 1.2642 -0.0583 0.0500
H3 H 1.2609 0.0176 0.0371
C2 C 1.1773(3) -0.0114(4) 0.06506(16)
C3 C 1.1693(4) -0.0551(4) 0.09408(17)
H4 H 1.1963 -0.0939 0.0951
C4 C 1.1234(4) -0.0442(4) 0.12147(16)
C5 C 1.1183(4) -0.0944(3) 0.15114(16)
C6 C 1.1596(4) -0.1484(4) 0.15401(19)
H5 H 1.1939 -0.1552 0.1368
C7 C 1.1514(4) -0.1927(4) 0.18190(18)
H6 H 1.1817 -0.2289 0.1838
C8 C 1.0621(5) -0.1354(4) 0.20305(18)
H7 H 1.0275 -0.1302 0.2202
C9 C 1.0671(4) -0.0896(4) 0.17654(18)
H8 H 1.0358 -0.0541 0.1752
C10 C 1.1248(4) 0.2502(3) 0.12199(19)
H9 H 1.1496 0.2571 0.0996
H10 H 1.1561 0.2437 0.1419
H11 H 1.0970 0.2893 0.1269
C11 C 1.0815(4) 0.1901(3) 0.11838(17)
C12 C 1.0313(4) 0.1783(4) 0.14334(18)
H12 H 1.0298 0.2059 0.1641
C13 C 0.9840(3) 0.1299(3) 0.14010(16)
C14 C 0.9312(19) 0.1149(12) 0.1683(9)
C15 C 0.9285(12) 0.1533(10) 0.1993(6)
H13 H 0.9612 0.1865 0.2039
C16 C 0.8770(14) 0.1421(10) 0.2237(7)
H14 H 0.8744 0.1688 0.2447
C17 C 0.8384(13) 0.0555(11) 0.1892(7)
H15 H 0.8067 0.0211 0.1851
C18 C 0.8881(17) 0.0624(12) 0.1657(9)
H16 H 0.8935 0.0307 0.1470
C19 C 0.9544(4) 0.1334(3) -0.01338(17)
H17 H 0.9123 0.1564 -0.0087
H18 H 0.9503 0.1069 -0.0354
H19 H 0.9901 0.1663 -0.0163
C20 C 0.9706(3) 0.0884(3) 0.01758(15)
C21 C 0.9284(4) 0.0364(3) 0.02584(17)
H20 H 0.8867 0.0342 0.0138
C22 C 0.9434(4) -0.0128(3) 0.05070(16)
C23 C 0.8958(3) -0.0670(3) 0.05794(16)
C24 C 0.8480(3) -0.0879(3) 0.03386(17)
H21 H 0.8449 -0.0677 0.0109
C25 C 0.8048(4) -0.1382(4) 0.04318(17)
H22 H 0.7715 -0.1509 0.0264
C26 C 0.8544(3) -0.1504(3) 0.09882(18)
H23 H 0.8567 -0.1721 0.1215
C27 C 0.8982(3) -0.1006(4) 0.09122(19)
H24 H 0.9308 -0.0884 0.1085
O7 O 0.7500 -0.0423(9) 0.2500
H25 H 0.7530 -0.0694 0.2689
H25C H 0.7470 -0.0694 0.2311
Cu1A Cu 0.7500 -0.5887(5) 0.2500
Fe1A Fe 0.44563(5) -0.56065(5) 0.08204(2)
O1A O 0.3602(2) -0.5369(2) 0.05795(11)
O2A O 0.4136(2) -0.5052(2) 0.12325(11)
O3A O 0.4064(2) -0.6509(2) 0.09240(11)
O4A O 0.5202(2) -0.5893(2) 0.11335(10)
O5A O 0.4761(2) -0.6021(2) 0.03509(11)
O6A O 0.5020(2) -0.4847(2) 0.06874(11)
N1A N 0.3972(4) -0.3128(3) 0.20650(14)
N2A N 0.6696(11) -0.5942(9) 0.2183(6)
N3A N 0.6927(3) -0.3303(3) 0.07453(14)
C1A C 0.2646(4) -0.4764(5) 0.0399(2)
H1A H 0.2815 -0.4619 0.0165
H2A H 0.2358 -0.4417 0.0500
H3A H 0.2391 -0.5176 0.0371
C2A C 0.3227(3) -0.4886(4) 0.06506(16)
C3A C 0.3307(4) -0.4449(4) 0.09408(17)
H4A H 0.3037 -0.4061 0.0951
C4A C 0.3766(4) -0.4558(4) 0.12147(16)
C5A C 0.3817(4) -0.4056(3) 0.15114(16)
C6A C 0.3404(4) -0.3516(4) 0.15401(19)
H5A H 0.3061 -0.3448 0.1368
C7A C 0.3486(4) -0.3073(4) 0.18190(18)
H6A H 0.3183 -0.2711 0.1838
C8A C 0.4379(5) -0.3646(4) 0.20305(18)
H7A H 0.4725 -0.3698 0.2202
C9A C 0.4329(4) -0.4104(4) 0.17654(18)
H8A H 0.4642 -0.4459 0.1752
C10A C 0.3752(4) -0.7502(3) 0.12199(19)
H9A H 0.3504 -0.7571 0.0996
H10A H 0.3439 -0.7437 0.1419
H11A H 0.4030 -0.7893 0.1269
C11A C 0.4185(4) -0.6901(3) 0.11838(17)
C12A C 0.4687(4) -0.6783(4) 0.14334(18)
H12A H 0.4702 -0.7059 0.1641
C13A C 0.5160(3) -0.6299(3) 0.14010(16)
C14A C 0.5688(19) -0.6149(12) 0.1683(9)
C15A C 0.5715(12) -0.6533(10) 0.1993(6)
H13A H 0.5388 -0.6865 0.2039
C16A C 0.6230(14) -0.6421(10) 0.2237(7)
H14A H 0.6256 -0.6688 0.2447
C17A C 0.6616(13) -0.5555(11) 0.1892(7)
H15A H 0.6933 -0.5211 0.1851
C18A C 0.6119(17) -0.5624(12) 0.1657(9)
H16A H 0.6065 -0.5307 0.1470
C19A C 0.5456(4) -0.6334(3) -0.01338(17)
H17A H 0.5877 -0.6564 -0.0087
H18A H 0.5497 -0.6069 -0.0354
H19A H 0.5099 -0.6663 -0.0163
C20A C 0.5294(3) -0.5884(3) 0.01758(15)
C21A C 0.5716(4) -0.5364(3) 0.02584(17)
H20A H 0.6133 -0.5342 0.0138
C22A C 0.5566(4) -0.4872(3) 0.05070(16)
C23A C 0.6042(3) -0.4330(3) 0.05794(16)
C24A C 0.6520(3) -0.4121(3) 0.03386(17)
H21A H 0.6551 -0.4323 0.0109
C25A C 0.6952(4) -0.3618(4) 0.04318(17)
H22A H 0.7285 -0.3491 0.0264
C26A C 0.6456(3) -0.3496(3) 0.09882(18)
H23A H 0.6433 -0.3279 0.1215
C27A C 0.6018(3) -0.3994(4) 0.09122(19)
H24A H 0.5692 -0.4116 0.1085
O7A O 0.7500 -0.4577(9) 0.2500
H25A H 0.7470 -0.4306 0.2689
H25B H 0.7530 -0.4306 0.2311
Br1B Br 0.7500 -0.2500 0.34601(6)
Cu2B Cu 0.7500 -0.2500 0.41652(4)
Fe1B Fe 1.05437(5) -0.56065(5) 0.41796(2)
O1B O 1.1398(2) -0.5369(2) 0.44205(11)
O2B O 1.0864(2) -0.5052(2) 0.37675(11)
O3B O 1.0936(2) -0.6509(2) 0.40760(11)
O4B O 0.9798(2) -0.5893(2) 0.38665(10)
O5B O 1.0239(2) -0.6021(2) 0.46491(11)
O6B O 0.9980(2) -0.4847(2) 0.43126(11)
N1B N 1.1028(4) -0.3128(3) 0.29350(14)
N2B N 0.8304(11) -0.5942(9) 0.2817(6)
N3B N 0.8073(3) -0.3303(3) 0.42547(14)
C1B C 1.2354(4) -0.4764(5) 0.4601(2)
H1B H 1.2185 -0.4619 0.4835
H2B H 1.2642 -0.4417 0.4500
H3B H 1.2609 -0.5176 0.4629
C2B C 1.1773(3) -0.4886(4) 0.43494(16)
C3B C 1.1693(4) -0.4449(4) 0.40592(17)
H4B H 1.1963 -0.4061 0.4049
C4B C 1.1234(4) -0.4558(4) 0.37853(16)
C5B C 1.1183(4) -0.4056(3) 0.34886(16)
C6B C 1.1596(4) -0.3516(4) 0.34599(19)
H5B H 1.1939 -0.3448 0.3632
C7B C 1.1514(4) -0.3073(4) 0.31810(18)
H6B H 1.1817 -0.2711 0.3162
C8B C 1.0621(5) -0.3646(4) 0.29695(18)
H7B H 1.0275 -0.3698 0.2798
C9B C 1.0671(4) -0.4104(4) 0.32346(18)
H8B H 1.0358 -0.4459 0.3248
C10B C 1.1248(4) -0.7502(3) 0.37801(19)
H9B H 1.1496 -0.7571 0.4004
H10B H 1.1561 -0.7437 0.3581
H11B H 1.0970 -0.7893 0.3731
C11B C 1.0815(4) -0.6901(3) 0.38162(17)
C12B C 1.0313(4) -0.6783(4) 0.35666(18)
H12B H 1.0298 -0.7059 0.3359
C13B C 0.9840(3) -0.6299(3) 0.35990(16)
C14B C 0.9312(19) -0.6149(12) 0.3317(9)
C15B C 0.9285(12) -0.6533(10) 0.3007(6)
H13B H 0.9612 -0.6865 0.2961
C16B C 0.8770(14) -0.6421(10) 0.2763(7)
H14B H 0.8744 -0.6688 0.2553
C17B C 0.8384(13) -0.5555(11) 0.3108(7)
H15B H 0.8067 -0.5211 0.3149
C18B C 0.8881(17) -0.5624(12) 0.3343(9)
H16B H 0.8935 -0.5307 0.3530
C19B C 0.9544(4) -0.6334(3) 0.51338(17)
H17B H 0.9123 -0.6564 0.5087
H18B H 0.9503 -0.6069 0.5354
H19B H 0.9901 -0.6663 0.5163
C20B C 0.9706(3) -0.5884(3) 0.48242(15)
C21B C 0.9284(4) -0.5364(3) 0.47416(17)
H20B H 0.8867 -0.5342 0.4862
C22B C 0.9434(4) -0.4872(3) 0.44930(16)
C23B C 0.8958(3) -0.4330(3) 0.44206(16)
C24B C 0.8480(3) -0.4121(3) 0.46614(17)
H21B H 0.8449 -0.4323 0.4891
C25B C 0.8048(4) -0.3618(4) 0.45682(17)
H22B H 0.7715 -0.3491 0.4736
C26B C 0.8544(3) -0.3496(3) 0.40118(18)
H23B H 0.8567 -0.3279 0.3785
C27B C 0.8982(3) -0.3994(4) 0.40878(19)
H24B H 0.9308 -0.4116 0.3915
Fe1C Fe 0.44563(5) 0.06065(5) 0.41796(2)
O1C O 0.3602(2) 0.0369(2) 0.44205(11)
O2C O 0.4136(2) 0.0052(2) 0.37675(11)
O3C O 0.4064(2) 0.1509(2) 0.40760(11)
O4C O 0.5202(2) 0.0893(2) 0.38665(10)
O5C O 0.4761(2) 0.1021(2) 0.46491(11)
O6C O 0.5020(2) -0.0153(2) 0.43126(11)
N1C N 0.3972(4) -0.1872(3) 0.29350(14)
N2C N 0.6696(11) 0.0942(9) 0.2817(6)
N3C N 0.6927(3) -0.1697(3) 0.42547(14)
C1C C 0.2646(4) -0.0236(5) 0.4601(2)
H1C H 0.2815 -0.0381 0.4835
H2C H 0.2358 -0.0583 0.4500
H3C H 0.2391 0.0176 0.4629
C2C C 0.3227(3) -0.0114(4) 0.43494(16)
C3C C 0.3307(4) -0.0551(4) 0.40592(17)
H4C H 0.3037 -0.0939 0.4049
C4C C 0.3766(4) -0.0442(4) 0.37853(16)
C5C C 0.3817(4) -0.0944(3) 0.34886(16)
C6C C 0.3404(4) -0.1484(4) 0.34599(19)
H5C H 0.3061 -0.1552 0.3632
C7C C 0.3486(4) -0.1927(4) 0.31810(18)
H6C H 0.3183 -0.2289 0.3162
C8C C 0.4379(5) -0.1354(4) 0.29695(18)
H7C H 0.4725 -0.1302 0.2798
C9C C 0.4329(4) -0.0896(4) 0.32346(18)
H8C H 0.4642 -0.0541 0.3248
C10C C 0.3752(4) 0.2502(3) 0.37801(19)
H9C H 0.3504 0.2571 0.4004
H10C H 0.3439 0.2437 0.3581
H11C H 0.4030 0.2893 0.3731
C11C C 0.4185(4) 0.1901(3) 0.38162(17)
C12C C 0.4687(4) 0.1783(4) 0.35666(18)
H12C H 0.4702 0.2059 0.3359
C13C C 0.5160(3) 0.1299(3) 0.35990(16)
C14C C 0.5688(19) 0.1149(12) 0.3317(9)
C15C C 0.5715(12) 0.1533(10) 0.3007(6)
H13C H 0.5388 0.1865 0.2961
C16C C 0.6230(14) 0.1421(10) 0.2763(7)
H14C H 0.6256 0.1688 0.2553
C17C C 0.6616(13) 0.0555(11) 0.3108(7)
H15C H 0.6933 0.0211 0.3149
C18C C 0.6119(17) 0.0624(12) 0.3343(9)
H16C H 0.6065 0.0307 0.3530
C19C C 0.5456(4) 0.1334(3) 0.51338(17)
H17C H 0.5877 0.1564 0.5087
H18C H 0.5497 0.1069 0.5354
H19C H 0.5099 0.1663 0.5163
C20C C 0.5294(3) 0.0884(3) 0.48242(15)
C21C C 0.5716(4) 0.0364(3) 0.47416(17)
H20C H 0.6133 0.0342 0.4862
C22C C 0.5566(4) -0.0128(3) 0.44930(16)
C23C C 0.6042(3) -0.0670(3) 0.44206(16)
C24C C 0.6520(3) -0.0879(3) 0.46614(17)
H21C H 0.6551 -0.0677 0.4891
C25C C 0.6952(4) -0.1382(4) 0.45682(17)
H22C H 0.7285 -0.1509 0.4736
C26C C 0.6456(3) -0.1504(3) 0.40118(18)
H23C H 0.6433 -0.1721 0.3785
C27C C 0.6018(3) -0.1006(4) 0.40878(19)
H24C H 0.5692 -0.0884 0.3915
Cu1D Cu 0.4113(5) -0.2500 0.2500
Fe1D Fe 0.43935(5) -0.55437(5) 0.41796(2)
O1D O 0.4631(2) -0.6398(2) 0.44205(11)
O2D O 0.4948(2) -0.5864(2) 0.37675(11)
O3D O 0.3491(2) -0.5936(2) 0.40760(11)
O4D O 0.4107(2) -0.4798(2) 0.38665(10)
O5D O 0.3979(2) -0.5239(2) 0.46491(11)
O6D O 0.5153(2) -0.4980(2) 0.43126(11)
N1D N 0.6872(3) -0.6028(4) 0.29350(14)
N2D N 0.4058(9) -0.3304(11) 0.2817(6)
N3D N 0.6697(3) -0.3073(3) 0.42547(14)
C1D C 0.5236(5) -0.7354(4) 0.4601(2)
H1D H 0.5381 -0.7185 0.4835
H2D H 0.5583 -0.7642 0.4500
H3D H 0.4824 -0.7609 0.4629
C2D C 0.5114(4) -0.6773(3) 0.43494(16)
C3D C 0.5551(4) -0.6693(4) 0.40592(17)
H4D H 0.5939 -0.6963 0.4049
C4D C 0.5442(4) -0.6234(4) 0.37853(16)
C5D C 0.5944(3) -0.6183(4) 0.34886(16)
C6D C 0.6484(4) -0.6596(4) 0.34599(19)
H5D H 0.6552 -0.6939 0.3632
C7D C 0.6927(4) -0.6514(4) 0.31810(18)
H6D H 0.7289 -0.6817 0.3162
C8D C 0.6354(4) -0.5621(5) 0.29695(18)
H7D H 0.6302 -0.5275 0.2798
C9D C 0.5896(4) -0.5671(4) 0.32346(18)
H8D H 0.5541 -0.5358 0.3248
C10D C 0.2498(3) -0.6248(4) 0.37801(19)
H9D H 0.2429 -0.6496 0.4004
H10D H 0.2563 -0.6561 0.3581
H11D H 0.2107 -0.5970 0.3731
C11D C 0.3099(3) -0.5815(4) 0.38162(17)
C12D C 0.3217(4) -0.5313(4) 0.35666(18)
H12D H 0.2941 -0.5298 0.3359
C13D C 0.3701(3) -0.4840(3) 0.35990(16)
C14D C 0.3851(12) -0.4312(19) 0.3317(9)
C15D C 0.3467(10) -0.4285(12) 0.3007(6)
H13D H 0.3135 -0.4612 0.2961
C16D C 0.3579(10) -0.3770(14) 0.2763(7)
H14D H 0.3312 -0.3744 0.2553
C17D C 0.4445(11) -0.3384(13) 0.3108(7)
H15D H 0.4789 -0.3067 0.3149
C18D C 0.4376(12) -0.3881(17) 0.3343(9)
H16D H 0.4693 -0.3935 0.3530
C19D C 0.3666(3) -0.4544(4) 0.51338(17)
H17D H 0.3436 -0.4123 0.5087
H18D H 0.3931 -0.4503 0.5354
H19D H 0.3337 -0.4901 0.5163
C20D C 0.4116(3) -0.4706(3) 0.48242(15)
C21D C 0.4636(3) -0.4284(4) 0.47416(17)
H20D H 0.4658 -0.3867 0.4862
C22D C 0.5128(3) -0.4434(4) 0.44930(16)
C23D C 0.5670(3) -0.3958(3) 0.44206(16)
C24D C 0.5879(3) -0.3480(3) 0.46614(17)
H21D H 0.5677 -0.3449 0.4891
C25D C 0.6382(4) -0.3048(4) 0.45682(17)
H22D H 0.6509 -0.2715 0.4736
C26D C 0.6504(3) -0.3544(3) 0.40118(18)
H23D H 0.6721 -0.3567 0.3785
C27D C 0.6006(4) -0.3982(3) 0.40878(19)
H24D H 0.5884 -0.4308 0.3915
O7D O 0.5423(9) -0.2500 0.2500
H25D H 0.5694 -0.2530 0.2311
H25G H 0.5694 -0.2470 0.2689
Cu1E Cu 1.0887(5) -0.2500 0.2500
Fe1E Fe 1.06065(5) 0.05437(5) 0.41796(2)
O1E O 1.0369(2) 0.1398(2) 0.44205(11)
O2E O 1.0052(2) 0.0864(2) 0.37675(11)
O3E O 1.1509(2) 0.0936(2) 0.40760(11)
O4E O 1.0893(2) -0.0202(2) 0.38665(10)
O5E O 1.1021(2) 0.0239(2) 0.46491(11)
O6E O 0.9847(2) -0.0020(2) 0.43126(11)
N1E N 0.8128(3) 0.1028(4) 0.29350(14)
N2E N 1.0942(9) -0.1696(11) 0.2817(6)
N3E N 0.8303(3) -0.1927(3) 0.42547(14)
C1E C 0.9764(5) 0.2354(4) 0.4601(2)
H1E H 0.9619 0.2185 0.4835
H2E H 0.9417 0.2642 0.4500
H3E H 1.0176 0.2609 0.4629
C2E C 0.9886(4) 0.1773(3) 0.43494(16)
C3E C 0.9449(4) 0.1693(4) 0.40592(17)
H4E H 0.9061 0.1963 0.4049
C4E C 0.9558(4) 0.1234(4) 0.37853(16)
C5E C 0.9056(3) 0.1183(4) 0.34886(16)
C6E C 0.8516(4) 0.1596(4) 0.34599(19)
H5E H 0.8448 0.1939 0.3632
C7E C 0.8073(4) 0.1514(4) 0.31810(18)
H6E H 0.7711 0.1817 0.3162
C8E C 0.8646(4) 0.0621(5) 0.29695(18)
H7E H 0.8698 0.0275 0.2798
C9E C 0.9104(4) 0.0671(4) 0.32346(18)
H8E H 0.9459 0.0358 0.3248
C10E C 1.2502(3) 0.1248(4) 0.37801(19)
H9E H 1.2571 0.1496 0.4004
H10E H 1.2437 0.1561 0.3581
H11E H 1.2893 0.0970 0.3731
C11E C 1.1901(3) 0.0815(4) 0.38162(17)
C12E C 1.1783(4) 0.0313(4) 0.35666(18)
H12E H 1.2059 0.0298 0.3359
C13E C 1.1299(3) -0.0160(3) 0.35990(16)
C14E C 1.1149(12) -0.0688(19) 0.3317(9)
C15E C 1.1533(10) -0.0715(12) 0.3007(6)
H13E H 1.1865 -0.0388 0.2961
C16E C 1.1421(10) -0.1230(14) 0.2763(7)
H14E H 1.1688 -0.1256 0.2553
C17E C 1.0555(11) -0.1616(13) 0.3108(7)
H15E H 1.0211 -0.1933 0.3149
C18E C 1.0624(12) -0.1119(17) 0.3343(9)
H16E H 1.0307 -0.1065 0.3530
C19E C 1.1334(3) -0.0456(4) 0.51338(17)
H17E H 1.1564 -0.0877 0.5087
H18E H 1.1069 -0.0497 0.5354
H19E H 1.1663 -0.0099 0.5163
C20E C 1.0884(3) -0.0294(3) 0.48242(15)
C21E C 1.0364(3) -0.0716(4) 0.47416(17)
H20E H 1.0342 -0.1133 0.4862
C22E C 0.9872(3) -0.0566(4) 0.44930(16)
C23E C 0.9330(3) -0.1042(3) 0.44206(16)
C24E C 0.9121(3) -0.1520(3) 0.46614(17)
H21E H 0.9323 -0.1551 0.4891
C25E C 0.8618(4) -0.1952(4) 0.45682(17)
H22E H 0.8491 -0.2285 0.4736
C26E C 0.8496(3) -0.1456(3) 0.40118(18)
H23E H 0.8279 -0.1433 0.3785
C27E C 0.8994(4) -0.1018(3) 0.40878(19)
H24E H 0.9116 -0.0692 0.3915
O7E O 0.9577(9) -0.2500 0.2500
H25E H 0.9306 -0.2470 0.2311
H25F H 0.9306 -0.2530 0.2689
Fe1F Fe 1.06065(5) -0.55437(5) 0.08204(2)
O1F O 1.0369(2) -0.6398(2) 0.05795(11)
O2F O 1.0052(2) -0.5864(2) 0.12325(11)
O3F O 1.1509(2) -0.5936(2) 0.09240(11)
O4F O 1.0893(2) -0.4798(2) 0.11335(10)
O5F O 1.1021(2) -0.5239(2) 0.03509(11)
O6F O 0.9847(2) -0.4980(2) 0.06874(11)
N1F N 0.8128(3) -0.6028(4) 0.20650(14)
N2F N 1.0942(9) -0.3304(11) 0.2183(6)
N3F N 0.8303(3) -0.3073(3) 0.07453(14)
C1F C 0.9764(5) -0.7354(4) 0.0399(2)
H1F H 0.9619 -0.7185 0.0165
H2F H 0.9417 -0.7642 0.0500
H3F H 1.0176 -0.7609 0.0371
C2F C 0.9886(4) -0.6773(3) 0.06506(16)
C3F C 0.9449(4) -0.6693(4) 0.09408(17)
H4F H 0.9061 -0.6963 0.0951
C4F C 0.9558(4) -0.6234(4) 0.12147(16)
C5F C 0.9056(3) -0.6183(4) 0.15114(16)
C6F C 0.8516(4) -0.6596(4) 0.15401(19)
H5F H 0.8448 -0.6939 0.1368
C7F C 0.8073(4) -0.6514(4) 0.18190(18)
H6F H 0.7711 -0.6817 0.1838
C8F C 0.8646(4) -0.5621(5) 0.20305(18)
H7F H 0.8698 -0.5275 0.2202
C9F C 0.9104(4) -0.5671(4) 0.17654(18)
H8F H 0.9459 -0.5358 0.1752
C10F C 1.2502(3) -0.6248(4) 0.12199(19)
H9F H 1.2571 -0.6496 0.0996
H10F H 1.2437 -0.6561 0.1419
H11F H 1.2893 -0.5970 0.1269
C11F C 1.1901(3) -0.5815(4) 0.11838(17)
C12F C 1.1783(4) -0.5313(4) 0.14334(18)
H12F H 1.2059 -0.5298 0.1641
C13F C 1.1299(3) -0.4840(3) 0.14010(16)
C14F C 1.1149(12) -0.4312(19) 0.1683(9)
C15F C 1.1533(10) -0.4285(12) 0.1993(6)
H13F H 1.1865 -0.4612 0.2039
C16F C 1.1421(10) -0.3770(14) 0.2237(7)
H14F H 1.1688 -0.3744 0.2447
C17F C 1.0555(11) -0.3384(13) 0.1892(7)
H15F H 1.0211 -0.3067 0.1851
C18F C 1.0624(12) -0.3881(17) 0.1657(9)
H16F H 1.0307 -0.3935 0.1470
C19F C 1.1334(3) -0.4544(4) -0.01338(17)
H17F H 1.1564 -0.4123 -0.0087
H18F H 1.1069 -0.4503 -0.0354
H19F H 1.1663 -0.4901 -0.0163
C20F C 1.0884(3) -0.4706(3) 0.01758(15)
C21F C 1.0364(3) -0.4284(4) 0.02584(17)
H20F H 1.0342 -0.3867 0.0138
C22F C 0.9872(3) -0.4434(4) 0.05070(16)
C23F C 0.9330(3) -0.3958(3) 0.05794(16)
C24F C 0.9121(3) -0.3480(3) 0.03386(17)
H21F H 0.9323 -0.3449 0.0109
C25F C 0.8618(4) -0.3048(4) 0.04318(17)
H22F H 0.8491 -0.2715 0.0264
C26F C 0.8496(3) -0.3544(3) 0.09882(18)
H23F H 0.8279 -0.3567 0.1215
C27F C 0.8994(4) -0.3982(3) 0.09122(19)
H24F H 0.9116 -0.4308 0.1085
Fe1G Fe 0.43935(5) 0.05437(5) 0.08204(2)
O1G O 0.4631(2) 0.1398(2) 0.05795(11)
O2G O 0.4948(2) 0.0864(2) 0.12325(11)
O3G O 0.3491(2) 0.0936(2) 0.09240(11)
O4G O 0.4107(2) -0.0202(2) 0.11335(10)
O5G O 0.3979(2) 0.0239(2) 0.03509(11)
O6G O 0.5153(2) -0.0020(2) 0.06874(11)
N1G N 0.6872(3) 0.1028(4) 0.20650(14)
N2G N 0.4058(9) -0.1696(11) 0.2183(6)
N3G N 0.6697(3) -0.1927(3) 0.07453(14)
C1G C 0.5236(5) 0.2354(4) 0.0399(2)
H1G H 0.5381 0.2185 0.0165
H2G H 0.5583 0.2642 0.0500
H3G H 0.4824 0.2609 0.0371
C2G C 0.5114(4) 0.1773(3) 0.06506(16)
C3G C 0.5551(4) 0.1693(4) 0.09408(17)
H4G H 0.5939 0.1963 0.0951
C4G C 0.5442(4) 0.1234(4) 0.12147(16)
C5G C 0.5944(3) 0.1183(4) 0.15114(16)
C6G C 0.6484(4) 0.1596(4) 0.15401(19)
H5G H 0.6552 0.1939 0.1368
C7G C 0.6927(4) 0.1514(4) 0.18190(18)
H6G H 0.7289 0.1817 0.1838
C8G C 0.6354(4) 0.0621(5) 0.20305(18)
H7G H 0.6302 0.0275 0.2202
C9G C 0.5896(4) 0.0671(4) 0.17654(18)
H8G H 0.5541 0.0358 0.1752
C10G C 0.2498(3) 0.1248(4) 0.12199(19)
H9G H 0.2429 0.1496 0.0996
H10G H 0.2563 0.1561 0.1419
H11G H 0.2107 0.0970 0.1269
C11G C 0.3099(3) 0.0815(4) 0.11838(17)
C12G C 0.3217(4) 0.0313(4) 0.14334(18)
H12G H 0.2941 0.0298 0.1641
C13G C 0.3701(3) -0.0160(3) 0.14010(16)
C14G C 0.3851(12) -0.0688(19) 0.1683(9)
C15G C 0.3467(10) -0.0715(12) 0.1993(6)
H13G H 0.3135 -0.0388 0.2039
C16G C 0.3579(10) -0.1230(14) 0.2237(7)
H14G H 0.3312 -0.1256 0.2447
C17G C 0.4445(11) -0.1616(13) 0.1892(7)
H15G H 0.4789 -0.1933 0.1851
C18G C 0.4376(12) -0.1119(17) 0.1657(9)
H16G H 0.4693 -0.1065 0.1470
C19G C 0.3666(3) -0.0456(4) -0.01338(17)
H17G H 0.3436 -0.0877 -0.0087
H18G H 0.3931 -0.0497 -0.0354
H19G H 0.3337 -0.0099 -0.0163
C20G C 0.4116(3) -0.0294(3) 0.01758(15)
C21G C 0.4636(3) -0.0716(4) 0.02584(17)
H20G H 0.4658 -0.1133 0.0138
C22G C 0.5128(3) -0.0566(4) 0.05070(16)
C23G C 0.5670(3) -0.1042(3) 0.05794(16)
C24G C 0.5879(3) -0.1520(3) 0.03386(17)
H21G H 0.5677 -0.1551 0.0109
C25G C 0.6382(4) -0.1952(4) 0.04318(17)
H22G H 0.6509 -0.2285 0.0264
C26G C 0.6504(3) -0.1456(3) 0.09882(18)
H23G H 0.6721 -0.1433 0.1215
C27G C 0.6006(4) -0.1018(3) 0.09122(19)
H24G H 0.5884 -0.0692 0.1085
Br2 Br 0.7500 0.2500 0.2500
loop_
_geom_bond_atom_site_label_1
_geom_bond_atom_site_label_2
_geom_bond_site_symmetry_1
_geom_bond_site_symmetry_2
Br1 Cu2 1_555 1_555
Cu1 N2 1_555 1_555
Cu2 N3 1_555 1_555
Fe1 O1 1_555 1_555
O1 C2 1_555 1_555
O2 Fe1 1_555 1_555
O3 Fe1 1_555 1_555
O4 Fe1 1_555 1_555
O5 Fe1 1_555 1_555
O6 Fe1 1_555 1_555
N1 C7 1_555 1_555
N2 C16 1_555 1_555
N3 C25 1_555 1_555
C1 H1 1_555 1_555
H2 C1 1_555 1_555
H3 C1 1_555 1_555
C2 C1 1_555 1_555
C3 C2 1_555 1_555
H4 C3 1_555 1_555
C4 O2 1_555 1_555
C5 C4 1_555 1_555
C6 C5 1_555 1_555
H5 C6 1_555 1_555
C7 C6 1_555 1_555
H6 C7 1_555 1_555
C8 N1 1_555 1_555
H7 C8 1_555 1_555
C9 C5 1_555 1_555
H8 C9 1_555 1_555
C10 H9 1_555 1_555
H10 C10 1_555 1_555
H11 C10 1_555 1_555
C11 O3 1_555 1_555
C12 C11 1_555 1_555
H12 C12 1_555 1_555
C13 O4 1_555 1_555
C14 C13 1_555 1_555
C15 C14 1_555 1_555
H13 C15 1_555 1_555
C16 C15 1_555 1_555
H14 C16 1_555 1_555
C17 N2 1_555 1_555
H15 C17 1_555 1_555
C18 C14 1_555 1_555
H16 C18 1_555 1_555
C19 H17 1_555 1_555
H18 C19 1_555 1_555
H19 C19 1_555 1_555
C20 O5 1_555 1_555
C21 C20 1_555 1_555
H20 C21 1_555 1_555
C22 O6 1_555 1_555
C23 C22 1_555 1_555
C24 C23 1_555 1_555
H21 C24 1_555 1_555
C25 C24 1_555 1_555
H22 C25 1_555 1_555
C26 N3 1_555 1_555
H23 C26 1_555 1_555
C27 C23 1_555 1_555
H24 C27 1_555 1_555
O7 Cu1 1_555 1_555
H25 O7 1_555 1_555
H25C O7 1_555 1_555
Cu1A N2A 1_555 1_555
Fe1A O1A 1_555 1_555
O1A C2A 1_555 1_555
O2A Fe1A 1_555 1_555
O3A Fe1A 1_555 1_555
O4A Fe1A 1_555 1_555
O5A Fe1A 1_555 1_555
O6A Fe1A 1_555 1_555
N1A C7A 1_555 1_555
N2A C16A 1_555 1_555
N3A Cu2 1_555 1_555
C1A H1A 1_555 1_555
H2A C1A 1_555 1_555
H3A C1A 1_555 1_555
C2A C1A 1_555 1_555
C3A C2A 1_555 1_555
H4A C3A 1_555 1_555
C4A O2A 1_555 1_555
C5A C4A 1_555 1_555
C6A C5A 1_555 1_555
H5A C6A 1_555 1_555
C7A C6A 1_555 1_555
H6A C7A 1_555 1_555
C8A N1A 1_555 1_555
H7A C8A 1_555 1_555
C9A C5A 1_555 1_555
H8A C9A 1_555 1_555
C10A H9A 1_555 1_555
H10A C10A 1_555 1_555
H11A C10A 1_555 1_555
C11A O3A 1_555 1_555
C12A C11A 1_555 1_555
H12A C12A 1_555 1_555
C13A O4A 1_555 1_555
C14A C13A 1_555 1_555
C15A C14A 1_555 1_555
H13A C15A 1_555 1_555
C16A C15A 1_555 1_555
H14A C16A 1_555 1_555
C17A N2A 1_555 1_555
H15A C17A 1_555 1_555
C18A C14A 1_555 1_555
H16A C18A 1_555 1_555
C19A H17A 1_555 1_555
H18A C19A 1_555 1_555
H19A C19A 1_555 1_555
C20A O5A 1_555 1_555
C21A C20A 1_555 1_555
H20A C21A 1_555 1_555
C22A O6A 1_555 1_555
C23A C22A 1_555 1_555
C24A C23A 1_555 1_555
H21A C24A 1_555 1_555
C25A N3A 1_555 1_555
H22A C25A 1_555 1_555
C26A N3A 1_555 1_555
H23A C26A 1_555 1_555
C27A C23A 1_555 1_555
H24A C27A 1_555 1_555
O7A Cu1A 1_555 1_555
H25A O7A 1_555 1_555
H25B O7A 1_555 1_555
Br1B Cu2B 1_555 1_555
Cu2B N3B 1_555 1_555
Fe1B O1B 1_555 1_555
O1B C2B 1_555 1_555
O2B Fe1B 1_555 1_555
O3B Fe1B 1_555 1_555
O4B Fe1B 1_555 1_555
O5B Fe1B 1_555 1_555
O6B Fe1B 1_555 1_555
N1B C7B 1_555 1_555
N2B Cu1A 1_555 1_555
N3B C25B 1_555 1_555
C1B H1B 1_555 1_555
H2B C1B 1_555 1_555
H3B C1B 1_555 1_555
C2B C1B 1_555 1_555
C3B C2B 1_555 1_555
H4B C3B 1_555 1_555
C4B O2B 1_555 1_555
C5B C4B 1_555 1_555
C6B C5B 1_555 1_555
H5B C6B 1_555 1_555
C7B C6B 1_555 1_555
H6B C7B 1_555 1_555
C8B N1B 1_555 1_555
H7B C8B 1_555 1_555
C9B C5B 1_555 1_555
H8B C9B 1_555 1_555
C10B H9B 1_555 1_555
H10B C10B 1_555 1_555
H11B C10B 1_555 1_555
C11B O3B 1_555 1_555
C12B C11B 1_555 1_555
H12B C12B 1_555 1_555
C13B O4B 1_555 1_555
C14B C13B 1_555 1_555
C15B C14B 1_555 1_555
H13B C15B 1_555 1_555
C16B N2B 1_555 1_555
H14B C16B 1_555 1_555
C17B N2B 1_555 1_555
H15B C17B 1_555 1_555
C18B C14B 1_555 1_555
H16B C18B 1_555 1_555
C19B H17B 1_555 1_555
H18B C19B 1_555 1_555
H19B C19B 1_555 1_555
C20B O5B 1_555 1_555
C21B C20B 1_555 1_555
H20B C21B 1_555 1_555
C22B O6B 1_555 1_555
C23B C22B 1_555 1_555
C24B C23B 1_555 1_555
H21B C24B 1_555 1_555
C25B C24B 1_555 1_555
H22B C25B 1_555 1_555
C26B N3B 1_555 1_555
H23B C26B 1_555 1_555
C27B C23B 1_555 1_555
H24B C27B 1_555 1_555
Fe1C O1C 1_555 1_555
O1C C2C 1_555 1_555
O2C Fe1C 1_555 1_555
O3C Fe1C 1_555 1_555
O4C Fe1C 1_555 1_555
O5C Fe1C 1_555 1_555
O6C Fe1C 1_555 1_555
N1C C7C 1_555 1_555
N2C Cu1 1_555 1_555
N3C Cu2B 1_555 1_555
C1C H1C 1_555 1_555
H2C C1C 1_555 1_555
H3C C1C 1_555 1_555
C2C C1C 1_555 1_555
C3C C2C 1_555 1_555
H4C C3C 1_555 1_555
C4C O2C 1_555 1_555
C5C C4C 1_555 1_555
C6C C5C 1_555 1_555
H5C C6C 1_555 1_555
C7C C6C 1_555 1_555
H6C C7C 1_555 1_555
C8C N1C 1_555 1_555
H7C C8C 1_555 1_555
C9C C5C 1_555 1_555
H8C C9C 1_555 1_555
C10C H9C 1_555 1_555
H10C C10C 1_555 1_555
H11C C10C 1_555 1_555
C11C O3C 1_555 1_555
C12C C11C 1_555 1_555
H12C C12C 1_555 1_555
C13C O4C 1_555 1_555
C14C C13C 1_555 1_555
C15C C14C 1_555 1_555
H13C C15C 1_555 1_555
C16C N2C 1_555 1_555
H14C C16C 1_555 1_555
C17C N2C 1_555 1_555
H15C C17C 1_555 1_555
C18C C14C 1_555 1_555
H16C C18C 1_555 1_555
C19C H17C 1_555 1_555
H18C C19C 1_555 1_555
H19C C19C 1_555 1_555
C20C O5C 1_555 1_555
C21C C20C 1_555 1_555
H20C C21C 1_555 1_555
C22C O6C 1_555 1_555
C23C C22C 1_555 1_555
C24C C23C 1_555 1_555
H21C C24C 1_555 1_555
C25C N3C 1_555 1_555
H22C C25C 1_555 1_555
C26C N3C 1_555 1_555
H23C C26C 1_555 1_555
C27C C23C 1_555 1_555
H24C C27C 1_555 1_555
Cu1D N1A 1_555 1_555
Fe1D O1D 1_555 1_555
O1D C2D 1_555 1_555
O2D Fe1D 1_555 1_555
O3D Fe1D 1_555 1_555
O4D Fe1D 1_555 1_555
O5D Fe1D 1_555 1_555
O6D Fe1D 1_555 1_555
N1D Cu1A 1_555 1_555
N2D Cu1D 1_555 1_555
N3D Cu2B 1_555 1_555
C1D H1D 1_555 1_555
H2D C1D 1_555 1_555
H3D C1D 1_555 1_555
C2D C1D 1_555 1_555
C3D C2D 1_555 1_555
H4D C3D 1_555 1_555
C4D O2D 1_555 1_555
C5D C4D 1_555 1_555
C6D C5D 1_555 1_555
H5D C6D 1_555 1_555
C7D N1D 1_555 1_555
H6D C7D 1_555 1_555
C8D N1D 1_555 1_555
H7D C8D 1_555 1_555
C9D C5D 1_555 1_555
H8D C9D 1_555 1_555
C10D H9D 1_555 1_555
H10D C10D 1_555 1_555
H11D C10D 1_555 1_555
C11D O3D 1_555 1_555
C12D C11D 1_555 1_555
H12D C12D 1_555 1_555
C13D O4D 1_555 1_555
C14D C13D 1_555 1_555
C15D C14D 1_555 1_555
H13D C15D 1_555 1_555
C16D N2D 1_555 1_555
H14D C16D 1_555 1_555
C17D N2D 1_555 1_555
H15D C17D 1_555 1_555
C18D C14D 1_555 1_555
H16D C18D 1_555 1_555
C19D H17D 1_555 1_555
H18D C19D 1_555 1_555
H19D C19D 1_555 1_555
C20D O5D 1_555 1_555
C21D C20D 1_555 1_555
H20D C21D 1_555 1_555
C22D O6D 1_555 1_555
C23D C22D 1_555 1_555
C24D C23D 1_555 1_555
H21D C24D 1_555 1_555
C25D N3D 1_555 1_555
H22D C25D 1_555 1_555
C26D N3D 1_555 1_555
H23D C26D 1_555 1_555
C27D C23D 1_555 1_555
H24D C27D 1_555 1_555
O7D Cu1D 1_555 1_555
H25D O7D 1_555 1_555
H25G O7D 1_555 1_555
Cu1E N1 1_555 1_555
Fe1E O1E 1_555 1_555
O1E C2E 1_555 1_555
O2E Fe1E 1_555 1_555
O3E Fe1E 1_555 1_555
O4E Fe1E 1_555 1_555
O5E Fe1E 1_555 1_555
O6E Fe1E 1_555 1_555
N1E Cu1 1_555 1_555
N2E Cu1E 1_555 1_555
N3E Cu2B 1_555 1_555
C1E H1E 1_555 1_555
H2E C1E 1_555 1_555
H3E C1E 1_555 1_555
C2E C1E 1_555 1_555
C3E C2E 1_555 1_555
H4E C3E 1_555 1_555
C4E O2E 1_555 1_555
C5E C4E 1_555 1_555
C6E C5E 1_555 1_555
H5E C6E 1_555 1_555
C7E N1E 1_555 1_555
H6E C7E 1_555 1_555
C8E N1E 1_555 1_555
H7E C8E 1_555 1_555
C9E C5E 1_555 1_555
H8E C9E 1_555 1_555
C10E H9E 1_555 1_555
H10E C10E 1_555 1_555
H11E C10E 1_555 1_555
C11E O3E 1_555 1_555
C12E C11E 1_555 1_555
H12E C12E 1_555 1_555
C13E O4E 1_555 1_555
C14E C13E 1_555 1_555
C15E C14E 1_555 1_555
H13E C15E 1_555 1_555
C16E N2E 1_555 1_555
H14E C16E 1_555 1_555
C17E N2E 1_555 1_555
H15E C17E 1_555 1_555
C18E C14E 1_555 1_555
H16E C18E 1_555 1_555
C19E H17E 1_555 1_555
H18E C19E 1_555 1_555
H19E C19E 1_555 1_555
C20E O5E 1_555 1_555
C21E C20E 1_555 1_555
H20E C21E 1_555 1_555
C22E O6E 1_555 1_555
C23E C22E 1_555 1_555
C24E C23E 1_555 1_555
H21E C24E 1_555 1_555
C25E N3E 1_555 1_555
H22E C25E 1_555 1_555
C26E N3E 1_555 1_555
H23E C26E 1_555 1_555
C27E C23E 1_555 1_555
H24E C27E 1_555 1_555
O7E Cu1E 1_555 1_555
H25E O7E 1_555 1_555
H25F O7E 1_555 1_555
Fe1F O1F 1_555 1_555
O1F C2F 1_555 1_555
O2F Fe1F 1_555 1_555
O3F Fe1F 1_555 1_555
O4F Fe1F 1_555 1_555
O5F Fe1F 1_555 1_555
O6F Fe1F 1_555 1_555
N1F Cu1A 1_555 1_555
N2F Cu1E 1_555 1_555
N3F Cu2 1_555 1_555
C1F H1F 1_555 1_555
H2F C1F 1_555 1_555
H3F C1F 1_555 1_555
C2F C1F 1_555 1_555
C3F C2F 1_555 1_555
H4F C3F 1_555 1_555
C4F O2F 1_555 1_555
C5F C4F 1_555 1_555
C6F C5F 1_555 1_555
H5F C6F 1_555 1_555
C7F N1F 1_555 1_555
H6F C7F 1_555 1_555
C8F N1F 1_555 1_555
H7F C8F 1_555 1_555
C9F C5F 1_555 1_555
H8F C9F 1_555 1_555
C10F H9F 1_555 1_555
H10F C10F 1_555 1_555
H11F C10F 1_555 1_555
C11F O3F 1_555 1_555
C12F C11F 1_555 1_555
H12F C12F 1_555 1_555
C13F O4F 1_555 1_555
C14F C13F 1_555 1_555
C15F C14F 1_555 1_555
H13F C15F 1_555 1_555
C16F N2F 1_555 1_555
H14F C16F 1_555 1_555
C17F N2F 1_555 1_555
H15F C17F 1_555 1_555
C18F C14F 1_555 1_555
H16F C18F 1_555 1_555
C19F H17F 1_555 1_555
H18F C19F 1_555 1_555
H19F C19F 1_555 1_555
C20F O5F 1_555 1_555
C21F C20F 1_555 1_555
H20F C21F 1_555 1_555
C22F O6F 1_555 1_555
C23F C22F 1_555 1_555
C24F C23F 1_555 1_555
H21F C24F 1_555 1_555
C25F N3F 1_555 1_555
H22F C25F 1_555 1_555
C26F N3F 1_555 1_555
H23F C26F 1_555 1_555
C27F C23F 1_555 1_555
H24F C27F 1_555 1_555
Fe1G O1G 1_555 1_555
O1G C2G 1_555 1_555
O2G Fe1G 1_555 1_555
O3G Fe1G 1_555 1_555
O4G Fe1G 1_555 1_555
O5G Fe1G 1_555 1_555
O6G Fe1G 1_555 1_555
N1G Cu1 1_555 1_555
N2G Cu1D 1_555 1_555
N3G Cu2 1_555 1_555
C1G H1G 1_555 1_555
H2G C1G 1_555 1_555
H3G C1G 1_555 1_555
C2G C1G 1_555 1_555
C3G C2G 1_555 1_555
H4G C3G 1_555 1_555
C4G O2G 1_555 1_555
C5G C4G 1_555 1_555
C6G C5G 1_555 1_555
H5G C6G 1_555 1_555
C7G N1G 1_555 1_555
H6G C7G 1_555 1_555
C8G N1G 1_555 1_555
H7G C8G 1_555 1_555
C9G C5G 1_555 1_555
H8G C9G 1_555 1_555
C10G H9G 1_555 1_555
H10G C10G 1_555 1_555
H11G C10G 1_555 1_555
C11G O3G 1_555 1_555
C12G C11G 1_555 1_555
H12G C12G 1_555 1_555
C13G O4G 1_555 1_555
C14G C13G 1_555 1_555
C15G C14G 1_555 1_555
H13G C15G 1_555 1_555
C16G N2G 1_555 1_555
H14G C16G 1_555 1_555
C17G N2G 1_555 1_555
H15G C17G 1_555 1_555
C18G C14G 1_555 1_555
H16G C18G 1_555 1_555
C19G H17G 1_555 1_555
H18G C19G 1_555 1_555
H19G C19G 1_555 1_555
C20G O5G 1_555 1_555
C21G C20G 1_555 1_555
H20G C21G 1_555 1_555
C22G O6G 1_555 1_555
C23G C22G 1_555 1_555
C24G C23G 1_555 1_555
H21G C24G 1_555 1_555
C25G N3G 1_555 1_555
H22G C25G 1_555 1_555
C26G N3G 1_555 1_555
H23G C26G 1_555 1_555
C27G C23G 1_555 1_555
H24G C27G 1_555 1_555
C3 C4 1_555 1_555
C8 C9 1_555 1_555
C10 C11 1_555 1_555
C12 C13 1_555 1_555
C17 C18 1_555 1_555
C19 C20 1_555 1_555
C21 C22 1_555 1_555
C26 C27 1_555 1_555
C3A C4A 1_555 1_555
C8A C9A 1_555 1_555
C10A C11A 1_555 1_555
C12A C13A 1_555 1_555
C17A C18A 1_555 1_555
C19A C20A 1_555 1_555
C21A C22A 1_555 1_555
C24A C25A 1_555 1_555
C26A C27A 1_555 1_555
N1B Cu1E 1_555 1_555
C3B C4B 1_555 1_555
C8B C9B 1_555 1_555
C10B C11B 1_555 1_555
C12B C13B 1_555 1_555
C15B C16B 1_555 1_555
C17B C18B 1_555 1_555
C19B C20B 1_555 1_555
C21B C22B 1_555 1_555
C26B C27B 1_555 1_555
N1C Cu1D 1_555 1_555
C3C C4C 1_555 1_555
C8C C9C 1_555 1_555
C10C C11C 1_555 1_555
C12C C13C 1_555 1_555
C15C C16C 1_555 1_555
C17C C18C 1_555 1_555
C19C C20C 1_555 1_555
C21C C22C 1_555 1_555
C24C C25C 1_555 1_555
C26C C27C 1_555 1_555
C3D C4D 1_555 1_555
C6D C7D 1_555 1_555
C8D C9D 1_555 1_555
C10D C11D 1_555 1_555
C12D C13D 1_555 1_555
C15D C16D 1_555 1_555
C17D C18D 1_555 1_555
C19D C20D 1_555 1_555
C21D C22D 1_555 1_555
C24D C25D 1_555 1_555
C26D C27D 1_555 1_555
C3E C4E 1_555 1_555
C6E C7E 1_555 1_555
C8E C9E 1_555 1_555
C10E C11E 1_555 1_555
C12E C13E 1_555 1_555
C15E C16E 1_555 1_555
C17E C18E 1_555 1_555
C19E C20E 1_555 1_555
C21E C22E 1_555 1_555
C24E C25E 1_555 1_555
C26E C27E 1_555 1_555
C3F C4F 1_555 1_555
C6F C7F 1_555 1_555
C8F C9F 1_555 1_555
C10F C11F 1_555 1_555
C12F C13F 1_555 1_555
C15F C16F 1_555 1_555
C17F C18F 1_555 1_555
C19F C20F 1_555 1_555
C21F C22F 1_555 1_555
C24F C25F 1_555 1_555
C26F C27F 1_555 1_555
C3G C4G 1_555 1_555
C6G C7G 1_555 1_555
C8G C9G 1_555 1_555
C10G C11G 1_555 1_555
C12G C13G 1_555 1_555
C15G C16G 1_555 1_555
C17G C18G 1_555 1_555
C19G C20G 1_555 1_555
C21G C22G 1_555 1_555
C24G C25G 1_555 1_555
C26G C27G 1_555 1_555

#END
