# generated using pymatgen
data_Fe4Cu5H120C128Br4(N4O7)4
_symmetry_space_group_name_H-M   'P 1'
_cell_length_a   20.07600000
_cell_length_b   20.07600000
_cell_length_c   37.22500000
_cell_angle_alpha   90.00000000
_cell_angle_beta   90.00000000
_cell_angle_gamma   90.00000000
_symmetry_Int_Tables_number   1
_chemical_formula_structural   Fe4Cu5H120C128Br4(N4O7)4
_chemical_formula_sum   'Fe16 Cu20 H480 C512 Br16 N64 O112'
_cell_volume   15003.37901160
_cell_formula_units_Z   4
loop_
 _symmetry_equiv_pos_site_id
 _symmetry_equiv_pos_as_xyz
  1  'x, y, z'
loop_
 _atom_site_type_symbol
 _atom_site_label
 _atom_site_symmetry_multiplicity
 _atom_site_fract_x
 _atom_site_fract_y
 _atom_site_fract_z
 _atom_site_occupancy
  Fe  Fe1  1  0.054370  0.060650  0.082040  1.0
  Fe  Fe2  1  0.445630  0.439350  0.082040  1.0
  Fe  Fe3  1  0.054370  0.439350  0.417960  1.0
  Fe  Fe4  1  0.445630  0.060650  0.417960  1.0
  Fe  Fe5  1  0.439350  0.445630  0.417960  1.0
  Fe  Fe6  1  0.060650  0.054370  0.417960  1.0
  Fe  Fe7  1  0.060650  0.445630  0.082040  1.0
  Fe  Fe8  1  0.439350  0.054370  0.082040  1.0
  Fe  Fe9  1  0.945630  0.939350  0.917960  1.0
  Fe  Fe10  1  0.554370  0.560650  0.917960  1.0
  Fe  Fe11  1  0.945630  0.560650  0.582040  1.0
  Fe  Fe12  1  0.554370  0.939350  0.582040  1.0
  Fe  Fe13  1  0.560650  0.554370  0.582040  1.0
  Fe  Fe14  1  0.939350  0.945630  0.582040  1.0
  Fe  Fe15  1  0.939350  0.554370  0.917960  1.0
  Fe  Fe16  1  0.560650  0.945630  0.917960  1.0
  Cu  Cu17  1  0.750000  0.111000  0.250000  1
  Cu  Cu18  1  0.750000  0.389000  0.250000  1
  Cu  Cu19  1  0.389000  0.750000  0.250000  1
  Cu  Cu20  1  0.111000  0.750000  0.250000  1
  Cu  Cu21  1  0.250000  0.889000  0.750000  1
  Cu  Cu22  1  0.250000  0.611000  0.750000  1
  Cu  Cu23  1  0.611000  0.250000  0.750000  1
  Cu  Cu24  1  0.889000  0.250000  0.750000  1
  Cu  Cu25  1  0.750000  0.750000  0.083480  1.0
  Cu  Cu26  1  0.750000  0.750000  0.416520  1.0
  Cu  Cu27  1  0.250000  0.250000  0.916520  1.0
  Cu  Cu28  1  0.250000  0.250000  0.583480  1.0
  Cu  Cu29  1  0.750000  0.088700  0.250000  1.0
  Cu  Cu30  1  0.750000  0.411300  0.250000  1.0
  Cu  Cu31  1  0.411300  0.750000  0.250000  1.0
  Cu  Cu32  1  0.088700  0.750000  0.250000  1.0
  Cu  Cu33  1  0.250000  0.911300  0.750000  1.0
  Cu  Cu34  1  0.250000  0.588700  0.750000  1.0
  Cu  Cu35  1  0.588700  0.250000  0.750000  1.0
  Cu  Cu36  1  0.911300  0.250000  0.750000  1.0
  H  H37  1  0.872400  0.191200  0.239600  1
  H  H38  1  0.627600  0.308800  0.239600  1
  H  H39  1  0.872400  0.308800  0.260400  1
  H  H40  1  0.627600  0.191200  0.260400  1
  H  H41  1  0.308800  0.627600  0.260400  1
  H  H42  1  0.191200  0.872400  0.260400  1
  H  H43  1  0.191200  0.627600  0.239600  1
  H  H44  1  0.308800  0.872400  0.239600  1
  H  H45  1  0.127600  0.808800  0.760400  1
  H  H46  1  0.372400  0.691200  0.760400  1
  H  H47  1  0.127600  0.691200  0.739600  1
  H  H48  1  0.372400  0.808800  0.739600  1
  H  H49  1  0.691200  0.372400  0.739600  1
  H  H50  1  0.808800  0.127600  0.739600  1
  H  H51  1  0.808800  0.372400  0.760400  1
  H  H52  1  0.691200  0.127600  0.760400  1
  H  H53  1  0.956100  0.204100  0.199100  1
  H  H54  1  0.543900  0.295900  0.199100  1
  H  H55  1  0.956100  0.295900  0.300900  1
  H  H56  1  0.543900  0.204100  0.300900  1
  H  H57  1  0.295900  0.543900  0.300900  1
  H  H58  1  0.204100  0.956100  0.300900  1
  H  H59  1  0.204100  0.543900  0.199100  1
  H  H60  1  0.295900  0.956100  0.199100  1
  H  H61  1  0.043900  0.795900  0.800900  1
  H  H62  1  0.456100  0.704100  0.800900  1
  H  H63  1  0.043900  0.704100  0.699100  1
  H  H64  1  0.456100  0.795900  0.699100  1
  H  H65  1  0.704100  0.456100  0.699100  1
  H  H66  1  0.795900  0.043900  0.699100  1
  H  H67  1  0.795900  0.456100  0.800900  1
  H  H68  1  0.704100  0.043900  0.800900  1
  H  H69  1  0.883000  0.049500  0.142400  1
  H  H70  1  0.617000  0.450500  0.142400  1
  H  H71  1  0.883000  0.450500  0.357600  1
  H  H72  1  0.617000  0.049500  0.357600  1
  H  H73  1  0.450500  0.617000  0.357600  1
  H  H74  1  0.049500  0.883000  0.357600  1
  H  H75  1  0.049500  0.617000  0.142400  1
  H  H76  1  0.450500  0.883000  0.142400  1
  H  H77  1  0.117000  0.950500  0.857600  1
  H  H78  1  0.383000  0.549500  0.857600  1
  H  H79  1  0.117000  0.549500  0.642400  1
  H  H80  1  0.383000  0.950500  0.642400  1
  H  H81  1  0.549500  0.383000  0.642400  1
  H  H82  1  0.950500  0.117000  0.642400  1
  H  H83  1  0.950500  0.383000  0.857600  1
  H  H84  1  0.549500  0.117000  0.857600  1
  H  H85  1  0.798400  0.039600  0.185000  1
  H  H86  1  0.701600  0.460400  0.185000  1
  H  H87  1  0.798400  0.460400  0.315000  1
  H  H88  1  0.701600  0.039600  0.315000  1
  H  H89  1  0.460400  0.701600  0.315000  1
  H  H90  1  0.039600  0.798400  0.315000  1
  H  H91  1  0.039600  0.701600  0.185000  1
  H  H92  1  0.460400  0.798400  0.185000  1
  H  H93  1  0.201600  0.960400  0.815000  1
  H  H94  1  0.298400  0.539600  0.815000  1
  H  H95  1  0.201600  0.539600  0.685000  1
  H  H96  1  0.298400  0.960400  0.685000  1
  H  H97  1  0.539600  0.298400  0.685000  1
  H  H98  1  0.960400  0.201600  0.685000  1
  H  H99  1  0.960400  0.298400  0.815000  1
  H  H100  1  0.539600  0.201600  0.815000  1
  H  H101  1  0.752700  0.962800  0.270000  1.0
  H  H102  1  0.747300  0.537200  0.270000  1.0
  H  H103  1  0.752700  0.537200  0.230000  1.0
  H  H104  1  0.747300  0.962800  0.230000  1.0
  H  H105  1  0.537200  0.747300  0.230000  1.0
  H  H106  1  0.962800  0.752700  0.230000  1.0
  H  H107  1  0.962800  0.747300  0.270000  1.0
  H  H108  1  0.537200  0.752700  0.270000  1.0
  H  H109  1  0.247300  0.037200  0.730000  1.0
  H  H110  1  0.252700  0.462800  0.730000  1.0
  H  H111  1  0.247300  0.462800  0.770000  1.0
  H  H112  1  0.252700  0.037200  0.770000  1.0
  H  H113  1  0.462800  0.252700  0.770000  1.0
  H  H114  1  0.037200  0.247300  0.770000  1.0
  H  H115  1  0.037200  0.252700  0.730000  1.0
  H  H116  1  0.462800  0.247300  0.730000  1.0
  H  H117  1  0.218500  0.961900  0.016500  1.0
  H  H118  1  0.281500  0.538100  0.016500  1.0
  H  H119  1  0.218500  0.538100  0.483500  1.0
  H  H120  1  0.281500  0.961900  0.483500  1.0
  H  H121  1  0.538100  0.281500  0.483500  1.0
  H  H122  1  0.961900  0.218500  0.483500  1.0
  H  H123  1  0.961900  0.281500  0.016500  1.0
  H  H124  1  0.538100  0.218500  0.016500  1.0
  H  H125  1  0.781500  0.038100  0.983500  1.0
  H  H126  1  0.718500  0.461900  0.983500  1.0
  H  H127  1  0.781500  0.461900  0.516500  1.0
  H  H128  1  0.718500  0.038100  0.516500  1.0
  H  H129  1  0.461900  0.718500  0.516500  1.0
  H  H130  1  0.038100  0.781500  0.516500  1.0
  H  H131  1  0.038100  0.718500  0.983500  1.0
  H  H132  1  0.461900  0.781500  0.983500  1.0
  H  H133  1  0.264200  0.941700  0.050000  1.0
  H  H134  1  0.235800  0.558300  0.050000  1.0
  H  H135  1  0.264200  0.558300  0.450000  1.0
  H  H136  1  0.235800  0.941700  0.450000  1.0
  H  H137  1  0.558300  0.235800  0.450000  1.0
  H  H138  1  0.941700  0.264200  0.450000  1.0
  H  H139  1  0.941700  0.235800  0.050000  1.0
  H  H140  1  0.558300  0.264200  0.050000  1.0
  H  H141  1  0.735800  0.058300  0.950000  1.0
  H  H142  1  0.764200  0.441700  0.950000  1.0
  H  H143  1  0.735800  0.441700  0.550000  1.0
  H  H144  1  0.764200  0.058300  0.550000  1.0
  H  H145  1  0.441700  0.764200  0.550000  1.0
  H  H146  1  0.058300  0.735800  0.550000  1.0
  H  H147  1  0.058300  0.764200  0.950000  1.0
  H  H148  1  0.441700  0.735800  0.950000  1.0
  H  H149  1  0.260900  0.017600  0.037100  1.0
  H  H150  1  0.239100  0.482400  0.037100  1.0
  H  H151  1  0.260900  0.482400  0.462900  1.0
  H  H152  1  0.239100  0.017600  0.462900  1.0
  H  H153  1  0.482400  0.239100  0.462900  1.0
  H  H154  1  0.017600  0.260900  0.462900  1.0
  H  H155  1  0.017600  0.239100  0.037100  1.0
  H  H156  1  0.482400  0.260900  0.037100  1.0
  H  H157  1  0.739100  0.982400  0.962900  1.0
  H  H158  1  0.760900  0.517600  0.962900  1.0
  H  H159  1  0.739100  0.517600  0.537100  1.0
  H  H160  1  0.760900  0.982400  0.537100  1.0
  H  H161  1  0.517600  0.760900  0.537100  1.0
  H  H162  1  0.982400  0.739100  0.537100  1.0
  H  H163  1  0.982400  0.760900  0.962900  1.0
  H  H164  1  0.517600  0.739100  0.962900  1.0
  H  H165  1  0.196300  0.906100  0.095100  1.0
  H  H166  1  0.303700  0.593900  0.095100  1.0
  H  H167  1  0.196300  0.593900  0.404900  1.0
  H  H168  1  0.303700  0.906100  0.404900  1.0
  H  H169  1  0.593900  0.303700  0.404900  1.0
  H  H170  1  0.906100  0.196300  0.404900  1.0
  H  H171  1  0.906100  0.303700  0.095100  1.0
  H  H172  1  0.593900  0.196300  0.095100  1.0
  H  H173  1  0.803700  0.093900  0.904900  1.0
  H  H174  1  0.696300  0.406100  0.904900  1.0
  H  H175  1  0.803700  0.406100  0.595100  1.0
  H  H176  1  0.696300  0.093900  0.595100  1.0
  H  H177  1  0.406100  0.696300  0.595100  1.0
  H  H178  1  0.093900  0.803700  0.595100  1.0
  H  H179  1  0.093900  0.696300  0.904900  1.0
  H  H180  1  0.406100  0.803700  0.904900  1.0
  H  H181  1  0.193900  0.844800  0.136800  1.0
  H  H182  1  0.306100  0.655200  0.136800  1.0
  H  H183  1  0.193900  0.655200  0.363200  1.0
  H  H184  1  0.306100  0.844800  0.363200  1.0
  H  H185  1  0.655200  0.306100  0.363200  1.0
  H  H186  1  0.844800  0.193900  0.363200  1.0
  H  H187  1  0.844800  0.306100  0.136800  1.0
  H  H188  1  0.655200  0.193900  0.136800  1.0
  H  H189  1  0.806100  0.155200  0.863200  1.0
  H  H190  1  0.693900  0.344800  0.863200  1.0
  H  H191  1  0.806100  0.344800  0.636800  1.0
  H  H192  1  0.693900  0.155200  0.636800  1.0
  H  H193  1  0.344800  0.693900  0.636800  1.0
  H  H194  1  0.155200  0.806100  0.636800  1.0
  H  H195  1  0.155200  0.693900  0.863200  1.0
  H  H196  1  0.344800  0.806100  0.863200  1.0
  H  H197  1  0.181700  0.771100  0.183800  1.0
  H  H198  1  0.318300  0.728900  0.183800  1.0
  H  H199  1  0.181700  0.728900  0.316200  1.0
  H  H200  1  0.318300  0.771100  0.316200  1.0
  H  H201  1  0.728900  0.318300  0.316200  1.0
  H  H202  1  0.771100  0.181700  0.316200  1.0
  H  H203  1  0.771100  0.318300  0.183800  1.0
  H  H204  1  0.728900  0.181700  0.183800  1.0
  H  H205  1  0.818300  0.228900  0.816200  1.0
  H  H206  1  0.681700  0.271100  0.816200  1.0
  H  H207  1  0.818300  0.271100  0.683800  1.0
  H  H208  1  0.681700  0.228900  0.683800  1.0
  H  H209  1  0.271100  0.681700  0.683800  1.0
  H  H210  1  0.228900  0.818300  0.683800  1.0
  H  H211  1  0.228900  0.681700  0.816200  1.0
  H  H212  1  0.271100  0.818300  0.816200  1.0
  H  H213  1  0.027500  0.869800  0.220200  1.0
  H  H214  1  0.472500  0.630200  0.220200  1.0
  H  H215  1  0.027500  0.630200  0.279800  1.0
  H  H216  1  0.472500  0.869800  0.279800  1.0
  H  H217  1  0.630200  0.472500  0.279800  1.0
  H  H218  1  0.869800  0.027500  0.279800  1.0
  H  H219  1  0.869800  0.472500  0.220200  1.0
  H  H220  1  0.630200  0.027500  0.220200  1.0
  H  H221  1  0.972500  0.130200  0.779800  1.0
  H  H222  1  0.527500  0.369800  0.779800  1.0
  H  H223  1  0.972500  0.369800  0.720200  1.0
  H  H224  1  0.527500  0.130200  0.720200  1.0
  H  H225  1  0.369800  0.527500  0.720200  1.0
  H  H226  1  0.130200  0.972500  0.720200  1.0
  H  H227  1  0.130200  0.527500  0.779800  1.0
  H  H228  1  0.369800  0.972500  0.779800  1.0
  H  H229  1  0.035800  0.945900  0.175200  1.0
  H  H230  1  0.464200  0.554100  0.175200  1.0
  H  H231  1  0.035800  0.554100  0.324800  1.0
  H  H232  1  0.464200  0.945900  0.324800  1.0
  H  H233  1  0.554100  0.464200  0.324800  1.0
  H  H234  1  0.945900  0.035800  0.324800  1.0
  H  H235  1  0.945900  0.464200  0.175200  1.0
  H  H236  1  0.554100  0.035800  0.175200  1.0
  H  H237  1  0.964200  0.054100  0.824800  1.0
  H  H238  1  0.535800  0.445900  0.824800  1.0
  H  H239  1  0.964200  0.445900  0.675200  1.0
  H  H240  1  0.535800  0.054100  0.675200  1.0
  H  H241  1  0.445900  0.535800  0.675200  1.0
  H  H242  1  0.054100  0.964200  0.675200  1.0
  H  H243  1  0.054100  0.535800  0.824800  1.0
  H  H244  1  0.445900  0.964200  0.824800  1.0
  H  H245  1  0.149600  0.257100  0.099600  1.0
  H  H246  1  0.350400  0.242900  0.099600  1.0
  H  H247  1  0.149600  0.242900  0.400400  1.0
  H  H248  1  0.350400  0.257100  0.400400  1.0
  H  H249  1  0.242900  0.350400  0.400400  1.0
  H  H250  1  0.257100  0.149600  0.400400  1.0
  H  H251  1  0.257100  0.350400  0.099600  1.0
  H  H252  1  0.242900  0.149600  0.099600  1.0
  H  H253  1  0.850400  0.742900  0.900400  1.0
  H  H254  1  0.649600  0.757100  0.900400  1.0
  H  H255  1  0.850400  0.757100  0.599600  1.0
  H  H256  1  0.649600  0.742900  0.599600  1.0
  H  H257  1  0.757100  0.649600  0.599600  1.0
  H  H258  1  0.742900  0.850400  0.599600  1.0
  H  H259  1  0.742900  0.649600  0.900400  1.0
  H  H260  1  0.757100  0.850400  0.900400  1.0
  H  H261  1  0.156100  0.243700  0.141900  1.0
  H  H262  1  0.343900  0.256300  0.141900  1.0
  H  H263  1  0.156100  0.256300  0.358100  1.0
  H  H264  1  0.343900  0.243700  0.358100  1.0
  H  H265  1  0.256300  0.343900  0.358100  1.0
  H  H266  1  0.243700  0.156100  0.358100  1.0
  H  H267  1  0.243700  0.343900  0.141900  1.0
  H  H268  1  0.256300  0.156100  0.141900  1.0
  H  H269  1  0.843900  0.756300  0.858100  1.0
  H  H270  1  0.656100  0.743700  0.858100  1.0
  H  H271  1  0.843900  0.743700  0.641900  1.0
  H  H272  1  0.656100  0.756300  0.641900  1.0
  H  H273  1  0.743700  0.656100  0.641900  1.0
  H  H274  1  0.756300  0.843900  0.641900  1.0
  H  H275  1  0.756300  0.656100  0.858100  1.0
  H  H276  1  0.743700  0.843900  0.858100  1.0
  H  H277  1  0.097000  0.289300  0.126900  1.0
  H  H278  1  0.403000  0.210700  0.126900  1.0
  H  H279  1  0.097000  0.210700  0.373100  1.0
  H  H280  1  0.403000  0.289300  0.373100  1.0
  H  H281  1  0.210700  0.403000  0.373100  1.0
  H  H282  1  0.289300  0.097000  0.373100  1.0
  H  H283  1  0.289300  0.403000  0.126900  1.0
  H  H284  1  0.210700  0.097000  0.126900  1.0
  H  H285  1  0.903000  0.710700  0.873100  1.0
  H  H286  1  0.597000  0.789300  0.873100  1.0
  H  H287  1  0.903000  0.789300  0.626900  1.0
  H  H288  1  0.597000  0.710700  0.626900  1.0
  H  H289  1  0.789300  0.597000  0.626900  1.0
  H  H290  1  0.710700  0.903000  0.626900  1.0
  H  H291  1  0.710700  0.597000  0.873100  1.0
  H  H292  1  0.789300  0.903000  0.873100  1.0
  H  H293  1  0.029800  0.205900  0.164100  1.0
  H  H294  1  0.470200  0.294100  0.164100  1.0
  H  H295  1  0.029800  0.294100  0.335900  1.0
  H  H296  1  0.470200  0.205900  0.335900  1.0
  H  H297  1  0.294100  0.470200  0.335900  1.0
  H  H298  1  0.205900  0.029800  0.335900  1.0
  H  H299  1  0.205900  0.470200  0.164100  1.0
  H  H300  1  0.294100  0.029800  0.164100  1.0
  H  H301  1  0.970200  0.794100  0.835900  1.0
  H  H302  1  0.529800  0.705900  0.835900  1.0
  H  H303  1  0.970200  0.705900  0.664100  1.0
  H  H304  1  0.529800  0.794100  0.664100  1.0
  H  H305  1  0.705900  0.529800  0.664100  1.0
  H  H306  1  0.794100  0.970200  0.664100  1.0
  H  H307  1  0.794100  0.529800  0.835900  1.0
  H  H308  1  0.705900  0.970200  0.835900  1.0
  H  H309  1  0.961200  0.186500  0.203900  1.0
  H  H310  1  0.538800  0.313500  0.203900  1.0
  H  H311  1  0.961200  0.313500  0.296100  1.0
  H  H312  1  0.538800  0.186500  0.296100  1.0
  H  H313  1  0.313500  0.538800  0.296100  1.0
  H  H314  1  0.186500  0.961200  0.296100  1.0
  H  H315  1  0.186500  0.538800  0.203900  1.0
  H  H316  1  0.313500  0.961200  0.203900  1.0
  H  H317  1  0.038800  0.813500  0.796100  1.0
  H  H318  1  0.461200  0.686500  0.796100  1.0
  H  H319  1  0.038800  0.686500  0.703900  1.0
  H  H320  1  0.461200  0.813500  0.703900  1.0
  H  H321  1  0.686500  0.461200  0.703900  1.0
  H  H322  1  0.813500  0.038800  0.703900  1.0
  H  H323  1  0.813500  0.461200  0.796100  1.0
  H  H324  1  0.686500  0.038800  0.796100  1.0
  H  H325  1  0.874400  0.168800  0.244700  1.0
  H  H326  1  0.625600  0.331200  0.244700  1.0
  H  H327  1  0.874400  0.331200  0.255300  1.0
  H  H328  1  0.625600  0.168800  0.255300  1.0
  H  H329  1  0.331200  0.625600  0.255300  1.0
  H  H330  1  0.168800  0.874400  0.255300  1.0
  H  H331  1  0.168800  0.625600  0.244700  1.0
  H  H332  1  0.331200  0.874400  0.244700  1.0
  H  H333  1  0.125600  0.831200  0.755300  1.0
  H  H334  1  0.374400  0.668800  0.755300  1.0
  H  H335  1  0.125600  0.668800  0.744700  1.0
  H  H336  1  0.374400  0.831200  0.744700  1.0
  H  H337  1  0.668800  0.374400  0.744700  1.0
  H  H338  1  0.831200  0.125600  0.744700  1.0
  H  H339  1  0.831200  0.374400  0.755300  1.0
  H  H340  1  0.668800  0.125600  0.755300  1.0
  H  H341  1  0.806700  0.021100  0.185100  1.0
  H  H342  1  0.693300  0.478900  0.185100  1.0
  H  H343  1  0.806700  0.478900  0.314900  1.0
  H  H344  1  0.693300  0.021100  0.314900  1.0
  H  H345  1  0.478900  0.693300  0.314900  1.0
  H  H346  1  0.021100  0.806700  0.314900  1.0
  H  H347  1  0.021100  0.693300  0.185100  1.0
  H  H348  1  0.478900  0.806700  0.185100  1.0
  H  H349  1  0.193300  0.978900  0.814900  1.0
  H  H350  1  0.306700  0.521100  0.814900  1.0
  H  H351  1  0.193300  0.521100  0.685100  1.0
  H  H352  1  0.306700  0.978900  0.685100  1.0
  H  H353  1  0.521100  0.306700  0.685100  1.0
  H  H354  1  0.978900  0.193300  0.685100  1.0
  H  H355  1  0.978900  0.306700  0.814900  1.0
  H  H356  1  0.521100  0.193300  0.814900  1.0
  H  H357  1  0.893500  0.030700  0.147000  1.0
  H  H358  1  0.606500  0.469300  0.147000  1.0
  H  H359  1  0.893500  0.469300  0.353000  1.0
  H  H360  1  0.606500  0.030700  0.353000  1.0
  H  H361  1  0.469300  0.606500  0.353000  1.0
  H  H362  1  0.030700  0.893500  0.353000  1.0
  H  H363  1  0.030700  0.606500  0.147000  1.0
  H  H364  1  0.469300  0.893500  0.147000  1.0
  H  H365  1  0.106500  0.969300  0.853000  1.0
  H  H366  1  0.393500  0.530700  0.853000  1.0
  H  H367  1  0.106500  0.530700  0.647000  1.0
  H  H368  1  0.393500  0.969300  0.647000  1.0
  H  H369  1  0.530700  0.393500  0.647000  1.0
  H  H370  1  0.969300  0.106500  0.647000  1.0
  H  H371  1  0.969300  0.393500  0.853000  1.0
  H  H372  1  0.530700  0.106500  0.853000  1.0
  H  H373  1  0.912300  0.156400  0.991300  1.0
  H  H374  1  0.587700  0.343600  0.991300  1.0
  H  H375  1  0.912300  0.343600  0.508700  1.0
  H  H376  1  0.587700  0.156400  0.508700  1.0
  H  H377  1  0.343600  0.587700  0.508700  1.0
  H  H378  1  0.156400  0.912300  0.508700  1.0
  H  H379  1  0.156400  0.587700  0.991300  1.0
  H  H380  1  0.343600  0.912300  0.991300  1.0
  H  H381  1  0.087700  0.843600  0.008700  1.0
  H  H382  1  0.412300  0.656400  0.008700  1.0
  H  H383  1  0.087700  0.656400  0.491300  1.0
  H  H384  1  0.412300  0.843600  0.491300  1.0
  H  H385  1  0.656400  0.412300  0.491300  1.0
  H  H386  1  0.843600  0.087700  0.491300  1.0
  H  H387  1  0.843600  0.412300  0.008700  1.0
  H  H388  1  0.656400  0.087700  0.008700  1.0
  H  H389  1  0.950300  0.106900  0.964600  1.0
  H  H390  1  0.549700  0.393100  0.964600  1.0
  H  H391  1  0.950300  0.393100  0.535400  1.0
  H  H392  1  0.549700  0.106900  0.535400  1.0
  H  H393  1  0.393100  0.549700  0.535400  1.0
  H  H394  1  0.106900  0.950300  0.535400  1.0
  H  H395  1  0.106900  0.549700  0.964600  1.0
  H  H396  1  0.393100  0.950300  0.964600  1.0
  H  H397  1  0.049700  0.893100  0.035400  1.0
  H  H398  1  0.450300  0.606900  0.035400  1.0
  H  H399  1  0.049700  0.606900  0.464600  1.0
  H  H400  1  0.450300  0.893100  0.464600  1.0
  H  H401  1  0.606900  0.450300  0.464600  1.0
  H  H402  1  0.893100  0.049700  0.464600  1.0
  H  H403  1  0.893100  0.450300  0.035400  1.0
  H  H404  1  0.606900  0.049700  0.035400  1.0
  H  H405  1  0.990100  0.166300  0.983700  1.0
  H  H406  1  0.509900  0.333700  0.983700  1.0
  H  H407  1  0.990100  0.333700  0.516300  1.0
  H  H408  1  0.509900  0.166300  0.516300  1.0
  H  H409  1  0.333700  0.509900  0.516300  1.0
  H  H410  1  0.166300  0.990100  0.516300  1.0
  H  H411  1  0.166300  0.509900  0.983700  1.0
  H  H412  1  0.333700  0.990100  0.983700  1.0
  H  H413  1  0.009900  0.833700  0.016300  1.0
  H  H414  1  0.490100  0.666300  0.016300  1.0
  H  H415  1  0.009900  0.666300  0.483700  1.0
  H  H416  1  0.490100  0.833700  0.483700  1.0
  H  H417  1  0.666300  0.490100  0.483700  1.0
  H  H418  1  0.833700  0.009900  0.483700  1.0
  H  H419  1  0.833700  0.490100  0.016300  1.0
  H  H420  1  0.666300  0.009900  0.016300  1.0
  H  H421  1  0.886700  0.034200  0.013800  1.0
  H  H422  1  0.613300  0.465800  0.013800  1.0
  H  H423  1  0.886700  0.465800  0.486200  1.0
  H  H424  1  0.613300  0.034200  0.486200  1.0
  H  H425  1  0.465800  0.613300  0.486200  1.0
  H  H426  1  0.034200  0.886700  0.486200  1.0
  H  H427  1  0.034200  0.613300  0.013800  1.0
  H  H428  1  0.465800  0.886700  0.013800  1.0
  H  H429  1  0.113300  0.965800  0.986200  1.0
  H  H430  1  0.386700  0.534200  0.986200  1.0
  H  H431  1  0.113300  0.534200  0.513800  1.0
  H  H432  1  0.386700  0.965800  0.513800  1.0
  H  H433  1  0.534200  0.386700  0.513800  1.0
  H  H434  1  0.965800  0.113300  0.513800  1.0
  H  H435  1  0.965800  0.386700  0.986200  1.0
  H  H436  1  0.534200  0.113300  0.986200  1.0
  H  H437  1  0.844900  0.932300  0.010900  1.0
  H  H438  1  0.655100  0.567700  0.010900  1.0
  H  H439  1  0.844900  0.567700  0.489100  1.0
  H  H440  1  0.655100  0.932300  0.489100  1.0
  H  H441  1  0.567700  0.655100  0.489100  1.0
  H  H442  1  0.932300  0.844900  0.489100  1.0
  H  H443  1  0.932300  0.655100  0.010900  1.0
  H  H444  1  0.567700  0.844900  0.010900  1.0
  H  H445  1  0.155100  0.067700  0.989100  1.0
  H  H446  1  0.344900  0.432300  0.989100  1.0
  H  H447  1  0.155100  0.432300  0.510900  1.0
  H  H448  1  0.344900  0.067700  0.510900  1.0
  H  H449  1  0.432300  0.344900  0.510900  1.0
  H  H450  1  0.067700  0.155100  0.510900  1.0
  H  H451  1  0.067700  0.344900  0.989100  1.0
  H  H452  1  0.432300  0.155100  0.989100  1.0
  H  H453  1  0.771500  0.849100  0.026400  1.0
  H  H454  1  0.728500  0.650900  0.026400  1.0
  H  H455  1  0.771500  0.650900  0.473600  1.0
  H  H456  1  0.728500  0.849100  0.473600  1.0
  H  H457  1  0.650900  0.728500  0.473600  1.0
  H  H458  1  0.849100  0.771500  0.473600  1.0
  H  H459  1  0.849100  0.728500  0.026400  1.0
  H  H460  1  0.650900  0.771500  0.026400  1.0
  H  H461  1  0.228500  0.150900  0.973600  1.0
  H  H462  1  0.271500  0.349100  0.973600  1.0
  H  H463  1  0.228500  0.349100  0.526400  1.0
  H  H464  1  0.271500  0.150900  0.526400  1.0
  H  H465  1  0.349100  0.271500  0.526400  1.0
  H  H466  1  0.150900  0.228500  0.526400  1.0
  H  H467  1  0.150900  0.271500  0.973600  1.0
  H  H468  1  0.349100  0.228500  0.973600  1.0
  H  H469  1  0.856700  0.827900  0.121500  1.0
  H  H470  1  0.643300  0.672100  0.121500  1.0
  H  H471  1  0.856700  0.672100  0.378500  1.0
  H  H472  1  0.643300  0.827900  0.378500  1.0
  H  H473  1  0.672100  0.643300  0.378500  1.0
  H  H474  1  0.827900  0.856700  0.378500  1.0
  H  H475  1  0.827900  0.643300  0.121500  1.0
  H  H476  1  0.672100  0.856700  0.121500  1.0
  H  H477  1  0.143300  0.172100  0.878500  1.0
  H  H478  1  0.356700  0.327900  0.878500  1.0
  H  H479  1  0.143300  0.327900  0.621500  1.0
  H  H480  1  0.356700  0.172100  0.621500  1.0
  H  H481  1  0.327900  0.356700  0.621500  1.0
  H  H482  1  0.172100  0.143300  0.621500  1.0
  H  H483  1  0.172100  0.356700  0.878500  1.0
  H  H484  1  0.327900  0.143300  0.878500  1.0
  H  H485  1  0.930800  0.911600  0.108500  1.0
  H  H486  1  0.569200  0.588400  0.108500  1.0
  H  H487  1  0.930800  0.588400  0.391500  1.0
  H  H488  1  0.569200  0.911600  0.391500  1.0
  H  H489  1  0.588400  0.569200  0.391500  1.0
  H  H490  1  0.911600  0.930800  0.391500  1.0
  H  H491  1  0.911600  0.569200  0.108500  1.0
  H  H492  1  0.588400  0.930800  0.108500  1.0
  H  H493  1  0.069200  0.088400  0.891500  1.0
  H  H494  1  0.430800  0.411600  0.891500  1.0
  H  H495  1  0.069200  0.411600  0.608500  1.0
  H  H496  1  0.430800  0.088400  0.608500  1.0
  H  H497  1  0.411600  0.430800  0.608500  1.0
  H  H498  1  0.088400  0.069200  0.608500  1.0
  H  H499  1  0.088400  0.430800  0.891500  1.0
  H  H500  1  0.411600  0.069200  0.891500  1.0
  H  H501  1  0.753000  0.930600  0.268900  1.0
  H  H502  1  0.747000  0.569400  0.268900  1.0
  H  H503  1  0.753000  0.569400  0.231100  1.0
  H  H504  1  0.747000  0.930600  0.231100  1.0
  H  H505  1  0.569400  0.747000  0.231100  1.0
  H  H506  1  0.930600  0.753000  0.231100  1.0
  H  H507  1  0.930600  0.747000  0.268900  1.0
  H  H508  1  0.569400  0.753000  0.268900  1.0
  H  H509  1  0.247000  0.069400  0.731100  1.0
  H  H510  1  0.253000  0.430600  0.731100  1.0
  H  H511  1  0.247000  0.430600  0.768900  1.0
  H  H512  1  0.253000  0.069400  0.768900  1.0
  H  H513  1  0.430600  0.253000  0.768900  1.0
  H  H514  1  0.069400  0.247000  0.768900  1.0
  H  H515  1  0.069400  0.253000  0.731100  1.0
  H  H516  1  0.430600  0.247000  0.731100  1.0
  C  C517  1  0.874600  0.161600  0.219800  1
  C  C518  1  0.625400  0.338400  0.219800  1
  C  C519  1  0.874600  0.338400  0.280200  1
  C  C520  1  0.625400  0.161600  0.280200  1
  C  C521  1  0.338400  0.625400  0.280200  1
  C  C522  1  0.161600  0.874600  0.280200  1
  C  C523  1  0.161600  0.625400  0.219800  1
  C  C524  1  0.338400  0.874600  0.219800  1
  C  C525  1  0.125400  0.838400  0.780200  1
  C  C526  1  0.374600  0.661600  0.780200  1
  C  C527  1  0.125400  0.661600  0.719800  1
  C  C528  1  0.374600  0.838400  0.719800  1
  C  C529  1  0.661600  0.374600  0.719800  1
  C  C530  1  0.838400  0.125400  0.719800  1
  C  C531  1  0.838400  0.374600  0.780200  1
  C  C532  1  0.661600  0.125400  0.780200  1
  C  C533  1  0.924600  0.169300  0.195800  1
  C  C534  1  0.575400  0.330700  0.195800  1
  C  C535  1  0.924600  0.330700  0.304200  1
  C  C536  1  0.575400  0.169300  0.304200  1
  C  C537  1  0.330700  0.575400  0.304200  1
  C  C538  1  0.169300  0.924600  0.304200  1
  C  C539  1  0.169300  0.575400  0.195800  1
  C  C540  1  0.330700  0.924600  0.195800  1
  C  C541  1  0.075400  0.830700  0.804200  1
  C  C542  1  0.424600  0.669300  0.804200  1
  C  C543  1  0.075400  0.669300  0.695800  1
  C  C544  1  0.424600  0.830700  0.695800  1
  C  C545  1  0.669300  0.424600  0.695800  1
  C  C546  1  0.830700  0.075400  0.695800  1
  C  C547  1  0.830700  0.424600  0.804200  1
  C  C548  1  0.669300  0.075400  0.804200  1
  C  C549  1  0.930500  0.127300  0.166900  1
  C  C550  1  0.569500  0.372700  0.166900  1
  C  C551  1  0.930500  0.372700  0.333100  1
  C  C552  1  0.569500  0.127300  0.333100  1
  C  C553  1  0.372700  0.569500  0.333100  1
  C  C554  1  0.127300  0.930500  0.333100  1
  C  C555  1  0.127300  0.569500  0.166900  1
  C  C556  1  0.372700  0.930500  0.166900  1
  C  C557  1  0.069500  0.872700  0.833100  1
  C  C558  1  0.430500  0.627300  0.833100  1
  C  C559  1  0.069500  0.627300  0.666900  1
  C  C560  1  0.430500  0.872700  0.666900  1
  C  C561  1  0.627300  0.430500  0.666900  1
  C  C562  1  0.872700  0.069500  0.666900  1
  C  C563  1  0.872700  0.430500  0.833100  1
  C  C564  1  0.627300  0.069500  0.833100  1
  C  C565  1  0.881700  0.078600  0.162500  1
  C  C566  1  0.618300  0.421400  0.162500  1
  C  C567  1  0.881700  0.421400  0.337500  1
  C  C568  1  0.618300  0.078600  0.337500  1
  C  C569  1  0.421400  0.618300  0.337500  1
  C  C570  1  0.078600  0.881700  0.337500  1
  C  C571  1  0.078600  0.618300  0.162500  1
  C  C572  1  0.421400  0.881700  0.162500  1
  C  C573  1  0.118300  0.921400  0.837500  1
  C  C574  1  0.381700  0.578600  0.837500  1
  C  C575  1  0.118300  0.578600  0.662500  1
  C  C576  1  0.381700  0.921400  0.662500  1
  C  C577  1  0.578600  0.381700  0.662500  1
  C  C578  1  0.921400  0.118300  0.662500  1
  C  C579  1  0.921400  0.381700  0.837500  1
  C  C580  1  0.578600  0.118300  0.837500  1
  C  C581  1  0.831500  0.073100  0.187800  1
  C  C582  1  0.668500  0.426900  0.187800  1
  C  C583  1  0.831500  0.426900  0.312200  1
  C  C584  1  0.668500  0.073100  0.312200  1
  C  C585  1  0.426900  0.668500  0.312200  1
  C  C586  1  0.073100  0.831500  0.312200  1
  C  C587  1  0.073100  0.668500  0.187800  1
  C  C588  1  0.426900  0.831500  0.187800  1
  C  C589  1  0.168500  0.926900  0.812200  1
  C  C590  1  0.331500  0.573100  0.812200  1
  C  C591  1  0.168500  0.573100  0.687800  1
  C  C592  1  0.331500  0.926900  0.687800  1
  C  C593  1  0.573100  0.331500  0.687800  1
  C  C594  1  0.926900  0.168500  0.687800  1
  C  C595  1  0.926900  0.331500  0.812200  1
  C  C596  1  0.573100  0.168500  0.812200  1
  C  C597  1  0.235400  0.976400  0.039900  1.0
  C  C598  1  0.264600  0.523600  0.039900  1.0
  C  C599  1  0.235400  0.523600  0.460100  1.0
  C  C600  1  0.264600  0.976400  0.460100  1.0
  C  C601  1  0.523600  0.264600  0.460100  1.0
  C  C602  1  0.976400  0.235400  0.460100  1.0
  C  C603  1  0.976400  0.264600  0.039900  1.0
  C  C604  1  0.523600  0.235400  0.039900  1.0
  C  C605  1  0.764600  0.023600  0.960100  1.0
  C  C606  1  0.735400  0.476400  0.960100  1.0
  C  C607  1  0.764600  0.476400  0.539900  1.0
  C  C608  1  0.735400  0.023600  0.539900  1.0
  C  C609  1  0.476400  0.735400  0.539900  1.0
  C  C610  1  0.023600  0.764600  0.539900  1.0
  C  C611  1  0.023600  0.735400  0.960100  1.0
  C  C612  1  0.476400  0.764600  0.960100  1.0
  C  C613  1  0.177300  0.988600  0.065060  1.0
  C  C614  1  0.322700  0.511400  0.065060  1.0
  C  C615  1  0.177300  0.511400  0.434940  1.0
  C  C616  1  0.322700  0.988600  0.434940  1.0
  C  C617  1  0.511400  0.322700  0.434940  1.0
  C  C618  1  0.988600  0.177300  0.434940  1.0
  C  C619  1  0.988600  0.322700  0.065060  1.0
  C  C620  1  0.511400  0.177300  0.065060  1.0
  C  C621  1  0.822700  0.011400  0.934940  1.0
  C  C622  1  0.677300  0.488600  0.934940  1.0
  C  C623  1  0.822700  0.488600  0.565060  1.0
  C  C624  1  0.677300  0.011400  0.565060  1.0
  C  C625  1  0.488600  0.677300  0.565060  1.0
  C  C626  1  0.011400  0.822700  0.565060  1.0
  C  C627  1  0.011400  0.677300  0.934940  1.0
  C  C628  1  0.488600  0.822700  0.934940  1.0
  C  C629  1  0.169300  0.944900  0.094080  1.0
  C  C630  1  0.330700  0.555100  0.094080  1.0
  C  C631  1  0.169300  0.555100  0.405920  1.0
  C  C632  1  0.330700  0.944900  0.405920  1.0
  C  C633  1  0.555100  0.330700  0.405920  1.0
  C  C634  1  0.944900  0.169300  0.405920  1.0
  C  C635  1  0.944900  0.330700  0.094080  1.0
  C  C636  1  0.555100  0.169300  0.094080  1.0
  C  C637  1  0.830700  0.055100  0.905920  1.0
  C  C638  1  0.669300  0.444900  0.905920  1.0
  C  C639  1  0.830700  0.444900  0.594080  1.0
  C  C640  1  0.669300  0.055100  0.594080  1.0
  C  C641  1  0.444900  0.669300  0.594080  1.0
  C  C642  1  0.055100  0.830700  0.594080  1.0
  C  C643  1  0.055100  0.669300  0.905920  1.0
  C  C644  1  0.444900  0.830700  0.905920  1.0
  C  C645  1  0.123400  0.955800  0.121470  1.0
  C  C646  1  0.376600  0.544200  0.121470  1.0
  C  C647  1  0.123400  0.544200  0.378530  1.0
  C  C648  1  0.376600  0.955800  0.378530  1.0
  C  C649  1  0.544200  0.376600  0.378530  1.0
  C  C650  1  0.955800  0.123400  0.378530  1.0
  C  C651  1  0.955800  0.376600  0.121470  1.0
  C  C652  1  0.544200  0.123400  0.121470  1.0
  C  C653  1  0.876600  0.044200  0.878530  1.0
  C  C654  1  0.623400  0.455800  0.878530  1.0
  C  C655  1  0.876600  0.455800  0.621470  1.0
  C  C656  1  0.623400  0.044200  0.621470  1.0
  C  C657  1  0.455800  0.623400  0.621470  1.0
  C  C658  1  0.044200  0.876600  0.621470  1.0
  C  C659  1  0.044200  0.623400  0.878530  1.0
  C  C660  1  0.455800  0.876600  0.878530  1.0
  C  C661  1  0.118300  0.905600  0.151140  1.0
  C  C662  1  0.381700  0.594400  0.151140  1.0
  C  C663  1  0.118300  0.594400  0.348860  1.0
  C  C664  1  0.381700  0.905600  0.348860  1.0
  C  C665  1  0.594400  0.381700  0.348860  1.0
  C  C666  1  0.905600  0.118300  0.348860  1.0
  C  C667  1  0.905600  0.381700  0.151140  1.0
  C  C668  1  0.594400  0.118300  0.151140  1.0
  C  C669  1  0.881700  0.094400  0.848860  1.0
  C  C670  1  0.618300  0.405600  0.848860  1.0
  C  C671  1  0.881700  0.405600  0.651140  1.0
  C  C672  1  0.618300  0.094400  0.651140  1.0
  C  C673  1  0.405600  0.618300  0.651140  1.0
  C  C674  1  0.094400  0.881700  0.651140  1.0
  C  C675  1  0.094400  0.618300  0.848860  1.0
  C  C676  1  0.405600  0.881700  0.848860  1.0
  C  C677  1  0.159600  0.851600  0.154010  1.0
  C  C678  1  0.340400  0.648400  0.154010  1.0
  C  C679  1  0.159600  0.648400  0.345990  1.0
  C  C680  1  0.340400  0.851600  0.345990  1.0
  C  C681  1  0.648400  0.340400  0.345990  1.0
  C  C682  1  0.851600  0.159600  0.345990  1.0
  C  C683  1  0.851600  0.340400  0.154010  1.0
  C  C684  1  0.648400  0.159600  0.154010  1.0
  C  C685  1  0.840400  0.148400  0.845990  1.0
  C  C686  1  0.659600  0.351600  0.845990  1.0
  C  C687  1  0.840400  0.351600  0.654010  1.0
  C  C688  1  0.659600  0.148400  0.654010  1.0
  C  C689  1  0.351600  0.659600  0.654010  1.0
  C  C690  1  0.148400  0.840400  0.654010  1.0
  C  C691  1  0.148400  0.659600  0.845990  1.0
  C  C692  1  0.351600  0.840400  0.845990  1.0
  C  C693  1  0.151400  0.807300  0.181900  1.0
  C  C694  1  0.348600  0.692700  0.181900  1.0
  C  C695  1  0.151400  0.692700  0.318100  1.0
  C  C696  1  0.348600  0.807300  0.318100  1.0
  C  C697  1  0.692700  0.348600  0.318100  1.0
  C  C698  1  0.807300  0.151400  0.318100  1.0
  C  C699  1  0.807300  0.348600  0.181900  1.0
  C  C700  1  0.692700  0.151400  0.181900  1.0
  C  C701  1  0.848600  0.192700  0.818100  1.0
  C  C702  1  0.651400  0.307300  0.818100  1.0
  C  C703  1  0.848600  0.307300  0.681900  1.0
  C  C704  1  0.651400  0.192700  0.681900  1.0
  C  C705  1  0.307300  0.651400  0.681900  1.0
  C  C706  1  0.192700  0.848600  0.681900  1.0
  C  C707  1  0.192700  0.651400  0.818100  1.0
  C  C708  1  0.307300  0.848600  0.818100  1.0
  C  C709  1  0.062100  0.864600  0.203050  1.0
  C  C710  1  0.437900  0.635400  0.203050  1.0
  C  C711  1  0.062100  0.635400  0.296950  1.0
  C  C712  1  0.437900  0.864600  0.296950  1.0
  C  C713  1  0.635400  0.437900  0.296950  1.0
  C  C714  1  0.864600  0.062100  0.296950  1.0
  C  C715  1  0.864600  0.437900  0.203050  1.0
  C  C716  1  0.635400  0.062100  0.203050  1.0
  C  C717  1  0.937900  0.135400  0.796950  1.0
  C  C718  1  0.562100  0.364600  0.796950  1.0
  C  C719  1  0.937900  0.364600  0.703050  1.0
  C  C720  1  0.562100  0.135400  0.703050  1.0
  C  C721  1  0.364600  0.562100  0.703050  1.0
  C  C722  1  0.135400  0.937900  0.703050  1.0
  C  C723  1  0.135400  0.562100  0.796950  1.0
  C  C724  1  0.364600  0.937900  0.796950  1.0
  C  C725  1  0.067100  0.910400  0.176540  1.0
  C  C726  1  0.432900  0.589600  0.176540  1.0
  C  C727  1  0.067100  0.589600  0.323460  1.0
  C  C728  1  0.432900  0.910400  0.323460  1.0
  C  C729  1  0.589600  0.432900  0.323460  1.0
  C  C730  1  0.910400  0.067100  0.323460  1.0
  C  C731  1  0.910400  0.432900  0.176540  1.0
  C  C732  1  0.589600  0.067100  0.176540  1.0
  C  C733  1  0.932900  0.089600  0.823460  1.0
  C  C734  1  0.567100  0.410400  0.823460  1.0
  C  C735  1  0.932900  0.410400  0.676540  1.0
  C  C736  1  0.567100  0.089600  0.676540  1.0
  C  C737  1  0.410400  0.567100  0.676540  1.0
  C  C738  1  0.089600  0.932900  0.676540  1.0
  C  C739  1  0.089600  0.567100  0.823460  1.0
  C  C740  1  0.410400  0.932900  0.823460  1.0
  C  C741  1  0.124800  0.250200  0.121990  1.0
  C  C742  1  0.375200  0.249800  0.121990  1.0
  C  C743  1  0.124800  0.249800  0.378010  1.0
  C  C744  1  0.375200  0.250200  0.378010  1.0
  C  C745  1  0.249800  0.375200  0.378010  1.0
  C  C746  1  0.250200  0.124800  0.378010  1.0
  C  C747  1  0.250200  0.375200  0.121990  1.0
  C  C748  1  0.249800  0.124800  0.121990  1.0
  C  C749  1  0.875200  0.749800  0.878010  1.0
  C  C750  1  0.624800  0.750200  0.878010  1.0
  C  C751  1  0.875200  0.750200  0.621990  1.0
  C  C752  1  0.624800  0.749800  0.621990  1.0
  C  C753  1  0.750200  0.624800  0.621990  1.0
  C  C754  1  0.749800  0.875200  0.621990  1.0
  C  C755  1  0.749800  0.624800  0.878010  1.0
  C  C756  1  0.750200  0.875200  0.878010  1.0
  C  C757  1  0.081500  0.190100  0.118380  1.0
  C  C758  1  0.418500  0.309900  0.118380  1.0
  C  C759  1  0.081500  0.309900  0.381620  1.0
  C  C760  1  0.418500  0.190100  0.381620  1.0
  C  C761  1  0.309900  0.418500  0.381620  1.0
  C  C762  1  0.190100  0.081500  0.381620  1.0
  C  C763  1  0.190100  0.418500  0.118380  1.0
  C  C764  1  0.309900  0.081500  0.118380  1.0
  C  C765  1  0.918500  0.809900  0.881620  1.0
  C  C766  1  0.581500  0.690100  0.881620  1.0
  C  C767  1  0.918500  0.690100  0.618380  1.0
  C  C768  1  0.581500  0.809900  0.618380  1.0
  C  C769  1  0.690100  0.581500  0.618380  1.0
  C  C770  1  0.809900  0.918500  0.618380  1.0
  C  C771  1  0.809900  0.581500  0.881620  1.0
  C  C772  1  0.690100  0.918500  0.881620  1.0
  C  C773  1  0.031300  0.178300  0.143340  1.0
  C  C774  1  0.468700  0.321700  0.143340  1.0
  C  C775  1  0.031300  0.321700  0.356660  1.0
  C  C776  1  0.468700  0.178300  0.356660  1.0
  C  C777  1  0.321700  0.468700  0.356660  1.0
  C  C778  1  0.178300  0.031300  0.356660  1.0
  C  C779  1  0.178300  0.468700  0.143340  1.0
  C  C780  1  0.321700  0.031300  0.143340  1.0
  C  C781  1  0.968700  0.821700  0.856660  1.0
  C  C782  1  0.531300  0.678300  0.856660  1.0
  C  C783  1  0.968700  0.678300  0.643340  1.0
  C  C784  1  0.531300  0.821700  0.643340  1.0
  C  C785  1  0.678300  0.531300  0.643340  1.0
  C  C786  1  0.821700  0.968700  0.643340  1.0
  C  C787  1  0.821700  0.531300  0.856660  1.0
  C  C788  1  0.678300  0.968700  0.856660  1.0
  C  C789  1  0.984000  0.129900  0.140100  1.0
  C  C790  1  0.516000  0.370100  0.140100  1.0
  C  C791  1  0.984000  0.370100  0.359900  1.0
  C  C792  1  0.516000  0.129900  0.359900  1.0
  C  C793  1  0.370100  0.516000  0.359900  1.0
  C  C794  1  0.129900  0.984000  0.359900  1.0
  C  C795  1  0.129900  0.516000  0.140100  1.0
  C  C796  1  0.370100  0.984000  0.140100  1.0
  C  C797  1  0.016000  0.870100  0.859900  1.0
  C  C798  1  0.484000  0.629900  0.859900  1.0
  C  C799  1  0.016000  0.629900  0.640100  1.0
  C  C800  1  0.484000  0.870100  0.640100  1.0
  C  C801  1  0.629900  0.484000  0.640100  1.0
  C  C802  1  0.870100  0.016000  0.640100  1.0
  C  C803  1  0.870100  0.484000  0.859900  1.0
  C  C804  1  0.629900  0.016000  0.859900  1.0
  C  C805  1  0.931200  0.114900  0.168300  1.0
  C  C806  1  0.568800  0.385100  0.168300  1.0
  C  C807  1  0.931200  0.385100  0.331700  1.0
  C  C808  1  0.568800  0.114900  0.331700  1.0
  C  C809  1  0.385100  0.568800  0.331700  1.0
  C  C810  1  0.114900  0.931200  0.331700  1.0
  C  C811  1  0.114900  0.568800  0.168300  1.0
  C  C812  1  0.385100  0.931200  0.168300  1.0
  C  C813  1  0.068800  0.885100  0.831700  1.0
  C  C814  1  0.431200  0.614900  0.831700  1.0
  C  C815  1  0.068800  0.614900  0.668300  1.0
  C  C816  1  0.431200  0.885100  0.668300  1.0
  C  C817  1  0.614900  0.431200  0.668300  1.0
  C  C818  1  0.885100  0.068800  0.668300  1.0
  C  C819  1  0.885100  0.431200  0.831700  1.0
  C  C820  1  0.614900  0.068800  0.831700  1.0
  C  C821  1  0.928500  0.153300  0.199300  1.0
  C  C822  1  0.571500  0.346700  0.199300  1.0
  C  C823  1  0.928500  0.346700  0.300700  1.0
  C  C824  1  0.571500  0.153300  0.300700  1.0
  C  C825  1  0.346700  0.571500  0.300700  1.0
  C  C826  1  0.153300  0.928500  0.300700  1.0
  C  C827  1  0.153300  0.571500  0.199300  1.0
  C  C828  1  0.346700  0.928500  0.199300  1.0
  C  C829  1  0.071500  0.846700  0.800700  1.0
  C  C830  1  0.428500  0.653300  0.800700  1.0
  C  C831  1  0.071500  0.653300  0.699300  1.0
  C  C832  1  0.428500  0.846700  0.699300  1.0
  C  C833  1  0.653300  0.428500  0.699300  1.0
  C  C834  1  0.846700  0.071500  0.699300  1.0
  C  C835  1  0.846700  0.428500  0.800700  1.0
  C  C836  1  0.653300  0.071500  0.800700  1.0
  C  C837  1  0.877000  0.142100  0.223700  1.0
  C  C838  1  0.623000  0.357900  0.223700  1.0
  C  C839  1  0.877000  0.357900  0.276300  1.0
  C  C840  1  0.623000  0.142100  0.276300  1.0
  C  C841  1  0.357900  0.623000  0.276300  1.0
  C  C842  1  0.142100  0.877000  0.276300  1.0
  C  C843  1  0.142100  0.623000  0.223700  1.0
  C  C844  1  0.357900  0.877000  0.223700  1.0
  C  C845  1  0.123000  0.857900  0.776300  1.0
  C  C846  1  0.377000  0.642100  0.776300  1.0
  C  C847  1  0.123000  0.642100  0.723700  1.0
  C  C848  1  0.377000  0.857900  0.723700  1.0
  C  C849  1  0.642100  0.377000  0.723700  1.0
  C  C850  1  0.857900  0.123000  0.723700  1.0
  C  C851  1  0.857900  0.377000  0.776300  1.0
  C  C852  1  0.642100  0.123000  0.776300  1.0
  C  C853  1  0.838400  0.055500  0.189200  1.0
  C  C854  1  0.661600  0.444500  0.189200  1.0
  C  C855  1  0.838400  0.444500  0.310800  1.0
  C  C856  1  0.661600  0.055500  0.310800  1.0
  C  C857  1  0.444500  0.661600  0.310800  1.0
  C  C858  1  0.055500  0.838400  0.310800  1.0
  C  C859  1  0.055500  0.661600  0.189200  1.0
  C  C860  1  0.444500  0.838400  0.189200  1.0
  C  C861  1  0.161600  0.944500  0.810800  1.0
  C  C862  1  0.338400  0.555500  0.810800  1.0
  C  C863  1  0.161600  0.555500  0.689200  1.0
  C  C864  1  0.338400  0.944500  0.689200  1.0
  C  C865  1  0.555500  0.338400  0.689200  1.0
  C  C866  1  0.944500  0.161600  0.689200  1.0
  C  C867  1  0.944500  0.338400  0.810800  1.0
  C  C868  1  0.555500  0.161600  0.810800  1.0
  C  C869  1  0.888100  0.062400  0.165700  1.0
  C  C870  1  0.611900  0.437600  0.165700  1.0
  C  C871  1  0.888100  0.437600  0.334300  1.0
  C  C872  1  0.611900  0.062400  0.334300  1.0
  C  C873  1  0.437600  0.611900  0.334300  1.0
  C  C874  1  0.062400  0.888100  0.334300  1.0
  C  C875  1  0.062400  0.611900  0.165700  1.0
  C  C876  1  0.437600  0.888100  0.165700  1.0
  C  C877  1  0.111900  0.937600  0.834300  1.0
  C  C878  1  0.388100  0.562400  0.834300  1.0
  C  C879  1  0.111900  0.562400  0.665700  1.0
  C  C880  1  0.388100  0.937600  0.665700  1.0
  C  C881  1  0.562400  0.388100  0.665700  1.0
  C  C882  1  0.937600  0.111900  0.665700  1.0
  C  C883  1  0.937600  0.388100  0.834300  1.0
  C  C884  1  0.562400  0.111900  0.834300  1.0
  C  C885  1  0.954400  0.133400  0.986620  1.0
  C  C886  1  0.545600  0.366600  0.986620  1.0
  C  C887  1  0.954400  0.366600  0.513380  1.0
  C  C888  1  0.545600  0.133400  0.513380  1.0
  C  C889  1  0.366600  0.545600  0.513380  1.0
  C  C890  1  0.133400  0.954400  0.513380  1.0
  C  C891  1  0.133400  0.545600  0.986620  1.0
  C  C892  1  0.366600  0.954400  0.986620  1.0
  C  C893  1  0.045600  0.866600  0.013380  1.0
  C  C894  1  0.454400  0.633400  0.013380  1.0
  C  C895  1  0.045600  0.633400  0.486620  1.0
  C  C896  1  0.454400  0.866600  0.486620  1.0
  C  C897  1  0.633400  0.454400  0.486620  1.0
  C  C898  1  0.866600  0.045600  0.486620  1.0
  C  C899  1  0.866600  0.454400  0.013380  1.0
  C  C900  1  0.633400  0.045600  0.013380  1.0
  C  C901  1  0.970600  0.088400  0.017580  1.0
  C  C902  1  0.529400  0.411600  0.017580  1.0
  C  C903  1  0.970600  0.411600  0.482420  1.0
  C  C904  1  0.529400  0.088400  0.482420  1.0
  C  C905  1  0.411600  0.529400  0.482420  1.0
  C  C906  1  0.088400  0.970600  0.482420  1.0
  C  C907  1  0.088400  0.529400  0.017580  1.0
  C  C908  1  0.411600  0.970600  0.017580  1.0
  C  C909  1  0.029400  0.911600  0.982420  1.0
  C  C910  1  0.470600  0.588400  0.982420  1.0
  C  C911  1  0.029400  0.588400  0.517580  1.0
  C  C912  1  0.470600  0.911600  0.517580  1.0
  C  C913  1  0.588400  0.470600  0.517580  1.0
  C  C914  1  0.911600  0.029400  0.517580  1.0
  C  C915  1  0.911600  0.470600  0.982420  1.0
  C  C916  1  0.588400  0.029400  0.982420  1.0
  C  C917  1  0.928400  0.036400  0.025840  1.0
  C  C918  1  0.571600  0.463600  0.025840  1.0
  C  C919  1  0.928400  0.463600  0.474160  1.0
  C  C920  1  0.571600  0.036400  0.474160  1.0
  C  C921  1  0.463600  0.571600  0.474160  1.0
  C  C922  1  0.036400  0.928400  0.474160  1.0
  C  C923  1  0.036400  0.571600  0.025840  1.0
  C  C924  1  0.463600  0.928400  0.025840  1.0
  C  C925  1  0.071600  0.963600  0.974160  1.0
  C  C926  1  0.428400  0.536400  0.974160  1.0
  C  C927  1  0.071600  0.536400  0.525840  1.0
  C  C928  1  0.428400  0.963600  0.525840  1.0
  C  C929  1  0.536400  0.428400  0.525840  1.0
  C  C930  1  0.963600  0.071600  0.525840  1.0
  C  C931  1  0.963600  0.428400  0.974160  1.0
  C  C932  1  0.536400  0.071600  0.974160  1.0
  C  C933  1  0.943400  0.987200  0.050700  1.0
  C  C934  1  0.556600  0.512800  0.050700  1.0
  C  C935  1  0.943400  0.512800  0.449300  1.0
  C  C936  1  0.556600  0.987200  0.449300  1.0
  C  C937  1  0.512800  0.556600  0.449300  1.0
  C  C938  1  0.987200  0.943400  0.449300  1.0
  C  C939  1  0.987200  0.556600  0.050700  1.0
  C  C940  1  0.512800  0.943400  0.050700  1.0
  C  C941  1  0.056600  0.012800  0.949300  1.0
  C  C942  1  0.443400  0.487200  0.949300  1.0
  C  C943  1  0.056600  0.487200  0.550700  1.0
  C  C944  1  0.443400  0.012800  0.550700  1.0
  C  C945  1  0.487200  0.443400  0.550700  1.0
  C  C946  1  0.012800  0.056600  0.550700  1.0
  C  C947  1  0.012800  0.443400  0.949300  1.0
  C  C948  1  0.487200  0.056600  0.949300  1.0
  C  C949  1  0.895800  0.933000  0.057940  1.0
  C  C950  1  0.604200  0.567000  0.057940  1.0
  C  C951  1  0.895800  0.567000  0.442060  1.0
  C  C952  1  0.604200  0.933000  0.442060  1.0
  C  C953  1  0.567000  0.604200  0.442060  1.0
  C  C954  1  0.933000  0.895800  0.442060  1.0
  C  C955  1  0.933000  0.604200  0.057940  1.0
  C  C956  1  0.567000  0.895800  0.057940  1.0
  C  C957  1  0.104200  0.067000  0.942060  1.0
  C  C958  1  0.395800  0.433000  0.942060  1.0
  C  C959  1  0.104200  0.433000  0.557940  1.0
  C  C960  1  0.395800  0.067000  0.557940  1.0
  C  C961  1  0.433000  0.395800  0.557940  1.0
  C  C962  1  0.067000  0.104200  0.557940  1.0
  C  C963  1  0.067000  0.395800  0.942060  1.0
  C  C964  1  0.433000  0.104200  0.942060  1.0
  C  C965  1  0.848000  0.912100  0.033860  1.0
  C  C966  1  0.652000  0.587900  0.033860  1.0
  C  C967  1  0.848000  0.587900  0.466140  1.0
  C  C968  1  0.652000  0.912100  0.466140  1.0
  C  C969  1  0.587900  0.652000  0.466140  1.0
  C  C970  1  0.912100  0.848000  0.466140  1.0
  C  C971  1  0.912100  0.652000  0.033860  1.0
  C  C972  1  0.587900  0.848000  0.033860  1.0
  C  C973  1  0.152000  0.087900  0.966140  1.0
  C  C974  1  0.348000  0.412100  0.966140  1.0
  C  C975  1  0.152000  0.412100  0.533860  1.0
  C  C976  1  0.348000  0.087900  0.533860  1.0
  C  C977  1  0.412100  0.348000  0.533860  1.0
  C  C978  1  0.087900  0.152000  0.533860  1.0
  C  C979  1  0.087900  0.348000  0.966140  1.0
  C  C980  1  0.412100  0.152000  0.966140  1.0
  C  C981  1  0.804800  0.861800  0.043180  1.0
  C  C982  1  0.695200  0.638200  0.043180  1.0
  C  C983  1  0.804800  0.638200  0.456820  1.0
  C  C984  1  0.695200  0.861800  0.456820  1.0
  C  C985  1  0.638200  0.695200  0.456820  1.0
  C  C986  1  0.861800  0.804800  0.456820  1.0
  C  C987  1  0.861800  0.695200  0.043180  1.0
  C  C988  1  0.638200  0.804800  0.043180  1.0
  C  C989  1  0.195200  0.138200  0.956820  1.0
  C  C990  1  0.304800  0.361800  0.956820  1.0
  C  C991  1  0.195200  0.361800  0.543180  1.0
  C  C992  1  0.304800  0.138200  0.543180  1.0
  C  C993  1  0.361800  0.304800  0.543180  1.0
  C  C994  1  0.138200  0.195200  0.543180  1.0
  C  C995  1  0.138200  0.304800  0.956820  1.0
  C  C996  1  0.361800  0.195200  0.956820  1.0
  C  C997  1  0.854400  0.849600  0.098820  1.0
  C  C998  1  0.645600  0.650400  0.098820  1.0
  C  C999  1  0.854400  0.650400  0.401180  1.0
  C  C1000  1  0.645600  0.849600  0.401180  1.0
  C  C1001  1  0.650400  0.645600  0.401180  1.0
  C  C1002  1  0.849600  0.854400  0.401180  1.0
  C  C1003  1  0.849600  0.645600  0.098820  1.0
  C  C1004  1  0.650400  0.854400  0.098820  1.0
  C  C1005  1  0.145600  0.150400  0.901180  1.0
  C  C1006  1  0.354400  0.349600  0.901180  1.0
  C  C1007  1  0.145600  0.349600  0.598820  1.0
  C  C1008  1  0.354400  0.150400  0.598820  1.0
  C  C1009  1  0.349600  0.354400  0.598820  1.0
  C  C1010  1  0.150400  0.145600  0.598820  1.0
  C  C1011  1  0.150400  0.354400  0.901180  1.0
  C  C1012  1  0.349600  0.145600  0.901180  1.0
  C  C1013  1  0.898200  0.899400  0.091220  1.0
  C  C1014  1  0.601800  0.600600  0.091220  1.0
  C  C1015  1  0.898200  0.600600  0.408780  1.0
  C  C1016  1  0.601800  0.899400  0.408780  1.0
  C  C1017  1  0.600600  0.601800  0.408780  1.0
  C  C1018  1  0.899400  0.898200  0.408780  1.0
  C  C1019  1  0.899400  0.601800  0.091220  1.0
  C  C1020  1  0.600600  0.898200  0.091220  1.0
  C  C1021  1  0.101800  0.100600  0.908780  1.0
  C  C1022  1  0.398200  0.399400  0.908780  1.0
  C  C1023  1  0.101800  0.399400  0.591220  1.0
  C  C1024  1  0.398200  0.100600  0.591220  1.0
  C  C1025  1  0.399400  0.398200  0.591220  1.0
  C  C1026  1  0.100600  0.101800  0.591220  1.0
  C  C1027  1  0.100600  0.398200  0.908780  1.0
  C  C1028  1  0.399400  0.101800  0.908780  1.0
  Br  Br1029  1  0.750000  0.250000  0.250000  1
  Br  Br1030  1  0.250000  0.750000  0.250000  1
  Br  Br1031  1  0.250000  0.750000  0.750000  1
  Br  Br1032  1  0.750000  0.250000  0.750000  1
  Br  Br1033  1  0.750000  0.263000  0.250000  1
  Br  Br1034  1  0.750000  0.237000  0.250000  1
  Br  Br1035  1  0.237000  0.750000  0.250000  1
  Br  Br1036  1  0.263000  0.750000  0.250000  1
  Br  Br1037  1  0.250000  0.737000  0.750000  1
  Br  Br1038  1  0.250000  0.763000  0.750000  1
  Br  Br1039  1  0.763000  0.250000  0.750000  1
  Br  Br1040  1  0.737000  0.250000  0.750000  1
  Br  Br1041  1  0.750000  0.750000  0.153990  1.0
  Br  Br1042  1  0.750000  0.750000  0.346010  1.0
  Br  Br1043  1  0.250000  0.250000  0.846010  1.0
  Br  Br1044  1  0.250000  0.250000  0.653990  1.0
  N  N1045  1  0.828600  0.115100  0.216800  1
  N  N1046  1  0.671400  0.384900  0.216800  1
  N  N1047  1  0.828600  0.384900  0.283200  1
  N  N1048  1  0.671400  0.115100  0.283200  1
  N  N1049  1  0.384900  0.671400  0.283200  1
  N  N1050  1  0.115100  0.828600  0.283200  1
  N  N1051  1  0.115100  0.671400  0.216800  1
  N  N1052  1  0.384900  0.828600  0.216800  1
  N  N1053  1  0.171400  0.884900  0.783200  1
  N  N1054  1  0.328600  0.615100  0.783200  1
  N  N1055  1  0.171400  0.615100  0.716800  1
  N  N1056  1  0.328600  0.884900  0.716800  1
  N  N1057  1  0.615100  0.328600  0.716800  1
  N  N1058  1  0.884900  0.171400  0.716800  1
  N  N1059  1  0.884900  0.328600  0.783200  1
  N  N1060  1  0.615100  0.171400  0.783200  1
  N  N1061  1  0.102800  0.812800  0.206500  1.0
  N  N1062  1  0.397200  0.687200  0.206500  1.0
  N  N1063  1  0.102800  0.687200  0.293500  1.0
  N  N1064  1  0.397200  0.812800  0.293500  1.0
  N  N1065  1  0.687200  0.397200  0.293500  1.0
  N  N1066  1  0.812800  0.102800  0.293500  1.0
  N  N1067  1  0.812800  0.397200  0.206500  1.0
  N  N1068  1  0.687200  0.102800  0.206500  1.0
  N  N1069  1  0.897200  0.187200  0.793500  1.0
  N  N1070  1  0.602800  0.312800  0.793500  1.0
  N  N1071  1  0.897200  0.312800  0.706500  1.0
  N  N1072  1  0.602800  0.187200  0.706500  1.0
  N  N1073  1  0.312800  0.602800  0.706500  1.0
  N  N1074  1  0.187200  0.897200  0.706500  1.0
  N  N1075  1  0.187200  0.602800  0.793500  1.0
  N  N1076  1  0.312800  0.897200  0.793500  1.0
  N  N1077  1  0.830400  0.094200  0.218300  1.0
  N  N1078  1  0.669600  0.405800  0.218300  1.0
  N  N1079  1  0.830400  0.405800  0.281700  1.0
  N  N1080  1  0.669600  0.094200  0.281700  1.0
  N  N1081  1  0.405800  0.669600  0.281700  1.0
  N  N1082  1  0.094200  0.830400  0.281700  1.0
  N  N1083  1  0.094200  0.669600  0.218300  1.0
  N  N1084  1  0.405800  0.830400  0.218300  1.0
  N  N1085  1  0.169600  0.905800  0.781700  1.0
  N  N1086  1  0.330400  0.594200  0.781700  1.0
  N  N1087  1  0.169600  0.594200  0.718300  1.0
  N  N1088  1  0.330400  0.905800  0.718300  1.0
  N  N1089  1  0.594200  0.330400  0.718300  1.0
  N  N1090  1  0.905800  0.169600  0.718300  1.0
  N  N1091  1  0.905800  0.330400  0.781700  1.0
  N  N1092  1  0.594200  0.169600  0.781700  1.0
  N  N1093  1  0.807300  0.830300  0.074530  1.0
  N  N1094  1  0.692700  0.669700  0.074530  1.0
  N  N1095  1  0.807300  0.669700  0.425470  1.0
  N  N1096  1  0.692700  0.830300  0.425470  1.0
  N  N1097  1  0.669700  0.692700  0.425470  1.0
  N  N1098  1  0.830300  0.807300  0.425470  1.0
  N  N1099  1  0.830300  0.692700  0.074530  1.0
  N  N1100  1  0.669700  0.807300  0.074530  1.0
  N  N1101  1  0.192700  0.169700  0.925470  1.0
  N  N1102  1  0.307300  0.330300  0.925470  1.0
  N  N1103  1  0.192700  0.330300  0.574530  1.0
  N  N1104  1  0.307300  0.169700  0.574530  1.0
  N  N1105  1  0.330300  0.307300  0.574530  1.0
  N  N1106  1  0.169700  0.192700  0.574530  1.0
  N  N1107  1  0.169700  0.307300  0.925470  1.0
  N  N1108  1  0.330300  0.192700  0.925470  1.0
  O  O1109  1  0.750000  0.991600  0.250000  1
  O  O1110  1  0.750000  0.508400  0.250000  1
  O  O1111  1  0.508400  0.750000  0.250000  1
  O  O1112  1  0.991600  0.750000  0.250000  1
  O  O1113  1  0.250000  0.008400  0.750000  1
  O  O1114  1  0.250000  0.491600  0.750000  1
  O  O1115  1  0.491600  0.250000  0.750000  1
  O  O1116  1  0.008400  0.250000  0.750000  1
  O  O1117  1  0.750000  0.957700  0.250000  1.0
  O  O1118  1  0.750000  0.542300  0.250000  1.0
  O  O1119  1  0.542300  0.750000  0.250000  1.0
  O  O1120  1  0.957700  0.750000  0.250000  1.0
  O  O1121  1  0.250000  0.042300  0.750000  1.0
  O  O1122  1  0.250000  0.457700  0.750000  1.0
  O  O1123  1  0.457700  0.250000  0.750000  1.0
  O  O1124  1  0.042300  0.250000  0.750000  1.0
  O  O1125  1  0.139800  0.036900  0.057950  1.0
  O  O1126  1  0.360200  0.463100  0.057950  1.0
  O  O1127  1  0.139800  0.463100  0.442050  1.0
  O  O1128  1  0.360200  0.036900  0.442050  1.0
  O  O1129  1  0.463100  0.360200  0.442050  1.0
  O  O1130  1  0.036900  0.139800  0.442050  1.0
  O  O1131  1  0.036900  0.360200  0.057950  1.0
  O  O1132  1  0.463100  0.139800  0.057950  1.0
  O  O1133  1  0.860200  0.963100  0.942050  1.0
  O  O1134  1  0.639800  0.536900  0.942050  1.0
  O  O1135  1  0.860200  0.536900  0.557950  1.0
  O  O1136  1  0.639800  0.963100  0.557950  1.0
  O  O1137  1  0.536900  0.639800  0.557950  1.0
  O  O1138  1  0.963100  0.860200  0.557950  1.0
  O  O1139  1  0.963100  0.639800  0.942050  1.0
  O  O1140  1  0.536900  0.860200  0.942050  1.0
  O  O1141  1  0.086400  0.005200  0.123250  1.0
  O  O1142  1  0.413600  0.494800  0.123250  1.0
  O  O1143  1  0.086400  0.494800  0.376750  1.0
  O  O1144  1  0.413600  0.005200  0.376750  1.0
  O  O1145  1  0.494800  0.413600  0.376750  1.0
  O  O1146  1  0.005200  0.086400  0.376750  1.0
  O  O1147  1  0.005200  0.413600  0.123250  1.0
  O  O1148  1  0.494800  0.086400  0.123250  1.0
  O  O1149  1  0.913600  0.994800  0.876750  1.0
  O  O1150  1  0.586400  0.505200  0.876750  1.0
  O  O1151  1  0.913600  0.505200  0.623250  1.0
  O  O1152  1  0.586400  0.994800  0.623250  1.0
  O  O1153  1  0.505200  0.586400  0.623250  1.0
  O  O1154  1  0.994800  0.913600  0.623250  1.0
  O  O1155  1  0.994800  0.586400  0.876750  1.0
  O  O1156  1  0.505200  0.913600  0.876750  1.0
  O  O1157  1  0.093600  0.150900  0.092400  1.0
  O  O1158  1  0.406400  0.349100  0.092400  1.0
  O  O1159  1  0.093600  0.349100  0.407600  1.0
  O  O1160  1  0.406400  0.150900  0.407600  1.0
  O  O1161  1  0.349100  0.406400  0.407600  1.0
  O  O1162  1  0.150900  0.093600  0.407600  1.0
  O  O1163  1  0.150900  0.406400  0.092400  1.0
  O  O1164  1  0.349100  0.093600  0.092400  1.0
  O  O1165  1  0.906400  0.849100  0.907600  1.0
  O  O1166  1  0.593600  0.650900  0.907600  1.0
  O  O1167  1  0.906400  0.650900  0.592400  1.0
  O  O1168  1  0.593600  0.849100  0.592400  1.0
  O  O1169  1  0.650900  0.593600  0.592400  1.0
  O  O1170  1  0.849100  0.906400  0.592400  1.0
  O  O1171  1  0.849100  0.593600  0.907600  1.0
  O  O1172  1  0.650900  0.906400  0.907600  1.0
  O  O1173  1  0.979800  0.089300  0.113350  1.0
  O  O1174  1  0.520200  0.410700  0.113350  1.0
  O  O1175  1  0.979800  0.410700  0.386650  1.0
  O  O1176  1  0.520200  0.089300  0.386650  1.0
  O  O1177  1  0.410700  0.520200  0.386650  1.0
  O  O1178  1  0.089300  0.979800  0.386650  1.0
  O  O1179  1  0.089300  0.520200  0.113350  1.0
  O  O1180  1  0.410700  0.979800  0.113350  1.0
  O  O1181  1  0.020200  0.910700  0.886650  1.0
  O  O1182  1  0.479800  0.589300  0.886650  1.0
  O  O1183  1  0.020200  0.589300  0.613350  1.0
  O  O1184  1  0.479800  0.910700  0.613350  1.0
  O  O1185  1  0.589300  0.479800  0.613350  1.0
  O  O1186  1  0.910700  0.020200  0.613350  1.0
  O  O1187  1  0.910700  0.479800  0.886650  1.0
  O  O1188  1  0.589300  0.020200  0.886650  1.0
  O  O1189  1  0.023900  0.102100  0.035090  1.0
  O  O1190  1  0.476100  0.397900  0.035090  1.0
  O  O1191  1  0.023900  0.397900  0.464910  1.0
  O  O1192  1  0.476100  0.102100  0.464910  1.0
  O  O1193  1  0.397900  0.476100  0.464910  1.0
  O  O1194  1  0.102100  0.023900  0.464910  1.0
  O  O1195  1  0.102100  0.476100  0.035090  1.0
  O  O1196  1  0.397900  0.023900  0.035090  1.0
  O  O1197  1  0.976100  0.897900  0.964910  1.0
  O  O1198  1  0.523900  0.602100  0.964910  1.0
  O  O1199  1  0.976100  0.602100  0.535090  1.0
  O  O1200  1  0.523900  0.897900  0.535090  1.0
  O  O1201  1  0.602100  0.523900  0.535090  1.0
  O  O1202  1  0.897900  0.976100  0.535090  1.0
  O  O1203  1  0.897900  0.523900  0.964910  1.0
  O  O1204  1  0.602100  0.976100  0.964910  1.0
  O  O1205  1  0.998000  0.984700  0.068740  1.0
  O  O1206  1  0.502000  0.515300  0.068740  1.0
  O  O1207  1  0.998000  0.515300  0.431260  1.0
  O  O1208  1  0.502000  0.984700  0.431260  1.0
  O  O1209  1  0.515300  0.502000  0.431260  1.0
  O  O1210  1  0.984700  0.998000  0.431260  1.0
  O  O1211  1  0.984700  0.502000  0.068740  1.0
  O  O1212  1  0.515300  0.998000  0.068740  1.0
  O  O1213  1  0.002000  0.015300  0.931260  1.0
  O  O1214  1  0.498000  0.484700  0.931260  1.0
  O  O1215  1  0.002000  0.484700  0.568740  1.0
  O  O1216  1  0.498000  0.015300  0.568740  1.0
  O  O1217  1  0.484700  0.498000  0.568740  1.0
  O  O1218  1  0.015300  0.002000  0.568740  1.0
  O  O1219  1  0.015300  0.498000  0.931260  1.0
  O  O1220  1  0.484700  0.002000  0.931260  1.0
