# generated using pymatgen
data_Fe4Co3H100C117S7N17Cl6O25
_symmetry_space_group_name_H-M   'P 1'
_cell_length_a   26.62620000
_cell_length_b   29.52180000
_cell_length_c   29.52180000
_cell_angle_alpha   90.00000000
_cell_angle_beta   90.00000000
_cell_angle_gamma   90.00000000
_symmetry_Int_Tables_number   1
_chemical_formula_structural   Fe4Co3H100C117S7N17Cl6O25
_chemical_formula_sum   'Fe16 Co12 H400 C468 S28 N68 Cl24 O100'
_cell_volume   23205.70982228
_cell_formula_units_Z   4
loop_
 _symmetry_equiv_pos_site_id
 _symmetry_equiv_pos_as_xyz
  1  'x, y, z'
loop_
 _atom_site_type_symbol
 _atom_site_label
 _atom_site_symmetry_multiplicity
 _atom_site_fract_x
 _atom_site_fract_y
 _atom_site_fract_z
 _atom_site_occupancy
  Fe  Fe1  1  0.046910  0.120160  0.520450  1.0
  Fe  Fe2  1  0.046910  0.979550  0.120160  1.0
  Fe  Fe3  1  0.046910  0.379840  0.979550  1.0
  Fe  Fe4  1  0.046910  0.520450  0.379840  1.0
  Fe  Fe5  1  0.953090  0.879840  0.479550  1.0
  Fe  Fe6  1  0.953090  0.020450  0.879840  1.0
  Fe  Fe7  1  0.953090  0.620160  0.020450  1.0
  Fe  Fe8  1  0.953090  0.479550  0.620160  1.0
  Fe  Fe9  1  0.514540  0.519610  0.383000  1.0
  Fe  Fe10  1  0.514540  0.117000  0.519610  1.0
  Fe  Fe11  1  0.514540  0.980390  0.117000  1.0
  Fe  Fe12  1  0.514540  0.383000  0.980390  1.0
  Fe  Fe13  1  0.485460  0.480390  0.617000  1.0
  Fe  Fe14  1  0.485460  0.883000  0.480390  1.0
  Fe  Fe15  1  0.485460  0.019610  0.883000  1.0
  Fe  Fe16  1  0.485460  0.617000  0.019610  1.0
  Co  Co17  1  0.998160  0.250000  0.250000  1
  Co  Co18  1  0.001840  0.750000  0.750000  1
  Co  Co19  1  0.557460  0.250000  0.250000  1
  Co  Co20  1  0.442540  0.750000  0.750000  1
  Co  Co21  1  0.280930  0.335950  0.499100  1.0
  Co  Co22  1  0.280930  0.000900  0.335950  1.0
  Co  Co23  1  0.280930  0.164050  0.000900  1.0
  Co  Co24  1  0.280930  0.499100  0.164050  1.0
  Co  Co25  1  0.719070  0.664050  0.500900  1.0
  Co  Co26  1  0.719070  0.999100  0.664050  1.0
  Co  Co27  1  0.719070  0.835950  0.999100  1.0
  Co  Co28  1  0.719070  0.500900  0.835950  1.0
  H  H29  1  0.400600  0.334700  0.654200  1
  H  H30  1  0.400600  0.845800  0.334700  1
  H  H31  1  0.400600  0.165300  0.845800  1
  H  H32  1  0.400600  0.654200  0.165300  1
  H  H33  1  0.599400  0.665300  0.345800  1
  H  H34  1  0.599400  0.154200  0.665300  1
  H  H35  1  0.599400  0.834700  0.154200  1
  H  H36  1  0.599400  0.345800  0.834700  1
  H  H37  1  0.439500  0.369300  0.631400  1
  H  H38  1  0.439500  0.868600  0.369300  1
  H  H39  1  0.439500  0.130700  0.868600  1
  H  H40  1  0.439500  0.631400  0.130700  1
  H  H41  1  0.560500  0.630700  0.368600  1
  H  H42  1  0.560500  0.131400  0.630700  1
  H  H43  1  0.560500  0.869300  0.131400  1
  H  H44  1  0.560500  0.368600  0.869300  1
  H  H45  1  0.919800  0.019200  0.448500  1.0
  H  H46  1  0.919800  0.051500  0.019200  1.0
  H  H47  1  0.919800  0.480800  0.051500  1.0
  H  H48  1  0.919800  0.448500  0.480800  1.0
  H  H49  1  0.080200  0.980800  0.551500  1.0
  H  H50  1  0.080200  0.948500  0.980800  1.0
  H  H51  1  0.080200  0.519200  0.948500  1.0
  H  H52  1  0.080200  0.551500  0.519200  1.0
  H  H53  1  0.956700  0.997200  0.485100  1.0
  H  H54  1  0.956700  0.014900  0.997200  1.0
  H  H55  1  0.956700  0.502800  0.014900  1.0
  H  H56  1  0.956700  0.485100  0.502800  1.0
  H  H57  1  0.043300  0.002800  0.514900  1.0
  H  H58  1  0.043300  0.985100  0.002800  1.0
  H  H59  1  0.043300  0.497200  0.985100  1.0
  H  H60  1  0.043300  0.514900  0.497200  1.0
  H  H61  1  0.910200  0.027300  0.501400  1.0
  H  H62  1  0.910200  0.998600  0.027300  1.0
  H  H63  1  0.910200  0.472700  0.998600  1.0
  H  H64  1  0.910200  0.501400  0.472700  1.0
  H  H65  1  0.089800  0.972700  0.498600  1.0
  H  H66  1  0.089800  0.001400  0.972700  1.0
  H  H67  1  0.089800  0.527300  0.001400  1.0
  H  H68  1  0.089800  0.498600  0.527300  1.0
  H  H69  1  0.955200  0.079100  0.410000  1.0
  H  H70  1  0.955200  0.090000  0.079100  1.0
  H  H71  1  0.955200  0.420900  0.090000  1.0
  H  H72  1  0.955200  0.410000  0.420900  1.0
  H  H73  1  0.044800  0.920900  0.590000  1.0
  H  H74  1  0.044800  0.910000  0.920900  1.0
  H  H75  1  0.044800  0.579100  0.910000  1.0
  H  H76  1  0.044800  0.590000  0.579100  1.0
  H  H77  1  0.938000  0.126200  0.357000  1.0
  H  H78  1  0.938000  0.143000  0.126200  1.0
  H  H79  1  0.938000  0.373800  0.143000  1.0
  H  H80  1  0.938000  0.357000  0.373800  1.0
  H  H81  1  0.062000  0.873800  0.643000  1.0
  H  H82  1  0.062000  0.857000  0.873800  1.0
  H  H83  1  0.062000  0.626200  0.857000  1.0
  H  H84  1  0.062000  0.643000  0.626200  1.0
  H  H85  1  0.941300  0.170100  0.293000  1.0
  H  H86  1  0.941300  0.207000  0.170100  1.0
  H  H87  1  0.941300  0.329900  0.207000  1.0
  H  H88  1  0.941300  0.293000  0.329900  1.0
  H  H89  1  0.058700  0.829900  0.707000  1.0
  H  H90  1  0.058700  0.793000  0.829900  1.0
  H  H91  1  0.058700  0.670100  0.793000  1.0
  H  H92  1  0.058700  0.707000  0.670100  1.0
  H  H93  1  0.055300  0.239000  0.338400  1.0
  H  H94  1  0.055300  0.161600  0.239000  1.0
  H  H95  1  0.055300  0.261000  0.161600  1.0
  H  H96  1  0.055300  0.338400  0.261000  1.0
  H  H97  1  0.944700  0.761000  0.661600  1.0
  H  H98  1  0.944700  0.838400  0.761000  1.0
  H  H99  1  0.944700  0.739000  0.838400  1.0
  H  H100  1  0.944700  0.661600  0.739000  1.0
  H  H101  1  0.056100  0.197400  0.405500  1.0
  H  H102  1  0.056100  0.094500  0.197400  1.0
  H  H103  1  0.056100  0.302600  0.094500  1.0
  H  H104  1  0.056100  0.405500  0.302600  1.0
  H  H105  1  0.943900  0.802600  0.594500  1.0
  H  H106  1  0.943900  0.905500  0.802600  1.0
  H  H107  1  0.943900  0.697400  0.905500  1.0
  H  H108  1  0.943900  0.594500  0.697400  1.0
  H  H109  1  0.953700  0.206500  0.619800  1.0
  H  H110  1  0.953700  0.880200  0.206500  1.0
  H  H111  1  0.953700  0.293500  0.880200  1.0
  H  H112  1  0.953700  0.619800  0.293500  1.0
  H  H113  1  0.046300  0.793500  0.380200  1.0
  H  H114  1  0.046300  0.119800  0.793500  1.0
  H  H115  1  0.046300  0.706500  0.119800  1.0
  H  H116  1  0.046300  0.380200  0.706500  1.0
  H  H117  1  0.928300  0.213700  0.571200  1.0
  H  H118  1  0.928300  0.928800  0.213700  1.0
  H  H119  1  0.928300  0.286300  0.928800  1.0
  H  H120  1  0.928300  0.571200  0.286300  1.0
  H  H121  1  0.071700  0.786300  0.428800  1.0
  H  H122  1  0.071700  0.071200  0.786300  1.0
  H  H123  1  0.071700  0.713700  0.071200  1.0
  H  H124  1  0.071700  0.428800  0.713700  1.0
  H  H125  1  0.963300  0.252400  0.592200  1.0
  H  H126  1  0.963300  0.907800  0.252400  1.0
  H  H127  1  0.963300  0.247600  0.907800  1.0
  H  H128  1  0.963300  0.592200  0.247600  1.0
  H  H129  1  0.036700  0.747600  0.407800  1.0
  H  H130  1  0.036700  0.092200  0.747600  1.0
  H  H131  1  0.036700  0.752400  0.092200  1.0
  H  H132  1  0.036700  0.407800  0.752400  1.0
  H  H133  1  0.042500  0.257500  0.560300  1.0
  H  H134  1  0.042500  0.939700  0.257500  1.0
  H  H135  1  0.042500  0.242500  0.939700  1.0
  H  H136  1  0.042500  0.560300  0.242500  1.0
  H  H137  1  0.957500  0.742500  0.439700  1.0
  H  H138  1  0.957500  0.060300  0.742500  1.0
  H  H139  1  0.957500  0.757500  0.060300  1.0
  H  H140  1  0.957500  0.439700  0.757500  1.0
  H  H141  1  0.112200  0.294300  0.568900  1.0
  H  H142  1  0.112200  0.931100  0.294300  1.0
  H  H143  1  0.112200  0.205700  0.931100  1.0
  H  H144  1  0.112200  0.568900  0.205700  1.0
  H  H145  1  0.887800  0.705700  0.431100  1.0
  H  H146  1  0.887800  0.068900  0.705700  1.0
  H  H147  1  0.887800  0.794300  0.068900  1.0
  H  H148  1  0.887800  0.431100  0.794300  1.0
  H  H149  1  0.183000  0.336600  0.555100  1.0
  H  H150  1  0.183000  0.944900  0.336600  1.0
  H  H151  1  0.183000  0.163400  0.944900  1.0
  H  H152  1  0.183000  0.555100  0.163400  1.0
  H  H153  1  0.817000  0.663400  0.444900  1.0
  H  H154  1  0.817000  0.055100  0.663400  1.0
  H  H155  1  0.817000  0.836600  0.055100  1.0
  H  H156  1  0.817000  0.444900  0.836600  1.0
  H  H157  1  0.236700  0.244000  0.473300  1.0
  H  H158  1  0.236700  0.026700  0.244000  1.0
  H  H159  1  0.236700  0.256000  0.026700  1.0
  H  H160  1  0.236700  0.473300  0.256000  1.0
  H  H161  1  0.763300  0.756000  0.526700  1.0
  H  H162  1  0.763300  0.973300  0.756000  1.0
  H  H163  1  0.763300  0.744000  0.973300  1.0
  H  H164  1  0.763300  0.526700  0.744000  1.0
  H  H165  1  0.168900  0.197600  0.486800  1.0
  H  H166  1  0.168900  0.013200  0.197600  1.0
  H  H167  1  0.168900  0.302400  0.013200  1.0
  H  H168  1  0.168900  0.486800  0.302400  1.0
  H  H169  1  0.831100  0.802400  0.513200  1.0
  H  H170  1  0.831100  0.986800  0.802400  1.0
  H  H171  1  0.831100  0.697600  0.986800  1.0
  H  H172  1  0.831100  0.513200  0.697600  1.0
  H  H173  1  0.137300  0.086600  0.644700  1.0
  H  H174  1  0.137300  0.855300  0.086600  1.0
  H  H175  1  0.137300  0.413400  0.855300  1.0
  H  H176  1  0.137300  0.644700  0.413400  1.0
  H  H177  1  0.862700  0.913400  0.355300  1.0
  H  H178  1  0.862700  0.144700  0.913400  1.0
  H  H179  1  0.862700  0.586600  0.144700  1.0
  H  H180  1  0.862700  0.355300  0.586600  1.0
  H  H181  1  0.161500  0.040100  0.627300  1.0
  H  H182  1  0.161500  0.872700  0.040100  1.0
  H  H183  1  0.161500  0.459900  0.872700  1.0
  H  H184  1  0.161500  0.627300  0.459900  1.0
  H  H185  1  0.838500  0.959900  0.372700  1.0
  H  H186  1  0.838500  0.127300  0.959900  1.0
  H  H187  1  0.838500  0.540100  0.127300  1.0
  H  H188  1  0.838500  0.372700  0.540100  1.0
  H  H189  1  0.103600  0.041800  0.641900  1.0
  H  H190  1  0.103600  0.858100  0.041800  1.0
  H  H191  1  0.103600  0.458200  0.858100  1.0
  H  H192  1  0.103600  0.641900  0.458200  1.0
  H  H193  1  0.896400  0.958200  0.358100  1.0
  H  H194  1  0.896400  0.141900  0.958200  1.0
  H  H195  1  0.896400  0.541800  0.141900  1.0
  H  H196  1  0.896400  0.358100  0.541800  1.0
  H  H197  1  0.181800  0.050000  0.551800  1.0
  H  H198  1  0.181800  0.948200  0.050000  1.0
  H  H199  1  0.181800  0.450000  0.948200  1.0
  H  H200  1  0.181800  0.551800  0.450000  1.0
  H  H201  1  0.818200  0.950000  0.448200  1.0
  H  H202  1  0.818200  0.051800  0.950000  1.0
  H  H203  1  0.818200  0.550000  0.051800  1.0
  H  H204  1  0.818200  0.448200  0.550000  1.0
  H  H205  1  0.212900  0.004300  0.498100  1.0
  H  H206  1  0.212900  0.001900  0.004300  1.0
  H  H207  1  0.212900  0.495700  0.001900  1.0
  H  H208  1  0.212900  0.498100  0.495700  1.0
  H  H209  1  0.787100  0.995700  0.501900  1.0
  H  H210  1  0.787100  0.998100  0.995700  1.0
  H  H211  1  0.787100  0.504300  0.998100  1.0
  H  H212  1  0.787100  0.501900  0.504300  1.0
  H  H213  1  0.262800  0.981800  0.438000  1.0
  H  H214  1  0.262800  0.062000  0.981800  1.0
  H  H215  1  0.262800  0.518200  0.062000  1.0
  H  H216  1  0.262800  0.438000  0.518200  1.0
  H  H217  1  0.737200  0.018200  0.562000  1.0
  H  H218  1  0.737200  0.938000  0.018200  1.0
  H  H219  1  0.737200  0.481800  0.938000  1.0
  H  H220  1  0.737200  0.562000  0.481800  1.0
  H  H221  1  0.192200  0.064500  0.356000  1.0
  H  H222  1  0.192200  0.144000  0.064500  1.0
  H  H223  1  0.192200  0.435500  0.144000  1.0
  H  H224  1  0.192200  0.356000  0.435500  1.0
  H  H225  1  0.807800  0.935500  0.644000  1.0
  H  H226  1  0.807800  0.856000  0.935500  1.0
  H  H227  1  0.807800  0.564500  0.856000  1.0
  H  H228  1  0.807800  0.644000  0.564500  1.0
  H  H229  1  0.139600  0.087900  0.412700  1.0
  H  H230  1  0.139600  0.087300  0.087900  1.0
  H  H231  1  0.139600  0.412100  0.087300  1.0
  H  H232  1  0.139600  0.412700  0.412100  1.0
  H  H233  1  0.860400  0.912100  0.587300  1.0
  H  H234  1  0.860400  0.912700  0.912100  1.0
  H  H235  1  0.860400  0.587900  0.912700  1.0
  H  H236  1  0.860400  0.587300  0.587900  1.0
  H  H237  1  0.580600  0.597700  0.272400  1.0
  H  H238  1  0.580600  0.227600  0.597700  1.0
  H  H239  1  0.580600  0.902300  0.227600  1.0
  H  H240  1  0.580600  0.272400  0.902300  1.0
  H  H241  1  0.419400  0.402300  0.727600  1.0
  H  H242  1  0.419400  0.772400  0.402300  1.0
  H  H243  1  0.419400  0.097700  0.772400  1.0
  H  H244  1  0.419400  0.727600  0.097700  1.0
  H  H245  1  0.613200  0.559800  0.247200  1.0
  H  H246  1  0.613200  0.252800  0.559800  1.0
  H  H247  1  0.613200  0.940200  0.252800  1.0
  H  H248  1  0.613200  0.247200  0.940200  1.0
  H  H249  1  0.386800  0.440200  0.752800  1.0
  H  H250  1  0.386800  0.747200  0.440200  1.0
  H  H251  1  0.386800  0.059800  0.747200  1.0
  H  H252  1  0.386800  0.752800  0.059800  1.0
  H  H253  1  0.635100  0.584500  0.291200  1.0
  H  H254  1  0.635100  0.208800  0.584500  1.0
  H  H255  1  0.635100  0.915500  0.208800  1.0
  H  H256  1  0.635100  0.291200  0.915500  1.0
  H  H257  1  0.364900  0.415500  0.708800  1.0
  H  H258  1  0.364900  0.791200  0.415500  1.0
  H  H259  1  0.364900  0.084500  0.791200  1.0
  H  H260  1  0.364900  0.708800  0.084500  1.0
  H  H261  1  0.589800  0.486200  0.260900  1.0
  H  H262  1  0.589800  0.239100  0.486200  1.0
  H  H263  1  0.589800  0.013800  0.239100  1.0
  H  H264  1  0.589800  0.260900  0.013800  1.0
  H  H265  1  0.410200  0.513800  0.739100  1.0
  H  H266  1  0.410200  0.760900  0.513800  1.0
  H  H267  1  0.410200  0.986200  0.760900  1.0
  H  H268  1  0.410200  0.739100  0.986200  1.0
  H  H269  1  0.496700  0.390500  0.333333  1.0
  H  H270  1  0.496700  0.166667  0.390500  1.0
  H  H271  1  0.496700  0.109500  0.166667  1.0
  H  H272  1  0.496700  0.333333  0.109500  1.0
  H  H273  1  0.503300  0.609500  0.666667  1.0
  H  H274  1  0.503300  0.833333  0.609500  1.0
  H  H275  1  0.503300  0.890500  0.833333  1.0
  H  H276  1  0.503300  0.666667  0.890500  1.0
  H  H277  1  0.497100  0.316600  0.308100  1.0
  H  H278  1  0.497100  0.191900  0.316600  1.0
  H  H279  1  0.497100  0.183400  0.191900  1.0
  H  H280  1  0.497100  0.308100  0.183400  1.0
  H  H281  1  0.502900  0.683400  0.691900  1.0
  H  H282  1  0.502900  0.808100  0.683400  1.0
  H  H283  1  0.502900  0.816600  0.808100  1.0
  H  H284  1  0.502900  0.691900  0.816600  1.0
  H  H285  1  0.616800  0.339500  0.233400  1.0
  H  H286  1  0.616800  0.266600  0.339500  1.0
  H  H287  1  0.616800  0.160500  0.266600  1.0
  H  H288  1  0.616800  0.233400  0.160500  1.0
  H  H289  1  0.383200  0.660500  0.766600  1.0
  H  H290  1  0.383200  0.733400  0.660500  1.0
  H  H291  1  0.383200  0.839500  0.733400  1.0
  H  H292  1  0.383200  0.766600  0.839500  1.0
  H  H293  1  0.618300  0.414800  0.255500  1.0
  H  H294  1  0.618300  0.244500  0.414800  1.0
  H  H295  1  0.618300  0.085200  0.244500  1.0
  H  H296  1  0.618300  0.255500  0.085200  1.0
  H  H297  1  0.381700  0.585200  0.744500  1.0
  H  H298  1  0.381700  0.755500  0.585200  1.0
  H  H299  1  0.381700  0.914800  0.755500  1.0
  H  H300  1  0.381700  0.744500  0.914800  1.0
  H  H301  1  0.627300  0.444900  0.479300  1.0
  H  H302  1  0.627300  0.020700  0.444900  1.0
  H  H303  1  0.627300  0.055100  0.020700  1.0
  H  H304  1  0.627300  0.479300  0.055100  1.0
  H  H305  1  0.372700  0.555100  0.520700  1.0
  H  H306  1  0.372700  0.979300  0.555100  1.0
  H  H307  1  0.372700  0.944900  0.979300  1.0
  H  H308  1  0.372700  0.520700  0.944900  1.0
  H  H309  1  0.600500  0.467500  0.522200  1.0
  H  H310  1  0.600500  0.977800  0.467500  1.0
  H  H311  1  0.600500  0.032500  0.977800  1.0
  H  H312  1  0.600500  0.522200  0.032500  1.0
  H  H313  1  0.399500  0.532500  0.477800  1.0
  H  H314  1  0.399500  0.022200  0.532500  1.0
  H  H315  1  0.399500  0.967500  0.022200  1.0
  H  H316  1  0.399500  0.477800  0.967500  1.0
  H  H317  1  0.631100  0.498400  0.487200  1.0
  H  H318  1  0.631100  0.012800  0.498400  1.0
  H  H319  1  0.631100  0.001600  0.012800  1.0
  H  H320  1  0.631100  0.487200  0.001600  1.0
  H  H321  1  0.368900  0.501600  0.512800  1.0
  H  H322  1  0.368900  0.987200  0.501600  1.0
  H  H323  1  0.368900  0.998400  0.987200  1.0
  H  H324  1  0.368900  0.512800  0.998400  1.0
  H  H325  1  0.525300  0.425600  0.491500  1.0
  H  H326  1  0.525300  0.008500  0.425600  1.0
  H  H327  1  0.525300  0.074400  0.008500  1.0
  H  H328  1  0.525300  0.491500  0.074400  1.0
  H  H329  1  0.474700  0.574400  0.508500  1.0
  H  H330  1  0.474700  0.991500  0.574400  1.0
  H  H331  1  0.474700  0.925600  0.991500  1.0
  H  H332  1  0.474700  0.508500  0.925600  1.0
  H  H333  1  0.453800  0.404700  0.525400  1.0
  H  H334  1  0.453800  0.974600  0.404700  1.0
  H  H335  1  0.453800  0.095300  0.974600  1.0
  H  H336  1  0.453800  0.525400  0.095300  1.0
  H  H337  1  0.546200  0.595300  0.474600  1.0
  H  H338  1  0.546200  0.025400  0.595300  1.0
  H  H339  1  0.546200  0.904700  0.025400  1.0
  H  H340  1  0.546200  0.474600  0.904700  1.0
  H  H341  1  0.382100  0.364600  0.541900  1.0
  H  H342  1  0.382100  0.958100  0.364600  1.0
  H  H343  1  0.382100  0.135400  0.958100  1.0
  H  H344  1  0.382100  0.541900  0.135400  1.0
  H  H345  1  0.617900  0.635400  0.458100  1.0
  H  H346  1  0.617900  0.041900  0.635400  1.0
  H  H347  1  0.617900  0.864600  0.041900  1.0
  H  H348  1  0.617900  0.458100  0.864600  1.0
  H  H349  1  0.322200  0.397000  0.424000  1.0
  H  H350  1  0.322200  0.076000  0.397000  1.0
  H  H351  1  0.322200  0.103000  0.076000  1.0
  H  H352  1  0.322200  0.424000  0.103000  1.0
  H  H353  1  0.677800  0.603000  0.576000  1.0
  H  H354  1  0.677800  0.924000  0.603000  1.0
  H  H355  1  0.677800  0.897000  0.924000  1.0
  H  H356  1  0.677800  0.576000  0.897000  1.0
  H  H357  1  0.391900  0.439400  0.404800  1.0
  H  H358  1  0.391900  0.095200  0.439400  1.0
  H  H359  1  0.391900  0.060600  0.095200  1.0
  H  H360  1  0.391900  0.404800  0.060600  1.0
  H  H361  1  0.608100  0.560600  0.595200  1.0
  H  H362  1  0.608100  0.904800  0.560600  1.0
  H  H363  1  0.608100  0.939400  0.904800  1.0
  H  H364  1  0.608100  0.595200  0.939400  1.0
  H  H365  1  0.407600  0.051800  0.628600  1.0
  H  H366  1  0.407600  0.871400  0.051800  1.0
  H  H367  1  0.407600  0.448200  0.871400  1.0
  H  H368  1  0.407600  0.628600  0.448200  1.0
  H  H369  1  0.592400  0.948200  0.371400  1.0
  H  H370  1  0.592400  0.128600  0.948200  1.0
  H  H371  1  0.592400  0.551800  0.128600  1.0
  H  H372  1  0.592400  0.371400  0.551800  1.0
  H  H373  1  0.420800  0.092500  0.662400  1.0
  H  H374  1  0.420800  0.837600  0.092500  1.0
  H  H375  1  0.420800  0.407500  0.837600  1.0
  H  H376  1  0.420800  0.662400  0.407500  1.0
  H  H377  1  0.579200  0.907500  0.337600  1.0
  H  H378  1  0.579200  0.162400  0.907500  1.0
  H  H379  1  0.579200  0.592500  0.162400  1.0
  H  H380  1  0.579200  0.337600  0.592500  1.0
  H  H381  1  0.463400  0.057000  0.648200  1.0
  H  H382  1  0.463400  0.851800  0.057000  1.0
  H  H383  1  0.463400  0.443000  0.851800  1.0
  H  H384  1  0.463400  0.648200  0.443000  1.0
  H  H385  1  0.536600  0.943000  0.351800  1.0
  H  H386  1  0.536600  0.148200  0.943000  1.0
  H  H387  1  0.536600  0.557000  0.148200  1.0
  H  H388  1  0.536600  0.351800  0.557000  1.0
  H  H389  1  0.384100  0.140100  0.600500  1.0
  H  H390  1  0.384100  0.899500  0.140100  1.0
  H  H391  1  0.384100  0.359900  0.899500  1.0
  H  H392  1  0.384100  0.600500  0.359900  1.0
  H  H393  1  0.615900  0.859900  0.399500  1.0
  H  H394  1  0.615900  0.100500  0.859900  1.0
  H  H395  1  0.615900  0.640100  0.100500  1.0
  H  H396  1  0.615900  0.399500  0.640100  1.0
  H  H397  1  0.344500  0.202600  0.595200  1.0
  H  H398  1  0.344500  0.904800  0.202600  1.0
  H  H399  1  0.344500  0.297400  0.904800  1.0
  H  H400  1  0.344500  0.595200  0.297400  1.0
  H  H401  1  0.655500  0.797400  0.404800  1.0
  H  H402  1  0.655500  0.095200  0.797400  1.0
  H  H403  1  0.655500  0.702600  0.095200  1.0
  H  H404  1  0.655500  0.404800  0.702600  1.0
  H  H405  1  0.296300  0.264800  0.576100  1.0
  H  H406  1  0.296300  0.923900  0.264800  1.0
  H  H407  1  0.296300  0.235200  0.923900  1.0
  H  H408  1  0.296300  0.576100  0.235200  1.0
  H  H409  1  0.703700  0.735200  0.423900  1.0
  H  H410  1  0.703700  0.076100  0.735200  1.0
  H  H411  1  0.703700  0.764800  0.076100  1.0
  H  H412  1  0.703700  0.423900  0.764800  1.0
  H  H413  1  0.371900  0.283000  0.463600  1.0
  H  H414  1  0.371900  0.036400  0.283000  1.0
  H  H415  1  0.371900  0.217000  0.036400  1.0
  H  H416  1  0.371900  0.463600  0.217000  1.0
  H  H417  1  0.628100  0.717000  0.536400  1.0
  H  H418  1  0.628100  0.963600  0.717000  1.0
  H  H419  1  0.628100  0.783000  0.963600  1.0
  H  H420  1  0.628100  0.536400  0.783000  1.0
  H  H421  1  0.425600  0.224400  0.481700  1.0
  H  H422  1  0.425600  0.018300  0.224400  1.0
  H  H423  1  0.425600  0.275600  0.018300  1.0
  H  H424  1  0.425600  0.481700  0.275600  1.0
  H  H425  1  0.574400  0.775600  0.518300  1.0
  H  H426  1  0.574400  0.981700  0.775600  1.0
  H  H427  1  0.574400  0.724400  0.981700  1.0
  H  H428  1  0.574400  0.518300  0.724400  1.0
  C  C429  1  0.118400  0.250000  0.250000  1
  C  C430  1  0.881600  0.750000  0.750000  1
  C  C431  1  0.438100  0.250000  0.250000  1
  C  C432  1  0.561900  0.750000  0.750000  1
  C  C433  1  0.435300  0.338000  0.642600  1
  C  C434  1  0.435300  0.857400  0.338000  1
  C  C435  1  0.435300  0.162000  0.857400  1
  C  C436  1  0.435300  0.642600  0.162000  1
  C  C437  1  0.564700  0.662000  0.357400  1
  C  C438  1  0.564700  0.142600  0.662000  1
  C  C439  1  0.564700  0.838000  0.142600  1
  C  C440  1  0.564700  0.357400  0.838000  1
  C  C441  1  0.288400  0.303900  0.395600  1
  C  C442  1  0.288400  0.104400  0.303900  1
  C  C443  1  0.288400  0.196100  0.104400  1
  C  C444  1  0.288400  0.395600  0.196100  1
  C  C445  1  0.711600  0.696100  0.604400  1
  C  C446  1  0.711600  0.895600  0.696100  1
  C  C447  1  0.711600  0.803900  0.895600  1
  C  C448  1  0.711600  0.604400  0.803900  1
  C  C449  1  0.936000  0.023600  0.478000  1.0
  C  C450  1  0.936000  0.022000  0.023600  1.0
  C  C451  1  0.936000  0.476400  0.022000  1.0
  C  C452  1  0.936000  0.478000  0.476400  1.0
  C  C453  1  0.064000  0.976400  0.522000  1.0
  C  C454  1  0.064000  0.978000  0.976400  1.0
  C  C455  1  0.064000  0.523600  0.978000  1.0
  C  C456  1  0.064000  0.522000  0.523600  1.0
  C  C457  1  0.968600  0.065510  0.476400  1.0
  C  C458  1  0.968600  0.023600  0.065510  1.0
  C  C459  1  0.968600  0.434490  0.023600  1.0
  C  C460  1  0.968600  0.476400  0.434490  1.0
  C  C461  1  0.031400  0.934490  0.523600  1.0
  C  C462  1  0.031400  0.976400  0.934490  1.0
  C  C463  1  0.031400  0.565510  0.976400  1.0
  C  C464  1  0.031400  0.523600  0.565510  1.0
  C  C465  1  0.971900  0.090600  0.436100  1.0
  C  C466  1  0.971900  0.063900  0.090600  1.0
  C  C467  1  0.971900  0.409400  0.063900  1.0
  C  C468  1  0.971900  0.436100  0.409400  1.0
  C  C469  1  0.028100  0.909400  0.563900  1.0
  C  C470  1  0.028100  0.936100  0.909400  1.0
  C  C471  1  0.028100  0.590600  0.936100  1.0
  C  C472  1  0.028100  0.563900  0.590600  1.0
  C  C473  1  0.997500  0.130560  0.432000  1.0
  C  C474  1  0.997500  0.068000  0.130560  1.0
  C  C475  1  0.997500  0.369440  0.068000  1.0
  C  C476  1  0.997500  0.432000  0.369440  1.0
  C  C477  1  0.002500  0.869440  0.568000  1.0
  C  C478  1  0.002500  0.932000  0.869440  1.0
  C  C479  1  0.002500  0.630560  0.932000  1.0
  C  C480  1  0.002500  0.568000  0.630560  1.0
  C  C481  1  0.997000  0.156280  0.388900  1.0
  C  C482  1  0.997000  0.111100  0.156280  1.0
  C  C483  1  0.997000  0.343720  0.111100  1.0
  C  C484  1  0.997000  0.388900  0.343720  1.0
  C  C485  1  0.003000  0.843720  0.611100  1.0
  C  C486  1  0.003000  0.888900  0.843720  1.0
  C  C487  1  0.003000  0.656280  0.888900  1.0
  C  C488  1  0.003000  0.611100  0.656280  1.0
  C  C489  1  0.962800  0.149200  0.354400  1.0
  C  C490  1  0.962800  0.145600  0.149200  1.0
  C  C491  1  0.962800  0.350800  0.145600  1.0
  C  C492  1  0.962800  0.354400  0.350800  1.0
  C  C493  1  0.037200  0.850800  0.645600  1.0
  C  C494  1  0.037200  0.854400  0.850800  1.0
  C  C495  1  0.037200  0.649200  0.854400  1.0
  C  C496  1  0.037200  0.645600  0.649200  1.0
  C  C497  1  0.965100  0.175800  0.316300  1.0
  C  C498  1  0.965100  0.183700  0.175800  1.0
  C  C499  1  0.965100  0.324200  0.183700  1.0
  C  C500  1  0.965100  0.316300  0.324200  1.0
  C  C501  1  0.034900  0.824200  0.683700  1.0
  C  C502  1  0.034900  0.816300  0.824200  1.0
  C  C503  1  0.034900  0.675800  0.816300  1.0
  C  C504  1  0.034900  0.683700  0.675800  1.0
  C  C505  1  0.031000  0.215800  0.342500  1.0
  C  C506  1  0.031000  0.157500  0.215800  1.0
  C  C507  1  0.031000  0.284200  0.157500  1.0
  C  C508  1  0.031000  0.342500  0.284200  1.0
  C  C509  1  0.969000  0.784200  0.657500  1.0
  C  C510  1  0.969000  0.842500  0.784200  1.0
  C  C511  1  0.969000  0.715800  0.842500  1.0
  C  C512  1  0.969000  0.657500  0.715800  1.0
  C  C513  1  0.032000  0.190900  0.382700  1.0
  C  C514  1  0.032000  0.117300  0.190900  1.0
  C  C515  1  0.032000  0.309100  0.117300  1.0
  C  C516  1  0.032000  0.382700  0.309100  1.0
  C  C517  1  0.968000  0.809100  0.617300  1.0
  C  C518  1  0.968000  0.882700  0.809100  1.0
  C  C519  1  0.968000  0.690900  0.882700  1.0
  C  C520  1  0.968000  0.617300  0.690900  1.0
  C  C521  1  0.958300  0.219600  0.589600  1.0
  C  C522  1  0.958300  0.910400  0.219600  1.0
  C  C523  1  0.958300  0.280400  0.910400  1.0
  C  C524  1  0.958300  0.589600  0.280400  1.0
  C  C525  1  0.041700  0.780400  0.410400  1.0
  C  C526  1  0.041700  0.089600  0.780400  1.0
  C  C527  1  0.041700  0.719600  0.089600  1.0
  C  C528  1  0.041700  0.410400  0.719600  1.0
  C  C529  1  0.003900  0.198300  0.567000  1.0
  C  C530  1  0.003900  0.933000  0.198300  1.0
  C  C531  1  0.003900  0.301700  0.933000  1.0
  C  C532  1  0.003900  0.567000  0.301700  1.0
  C  C533  1  0.996100  0.801700  0.433000  1.0
  C  C534  1  0.996100  0.067000  0.801700  1.0
  C  C535  1  0.996100  0.698300  0.067000  1.0
  C  C536  1  0.996100  0.433000  0.698300  1.0
  C  C537  1  0.045300  0.225800  0.555700  1.0
  C  C538  1  0.045300  0.944300  0.225800  1.0
  C  C539  1  0.045300  0.274200  0.944300  1.0
  C  C540  1  0.045300  0.555700  0.274200  1.0
  C  C541  1  0.954700  0.774200  0.444300  1.0
  C  C542  1  0.954700  0.055700  0.774200  1.0
  C  C543  1  0.954700  0.725800  0.055700  1.0
  C  C544  1  0.954700  0.444300  0.725800  1.0
  C  C545  1  0.089490  0.209410  0.538340  1.0
  C  C546  1  0.089490  0.961660  0.209410  1.0
  C  C547  1  0.089490  0.290590  0.961660  1.0
  C  C548  1  0.089490  0.538340  0.290590  1.0
  C  C549  1  0.910510  0.790590  0.461660  1.0
  C  C550  1  0.910510  0.038340  0.790590  1.0
  C  C551  1  0.910510  0.709410  0.038340  1.0
  C  C552  1  0.910510  0.461660  0.709410  1.0
  C  C553  1  0.132770  0.240200  0.530130  1.0
  C  C554  1  0.132770  0.969870  0.240200  1.0
  C  C555  1  0.132770  0.259800  0.969870  1.0
  C  C556  1  0.132770  0.530130  0.259800  1.0
  C  C557  1  0.867230  0.759800  0.469870  1.0
  C  C558  1  0.867230  0.030130  0.759800  1.0
  C  C559  1  0.867230  0.740200  0.030130  1.0
  C  C560  1  0.867230  0.469870  0.740200  1.0
  C  C561  1  0.137720  0.282780  0.549560  1.0
  C  C562  1  0.137720  0.950440  0.282780  1.0
  C  C563  1  0.137720  0.217220  0.950440  1.0
  C  C564  1  0.137720  0.549560  0.217220  1.0
  C  C565  1  0.862280  0.717220  0.450440  1.0
  C  C566  1  0.862280  0.049560  0.717220  1.0
  C  C567  1  0.862280  0.782780  0.049560  1.0
  C  C568  1  0.862280  0.450440  0.782780  1.0
  C  C569  1  0.179650  0.308000  0.540670  1.0
  C  C570  1  0.179650  0.959330  0.308000  1.0
  C  C571  1  0.179650  0.192000  0.959330  1.0
  C  C572  1  0.179650  0.540670  0.192000  1.0
  C  C573  1  0.820350  0.692000  0.459330  1.0
  C  C574  1  0.820350  0.040670  0.692000  1.0
  C  C575  1  0.820350  0.808000  0.040670  1.0
  C  C576  1  0.820350  0.459330  0.808000  1.0
  C  C577  1  0.211170  0.254100  0.493370  1.0
  C  C578  1  0.211170  0.006630  0.254100  1.0
  C  C579  1  0.211170  0.245900  0.006630  1.0
  C  C580  1  0.211170  0.493370  0.245900  1.0
  C  C581  1  0.788830  0.745900  0.506630  1.0
  C  C582  1  0.788830  0.993370  0.745900  1.0
  C  C583  1  0.788830  0.754100  0.993370  1.0
  C  C584  1  0.788830  0.506630  0.754100  1.0
  C  C585  1  0.170780  0.226320  0.501190  1.0
  C  C586  1  0.170780  0.998810  0.226320  1.0
  C  C587  1  0.170780  0.273680  0.998810  1.0
  C  C588  1  0.170780  0.501190  0.273680  1.0
  C  C589  1  0.829220  0.773680  0.498810  1.0
  C  C590  1  0.829220  0.001190  0.773680  1.0
  C  C591  1  0.829220  0.726320  0.001190  1.0
  C  C592  1  0.829220  0.498810  0.726320  1.0
  C  C593  1  0.131000  0.058700  0.627580  1.0
  C  C594  1  0.131000  0.872420  0.058700  1.0
  C  C595  1  0.131000  0.441300  0.872420  1.0
  C  C596  1  0.131000  0.627580  0.441300  1.0
  C  C597  1  0.869000  0.941300  0.372420  1.0
  C  C598  1  0.869000  0.127580  0.941300  1.0
  C  C599  1  0.869000  0.558700  0.127580  1.0
  C  C600  1  0.869000  0.372420  0.558700  1.0
  C  C601  1  0.116500  0.070590  0.579400  1.0
  C  C602  1  0.116500  0.920600  0.070590  1.0
  C  C603  1  0.116500  0.429410  0.920600  1.0
  C  C604  1  0.116500  0.579400  0.429410  1.0
  C  C605  1  0.883500  0.929410  0.420600  1.0
  C  C606  1  0.883500  0.079400  0.929410  1.0
  C  C607  1  0.883500  0.570590  0.079400  1.0
  C  C608  1  0.883500  0.420600  0.570590  1.0
  C  C609  1  0.149230  0.060770  0.544520  1.0
  C  C610  1  0.149230  0.955480  0.060770  1.0
  C  C611  1  0.149230  0.439230  0.955480  1.0
  C  C612  1  0.149230  0.544520  0.439230  1.0
  C  C613  1  0.850770  0.939230  0.455480  1.0
  C  C614  1  0.850770  0.044520  0.939230  1.0
  C  C615  1  0.850770  0.560770  0.044520  1.0
  C  C616  1  0.850770  0.455480  0.560770  1.0
  C  C617  1  0.136490  0.066020  0.499010  1.0
  C  C618  1  0.136490  0.000990  0.066020  1.0
  C  C619  1  0.136490  0.433980  0.000990  1.0
  C  C620  1  0.136490  0.499010  0.433980  1.0
  C  C621  1  0.863510  0.933980  0.500990  1.0
  C  C622  1  0.863510  0.999010  0.933980  1.0
  C  C623  1  0.863510  0.566020  0.999010  1.0
  C  C624  1  0.863510  0.500990  0.566020  1.0
  C  C625  1  0.170930  0.049590  0.462640  1.0
  C  C626  1  0.170930  0.037360  0.049590  1.0
  C  C627  1  0.170930  0.450410  0.037360  1.0
  C  C628  1  0.170930  0.462640  0.450410  1.0
  C  C629  1  0.829070  0.950410  0.537360  1.0
  C  C630  1  0.829070  0.962640  0.950410  1.0
  C  C631  1  0.829070  0.549590  0.962640  1.0
  C  C632  1  0.829070  0.537360  0.549590  1.0
  C  C633  1  0.207900  0.017290  0.469060  1.0
  C  C634  1  0.207900  0.030940  0.017290  1.0
  C  C635  1  0.207900  0.482710  0.030940  1.0
  C  C636  1  0.207900  0.469060  0.482710  1.0
  C  C637  1  0.792100  0.982710  0.530940  1.0
  C  C638  1  0.792100  0.969060  0.982710  1.0
  C  C639  1  0.792100  0.517290  0.969060  1.0
  C  C640  1  0.792100  0.530940  0.517290  1.0
  C  C641  1  0.237600  0.004000  0.432950  1.0
  C  C642  1  0.237600  0.067050  0.004000  1.0
  C  C643  1  0.237600  0.496000  0.067050  1.0
  C  C644  1  0.237600  0.432950  0.496000  1.0
  C  C645  1  0.762400  0.996000  0.567050  1.0
  C  C646  1  0.762400  0.932950  0.996000  1.0
  C  C647  1  0.762400  0.504000  0.932950  1.0
  C  C648  1  0.762400  0.567050  0.504000  1.0
  C  C649  1  0.196300  0.051900  0.385360  1.0
  C  C650  1  0.196300  0.114640  0.051900  1.0
  C  C651  1  0.196300  0.448100  0.114640  1.0
  C  C652  1  0.196300  0.385360  0.448100  1.0
  C  C653  1  0.803700  0.948100  0.614640  1.0
  C  C654  1  0.803700  0.885360  0.948100  1.0
  C  C655  1  0.803700  0.551900  0.885360  1.0
  C  C656  1  0.803700  0.614640  0.551900  1.0
  C  C657  1  0.165130  0.066410  0.419050  1.0
  C  C658  1  0.165130  0.080950  0.066410  1.0
  C  C659  1  0.165130  0.433590  0.080950  1.0
  C  C660  1  0.165130  0.419050  0.433590  1.0
  C  C661  1  0.834870  0.933590  0.580950  1.0
  C  C662  1  0.834870  0.919050  0.933590  1.0
  C  C663  1  0.834870  0.566410  0.919050  1.0
  C  C664  1  0.834870  0.580950  0.566410  1.0
  C  C665  1  0.604600  0.572900  0.276700  1.0
  C  C666  1  0.604600  0.223300  0.572900  1.0
  C  C667  1  0.604600  0.927100  0.223300  1.0
  C  C668  1  0.604600  0.276700  0.927100  1.0
  C  C669  1  0.395400  0.427100  0.723300  1.0
  C  C670  1  0.395400  0.776700  0.427100  1.0
  C  C671  1  0.395400  0.072900  0.776700  1.0
  C  C672  1  0.395400  0.723300  0.072900  1.0
  C  C673  1  0.581600  0.537400  0.305880  1.0
  C  C674  1  0.581600  0.194120  0.537400  1.0
  C  C675  1  0.581600  0.962600  0.194120  1.0
  C  C676  1  0.581600  0.305880  0.962600  1.0
  C  C677  1  0.418400  0.462600  0.694120  1.0
  C  C678  1  0.418400  0.805880  0.462600  1.0
  C  C679  1  0.418400  0.037400  0.805880  1.0
  C  C680  1  0.418400  0.694120  0.037400  1.0
  C  C681  1  0.577700  0.492900  0.290440  1.0
  C  C682  1  0.577700  0.209560  0.492900  1.0
  C  C683  1  0.577700  0.007100  0.209560  1.0
  C  C684  1  0.577700  0.290440  0.007100  1.0
  C  C685  1  0.422300  0.507100  0.709560  1.0
  C  C686  1  0.422300  0.790440  0.507100  1.0
  C  C687  1  0.422300  0.992900  0.790440  1.0
  C  C688  1  0.422300  0.709560  0.992900  1.0
  C  C689  1  0.557350  0.457960  0.315550  1.0
  C  C690  1  0.557350  0.184450  0.457960  1.0
  C  C691  1  0.557350  0.042040  0.184450  1.0
  C  C692  1  0.557350  0.315550  0.042040  1.0
  C  C693  1  0.442650  0.542040  0.684450  1.0
  C  C694  1  0.442650  0.815550  0.542040  1.0
  C  C695  1  0.442650  0.957960  0.815550  1.0
  C  C696  1  0.442650  0.684450  0.957960  1.0
  C  C697  1  0.558330  0.410340  0.297690  1.0
  C  C698  1  0.558330  0.202310  0.410340  1.0
  C  C699  1  0.558330  0.089660  0.202310  1.0
  C  C700  1  0.558330  0.297690  0.089660  1.0
  C  C701  1  0.441670  0.589660  0.702310  1.0
  C  C702  1  0.441670  0.797690  0.589660  1.0
  C  C703  1  0.441670  0.910340  0.797690  1.0
  C  C704  1  0.441670  0.702310  0.910340  1.0
  C  C705  1  0.521800  0.380640  0.312750  1.0
  C  C706  1  0.521800  0.187250  0.380640  1.0
  C  C707  1  0.521800  0.119360  0.187250  1.0
  C  C708  1  0.521800  0.312750  0.119360  1.0
  C  C709  1  0.478200  0.619360  0.687250  1.0
  C  C710  1  0.478200  0.812750  0.619360  1.0
  C  C711  1  0.478200  0.880640  0.812750  1.0
  C  C712  1  0.478200  0.687250  0.880640  1.0
  C  C713  1  0.522400  0.336720  0.297650  1.0
  C  C714  1  0.522400  0.202350  0.336720  1.0
  C  C715  1  0.522400  0.163280  0.202350  1.0
  C  C716  1  0.522400  0.297650  0.163280  1.0
  C  C717  1  0.477600  0.663280  0.702350  1.0
  C  C718  1  0.477600  0.797650  0.663280  1.0
  C  C719  1  0.477600  0.836720  0.797650  1.0
  C  C720  1  0.477600  0.702350  0.836720  1.0
  C  C721  1  0.591900  0.349990  0.254000  1.0
  C  C722  1  0.591900  0.246000  0.349990  1.0
  C  C723  1  0.591900  0.150010  0.246000  1.0
  C  C724  1  0.591900  0.254000  0.150010  1.0
  C  C725  1  0.408100  0.650010  0.746000  1.0
  C  C726  1  0.408100  0.754000  0.650010  1.0
  C  C727  1  0.408100  0.849990  0.754000  1.0
  C  C728  1  0.408100  0.746000  0.849990  1.0
  C  C729  1  0.593500  0.394930  0.267220  1.0
  C  C730  1  0.593500  0.232780  0.394930  1.0
  C  C731  1  0.593500  0.105070  0.232780  1.0
  C  C732  1  0.593500  0.267220  0.105070  1.0
  C  C733  1  0.406500  0.605070  0.732780  1.0
  C  C734  1  0.406500  0.767220  0.605070  1.0
  C  C735  1  0.406500  0.894930  0.767220  1.0
  C  C736  1  0.406500  0.732780  0.894930  1.0
  C  C737  1  0.609430  0.471730  0.490310  1.0
  C  C738  1  0.609430  0.009690  0.471730  1.0
  C  C739  1  0.609430  0.028270  0.009690  1.0
  C  C740  1  0.609430  0.490310  0.028270  1.0
  C  C741  1  0.390570  0.528270  0.509690  1.0
  C  C742  1  0.390570  0.990310  0.528270  1.0
  C  C743  1  0.390570  0.971730  0.990310  1.0
  C  C744  1  0.390570  0.509690  0.971730  1.0
  C  C745  1  0.562470  0.478530  0.462960  1.0
  C  C746  1  0.562470  0.037040  0.478530  1.0
  C  C747  1  0.562470  0.021470  0.037040  1.0
  C  C748  1  0.562470  0.462960  0.021470  1.0
  C  C749  1  0.437530  0.521470  0.537040  1.0
  C  C750  1  0.437530  0.962960  0.521470  1.0
  C  C751  1  0.437530  0.978530  0.962960  1.0
  C  C752  1  0.437530  0.537040  0.978530  1.0
  C  C753  1  0.521180  0.450090  0.470930  1.0
  C  C754  1  0.521180  0.029070  0.450090  1.0
  C  C755  1  0.521180  0.049910  0.029070  1.0
  C  C756  1  0.521180  0.470930  0.049910  1.0
  C  C757  1  0.478820  0.549910  0.529070  1.0
  C  C758  1  0.478820  0.970930  0.549910  1.0
  C  C759  1  0.478820  0.950090  0.970930  1.0
  C  C760  1  0.478820  0.529070  0.950090  1.0
  C  C761  1  0.474900  0.455600  0.450560  1.0
  C  C762  1  0.474900  0.049440  0.455600  1.0
  C  C763  1  0.474900  0.044400  0.049440  1.0
  C  C764  1  0.474900  0.450560  0.044400  1.0
  C  C765  1  0.525100  0.544400  0.549440  1.0
  C  C766  1  0.525100  0.950560  0.544400  1.0
  C  C767  1  0.525100  0.955600  0.950560  1.0
  C  C768  1  0.525100  0.549440  0.955600  1.0
  C  C769  1  0.431420  0.427040  0.462870  1.0
  C  C770  1  0.431420  0.037130  0.427040  1.0
  C  C771  1  0.431420  0.072960  0.037130  1.0
  C  C772  1  0.431420  0.462870  0.072960  1.0
  C  C773  1  0.568580  0.572960  0.537130  1.0
  C  C774  1  0.568580  0.962870  0.572960  1.0
  C  C775  1  0.568580  0.927040  0.962870  1.0
  C  C776  1  0.568580  0.537130  0.927040  1.0
  C  C777  1  0.427110  0.403790  0.504030  1.0
  C  C778  1  0.427110  0.995970  0.403790  1.0
  C  C779  1  0.427110  0.096210  0.995970  1.0
  C  C780  1  0.427110  0.504030  0.096210  1.0
  C  C781  1  0.572890  0.596210  0.495970  1.0
  C  C782  1  0.572890  0.004030  0.596210  1.0
  C  C783  1  0.572890  0.903790  0.004030  1.0
  C  C784  1  0.572890  0.495970  0.903790  1.0
  C  C785  1  0.384540  0.379700  0.513530  1.0
  C  C786  1  0.384540  0.986470  0.379700  1.0
  C  C787  1  0.384540  0.120300  0.986470  1.0
  C  C788  1  0.384540  0.513530  0.120300  1.0
  C  C789  1  0.615460  0.620300  0.486470  1.0
  C  C790  1  0.615460  0.013530  0.620300  1.0
  C  C791  1  0.615460  0.879700  0.013530  1.0
  C  C792  1  0.615460  0.486470  0.879700  1.0
  C  C793  1  0.349370  0.398740  0.444730  1.0
  C  C794  1  0.349370  0.055270  0.398740  1.0
  C  C795  1  0.349370  0.101260  0.055270  1.0
  C  C796  1  0.349370  0.444730  0.101260  1.0
  C  C797  1  0.650630  0.601260  0.555270  1.0
  C  C798  1  0.650630  0.944730  0.601260  1.0
  C  C799  1  0.650630  0.898740  0.944730  1.0
  C  C800  1  0.650630  0.555270  0.898740  1.0
  C  C801  1  0.390900  0.424070  0.433050  1.0
  C  C802  1  0.390900  0.066950  0.424070  1.0
  C  C803  1  0.390900  0.075930  0.066950  1.0
  C  C804  1  0.390900  0.433050  0.075930  1.0
  C  C805  1  0.609100  0.575930  0.566950  1.0
  C  C806  1  0.609100  0.933050  0.575930  1.0
  C  C807  1  0.609100  0.924070  0.933050  1.0
  C  C808  1  0.609100  0.566950  0.924070  1.0
  C  C809  1  0.433600  0.073480  0.637800  1.0
  C  C810  1  0.433600  0.862200  0.073480  1.0
  C  C811  1  0.433600  0.426520  0.862200  1.0
  C  C812  1  0.433600  0.637800  0.426520  1.0
  C  C813  1  0.566400  0.926520  0.362200  1.0
  C  C814  1  0.566400  0.137800  0.926520  1.0
  C  C815  1  0.566400  0.573480  0.137800  1.0
  C  C816  1  0.566400  0.362200  0.573480  1.0
  C  C817  1  0.447400  0.102890  0.598060  1.0
  C  C818  1  0.447400  0.901940  0.102890  1.0
  C  C819  1  0.447400  0.397110  0.901940  1.0
  C  C820  1  0.447400  0.598060  0.397110  1.0
  C  C821  1  0.552600  0.897110  0.401940  1.0
  C  C822  1  0.552600  0.098060  0.897110  1.0
  C  C823  1  0.552600  0.602890  0.098060  1.0
  C  C824  1  0.552600  0.401940  0.602890  1.0
  C  C825  1  0.415070  0.137330  0.584760  1.0
  C  C826  1  0.415070  0.915240  0.137330  1.0
  C  C827  1  0.415070  0.362670  0.915240  1.0
  C  C828  1  0.415070  0.584760  0.362670  1.0
  C  C829  1  0.584930  0.862670  0.415240  1.0
  C  C830  1  0.584930  0.084760  0.862670  1.0
  C  C831  1  0.584930  0.637330  0.084760  1.0
  C  C832  1  0.584930  0.415240  0.637330  1.0
  C  C833  1  0.424770  0.167820  0.550320  1.0
  C  C834  1  0.424770  0.949680  0.167820  1.0
  C  C835  1  0.424770  0.332180  0.949680  1.0
  C  C836  1  0.424770  0.550320  0.332180  1.0
  C  C837  1  0.575230  0.832180  0.449680  1.0
  C  C838  1  0.575230  0.050320  0.832180  1.0
  C  C839  1  0.575230  0.667820  0.050320  1.0
  C  C840  1  0.575230  0.449680  0.667820  1.0
  C  C841  1  0.390520  0.206220  0.540360  1.0
  C  C842  1  0.390520  0.959640  0.206220  1.0
  C  C843  1  0.390520  0.293780  0.959640  1.0
  C  C844  1  0.390520  0.540360  0.293780  1.0
  C  C845  1  0.609480  0.793780  0.459640  1.0
  C  C846  1  0.609480  0.040360  0.793780  1.0
  C  C847  1  0.609480  0.706220  0.040360  1.0
  C  C848  1  0.609480  0.459640  0.706220  1.0
  C  C849  1  0.351400  0.218960  0.568160  1.0
  C  C850  1  0.351400  0.931840  0.218960  1.0
  C  C851  1  0.351400  0.281040  0.931840  1.0
  C  C852  1  0.351400  0.568160  0.281040  1.0
  C  C853  1  0.648600  0.781040  0.431840  1.0
  C  C854  1  0.648600  0.068160  0.781040  1.0
  C  C855  1  0.648600  0.718960  0.068160  1.0
  C  C856  1  0.648600  0.431840  0.718960  1.0
  C  C857  1  0.322430  0.255740  0.556140  1.0
  C  C858  1  0.322430  0.943860  0.255740  1.0
  C  C859  1  0.322430  0.244260  0.943860  1.0
  C  C860  1  0.322430  0.556140  0.244260  1.0
  C  C861  1  0.677570  0.744260  0.443860  1.0
  C  C862  1  0.677570  0.056140  0.744260  1.0
  C  C863  1  0.677570  0.755740  0.056140  1.0
  C  C864  1  0.677570  0.443860  0.755740  1.0
  C  C865  1  0.366710  0.266840  0.491090  1.0
  C  C866  1  0.366710  0.008910  0.266840  1.0
  C  C867  1  0.366710  0.233160  0.008910  1.0
  C  C868  1  0.366710  0.491090  0.233160  1.0
  C  C869  1  0.633290  0.733160  0.508910  1.0
  C  C870  1  0.633290  0.991090  0.733160  1.0
  C  C871  1  0.633290  0.766840  0.991090  1.0
  C  C872  1  0.633290  0.508910  0.766840  1.0
  C  C873  1  0.398400  0.231520  0.501280  1.0
  C  C874  1  0.398400  0.998720  0.231520  1.0
  C  C875  1  0.398400  0.268480  0.998720  1.0
  C  C876  1  0.398400  0.501280  0.268480  1.0
  C  C877  1  0.601600  0.768480  0.498720  1.0
  C  C878  1  0.601600  0.001280  0.768480  1.0
  C  C879  1  0.601600  0.731520  0.001280  1.0
  C  C880  1  0.601600  0.498720  0.731520  1.0
  C  C881  1  0.275200  0.297400  0.397600  1.0
  C  C882  1  0.275200  0.102400  0.297400  1.0
  C  C883  1  0.275200  0.202600  0.102400  1.0
  C  C884  1  0.275200  0.397600  0.202600  1.0
  C  C885  1  0.724800  0.702600  0.602400  1.0
  C  C886  1  0.724800  0.897600  0.702600  1.0
  C  C887  1  0.724800  0.797400  0.897600  1.0
  C  C888  1  0.724800  0.602400  0.797400  1.0
  C  C889  1  0.284900  0.361900  0.604000  1.0
  C  C890  1  0.284900  0.896000  0.361900  1.0
  C  C891  1  0.284900  0.138100  0.896000  1.0
  C  C892  1  0.284900  0.604000  0.138100  1.0
  C  C893  1  0.715100  0.638100  0.396000  1.0
  C  C894  1  0.715100  0.104000  0.638100  1.0
  C  C895  1  0.715100  0.861900  0.104000  1.0
  C  C896  1  0.715100  0.396000  0.861900  1.0
  S  S897  1  0.178500  0.250000  0.250000  1
  S  S898  1  0.821500  0.750000  0.750000  1
  S  S899  1  0.377400  0.250000  0.250000  1
  S  S900  1  0.622600  0.750000  0.750000  1
  S  S901  1  0.301800  0.287900  0.345400  1
  S  S902  1  0.301800  0.154600  0.287900  1
  S  S903  1  0.301800  0.212100  0.154600  1
  S  S904  1  0.301800  0.345400  0.212100  1
  S  S905  1  0.698200  0.712100  0.654600  1
  S  S906  1  0.698200  0.845400  0.712100  1
  S  S907  1  0.698200  0.787900  0.845400  1
  S  S908  1  0.698200  0.654600  0.787900  1
  S  S909  1  0.265900  0.275400  0.348000  1.0
  S  S910  1  0.265900  0.152000  0.275400  1.0
  S  S911  1  0.265900  0.224600  0.152000  1.0
  S  S912  1  0.265900  0.348000  0.224600  1.0
  S  S913  1  0.734100  0.724600  0.652000  1.0
  S  S914  1  0.734100  0.848000  0.724600  1.0
  S  S915  1  0.734100  0.775400  0.848000  1.0
  S  S916  1  0.734100  0.652000  0.775400  1.0
  S  S917  1  0.291980  0.365130  0.658830  1.0
  S  S918  1  0.291980  0.841170  0.365130  1.0
  S  S919  1  0.291980  0.134870  0.841170  1.0
  S  S920  1  0.291980  0.658830  0.134870  1.0
  S  S921  1  0.708020  0.634870  0.341170  1.0
  S  S922  1  0.708020  0.158830  0.634870  1.0
  S  S923  1  0.708020  0.865130  0.158830  1.0
  S  S924  1  0.708020  0.341170  0.865130  1.0
  N  N925  1  0.076900  0.250000  0.250000  1
  N  N926  1  0.923100  0.750000  0.750000  1
  N  N927  1  0.483500  0.250000  0.250000  1
  N  N928  1  0.516500  0.750000  0.750000  1
  N  N929  1  0.997800  0.208620  0.309870  1.0
  N  N930  1  0.997800  0.190130  0.208620  1.0
  N  N931  1  0.997800  0.291380  0.190130  1.0
  N  N932  1  0.997800  0.309870  0.291380  1.0
  N  N933  1  0.002200  0.791380  0.690130  1.0
  N  N934  1  0.002200  0.809870  0.791380  1.0
  N  N935  1  0.002200  0.708620  0.809870  1.0
  N  N936  1  0.002200  0.690130  0.708620  1.0
  N  N937  1  0.216210  0.294600  0.512710  1.0
  N  N938  1  0.216210  0.987290  0.294600  1.0
  N  N939  1  0.216210  0.205400  0.987290  1.0
  N  N940  1  0.216210  0.512710  0.205400  1.0
  N  N941  1  0.783790  0.705400  0.487290  1.0
  N  N942  1  0.783790  0.012710  0.705400  1.0
  N  N943  1  0.783790  0.794600  0.012710  1.0
  N  N944  1  0.783790  0.487290  0.794600  1.0
  N  N945  1  0.232240  0.021000  0.391460  1.0
  N  N946  1  0.232240  0.108540  0.021000  1.0
  N  N947  1  0.232240  0.479000  0.108540  1.0
  N  N948  1  0.232240  0.391460  0.479000  1.0
  N  N949  1  0.767760  0.979000  0.608540  1.0
  N  N950  1  0.767760  0.891460  0.979000  1.0
  N  N951  1  0.767760  0.521000  0.891460  1.0
  N  N952  1  0.767760  0.608540  0.521000  1.0
  N  N953  1  0.557470  0.320680  0.268590  1.0
  N  N954  1  0.557470  0.231410  0.320680  1.0
  N  N955  1  0.557470  0.179320  0.231410  1.0
  N  N956  1  0.557470  0.268590  0.179320  1.0
  N  N957  1  0.442530  0.679320  0.731410  1.0
  N  N958  1  0.442530  0.768590  0.679320  1.0
  N  N959  1  0.442530  0.820680  0.768590  1.0
  N  N960  1  0.442530  0.731410  0.820680  1.0
  N  N961  1  0.345780  0.376490  0.484200  1.0
  N  N962  1  0.345780  0.015800  0.376490  1.0
  N  N963  1  0.345780  0.123510  0.015800  1.0
  N  N964  1  0.345780  0.484200  0.123510  1.0
  N  N965  1  0.654220  0.623510  0.515800  1.0
  N  N966  1  0.654220  0.984200  0.623510  1.0
  N  N967  1  0.654220  0.876490  0.984200  1.0
  N  N968  1  0.654220  0.515800  0.876490  1.0
  N  N969  1  0.281380  0.312990  0.432740  1.0
  N  N970  1  0.281380  0.067260  0.312990  1.0
  N  N971  1  0.281380  0.187010  0.067260  1.0
  N  N972  1  0.281380  0.432740  0.187010  1.0
  N  N973  1  0.718620  0.687010  0.567260  1.0
  N  N974  1  0.718620  0.932740  0.687010  1.0
  N  N975  1  0.718620  0.812990  0.932740  1.0
  N  N976  1  0.718620  0.567260  0.812990  1.0
  N  N977  1  0.281510  0.358100  0.565670  1.0
  N  N978  1  0.281510  0.934330  0.358100  1.0
  N  N979  1  0.281510  0.141900  0.934330  1.0
  N  N980  1  0.281510  0.565670  0.141900  1.0
  N  N981  1  0.718490  0.641900  0.434330  1.0
  N  N982  1  0.718490  0.065670  0.641900  1.0
  N  N983  1  0.718490  0.858100  0.065670  1.0
  N  N984  1  0.718490  0.434330  0.858100  1.0
  N  N985  1  0.329170  0.279480  0.517810  1.0
  N  N986  1  0.329170  0.982190  0.279480  1.0
  N  N987  1  0.329170  0.220520  0.982190  1.0
  N  N988  1  0.329170  0.517810  0.220520  1.0
  N  N989  1  0.670830  0.720520  0.482190  1.0
  N  N990  1  0.670830  0.017810  0.720520  1.0
  N  N991  1  0.670830  0.779480  0.017810  1.0
  N  N992  1  0.670830  0.482190  0.779480  1.0
  Cl  Cl993  1  0.384050  0.186650  0.394500  1
  Cl  Cl994  1  0.384050  0.105500  0.186650  1
  Cl  Cl995  1  0.384050  0.313350  0.105500  1
  Cl  Cl996  1  0.384050  0.394500  0.313350  1
  Cl  Cl997  1  0.615950  0.813350  0.605500  1
  Cl  Cl998  1  0.615950  0.894500  0.813350  1
  Cl  Cl999  1  0.615950  0.686650  0.894500  1
  Cl  Cl1000  1  0.615950  0.605500  0.686650  1
  Cl  Cl1001  1  0.445070  0.299590  0.597900  1
  Cl  Cl1002  1  0.445070  0.902100  0.299590  1
  Cl  Cl1003  1  0.445070  0.200410  0.902100  1
  Cl  Cl1004  1  0.445070  0.597900  0.200410  1
  Cl  Cl1005  1  0.554930  0.700410  0.402100  1
  Cl  Cl1006  1  0.554930  0.097900  0.700410  1
  Cl  Cl1007  1  0.554930  0.799590  0.097900  1
  Cl  Cl1008  1  0.554930  0.402100  0.799590  1
  Cl  Cl1009  1  0.478880  0.327890  0.687720  1
  Cl  Cl1010  1  0.478880  0.812280  0.327890  1
  Cl  Cl1011  1  0.478880  0.172110  0.812280  1
  Cl  Cl1012  1  0.478880  0.687720  0.172110  1
  Cl  Cl1013  1  0.521120  0.672110  0.312280  1
  Cl  Cl1014  1  0.521120  0.187720  0.672110  1
  Cl  Cl1015  1  0.521120  0.827890  0.187720  1
  Cl  Cl1016  1  0.521120  0.312280  0.827890  1
  O  O1017  1  0.635300  0.250000  0.250000  1
  O  O1018  1  0.364700  0.750000  0.750000  1
  O  O1019  1  0.918700  0.250000  0.250000  1
  O  O1020  1  0.081300  0.750000  0.750000  1
  O  O1021  1  0.991630  0.074980  0.512220  1.0
  O  O1022  1  0.991630  0.987780  0.074980  1.0
  O  O1023  1  0.991630  0.425020  0.987780  1.0
  O  O1024  1  0.991630  0.512220  0.425020  1.0
  O  O1025  1  0.008370  0.925020  0.487780  1.0
  O  O1026  1  0.008370  0.012220  0.925020  1.0
  O  O1027  1  0.008370  0.574980  0.012220  1.0
  O  O1028  1  0.008370  0.487780  0.574980  1.0
  O  O1029  1  0.023660  0.148640  0.463470  1.0
  O  O1030  1  0.023660  0.036530  0.148640  1.0
  O  O1031  1  0.023660  0.351360  0.036530  1.0
  O  O1032  1  0.023660  0.463470  0.351360  1.0
  O  O1033  1  0.976340  0.851360  0.536530  1.0
  O  O1034  1  0.976340  0.963470  0.851360  1.0
  O  O1035  1  0.976340  0.648640  0.963470  1.0
  O  O1036  1  0.976340  0.536530  0.648640  1.0
  O  O1037  1  0.488940  0.093700  0.578950  1.0
  O  O1038  1  0.488940  0.921050  0.093700  1.0
  O  O1039  1  0.488940  0.406300  0.921050  1.0
  O  O1040  1  0.488940  0.578950  0.406300  1.0
  O  O1041  1  0.511060  0.906300  0.421050  1.0
  O  O1042  1  0.511060  0.078950  0.906300  1.0
  O  O1043  1  0.511060  0.593700  0.078950  1.0
  O  O1044  1  0.511060  0.421050  0.593700  1.0
  O  O1045  1  0.001170  0.157430  0.559300  1.0
  O  O1046  1  0.001170  0.940700  0.157430  1.0
  O  O1047  1  0.001170  0.342570  0.940700  1.0
  O  O1048  1  0.001170  0.559300  0.342570  1.0
  O  O1049  1  0.998830  0.842570  0.440700  1.0
  O  O1050  1  0.998830  0.059300  0.842570  1.0
  O  O1051  1  0.998830  0.657430  0.059300  1.0
  O  O1052  1  0.998830  0.440700  0.657430  1.0
  O  O1053  1  0.096700  0.168970  0.526950  1.0
  O  O1054  1  0.096700  0.973050  0.168970  1.0
  O  O1055  1  0.096700  0.331030  0.973050  1.0
  O  O1056  1  0.096700  0.526950  0.331030  1.0
  O  O1057  1  0.903300  0.831030  0.473050  1.0
  O  O1058  1  0.903300  0.026950  0.831030  1.0
  O  O1059  1  0.903300  0.668970  0.026950  1.0
  O  O1060  1  0.903300  0.473050  0.668970  1.0
  O  O1061  1  0.073290  0.087590  0.574910  1.0
  O  O1062  1  0.073290  0.925090  0.087590  1.0
  O  O1063  1  0.073290  0.412410  0.925090  1.0
  O  O1064  1  0.073290  0.574910  0.412410  1.0
  O  O1065  1  0.926710  0.912410  0.425090  1.0
  O  O1066  1  0.926710  0.074910  0.912410  1.0
  O  O1067  1  0.926710  0.587590  0.074910  1.0
  O  O1068  1  0.926710  0.425090  0.587590  1.0
  O  O1069  1  0.096140  0.084180  0.484780  1.0
  O  O1070  1  0.096140  0.015220  0.084180  1.0
  O  O1071  1  0.096140  0.415820  0.015220  1.0
  O  O1072  1  0.096140  0.484780  0.415820  1.0
  O  O1073  1  0.903860  0.915820  0.515220  1.0
  O  O1074  1  0.903860  0.984780  0.915820  1.0
  O  O1075  1  0.903860  0.584180  0.984780  1.0
  O  O1076  1  0.903860  0.515220  0.584180  1.0
  O  O1077  1  0.565660  0.550550  0.344720  1.0
  O  O1078  1  0.565660  0.155280  0.550550  1.0
  O  O1079  1  0.565660  0.949450  0.155280  1.0
  O  O1080  1  0.565660  0.344720  0.949450  1.0
  O  O1081  1  0.434340  0.449450  0.655280  1.0
  O  O1082  1  0.434340  0.844720  0.449450  1.0
  O  O1083  1  0.434340  0.050550  0.844720  1.0
  O  O1084  1  0.434340  0.655280  0.050550  1.0
  O  O1085  1  0.536490  0.462080  0.354240  1.0
  O  O1086  1  0.536490  0.145760  0.462080  1.0
  O  O1087  1  0.536490  0.037920  0.145760  1.0
  O  O1088  1  0.536490  0.354240  0.037920  1.0
  O  O1089  1  0.463510  0.537920  0.645760  1.0
  O  O1090  1  0.463510  0.854240  0.537920  1.0
  O  O1091  1  0.463510  0.962080  0.854240  1.0
  O  O1092  1  0.463510  0.645760  0.962080  1.0
  O  O1093  1  0.563020  0.510050  0.434030  1.0
  O  O1094  1  0.563020  0.065970  0.510050  1.0
  O  O1095  1  0.563020  0.989950  0.065970  1.0
  O  O1096  1  0.563020  0.434030  0.989950  1.0
  O  O1097  1  0.436980  0.489950  0.565970  1.0
  O  O1098  1  0.436980  0.934030  0.489950  1.0
  O  O1099  1  0.436980  0.010050  0.934030  1.0
  O  O1100  1  0.436980  0.565970  0.010050  1.0
  O  O1101  1  0.465690  0.485120  0.419650  1.0
  O  O1102  1  0.465690  0.080350  0.485120  1.0
  O  O1103  1  0.465690  0.014880  0.080350  1.0
  O  O1104  1  0.465690  0.419650  0.014880  1.0
  O  O1105  1  0.534310  0.514880  0.580350  1.0
  O  O1106  1  0.534310  0.919650  0.514880  1.0
  O  O1107  1  0.534310  0.985120  0.919650  1.0
  O  O1108  1  0.534310  0.580350  0.985120  1.0
  O  O1109  1  0.463730  0.165820  0.524800  1.0
  O  O1110  1  0.463730  0.975200  0.165820  1.0
  O  O1111  1  0.463730  0.334180  0.975200  1.0
  O  O1112  1  0.463730  0.524800  0.334180  1.0
  O  O1113  1  0.536270  0.834180  0.475200  1.0
  O  O1114  1  0.536270  0.024800  0.834180  1.0
  O  O1115  1  0.536270  0.665820  0.024800  1.0
  O  O1116  1  0.536270  0.475200  0.665820  1.0
