
#######################################################################
#
#                 Cambridge Crystallographic Data Centre
#                                CCDC 
#
#######################################################################
#
# If this CIF has been generated from an entry in the Cambridge 
# Structural Database, then it will include bibliographic, chemical, 
# crystal, experimental, refinement or atomic coordinate data resulting 
# from the CCDC's data processing and validation procedures.
#
#######################################################################

data_QELXIR
_chemical_formula_moiety         
'C226 H196 Co6 Fe8 N34 O50 S10 2+,4(C1 H2 Cl2),2(Cl1 1-)'
_chemical_name_systematic        
'tetracosakis(\m-1-(4-pyridyl)butane-1,3-dionato)-diaqua-decakis(isothiocyanato)-octa-iron(iii)-hexa-cobalt(ii) dichloride dichloromethane unknown solvate'
_symmetry_cell_setting           tetragonal
_symmetry_space_group_name_H-M   'P 4/n'
_symmetry_Int_Tables_number      85
_space_group_name_Hall           '-P 4a'
loop_
_symmetry_equiv_pos_site_id
_symmetry_equiv_pos_as_xyz
1 x,y,z
2 1/2-y,x,z
3 1/2-x,1/2-y,z
4 y,1/2-x,z
5 -x,-y,-z
6 1/2+y,-x,-z
7 1/2+x,1/2+y,-z
8 -y,1/2+x,-z
_cell_length_a                   29.5218(3)
_cell_length_b                   29.5218(3)
_cell_length_c                   26.6262(5)
_cell_angle_alpha                90
_cell_angle_beta                 90
_cell_angle_gamma                90
_cell_volume                     23205.7
_exptl_crystal_colour            red
_exptl_crystal_description       prism
_cell_formula_units_Z            2
loop_
_atom_site_label
_atom_site_type_symbol
_atom_site_fract_x
_atom_site_fract_y
_atom_site_fract_z
Co1 Co 0.33595(2) 0.49910(2) 0.28093(2)
Co2 Co 0.2500 0.2500 -0.00184(8)
Co3 Co 0.2500 0.2500 0.55746(5)
Fe1 Fe 0.12016(2) 0.52045(2) 0.04691(3)
Fe2 Fe 0.51961(2) 0.38300(2) 0.51454(2)
S1 S 0.2500 0.2500 0.1785(3)
S2 S 0.2754(3) 0.3480(2) 0.2659(4)
S3 S 0.36513(18) 0.65883(9) 0.29198(14)
S4 S 0.2500 0.2500 0.3774(2)
O1 O 0.07498(12) 0.51222(13) -0.00837(13)
O2 O 0.14864(11) 0.46347(12) 0.02366(13)
O3 O 0.09370(10) 0.57895(9) 0.48894(12)
O4 O 0.15743(13) 0.55930(13) 0.00117(13)
O5 O 0.16897(11) 0.52695(12) 0.09670(12)
O6 O 0.08759(12) 0.57491(11) 0.07329(14)
O7 O 0.08418(10) 0.48478(10) 0.09614(12)
O8 O 0.55055(10) 0.34472(11) 0.56566(12)
O9 O 0.46208(9) 0.35424(9) 0.53649(11)
O10 O 0.51005(9) 0.43403(10) 0.56302(11)
O11 O 0.48512(9) 0.41965(9) 0.46569(10)
O12 O 0.16582(9) 0.52480(9) 0.46373(11)
O13 O 0.2500 0.2500 0.6353(3)
O14 O 0.2500 0.2500 -0.0813(5)
N1 N 0.20862(18) 0.30987(18) -0.0022(2)
N2 N 0.29460(12) 0.51271(14) 0.21621(14)
N3 N 0.02100(15) 0.39146(13) 0.23224(14)
N4 N 0.32068(12) 0.26859(12) 0.55747(16)
N5 N 0.37649(11) 0.48420(13) 0.34578(13)
N6 N 0.2500 0.2500 0.0769(6)
N7 N 0.31299(13) 0.43274(15) 0.28138(14)
N8 N 0.35810(13) 0.56567(16) 0.28151(15)
N9 N 0.2500 0.2500 0.4835(3)
N10 N 0.27948(12) 0.51781(13) 0.32917(14)
C1 C 0.0236(2) 0.4780(3) -0.0640(3)
H1 H 0.0192 0.4485 -0.0802
H2 H -0.0028 0.4851 -0.0433
H3 H 0.0273 0.5014 -0.0898
C2 C 0.06551(19) 0.4764(2) -0.0314(2)
C3 C 0.0906(2) 0.4361(2) -0.0281(2)
H4 H 0.0791 0.4100 -0.0448
C4 C 0.13056(18) 0.4320(2) -0.0025(2)
C5 C 0.15628(19) 0.3889(2) -0.0030(2)
C6 C 0.1492(2) 0.3544(2) -0.0372(3)
H5 H 0.1262 0.3570 -0.0620
C7 C 0.1758(2) 0.3163(2) -0.0349(3)
H6 H 0.1701 0.2930 -0.0587
C8 C 0.2158(2) 0.3425(2) 0.0310(3)
H7 H 0.2390 0.3384 0.0553
C9 C 0.1909(2) 0.3827(2) 0.0320(3)
H8 H 0.1974 0.4055 0.0561
C10 C 0.2196(3) 0.5896(3) -0.0417(3)
H9 H 0.2065 0.6198 -0.0463
H10 H 0.2137 0.5712 -0.0717
H11 H 0.2524 0.5922 -0.0367
C11 C 0.1983(2) 0.5670(2) 0.0039(2)
C12 C 0.2258(2) 0.5557(2) 0.0453(2)
H12 H 0.2575 0.5603 0.0425
C13 C 0.20941(16) 0.53834(16) 0.08949(18)
C14 C 0.24020(15) 0.53013(17) 0.13277(17)
C15 C 0.28278(17) 0.54956(19) 0.13772(19)
H13 H 0.2943 0.5689 0.1122
C16 C 0.30800(16) 0.54067(19) 0.17965(19)
H14 H 0.3366 0.5551 0.1830
C17 C 0.25410(16) 0.49337(19) 0.21117(18)
H15 H 0.2440 0.4733 0.2367
C18 C 0.22632(16) 0.50119(18) 0.17078(18)
H16 H 0.1976 0.4868 0.1689
C19 C 0.0587(3) 0.62758(19) 0.1310(3)
H17 H 0.0866 0.6447 0.1373
H18 H 0.0401 0.6273 0.1615
H19 H 0.0418 0.6419 0.1036
C20 C 0.07059(18) 0.57940(17) 0.1165(2)
C21 C 0.06077(18) 0.54452(16) 0.14923(19)
H20 H 0.0500 0.5518 0.1818
C22 C 0.06602(15) 0.49901(16) 0.13649(17)
C23 C 0.04959(16) 0.46264(15) 0.17093(17)
C24 C 0.01729(18) 0.46906(16) 0.20790(18)
H21 H 0.0043 0.4981 0.2129
C25 C 0.00400(19) 0.43295(16) 0.2376(2)
H22 H -0.0182 0.4380 0.2628
C26 C 0.0519(2) 0.38536(17) 0.19630(19)
H23 H 0.0645 0.3560 0.1922
C27 C 0.06641(19) 0.41905(17) 0.16513(19)
H24 H 0.0879 0.4127 0.1396
C28 C 0.5729(2) 0.2767(2) 0.6046(3)
H25 H 0.5977 0.2724 0.5806
H26 H 0.5598 0.2472 0.6132
H27 H 0.5845 0.2912 0.6351
C29 C 0.53740(16) 0.30588(17) 0.5816(2)
C30 C 0.49290(16) 0.29044(17) 0.5777(2)
H28 H 0.4862 0.2609 0.5898
C31 C 0.45796(15) 0.31555(14) 0.55735(17)
C32 C 0.41034(15) 0.29769(15) 0.55833(18)
C33 C 0.38064(16) 0.31275(17) 0.5218(2)
H29 H 0.3905 0.3333 0.4967
C34 C 0.33672(16) 0.29765(18) 0.5224(2)
H30 H 0.3166 0.3081 0.4971
C35 C 0.34999(16) 0.25400(16) 0.5919(2)
H31 H 0.3395 0.2334 0.6168
C36 C 0.39493(16) 0.26722(16) 0.5935(2)
H32 H 0.4148 0.2555 0.6183
C37 C 0.47173(16) 0.49031(16) 0.60943(17)
H33 H 0.4449 0.4793 0.6273
H34 H 0.4675 0.5222 0.6005
H35 H 0.4984 0.4872 0.6311
C38 C 0.47853(14) 0.46296(14) 0.56247(16)
C39 C 0.45009(14) 0.47093(14) 0.52118(16)
H36 H 0.4256 0.4915 0.5253
C40 C 0.45560(13) 0.45056(13) 0.47490(15)
C41 C 0.42704(13) 0.46287(14) 0.43142(16)
C42 C 0.40379(13) 0.50403(14) 0.42711(16)
H37 H 0.4047 0.5254 0.4538
C43 C 0.37970(13) 0.51353(15) 0.38454(16)
H38 H 0.3646 0.5419 0.3821
C44 C 0.39874(15) 0.44473(16) 0.34937(17)
H39 H 0.3970 0.4240 0.3222
C45 C 0.42407(14) 0.43305(15) 0.39090(17)
H40 H 0.4394 0.4048 0.3919
C46 C 0.07348(18) 0.63780(17) 0.4336(2)
H41 H 0.0518 0.6286 0.4076
H42 H 0.0925 0.6624 0.4208
H43 H 0.0570 0.6482 0.4634
C47 C 0.10289(15) 0.59806(15) 0.44740(19)
C48 C 0.13733(15) 0.58476(15) 0.41507(19)
H44 H 0.1401 0.6005 0.3841
C49 C 0.16782(14) 0.55032(14) 0.42477(17)
C50 C 0.20622(13) 0.54036(14) 0.39052(16)
C51 C 0.21896(15) 0.56816(16) 0.35140(17)
H45 H 0.2026 0.5952 0.3445
C52 C 0.25574(15) 0.55614(16) 0.32243(18)
H46 H 0.2648 0.5761 0.2963
C53 C 0.26684(16) 0.49109(17) 0.36671(17)
H47 H 0.2830 0.4636 0.3719
C54 C 0.23152(16) 0.50128(16) 0.39840(18)
H48 H 0.2244 0.4817 0.4256
C55 C 0.2500 0.2500 0.1184(8)
C56 C 0.2974(8) 0.3976(4) 0.2752(8)
C57 C 0.3619(2) 0.6040(2) 0.2849(2)
C58 C 0.2500 0.2500 0.4381(5)
Co1A Co 0.00090(2) 0.33595(2) 0.28093(2)
Fe1A Fe -0.02045(2) 0.12016(2) 0.04691(3)
Fe2A Fe 0.11700(2) 0.51961(2) 0.51454(2)
S2A S 0.1520(2) 0.2754(3) 0.2659(4)
S3A S -0.15883(9) 0.36513(18) 0.29198(14)
O1A O -0.01222(13) 0.07498(12) -0.00837(13)
O2A O 0.03653(12) 0.14864(11) 0.02366(13)
O3A O -0.07895(9) 0.09370(10) 0.48894(12)
O4A O -0.05930(13) 0.15743(13) 0.00117(13)
O5A O -0.02695(12) 0.16897(11) 0.09670(12)
O6A O -0.07491(11) 0.08759(12) 0.07329(14)
O7A O 0.01522(10) 0.08418(10) 0.09614(12)
O8A O 0.15528(11) 0.55055(10) 0.56566(12)
O9A O 0.14576(9) 0.46208(9) 0.53649(11)
O10A O 0.06597(10) 0.51005(9) 0.56302(11)
O11A O 0.08035(9) 0.48512(9) 0.46569(10)
O12A O -0.02480(9) 0.16582(9) 0.46373(11)
N1A N 0.19013(18) 0.20862(18) -0.0022(2)
N2A N -0.01271(14) 0.29460(12) 0.21621(14)
N3A N 0.10854(13) 0.02100(15) 0.23224(14)
N4A N 0.23141(12) 0.32068(12) 0.55747(16)
N5A N 0.01580(13) 0.37649(11) 0.34578(13)
N7A N 0.06726(15) 0.31299(13) 0.28138(14)
N8A N -0.06567(16) 0.35810(13) 0.28151(15)
N10A N -0.01781(13) 0.27948(12) 0.32917(14)
C1A C 0.0220(3) 0.0236(2) -0.0640(3)
H1A H 0.0515 0.0192 -0.0802
H2A H 0.0149 -0.0028 -0.0433
H3A H -0.0014 0.0273 -0.0898
C2A C 0.0236(2) 0.06551(19) -0.0314(2)
C3A C 0.0639(2) 0.0906(2) -0.0281(2)
H4A H 0.0900 0.0791 -0.0448
C4A C 0.0680(2) 0.13056(18) -0.0025(2)
C5A C 0.1111(2) 0.15628(19) -0.0030(2)
C6A C 0.1456(2) 0.1492(2) -0.0372(3)
H5A H 0.1430 0.1262 -0.0620
C7A C 0.1837(2) 0.1758(2) -0.0349(3)
H6A H 0.2070 0.1701 -0.0587
C8A C 0.1575(2) 0.2158(2) 0.0310(3)
H7A H 0.1616 0.2390 0.0553
C9A C 0.1173(2) 0.1909(2) 0.0320(3)
H8A H 0.0945 0.1974 0.0561
C10A C -0.0896(3) 0.2196(3) -0.0417(3)
H9A H -0.1198 0.2065 -0.0463
H10A H -0.0712 0.2137 -0.0717
H11A H -0.0922 0.2524 -0.0367
C11A C -0.0670(2) 0.1983(2) 0.0039(2)
C12A C -0.0557(2) 0.2258(2) 0.0453(2)
H12A H -0.0603 0.2575 0.0425
C13A C -0.03834(16) 0.20941(16) 0.08949(18)
C14A C -0.03013(17) 0.24020(15) 0.13277(17)
C15A C -0.04956(19) 0.28278(17) 0.13772(19)
H13A H -0.0689 0.2943 0.1122
C16A C -0.04067(19) 0.30800(16) 0.17965(19)
H14A H -0.0551 0.3366 0.1830
C17A C 0.00663(19) 0.25410(16) 0.21117(18)
H15A H 0.0267 0.2440 0.2367
C18A C -0.00119(18) 0.22632(16) 0.17078(18)
H16A H 0.0132 0.1976 0.1689
C19A C -0.12758(19) 0.0587(3) 0.1310(3)
H17A H -0.1447 0.0866 0.1373
H18A H -0.1273 0.0401 0.1615
H19A H -0.1419 0.0418 0.1036
C20A C -0.07940(17) 0.07059(18) 0.1165(2)
C21A C -0.04452(16) 0.06077(18) 0.14923(19)
H20A H -0.0518 0.0500 0.1818
C22A C 0.00099(16) 0.06602(15) 0.13649(17)
C23A C 0.03736(15) 0.04959(16) 0.17093(17)
C24A C 0.03094(16) 0.01729(18) 0.20790(18)
H21A H 0.0019 0.0043 0.2129
C25A C 0.06705(16) 0.00400(19) 0.2376(2)
H22A H 0.0620 -0.0182 0.2628
C26A C 0.11464(17) 0.0519(2) 0.19630(19)
H23A H 0.1440 0.0645 0.1922
C27A C 0.08095(17) 0.06641(19) 0.16513(19)
H24A H 0.0873 0.0879 0.1396
C28A C 0.2233(2) 0.5729(2) 0.6046(3)
H25A H 0.2276 0.5977 0.5806
H26A H 0.2528 0.5598 0.6132
H27A H 0.2088 0.5845 0.6351
C29A C 0.19412(17) 0.53740(16) 0.5816(2)
C30A C 0.20956(17) 0.49290(16) 0.5777(2)
H28A H 0.2391 0.4862 0.5898
C31A C 0.18445(14) 0.45796(15) 0.55735(17)
C32A C 0.20231(15) 0.41034(15) 0.55833(18)
C33A C 0.18725(17) 0.38064(16) 0.5218(2)
H29A H 0.1667 0.3905 0.4967
C34A C 0.20235(18) 0.33672(16) 0.5224(2)
H30A H 0.1919 0.3166 0.4971
C35A C 0.24600(16) 0.34999(16) 0.5919(2)
H31A H 0.2666 0.3395 0.6168
C36A C 0.23278(16) 0.39493(16) 0.5935(2)
H32A H 0.2445 0.4148 0.6183
C37A C 0.00969(16) 0.47173(16) 0.60943(17)
H33A H 0.0207 0.4449 0.6273
H34A H -0.0222 0.4675 0.6005
H35A H 0.0128 0.4984 0.6311
C38A C 0.03704(14) 0.47853(14) 0.56247(16)
C39A C 0.02907(14) 0.45009(14) 0.52118(16)
H36A H 0.0085 0.4256 0.5253
C40A C 0.04944(13) 0.45560(13) 0.47490(15)
C41A C 0.03713(14) 0.42704(13) 0.43142(16)
C42A C -0.00403(14) 0.40379(13) 0.42711(16)
H37A H -0.0254 0.4047 0.4538
C43A C -0.01353(15) 0.37970(13) 0.38454(16)
H38A H -0.0419 0.3646 0.3821
C44A C 0.05527(16) 0.39874(15) 0.34937(17)
H39A H 0.0760 0.3970 0.3222
C45A C 0.06695(15) 0.42407(14) 0.39090(17)
H40A H 0.0952 0.4394 0.3919
C46A C -0.13780(17) 0.07348(18) 0.4336(2)
H41A H -0.1286 0.0518 0.4076
H42A H -0.1624 0.0925 0.4208
H43A H -0.1482 0.0570 0.4634
C47A C -0.09806(15) 0.10289(15) 0.44740(19)
C48A C -0.08476(15) 0.13733(15) 0.41507(19)
H44A H -0.1005 0.1401 0.3841
C49A C -0.05032(14) 0.16782(14) 0.42477(17)
C50A C -0.04036(14) 0.20622(13) 0.39052(16)
C51A C -0.06816(16) 0.21896(15) 0.35140(17)
H45A H -0.0952 0.2026 0.3445
C52A C -0.05614(16) 0.25574(15) 0.32243(18)
H46A H -0.0761 0.2648 0.2963
C53A C 0.00891(17) 0.26684(16) 0.36671(17)
H47A H 0.0364 0.2830 0.3719
C54A C -0.00128(16) 0.23152(16) 0.39840(18)
H48A H 0.0183 0.2244 0.4256
C56A C 0.1024(4) 0.2974(8) 0.2752(8)
C57A C -0.1040(2) 0.3619(2) 0.2849(2)
Co1B Co 0.16405(2) 0.00090(2) 0.28093(2)
Fe1B Fe 0.37984(2) -0.02045(2) 0.04691(3)
Fe2B Fe -0.01961(2) 0.11700(2) 0.51454(2)
S2B S 0.2246(3) 0.1520(2) 0.2659(4)
S3B S 0.13487(18) -0.15883(9) 0.29198(14)
O1B O 0.42502(12) -0.01222(13) -0.00837(13)
O2B O 0.35136(11) 0.03653(12) 0.02366(13)
O3B O 0.40630(10) -0.07895(9) 0.48894(12)
O4B O 0.34257(13) -0.05930(13) 0.00117(13)
O5B O 0.33103(11) -0.02695(12) 0.09670(12)
O6B O 0.41241(12) -0.07491(11) 0.07329(14)
O7B O 0.41582(10) 0.01522(10) 0.09614(12)
O8B O -0.05055(10) 0.15528(11) 0.56566(12)
O9B O 0.03792(9) 0.14576(9) 0.53649(11)
O10B O -0.01005(9) 0.06597(10) 0.56302(11)
O11B O 0.01488(9) 0.08035(9) 0.46569(10)
O12B O 0.33418(9) -0.02480(9) 0.46373(11)
N1B N 0.29138(18) 0.19013(18) -0.0022(2)
N2B N 0.20540(12) -0.01271(14) 0.21621(14)
N3B N 0.47900(15) 0.10854(13) 0.23224(14)
N4B N 0.17932(12) 0.23141(12) 0.55747(16)
N5B N 0.12351(11) 0.01580(13) 0.34578(13)
N7B N 0.18701(13) 0.06726(15) 0.28138(14)
N8B N 0.14190(13) -0.06567(16) 0.28151(15)
N10B N 0.22052(12) -0.01781(13) 0.32917(14)
C1B C 0.4764(2) 0.0220(3) -0.0640(3)
H1B H 0.4808 0.0515 -0.0802
H2B H 0.5028 0.0149 -0.0433
H3B H 0.4727 -0.0014 -0.0898
C2B C 0.43449(19) 0.0236(2) -0.0314(2)
C3B C 0.4094(2) 0.0639(2) -0.0281(2)
H4B H 0.4209 0.0900 -0.0448
C4B C 0.36944(18) 0.0680(2) -0.0025(2)
C5B C 0.34372(19) 0.1111(2) -0.0030(2)
C6B C 0.3508(2) 0.1456(2) -0.0372(3)
H5B H 0.3738 0.1430 -0.0620
C7B C 0.3242(2) 0.1837(2) -0.0349(3)
H6B H 0.3299 0.2070 -0.0587
C8B C 0.2842(2) 0.1575(2) 0.0310(3)
H7B H 0.2610 0.1616 0.0553
C9B C 0.3091(2) 0.1173(2) 0.0320(3)
H8B H 0.3026 0.0945 0.0561
C10B C 0.2804(3) -0.0896(3) -0.0417(3)
H9B H 0.2935 -0.1198 -0.0463
H10B H 0.2863 -0.0712 -0.0717
H11B H 0.2476 -0.0922 -0.0367
C11B C 0.3017(2) -0.0670(2) 0.0039(2)
C12B C 0.2742(2) -0.0557(2) 0.0453(2)
H12B H 0.2425 -0.0603 0.0425
C13B C 0.29059(16) -0.03834(16) 0.08949(18)
C14B C 0.25980(15) -0.03013(17) 0.13277(17)
C15B C 0.21722(17) -0.04956(19) 0.13772(19)
H13B H 0.2057 -0.0689 0.1122
C16B C 0.19200(16) -0.04067(19) 0.17965(19)
H14B H 0.1634 -0.0551 0.1830
C17B C 0.24590(16) 0.00663(19) 0.21117(18)
H15B H 0.2560 0.0267 0.2367
C18B C 0.27368(16) -0.00119(18) 0.17078(18)
H16B H 0.3024 0.0132 0.1689
C19B C 0.4413(3) -0.12758(19) 0.1310(3)
H17B H 0.4134 -0.1447 0.1373
H18B H 0.4599 -0.1273 0.1615
H19B H 0.4582 -0.1419 0.1036
C20B C 0.42941(18) -0.07940(17) 0.1165(2)
C21B C 0.43923(18) -0.04452(16) 0.14923(19)
H20B H 0.4500 -0.0518 0.1818
C22B C 0.43398(15) 0.00099(16) 0.13649(17)
C23B C 0.45041(16) 0.03736(15) 0.17093(17)
C24B C 0.48271(18) 0.03094(16) 0.20790(18)
H21B H 0.4957 0.0019 0.2129
C25B C 0.49600(19) 0.06705(16) 0.2376(2)
H22B H 0.5182 0.0620 0.2628
C26B C 0.4481(2) 0.11464(17) 0.19630(19)
H23B H 0.4355 0.1440 0.1922
C27B C 0.43359(19) 0.08095(17) 0.16513(19)
H24B H 0.4121 0.0873 0.1396
C28B C -0.0729(2) 0.2233(2) 0.6046(3)
H25B H -0.0977 0.2276 0.5806
H26B H -0.0598 0.2528 0.6132
H27B H -0.0845 0.2088 0.6351
C29B C -0.03740(16) 0.19412(17) 0.5816(2)
C30B C 0.00710(16) 0.20956(17) 0.5777(2)
H28B H 0.0138 0.2391 0.5898
C31B C 0.04204(15) 0.18445(14) 0.55735(17)
C32B C 0.08966(15) 0.20231(15) 0.55833(18)
C33B C 0.11936(16) 0.18725(17) 0.5218(2)
H29B H 0.1095 0.1667 0.4967
C34B C 0.16328(16) 0.20235(18) 0.5224(2)
H30B H 0.1834 0.1919 0.4971
C35B C 0.15001(16) 0.24600(16) 0.5919(2)
H31B H 0.1605 0.2666 0.6168
C36B C 0.10507(16) 0.23278(16) 0.5935(2)
H32B H 0.0852 0.2445 0.6183
C37B C 0.02827(16) 0.00969(16) 0.60943(17)
H33B H 0.0551 0.0207 0.6273
H34B H 0.0325 -0.0222 0.6005
H35B H 0.0016 0.0128 0.6311
C38B C 0.02147(14) 0.03704(14) 0.56247(16)
C39B C 0.04991(14) 0.02907(14) 0.52118(16)
H36B H 0.0744 0.0085 0.5253
C40B C 0.04440(13) 0.04944(13) 0.47490(15)
C41B C 0.07296(13) 0.03713(14) 0.43142(16)
C42B C 0.09621(13) -0.00403(14) 0.42711(16)
H37B H 0.0953 -0.0254 0.4538
C43B C 0.12030(13) -0.01353(15) 0.38454(16)
H38B H 0.1354 -0.0419 0.3821
C44B C 0.10126(15) 0.05527(16) 0.34937(17)
H39B H 0.1030 0.0760 0.3222
C45B C 0.07593(14) 0.06695(15) 0.39090(17)
H40B H 0.0606 0.0952 0.3919
C46B C 0.42652(18) -0.13780(17) 0.4336(2)
H41B H 0.4482 -0.1286 0.4076
H42B H 0.4075 -0.1624 0.4208
H43B H 0.4430 -0.1482 0.4634
C47B C 0.39711(15) -0.09806(15) 0.44740(19)
C48B C 0.36267(15) -0.08476(15) 0.41507(19)
H44B H 0.3599 -0.1005 0.3841
C49B C 0.33218(14) -0.05032(14) 0.42477(17)
C50B C 0.29378(13) -0.04036(14) 0.39052(16)
C51B C 0.28104(15) -0.06816(16) 0.35140(17)
H45B H 0.2974 -0.0952 0.3445
C52B C 0.24426(15) -0.05614(16) 0.32243(18)
H46B H 0.2352 -0.0761 0.2963
C53B C 0.23316(16) 0.00891(17) 0.36671(17)
H47B H 0.2170 0.0364 0.3719
C54B C 0.26848(16) -0.00128(16) 0.39840(18)
H48B H 0.2756 0.0183 0.4256
C56B C 0.2026(8) 0.1024(4) 0.2752(8)
C57B C 0.1381(2) -0.1040(2) 0.2849(2)
Co1C Co 0.49910(2) 0.16405(2) 0.28093(2)
Fe1C Fe 0.52045(2) 0.37984(2) 0.04691(3)
Fe2C Fe 0.38300(2) -0.01961(2) 0.51454(2)
S2C S 0.3480(2) 0.2246(3) 0.2659(4)
S3C S 0.65883(9) 0.13487(18) 0.29198(14)
O1C O 0.51222(13) 0.42502(12) -0.00837(13)
O2C O 0.46347(12) 0.35136(11) 0.02366(13)
O3C O 0.57895(9) 0.40630(10) 0.48894(12)
O4C O 0.55930(13) 0.34257(13) 0.00117(13)
O5C O 0.52695(12) 0.33103(11) 0.09670(12)
O6C O 0.57491(11) 0.41241(12) 0.07329(14)
O7C O 0.48478(10) 0.41582(10) 0.09614(12)
O8C O 0.34472(11) -0.05055(10) 0.56566(12)
O9C O 0.35424(9) 0.03792(9) 0.53649(11)
O10C O 0.43403(10) -0.01005(9) 0.56302(11)
O11C O 0.41965(9) 0.01488(9) 0.46569(10)
O12C O 0.52480(9) 0.33418(9) 0.46373(11)
N1C N 0.30987(18) 0.29138(18) -0.0022(2)
N2C N 0.51271(14) 0.20540(12) 0.21621(14)
N3C N 0.39146(13) 0.47900(15) 0.23224(14)
N4C N 0.26859(12) 0.17932(12) 0.55747(16)
N5C N 0.48420(13) 0.12351(11) 0.34578(13)
N7C N 0.43274(15) 0.18701(13) 0.28138(14)
N8C N 0.56567(16) 0.14190(13) 0.28151(15)
N10C N 0.51781(13) 0.22052(12) 0.32917(14)
C1C C 0.4780(3) 0.4764(2) -0.0640(3)
H1C H 0.4485 0.4808 -0.0802
H2C H 0.4851 0.5028 -0.0433
H3C H 0.5014 0.4727 -0.0898
C2C C 0.4764(2) 0.43449(19) -0.0314(2)
C3C C 0.4361(2) 0.4094(2) -0.0281(2)
H4C H 0.4100 0.4209 -0.0448
C4C C 0.4320(2) 0.36944(18) -0.0025(2)
C5C C 0.3889(2) 0.34372(19) -0.0030(2)
C6C C 0.3544(2) 0.3508(2) -0.0372(3)
H5C H 0.3570 0.3738 -0.0620
C7C C 0.3163(2) 0.3242(2) -0.0349(3)
H6C H 0.2930 0.3299 -0.0587
C8C C 0.3425(2) 0.2842(2) 0.0310(3)
H7C H 0.3384 0.2610 0.0553
C9C C 0.3827(2) 0.3091(2) 0.0320(3)
H8C H 0.4055 0.3026 0.0561
C10C C 0.5896(3) 0.2804(3) -0.0417(3)
H9C H 0.6198 0.2935 -0.0463
H10C H 0.5712 0.2863 -0.0717
H11C H 0.5922 0.2476 -0.0367
C11C C 0.5670(2) 0.3017(2) 0.0039(2)
C12C C 0.5557(2) 0.2742(2) 0.0453(2)
H12C H 0.5603 0.2425 0.0425
C13C C 0.53834(16) 0.29059(16) 0.08949(18)
C14C C 0.53013(17) 0.25980(15) 0.13277(17)
C15C C 0.54956(19) 0.21722(17) 0.13772(19)
H13C H 0.5689 0.2057 0.1122
C16C C 0.54067(19) 0.19200(16) 0.17965(19)
H14C H 0.5551 0.1634 0.1830
C17C C 0.49337(19) 0.24590(16) 0.21117(18)
H15C H 0.4733 0.2560 0.2367
C18C C 0.50119(18) 0.27368(16) 0.17078(18)
H16C H 0.4868 0.3024 0.1689
C19C C 0.62758(19) 0.4413(3) 0.1310(3)
H17C H 0.6447 0.4134 0.1373
H18C H 0.6273 0.4599 0.1615
H19C H 0.6419 0.4582 0.1036
C20C C 0.57940(17) 0.42941(18) 0.1165(2)
C21C C 0.54452(16) 0.43923(18) 0.14923(19)
H20C H 0.5518 0.4500 0.1818
C22C C 0.49901(16) 0.43398(15) 0.13649(17)
C23C C 0.46264(15) 0.45041(16) 0.17093(17)
C24C C 0.46906(16) 0.48271(18) 0.20790(18)
H21C H 0.4981 0.4957 0.2129
C25C C 0.43295(16) 0.49600(19) 0.2376(2)
H22C H 0.4380 0.5182 0.2628
C26C C 0.38536(17) 0.4481(2) 0.19630(19)
H23C H 0.3560 0.4355 0.1922
C27C C 0.41905(17) 0.43359(19) 0.16513(19)
H24C H 0.4127 0.4121 0.1396
C28C C 0.2767(2) -0.0729(2) 0.6046(3)
H25C H 0.2724 -0.0977 0.5806
H26C H 0.2472 -0.0598 0.6132
H27C H 0.2912 -0.0845 0.6351
C29C C 0.30588(17) -0.03740(16) 0.5816(2)
C30C C 0.29044(17) 0.00710(16) 0.5777(2)
H28C H 0.2609 0.0138 0.5898
C31C C 0.31555(14) 0.04204(15) 0.55735(17)
C32C C 0.29769(15) 0.08966(15) 0.55833(18)
C33C C 0.31275(17) 0.11936(16) 0.5218(2)
H29C H 0.3333 0.1095 0.4967
C34C C 0.29765(18) 0.16328(16) 0.5224(2)
H30C H 0.3081 0.1834 0.4971
C35C C 0.25400(16) 0.15001(16) 0.5919(2)
H31C H 0.2334 0.1605 0.6168
C36C C 0.26722(16) 0.10507(16) 0.5935(2)
H32C H 0.2555 0.0852 0.6183
C37C C 0.49031(16) 0.02827(16) 0.60943(17)
H33C H 0.4793 0.0551 0.6273
H34C H 0.5222 0.0325 0.6005
H35C H 0.4872 0.0016 0.6311
C38C C 0.46296(14) 0.02147(14) 0.56247(16)
C39C C 0.47093(14) 0.04991(14) 0.52118(16)
H36C H 0.4915 0.0744 0.5253
C40C C 0.45056(13) 0.04440(13) 0.47490(15)
C41C C 0.46287(14) 0.07296(13) 0.43142(16)
C42C C 0.50403(14) 0.09621(13) 0.42711(16)
H37C H 0.5254 0.0953 0.4538
C43C C 0.51353(15) 0.12030(13) 0.38454(16)
H38C H 0.5419 0.1354 0.3821
C44C C 0.44473(16) 0.10126(15) 0.34937(17)
H39C H 0.4240 0.1030 0.3222
C45C C 0.43305(15) 0.07593(14) 0.39090(17)
H40C H 0.4048 0.0606 0.3919
C46C C 0.63780(17) 0.42652(18) 0.4336(2)
H41C H 0.6286 0.4482 0.4076
H42C H 0.6624 0.4075 0.4208
H43C H 0.6482 0.4430 0.4634
C47C C 0.59806(15) 0.39711(15) 0.44740(19)
C48C C 0.58476(15) 0.36267(15) 0.41507(19)
H44C H 0.6005 0.3599 0.3841
C49C C 0.55032(14) 0.33218(14) 0.42477(17)
C50C C 0.54036(14) 0.29378(13) 0.39052(16)
C51C C 0.56816(16) 0.28104(15) 0.35140(17)
H45C H 0.5952 0.2974 0.3445
C52C C 0.55614(16) 0.24426(15) 0.32243(18)
H46C H 0.5761 0.2352 0.2963
C53C C 0.49109(17) 0.23316(16) 0.36671(17)
H47C H 0.4636 0.2170 0.3719
C54C C 0.50128(16) 0.26848(16) 0.39840(18)
H48C H 0.4817 0.2756 0.4256
C56C C 0.3976(4) 0.2026(8) 0.2752(8)
C57C C 0.6040(2) 0.1381(2) 0.2849(2)
Cl1 Cl 0.18665(12) 0.39450(13) 0.38405(18)
Cl2 Cl 0.29959(7) 0.59790(9) 0.44507(10)
Cl3 Cl 0.32789(11) 0.68772(11) 0.47888(13)
C60 C 0.3380(3) 0.6426(3) 0.4353(3)
H49 H 0.3347 0.6542 0.4006
H50 H 0.3693 0.6314 0.4395
C59? C 0.3039(17) 0.3956(8) 0.2884(17)
S5? S 0.2879(3) 0.3454(3) 0.3018(10)
loop_
_geom_bond_atom_site_label_1
_geom_bond_atom_site_label_2
_geom_bond_site_symmetry_1
_geom_bond_site_symmetry_2
Co1 N2 1_555 1_555
Co2 O14 1_555 1_555
Co3 O13 1_555 1_555
Fe1 O1 1_555 1_555
Fe2 O8 1_555 1_555
S1 C55 1_555 1_555
S2 C56 1_555 1_555
S3 C57 1_555 1_555
S4 C58 1_555 1_555
O1 C2 1_555 1_555
O2 Fe1 1_555 1_555
O3 C47 1_555 1_555
O4 Fe1 1_555 1_555
O5 Fe1 1_555 1_555
O6 Fe1 1_555 1_555
O7 Fe1 1_555 1_555
O8 C29 1_555 1_555
O9 Fe2 1_555 1_555
O10 Fe2 1_555 1_555
O11 Fe2 1_555 1_555
O12 C49 1_555 1_555
N1 Co2 1_555 1_555
N2 C16 1_555 1_555
N3 C25 1_555 1_555
N4 Co3 1_555 1_555
N5 Co1 1_555 1_555
N6 Co2 1_555 1_555
N7 Co1 1_555 1_555
N8 Co1 1_555 1_555
N9 Co3 1_555 1_555
N10 Co1 1_555 1_555
C1 H1 1_555 1_555
H2 C1 1_555 1_555
H3 C1 1_555 1_555
C2 C1 1_555 1_555
C3 C2 1_555 1_555
H4 C3 1_555 1_555
C4 O2 1_555 1_555
C5 C4 1_555 1_555
C6 C5 1_555 1_555
H5 C6 1_555 1_555
C7 N1 1_555 1_555
H6 C7 1_555 1_555
C8 N1 1_555 1_555
H7 C8 1_555 1_555
C9 C5 1_555 1_555
H8 C9 1_555 1_555
C10 H9 1_555 1_555
H10 C10 1_555 1_555
H11 C10 1_555 1_555
C11 O4 1_555 1_555
C12 C11 1_555 1_555
H12 C12 1_555 1_555
C13 O5 1_555 1_555
C14 C13 1_555 1_555
C15 C14 1_555 1_555
H13 C15 1_555 1_555
C16 C15 1_555 1_555
H14 C16 1_555 1_555
C17 N2 1_555 1_555
H15 C17 1_555 1_555
C18 C14 1_555 1_555
H16 C18 1_555 1_555
C19 H17 1_555 1_555
H18 C19 1_555 1_555
H19 C19 1_555 1_555
C20 O6 1_555 1_555
C21 C20 1_555 1_555
H20 C21 1_555 1_555
C22 O7 1_555 1_555
C23 C22 1_555 1_555
C24 C23 1_555 1_555
H21 C24 1_555 1_555
C25 C24 1_555 1_555
H22 C25 1_555 1_555
C26 N3 1_555 1_555
H23 C26 1_555 1_555
C27 C23 1_555 1_555
H24 C27 1_555 1_555
C28 H25 1_555 1_555
H26 C28 1_555 1_555
H27 C28 1_555 1_555
C29 C28 1_555 1_555
C30 C29 1_555 1_555
H28 C30 1_555 1_555
C31 O9 1_555 1_555
C32 C31 1_555 1_555
C33 C32 1_555 1_555
H29 C33 1_555 1_555
C34 N4 1_555 1_555
H30 C34 1_555 1_555
C35 N4 1_555 1_555
H31 C35 1_555 1_555
C36 C32 1_555 1_555
H32 C36 1_555 1_555
C37 H33 1_555 1_555
H34 C37 1_555 1_555
H35 C37 1_555 1_555
C38 O10 1_555 1_555
C39 C38 1_555 1_555
H36 C39 1_555 1_555
C40 O11 1_555 1_555
C41 C40 1_555 1_555
C42 C41 1_555 1_555
H37 C42 1_555 1_555
C43 N5 1_555 1_555
H38 C43 1_555 1_555
C44 N5 1_555 1_555
H39 C44 1_555 1_555
C45 C41 1_555 1_555
H40 C45 1_555 1_555
C46 H41 1_555 1_555
H42 C46 1_555 1_555
H43 C46 1_555 1_555
C47 C46 1_555 1_555
C48 C47 1_555 1_555
H44 C48 1_555 1_555
C49 C48 1_555 1_555
C50 C49 1_555 1_555
C51 C50 1_555 1_555
H45 C51 1_555 1_555
C52 N10 1_555 1_555
H46 C52 1_555 1_555
C53 N10 1_555 1_555
H47 C53 1_555 1_555
C54 C50 1_555 1_555
H48 C54 1_555 1_555
C55 N6 1_555 1_555
C56 N7 1_555 1_555
C57 N8 1_555 1_555
C58 N9 1_555 1_555
Cl2 C60 1_555 1_555
Cl3 C60 1_555 1_555
C60 H49 1_555 1_555
H50 C60 1_555 1_555
Co1A N3 1_555 1_555
Fe1A O1A 1_555 1_555
Fe2A O3 1_555 1_555
S2A C56A 1_555 1_555
S3A C57A 1_555 1_555
O1A C2A 1_555 1_555
O2A Fe1A 1_555 1_555
O3A C47A 1_555 1_555
O4A Fe1A 1_555 1_555
O5A Fe1A 1_555 1_555
O6A Fe1A 1_555 1_555
O7A Fe1A 1_555 1_555
O8A Fe2A 1_555 1_555
O9A Fe2A 1_555 1_555
O10A Fe2A 1_555 1_555
O11A Fe2A 1_555 1_555
O12A C49A 1_555 1_555
N1A Co2 1_555 1_555
N2A Co1A 1_555 1_555
N3A C25A 1_555 1_555
N4A Co3 1_555 1_555
N5A Co1A 1_555 1_555
N7A Co1A 1_555 1_555
N8A Co1A 1_555 1_555
N10A Co1A 1_555 1_555
C1A H1A 1_555 1_555
H2A C1A 1_555 1_555
H3A C1A 1_555 1_555
C2A C1A 1_555 1_555
C3A C2A 1_555 1_555
H4A C3A 1_555 1_555
C4A O2A 1_555 1_555
C5A C4A 1_555 1_555
C6A C5A 1_555 1_555
H5A C6A 1_555 1_555
C7A N1A 1_555 1_555
H6A C7A 1_555 1_555
C8A N1A 1_555 1_555
H7A C8A 1_555 1_555
C9A C5A 1_555 1_555
H8A C9A 1_555 1_555
C10A H9A 1_555 1_555
H10A C10A 1_555 1_555
H11A C10A 1_555 1_555
C11A O4A 1_555 1_555
C12A C11A 1_555 1_555
H12A C12A 1_555 1_555
C13A O5A 1_555 1_555
C14A C13A 1_555 1_555
C15A C14A 1_555 1_555
H13A C15A 1_555 1_555
C16A N2A 1_555 1_555
H14A C16A 1_555 1_555
C17A N2A 1_555 1_555
H15A C17A 1_555 1_555
C18A C14A 1_555 1_555
H16A C18A 1_555 1_555
C19A H17A 1_555 1_555
H18A C19A 1_555 1_555
H19A C19A 1_555 1_555
C20A O6A 1_555 1_555
C21A C20A 1_555 1_555
H20A C21A 1_555 1_555
C22A O7A 1_555 1_555
C23A C22A 1_555 1_555
C24A C23A 1_555 1_555
H21A C24A 1_555 1_555
C25A C24A 1_555 1_555
H22A C25A 1_555 1_555
C26A N3A 1_555 1_555
H23A C26A 1_555 1_555
C27A C23A 1_555 1_555
H24A C27A 1_555 1_555
C28A H25A 1_555 1_555
H26A C28A 1_555 1_555
H27A C28A 1_555 1_555
C29A O8A 1_555 1_555
C30A C29A 1_555 1_555
H28A C30A 1_555 1_555
C31A O9A 1_555 1_555
C32A C31A 1_555 1_555
C33A C32A 1_555 1_555
H29A C33A 1_555 1_555
C34A N4A 1_555 1_555
H30A C34A 1_555 1_555
C35A N4A 1_555 1_555
H31A C35A 1_555 1_555
C36A C32A 1_555 1_555
H32A C36A 1_555 1_555
C37A H33A 1_555 1_555
H34A C37A 1_555 1_555
H35A C37A 1_555 1_555
C38A O10A 1_555 1_555
C39A C38A 1_555 1_555
H36A C39A 1_555 1_555
C40A O11A 1_555 1_555
C41A C40A 1_555 1_555
C42A C41A 1_555 1_555
H37A C42A 1_555 1_555
C43A N5A 1_555 1_555
H38A C43A 1_555 1_555
C44A N5A 1_555 1_555
H39A C44A 1_555 1_555
C45A C41A 1_555 1_555
H40A C45A 1_555 1_555
C46A H41A 1_555 1_555
H42A C46A 1_555 1_555
H43A C46A 1_555 1_555
C47A C46A 1_555 1_555
C48A C47A 1_555 1_555
H44A C48A 1_555 1_555
C49A C48A 1_555 1_555
C50A C49A 1_555 1_555
C51A C50A 1_555 1_555
H45A C51A 1_555 1_555
C52A N10A 1_555 1_555
H46A C52A 1_555 1_555
C53A N10A 1_555 1_555
H47A C53A 1_555 1_555
C54A C50A 1_555 1_555
H48A C54A 1_555 1_555
C56A N7A 1_555 1_555
C57A N8A 1_555 1_555
Co1B N3A 1_555 1_555
Fe1B O1B 1_555 1_555
Fe2B O3A 1_555 1_555
S2B C56B 1_555 1_555
S3B C57B 1_555 1_555
O1B C2B 1_555 1_555
O2B Fe1B 1_555 1_555
O3B C47B 1_555 1_555
O4B Fe1B 1_555 1_555
O5B Fe1B 1_555 1_555
O6B Fe1B 1_555 1_555
O7B Fe1B 1_555 1_555
O8B Fe2B 1_555 1_555
O9B Fe2B 1_555 1_555
O10B Fe2B 1_555 1_555
O11B Fe2B 1_555 1_555
O12B C49B 1_555 1_555
N1B Co2 1_555 1_555
N2B Co1B 1_555 1_555
N3B C25B 1_555 1_555
N4B Co3 1_555 1_555
N5B Co1B 1_555 1_555
N7B Co1B 1_555 1_555
N8B Co1B 1_555 1_555
N10B Co1B 1_555 1_555
C1B H1B 1_555 1_555
H2B C1B 1_555 1_555
H3B C1B 1_555 1_555
C2B C1B 1_555 1_555
C3B C2B 1_555 1_555
H4B C3B 1_555 1_555
C4B O2B 1_555 1_555
C5B C4B 1_555 1_555
C6B C5B 1_555 1_555
H5B C6B 1_555 1_555
C7B N1B 1_555 1_555
H6B C7B 1_555 1_555
C8B N1B 1_555 1_555
H7B C8B 1_555 1_555
C9B C5B 1_555 1_555
H8B C9B 1_555 1_555
C10B H9B 1_555 1_555
H10B C10B 1_555 1_555
H11B C10B 1_555 1_555
C11B O4B 1_555 1_555
C12B C11B 1_555 1_555
H12B C12B 1_555 1_555
C13B O5B 1_555 1_555
C14B C13B 1_555 1_555
C15B C14B 1_555 1_555
H13B C15B 1_555 1_555
C16B N2B 1_555 1_555
H14B C16B 1_555 1_555
C17B N2B 1_555 1_555
H15B C17B 1_555 1_555
C18B C14B 1_555 1_555
H16B C18B 1_555 1_555
C19B H17B 1_555 1_555
H18B C19B 1_555 1_555
H19B C19B 1_555 1_555
C20B O6B 1_555 1_555
C21B C20B 1_555 1_555
H20B C21B 1_555 1_555
C22B O7B 1_555 1_555
C23B C22B 1_555 1_555
C24B C23B 1_555 1_555
H21B C24B 1_555 1_555
C25B C24B 1_555 1_555
H22B C25B 1_555 1_555
C26B N3B 1_555 1_555
H23B C26B 1_555 1_555
C27B C23B 1_555 1_555
H24B C27B 1_555 1_555
C28B H25B 1_555 1_555
H26B C28B 1_555 1_555
H27B C28B 1_555 1_555
C29B O8B 1_555 1_555
C30B C29B 1_555 1_555
H28B C30B 1_555 1_555
C31B O9B 1_555 1_555
C32B C31B 1_555 1_555
C33B C32B 1_555 1_555
H29B C33B 1_555 1_555
C34B N4B 1_555 1_555
H30B C34B 1_555 1_555
C35B N4B 1_555 1_555
H31B C35B 1_555 1_555
C36B C32B 1_555 1_555
H32B C36B 1_555 1_555
C37B H33B 1_555 1_555
H34B C37B 1_555 1_555
H35B C37B 1_555 1_555
C38B O10B 1_555 1_555
C39B C38B 1_555 1_555
H36B C39B 1_555 1_555
C40B O11B 1_555 1_555
C41B C40B 1_555 1_555
C42B C41B 1_555 1_555
H37B C42B 1_555 1_555
C43B N5B 1_555 1_555
H38B C43B 1_555 1_555
C44B N5B 1_555 1_555
H39B C44B 1_555 1_555
C45B C41B 1_555 1_555
H40B C45B 1_555 1_555
C46B H41B 1_555 1_555
H42B C46B 1_555 1_555
H43B C46B 1_555 1_555
C47B C46B 1_555 1_555
C48B C47B 1_555 1_555
H44B C48B 1_555 1_555
C49B C48B 1_555 1_555
C50B C49B 1_555 1_555
C51B C50B 1_555 1_555
H45B C51B 1_555 1_555
C52B N10B 1_555 1_555
H46B C52B 1_555 1_555
C53B N10B 1_555 1_555
H47B C53B 1_555 1_555
C54B C50B 1_555 1_555
H48B C54B 1_555 1_555
C56B N7B 1_555 1_555
C57B N8B 1_555 1_555
Co1C N3B 1_555 1_555
Fe1C O1C 1_555 1_555
Fe2C O3B 1_555 1_555
S2C C56C 1_555 1_555
S3C C57C 1_555 1_555
O1C C2C 1_555 1_555
O2C Fe1C 1_555 1_555
O3C Fe2 1_555 1_555
O4C Fe1C 1_555 1_555
O5C Fe1C 1_555 1_555
O6C Fe1C 1_555 1_555
O7C Fe1C 1_555 1_555
O8C Fe2C 1_555 1_555
O9C Fe2C 1_555 1_555
O10C Fe2C 1_555 1_555
O11C Fe2C 1_555 1_555
O12C Fe2 1_555 1_555
N1C Co2 1_555 1_555
N2C Co1C 1_555 1_555
N3C Co1 1_555 1_555
N4C Co3 1_555 1_555
N5C Co1C 1_555 1_555
N7C Co1C 1_555 1_555
N8C Co1C 1_555 1_555
N10C Co1C 1_555 1_555
C1C H1C 1_555 1_555
H2C C1C 1_555 1_555
H3C C1C 1_555 1_555
C2C C1C 1_555 1_555
C3C C2C 1_555 1_555
H4C C3C 1_555 1_555
C4C O2C 1_555 1_555
C5C C4C 1_555 1_555
C6C C5C 1_555 1_555
H5C C6C 1_555 1_555
C7C N1C 1_555 1_555
H6C C7C 1_555 1_555
C8C N1C 1_555 1_555
H7C C8C 1_555 1_555
C9C C5C 1_555 1_555
H8C C9C 1_555 1_555
C10C H9C 1_555 1_555
H10C C10C 1_555 1_555
H11C C10C 1_555 1_555
C11C O4C 1_555 1_555
C12C C11C 1_555 1_555
H12C C12C 1_555 1_555
C13C O5C 1_555 1_555
C14C C13C 1_555 1_555
C15C C14C 1_555 1_555
H13C C15C 1_555 1_555
C16C N2C 1_555 1_555
H14C C16C 1_555 1_555
C17C N2C 1_555 1_555
H15C C17C 1_555 1_555
C18C C14C 1_555 1_555
H16C C18C 1_555 1_555
C19C H17C 1_555 1_555
H18C C19C 1_555 1_555
H19C C19C 1_555 1_555
C20C O6C 1_555 1_555
C21C C20C 1_555 1_555
H20C C21C 1_555 1_555
C22C O7C 1_555 1_555
C23C C22C 1_555 1_555
C24C C23C 1_555 1_555
H21C C24C 1_555 1_555
C25C N3C 1_555 1_555
H22C C25C 1_555 1_555
C26C N3C 1_555 1_555
H23C C26C 1_555 1_555
C27C C23C 1_555 1_555
H24C C27C 1_555 1_555
C28C H25C 1_555 1_555
H26C C28C 1_555 1_555
H27C C28C 1_555 1_555
C29C O8C 1_555 1_555
C30C C29C 1_555 1_555
H28C C30C 1_555 1_555
C31C O9C 1_555 1_555
C32C C31C 1_555 1_555
C33C C32C 1_555 1_555
H29C C33C 1_555 1_555
C34C N4C 1_555 1_555
H30C C34C 1_555 1_555
C35C N4C 1_555 1_555
H31C C35C 1_555 1_555
C36C C32C 1_555 1_555
H32C C36C 1_555 1_555
C37C H33C 1_555 1_555
H34C C37C 1_555 1_555
H35C C37C 1_555 1_555
C38C O10C 1_555 1_555
C39C C38C 1_555 1_555
H36C C39C 1_555 1_555
C40C O11C 1_555 1_555
C41C C40C 1_555 1_555
C42C C41C 1_555 1_555
H37C C42C 1_555 1_555
C43C N5C 1_555 1_555
H38C C43C 1_555 1_555
C44C N5C 1_555 1_555
H39C C44C 1_555 1_555
C45C C41C 1_555 1_555
H40C C45C 1_555 1_555
C46C H41C 1_555 1_555
H42C C46C 1_555 1_555
H43C C46C 1_555 1_555
C47C O3C 1_555 1_555
C48C C47C 1_555 1_555
H44C C48C 1_555 1_555
C49C O12C 1_555 1_555
C50C C49C 1_555 1_555
C51C C50C 1_555 1_555
H45C C51C 1_555 1_555
C52C N10C 1_555 1_555
H46C C52C 1_555 1_555
C53C N10C 1_555 1_555
H47C C53C 1_555 1_555
C54C C50C 1_555 1_555
H48C C54C 1_555 1_555
C56C N7C 1_555 1_555
C57C N8C 1_555 1_555
O12 Fe2A 1_555 1_555
C3 C4 1_555 1_555
C6 C7 1_555 1_555
C8 C9 1_555 1_555
C10 C11 1_555 1_555
C12 C13 1_555 1_555
C17 C18 1_555 1_555
C19 C20 1_555 1_555
C21 C22 1_555 1_555
C26 C27 1_555 1_555
C30 C31 1_555 1_555
C33 C34 1_555 1_555
C35 C36 1_555 1_555
C37 C38 1_555 1_555
C39 C40 1_555 1_555
C42 C43 1_555 1_555
C44 C45 1_555 1_555
C51 C52 1_555 1_555
C53 C54 1_555 1_555
O12A Fe2B 1_555 1_555
C3A C4A 1_555 1_555
C6A C7A 1_555 1_555
C8A C9A 1_555 1_555
C10A C11A 1_555 1_555
C12A C13A 1_555 1_555
C15A C16A 1_555 1_555
C17A C18A 1_555 1_555
C19A C20A 1_555 1_555
C21A C22A 1_555 1_555
C26A C27A 1_555 1_555
C28A C29A 1_555 1_555
C30A C31A 1_555 1_555
C33A C34A 1_555 1_555
C35A C36A 1_555 1_555
C37A C38A 1_555 1_555
C39A C40A 1_555 1_555
C42A C43A 1_555 1_555
C44A C45A 1_555 1_555
C51A C52A 1_555 1_555
C53A C54A 1_555 1_555
O12B Fe2C 1_555 1_555
C3B C4B 1_555 1_555
C6B C7B 1_555 1_555
C8B C9B 1_555 1_555
C10B C11B 1_555 1_555
C12B C13B 1_555 1_555
C15B C16B 1_555 1_555
C17B C18B 1_555 1_555
C19B C20B 1_555 1_555
C21B C22B 1_555 1_555
C26B C27B 1_555 1_555
C28B C29B 1_555 1_555
C30B C31B 1_555 1_555
C33B C34B 1_555 1_555
C35B C36B 1_555 1_555
C37B C38B 1_555 1_555
C39B C40B 1_555 1_555
C42B C43B 1_555 1_555
C44B C45B 1_555 1_555
C51B C52B 1_555 1_555
C53B C54B 1_555 1_555
C3C C4C 1_555 1_555
C6C C7C 1_555 1_555
C8C C9C 1_555 1_555
C10C C11C 1_555 1_555
C12C C13C 1_555 1_555
C15C C16C 1_555 1_555
C17C C18C 1_555 1_555
C19C C20C 1_555 1_555
C21C C22C 1_555 1_555
C24C C25C 1_555 1_555
C26C C27C 1_555 1_555
C28C C29C 1_555 1_555
C30C C31C 1_555 1_555
C33C C34C 1_555 1_555
C35C C36C 1_555 1_555
C37C C38C 1_555 1_555
C39C C40C 1_555 1_555
C42C C43C 1_555 1_555
C44C C45C 1_555 1_555
C46C C47C 1_555 1_555
C48C C49C 1_555 1_555
C51C C52C 1_555 1_555
C53C C54C 1_555 1_555

#END
