
#######################################################################
#
#                 Cambridge Crystallographic Data Centre
#                                CCDC 
#
#######################################################################
#
# If this CIF has been generated from an entry in the Cambridge 
# Structural Database, then it will include bibliographic, chemical, 
# crystal, experimental, refinement or atomic coordinate data resulting 
# from the CCDC's data processing and validation procedures.
#
#######################################################################

data_QELXEN
_chemical_formula_moiety         'C227 H192 Cl1 Fe8 N35 Ni6 O48 S11'
_chemical_name_systematic        
'tetracosakis(\m-1-(4-pyridyl)butane-1,3-dionato)-chloro-undecakis(isothiocyanato)-octa-iron(iii)-hexa-nickel(ii) unknown solvate'
_symmetry_cell_setting           tetragonal
_symmetry_space_group_name_H-M   'P 4/n'
_symmetry_Int_Tables_number      85
_space_group_name_Hall           '-P 4a'
loop_
_symmetry_equiv_pos_site_id
_symmetry_equiv_pos_as_xyz
1 x,y,z
2 1/2-x,1/2-y,z
3 1/2-y,x,z
4 y,1/2-x,z
5 -x,-y,-z
6 1/2+x,1/2+y,-z
7 1/2+y,-x,-z
8 -y,1/2+x,-z
_cell_length_a                   29.644(12)
_cell_length_b                   29.644(12)
_cell_length_c                   26.851(10)
_cell_angle_alpha                90
_cell_angle_beta                 90
_cell_angle_gamma                90
_cell_volume                     23595.8
_exptl_crystal_colour            red
_exptl_crystal_description       prism
_cell_formula_units_Z            2
loop_
_atom_site_label
_atom_site_type_symbol
_atom_site_fract_x
_atom_site_fract_y
_atom_site_fract_z
Ni1 Ni 0.7500 0.7500 0.44127(6)
Ni2 Ni 0.50164(3) 0.66419(2) 0.72238(3)
Ni3 Ni 0.7500 0.7500 1.00800(10)
Fe1 Fe 0.47913(3) 0.87908(3) 0.95504(4)
Fe2 Fe 0.61683(3) 0.48150(2) 0.48955(3)
S1 S 0.7605(14) 0.7242(7) 0.6181(4)
S2 S 0.65603(12) 0.71720(15) 0.73275(18)
S3 S 0.7500 0.7500 0.8289(4)
O1 O 0.48685(17) 0.92481(15) 1.00960(17)
O2 O 0.53612(16) 0.85113(14) 0.97835(16)
O3 O 0.42447(15) 0.91150(16) 0.9295(2)
O4 O 0.51423(13) 0.91528(13) 0.90543(16)
O5 O 0.44001(18) 0.84140(17) 1.00085(18)
O6 O 0.47217(15) 0.82971(13) 0.90560(16)
O7 O 0.59324(13) 0.42242(12) 0.51490(16)
O8 O 0.66631(12) 0.47539(12) 0.53943(15)
O9 O 0.65318(14) 0.44934(12) 0.43613(15)
O10 O 0.64629(12) 0.53849(11) 0.46634(15)
O11 O 0.56490(13) 0.49154(12) 0.44191(14)
O12 O 0.58120(12) 0.51662(11) 0.53835(14)
N1 N 0.6906(3) 0.7894(3) 1.0084(3)
N2 N 0.60930(16) 0.97905(18) 0.77010(18)
N3 N 0.48814(17) 0.70350(15) 0.78566(17)
N4 N 0.78026(15) 0.48271(15) 0.67578(17)
N5 N 0.72962(14) 0.68151(15) 0.44099(19)
N6 N 0.51608(16) 0.62528(14) 0.65927(17)
N7 N 0.7500 0.7500 0.5168(5)
N8 N 0.56776(19) 0.68728(16) 0.72236(18)
N9 N 0.7500 0.7500 0.9318(8)
N10 N 0.43571(19) 0.64146(18) 0.72259(19)
C1 C 0.5216(4) 0.9753(3) 1.0682(4)
H1 H 0.4944 0.9930 1.0612
H2 H 0.5484 0.9936 1.0612
H3 H 0.5217 0.9662 1.1032
C2 C 0.7047(2) 0.50776(19) 0.4161(3)
H4 H 0.7322 0.5145 0.3995
C3 C 0.5221(3) 0.9330(2) 1.0348(3)
C4 C 0.5625(3) 0.9063(3) 1.0345(3)
H5 H 0.5872 0.9161 1.0542
C5 C 0.5673(3) 0.8668(2) 1.0068(3)
C6 C 0.6101(3) 0.8405(2) 1.0075(3)
C7 C 0.6177(3) 0.8066(2) 0.9749(3)
H6 H 0.5951 0.7991 0.9512
C8 C 0.6575(3) 0.7828(3) 0.9755(4)
H7 H 0.6617 0.7603 0.9508
C9 C 0.6838(3) 0.8224(3) 1.0406(4)
H8 H 0.7069 0.8288 1.0641
C10 C 0.6434(3) 0.8490(3) 1.0419(4)
H9 H 0.6397 0.8721 1.0661
C11 C 0.3711(3) 0.9409(4) 0.8695(4)
H10 H 0.3513 0.9155 0.8777
H11 H 0.3702 0.9464 0.8336
H12 H 0.3608 0.9679 0.8872
C12 C 0.4194(2) 0.9297(3) 0.8853(3)
C13 C 0.4549(2) 0.9398(2) 0.8522(3)
H13 H 0.4480 0.9518 0.8203
C14 C 0.5003(2) 0.93272(19) 0.8651(2)
C15 C 0.53643(19) 0.9498(2) 0.8304(2)
C16 C 0.5306(2) 0.9826(2) 0.7940(2)
H14 H 0.5017 0.9958 0.7894
C17 C 0.56637(19) 0.9964(2) 0.7642(2)
H15 H 0.5611 1.0183 0.7391
C18 C 0.6150(2) 0.9470(2) 0.8055(2)
H16 H 0.6443 0.9345 0.8101
C19 C 0.5812(2) 0.9319(2) 0.8347(2)
H17 H 0.5871 0.9090 0.8586
C20 C 0.4142(5) 0.7785(3) 1.0444(4)
H18 H 0.4106 0.7460 1.0394
H19 H 0.3847 0.7921 1.0512
H20 H 0.4343 0.7840 1.0727
C21 C 0.4337(3) 0.7990(3) 0.9990(3)
C22 C 0.4445(3) 0.7722(3) 0.9581(3)
H21 H 0.4396 0.7406 0.9608
C23 C 0.4617(2) 0.7883(2) 0.9137(2)
C24 C 0.4707(2) 0.75708(19) 0.8697(2)
C25 C 0.4524(2) 0.7139(2) 0.8654(2)
H22 H 0.4332 0.7019 0.8905
C26 C 0.4630(2) 0.6896(2) 0.8243(2)
H23 H 0.4515 0.6597 0.8226
C27 C 0.5063(2) 0.74515(19) 0.7908(2)
H24 H 0.5263 0.7555 0.7655
C28 C 0.4976(2) 0.7738(2) 0.8307(2)
H25 H 0.5095 0.8036 0.8316
C29 C 0.5724(2) 0.3636(2) 0.5729(3)
H26 H 0.5445 0.3752 0.5879
H27 H 0.5884 0.3448 0.5972
H28 H 0.5649 0.3455 0.5435
C30 C 0.6026(2) 0.4033(2) 0.5574(3)
C31 C 0.63766(19) 0.41661(19) 0.5898(2)
H29 H 0.6405 0.4013 0.6208
C32 C 0.66779(19) 0.45025(18) 0.5793(2)
C33 C 0.70647(18) 0.46103(19) 0.6138(2)
C34 C 0.7222(2) 0.4318(2) 0.6513(2)
H30 H 0.7079 0.4036 0.6569
C35 C 0.7586(2) 0.4447(2) 0.6794(3)
H31 H 0.7690 0.4239 0.7039
C36 C 0.7652(2) 0.5108(2) 0.6412(2)
H32 H 0.7803 0.5389 0.6373
C37 C 0.72866(19) 0.5017(2) 0.6101(2)
H33 H 0.7191 0.5235 0.5864
C38 C 0.7143(2) 0.4289(2) 0.3838(3)
H34 H 0.7189 0.4016 0.4037
H35 H 0.7435 0.4413 0.3738
H36 H 0.6966 0.4215 0.3540
C39 C 0.6892(2) 0.46344(19) 0.4144(2)
C40 C 0.68218(19) 0.54367(18) 0.4409(2)
C41 C 0.69992(18) 0.59128(18) 0.4399(2)
C42 C 0.73181(19) 0.6058(2) 0.4057(2)
H37 H 0.7440 0.5860 0.3814
C43 C 0.7455(2) 0.6516(2) 0.4086(3)
H38 H 0.7676 0.6616 0.3856
C44 C 0.69972(19) 0.66632(19) 0.4745(3)
H39 H 0.6880 0.6870 0.4982
C45 C 0.68499(19) 0.62143(19) 0.4761(3)
H40 H 0.6650 0.6117 0.5016
C46 C 0.5098(2) 0.53085(19) 0.3956(2)
H41 H 0.5179 0.5601 0.3811
H42 H 0.4776 0.5304 0.4034
H43 H 0.5167 0.5069 0.3716
C47 C 0.53638(19) 0.52345(19) 0.4420(2)
C48 C 0.5302(2) 0.5524(2) 0.4837(2)
H44 H 0.5109 0.5778 0.4798
C49 C 0.55010(18) 0.54604(17) 0.5286(2)
C50 C 0.53683(18) 0.57507(16) 0.5735(2)
C51 C 0.49596(18) 0.59757(17) 0.5773(2)
H45 H 0.4746 0.5965 0.5510
C52 C 0.4869(2) 0.62163(18) 0.6204(2)
H46 H 0.4586 0.6365 0.6229
C53 C 0.5560(2) 0.60396(19) 0.6544(2)
H47 H 0.5776 0.6066 0.6804
C54 C 0.5668(2) 0.57813(19) 0.6126(2)
H48 H 0.5948 0.5626 0.6111
C55 C 0.7500 0.7500 0.5542(8)
C56 C 0.6031(3) 0.6998(2) 0.7260(3)
C57 C 0.7500 0.7500 0.8959(11)
Cl1 Cl 0.7500 0.7500 1.1048(2)
S4 S 0.3503(4) 0.6058(7) 0.7398(4)
C58 C 0.4001(10) 0.6262(13) 0.728(2)
S5 S 0.7500 0.7500 0.2591(3)
N11 N 0.7500 0.7500 0.36373(17)
C59 C 0.7500 0.7500 0.3204(3)
S1A S 0.7395(14) 0.7758(7) 0.6181(4)
S1B S 0.7758(7) 0.7605(14) 0.6181(4)
S1C S 0.7242(7) 0.7395(14) 0.6181(4)
Ni2A Ni 0.99836(3) 0.83581(2) 0.72238(3)
Fe1A Fe 1.02087(3) 0.62092(3) 0.95504(4)
Fe2A Fe 0.88317(3) 1.01850(2) 0.48955(3)
S2A S 0.84397(12) 0.78280(15) 0.73275(18)
O1A O 1.01315(17) 0.57519(15) 1.00960(17)
O2A O 0.96388(16) 0.64887(14) 0.97835(16)
O3A O 1.07553(15) 0.58850(16) 0.9295(2)
O4A O 0.98577(13) 0.58472(13) 0.90543(16)
O5A O 1.05999(18) 0.65860(17) 1.00085(18)
O6A O 1.02783(15) 0.67029(13) 0.90560(16)
O7A O 0.90676(13) 1.07758(12) 0.51490(16)
O8A O 0.83369(12) 1.02461(12) 0.53943(15)
O9A O 0.84682(14) 1.05066(12) 0.43613(15)
O10A O 0.85371(12) 0.96151(11) 0.46634(15)
O11A O 0.93510(13) 1.00846(12) 0.44191(14)
O12A O 0.91880(12) 0.98338(11) 0.53835(14)
N1A N 0.8094(3) 0.7106(3) 1.0084(3)
N2A N 0.89070(16) 0.52095(18) 0.77010(18)
N3A N 1.01186(17) 0.79650(15) 0.78566(17)
N4A N 0.71974(15) 1.01729(15) 0.67578(17)
N5A N 0.77038(14) 0.81849(15) 0.44099(19)
N6A N 0.98392(16) 0.87472(14) 0.65927(17)
N8A N 0.93224(19) 0.81272(16) 0.72236(18)
N10A N 1.06429(19) 0.85854(18) 0.72259(19)
C1A C 0.9784(4) 0.5247(3) 1.0682(4)
H1A H 1.0056 0.5070 1.0612
H2A H 0.9516 0.5064 1.0612
H3A H 0.9783 0.5338 1.1032
C2A C 0.7953(2) 0.99224(19) 0.4161(3)
H4A H 0.7678 0.9855 0.3995
C3A C 0.9779(3) 0.5670(2) 1.0348(3)
C4A C 0.9375(3) 0.5937(3) 1.0345(3)
H5A H 0.9128 0.5839 1.0542
C5A C 0.9327(3) 0.6332(2) 1.0068(3)
C6A C 0.8899(3) 0.6595(2) 1.0075(3)
C7A C 0.8823(3) 0.6934(2) 0.9749(3)
H6A H 0.9049 0.7009 0.9512
C8A C 0.8425(3) 0.7172(3) 0.9755(4)
H7A H 0.8383 0.7397 0.9508
C9A C 0.8162(3) 0.6776(3) 1.0406(4)
H8A H 0.7931 0.6712 1.0641
C10A C 0.8566(3) 0.6510(3) 1.0419(4)
H9A H 0.8603 0.6279 1.0661
C11A C 1.1289(3) 0.5591(4) 0.8695(4)
H10A H 1.1487 0.5845 0.8777
H11A H 1.1298 0.5536 0.8336
H12A H 1.1392 0.5321 0.8872
C12A C 1.0806(2) 0.5703(3) 0.8853(3)
C13A C 1.0451(2) 0.5602(2) 0.8522(3)
H13A H 1.0520 0.5482 0.8203
C14A C 0.9997(2) 0.56728(19) 0.8651(2)
C15A C 0.96357(19) 0.5502(2) 0.8304(2)
C16A C 0.9694(2) 0.5174(2) 0.7940(2)
H14A H 0.9983 0.5042 0.7894
C17A C 0.93363(19) 0.5036(2) 0.7642(2)
H15A H 0.9389 0.4817 0.7391
C18A C 0.8850(2) 0.5530(2) 0.8055(2)
H16A H 0.8557 0.5655 0.8101
C19A C 0.9188(2) 0.5681(2) 0.8347(2)
H17A H 0.9129 0.5910 0.8586
C20A C 1.0858(5) 0.7215(3) 1.0444(4)
H18A H 1.0894 0.7540 1.0394
H19A H 1.1153 0.7079 1.0512
H20A H 1.0657 0.7160 1.0727
C21A C 1.0663(3) 0.7010(3) 0.9990(3)
C22A C 1.0555(3) 0.7278(3) 0.9581(3)
H21A H 1.0604 0.7594 0.9608
C23A C 1.0383(2) 0.7117(2) 0.9137(2)
C24A C 1.0293(2) 0.74292(19) 0.8697(2)
C25A C 1.0476(2) 0.7861(2) 0.8654(2)
H22A H 1.0668 0.7981 0.8905
C26A C 1.0370(2) 0.8104(2) 0.8243(2)
H23A H 1.0485 0.8403 0.8226
C27A C 0.9937(2) 0.75485(19) 0.7908(2)
H24A H 0.9737 0.7445 0.7655
C28A C 1.0024(2) 0.7262(2) 0.8307(2)
H25A H 0.9905 0.6964 0.8316
C29A C 0.9276(2) 1.1364(2) 0.5729(3)
H26A H 0.9555 1.1248 0.5879
H27A H 0.9116 1.1552 0.5972
H28A H 0.9351 1.1545 0.5435
C30A C 0.8974(2) 1.0967(2) 0.5574(3)
C31A C 0.86234(19) 1.08339(19) 0.5898(2)
H29A H 0.8595 1.0987 0.6208
C32A C 0.83221(19) 1.04975(18) 0.5793(2)
C33A C 0.79353(18) 1.03897(19) 0.6138(2)
C34A C 0.7778(2) 1.0682(2) 0.6513(2)
H30A H 0.7921 1.0964 0.6569
C35A C 0.7414(2) 1.0553(2) 0.6794(3)
H31A H 0.7310 1.0761 0.7039
C36A C 0.7348(2) 0.9892(2) 0.6412(2)
H32A H 0.7197 0.9611 0.6373
C37A C 0.77134(19) 0.9983(2) 0.6101(2)
H33A H 0.7809 0.9765 0.5864
C38A C 0.7857(2) 1.0711(2) 0.3838(3)
H34A H 0.7811 1.0984 0.4037
H35A H 0.7565 1.0587 0.3738
H36A H 0.8034 1.0785 0.3540
C39A C 0.8108(2) 1.03656(19) 0.4144(2)
C40A C 0.81782(19) 0.95633(18) 0.4409(2)
C41A C 0.80008(18) 0.90872(18) 0.4399(2)
C42A C 0.76819(19) 0.8942(2) 0.4057(2)
H37A H 0.7560 0.9140 0.3814
C43A C 0.7545(2) 0.8484(2) 0.4086(3)
H38A H 0.7324 0.8384 0.3856
C44A C 0.80028(19) 0.83368(19) 0.4745(3)
H39A H 0.8120 0.8130 0.4982
C45A C 0.81501(19) 0.87857(19) 0.4761(3)
H40A H 0.8350 0.8883 0.5016
C46A C 0.9902(2) 0.96915(19) 0.3956(2)
H41A H 0.9821 0.9399 0.3811
H42A H 1.0224 0.9696 0.4034
H43A H 0.9833 0.9931 0.3716
C47A C 0.96362(19) 0.97655(19) 0.4420(2)
C48A C 0.9698(2) 0.9476(2) 0.4837(2)
H44A H 0.9891 0.9222 0.4798
C49A C 0.94990(18) 0.95396(17) 0.5286(2)
C50A C 0.96317(18) 0.92493(16) 0.5735(2)
C51A C 1.00404(18) 0.90243(17) 0.5773(2)
H45A H 1.0254 0.9035 0.5510
C52A C 1.0131(2) 0.87837(18) 0.6204(2)
H46A H 1.0414 0.8635 0.6229
C53A C 0.9440(2) 0.89604(19) 0.6544(2)
H47A H 0.9224 0.8934 0.6804
C54A C 0.9332(2) 0.92187(19) 0.6126(2)
H48A H 0.9052 0.9374 0.6111
C56A C 0.8969(3) 0.8002(2) 0.7260(3)
S4A S 1.1497(4) 0.8942(7) 0.7398(4)
C58A C 1.0999(10) 0.8738(13) 0.728(2)
Ni2B Ni 0.83581(2) 0.50164(3) 0.72238(3)
Fe1B Fe 0.62092(3) 0.47913(3) 0.95504(4)
Fe2B Fe 1.01850(2) 0.61683(3) 0.48955(3)
S2B S 0.78280(15) 0.65603(12) 0.73275(18)
O1B O 0.57519(15) 0.48685(17) 1.00960(17)
O2B O 0.64887(14) 0.53612(16) 0.97835(16)
O3B O 0.58850(16) 0.42447(15) 0.9295(2)
O4B O 0.58472(13) 0.51423(13) 0.90543(16)
O5B O 0.65860(17) 0.44001(18) 1.00085(18)
O6B O 0.67029(13) 0.47217(15) 0.90560(16)
O7B O 1.07758(12) 0.59324(13) 0.51490(16)
O8B O 1.02461(12) 0.66631(12) 0.53943(15)
O9B O 1.05066(12) 0.65318(14) 0.43613(15)
O10B O 0.96151(11) 0.64629(12) 0.46634(15)
O11B O 1.00846(12) 0.56490(13) 0.44191(14)
O12B O 0.98338(11) 0.58120(12) 0.53835(14)
N1B N 0.7106(3) 0.6906(3) 1.0084(3)
N2B N 0.52095(18) 0.60930(16) 0.77010(18)
N3B N 0.79650(15) 0.48814(17) 0.78566(17)
N4B N 1.01729(15) 0.78026(15) 0.67578(17)
N5B N 0.81849(15) 0.72962(14) 0.44099(19)
N6B N 0.87472(14) 0.51608(16) 0.65927(17)
N8B N 0.81272(16) 0.56776(19) 0.72236(18)
N10B N 0.85854(18) 0.43571(19) 0.72259(19)
C1B C 0.5247(3) 0.5216(4) 1.0682(4)
H1B H 0.5070 0.4944 1.0612
H2B H 0.5064 0.5484 1.0612
H3B H 0.5338 0.5217 1.1032
C2B C 0.99224(19) 0.7047(2) 0.4161(3)
H4B H 0.9855 0.7322 0.3995
C3B C 0.5670(2) 0.5221(3) 1.0348(3)
C4B C 0.5937(3) 0.5625(3) 1.0345(3)
H5B H 0.5839 0.5872 1.0542
C5B C 0.6332(2) 0.5673(3) 1.0068(3)
C6B C 0.6595(2) 0.6101(3) 1.0075(3)
C7B C 0.6934(2) 0.6177(3) 0.9749(3)
H6B H 0.7009 0.5951 0.9512
C8B C 0.7172(3) 0.6575(3) 0.9755(4)
H7B H 0.7397 0.6617 0.9508
C9B C 0.6776(3) 0.6838(3) 1.0406(4)
H8B H 0.6712 0.7069 1.0641
C10B C 0.6510(3) 0.6434(3) 1.0419(4)
H9B H 0.6279 0.6397 1.0661
C11B C 0.5591(4) 0.3711(3) 0.8695(4)
H10B H 0.5845 0.3513 0.8777
H11B H 0.5536 0.3702 0.8336
H12B H 0.5321 0.3608 0.8872
C12B C 0.5703(3) 0.4194(2) 0.8853(3)
C13B C 0.5602(2) 0.4549(2) 0.8522(3)
H13B H 0.5482 0.4480 0.8203
C14B C 0.56728(19) 0.5003(2) 0.8651(2)
C15B C 0.5502(2) 0.53643(19) 0.8304(2)
C16B C 0.5174(2) 0.5306(2) 0.7940(2)
H14B H 0.5042 0.5017 0.7894
C17B C 0.5036(2) 0.56637(19) 0.7642(2)
H15B H 0.4817 0.5611 0.7391
C18B C 0.5530(2) 0.6150(2) 0.8055(2)
H16B H 0.5655 0.6443 0.8101
C19B C 0.5681(2) 0.5812(2) 0.8347(2)
H17B H 0.5910 0.5871 0.8586
C20B C 0.7215(3) 0.4142(5) 1.0444(4)
H18B H 0.7540 0.4106 1.0394
H19B H 0.7079 0.3847 1.0512
H20B H 0.7160 0.4343 1.0727
C21B C 0.7010(3) 0.4337(3) 0.9990(3)
C22B C 0.7278(3) 0.4445(3) 0.9581(3)
H21B H 0.7594 0.4396 0.9608
C23B C 0.7117(2) 0.4617(2) 0.9137(2)
C24B C 0.74292(19) 0.4707(2) 0.8697(2)
C25B C 0.7861(2) 0.4524(2) 0.8654(2)
H22B H 0.7981 0.4332 0.8905
C26B C 0.8104(2) 0.4630(2) 0.8243(2)
H23B H 0.8403 0.4515 0.8226
C27B C 0.75485(19) 0.5063(2) 0.7908(2)
H24B H 0.7445 0.5263 0.7655
C28B C 0.7262(2) 0.4976(2) 0.8307(2)
H25B H 0.6964 0.5095 0.8316
C29B C 1.1364(2) 0.5724(2) 0.5729(3)
H26B H 1.1248 0.5445 0.5879
H27B H 1.1552 0.5884 0.5972
H28B H 1.1545 0.5649 0.5435
C30B C 1.0967(2) 0.6026(2) 0.5574(3)
C31B C 1.08339(19) 0.63766(19) 0.5898(2)
H29B H 1.0987 0.6405 0.6208
C32B C 1.04975(18) 0.66779(19) 0.5793(2)
C33B C 1.03897(19) 0.70647(18) 0.6138(2)
C34B C 1.0682(2) 0.7222(2) 0.6513(2)
H30B H 1.0964 0.7079 0.6569
C35B C 1.0553(2) 0.7586(2) 0.6794(3)
H31B H 1.0761 0.7690 0.7039
C36B C 0.9892(2) 0.7652(2) 0.6412(2)
H32B H 0.9611 0.7803 0.6373
C37B C 0.9983(2) 0.72866(19) 0.6101(2)
H33B H 0.9765 0.7191 0.5864
C38B C 1.0711(2) 0.7143(2) 0.3838(3)
H34B H 1.0984 0.7189 0.4037
H35B H 1.0587 0.7435 0.3738
H36B H 1.0785 0.6966 0.3540
C39B C 1.03656(19) 0.6892(2) 0.4144(2)
C40B C 0.95633(18) 0.68218(19) 0.4409(2)
C41B C 0.90872(18) 0.69992(18) 0.4399(2)
C42B C 0.8942(2) 0.73181(19) 0.4057(2)
H37B H 0.9140 0.7440 0.3814
C43B C 0.8484(2) 0.7455(2) 0.4086(3)
H38B H 0.8384 0.7676 0.3856
C44B C 0.83368(19) 0.69972(19) 0.4745(3)
H39B H 0.8130 0.6880 0.4982
C45B C 0.87857(19) 0.68499(19) 0.4761(3)
H40B H 0.8883 0.6650 0.5016
C46B C 0.96915(19) 0.5098(2) 0.3956(2)
H41B H 0.9399 0.5179 0.3811
H42B H 0.9696 0.4776 0.4034
H43B H 0.9931 0.5167 0.3716
C47B C 0.97655(19) 0.53638(19) 0.4420(2)
C48B C 0.9476(2) 0.5302(2) 0.4837(2)
H44B H 0.9222 0.5109 0.4798
C49B C 0.95396(17) 0.55010(18) 0.5286(2)
C50B C 0.92493(16) 0.53683(18) 0.5735(2)
C51B C 0.90243(17) 0.49596(18) 0.5773(2)
H45B H 0.9035 0.4746 0.5510
C52B C 0.87837(18) 0.4869(2) 0.6204(2)
H46B H 0.8635 0.4586 0.6229
C53B C 0.89604(19) 0.5560(2) 0.6544(2)
H47B H 0.8934 0.5776 0.6804
C54B C 0.92187(19) 0.5668(2) 0.6126(2)
H48B H 0.9374 0.5948 0.6111
C56B C 0.8002(2) 0.6031(3) 0.7260(3)
S4B S 0.8942(7) 0.3503(4) 0.7398(4)
C58B C 0.8738(13) 0.4001(10) 0.728(2)
Ni2C Ni 0.66419(2) 0.99836(3) 0.72238(3)
Fe1C Fe 0.87908(3) 1.02087(3) 0.95504(4)
Fe2C Fe 0.48150(2) 0.88317(3) 0.48955(3)
S2C S 0.71720(15) 0.84397(12) 0.73275(18)
O1C O 0.92481(15) 1.01315(17) 1.00960(17)
O2C O 0.85113(14) 0.96388(16) 0.97835(16)
O3C O 0.91150(16) 1.07553(15) 0.9295(2)
O4C O 0.91528(13) 0.98577(13) 0.90543(16)
O5C O 0.84140(17) 1.05999(18) 1.00085(18)
O6C O 0.82971(13) 1.02783(15) 0.90560(16)
O7C O 0.42242(12) 0.90676(13) 0.51490(16)
O8C O 0.47539(12) 0.83369(12) 0.53943(15)
O9C O 0.44934(12) 0.84682(14) 0.43613(15)
O10C O 0.53849(11) 0.85371(12) 0.46634(15)
O11C O 0.49154(12) 0.93510(13) 0.44191(14)
O12C O 0.51662(11) 0.91880(12) 0.53835(14)
N1C N 0.7894(3) 0.8094(3) 1.0084(3)
N2C N 0.97905(18) 0.89070(16) 0.77010(18)
N3C N 0.70350(15) 1.01186(17) 0.78566(17)
N4C N 0.48271(15) 0.71974(15) 0.67578(17)
N5C N 0.68151(15) 0.77038(14) 0.44099(19)
N6C N 0.62528(14) 0.98392(16) 0.65927(17)
N8C N 0.68728(16) 0.93224(19) 0.72236(18)
N10C N 0.64146(18) 1.06429(19) 0.72259(19)
C1C C 0.9753(3) 0.9784(4) 1.0682(4)
H1C H 0.9930 1.0056 1.0612
H2C H 0.9936 0.9516 1.0612
H3C H 0.9662 0.9783 1.1032
C2C C 0.50776(19) 0.7953(2) 0.4161(3)
H4C H 0.5145 0.7678 0.3995
C3C C 0.9330(2) 0.9779(3) 1.0348(3)
C4C C 0.9063(3) 0.9375(3) 1.0345(3)
H5C H 0.9161 0.9128 1.0542
C5C C 0.8668(2) 0.9327(3) 1.0068(3)
C6C C 0.8405(2) 0.8899(3) 1.0075(3)
C7C C 0.8066(2) 0.8823(3) 0.9749(3)
H6C H 0.7991 0.9049 0.9512
C8C C 0.7828(3) 0.8425(3) 0.9755(4)
H7C H 0.7603 0.8383 0.9508
C9C C 0.8224(3) 0.8162(3) 1.0406(4)
H8C H 0.8288 0.7931 1.0641
C10C C 0.8490(3) 0.8566(3) 1.0419(4)
H9C H 0.8721 0.8603 1.0661
C11C C 0.9409(4) 1.1289(3) 0.8695(4)
H10C H 0.9155 1.1487 0.8777
H11C H 0.9464 1.1298 0.8336
H12C H 0.9679 1.1392 0.8872
C12C C 0.9297(3) 1.0806(2) 0.8853(3)
C13C C 0.9398(2) 1.0451(2) 0.8522(3)
H13C H 0.9518 1.0520 0.8203
C14C C 0.93272(19) 0.9997(2) 0.8651(2)
C15C C 0.9498(2) 0.96357(19) 0.8304(2)
C16C C 0.9826(2) 0.9694(2) 0.7940(2)
H14C H 0.9958 0.9983 0.7894
C17C C 0.9964(2) 0.93363(19) 0.7642(2)
H15C H 1.0183 0.9389 0.7391
C18C C 0.9470(2) 0.8850(2) 0.8055(2)
H16C H 0.9345 0.8557 0.8101
C19C C 0.9319(2) 0.9188(2) 0.8347(2)
H17C H 0.9090 0.9129 0.8586
C20C C 0.7785(3) 1.0858(5) 1.0444(4)
H18C H 0.7460 1.0894 1.0394
H19C H 0.7921 1.1153 1.0512
H20C H 0.7840 1.0657 1.0727
C21C C 0.7990(3) 1.0663(3) 0.9990(3)
C22C C 0.7722(3) 1.0555(3) 0.9581(3)
H21C H 0.7406 1.0604 0.9608
C23C C 0.7883(2) 1.0383(2) 0.9137(2)
C24C C 0.75708(19) 1.0293(2) 0.8697(2)
C25C C 0.7139(2) 1.0476(2) 0.8654(2)
H22C H 0.7019 1.0668 0.8905
C26C C 0.6896(2) 1.0370(2) 0.8243(2)
H23C H 0.6597 1.0485 0.8226
C27C C 0.74515(19) 0.9937(2) 0.7908(2)
H24C H 0.7555 0.9737 0.7655
C28C C 0.7738(2) 1.0024(2) 0.8307(2)
H25C H 0.8036 0.9905 0.8316
C29C C 0.3636(2) 0.9276(2) 0.5729(3)
H26C H 0.3752 0.9555 0.5879
H27C H 0.3448 0.9116 0.5972
H28C H 0.3455 0.9351 0.5435
C30C C 0.4033(2) 0.8974(2) 0.5574(3)
C31C C 0.41661(19) 0.86234(19) 0.5898(2)
H29C H 0.4013 0.8595 0.6208
C32C C 0.45025(18) 0.83221(19) 0.5793(2)
C33C C 0.46103(19) 0.79353(18) 0.6138(2)
C34C C 0.4318(2) 0.7778(2) 0.6513(2)
H30C H 0.4036 0.7921 0.6569
C35C C 0.4447(2) 0.7414(2) 0.6794(3)
H31C H 0.4239 0.7310 0.7039
C36C C 0.5108(2) 0.7348(2) 0.6412(2)
H32C H 0.5389 0.7197 0.6373
C37C C 0.5017(2) 0.77134(19) 0.6101(2)
H33C H 0.5235 0.7809 0.5864
C38C C 0.4289(2) 0.7857(2) 0.3838(3)
H34C H 0.4016 0.7811 0.4037
H35C H 0.4413 0.7565 0.3738
H36C H 0.4215 0.8034 0.3540
C39C C 0.46344(19) 0.8108(2) 0.4144(2)
C40C C 0.54367(18) 0.81782(19) 0.4409(2)
C41C C 0.59128(18) 0.80008(18) 0.4399(2)
C42C C 0.6058(2) 0.76819(19) 0.4057(2)
H37C H 0.5860 0.7560 0.3814
C43C C 0.6516(2) 0.7545(2) 0.4086(3)
H38C H 0.6616 0.7324 0.3856
C44C C 0.66632(19) 0.80028(19) 0.4745(3)
H39C H 0.6870 0.8120 0.4982
C45C C 0.62143(19) 0.81501(19) 0.4761(3)
H40C H 0.6117 0.8350 0.5016
C46C C 0.53085(19) 0.9902(2) 0.3956(2)
H41C H 0.5601 0.9821 0.3811
H42C H 0.5304 1.0224 0.4034
H43C H 0.5069 0.9833 0.3716
C47C C 0.52345(19) 0.96362(19) 0.4420(2)
C48C C 0.5524(2) 0.9698(2) 0.4837(2)
H44C H 0.5778 0.9891 0.4798
C49C C 0.54604(17) 0.94990(18) 0.5286(2)
C50C C 0.57507(16) 0.96317(18) 0.5735(2)
C51C C 0.59757(17) 1.00404(18) 0.5773(2)
H45C H 0.5965 1.0254 0.5510
C52C C 0.62163(18) 1.0131(2) 0.6204(2)
H46C H 0.6365 1.0414 0.6229
C53C C 0.60396(19) 0.9440(2) 0.6544(2)
H47C H 0.6066 0.9224 0.6804
C54C C 0.57813(19) 0.9332(2) 0.6126(2)
H48C H 0.5626 0.9052 0.6111
C56C C 0.6998(2) 0.8969(3) 0.7260(3)
S4C S 0.6058(7) 1.1497(4) 0.7398(4)
C58C C 0.6262(13) 1.0999(10) 0.728(2)
S6? S 0.3426(4) 0.6338(13) 0.7259(14)
C60? C 0.3985(18) 0.639(2) 0.728(4)
C61? C 0.7500 0.7500 1.1272(3)
S7? S 0.7500 0.7500 1.1907(12)
Cl2? Cl 0.7500 0.7500 0.34853(19)
N12? N 0.7500 0.7500 1.0824(2)
loop_
_geom_bond_atom_site_label_1
_geom_bond_atom_site_label_2
_geom_bond_site_symmetry_1
_geom_bond_site_symmetry_2
Ni1 N5 1_555 1_555
Ni2 N3 1_555 1_555
Ni3 N1 1_555 1_555
Fe1 O1 1_555 1_555
Fe2 O7 1_555 1_555
S1 C55 1_555 1_555
S2 C56 1_555 1_555
S3 C57 1_555 1_555
O1 C3 1_555 1_555
O2 Fe1 1_555 1_555
O3 Fe1 1_555 1_555
O4 Fe1 1_555 1_555
O5 Fe1 1_555 1_555
O6 Fe1 1_555 1_555
O7 C30 1_555 1_555
O8 Fe2 1_555 1_555
O9 Fe2 1_555 1_555
O10 Fe2 1_555 1_555
O11 Fe2 1_555 1_555
O12 Fe2 1_555 1_555
N1 C8 1_555 1_555
N2 C17 1_555 1_555
N3 C26 1_555 1_555
N4 C35 1_555 1_555
N5 C43 1_555 1_555
N6 Ni2 1_555 1_555
N7 Ni1 1_555 1_555
N8 Ni2 1_555 1_555
N9 Ni3 1_555 1_555
N10 Ni2 1_555 1_555
C1 H1 1_555 1_555
H2 C1 1_555 1_555
H3 C1 1_555 1_555
C2 H4 1_555 1_555
C3 C1 1_555 1_555
C4 C3 1_555 1_555
H5 C4 1_555 1_555
C5 O2 1_555 1_555
C6 C5 1_555 1_555
C7 C6 1_555 1_555
H6 C7 1_555 1_555
C8 C7 1_555 1_555
H7 C8 1_555 1_555
C9 N1 1_555 1_555
H8 C9 1_555 1_555
C10 C6 1_555 1_555
H9 C10 1_555 1_555
C11 H10 1_555 1_555
H11 C11 1_555 1_555
H12 C11 1_555 1_555
C12 O3 1_555 1_555
C13 C12 1_555 1_555
H13 C13 1_555 1_555
C14 O4 1_555 1_555
C15 C14 1_555 1_555
C16 C15 1_555 1_555
H14 C16 1_555 1_555
C17 C16 1_555 1_555
H15 C17 1_555 1_555
C18 N2 1_555 1_555
H16 C18 1_555 1_555
C19 C15 1_555 1_555
H17 C19 1_555 1_555
C20 H18 1_555 1_555
H19 C20 1_555 1_555
H20 C20 1_555 1_555
C21 O5 1_555 1_555
C22 C21 1_555 1_555
H21 C22 1_555 1_555
C23 O6 1_555 1_555
C24 C23 1_555 1_555
C25 C24 1_555 1_555
H22 C25 1_555 1_555
C26 C25 1_555 1_555
H23 C26 1_555 1_555
C27 N3 1_555 1_555
H24 C27 1_555 1_555
C28 C24 1_555 1_555
H25 C28 1_555 1_555
C29 H26 1_555 1_555
H27 C29 1_555 1_555
H28 C29 1_555 1_555
C30 C29 1_555 1_555
C31 C30 1_555 1_555
H29 C31 1_555 1_555
C32 O8 1_555 1_555
C33 C32 1_555 1_555
C34 C33 1_555 1_555
H30 C34 1_555 1_555
C35 C34 1_555 1_555
H31 C35 1_555 1_555
C36 N4 1_555 1_555
H32 C36 1_555 1_555
C37 C33 1_555 1_555
H33 C37 1_555 1_555
C38 H34 1_555 1_555
H35 C38 1_555 1_555
H36 C38 1_555 1_555
C39 O9 1_555 1_555
C40 O10 1_555 1_555
C41 C40 1_555 1_555
C42 C41 1_555 1_555
H37 C42 1_555 1_555
C43 C42 1_555 1_555
H38 C43 1_555 1_555
C44 N5 1_555 1_555
H39 C44 1_555 1_555
C45 C41 1_555 1_555
H40 C45 1_555 1_555
C46 H41 1_555 1_555
H42 C46 1_555 1_555
H43 C46 1_555 1_555
C47 O11 1_555 1_555
C48 C47 1_555 1_555
H44 C48 1_555 1_555
C49 O12 1_555 1_555
C50 C49 1_555 1_555
C51 C50 1_555 1_555
H45 C51 1_555 1_555
C52 N6 1_555 1_555
H46 C52 1_555 1_555
C53 N6 1_555 1_555
H47 C53 1_555 1_555
C54 C50 1_555 1_555
H48 C54 1_555 1_555
C55 N7 1_555 1_555
C56 N8 1_555 1_555
C57 N9 1_555 1_555
Cl1 Ni3 1_555 1_555
S4 C58 1_555 1_555
C58 N10 1_555 1_555
S5 C59 1_555 1_555
N11 Ni1 1_555 1_555
C59 N11 1_555 1_555
S1A C55 1_555 1_555
S1B C55 1_555 1_555
S1C C55 1_555 1_555
Ni2A N3A 1_555 1_555
Fe1A O1A 1_555 1_555
Fe2A O7A 1_555 1_555
S2A C56A 1_555 1_555
O1A C3A 1_555 1_555
O2A Fe1A 1_555 1_555
O3A Fe1A 1_555 1_555
O4A Fe1A 1_555 1_555
O5A Fe1A 1_555 1_555
O6A Fe1A 1_555 1_555
O7A C30A 1_555 1_555
O8A Fe2A 1_555 1_555
O9A Fe2A 1_555 1_555
O10A Fe2A 1_555 1_555
O11A Fe2A 1_555 1_555
O12A Fe2A 1_555 1_555
N1A Ni3 1_555 1_555
N2A C17A 1_555 1_555
N3A C26A 1_555 1_555
N4A C35A 1_555 1_555
N5A Ni1 1_555 1_555
N6A Ni2A 1_555 1_555
N8A Ni2A 1_555 1_555
N10A Ni2A 1_555 1_555
C1A H1A 1_555 1_555
H2A C1A 1_555 1_555
H3A C1A 1_555 1_555
C2A H4A 1_555 1_555
C3A C1A 1_555 1_555
C4A C3A 1_555 1_555
H5A C4A 1_555 1_555
C5A O2A 1_555 1_555
C6A C5A 1_555 1_555
C7A C6A 1_555 1_555
H6A C7A 1_555 1_555
C8A N1A 1_555 1_555
H7A C8A 1_555 1_555
C9A N1A 1_555 1_555
H8A C9A 1_555 1_555
C10A C6A 1_555 1_555
H9A C10A 1_555 1_555
C11A H10A 1_555 1_555
H11A C11A 1_555 1_555
H12A C11A 1_555 1_555
C12A O3A 1_555 1_555
C13A C12A 1_555 1_555
H13A C13A 1_555 1_555
C14A O4A 1_555 1_555
C15A C14A 1_555 1_555
C16A C15A 1_555 1_555
H14A C16A 1_555 1_555
C17A C16A 1_555 1_555
H15A C17A 1_555 1_555
C18A N2A 1_555 1_555
H16A C18A 1_555 1_555
C19A C15A 1_555 1_555
H17A C19A 1_555 1_555
C20A H18A 1_555 1_555
H19A C20A 1_555 1_555
H20A C20A 1_555 1_555
C21A O5A 1_555 1_555
C22A C21A 1_555 1_555
H21A C22A 1_555 1_555
C23A O6A 1_555 1_555
C24A C23A 1_555 1_555
C25A C24A 1_555 1_555
H22A C25A 1_555 1_555
C26A C25A 1_555 1_555
H23A C26A 1_555 1_555
C27A N3A 1_555 1_555
H24A C27A 1_555 1_555
C28A C24A 1_555 1_555
H25A C28A 1_555 1_555
C29A H26A 1_555 1_555
H27A C29A 1_555 1_555
H28A C29A 1_555 1_555
C30A C29A 1_555 1_555
C31A C30A 1_555 1_555
H29A C31A 1_555 1_555
C32A O8A 1_555 1_555
C33A C32A 1_555 1_555
C34A C33A 1_555 1_555
H30A C34A 1_555 1_555
C35A C34A 1_555 1_555
H31A C35A 1_555 1_555
C36A N4A 1_555 1_555
H32A C36A 1_555 1_555
C37A C33A 1_555 1_555
H33A C37A 1_555 1_555
C38A H34A 1_555 1_555
H35A C38A 1_555 1_555
H36A C38A 1_555 1_555
C39A O9A 1_555 1_555
C40A O10A 1_555 1_555
C41A C40A 1_555 1_555
C42A C41A 1_555 1_555
H37A C42A 1_555 1_555
C43A N5A 1_555 1_555
H38A C43A 1_555 1_555
C44A N5A 1_555 1_555
H39A C44A 1_555 1_555
C45A C41A 1_555 1_555
H40A C45A 1_555 1_555
C46A H41A 1_555 1_555
H42A C46A 1_555 1_555
H43A C46A 1_555 1_555
C47A O11A 1_555 1_555
C48A C47A 1_555 1_555
H44A C48A 1_555 1_555
C49A O12A 1_555 1_555
C50A C49A 1_555 1_555
C51A C50A 1_555 1_555
H45A C51A 1_555 1_555
C52A N6A 1_555 1_555
H46A C52A 1_555 1_555
C53A N6A 1_555 1_555
H47A C53A 1_555 1_555
C54A C50A 1_555 1_555
H48A C54A 1_555 1_555
C56A N8A 1_555 1_555
S4A C58A 1_555 1_555
C58A N10A 1_555 1_555
Ni2B N4 1_555 1_555
Fe1B O1B 1_555 1_555
Fe2B O7B 1_555 1_555
S2B C56B 1_555 1_555
O1B C3B 1_555 1_555
O2B Fe1B 1_555 1_555
O3B Fe1B 1_555 1_555
O4B Fe1B 1_555 1_555
O5B Fe1B 1_555 1_555
O6B Fe1B 1_555 1_555
O7B C30B 1_555 1_555
O8B Fe2B 1_555 1_555
O9B Fe2B 1_555 1_555
O10B Fe2B 1_555 1_555
O11B Fe2B 1_555 1_555
O12B Fe2B 1_555 1_555
N1B Ni3 1_555 1_555
N2B Ni2 1_555 1_555
N3B Ni2B 1_555 1_555
N4B Ni2A 1_555 1_555
N5B Ni1 1_555 1_555
N6B Ni2B 1_555 1_555
N8B Ni2B 1_555 1_555
N10B Ni2B 1_555 1_555
C1B H1B 1_555 1_555
H2B C1B 1_555 1_555
H3B C1B 1_555 1_555
C2B H4B 1_555 1_555
C3B C1B 1_555 1_555
C4B C3B 1_555 1_555
H5B C4B 1_555 1_555
C5B O2B 1_555 1_555
C6B C5B 1_555 1_555
C7B C6B 1_555 1_555
H6B C7B 1_555 1_555
C8B N1B 1_555 1_555
H7B C8B 1_555 1_555
C9B N1B 1_555 1_555
H8B C9B 1_555 1_555
C10B C6B 1_555 1_555
H9B C10B 1_555 1_555
C11B H10B 1_555 1_555
H11B C11B 1_555 1_555
H12B C11B 1_555 1_555
C12B O3B 1_555 1_555
C13B C12B 1_555 1_555
H13B C13B 1_555 1_555
C14B O4B 1_555 1_555
C15B C14B 1_555 1_555
C16B C15B 1_555 1_555
H14B C16B 1_555 1_555
C17B N2B 1_555 1_555
H15B C17B 1_555 1_555
C18B N2B 1_555 1_555
H16B C18B 1_555 1_555
C19B C15B 1_555 1_555
H17B C19B 1_555 1_555
C20B H18B 1_555 1_555
H19B C20B 1_555 1_555
H20B C20B 1_555 1_555
C21B O5B 1_555 1_555
C22B C21B 1_555 1_555
H21B C22B 1_555 1_555
C23B O6B 1_555 1_555
C24B C23B 1_555 1_555
C25B C24B 1_555 1_555
H22B C25B 1_555 1_555
C26B N3B 1_555 1_555
H23B C26B 1_555 1_555
C27B N3B 1_555 1_555
H24B C27B 1_555 1_555
C28B C24B 1_555 1_555
H25B C28B 1_555 1_555
C29B H26B 1_555 1_555
H27B C29B 1_555 1_555
H28B C29B 1_555 1_555
C30B C29B 1_555 1_555
C31B C30B 1_555 1_555
H29B C31B 1_555 1_555
C32B O8B 1_555 1_555
C33B C32B 1_555 1_555
C34B C33B 1_555 1_555
H30B C34B 1_555 1_555
C35B N4B 1_555 1_555
H31B C35B 1_555 1_555
C36B N4B 1_555 1_555
H32B C36B 1_555 1_555
C37B C33B 1_555 1_555
H33B C37B 1_555 1_555
C38B H34B 1_555 1_555
H35B C38B 1_555 1_555
H36B C38B 1_555 1_555
C39B O9B 1_555 1_555
C40B O10B 1_555 1_555
C41B C40B 1_555 1_555
C42B C41B 1_555 1_555
H37B C42B 1_555 1_555
C43B N5B 1_555 1_555
H38B C43B 1_555 1_555
C44B N5B 1_555 1_555
H39B C44B 1_555 1_555
C45B C41B 1_555 1_555
H40B C45B 1_555 1_555
C46B H41B 1_555 1_555
H42B C46B 1_555 1_555
H43B C46B 1_555 1_555
C47B O11B 1_555 1_555
C48B C47B 1_555 1_555
H44B C48B 1_555 1_555
C49B O12B 1_555 1_555
C50B C49B 1_555 1_555
C51B C50B 1_555 1_555
H45B C51B 1_555 1_555
C52B N6B 1_555 1_555
H46B C52B 1_555 1_555
C53B N6B 1_555 1_555
H47B C53B 1_555 1_555
C54B C50B 1_555 1_555
H48B C54B 1_555 1_555
C56B N8B 1_555 1_555
S4B C58B 1_555 1_555
C58B N10B 1_555 1_555
Ni2C N2 1_555 1_555
Fe1C O1C 1_555 1_555
Fe2C O7C 1_555 1_555
S2C C56C 1_555 1_555
O1C C3C 1_555 1_555
O2C Fe1C 1_555 1_555
O3C Fe1C 1_555 1_555
O4C Fe1C 1_555 1_555
O5C Fe1C 1_555 1_555
O6C Fe1C 1_555 1_555
O7C C30C 1_555 1_555
O8C Fe2C 1_555 1_555
O9C Fe2C 1_555 1_555
O10C Fe2C 1_555 1_555
O11C Fe2C 1_555 1_555
O12C Fe2C 1_555 1_555
N1C Ni3 1_555 1_555
N2C Ni2A 1_555 1_555
N3C Ni2C 1_555 1_555
N4C Ni2 1_555 1_555
N5C Ni1 1_555 1_555
N6C Ni2C 1_555 1_555
N8C Ni2C 1_555 1_555
N10C Ni2C 1_555 1_555
C1C H1C 1_555 1_555
H2C C1C 1_555 1_555
H3C C1C 1_555 1_555
C2C H4C 1_555 1_555
C3C C1C 1_555 1_555
C4C C3C 1_555 1_555
H5C C4C 1_555 1_555
C5C O2C 1_555 1_555
C6C C5C 1_555 1_555
C7C C6C 1_555 1_555
H6C C7C 1_555 1_555
C8C N1C 1_555 1_555
H7C C8C 1_555 1_555
C9C N1C 1_555 1_555
H8C C9C 1_555 1_555
C10C C6C 1_555 1_555
H9C C10C 1_555 1_555
C11C H10C 1_555 1_555
H11C C11C 1_555 1_555
H12C C11C 1_555 1_555
C12C O3C 1_555 1_555
C13C C12C 1_555 1_555
H13C C13C 1_555 1_555
C14C O4C 1_555 1_555
C15C C14C 1_555 1_555
C16C C15C 1_555 1_555
H14C C16C 1_555 1_555
C17C N2C 1_555 1_555
H15C C17C 1_555 1_555
C18C N2C 1_555 1_555
H16C C18C 1_555 1_555
C19C C15C 1_555 1_555
H17C C19C 1_555 1_555
C20C H18C 1_555 1_555
H19C C20C 1_555 1_555
H20C C20C 1_555 1_555
C21C O5C 1_555 1_555
C22C C21C 1_555 1_555
H21C C22C 1_555 1_555
C23C O6C 1_555 1_555
C24C C23C 1_555 1_555
C25C C24C 1_555 1_555
H22C C25C 1_555 1_555
C26C N3C 1_555 1_555
H23C C26C 1_555 1_555
C27C N3C 1_555 1_555
H24C C27C 1_555 1_555
C28C C24C 1_555 1_555
H25C C28C 1_555 1_555
C29C H26C 1_555 1_555
H27C C29C 1_555 1_555
H28C C29C 1_555 1_555
C30C C29C 1_555 1_555
C31C C30C 1_555 1_555
H29C C31C 1_555 1_555
C32C O8C 1_555 1_555
C33C C32C 1_555 1_555
C34C C33C 1_555 1_555
H30C C34C 1_555 1_555
C35C N4C 1_555 1_555
H31C C35C 1_555 1_555
C36C N4C 1_555 1_555
H32C C36C 1_555 1_555
C37C C33C 1_555 1_555
H33C C37C 1_555 1_555
C38C H34C 1_555 1_555
H35C C38C 1_555 1_555
H36C C38C 1_555 1_555
C39C O9C 1_555 1_555
C40C O10C 1_555 1_555
C41C C40C 1_555 1_555
C42C C41C 1_555 1_555
H37C C42C 1_555 1_555
C43C N5C 1_555 1_555
H38C C43C 1_555 1_555
C44C N5C 1_555 1_555
H39C C44C 1_555 1_555
C45C C41C 1_555 1_555
H40C C45C 1_555 1_555
C46C H41C 1_555 1_555
H42C C46C 1_555 1_555
H43C C46C 1_555 1_555
C47C O11C 1_555 1_555
C48C C47C 1_555 1_555
H44C C48C 1_555 1_555
C49C O12C 1_555 1_555
C50C C49C 1_555 1_555
C51C C50C 1_555 1_555
H45C C51C 1_555 1_555
C52C N6C 1_555 1_555
H46C C52C 1_555 1_555
C53C N6C 1_555 1_555
H47C C53C 1_555 1_555
C54C C50C 1_555 1_555
H48C C54C 1_555 1_555
C56C N8C 1_555 1_555
S4C C58C 1_555 1_555
C58C N10C 1_555 1_555
C2 C39 1_555 1_555
C2 C40 1_555 1_555
C4 C5 1_555 1_555
C9 C10 1_555 1_555
C11 C12 1_555 1_555
C13 C14 1_555 1_555
C18 C19 1_555 1_555
C20 C21 1_555 1_555
C22 C23 1_555 1_555
C27 C28 1_555 1_555
C31 C32 1_555 1_555
C36 C37 1_555 1_555
C38 C39 1_555 1_555
C44 C45 1_555 1_555
C46 C47 1_555 1_555
C48 C49 1_555 1_555
C51 C52 1_555 1_555
C53 C54 1_555 1_555
N2A Ni2B 1_555 1_555
N4A Ni2C 1_555 1_555
C2A C39A 1_555 1_555
C2A C40A 1_555 1_555
C4A C5A 1_555 1_555
C7A C8A 1_555 1_555
C9A C10A 1_555 1_555
C11A C12A 1_555 1_555
C13A C14A 1_555 1_555
C18A C19A 1_555 1_555
C20A C21A 1_555 1_555
C22A C23A 1_555 1_555
C27A C28A 1_555 1_555
C31A C32A 1_555 1_555
C36A C37A 1_555 1_555
C38A C39A 1_555 1_555
C42A C43A 1_555 1_555
C44A C45A 1_555 1_555
C46A C47A 1_555 1_555
C48A C49A 1_555 1_555
C51A C52A 1_555 1_555
C53A C54A 1_555 1_555
C2B C39B 1_555 1_555
C2B C40B 1_555 1_555
C4B C5B 1_555 1_555
C7B C8B 1_555 1_555
C9B C10B 1_555 1_555
C11B C12B 1_555 1_555
C13B C14B 1_555 1_555
C16B C17B 1_555 1_555
C18B C19B 1_555 1_555
C20B C21B 1_555 1_555
C22B C23B 1_555 1_555
C25B C26B 1_555 1_555
C27B C28B 1_555 1_555
C31B C32B 1_555 1_555
C34B C35B 1_555 1_555
C36B C37B 1_555 1_555
C38B C39B 1_555 1_555
C42B C43B 1_555 1_555
C44B C45B 1_555 1_555
C46B C47B 1_555 1_555
C48B C49B 1_555 1_555
C51B C52B 1_555 1_555
C53B C54B 1_555 1_555
C2C C39C 1_555 1_555
C2C C40C 1_555 1_555
C4C C5C 1_555 1_555
C7C C8C 1_555 1_555
C9C C10C 1_555 1_555
C11C C12C 1_555 1_555
C13C C14C 1_555 1_555
C16C C17C 1_555 1_555
C18C C19C 1_555 1_555
C20C C21C 1_555 1_555
C22C C23C 1_555 1_555
C25C C26C 1_555 1_555
C27C C28C 1_555 1_555
C31C C32C 1_555 1_555
C34C C35C 1_555 1_555
C36C C37C 1_555 1_555
C38C C39C 1_555 1_555
C42C C43C 1_555 1_555
C44C C45C 1_555 1_555
C46C C47C 1_555 1_555
C48C C49C 1_555 1_555
C51C C52C 1_555 1_555
C53C C54C 1_555 1_555

#END
