
#######################################################################
#
#                 Cambridge Crystallographic Data Centre
#                                CCDC 
#
#######################################################################
#
# If this CIF has been generated from an entry in the Cambridge 
# Structural Database, then it will include bibliographic, chemical, 
# crystal, experimental, refinement or atomic coordinate data resulting 
# from the CCDC's data processing and validation procedures.
#
#######################################################################

data_QELXOX
_chemical_formula_moiety         'C216 H212 Cu6 Fe8 N24 O58 12+,12(N1 O3 1-)'
_chemical_name_systematic        
'tetracosakis(\m-1-(4-pyridyl)butane-1,3-dionato)-deca-aqua-octa-iron(iii)-hexa-copper(ii) dodecanitrate unknown solvate'
_symmetry_cell_setting           orthorhombic
_symmetry_space_group_name_H-M   'P c c a'
_symmetry_Int_Tables_number      54
_space_group_name_Hall           '-P 2a 2ac'
loop_
_symmetry_equiv_pos_site_id
_symmetry_equiv_pos_as_xyz
1 x,y,z
2 1/2-x,-y,z
3 -x,y,1/2-z
4 1/2+x,-y,1/2-z
5 -x,-y,-z
6 1/2+x,y,-z
7 x,-y,1/2+z
8 1/2-x,y,1/2+z
_cell_length_a                   29.6051(6)
_cell_length_b                   31.3962(4)
_cell_length_c                   38.0783(6)
_cell_angle_alpha                90
_cell_angle_beta                 90
_cell_angle_gamma                90
_cell_volume                     35393.3
_exptl_crystal_colour            red
_exptl_crystal_description       prism
_cell_formula_units_Z            4
loop_
_atom_site_label
_atom_site_type_symbol
_atom_site_fract_x
_atom_site_fract_y
_atom_site_fract_z
Cu1 Cu 0.68492(6) 0.08308(5) 0.21854(4)
Cu2 Cu 0.52643(4) 0.25579(3) 0.44173(3)
Cu3 Cu 0.67023(4) 0.41625(3) 0.23983(2)
Fe1 Fe 0.81350(5) 0.24032(4) 0.38069(3)
Fe2 Fe 0.54173(6) -0.02268(4) 0.40104(4)
Fe3 Fe 0.23057(4) 0.26937(3) 0.44206(3)
Fe4 Fe 0.51708(4) 0.53434(3) 0.41087(2)
O1 O 0.8734(2) 0.24859(19) 0.35713(18)
O2 O 0.7921(2) 0.28768(16) 0.35082(15)
O3 O 0.83422(19) 0.27642(16) 0.42064(15)
O4 O 0.75315(19) 0.24132(16) 0.40252(13)
O5 O 0.8360(2) 0.19030(18) 0.40828(15)
O6 O 0.7927(2) 0.20037(17) 0.34477(14)
O7 O 0.5031(3) -0.0400(2) 0.44238(18)
O8 O 0.4840(2) -0.01122(17) 0.37583(16)
O9 O 0.5477(3) -0.08235(18) 0.38571(19)
O10 O 0.5764(3) -0.00682(16) 0.35884(17)
O11 O 0.5969(3) -0.0279(2) 0.4311(2)
O12 O 0.5396(2) 0.03789(18) 0.41583(15)
O13 O 0.1657(2) 0.26274(17) 0.43032(16)
O14 O 0.2419(2) 0.22057(17) 0.41035(15)
O15 O 0.2214(2) 0.23142(15) 0.48432(13)
O16 O 0.29452(18) 0.26982(15) 0.45356(13)
O17 O 0.21830(19) 0.32130(16) 0.47088(12)
O18 O 0.24288(17) 0.30849(15) 0.40226(11)
O19 O 0.5721(2) 0.55379(15) 0.43807(11)
O20 O 0.5578(2) 0.51944(15) 0.37264(11)
O21 O 0.5066(2) 0.59344(14) 0.39382(13)
O22 O 0.46610(18) 0.51724(14) 0.37960(12)
O23 O 0.47677(18) 0.54473(14) 0.45221(11)
O24 O 0.52201(18) 0.47477(13) 0.42710(12)
O25 O 0.5397(2) 0.25355(17) 0.50524(15)
H1 H 0.5446 0.2787 0.5208
H2 H 0.5409 0.2274 0.5201
O26 O 0.6149(2) 0.36308(16) 0.24259(12)
H3 H 0.6127 0.3420 0.2596
H4 H 0.5914 0.3597 0.2267
O27 O 0.7310(3) 0.4737(3) 0.23749(19)
H5 H 0.7310 0.5025 0.2501
H6 H 0.7607 0.4732 0.2238
N1 N 0.7150(3) 0.3790(2) 0.26553(16)
N2 N 0.5928(2) 0.26500(18) 0.43327(19)
N3 N 0.7255(4) 0.1077(3) 0.2571(2)
N4 N 0.3544(4) 0.0584(3) 0.3182(2)
N5 N 0.6565(3) 0.0452(3) 0.2545(2)
N6 N 0.5376(3) 0.1921(2) 0.4397(2)
N7 N 0.2852(4) 0.1210(3) 0.3180(3)
N8 N 0.4602(2) 0.24564(19) 0.4492(2)
N9 N 0.3054(3) 0.3943(2) 0.30696(17)
N10 N 0.6492(3) 0.4416(2) 0.28584(15)
N11 N 0.3722(2) 0.4554(2) 0.28670(15)
N12 N 0.5163(2) 0.31947(18) 0.44430(19)
C1 C 0.9286(3) 0.2594(3) 0.3131(2)
H7 H 0.9473 0.2454 0.3308
H8 H 0.9416 0.2873 0.3074
H9 H 0.9277 0.2419 0.2918
C2 C 0.8813(4) 0.2652(3) 0.3271(3)
C3 C 0.8496(3) 0.2883(3) 0.3080(2)
H10 H 0.8574 0.2974 0.2850
C4 C 0.8077(3) 0.2986(2) 0.3208(2)
C5 C 0.7756(3) 0.3280(2) 0.30040(19)
C6 C 0.7313(3) 0.3289(3) 0.3096(2)
H11 H 0.7208 0.3121 0.3287
C7 C 0.7025(3) 0.3536(3) 0.2918(2)
H12 H 0.6715 0.3529 0.2981
C8 C 0.7590(4) 0.3783(3) 0.2574(2)
H13 H 0.7691 0.3965 0.2391
C9 C 0.7905(3) 0.3532(3) 0.2737(2)
H14 H 0.8213 0.3534 0.2667
C10 C 0.8364(3) 0.3251(3) 0.4684(2)
H15 H 0.8652 0.3118 0.4746
H16 H 0.8184 0.3294 0.4897
H17 H 0.8420 0.3527 0.4572
C11 C 0.8106(3) 0.2962(3) 0.4430(2)
C12 C 0.7643(3) 0.2939(2) 0.44513(19)
H18 H 0.7499 0.3116 0.4620
C13 C 0.7365(3) 0.2679(2) 0.42481(17)
C14 C 0.6874(3) 0.26792(19) 0.42791(17)
C15 C 0.6660(3) 0.2868(2) 0.4561(2)
H19 H 0.6829 0.3008 0.4739
C16 C 0.6181(3) 0.2850(2) 0.4580(2)
H20 H 0.6033 0.2982 0.4773
C17 C 0.6156(4) 0.2476(3) 0.4058(2)
H21 H 0.5986 0.2340 0.3879
C18 C 0.6619(3) 0.2486(2) 0.40245(19)
H22 H 0.6761 0.2359 0.3826
C19 C 0.8515(4) 0.1220(3) 0.4285(3)
H23 H 0.8787 0.1337 0.4396
H24 H 0.8588 0.0949 0.4172
H25 H 0.8282 0.1175 0.4464
C20 C 0.8346(3) 0.1524(3) 0.4018(3)
C21 C 0.8142(4) 0.1357(3) 0.3699(3)
H26 H 0.8150 0.1057 0.3667
C22 C 0.7941(3) 0.1596(3) 0.3441(2)
C23 C 0.7727(3) 0.1401(3) 0.3136(2)
C24 C 0.7732(4) 0.0978(3) 0.3061(3)
H27 H 0.7889 0.0793 0.3215
C25 C 0.7523(4) 0.0806(4) 0.2774(3)
H28 H 0.7559 0.0514 0.2715
C26 C 0.7247(5) 0.1489(4) 0.2643(3)
H29 H 0.7073 0.1673 0.2499
C27 C 0.7472(4) 0.1651(3) 0.2908(3)
H30 H 0.7461 0.1950 0.2945
C28 C 0.4458(5) -0.0412(5) 0.4850(2)
H31 H 0.4671 -0.0310 0.5028
H32 H 0.4429 -0.0722 0.4867
H33 H 0.4163 -0.0279 0.4888
C29 C 0.4634(5) -0.0292(4) 0.4482(2)
C30 C 0.4359(4) -0.0096(4) 0.4254(3)
H34 H 0.4074 -0.0005 0.4340
C31 C 0.4453(4) -0.0011(3) 0.3901(2)
C32 C 0.4124(5) 0.0201(3) 0.3674(2)
C33 C 0.4302(4) 0.0378(3) 0.3358(2)
H35 H 0.4614 0.0360 0.3300
C34 C 0.3993(5) 0.0577(3) 0.3140(3)
H36 H 0.4111 0.0722 0.2941
C35 C 0.3425(5) 0.0423(5) 0.3475(3)
H37 H 0.3113 0.0450 0.3529
C36 C 0.3678(5) 0.0218(5) 0.3724(3)
H38 H 0.3541 0.0093 0.3925
C37 C 0.5604(5) -0.1461(2) 0.3517(3)
H39 H 0.5372 -0.1576 0.3675
H40 H 0.5892 -0.1603 0.3563
H41 H 0.5514 -0.1510 0.3273
C38 C 0.5655(4) -0.0975(2) 0.3583(3)
C39 C 0.5861(4) -0.0729(2) 0.3321(2)
H42 H 0.5978 -0.0871 0.3120
C40 C 0.5903(3) -0.0294(2) 0.3338(2)
C41 C 0.6150(3) -0.0054(2) 0.3058(2)
C42 C 0.6319(3) -0.0228(3) 0.2744(2)
H43 H 0.6289 -0.0524 0.2699
C43 C 0.6518(4) 0.0018(3) 0.2512(3)
H44 H 0.6638 -0.0113 0.2307
C44 C 0.6395(5) 0.0620(3) 0.2839(2)
H45 H 0.6426 0.0918 0.2873
C45 C 0.6177(4) 0.0390(3) 0.3098(2)
H46 H 0.6049 0.0528 0.3296
C46 C 0.6676(5) -0.0109(4) 0.4591(6)
H47 H 0.6839 0.0152 0.4652
H48 H 0.6614 -0.0273 0.4804
H49 H 0.6861 -0.0280 0.4430
C47 C 0.6225(4) 0.0008(3) 0.4409(3)
C48 C 0.6134(4) 0.0450(3) 0.4395(3)
H50 H 0.6361 0.0649 0.4459
C49 C 0.5701(4) 0.0595(2) 0.4286(2)
C50 C 0.5618(3) 0.1059(3) 0.4336(3)
C51 C 0.5838(3) 0.1336(3) 0.4561(2)
H51 H 0.6075 0.1229 0.4705
C52 C 0.5728(3) 0.1753(3) 0.4582(3)
H52 H 0.5901 0.1934 0.4731
C53 C 0.5149(4) 0.1662(3) 0.4192(3)
H53 H 0.4906 0.1778 0.4060
C54 C 0.5237(4) 0.1238(3) 0.4153(3)
H54 H 0.5050 0.1064 0.4010
C55 C 0.0981(4) 0.2494(3) 0.3990(3)
H55 H 0.0838 0.2221 0.3931
H56 H 0.0939 0.2694 0.3795
H57 H 0.0842 0.2610 0.4203
C56 C 0.1468(3) 0.2427(3) 0.4050(3)
C57 C 0.1720(4) 0.2157(3) 0.3826(3)
H58 H 0.1570 0.2036 0.3630
C58 C 0.2177(4) 0.2059(3) 0.3876(2)
C59 C 0.2396(4) 0.1745(3) 0.3628(2)
C60 C 0.2862(4) 0.1744(3) 0.3607(2)
H59 H 0.3037 0.1933 0.3746
C61 C 0.3064(4) 0.1464(4) 0.3379(3)
H60 H 0.3385 0.1460 0.3370
C62 C 0.2406(5) 0.1210(4) 0.3188(3)
H61 H 0.2251 0.1025 0.3032
C63 C 0.2149(4) 0.1464(3) 0.3411(3)
H62 H 0.1829 0.1450 0.3417
C64 C 0.2338(4) 0.1766(2) 0.5250(2)
H63 H 0.2028 0.1846 0.5311
H64 H 0.2526 0.1767 0.5461
H65 H 0.2338 0.1480 0.5146
C65 C 0.2526(4) 0.2081(2) 0.4986(2)
C66 C 0.2978(3) 0.2111(2) 0.4921(2)
H66 H 0.3170 0.1912 0.5035
C67 C 0.3182(3) 0.2406(2) 0.47017(19)
C68 C 0.3659(3) 0.2416(2) 0.4639(2)
C69 C 0.3995(4) 0.2213(3) 0.4842(3)
H67 H 0.3909 0.2050 0.5041
C70 C 0.4436(4) 0.2248(3) 0.4759(3)
H68 H 0.4646 0.2109 0.4909
C71 C 0.4292(3) 0.2655(3) 0.4291(2)
H69 H 0.4395 0.2822 0.4099
C72 C 0.3837(3) 0.2629(3) 0.4349(2)
H70 H 0.3637 0.2760 0.4188
C73 C 0.2220(5) 0.3921(3) 0.4938(2)
H71 H 0.1940 0.3856 0.5066
H72 H 0.2200 0.4208 0.4839
H73 H 0.2477 0.3905 0.5100
C74 C 0.2284(3) 0.3598(3) 0.4642(2)
C75 C 0.2462(3) 0.3730(2) 0.43236(19)
H74 H 0.2546 0.4022 0.4305
C76 C 0.2528(2) 0.3483(2) 0.40374(17)
C77 C 0.2713(3) 0.3655(2) 0.36976(17)
C78 C 0.2721(3) 0.4092(3) 0.3630(2)
H75 H 0.2621 0.4293 0.3799
C79 C 0.2882(3) 0.4216(3) 0.33085(19)
H76 H 0.2872 0.4511 0.3251
C80 C 0.3045(3) 0.3529(3) 0.3137(2)
H77 H 0.3154 0.3333 0.2966
C81 C 0.2881(3) 0.3378(3) 0.34511(19)
H78 H 0.2884 0.3081 0.3498
C82 C 0.6460(4) 0.5539(3) 0.4613(2)
H79 H 0.6363 0.5809 0.4717
H80 H 0.6759 0.5575 0.4506
H81 H 0.6475 0.5320 0.4795
C83 C 0.6129(4) 0.5407(2) 0.43370(18)
C84 C 0.6268(3) 0.5171(2) 0.40509(18)
H82 H 0.6567 0.5060 0.4049
C85 C 0.5983(4) 0.5086(2) 0.37608(16)
C86 C 0.6183(3) 0.4830(2) 0.34498(16)
C87 C 0.5894(3) 0.4658(2) 0.32197(17)
H83 H 0.5578 0.4683 0.3259
C88 C 0.6051(4) 0.4446(2) 0.29246(18)
H84 H 0.5841 0.4319 0.2767
C89 C 0.6772(3) 0.4592(3) 0.3087(2)
H85 H 0.7086 0.4573 0.3039
C90 C 0.6646(4) 0.4798(3) 0.3389(2)
H86 H 0.6862 0.4913 0.3547
C91 C 0.4919(4) 0.6520(2) 0.3555(3)
H87 H 0.4656 0.6677 0.3642
H88 H 0.4936 0.6546 0.3299
H89 H 0.5195 0.6638 0.3660
C92 C 0.4874(3) 0.6041(2) 0.3657(2)
C93 C 0.4620(3) 0.5778(2) 0.34382(19)
H90 H 0.4505 0.5892 0.3225
C94 C 0.4529(3) 0.5359(2) 0.35203(17)
C95 C 0.4245(3) 0.5092(2) 0.32841(16)
C96 C 0.3970(3) 0.5248(2) 0.3026(2)
H91 H 0.3964 0.5546 0.2981
C97 C 0.3703(3) 0.4979(3) 0.28316(19)
H92 H 0.3497 0.5098 0.2667
C98 C 0.3990(3) 0.4400(2) 0.31199(19)
H93 H 0.3995 0.4101 0.3158
C99 C 0.4258(3) 0.4655(2) 0.33264(18)
H94 H 0.4451 0.4531 0.3498
C100 C 0.4200(3) 0.5350(3) 0.4942(2)
H95 H 0.4248 0.5658 0.4968
H96 H 0.4225 0.5213 0.5172
H97 H 0.3898 0.5299 0.4845
C101 C 0.4545(3) 0.5172(2) 0.47016(17)
C102 C 0.4626(3) 0.4731(2) 0.46925(19)
H98 H 0.4456 0.4551 0.4843
C103 C 0.4942(3) 0.4551(2) 0.44731(18)
C104 C 0.5008(3) 0.4075(2) 0.44741(18)
C105 C 0.4871(3) 0.3814(2) 0.4752(2)
H99 H 0.4728 0.3928 0.4955
C106 C 0.4956(3) 0.3364(2) 0.4718(2)
H100 H 0.4858 0.3180 0.4901
C107 C 0.5300(3) 0.3453(2) 0.4194(2)
H101 H 0.5453 0.3330 0.3999
C108 C 0.5239(3) 0.3889(2) 0.4193(2)
H102 H 0.5352 0.4059 0.4005
O28 O 0.5133(2) 0.25585(16) 0.37835(16)
H103 H 0.5102 0.2318 0.3643
H104 H 0.5109 0.2800 0.3644
O29 O 0.6272(3) 0.1390(2) 0.23024(18)
H105 H 0.6044 0.1490 0.2137
H106 H 0.6238 0.1547 0.2522
Cu1B Cu 0.31508(6) 0.08308(5) 0.28146(4)
Cu2B Cu 0.47357(4) 0.25579(3) 0.05827(3)
Cu3B Cu 0.32977(4) 0.41625(3) 0.26017(2)
Fe1B Fe 0.18650(5) 0.24032(4) 0.11931(3)
Fe2B Fe 0.45827(6) -0.02268(4) 0.09896(4)
Fe3B Fe 0.76943(4) 0.26937(3) 0.05794(3)
Fe4B Fe 0.48292(4) 0.53434(3) 0.08913(2)
O1B O 0.1266(2) 0.24859(19) 0.14287(18)
O2B O 0.2079(2) 0.28768(16) 0.14918(15)
O3B O 0.16578(19) 0.27642(16) 0.07936(15)
O4B O 0.24685(19) 0.24132(16) 0.09748(13)
O5B O 0.1640(2) 0.19030(18) 0.09172(15)
O6B O 0.2073(2) 0.20037(17) 0.15523(14)
O7B O 0.4969(3) -0.0400(2) 0.05762(18)
O8B O 0.5160(2) -0.01122(17) 0.12417(16)
O9B O 0.4523(3) -0.08235(18) 0.11429(19)
O10B O 0.4236(3) -0.00682(16) 0.14116(17)
O11B O 0.4031(3) -0.0279(2) 0.0689(2)
O12B O 0.4604(2) 0.03789(18) 0.08417(15)
O13B O 0.8343(2) 0.26274(17) 0.06968(16)
O14B O 0.7581(2) 0.22057(17) 0.08965(15)
O15B O 0.7786(2) 0.23142(15) 0.01568(13)
O16B O 0.70548(18) 0.26982(15) 0.04644(13)
O17B O 0.78170(19) 0.32130(16) 0.02912(12)
O18B O 0.75712(17) 0.30849(15) 0.09774(11)
O19B O 0.4279(2) 0.55379(15) 0.06193(11)
O20B O 0.4422(2) 0.51944(15) 0.12736(11)
O21B O 0.4934(2) 0.59344(14) 0.10618(13)
O22B O 0.53390(18) 0.51724(14) 0.12040(12)
O23B O 0.52323(18) 0.54473(14) 0.04779(11)
O24B O 0.47799(18) 0.47477(13) 0.07290(12)
O25B O 0.4603(2) 0.25355(17) -0.00524(15)
H1B H 0.4554 0.2787 -0.0208
H2B H 0.4591 0.2274 -0.0201
O26B O 0.3851(2) 0.36308(16) 0.25741(12)
H3B H 0.3873 0.3420 0.2404
H4B H 0.4086 0.3597 0.2733
O27B O 0.2690(3) 0.4737(3) 0.26251(19)
H5B H 0.2690 0.5025 0.2499
H6B H 0.2393 0.4732 0.2762
N1B N 0.2850(3) 0.3790(2) 0.23447(16)
N2B N 0.4072(2) 0.26500(18) 0.06673(19)
N3B N 0.2745(4) 0.1077(3) 0.2429(2)
N4B N 0.6456(4) 0.0584(3) 0.1818(2)
N5B N 0.3435(3) 0.0452(3) 0.2455(2)
N6B N 0.4624(3) 0.1921(2) 0.0603(2)
N7B N 0.7148(4) 0.1210(3) 0.1820(3)
N8B N 0.5398(2) 0.24564(19) 0.0508(2)
N9B N 0.6946(3) 0.3943(2) 0.19304(17)
N10B N 0.3508(3) 0.4416(2) 0.21416(15)
N11B N 0.6278(2) 0.4554(2) 0.21330(15)
N12B N 0.4837(2) 0.31947(18) 0.05570(19)
C1B C 0.0714(3) 0.2594(3) 0.1869(2)
H7B H 0.0527 0.2454 0.1692
H8B H 0.0584 0.2873 0.1926
H9B H 0.0723 0.2419 0.2082
C2B C 0.1187(4) 0.2652(3) 0.1729(3)
C3B C 0.1504(3) 0.2883(3) 0.1920(2)
H10B H 0.1426 0.2974 0.2150
C4B C 0.1923(3) 0.2986(2) 0.1792(2)
C5B C 0.2244(3) 0.3280(2) 0.19960(19)
C6B C 0.2687(3) 0.3289(3) 0.1904(2)
H11B H 0.2792 0.3121 0.1713
C7B C 0.2975(3) 0.3536(3) 0.2082(2)
H12B H 0.3285 0.3529 0.2019
C8B C 0.2410(4) 0.3783(3) 0.2426(2)
H13B H 0.2309 0.3965 0.2609
C9B C 0.2095(3) 0.3532(3) 0.2263(2)
H14B H 0.1787 0.3534 0.2333
C10B C 0.1636(3) 0.3251(3) 0.0316(2)
H15B H 0.1348 0.3118 0.0254
H16B H 0.1816 0.3294 0.0103
H17B H 0.1580 0.3527 0.0428
C11B C 0.1894(3) 0.2962(3) 0.0570(2)
C12B C 0.2357(3) 0.2939(2) 0.05487(19)
H18B H 0.2501 0.3116 0.0380
C13B C 0.2635(3) 0.2679(2) 0.07519(17)
C14B C 0.3126(3) 0.26792(19) 0.07209(17)
C15B C 0.3340(3) 0.2868(2) 0.0439(2)
H19B H 0.3171 0.3008 0.0261
C16B C 0.3819(3) 0.2850(2) 0.0420(2)
H20B H 0.3967 0.2982 0.0227
C17B C 0.3844(4) 0.2476(3) 0.0942(2)
H21B H 0.4014 0.2340 0.1121
C18B C 0.3381(3) 0.2486(2) 0.09755(19)
H22B H 0.3239 0.2359 0.1174
C19B C 0.1485(4) 0.1220(3) 0.0715(3)
H23B H 0.1213 0.1337 0.0604
H24B H 0.1412 0.0949 0.0828
H25B H 0.1718 0.1175 0.0536
C20B C 0.1654(3) 0.1524(3) 0.0982(3)
C21B C 0.1858(4) 0.1357(3) 0.1301(3)
H26B H 0.1850 0.1057 0.1333
C22B C 0.2059(3) 0.1596(3) 0.1559(2)
C23B C 0.2273(3) 0.1401(3) 0.1864(2)
C24B C 0.2268(4) 0.0978(3) 0.1939(3)
H27B H 0.2111 0.0793 0.1785
C25B C 0.2477(4) 0.0806(4) 0.2226(3)
H28B H 0.2441 0.0514 0.2285
C26B C 0.2753(5) 0.1489(4) 0.2357(3)
H29B H 0.2927 0.1673 0.2501
C27B C 0.2528(4) 0.1651(3) 0.2092(3)
H30B H 0.2539 0.1950 0.2055
C28B C 0.5542(5) -0.0412(5) 0.0150(2)
H31B H 0.5329 -0.0310 -0.0028
H32B H 0.5571 -0.0722 0.0133
H33B H 0.5837 -0.0279 0.0112
C29B C 0.5366(5) -0.0292(4) 0.0518(2)
C30B C 0.5641(4) -0.0096(4) 0.0746(3)
H34B H 0.5926 -0.0005 0.0660
C31B C 0.5547(4) -0.0011(3) 0.1099(2)
C32B C 0.5876(5) 0.0201(3) 0.1326(2)
C33B C 0.5698(4) 0.0378(3) 0.1642(2)
H35B H 0.5386 0.0360 0.1700
C34B C 0.6007(5) 0.0577(3) 0.1860(3)
H36B H 0.5889 0.0722 0.2059
C35B C 0.6575(5) 0.0423(5) 0.1525(3)
H37B H 0.6887 0.0450 0.1471
C36B C 0.6322(5) 0.0218(5) 0.1276(3)
H38B H 0.6459 0.0093 0.1075
C37B C 0.4396(5) -0.1461(2) 0.1483(3)
H39B H 0.4628 -0.1576 0.1325
H40B H 0.4108 -0.1603 0.1437
H41B H 0.4486 -0.1510 0.1727
C38B C 0.4345(4) -0.0975(2) 0.1417(3)
C39B C 0.4139(4) -0.0729(2) 0.1679(2)
H42B H 0.4022 -0.0871 0.1880
C40B C 0.4097(3) -0.0294(2) 0.1662(2)
C41B C 0.3850(3) -0.0054(2) 0.1942(2)
C42B C 0.3681(3) -0.0228(3) 0.2256(2)
H43B H 0.3711 -0.0524 0.2301
C43B C 0.3482(4) 0.0018(3) 0.2488(3)
H44B H 0.3362 -0.0113 0.2693
C44B C 0.3605(5) 0.0620(3) 0.2161(2)
H45B H 0.3574 0.0918 0.2127
C45B C 0.3823(4) 0.0390(3) 0.1902(2)
H46B H 0.3951 0.0528 0.1704
C46B C 0.3324(5) -0.0109(4) 0.0409(6)
H47B H 0.3161 0.0152 0.0348
H48B H 0.3386 -0.0273 0.0196
H49B H 0.3139 -0.0280 0.0570
C47B C 0.3775(4) 0.0008(3) 0.0591(3)
C48B C 0.3866(4) 0.0450(3) 0.0605(3)
H50B H 0.3639 0.0649 0.0541
C49B C 0.4299(4) 0.0595(2) 0.0714(2)
C50B C 0.4382(3) 0.1059(3) 0.0664(3)
C51B C 0.4162(3) 0.1336(3) 0.0439(2)
H51B H 0.3925 0.1229 0.0295
C52B C 0.4272(3) 0.1753(3) 0.0418(3)
H52B H 0.4099 0.1934 0.0269
C53B C 0.4851(4) 0.1662(3) 0.0808(3)
H53B H 0.5094 0.1778 0.0940
C54B C 0.4763(4) 0.1238(3) 0.0847(3)
H54B H 0.4950 0.1064 0.0990
C55B C 0.9019(4) 0.2494(3) 0.1010(3)
H55B H 0.9162 0.2221 0.1069
H56B H 0.9061 0.2694 0.1205
H57B H 0.9158 0.2610 0.0797
C56B C 0.8532(3) 0.2427(3) 0.0950(3)
C57B C 0.8280(4) 0.2157(3) 0.1174(3)
H58B H 0.8430 0.2036 0.1370
C58B C 0.7823(4) 0.2059(3) 0.1124(2)
C59B C 0.7604(4) 0.1745(3) 0.1372(2)
C60B C 0.7138(4) 0.1744(3) 0.1393(2)
H59B H 0.6963 0.1933 0.1254
C61B C 0.6936(4) 0.1464(4) 0.1621(3)
H60B H 0.6615 0.1460 0.1630
C62B C 0.7594(5) 0.1210(4) 0.1812(3)
H61B H 0.7749 0.1025 0.1968
C63B C 0.7851(4) 0.1464(3) 0.1589(3)
H62B H 0.8171 0.1450 0.1583
C64B C 0.7662(4) 0.1766(2) -0.0250(2)
H63B H 0.7972 0.1846 -0.0311
H64B H 0.7474 0.1767 -0.0461
H65B H 0.7662 0.1480 -0.0146
C65B C 0.7474(4) 0.2081(2) 0.0014(2)
C66B C 0.7022(3) 0.2111(2) 0.0079(2)
H66B H 0.6830 0.1912 -0.0035
C67B C 0.6818(3) 0.2406(2) 0.02983(19)
C68B C 0.6341(3) 0.2416(2) 0.0361(2)
C69B C 0.6005(4) 0.2213(3) 0.0158(3)
H67B H 0.6091 0.2050 -0.0041
C70B C 0.5564(4) 0.2248(3) 0.0241(3)
H68B H 0.5354 0.2109 0.0091
C71B C 0.5708(3) 0.2655(3) 0.0709(2)
H69B H 0.5605 0.2822 0.0901
C72B C 0.6163(3) 0.2629(3) 0.0651(2)
H70B H 0.6363 0.2760 0.0812
C73B C 0.7780(5) 0.3921(3) 0.0062(2)
H71B H 0.8060 0.3856 -0.0066
H72B H 0.7800 0.4208 0.0161
H73B H 0.7523 0.3905 -0.0100
C74B C 0.7716(3) 0.3598(3) 0.0358(2)
C75B C 0.7538(3) 0.3730(2) 0.06764(19)
H74B H 0.7454 0.4022 0.0695
C76B C 0.7472(2) 0.3483(2) 0.09626(17)
C77B C 0.7287(3) 0.3655(2) 0.13024(17)
C78B C 0.7279(3) 0.4092(3) 0.1370(2)
H75B H 0.7379 0.4293 0.1201
C79B C 0.7118(3) 0.4216(3) 0.16915(19)
H76B H 0.7128 0.4511 0.1749
C80B C 0.6955(3) 0.3529(3) 0.1863(2)
H77B H 0.6846 0.3333 0.2034
C81B C 0.7119(3) 0.3378(3) 0.15489(19)
H78B H 0.7116 0.3081 0.1502
C82B C 0.3540(4) 0.5539(3) 0.0387(2)
H79B H 0.3637 0.5809 0.0283
H80B H 0.3241 0.5575 0.0494
H81B H 0.3525 0.5320 0.0205
C83B C 0.3871(4) 0.5407(2) 0.06630(18)
C84B C 0.3732(3) 0.5171(2) 0.09491(18)
H82B H 0.3433 0.5060 0.0951
C85B C 0.4017(4) 0.5086(2) 0.12392(16)
C86B C 0.3817(3) 0.4830(2) 0.15502(16)
C87B C 0.4106(3) 0.4658(2) 0.17803(17)
H83B H 0.4422 0.4683 0.1741
C88B C 0.3949(4) 0.4446(2) 0.20754(18)
H84B H 0.4159 0.4319 0.2233
C89B C 0.3228(3) 0.4592(3) 0.1913(2)
H85B H 0.2914 0.4573 0.1961
C90B C 0.3354(4) 0.4798(3) 0.1611(2)
H86B H 0.3138 0.4913 0.1453
C91B C 0.5081(4) 0.6520(2) 0.1445(3)
H87B H 0.5344 0.6677 0.1358
H88B H 0.5064 0.6546 0.1701
H89B H 0.4805 0.6638 0.1340
C92B C 0.5126(3) 0.6041(2) 0.1343(2)
C93B C 0.5380(3) 0.5778(2) 0.15618(19)
H90B H 0.5495 0.5892 0.1775
C94B C 0.5471(3) 0.5359(2) 0.14797(17)
C95B C 0.5755(3) 0.5092(2) 0.17159(16)
C96B C 0.6030(3) 0.5248(2) 0.1974(2)
H91B H 0.6036 0.5546 0.2019
C97B C 0.6297(3) 0.4979(3) 0.21684(19)
H92B H 0.6503 0.5098 0.2333
C98B C 0.6010(3) 0.4400(2) 0.18801(19)
H93B H 0.6005 0.4101 0.1842
C99B C 0.5742(3) 0.4655(2) 0.16736(18)
H94B H 0.5549 0.4531 0.1502
C100B C 0.5800(3) 0.5350(3) 0.0058(2)
H95B H 0.5752 0.5658 0.0032
H96B H 0.5775 0.5213 -0.0172
H97B H 0.6102 0.5299 0.0155
C101B C 0.5455(3) 0.5172(2) 0.02984(17)
C102B C 0.5374(3) 0.4731(2) 0.03075(19)
H98B H 0.5544 0.4551 0.0157
C103B C 0.5058(3) 0.4551(2) 0.05269(18)
C104B C 0.4992(3) 0.4075(2) 0.05259(18)
C105B C 0.5129(3) 0.3814(2) 0.0248(2)
H99B H 0.5272 0.3928 0.0045
C106B C 0.5044(3) 0.3364(2) 0.0282(2)
H100B H 0.5142 0.3180 0.0099
C107B C 0.4700(3) 0.3453(2) 0.0806(2)
H101B H 0.4547 0.3330 0.1001
C108B C 0.4761(3) 0.3889(2) 0.0807(2)
H102B H 0.4648 0.4059 0.0995
O28B O 0.4867(2) 0.25585(16) 0.12165(16)
H103B H 0.4898 0.2318 0.1357
H104B H 0.4891 0.2800 0.1356
O29B O 0.3728(3) 0.1390(2) 0.26976(18)
H105B H 0.3956 0.1490 0.2863
H106B H 0.3762 0.1547 0.2478
loop_
_geom_bond_atom_site_label_1
_geom_bond_atom_site_label_2
_geom_bond_site_symmetry_1
_geom_bond_site_symmetry_2
Cu1 N3 1_555 1_555
Cu2 O25 1_555 1_555
Cu3 O26 1_555 1_555
Fe1 O1 1_555 1_555
Fe2 O7 1_555 1_555
Fe3 O13 1_555 1_555
Fe4 O19 1_555 1_555
O1 C2 1_555 1_555
O2 Fe1 1_555 1_555
O3 Fe1 1_555 1_555
O4 Fe1 1_555 1_555
O5 Fe1 1_555 1_555
O6 Fe1 1_555 1_555
O7 C29 1_555 1_555
O8 Fe2 1_555 1_555
O9 Fe2 1_555 1_555
O10 Fe2 1_555 1_555
O11 Fe2 1_555 1_555
O12 Fe2 1_555 1_555
O13 C56 1_555 1_555
O14 Fe3 1_555 1_555
O15 Fe3 1_555 1_555
O16 Fe3 1_555 1_555
O17 Fe3 1_555 1_555
O18 Fe3 1_555 1_555
O19 C83 1_555 1_555
O20 Fe4 1_555 1_555
O21 Fe4 1_555 1_555
O22 Fe4 1_555 1_555
O23 Fe4 1_555 1_555
O24 Fe4 1_555 1_555
O25 H1 1_555 1_555
H2 O25 1_555 1_555
O26 H3 1_555 1_555
H4 O26 1_555 1_555
O27 Cu3 1_555 1_555
H5 O27 1_555 1_555
H6 O27 1_555 1_555
N1 Cu3 1_555 1_555
N2 Cu2 1_555 1_555
N3 C25 1_555 1_555
N4 C34 1_555 1_555
N5 Cu1 1_555 1_555
N6 Cu2 1_555 1_555
N7 C61 1_555 1_555
N8 Cu2 1_555 1_555
N9 C79 1_555 1_555
N10 Cu3 1_555 1_555
N11 C97 1_555 1_555
N12 Cu2 1_555 1_555
C1 H7 1_555 1_555
H8 C1 1_555 1_555
H9 C1 1_555 1_555
C2 C1 1_555 1_555
C3 C2 1_555 1_555
H10 C3 1_555 1_555
C4 O2 1_555 1_555
C5 C4 1_555 1_555
C6 C5 1_555 1_555
H11 C6 1_555 1_555
C7 N1 1_555 1_555
H12 C7 1_555 1_555
C8 N1 1_555 1_555
H13 C8 1_555 1_555
C9 C5 1_555 1_555
H14 C9 1_555 1_555
C10 H15 1_555 1_555
H16 C10 1_555 1_555
H17 C10 1_555 1_555
C11 O3 1_555 1_555
C12 C11 1_555 1_555
H18 C12 1_555 1_555
C13 O4 1_555 1_555
C14 C13 1_555 1_555
C15 C14 1_555 1_555
H19 C15 1_555 1_555
C16 N2 1_555 1_555
H20 C16 1_555 1_555
C17 N2 1_555 1_555
H21 C17 1_555 1_555
C18 C14 1_555 1_555
H22 C18 1_555 1_555
C19 H23 1_555 1_555
H24 C19 1_555 1_555
H25 C19 1_555 1_555
C20 O5 1_555 1_555
C21 C20 1_555 1_555
H26 C21 1_555 1_555
C22 O6 1_555 1_555
C23 C22 1_555 1_555
C24 C23 1_555 1_555
H27 C24 1_555 1_555
C25 C24 1_555 1_555
H28 C25 1_555 1_555
C26 N3 1_555 1_555
H29 C26 1_555 1_555
C27 C23 1_555 1_555
H30 C27 1_555 1_555
C28 H31 1_555 1_555
H32 C28 1_555 1_555
H33 C28 1_555 1_555
C29 C28 1_555 1_555
C30 C29 1_555 1_555
H34 C30 1_555 1_555
C31 O8 1_555 1_555
C32 C31 1_555 1_555
C33 C32 1_555 1_555
H35 C33 1_555 1_555
C34 C33 1_555 1_555
H36 C34 1_555 1_555
C35 N4 1_555 1_555
H37 C35 1_555 1_555
C36 C32 1_555 1_555
H38 C36 1_555 1_555
C37 H39 1_555 1_555
H40 C37 1_555 1_555
H41 C37 1_555 1_555
C38 O9 1_555 1_555
C39 C38 1_555 1_555
H42 C39 1_555 1_555
C40 O10 1_555 1_555
C41 C40 1_555 1_555
C42 C41 1_555 1_555
H43 C42 1_555 1_555
C43 N5 1_555 1_555
H44 C43 1_555 1_555
C44 N5 1_555 1_555
H45 C44 1_555 1_555
C45 C41 1_555 1_555
H46 C45 1_555 1_555
C46 H47 1_555 1_555
H48 C46 1_555 1_555
H49 C46 1_555 1_555
C47 O11 1_555 1_555
C48 C47 1_555 1_555
H50 C48 1_555 1_555
C49 O12 1_555 1_555
C50 C49 1_555 1_555
C51 C50 1_555 1_555
H51 C51 1_555 1_555
C52 N6 1_555 1_555
H52 C52 1_555 1_555
C53 N6 1_555 1_555
H53 C53 1_555 1_555
C54 C50 1_555 1_555
H54 C54 1_555 1_555
C55 H55 1_555 1_555
H56 C55 1_555 1_555
H57 C55 1_555 1_555
C56 C55 1_555 1_555
C57 C56 1_555 1_555
H58 C57 1_555 1_555
C58 O14 1_555 1_555
C59 C58 1_555 1_555
C60 C59 1_555 1_555
H59 C60 1_555 1_555
C61 C60 1_555 1_555
H60 C61 1_555 1_555
C62 N7 1_555 1_555
H61 C62 1_555 1_555
C63 C59 1_555 1_555
H62 C63 1_555 1_555
C64 H63 1_555 1_555
H64 C64 1_555 1_555
H65 C64 1_555 1_555
C65 O15 1_555 1_555
C66 C65 1_555 1_555
H66 C66 1_555 1_555
C67 O16 1_555 1_555
C68 C67 1_555 1_555
C69 C68 1_555 1_555
H67 C69 1_555 1_555
C70 N8 1_555 1_555
H68 C70 1_555 1_555
C71 N8 1_555 1_555
H69 C71 1_555 1_555
C72 C68 1_555 1_555
H70 C72 1_555 1_555
C73 H71 1_555 1_555
H72 C73 1_555 1_555
H73 C73 1_555 1_555
C74 O17 1_555 1_555
C75 C74 1_555 1_555
H74 C75 1_555 1_555
C76 O18 1_555 1_555
C77 C76 1_555 1_555
C78 C77 1_555 1_555
H75 C78 1_555 1_555
C79 C78 1_555 1_555
H76 C79 1_555 1_555
C80 N9 1_555 1_555
H77 C80 1_555 1_555
C81 C77 1_555 1_555
H78 C81 1_555 1_555
C82 H79 1_555 1_555
H80 C82 1_555 1_555
H81 C82 1_555 1_555
C83 C82 1_555 1_555
C84 C83 1_555 1_555
H82 C84 1_555 1_555
C85 O20 1_555 1_555
C86 C85 1_555 1_555
C87 C86 1_555 1_555
H83 C87 1_555 1_555
C88 N10 1_555 1_555
H84 C88 1_555 1_555
C89 N10 1_555 1_555
H85 C89 1_555 1_555
C90 C86 1_555 1_555
H86 C90 1_555 1_555
C91 H87 1_555 1_555
H88 C91 1_555 1_555
H89 C91 1_555 1_555
C92 O21 1_555 1_555
C93 C92 1_555 1_555
H90 C93 1_555 1_555
C94 O22 1_555 1_555
C95 C94 1_555 1_555
C96 C95 1_555 1_555
H91 C96 1_555 1_555
C97 C96 1_555 1_555
H92 C97 1_555 1_555
C98 N11 1_555 1_555
H93 C98 1_555 1_555
C99 C95 1_555 1_555
H94 C99 1_555 1_555
C100 H95 1_555 1_555
H96 C100 1_555 1_555
H97 C100 1_555 1_555
C101 O23 1_555 1_555
C102 C101 1_555 1_555
H98 C102 1_555 1_555
C103 O24 1_555 1_555
C104 C103 1_555 1_555
C105 C104 1_555 1_555
H99 C105 1_555 1_555
C106 N12 1_555 1_555
H100 C106 1_555 1_555
C107 N12 1_555 1_555
H101 C107 1_555 1_555
C108 C104 1_555 1_555
H102 C108 1_555 1_555
O28 Cu2 1_555 1_555
H103 O28 1_555 1_555
H104 O28 1_555 1_555
O29 Cu1 1_555 1_555
H105 O29 1_555 1_555
H106 O29 1_555 1_555
Cu1B N4 1_555 1_555
Cu2B O25B 1_555 1_555
Cu3B N9 1_555 1_555
Fe1B O1B 1_555 1_555
Fe2B O7B 1_555 1_555
Fe3B O13B 1_555 1_555
Fe4B O19B 1_555 1_555
O1B C2B 1_555 1_555
O2B Fe1B 1_555 1_555
O3B Fe1B 1_555 1_555
O4B Fe1B 1_555 1_555
O5B Fe1B 1_555 1_555
O6B Fe1B 1_555 1_555
O7B C29B 1_555 1_555
O8B Fe2B 1_555 1_555
O9B Fe2B 1_555 1_555
O10B Fe2B 1_555 1_555
O11B Fe2B 1_555 1_555
O12B Fe2B 1_555 1_555
O13B C56B 1_555 1_555
O14B Fe3B 1_555 1_555
O15B Fe3B 1_555 1_555
O16B Fe3B 1_555 1_555
O17B Fe3B 1_555 1_555
O18B Fe3B 1_555 1_555
O19B C83B 1_555 1_555
O20B Fe4B 1_555 1_555
O21B Fe4B 1_555 1_555
O22B Fe4B 1_555 1_555
O23B Fe4B 1_555 1_555
O24B Fe4B 1_555 1_555
O25B H1B 1_555 1_555
H2B O25B 1_555 1_555
O26B Cu3B 1_555 1_555
H3B O26B 1_555 1_555
H4B O26B 1_555 1_555
O27B Cu3B 1_555 1_555
H5B O27B 1_555 1_555
H6B O27B 1_555 1_555
N1B Cu3B 1_555 1_555
N2B Cu2B 1_555 1_555
N3B Cu1B 1_555 1_555
N4B Cu1 1_555 1_555
N5B Cu1B 1_555 1_555
N6B Cu2B 1_555 1_555
N7B Cu1 1_555 1_555
N8B Cu2B 1_555 1_555
N9B Cu3 1_555 1_555
N10B Cu3B 1_555 1_555
N11B Cu3 1_555 1_555
N12B Cu2B 1_555 1_555
C1B H7B 1_555 1_555
H8B C1B 1_555 1_555
H9B C1B 1_555 1_555
C2B C1B 1_555 1_555
C3B C2B 1_555 1_555
H10B C3B 1_555 1_555
C4B O2B 1_555 1_555
C5B C4B 1_555 1_555
C6B C5B 1_555 1_555
H11B C6B 1_555 1_555
C7B N1B 1_555 1_555
H12B C7B 1_555 1_555
C8B N1B 1_555 1_555
H13B C8B 1_555 1_555
C9B C5B 1_555 1_555
H14B C9B 1_555 1_555
C10B H15B 1_555 1_555
H16B C10B 1_555 1_555
H17B C10B 1_555 1_555
C11B O3B 1_555 1_555
C12B C11B 1_555 1_555
H18B C12B 1_555 1_555
C13B O4B 1_555 1_555
C14B C13B 1_555 1_555
C15B C14B 1_555 1_555
H19B C15B 1_555 1_555
C16B N2B 1_555 1_555
H20B C16B 1_555 1_555
C17B N2B 1_555 1_555
H21B C17B 1_555 1_555
C18B C14B 1_555 1_555
H22B C18B 1_555 1_555
C19B H23B 1_555 1_555
H24B C19B 1_555 1_555
H25B C19B 1_555 1_555
C20B O5B 1_555 1_555
C21B C20B 1_555 1_555
H26B C21B 1_555 1_555
C22B O6B 1_555 1_555
C23B C22B 1_555 1_555
C24B C23B 1_555 1_555
H27B C24B 1_555 1_555
C25B N3B 1_555 1_555
H28B C25B 1_555 1_555
C26B N3B 1_555 1_555
H29B C26B 1_555 1_555
C27B C23B 1_555 1_555
H30B C27B 1_555 1_555
C28B H31B 1_555 1_555
H32B C28B 1_555 1_555
H33B C28B 1_555 1_555
C29B C28B 1_555 1_555
C30B C29B 1_555 1_555
H34B C30B 1_555 1_555
C31B O8B 1_555 1_555
C32B C31B 1_555 1_555
C33B C32B 1_555 1_555
H35B C33B 1_555 1_555
C34B N4B 1_555 1_555
H36B C34B 1_555 1_555
C35B N4B 1_555 1_555
H37B C35B 1_555 1_555
C36B C32B 1_555 1_555
H38B C36B 1_555 1_555
C37B H39B 1_555 1_555
H40B C37B 1_555 1_555
H41B C37B 1_555 1_555
C38B O9B 1_555 1_555
C39B C38B 1_555 1_555
H42B C39B 1_555 1_555
C40B O10B 1_555 1_555
C41B C40B 1_555 1_555
C42B C41B 1_555 1_555
H43B C42B 1_555 1_555
C43B N5B 1_555 1_555
H44B C43B 1_555 1_555
C44B N5B 1_555 1_555
H45B C44B 1_555 1_555
C45B C41B 1_555 1_555
H46B C45B 1_555 1_555
C46B H47B 1_555 1_555
H48B C46B 1_555 1_555
H49B C46B 1_555 1_555
C47B O11B 1_555 1_555
C48B C47B 1_555 1_555
H50B C48B 1_555 1_555
C49B O12B 1_555 1_555
C50B C49B 1_555 1_555
C51B C50B 1_555 1_555
H51B C51B 1_555 1_555
C52B N6B 1_555 1_555
H52B C52B 1_555 1_555
C53B N6B 1_555 1_555
H53B C53B 1_555 1_555
C54B C50B 1_555 1_555
H54B C54B 1_555 1_555
C55B H55B 1_555 1_555
H56B C55B 1_555 1_555
H57B C55B 1_555 1_555
C56B C55B 1_555 1_555
C57B C56B 1_555 1_555
H58B C57B 1_555 1_555
C58B O14B 1_555 1_555
C59B C58B 1_555 1_555
C60B C59B 1_555 1_555
H59B C60B 1_555 1_555
C61B N7B 1_555 1_555
H60B C61B 1_555 1_555
C62B N7B 1_555 1_555
H61B C62B 1_555 1_555
C63B C59B 1_555 1_555
H62B C63B 1_555 1_555
C64B H63B 1_555 1_555
H64B C64B 1_555 1_555
H65B C64B 1_555 1_555
C65B O15B 1_555 1_555
C66B C65B 1_555 1_555
H66B C66B 1_555 1_555
C67B O16B 1_555 1_555
C68B C67B 1_555 1_555
C69B C68B 1_555 1_555
H67B C69B 1_555 1_555
C70B N8B 1_555 1_555
H68B C70B 1_555 1_555
C71B N8B 1_555 1_555
H69B C71B 1_555 1_555
C72B C68B 1_555 1_555
H70B C72B 1_555 1_555
C73B H71B 1_555 1_555
H72B C73B 1_555 1_555
H73B C73B 1_555 1_555
C74B O17B 1_555 1_555
C75B C74B 1_555 1_555
H74B C75B 1_555 1_555
C76B O18B 1_555 1_555
C77B C76B 1_555 1_555
C78B C77B 1_555 1_555
H75B C78B 1_555 1_555
C79B N9B 1_555 1_555
H76B C79B 1_555 1_555
C80B N9B 1_555 1_555
H77B C80B 1_555 1_555
C81B C77B 1_555 1_555
H78B C81B 1_555 1_555
C82B H79B 1_555 1_555
H80B C82B 1_555 1_555
H81B C82B 1_555 1_555
C83B C82B 1_555 1_555
C84B C83B 1_555 1_555
H82B C84B 1_555 1_555
C85B O20B 1_555 1_555
C86B C85B 1_555 1_555
C87B C86B 1_555 1_555
H83B C87B 1_555 1_555
C88B N10B 1_555 1_555
H84B C88B 1_555 1_555
C89B N10B 1_555 1_555
H85B C89B 1_555 1_555
C90B C86B 1_555 1_555
H86B C90B 1_555 1_555
C91B H87B 1_555 1_555
H88B C91B 1_555 1_555
H89B C91B 1_555 1_555
C92B O21B 1_555 1_555
C93B C92B 1_555 1_555
H90B C93B 1_555 1_555
C94B O22B 1_555 1_555
C95B C94B 1_555 1_555
C96B C95B 1_555 1_555
H91B C96B 1_555 1_555
C97B N11B 1_555 1_555
H92B C97B 1_555 1_555
C98B N11B 1_555 1_555
H93B C98B 1_555 1_555
C99B C95B 1_555 1_555
H94B C99B 1_555 1_555
C100B H95B 1_555 1_555
H96B C100B 1_555 1_555
H97B C100B 1_555 1_555
C101B O23B 1_555 1_555
C102B C101B 1_555 1_555
H98B C102B 1_555 1_555
C103B O24B 1_555 1_555
C104B C103B 1_555 1_555
C105B C104B 1_555 1_555
H99B C105B 1_555 1_555
C106B N12B 1_555 1_555
H100B C106B 1_555 1_555
C107B N12B 1_555 1_555
H101B C107B 1_555 1_555
C108B C104B 1_555 1_555
H102B C108B 1_555 1_555
O28B Cu2B 1_555 1_555
H103B O28B 1_555 1_555
H104B O28B 1_555 1_555
O29B Cu1B 1_555 1_555
H105B O29B 1_555 1_555
H106B O29B 1_555 1_555
N7 Cu1B 1_555 1_555
N11 Cu3B 1_555 1_555
C3 C4 1_555 1_555
C6 C7 1_555 1_555
C8 C9 1_555 1_555
C10 C11 1_555 1_555
C12 C13 1_555 1_555
C15 C16 1_555 1_555
C17 C18 1_555 1_555
C19 C20 1_555 1_555
C21 C22 1_555 1_555
C26 C27 1_555 1_555
C30 C31 1_555 1_555
C35 C36 1_555 1_555
C37 C38 1_555 1_555
C39 C40 1_555 1_555
C42 C43 1_555 1_555
C44 C45 1_555 1_555
C46 C47 1_555 1_555
C48 C49 1_555 1_555
C51 C52 1_555 1_555
C53 C54 1_555 1_555
C57 C58 1_555 1_555
C62 C63 1_555 1_555
C64 C65 1_555 1_555
C66 C67 1_555 1_555
C69 C70 1_555 1_555
C71 C72 1_555 1_555
C73 C74 1_555 1_555
C75 C76 1_555 1_555
C80 C81 1_555 1_555
C84 C85 1_555 1_555
C87 C88 1_555 1_555
C89 C90 1_555 1_555
C91 C92 1_555 1_555
C93 C94 1_555 1_555
C98 C99 1_555 1_555
C100 C101 1_555 1_555
C102 C103 1_555 1_555
C105 C106 1_555 1_555
C107 C108 1_555 1_555
C3B C4B 1_555 1_555
C6B C7B 1_555 1_555
C8B C9B 1_555 1_555
C10B C11B 1_555 1_555
C12B C13B 1_555 1_555
C15B C16B 1_555 1_555
C17B C18B 1_555 1_555
C19B C20B 1_555 1_555
C21B C22B 1_555 1_555
C24B C25B 1_555 1_555
C26B C27B 1_555 1_555
C30B C31B 1_555 1_555
C33B C34B 1_555 1_555
C35B C36B 1_555 1_555
C37B C38B 1_555 1_555
C39B C40B 1_555 1_555
C42B C43B 1_555 1_555
C44B C45B 1_555 1_555
C46B C47B 1_555 1_555
C48B C49B 1_555 1_555
C51B C52B 1_555 1_555
C53B C54B 1_555 1_555
C57B C58B 1_555 1_555
C60B C61B 1_555 1_555
C62B C63B 1_555 1_555
C64B C65B 1_555 1_555
C66B C67B 1_555 1_555
C69B C70B 1_555 1_555
C71B C72B 1_555 1_555
C73B C74B 1_555 1_555
C75B C76B 1_555 1_555
C78B C79B 1_555 1_555
C80B C81B 1_555 1_555
C84B C85B 1_555 1_555
C87B C88B 1_555 1_555
C89B C90B 1_555 1_555
C91B C92B 1_555 1_555
C93B C94B 1_555 1_555
C96B C97B 1_555 1_555
C98B C99B 1_555 1_555
C100B C101B 1_555 1_555
C102B C103B 1_555 1_555
C105B C106B 1_555 1_555
C107B C108B 1_555 1_555

#END
