
#######################################################################
#
#                 Cambridge Crystallographic Data Centre
#                                CCDC 
#
#######################################################################
#
# If this CIF has been generated from an entry in the Cambridge 
# Structural Database, then it will include bibliographic, chemical, 
# crystal, experimental, refinement or atomic coordinate data resulting 
# from the CCDC's data processing and validation procedures.
#
#######################################################################

data_QEMHUL
_chemical_formula_moiety         'C144 H84 Ga4 N12 O36 12-,12(C8 H20 N1 1+)'
_chemical_name_systematic        
'\D,\D,\D,\D-undecakis(Tetraethylammonium) hexakis(\m~3~-1,5-bis(2,3-dioxybenzamido)naphthalene)-tetra-gallium(iii) tetraethylammonium clathrate unknown solvate'
_symmetry_cell_setting           cubic
_symmetry_space_group_name_H-M   'I 2 3'
_symmetry_Int_Tables_number      197
_space_group_name_Hall           'I 2 2 3'
loop_
_symmetry_equiv_pos_site_id
_symmetry_equiv_pos_as_xyz
1 x,y,z
2 -x,-y,z
3 -x,y,-z
4 x,-y,-z
5 z,x,y
6 z,-x,-y
7 -z,-x,y
8 -z,x,-y
9 y,z,x
10 -y,z,-x
11 y,-z,-x
12 -y,-z,x
13 1/2+x,1/2+y,1/2+z
14 1/2-x,1/2-y,1/2+z
15 1/2-x,1/2+y,1/2-z
16 1/2+x,1/2-y,1/2-z
17 1/2+z,1/2+x,1/2+y
18 1/2+z,1/2-x,1/2-y
19 1/2-z,1/2-x,1/2+y
20 1/2-z,1/2+x,1/2-y
21 1/2+y,1/2+z,1/2+x
22 1/2-y,1/2+z,1/2-x
23 1/2+y,1/2-z,1/2-x
24 1/2-y,1/2-z,1/2+x
_cell_length_a                   22.5721(10)
_cell_length_b                   22.5721(10)
_cell_length_c                   22.5721(10)
_cell_angle_alpha                90
_cell_angle_beta                 90
_cell_angle_gamma                90
_cell_volume                     11500.5
_exptl_crystal_colour            orange-red
_exptl_crystal_description       'irregular triangular block'
_cell_formula_units_Z            2
loop_
_atom_site_label
_atom_site_type_symbol
_atom_site_fract_x
_atom_site_fract_y
_atom_site_fract_z
N2 N 0.0000 0.0000 0.0000
C28 C -0.0452(6) -0.0452(6) 0.0452(6)
C29 C -0.0451(6) -0.0451(6) -0.0451(6)
C30 C -0.0858(32) -0.0711(43) -0.0001(11)
C28A C 0.0452(6) 0.0452(6) 0.0452(6)
C30A C 0.0858(32) 0.0711(43) -0.0001(11)
C29A C 0.0451(6) 0.0451(6) -0.0451(6)
C28B C 0.0452(6) -0.0452(6) -0.0452(6)
C30B C 0.0858(32) -0.0711(43) 0.0001(11)
C29B C 0.0451(6) -0.0451(6) 0.0451(6)
C28C C -0.0452(6) 0.0452(6) -0.0452(6)
C30C C -0.0858(32) 0.0711(43) 0.0001(11)
C29C C -0.0451(6) 0.0451(6) 0.0451(6)
C30E C -0.0001(11) 0.0858(32) 0.0711(43)
C30I C 0.0711(43) -0.0001(11) 0.0858(32)
C30G C 0.0001(11) -0.0858(32) 0.0711(43)
C30J C -0.0711(43) 0.0001(11) 0.0858(32)
C30F C 0.0001(11) 0.0858(32) -0.0711(43)
C30K C 0.0711(43) 0.0001(11) -0.0858(32)
C30D C -0.0001(11) -0.0858(32) -0.0711(43)
C30H C -0.0711(43) -0.0001(11) -0.0858(32)
Ga1 Ga -0.19835(8) -0.19835(8) -0.19835(8)
N1 N -0.1368(8) -0.2321(9) -0.0109(9)
H1 H -0.1381(8) -0.2204(9) -0.0472(9)
O1 O -0.1876(5) -0.2107(6) -0.1133(6)
O2 O -0.2807(5) -0.2196(6) -0.1801(6)
O3 O -0.1976(29) -0.2488(29) 0.0653(27)
C1 C -0.2364(11) -0.2323(9) -0.0872(10)
C2 C -0.3382(13) -0.2551(11) -0.0994(12)
H2 H -0.3725(13) -0.2528(11) -0.1221(12)
C3 C -0.3422(17) -0.2758(15) -0.0420(16)
H3 H -0.3764(17) -0.2943(15) -0.0284(16)
C4 C -0.2930(15) -0.2679(13) -0.0050(16)
H4 H -0.2954(15) -0.2754(13) 0.0354(16)
C5 C -0.2391(11) -0.2481(10) -0.0310(11)
C6 C -0.2860(10) -0.2379(10) -0.1236(12)
C7 C -0.1844(14) -0.2493(11) 0.0097(12)
C8 C -0.0823(14) -0.2290(12) 0.0151(13)
C9 C -0.0726(18) -0.1950(20) 0.0724(18)
C11 C -0.0142(24) -0.1897(25) 0.0938(23)
C13 C 0.0418(19) -0.2015(24) 0.0676(19)
C15 C -0.0283(9) -0.2304(9) -0.0130(9)
O1D O -0.1133(6) -0.1876(5) -0.2107(6)
C1D C -0.0872(10) -0.2364(11) -0.2323(9)
C5D C -0.0310(11) -0.2391(11) -0.2481(10)
C4D C -0.0050(16) -0.2930(15) -0.2679(13)
C3D C -0.0420(16) -0.3422(17) -0.2758(15)
C2D C -0.0994(12) -0.3382(13) -0.2551(11)
H2D H -0.1221(12) -0.3725(13) -0.2528(11)
C6D C -0.1236(12) -0.2860(10) -0.2379(10)
O2D O -0.1801(6) -0.2807(5) -0.2196(6)
O1H O -0.2107(6) -0.1133(6) -0.1876(5)
C1H C -0.2323(9) -0.0872(10) -0.2364(11)
C5H C -0.2481(10) -0.0310(11) -0.2391(11)
C4H C -0.2679(13) -0.0050(16) -0.2930(15)
C3H C -0.2758(15) -0.0420(16) -0.3422(17)
C2H C -0.2551(11) -0.0994(12) -0.3382(13)
H2H H -0.2528(11) -0.1221(12) -0.3725(13)
C6H C -0.2379(10) -0.1236(12) -0.2860(10)
O2H O -0.2196(6) -0.1801(6) -0.2807(5)
H3H H -0.2943(15) -0.0284(16) -0.3764(17)
H4H H -0.2754(13) 0.0354(16) -0.2954(15)
C7H C -0.2493(11) 0.0097(12) -0.1844(14)
N1H N -0.2321(9) -0.0109(9) -0.1368(8)
H1H H -0.2204(9) -0.0472(9) -0.1381(8)
C8H C -0.2290(12) 0.0151(13) -0.0823(14)
C9H C -0.1950(20) 0.0724(18) -0.0726(18)
C11H C -0.1897(25) 0.0938(23) -0.0142(24)
C13H C -0.2015(24) 0.0676(19) 0.0418(19)
C15J C -0.2304(9) 0.0130(9) 0.0283(9)
C8J C -0.2290(12) -0.0151(13) 0.0823(14)
N1J N -0.2321(9) 0.0109(9) 0.1368(8)
H1J H -0.2204(9) 0.0472(9) 0.1381(8)
C7J C -0.2493(11) -0.0097(12) 0.1844(14)
O3J O -0.2488(29) -0.0653(27) 0.1976(29)
C5J C -0.2481(10) 0.0310(11) 0.2391(11)
C1J C -0.2323(9) 0.0872(10) 0.2364(11)
O1J O -0.2107(6) 0.1133(6) 0.1876(5)
Ga1J Ga -0.19835(8) 0.19835(8) 0.19835(8)
O1C O -0.1876(5) 0.2107(6) 0.1133(6)
C1C C -0.2364(11) 0.2323(9) 0.0872(10)
C5C C -0.2391(11) 0.2481(10) 0.0310(11)
C4C C -0.2930(15) 0.2679(13) 0.0050(16)
C3C C -0.3422(17) 0.2758(15) 0.0420(16)
C2C C -0.3382(13) 0.2551(11) 0.0994(12)
H2C H -0.3725(13) 0.2528(11) 0.1221(12)
C6C C -0.2860(10) 0.2379(10) 0.1236(12)
O2C O -0.2807(5) 0.2196(6) 0.1801(6)
O1E O -0.1133(6) 0.1876(5) 0.2107(6)
C1E C -0.0872(10) 0.2364(11) 0.2323(9)
C5E C -0.0310(11) 0.2391(11) 0.2481(10)
C4E C -0.0050(16) 0.2930(15) 0.2679(13)
C3E C -0.0420(16) 0.3422(17) 0.2758(15)
C2E C -0.0994(12) 0.3382(13) 0.2551(11)
H2E H -0.1221(12) 0.3725(13) 0.2528(11)
C6E C -0.1236(12) 0.2860(10) 0.2379(10)
O2E O -0.1801(6) 0.2807(5) 0.2196(6)
O2J O -0.2196(6) 0.1801(6) 0.2807(5)
C6J C -0.2379(10) 0.1236(12) 0.2860(10)
C2J C -0.2551(11) 0.0994(12) 0.3382(13)
H2J H -0.2528(11) 0.1221(12) 0.3725(13)
C3J C -0.2758(15) 0.0420(16) 0.3422(17)
H3J H -0.2943(15) 0.0284(16) 0.3764(17)
C4J C -0.2679(13) 0.0050(16) 0.2930(15)
H4J H -0.2754(13) -0.0354(16) 0.2954(15)
H3E H -0.0284(16) 0.3764(17) 0.2943(15)
H4E H 0.0354(16) 0.2954(15) 0.2754(13)
C7E C 0.0097(12) 0.1844(14) 0.2493(11)
N1E N -0.0109(9) 0.1368(8) 0.2321(9)
H1E H -0.0472(9) 0.1381(8) 0.2204(9)
C8E C 0.0151(13) 0.0823(14) 0.2290(12)
C9E C 0.0724(18) 0.0726(18) 0.1950(20)
C11E C 0.0938(23) 0.0142(24) 0.1897(25)
C13E C 0.0676(19) -0.0418(19) 0.2015(24)
C15G C 0.0130(9) -0.0283(9) 0.2304(9)
C8G C -0.0151(13) -0.0823(14) 0.2290(12)
N1G N 0.0109(9) -0.1368(8) 0.2321(9)
H1G H 0.0472(9) -0.1381(8) 0.2204(9)
C7G C -0.0097(12) -0.1844(14) 0.2493(11)
O3G O -0.0653(27) -0.1976(29) 0.2488(29)
C5G C 0.0310(11) -0.2391(11) 0.2481(10)
C1G C 0.0872(10) -0.2364(11) 0.2323(9)
O1G O 0.1133(6) -0.1876(5) 0.2107(6)
Ga1G Ga 0.19835(8) -0.19835(8) 0.19835(8)
O1I O 0.2107(6) -0.1133(6) 0.1876(5)
C1I C 0.2323(9) -0.0872(10) 0.2364(11)
C5I C 0.2481(10) -0.0310(11) 0.2391(11)
C4I C 0.2679(13) -0.0050(16) 0.2930(15)
C3I C 0.2758(15) -0.0420(16) 0.3422(17)
C2I C 0.2551(11) -0.0994(12) 0.3382(13)
H2I H 0.2528(11) -0.1221(12) 0.3725(13)
C6I C 0.2379(10) -0.1236(12) 0.2860(10)
O2I O 0.2196(6) -0.1801(6) 0.2807(5)
O1B O 0.1876(5) -0.2107(6) 0.1133(6)
C1B C 0.2364(11) -0.2323(9) 0.0872(10)
C5B C 0.2391(11) -0.2481(10) 0.0310(11)
C4B C 0.2930(15) -0.2679(13) 0.0050(16)
C3B C 0.3422(17) -0.2758(15) 0.0420(16)
C2B C 0.3382(13) -0.2551(11) 0.0994(12)
H2B H 0.3725(13) -0.2528(11) 0.1221(12)
C6B C 0.2860(10) -0.2379(10) 0.1236(12)
O2B O 0.2807(5) -0.2196(6) 0.1801(6)
O2G O 0.1801(6) -0.2807(5) 0.2196(6)
C6G C 0.1236(12) -0.2860(10) 0.2379(10)
C2G C 0.0994(12) -0.3382(13) 0.2551(11)
H2G H 0.1221(12) -0.3725(13) 0.2528(11)
C3G C 0.0420(16) -0.3422(17) 0.2758(15)
H3G H 0.0284(16) -0.3764(17) 0.2943(15)
C4G C 0.0050(16) -0.2930(15) 0.2679(13)
H4G H -0.0354(16) -0.2954(15) 0.2754(13)
H3B H 0.3764(17) -0.2943(15) 0.0284(16)
H4B H 0.2954(15) -0.2754(13) -0.0354(16)
C7B C 0.1844(14) -0.2493(11) -0.0097(12)
N1B N 0.1368(8) -0.2321(9) 0.0109(9)
H1B H 0.1381(8) -0.2204(9) 0.0472(9)
C8B C 0.0823(14) -0.2290(12) -0.0151(13)
C9B C 0.0726(18) -0.1950(20) -0.0724(18)
C11B C 0.0142(24) -0.1897(25) -0.0938(23)
C13B C -0.0418(19) -0.2015(24) -0.0676(19)
C15B C 0.0283(9) -0.2304(9) 0.0130(9)
O3B O 0.1976(29) -0.2488(29) -0.0653(27)
H3I H 0.2943(15) -0.0284(16) 0.3764(17)
H4I H 0.2754(13) 0.0354(16) 0.2954(15)
C7I C 0.2493(11) 0.0097(12) 0.1844(14)
N1I N 0.2321(9) -0.0109(9) 0.1368(8)
H1I H 0.2204(9) -0.0472(9) 0.1381(8)
C8I C 0.2290(12) 0.0151(13) 0.0823(14)
C9I C 0.1950(20) 0.0724(18) 0.0726(18)
C11I C 0.1897(25) 0.0938(23) 0.0142(24)
C13I C 0.2015(24) 0.0676(19) -0.0418(19)
C15K C 0.2304(9) 0.0130(9) -0.0283(9)
C8K C 0.2290(12) -0.0151(13) -0.0823(14)
N1K N 0.2321(9) 0.0109(9) -0.1368(8)
H1K H 0.2204(9) 0.0472(9) -0.1381(8)
C7K C 0.2493(11) -0.0097(12) -0.1844(14)
O3K O 0.2488(29) -0.0653(27) -0.1976(29)
C5K C 0.2481(10) 0.0310(11) -0.2391(11)
C1K C 0.2323(9) 0.0872(10) -0.2364(11)
O1K O 0.2107(6) 0.1133(6) -0.1876(5)
Ga1K Ga 0.19835(8) 0.19835(8) -0.19835(8)
O1A O 0.1876(5) 0.2107(6) -0.1133(6)
C1A C 0.2364(11) 0.2323(9) -0.0872(10)
C5A C 0.2391(11) 0.2481(10) -0.0310(11)
C4A C 0.2930(15) 0.2679(13) -0.0050(16)
C3A C 0.3422(17) 0.2758(15) -0.0420(16)
C2A C 0.3382(13) 0.2551(11) -0.0994(12)
H2A H 0.3725(13) 0.2528(11) -0.1221(12)
C6A C 0.2860(10) 0.2379(10) -0.1236(12)
O2A O 0.2807(5) 0.2196(6) -0.1801(6)
O1F O 0.1133(6) 0.1876(5) -0.2107(6)
C1F C 0.0872(10) 0.2364(11) -0.2323(9)
C5F C 0.0310(11) 0.2391(11) -0.2481(10)
C4F C 0.0050(16) 0.2930(15) -0.2679(13)
C3F C 0.0420(16) 0.3422(17) -0.2758(15)
C2F C 0.0994(12) 0.3382(13) -0.2551(11)
H2F H 0.1221(12) 0.3725(13) -0.2528(11)
C6F C 0.1236(12) 0.2860(10) -0.2379(10)
O2F O 0.1801(6) 0.2807(5) -0.2196(6)
O2K O 0.2196(6) 0.1801(6) -0.2807(5)
C6K C 0.2379(10) 0.1236(12) -0.2860(10)
C2K C 0.2551(11) 0.0994(12) -0.3382(13)
H2K H 0.2528(11) 0.1221(12) -0.3725(13)
C3K C 0.2758(15) 0.0420(16) -0.3422(17)
H3K H 0.2943(15) 0.0284(16) -0.3764(17)
C4K C 0.2679(13) 0.0050(16) -0.2930(15)
H4K H 0.2754(13) -0.0354(16) -0.2954(15)
H3F H 0.0284(16) 0.3764(17) -0.2943(15)
H4F H -0.0354(16) 0.2954(15) -0.2754(13)
C7F C -0.0097(12) 0.1844(14) -0.2493(11)
N1F N 0.0109(9) 0.1368(8) -0.2321(9)
H1F H 0.0472(9) 0.1381(8) -0.2204(9)
C8F C -0.0151(13) 0.0823(14) -0.2290(12)
C9F C -0.0724(18) 0.0726(18) -0.1950(20)
C11F C -0.0938(23) 0.0142(24) -0.1897(25)
C13F C -0.0676(19) -0.0418(19) -0.2015(24)
C15D C -0.0130(9) -0.0283(9) -0.2304(9)
C8D C 0.0151(13) -0.0823(14) -0.2290(12)
N1D N -0.0109(9) -0.1368(8) -0.2321(9)
H1D H -0.0472(9) -0.1381(8) -0.2204(9)
C7D C 0.0097(12) -0.1844(14) -0.2493(11)
O3D O 0.0653(27) -0.1976(29) -0.2488(29)
C9D C 0.0724(18) -0.0726(18) -0.1950(20)
C11D C 0.0938(23) -0.0142(24) -0.1897(25)
C13D C 0.0676(19) 0.0418(19) -0.2015(24)
C15F C 0.0130(9) 0.0283(9) -0.2304(9)
O3F O -0.0653(27) 0.1976(29) -0.2488(29)
H3A H 0.3764(17) 0.2943(15) -0.0284(16)
H4A H 0.2954(15) 0.2754(13) 0.0354(16)
C7A C 0.1844(14) 0.2493(11) 0.0097(12)
N1A N 0.1368(8) 0.2321(9) -0.0109(9)
H1A H 0.1381(8) 0.2204(9) -0.0472(9)
C8A C 0.0823(14) 0.2290(12) 0.0151(13)
C9A C 0.0726(18) 0.1950(20) 0.0724(18)
C11A C 0.0142(24) 0.1897(25) 0.0938(23)
C13A C -0.0418(19) 0.2015(24) 0.0676(19)
C15C C -0.0283(9) 0.2304(9) 0.0130(9)
C8C C -0.0823(14) 0.2290(12) -0.0151(13)
N1C N -0.1368(8) 0.2321(9) 0.0109(9)
H1C H -0.1381(8) 0.2204(9) 0.0472(9)
C7C C -0.1844(14) 0.2493(11) -0.0097(12)
O3C O -0.1976(29) 0.2488(29) -0.0653(27)
C9C C -0.0726(18) 0.1950(20) -0.0724(18)
C11C C -0.0142(24) 0.1897(25) -0.0938(23)
C13C C 0.0418(19) 0.2015(24) -0.0676(19)
C15A C 0.0283(9) 0.2304(9) -0.0130(9)
O3A O 0.1976(29) 0.2488(29) 0.0653(27)
C9K C 0.1950(20) -0.0724(18) -0.0726(18)
C11K C 0.1897(25) -0.0938(23) -0.0142(24)
C13K C 0.2015(24) -0.0676(19) 0.0418(19)
C15I C 0.2304(9) -0.0130(9) 0.0283(9)
O3I O 0.2488(29) 0.0653(27) 0.1976(29)
C9G C -0.0724(18) -0.0726(18) 0.1950(20)
C11G C -0.0938(23) -0.0142(24) 0.1897(25)
C13G C -0.0676(19) 0.0418(19) 0.2015(24)
C15E C -0.0130(9) 0.0283(9) 0.2304(9)
O3E O 0.0653(27) 0.1976(29) 0.2488(29)
H3C H -0.3764(17) 0.2943(15) 0.0284(16)
H4C H -0.2954(15) 0.2754(13) -0.0354(16)
C9J C -0.1950(20) -0.0724(18) 0.0726(18)
C11J C -0.1897(25) -0.0938(23) 0.0142(24)
C13J C -0.2015(24) -0.0676(19) -0.0418(19)
C15H C -0.2304(9) -0.0130(9) -0.0283(9)
O3H O -0.2488(29) 0.0653(27) -0.1976(29)
H3D H -0.0284(16) -0.3764(17) -0.2943(15)
H4D H 0.0354(16) -0.2954(15) -0.2754(13)
loop_
_geom_bond_atom_site_label_1
_geom_bond_atom_site_label_2
_geom_bond_site_symmetry_1
_geom_bond_site_symmetry_2
Ga1 O1 1_555 1_555
N1 H1 1_555 1_555
N2 C28 1_555 1_555
O1 C1 1_555 1_555
O2 Ga1 1_555 1_555
O3 C7 1_555 1_555
C1 C5 1_555 1_555
C2 H2 1_555 1_555
C3 C2 1_555 1_555
H3 C3 1_555 1_555
C4 C3 1_555 1_555
H4 C4 1_555 1_555
C5 C4 1_555 1_555
C6 O2 1_555 1_555
C7 N1 1_555 1_555
C8 N1 1_555 1_555
C9 C8 1_555 1_555
C11 C9 1_555 1_555
C13 C11 1_555 1_555
C15 C8 1_555 1_555
C28 C30 1_555 1_555
C29 N2 1_555 1_555
C30 C29 1_555 1_555
O1D Ga1 1_555 1_555
C1D O1D 1_555 1_555
C5D C1D 1_555 1_555
C4D C5D 1_555 1_555
C3D C4D 1_555 1_555
C2D C3D 1_555 1_555
H2D C2D 1_555 1_555
C6D C1D 1_555 1_555
O2D Ga1 1_555 1_555
O1H Ga1 1_555 1_555
C1H O1H 1_555 1_555
C5H C1H 1_555 1_555
C4H C5H 1_555 1_555
C3H C4H 1_555 1_555
C2H C3H 1_555 1_555
H2H C2H 1_555 1_555
C6H C1H 1_555 1_555
O2H Ga1 1_555 1_555
H3H C3H 1_555 1_555
H4H C4H 1_555 1_555
C7H C5H 1_555 1_555
N1H C7H 1_555 1_555
H1H N1H 1_555 1_555
C8H N1H 1_555 1_555
C9H C8H 1_555 1_555
C11H C9H 1_555 1_555
C13H C11H 1_555 1_555
C15J C13H 1_555 1_555
C8J C15J 1_555 1_555
N1J C8J 1_555 1_555
H1J N1J 1_555 1_555
C7J N1J 1_555 1_555
O3J C7J 1_555 1_555
C5J C7J 1_555 1_555
C1J C5J 1_555 1_555
O1J C1J 1_555 1_555
Ga1J O1J 1_555 1_555
O1C Ga1J 1_555 1_555
C1C O1C 1_555 1_555
C5C C1C 1_555 1_555
C4C C5C 1_555 1_555
C3C C4C 1_555 1_555
C2C C3C 1_555 1_555
H2C C2C 1_555 1_555
C6C C1C 1_555 1_555
O2C Ga1J 1_555 1_555
O1E Ga1J 1_555 1_555
C1E O1E 1_555 1_555
C5E C1E 1_555 1_555
C4E C5E 1_555 1_555
C3E C4E 1_555 1_555
C2E C3E 1_555 1_555
H2E C2E 1_555 1_555
C6E C1E 1_555 1_555
O2E Ga1J 1_555 1_555
O2J Ga1J 1_555 1_555
C6J C1J 1_555 1_555
C2J C6J 1_555 1_555
H2J C2J 1_555 1_555
C3J C2J 1_555 1_555
H3J C3J 1_555 1_555
C4J C5J 1_555 1_555
H4J C4J 1_555 1_555
H3E C3E 1_555 1_555
H4E C4E 1_555 1_555
C7E C5E 1_555 1_555
N1E C7E 1_555 1_555
H1E N1E 1_555 1_555
C8E N1E 1_555 1_555
C9E C8E 1_555 1_555
C11E C9E 1_555 1_555
C13E C11E 1_555 1_555
C15G C13E 1_555 1_555
C8G C15G 1_555 1_555
N1G C8G 1_555 1_555
H1G N1G 1_555 1_555
C7G N1G 1_555 1_555
O3G C7G 1_555 1_555
C5G C7G 1_555 1_555
C1G C5G 1_555 1_555
O1G C1G 1_555 1_555
Ga1G O1G 1_555 1_555
O1I Ga1G 1_555 1_555
C1I O1I 1_555 1_555
C5I C1I 1_555 1_555
C4I C5I 1_555 1_555
C3I C4I 1_555 1_555
C2I C3I 1_555 1_555
H2I C2I 1_555 1_555
C6I C1I 1_555 1_555
O2I Ga1G 1_555 1_555
O1B Ga1G 1_555 1_555
C1B O1B 1_555 1_555
C5B C1B 1_555 1_555
C4B C5B 1_555 1_555
C3B C4B 1_555 1_555
C2B C3B 1_555 1_555
H2B C2B 1_555 1_555
C6B C1B 1_555 1_555
O2B Ga1G 1_555 1_555
O2G Ga1G 1_555 1_555
C6G C1G 1_555 1_555
C2G C6G 1_555 1_555
H2G C2G 1_555 1_555
C3G C2G 1_555 1_555
H3G C3G 1_555 1_555
C4G C5G 1_555 1_555
H4G C4G 1_555 1_555
H3B C3B 1_555 1_555
H4B C4B 1_555 1_555
C7B C5B 1_555 1_555
N1B C7B 1_555 1_555
H1B N1B 1_555 1_555
C8B N1B 1_555 1_555
C9B C8B 1_555 1_555
C11B C9B 1_555 1_555
C13B C15 1_555 1_555
C15B C13 1_555 1_555
O3B C7B 1_555 1_555
H3I C3I 1_555 1_555
H4I C4I 1_555 1_555
C7I C5I 1_555 1_555
N1I C7I 1_555 1_555
H1I N1I 1_555 1_555
C8I N1I 1_555 1_555
C9I C8I 1_555 1_555
C11I C9I 1_555 1_555
C13I C11I 1_555 1_555
C15K C13I 1_555 1_555
C8K C15K 1_555 1_555
N1K C8K 1_555 1_555
H1K N1K 1_555 1_555
C7K N1K 1_555 1_555
O3K C7K 1_555 1_555
C5K C7K 1_555 1_555
C1K C5K 1_555 1_555
O1K C1K 1_555 1_555
Ga1K O1K 1_555 1_555
O1A Ga1K 1_555 1_555
C1A O1A 1_555 1_555
C5A C1A 1_555 1_555
C4A C5A 1_555 1_555
C3A C4A 1_555 1_555
C2A C3A 1_555 1_555
H2A C2A 1_555 1_555
C6A C1A 1_555 1_555
O2A Ga1K 1_555 1_555
O1F Ga1K 1_555 1_555
C1F O1F 1_555 1_555
C5F C1F 1_555 1_555
C4F C5F 1_555 1_555
C3F C4F 1_555 1_555
C2F C3F 1_555 1_555
H2F C2F 1_555 1_555
C6F C1F 1_555 1_555
O2F Ga1K 1_555 1_555
O2K Ga1K 1_555 1_555
C6K C1K 1_555 1_555
C2K C6K 1_555 1_555
H2K C2K 1_555 1_555
C3K C2K 1_555 1_555
H3K C3K 1_555 1_555
C4K C5K 1_555 1_555
H4K C4K 1_555 1_555
H3F C3F 1_555 1_555
H4F C4F 1_555 1_555
C7F C5F 1_555 1_555
N1F C7F 1_555 1_555
H1F N1F 1_555 1_555
C8F N1F 1_555 1_555
C9F C8F 1_555 1_555
C11F C9F 1_555 1_555
C13F C11F 1_555 1_555
C15D C13F 1_555 1_555
C8D C15D 1_555 1_555
N1D C8D 1_555 1_555
H1D N1D 1_555 1_555
C7D C5D 1_555 1_555
O3D C7D 1_555 1_555
C9D C8D 1_555 1_555
C11D C9D 1_555 1_555
C13D C11D 1_555 1_555
C15F C8F 1_555 1_555
O3F C7F 1_555 1_555
H3A C3A 1_555 1_555
H4A C4A 1_555 1_555
C7A C5A 1_555 1_555
N1A C7A 1_555 1_555
H1A N1A 1_555 1_555
C8A N1A 1_555 1_555
C9A C8A 1_555 1_555
C11A C9A 1_555 1_555
C13A C11A 1_555 1_555
C15C C13A 1_555 1_555
C8C C15C 1_555 1_555
N1C C8C 1_555 1_555
H1C N1C 1_555 1_555
C7C C5C 1_555 1_555
O3C C7C 1_555 1_555
C9C C8C 1_555 1_555
C11C C9C 1_555 1_555
C13C C11C 1_555 1_555
C15A C8A 1_555 1_555
O3A C7A 1_555 1_555
C9K C8K 1_555 1_555
C11K C9K 1_555 1_555
C13K C11K 1_555 1_555
C15I C8I 1_555 1_555
O3I C7I 1_555 1_555
C9G C8G 1_555 1_555
C11G C9G 1_555 1_555
C13G C11G 1_555 1_555
C15E C8E 1_555 1_555
O3E C7E 1_555 1_555
H3C C3C 1_555 1_555
H4C C4C 1_555 1_555
C9J C8J 1_555 1_555
C11J C9J 1_555 1_555
C13J C11J 1_555 1_555
C15H C8H 1_555 1_555
O3H C7H 1_555 1_555
H3D C3D 1_555 1_555
H4D C4D 1_555 1_555
C28A N2 1_555 1_555
C30A C28A 1_555 1_555
C29A N2 1_555 1_555
C28B N2 1_555 1_555
C30B C28B 1_555 1_555
C29B N2 1_555 1_555
C28C N2 1_555 1_555
C30C C28C 1_555 1_555
C29C N2 1_555 1_555
C30E C28A 1_555 1_555
C30I C28A 1_555 1_555
C30G C28 1_555 1_555
C30J C28 1_555 1_555
C30F C29A 1_555 1_555
C30K C29A 1_555 1_555
C30D C29 1_555 1_555
C30H C29 1_555 1_555
C1 C6 1_555 1_555
C2 C6 1_555 1_555
C5 C7 1_555 1_555
C15 C15B 1_555 1_555
C2D C6D 1_555 1_555
C6D O2D 1_555 1_555
C2H C6H 1_555 1_555
C6H O2H 1_555 1_555
C15J C15H 1_555 1_555
C2C C6C 1_555 1_555
C6C O2C 1_555 1_555
C2E C6E 1_555 1_555
C6E O2E 1_555 1_555
O2J C6J 1_555 1_555
C3J C4J 1_555 1_555
C15G C15E 1_555 1_555
C2I C6I 1_555 1_555
C6I O2I 1_555 1_555
C2B C6B 1_555 1_555
C6B O2B 1_555 1_555
O2G C6G 1_555 1_555
C3G C4G 1_555 1_555
C8B C15B 1_555 1_555
C11B C13B 1_555 1_555
C15K C15I 1_555 1_555
C2A C6A 1_555 1_555
C6A O2A 1_555 1_555
C2F C6F 1_555 1_555
C6F O2F 1_555 1_555
O2K C6K 1_555 1_555
C3K C4K 1_555 1_555
C15D C15F 1_555 1_555
N1D C7D 1_555 1_555
C13D C15F 1_555 1_555
C15C C15A 1_555 1_555
N1C C7C 1_555 1_555
C13C C15A 1_555 1_555
C13K C15I 1_555 1_555
C13G C15E 1_555 1_555
C13J C15H 1_555 1_555
C30A C29A 1_555 1_555
C28B C30D 1_555 1_555
C28B C30K 1_555 1_555
C30B C29B 1_555 1_555
C29B C30G 1_555 1_555
C29B C30I 1_555 1_555
C28C C30F 1_555 1_555
C28C C30H 1_555 1_555
C30C C29C 1_555 1_555
C29C C30E 1_555 1_555
C29C C30J 1_555 1_555

#END
