
#######################################################################
#
#                 Cambridge Crystallographic Data Centre
#                                CCDC 
#
#######################################################################
#
# If this CIF has been generated from an entry in the Cambridge 
# Structural Database, then it will include bibliographic, chemical, 
# crystal, experimental, refinement or atomic coordinate data resulting 
# from the CCDC's data processing and validation procedures.
#
#######################################################################

data_QEZYUS
_chemical_formula_moiety         'C240 H264 N24 Ni24 O120,8(C4 H9 N1 O1)'
_chemical_name_systematic        
'tetracosakis(\m-5-hydroxybenzene-1,3-dicarboxylato)-tetracosakis(dimethylamine)-tetracosa-nickel(ii) N,N-dimethylacetamide unknown solvate'
_symmetry_cell_setting           triclinic
_symmetry_space_group_name_H-M   'P -1'
_symmetry_Int_Tables_number      2
_space_group_name_Hall           '-P 1'
loop_
_symmetry_equiv_pos_site_id
_symmetry_equiv_pos_as_xyz
1 x,y,z
2 -x,-y,-z
_cell_length_a                   26.7065(8)
_cell_length_b                   27.2891(7)
_cell_length_c                   27.3115(7)
_cell_angle_alpha                60.085(2)
_cell_angle_beta                 87.922(2)
_cell_angle_gamma                69.175(2)
_cell_volume                     15879.2
_exptl_crystal_colour            green
_exptl_crystal_description       block
_cell_formula_units_Z            1
loop_
_atom_site_label
_atom_site_type_symbol
_atom_site_fract_x
_atom_site_fract_y
_atom_site_fract_z
Ni1 Ni 0.50875(9) 0.35395(9) 0.34406(8)
Ni2 Ni 0.51169(8) 0.30607(9) 0.45565(8)
Ni3 Ni 0.76509(9) 0.41122(10) 0.20467(9)
Ni4 Ni 0.85394(9) 0.38602(10) 0.26799(9)
Ni5 Ni 0.49201(9) 0.70240(9) 0.13910(8)
Ni6 Ni 0.48966(9) 0.76797(9) 0.18536(8)
Ni7 Ni 0.50458(9) 0.15711(9) 0.19989(8)
Ni8 Ni 0.50339(9) 0.04635(9) 0.26351(8)
Ni9 Ni 0.75968(8) 0.54429(9) -0.14148(9)
Ni10 Ni 0.13758(9) 0.89647(9) -0.09811(10)
Ni11 Ni 0.77285(9) 0.20022(9) 0.07419(9)
Ni12 Ni 0.15342(8) 0.44066(9) 0.18568(9)
N1 N 0.5132(5) 0.3810(5) 0.2620(5)
C1 C 0.5326(6) 0.4284(6) 0.2300(6)
H1 H 0.507255 0.466645 0.226578
H2 H 0.535395 0.434509 0.191605
H3 H 0.568534 0.416861 0.249590
C2 C 0.4771(6) 0.3728(7) 0.2329(6)
H4 H 0.484950 0.328927 0.251131
H5 H 0.481888 0.389378 0.192733
H6 H 0.439595 0.394387 0.234704
N2 N 0.5073(6) 0.2782(6) 0.5386(4)
C3 C 0.5377(7) 0.2961(7) 0.5638(6)
H7 H 0.560921 0.313406 0.537544
H8 H 0.560485 0.260125 0.600007
H9 H 0.512732 0.326977 0.571336
C4 C 0.5065(8) 0.2185(6) 0.5712(6)
H10 H 0.472767 0.219062 0.557545
H11 H 0.508519 0.205829 0.611794
H12 H 0.537758 0.189390 0.566687
N3 N 0.6985(5) 0.4335(6) 0.1552(5)
C5 C 0.6478(6) 0.4629(8) 0.1656(6)
H13 H 0.618578 0.464475 0.143463
H14 H 0.643057 0.504760 0.154045
H15 H 0.646362 0.439970 0.206601
C6 C 0.6998(6) 0.4297(8) 0.1047(6)
H16 H 0.694835 0.469786 0.071122
H17 H 0.670436 0.417845 0.100262
H18 H 0.734894 0.398976 0.108233
N4 N 0.9222(5) 0.3620(6) 0.3178(7)
C7 C 0.9284(7) 0.4150(7) 0.3148(9)
H19 H 0.966853 0.404737 0.326042
H20 H 0.907171 0.425158 0.340849
H21 H 0.915235 0.450350 0.275461
C8 C 0.9672(7) 0.3328(8) 0.2981(8)
H22 H 1.000494 0.333841 0.310866
H23 H 0.960027 0.354628 0.256114
H24 H 0.971881 0.290089 0.313922
N5 N 0.4912(5) 0.6524(5) 0.1051(5)
C9 C 0.4575(6) 0.6834(6) 0.0528(5)
H25 H 0.422743 0.712004 0.053195
H26 H 0.450989 0.653958 0.046112
H27 H 0.474739 0.706414 0.022200
C10 C 0.5181(6) 0.5890(5) 0.1393(5)
H28 H 0.554976 0.578929 0.155500
H29 H 0.519938 0.570429 0.116139
H30 H 0.498174 0.572936 0.170546
N6 N 0.4955(6) 0.8170(5) 0.2186(5)
C11 C 0.4703(8) 0.8798(5) 0.1845(5)
H31 H 0.431001 0.891473 0.176243
H32 H 0.484528 0.893788 0.148458
H33 H 0.477320 0.898793 0.204433
C12 C 0.5041(8) 0.7863(6) 0.2789(5)
H34 H 0.469378 0.787666 0.292269
H35 H 0.519893 0.806404 0.291593
H36 H 0.529175 0.743469 0.294957
N7 N 0.4921(5) 0.2457(5) 0.1404(6)
C13 C 0.4757(6) 0.2863(6) 0.1620(7)
H37 H 0.442784 0.284368 0.178595
H38 H 0.468133 0.328339 0.130591
H39 H 0.504893 0.273802 0.191593
C14 C 0.5318(6) 0.2523(7) 0.1045(7)
H40 H 0.566565 0.239545 0.127009
H41 H 0.520139 0.295390 0.073522
H42 H 0.536096 0.226642 0.088013
N8 N 0.5112(6) -0.0404(5) 0.3206(5)
C15 C 0.4842(7) -0.0491(7) 0.3685(6)
H43 H 0.497405 -0.034590 0.389627
H44 H 0.491556 -0.092852 0.393766
H45 H 0.444883 -0.025904 0.354860
C16 C 0.5114(8) -0.0730(7) 0.2939(6)
H46 H 0.477932 -0.051062 0.265666
H47 H 0.513395 -0.114049 0.322806
H48 H 0.542947 -0.076578 0.274519
N9 N 0.6916(5) 0.5266(6) -0.1179(6)
C17 C 0.6987(6) 0.4835(7) -0.0577(6)
H49 H 0.717025 0.493888 -0.035931
H50 H 0.720842 0.442016 -0.049358
H51 H 0.663067 0.485193 -0.046633
C18 C 0.6442(6) 0.5823(6) -0.1439(6)
H52 H 0.651421 0.613516 -0.140845
H53 H 0.613871 0.574950 -0.124362
H54 H 0.634885 0.596584 -0.184477
N10 N 0.0692(6) 0.9679(6) -0.1124(7)
C19 C 0.0371(7) 0.9992(8) -0.1684(7)
H55 H 0.055914 1.021418 -0.197592
H56 H 0.001549 1.028379 -0.170423
H57 H 0.032025 0.969204 -0.175320
C20 C 0.0828(7) 1.0089(7) -0.1020(8)
H58 H 0.060436 1.017278 -0.075674
H59 H 0.075880 1.047461 -0.138326
H60 H 0.121343 0.989816 -0.084844
N11 N 0.7079(5) 0.2682(5) 0.0684(6)
C21 C 0.6543(5) 0.2738(6) 0.0521(7)
H61 H 0.645376 0.295447 0.010185
H62 H 0.627452 0.296924 0.066142
H63 H 0.653781 0.232808 0.068852
C22 C 0.7141(6) 0.3247(6) 0.0484(7)
H64 H 0.749428 0.316307 0.066815
H65 H 0.684945 0.350786 0.058009
H66 H 0.712259 0.345680 0.006732
N12 N 0.0855(5) 0.4271(7) 0.2157(6)
C23 C 0.0748(6) 0.4377(8) 0.2638(6)
H67 H 0.103734 0.406093 0.297067
H68 H 0.039714 0.435695 0.274008
H69 H 0.073872 0.478271 0.252383
C24 C 0.0383(6) 0.4668(8) 0.1706(6)
H70 H 0.023341 0.507310 0.166592
H71 H 0.010723 0.449037 0.180280
H72 H 0.048838 0.471088 0.134366
O1 O 0.5879(3) 0.3282(4) 0.3659(4)
O2 O 0.5906(3) 0.2893(4) 0.4603(4)
O3 O 0.7421(4) 0.3699(4) 0.2803(4)
O4 O 0.8185(4) 0.3461(4) 0.3348(4)
O5 O 0.7835(4) 0.2389(5) 0.5349(4)
H73 H 0.764026 0.247070 0.556815
C25 C 0.6117(5) 0.3061(6) 0.4146(6)
C26 C 0.6944(6) 0.3213(6) 0.3752(6)
H74 H 0.674196 0.340463 0.338062
C27 C 0.6709(5) 0.2976(6) 0.4227(6)
C28 C 0.6999(6) 0.2694(6) 0.4767(6)
H75 H 0.684656 0.251015 0.509850
C29 C 0.7527(6) 0.2682(7) 0.4820(6)
C30 C 0.7759(6) 0.2905(6) 0.4350(6)
H76 H 0.812242 0.287558 0.439042
C31 C 0.7465(6) 0.3177(6) 0.3807(5)
C32 C 0.7712(6) 0.3471(6) 0.3276(6)
O6 O 0.4972(3) 0.4329(3) 0.3389(3)
O7 O 0.4944(3) 0.3939(4) 0.4320(4)
O8 O 0.4842(3) 0.6441(3) 0.2177(3)
O9 O 0.4740(3) 0.7025(4) 0.2547(3)
O10 O 0.4403(4) 0.5808(4) 0.4515(4)
H77 H 0.429439 0.554757 0.476661
C33 C 0.4905(6) 0.4364(5) 0.3846(6)
C34 C 0.4809(5) 0.5471(5) 0.3219(5)
H78 H 0.488877 0.540896 0.290770
C35 C 0.4790(5) 0.5001(5) 0.3731(6)
C36 C 0.4648(5) 0.5101(6) 0.4169(6)
H79 H 0.461868 0.478105 0.452314
C37 C 0.4548(6) 0.5666(6) 0.4096(6)
C38 C 0.4593(5) 0.6133(6) 0.3588(5)
H80 H 0.453958 0.651707 0.354454
C39 C 0.4716(5) 0.6032(5) 0.3146(5)
C40 C 0.4759(5) 0.6553(6) 0.2572(5)
O11 O 0.5187(3) 0.2709(4) 0.3635(4)
O12 O 0.5274(3) 0.2258(3) 0.4597(3)
O13 O 0.5159(3) 0.1566(4) 0.2726(4)
O14 O 0.5212(3) 0.0606(4) 0.3246(3)
O15 O 0.5576(4) 0.0091(4) 0.5298(4)
H81 H 0.567992 -0.023108 0.528677
C41 C 0.5261(5) 0.2262(5) 0.4120(6)
C42 C 0.5275(5) 0.1638(6) 0.3685(5)
H82 H 0.522072 0.199247 0.331911
C43 C 0.5323(5) 0.1658(5) 0.4181(6)
C44 C 0.5418(5) 0.1146(6) 0.4698(6)
H83 H 0.545511 0.116130 0.503402
C45 C 0.5463(6) 0.0586(6) 0.4755(6)
C46 C 0.5416(5) 0.0580(6) 0.4258(5)
H84 H 0.546050 0.020562 0.428441
C47 C 0.5307(5) 0.1091(6) 0.3732(5)
C48 C 0.5217(5) 0.1085(6) 0.3191(5)
O16 O 0.4290(3) 0.3746(4) 0.3417(4)
O17 O 0.4322(3) 0.3294(4) 0.4361(4)
O18 O 0.2632(3) 0.4343(4) 0.2209(4)
O19 O 0.1876(4) 0.4296(4) 0.2567(3)
O20 O 0.2406(4) 0.3616(5) 0.4637(4)
H85 H 0.247650 0.323806 0.484153
C49 C 0.4077(5) 0.3570(6) 0.3863(6)
C50 C 0.3203(5) 0.3957(6) 0.3251(6)
H86 H 0.338930 0.404973 0.293429
C51 C 0.3474(5) 0.3723(6) 0.3789(6)
C52 C 0.3205(6) 0.3604(6) 0.4260(6)
H87 H 0.339649 0.344527 0.462772
C53 C 0.2643(6) 0.3725(7) 0.4179(6)
C54 C 0.2364(6) 0.3945(6) 0.3650(5)
H88 H 0.198807 0.402066 0.359875
C55 C 0.2655(5) 0.4057(6) 0.3173(5)
C56 C 0.2373(6) 0.4258(6) 0.2597(5)
O21 O 0.7399(3) 0.4886(4) 0.2077(4)
O22 O 0.8143(4) 0.4654(4) 0.2641(4)
O23 O 0.5729(3) 0.6646(4) 0.1657(3)
O24 O 0.5689(4) 0.7151(4) 0.2115(3)
O25 O 0.7601(4) 0.6382(5) 0.3027(4)
H89 H 0.770277 0.610669 0.337635
C57 C 0.7670(6) 0.4977(6) 0.2385(6)
C58 C 0.6840(5) 0.5892(6) 0.2150(5)
H90 H 0.666797 0.579374 0.193282
C59 C 0.7367(6) 0.5557(6) 0.2401(6)
C60 C 0.7628(6) 0.5703(6) 0.2690(6)
H91 H 0.800187 0.546320 0.285527
C61 C 0.7352(6) 0.6198(7) 0.2746(6)
C62 C 0.6805(6) 0.6548(6) 0.2501(6)
H92 H 0.661737 0.689489 0.253554
C63 C 0.6542(5) 0.6406(6) 0.2220(5)
C64 C 0.5935(5) 0.6764(6) 0.1979(6)
O26 O 0.8011(4) 0.4460(4) 0.1389(4)
O27 O 0.8740(4) 0.4336(4) 0.1898(4)
O28 O 0.7945(4) 0.5272(4) -0.0685(3)
O29 O 0.8640(4) 0.5491(4) -0.1093(4)
O30 O 0.9720(4) 0.5445(5) 0.0421(4)
H93 H 0.976831 0.567054 0.009002
C65 C 0.8445(6) 0.4504(6) 0.1442(6)
C66 C 0.8429(6) 0.4940(6) 0.0391(6)
H94 H 0.813027 0.483000 0.038484
C67 C 0.8671(6) 0.4823(6) 0.0895(5)
C68 C 0.9089(6) 0.4987(7) 0.0899(6)
H95 H 0.925664 0.490713 0.124630
C69 C 0.9275(6) 0.5280(7) 0.0381(6)
C70 C 0.9052(6) 0.5403(7) -0.0129(6)
H96 H 0.918061 0.560172 -0.047444
C71 C 0.8631(6) 0.5225(7) -0.0112(5)
C72 C 0.8397(6) 0.5328(6) -0.0678(6)
O31 O 0.8026(4) 0.3301(4) 0.2113(4)
O32 O 0.8808(4) 0.3100(4) 0.2631(4)
O33 O 0.8123(4) 0.2006(4) 0.1344(4)
O34 O 0.8882(4) 0.1174(4) 0.1572(4)
O35 O 1.0136(5) 0.1137(6) 0.2935(5)
H97 H 1.015331 0.078981 0.319566
C73 C 0.8516(6) 0.2975(6) 0.2381(6)
C74 C 0.8565(6) 0.2265(6) 0.2042(6)
H98 H 0.821438 0.254323 0.181751
C75 C 0.8809(6) 0.2374(6) 0.2399(6)
C76 C 0.9334(6) 0.1997(7) 0.2692(6)
H99 H 0.950597 0.208178 0.292254
C77 C 0.9594(7) 0.1510(7) 0.2645(7)
C78 C 0.9365(6) 0.1373(7) 0.2321(6)
H100 H 0.956796 0.101942 0.230227
C79 C 0.8850(6) 0.1733(7) 0.2021(6)
C80 C 0.8592(6) 0.1619(7) 0.1617(6)
O36 O 0.4119(3) 0.7515(4) 0.1190(3)
O37 O 0.4106(3) 0.8111(3) 0.1528(3)
O38 O 0.2537(4) 0.8132(4) -0.0156(4)
O39 O 0.1777(4) 0.8941(4) -0.0342(4)
O40 O 0.2147(5) 0.9571(5) 0.0994(5)
H101 H 0.196419 0.989905 0.069034
C81 C 0.3886(5) 0.7957(6) 0.1255(5)
C82 C 0.3047(6) 0.8259(6) 0.0615(6)
H102 H 0.325487 0.796113 0.052356
C83 C 0.3278(5) 0.8328(6) 0.1006(6)
C84 C 0.2969(6) 0.8780(6) 0.1120(6)
H103 H 0.312548 0.882819 0.139224
C85 C 0.2476(7) 0.9133(7) 0.0861(7)
C86 C 0.2216(6) 0.9069(7) 0.0472(6)
H104 H 0.184657 0.932656 0.029527
C87 C 0.2508(6) 0.8628(6) 0.0356(6)
C88 C 0.2237(6) 0.8575(7) -0.0086(6)
O41 O 0.5017(3) 0.7699(4) 0.0676(3)
O42 O 0.5061(4) 0.8217(4) 0.1090(3)
O43 O 0.5049(4) 0.8580(4) -0.1378(3)
O44 O 0.5141(4) 0.9486(4) -0.1903(4)
O45 O 0.5577(4) 0.9935(4) -0.0440(4)
H105 H 0.570158 0.984655 -0.011577
C89 C 0.5075(6) 0.8132(6) 0.0671(5)
C90 C 0.5134(5) 0.8579(6) -0.0361(5)
H106 H 0.504046 0.826804 -0.034786
C91 C 0.5188(6) 0.8608(6) 0.0110(5)
C92 C 0.5348(6) 0.9045(6) 0.0113(6)
H107 H 0.539650 0.904543 0.045524
C93 C 0.5428(6) 0.9458(6) -0.0381(6)
C94 C 0.5365(6) 0.9473(6) -0.0883(6)
H108 H 0.541808 0.978031 -0.122965
C95 C 0.5220(6) 0.9023(6) -0.0871(5)
C96 C 0.5141(6) 0.9037(7) -0.1437(5)
O46 O 0.5849(3) 0.1138(4) 0.2093(3)
O47 O 0.5831(3) 0.0190(4) 0.2577(4)
O48 O 0.7491(3) 0.1360(4) 0.1346(4)
O49 O 0.8237(4) 0.0532(4) 0.1559(4)
O50 O 0.7732(4) -0.1235(4) 0.2923(5)
H109 H 0.784355 -0.134541 0.325998
C97 C 0.6064(5) 0.0550(6) 0.2343(6)
C98 C 0.6936(5) 0.0632(6) 0.2022(6)
H110 H 0.674712 0.106581 0.181739
C99 C 0.6673(5) 0.0279(6) 0.2334(6)
C100 C 0.6943(6) -0.0351(6) 0.2638(6)
H111 H 0.676120 -0.060630 0.287125
C101 C 0.7478(6) -0.0606(7) 0.2601(7)
C102 C 0.7758(6) -0.0244(6) 0.2283(6)
H112 H 0.813081 -0.042614 0.227199
C103 C 0.7489(6) 0.0379(6) 0.1985(6)
C104 C 0.7773(6) 0.0781(7) 0.1585(6)
O51 O 0.4251(3) 0.1829(4) 0.2021(3)
O52 O 0.4237(3) 0.0892(4) 0.2591(3)
O53 O 0.2685(3) 0.3652(4) 0.1698(4)
O54 O 0.1976(4) 0.3528(4) 0.2152(3)
O55 O 0.2314(4) 0.1325(4) 0.2989(5)
H113 H 0.243646 0.110651 0.334315
C105 C 0.4031(5) 0.1482(6) 0.2312(6)
C106 C 0.3212(5) 0.2387(6) 0.2141(5)
H114 H 0.341675 0.263027 0.195268
C107 C 0.3433(5) 0.1771(6) 0.2344(5)
C108 C 0.3159(6) 0.1408(6) 0.2631(6)
H115 H 0.332970 0.098000 0.277613
C109 C 0.2613(6) 0.1658(6) 0.2722(6)
C110 C 0.2388(6) 0.2280(6) 0.2508(6)
H116 H 0.202921 0.246353 0.255720
C111 C 0.2687(6) 0.2654(5) 0.2213(6)
C112 C 0.2437(6) 0.3333(5) 0.2006(6)
O56 O 0.1972(4) 0.5436(4) 0.1180(4)
O57 O 0.1231(3) 0.5312(4) 0.1519(4)
O58 O 0.1883(4) 0.7512(4) -0.0176(4)
O59 O 0.1129(4) 0.8334(4) -0.0383(4)
O60 O -0.0123(4) 0.7462(5) 0.0838(5)
H117 H -0.019074 0.721458 0.114610
C113 C 0.1486(6) 0.5643(5) 0.1238(6)
C114 C 0.1432(5) 0.6715(6) 0.0594(6)
H118 H 0.178909 0.654911 0.052969
C115 C 0.1199(5) 0.6334(5) 0.0972(6)
C116 C 0.0683(6) 0.6574(6) 0.1066(6)
H119 H 0.052121 0.631076 0.132858
C117 C 0.0414(6) 0.7184(7) 0.0781(7)
C118 C 0.0640(6) 0.7585(7) 0.0392(6)
H120 H 0.044303 0.801711 0.019455
C119 C 0.1141(6) 0.7345(6) 0.0305(6)
C120 C 0.1399(6) 0.7770(6) -0.0135(6)
Ni1A Ni 0.49125(9) 0.64605(9) -0.34406(8)
Ni2A Ni 0.48831(8) 0.69393(9) -0.45565(8)
Ni3A Ni 0.23491(9) 0.58878(10) -0.20467(9)
Ni4A Ni 0.14606(9) 0.61398(10) -0.26799(9)
Ni5A Ni 0.50799(9) 0.29760(9) -0.13910(8)
Ni6A Ni 0.51034(9) 0.23203(9) -0.18536(8)
Ni7A Ni 0.49542(9) 0.84289(9) -0.19989(8)
Ni8A Ni 0.49661(9) 0.95365(9) -0.26351(8)
Ni9A Ni 0.24032(8) 0.45571(9) 0.14148(9)
Ni10A Ni 0.86242(9) 0.10353(9) 0.09811(10)
Ni11A Ni 0.22715(9) 0.79978(9) -0.07419(9)
Ni12A Ni 0.84658(8) 0.55934(9) -0.18568(9)
N1A N 0.4868(5) 0.6190(5) -0.2620(5)
C1A C 0.4674(6) 0.5716(6) -0.2300(6)
H1A H 0.492745 0.533355 -0.226578
H2A H 0.464605 0.565491 -0.191605
H3A H 0.431466 0.583139 -0.249590
C2A C 0.5229(6) 0.6272(7) -0.2329(6)
H4A H 0.515050 0.671073 -0.251131
H5A H 0.518112 0.610622 -0.192733
H6A H 0.560405 0.605613 -0.234704
N2A N 0.4927(6) 0.7218(6) -0.5386(4)
C3A C 0.4623(7) 0.7039(7) -0.5638(6)
H7A H 0.439079 0.686594 -0.537544
H8A H 0.439515 0.739875 -0.600007
H9A H 0.487268 0.673023 -0.571336
C4A C 0.4935(8) 0.7815(6) -0.5712(6)
H10A H 0.527233 0.780938 -0.557545
H11A H 0.491481 0.794171 -0.611794
H12A H 0.462242 0.810610 -0.566687
N3A N 0.3015(5) 0.5665(6) -0.1552(5)
C5A C 0.3522(6) 0.5371(8) -0.1656(6)
H13A H 0.381422 0.535525 -0.143463
H14A H 0.356943 0.495240 -0.154045
H15A H 0.353638 0.560030 -0.206601
C6A C 0.3002(6) 0.5703(8) -0.1047(6)
H16A H 0.305165 0.530214 -0.071122
H17A H 0.329564 0.582155 -0.100262
H18A H 0.265106 0.601024 -0.108233
N4A N 0.0778(5) 0.6380(6) -0.3178(7)
C7A C 0.0716(7) 0.5850(7) -0.3148(9)
H19A H 0.033147 0.595263 -0.326042
H20A H 0.092829 0.574842 -0.340849
H21A H 0.084765 0.549650 -0.275461
C8A C 0.0328(7) 0.6672(8) -0.2981(8)
H22A H -0.000494 0.666159 -0.310866
H23A H 0.039973 0.645372 -0.256114
H24A H 0.028119 0.709911 -0.313922
N5A N 0.5088(5) 0.3476(5) -0.1051(5)
C9A C 0.5425(6) 0.3166(6) -0.0528(5)
H25A H 0.577257 0.287996 -0.053195
H26A H 0.549011 0.346042 -0.046112
H27A H 0.525261 0.293586 -0.022200
C10A C 0.4819(6) 0.4110(5) -0.1393(5)
H28A H 0.445024 0.421071 -0.155500
H29A H 0.480062 0.429571 -0.116139
H30A H 0.501826 0.427064 -0.170546
N6A N 0.5045(6) 0.1830(5) -0.2186(5)
C11A C 0.5297(8) 0.1202(5) -0.1845(5)
H31A H 0.568999 0.108527 -0.176243
H32A H 0.515472 0.106212 -0.148458
H33A H 0.522680 0.101207 -0.204433
C12A C 0.4959(8) 0.2137(6) -0.2789(5)
H34A H 0.530622 0.212334 -0.292269
H35A H 0.480107 0.193596 -0.291593
H36A H 0.470825 0.256531 -0.294957
N7A N 0.5079(5) 0.7543(5) -0.1404(6)
C13A C 0.5243(6) 0.7137(6) -0.1620(7)
H37A H 0.557216 0.715632 -0.178595
H38A H 0.531867 0.671661 -0.130591
H39A H 0.495107 0.726198 -0.191593
C14A C 0.4682(6) 0.7477(7) -0.1045(7)
H40A H 0.433435 0.760455 -0.127009
H41A H 0.479861 0.704610 -0.073522
H42A H 0.463904 0.773358 -0.088013
N8A N 0.4888(6) 1.0404(5) -0.3206(5)
C15A C 0.5158(7) 1.0491(7) -0.3685(6)
H43A H 0.502595 1.034590 -0.389627
H44A H 0.508444 1.092852 -0.393766
H45A H 0.555117 1.025904 -0.354860
C16A C 0.4886(8) 1.0730(7) -0.2939(6)
H46A H 0.522068 1.051062 -0.265666
H47A H 0.486605 1.114049 -0.322806
H48A H 0.457053 1.076578 -0.274519
N9A N 0.3084(5) 0.4734(6) 0.1179(6)
C17A C 0.3013(6) 0.5165(7) 0.0577(6)
H49A H 0.282975 0.506112 0.035931
H50A H 0.279158 0.557984 0.049358
H51A H 0.336933 0.514807 0.046633
C18A C 0.3558(6) 0.4177(6) 0.1439(6)
H52A H 0.348579 0.386484 0.140845
H53A H 0.386129 0.425050 0.124362
H54A H 0.365115 0.403416 0.184477
N10A N 0.9308(6) 0.0321(6) 0.1124(7)
C19A C 0.9629(7) 0.0008(8) 0.1684(7)
H55A H 0.944086 -0.021418 0.197592
H56A H 0.998451 -0.028379 0.170423
H57A H 0.967975 0.030796 0.175320
C20A C 0.9172(7) -0.0089(7) 0.1020(8)
H58A H 0.939564 -0.017278 0.075674
H59A H 0.924120 -0.047461 0.138326
H60A H 0.878657 0.010184 0.084844
N11A N 0.2921(5) 0.7318(5) -0.0684(6)
C21A C 0.3457(5) 0.7262(6) -0.0521(7)
H61A H 0.354624 0.704553 -0.010185
H62A H 0.372548 0.703076 -0.066142
H63A H 0.346219 0.767192 -0.068852
C22A C 0.2859(6) 0.6753(6) -0.0484(7)
H64A H 0.250572 0.683693 -0.066815
H65A H 0.315055 0.649214 -0.058009
H66A H 0.287741 0.654320 -0.006732
N12A N 0.9145(5) 0.5729(7) -0.2157(6)
C23A C 0.9252(6) 0.5623(8) -0.2638(6)
H67A H 0.896266 0.593907 -0.297067
H68A H 0.960286 0.564305 -0.274008
H69A H 0.926128 0.521729 -0.252383
C24A C 0.9617(6) 0.5332(8) -0.1706(6)
H70A H 0.976659 0.492690 -0.166592
H71A H 0.989277 0.550963 -0.180280
H72A H 0.951162 0.528912 -0.134366
O1A O 0.4121(3) 0.6718(4) -0.3659(4)
O2A O 0.4094(3) 0.7107(4) -0.4603(4)
O3A O 0.2579(4) 0.6301(4) -0.2803(4)
O4A O 0.1815(4) 0.6539(4) -0.3348(4)
O5A O 0.2165(4) 0.7611(5) -0.5349(4)
H73A H 0.235974 0.752930 -0.556815
C25A C 0.3883(5) 0.6939(6) -0.4146(6)
C26A C 0.3056(6) 0.6787(6) -0.3752(6)
H74A H 0.325804 0.659537 -0.338062
C27A C 0.3291(5) 0.7024(6) -0.4227(6)
C28A C 0.3001(6) 0.7306(6) -0.4767(6)
H75A H 0.315344 0.748985 -0.509850
C29A C 0.2473(6) 0.7318(7) -0.4820(6)
C30A C 0.2241(6) 0.7095(6) -0.4350(6)
H76A H 0.187758 0.712442 -0.439042
C31A C 0.2535(6) 0.6823(6) -0.3807(5)
C32A C 0.2288(6) 0.6529(6) -0.3276(6)
O6A O 0.5028(3) 0.5671(3) -0.3389(3)
O7A O 0.5056(3) 0.6061(4) -0.4320(4)
O8A O 0.5158(3) 0.3559(3) -0.2177(3)
O9A O 0.5260(3) 0.2975(4) -0.2547(3)
O10A O 0.5597(4) 0.4192(4) -0.4515(4)
H77A H 0.570561 0.445243 -0.476661
C33A C 0.5095(6) 0.5636(5) -0.3846(6)
C34A C 0.5191(5) 0.4529(5) -0.3219(5)
H78A H 0.511123 0.459104 -0.290770
C35A C 0.5210(5) 0.4999(5) -0.3731(6)
C36A C 0.5352(5) 0.4899(6) -0.4169(6)
H79A H 0.538132 0.521895 -0.452314
C37A C 0.5452(6) 0.4334(6) -0.4096(6)
C38A C 0.5407(5) 0.3867(6) -0.3588(5)
H80A H 0.546042 0.348293 -0.354454
C39A C 0.5284(5) 0.3968(5) -0.3146(5)
C40A C 0.5241(5) 0.3447(6) -0.2572(5)
O11A O 0.4813(3) 0.7291(4) -0.3635(4)
O12A O 0.4726(3) 0.7742(3) -0.4597(3)
O13A O 0.4841(3) 0.8434(4) -0.2726(4)
O14A O 0.4788(3) 0.9394(4) -0.3246(3)
O15A O 0.4424(4) 0.9909(4) -0.5298(4)
H81A H 0.432008 1.023108 -0.528677
C41A C 0.4739(5) 0.7738(5) -0.4120(6)
C42A C 0.4725(5) 0.8362(6) -0.3685(5)
H82A H 0.477928 0.800753 -0.331911
C43A C 0.4677(5) 0.8342(5) -0.4181(6)
C44A C 0.4582(5) 0.8854(6) -0.4698(6)
H83A H 0.454489 0.883870 -0.503402
C45A C 0.4537(6) 0.9414(6) -0.4755(6)
C46A C 0.4584(5) 0.9420(6) -0.4258(5)
H84A H 0.453950 0.979438 -0.428441
C47A C 0.4693(5) 0.8909(6) -0.3732(5)
C48A C 0.4783(5) 0.8915(6) -0.3191(5)
O16A O 0.5710(3) 0.6254(4) -0.3417(4)
O17A O 0.5678(3) 0.6706(4) -0.4361(4)
O18A O 0.7368(3) 0.5657(4) -0.2209(4)
O19A O 0.8124(4) 0.5704(4) -0.2567(3)
O20A O 0.7594(4) 0.6384(5) -0.4637(4)
H85A H 0.752350 0.676194 -0.484153
C49A C 0.5923(5) 0.6430(6) -0.3863(6)
C50A C 0.6797(5) 0.6043(6) -0.3251(6)
H86A H 0.661070 0.595027 -0.293429
C51A C 0.6526(5) 0.6277(6) -0.3789(6)
C52A C 0.6795(6) 0.6396(6) -0.4260(6)
H87A H 0.660351 0.655473 -0.462772
C53A C 0.7357(6) 0.6275(7) -0.4179(6)
C54A C 0.7636(6) 0.6055(6) -0.3650(5)
H88A H 0.801193 0.597934 -0.359875
C55A C 0.7345(5) 0.5943(6) -0.3173(5)
C56A C 0.7627(6) 0.5742(6) -0.2597(5)
O21A O 0.2601(3) 0.5114(4) -0.2077(4)
O22A O 0.1857(4) 0.5346(4) -0.2641(4)
O23A O 0.4271(3) 0.3354(4) -0.1657(3)
O24A O 0.4311(4) 0.2849(4) -0.2115(3)
O25A O 0.2399(4) 0.3618(5) -0.3027(4)
H89A H 0.229723 0.389331 -0.337635
C57A C 0.2330(6) 0.5023(6) -0.2385(6)
C58A C 0.3160(5) 0.4108(6) -0.2150(5)
H90A H 0.333203 0.420626 -0.193282
C59A C 0.2633(6) 0.4443(6) -0.2401(6)
C60A C 0.2372(6) 0.4297(6) -0.2690(6)
H91A H 0.199813 0.453680 -0.285527
C61A C 0.2648(6) 0.3802(7) -0.2746(6)
C62A C 0.3195(6) 0.3452(6) -0.2501(6)
H92A H 0.338263 0.310511 -0.253554
C63A C 0.3458(5) 0.3594(6) -0.2220(5)
C64A C 0.4065(5) 0.3236(6) -0.1979(6)
O26A O 0.1989(4) 0.5540(4) -0.1389(4)
O27A O 0.1260(4) 0.5664(4) -0.1898(4)
O28A O 0.2055(4) 0.4728(4) 0.0685(3)
O29A O 0.1360(4) 0.4509(4) 0.1093(4)
O30A O 0.0280(4) 0.4555(5) -0.0421(4)
H93A H 0.023169 0.432946 -0.009002
C65A C 0.1555(6) 0.5496(6) -0.1442(6)
C66A C 0.1571(6) 0.5060(6) -0.0391(6)
H94A H 0.186973 0.517000 -0.038484
C67A C 0.1329(6) 0.5177(6) -0.0895(5)
C68A C 0.0911(6) 0.5013(7) -0.0899(6)
H95A H 0.074336 0.509287 -0.124630
C69A C 0.0725(6) 0.4720(7) -0.0381(6)
C70A C 0.0948(6) 0.4597(7) 0.0129(6)
H96A H 0.081939 0.439828 0.047444
C71A C 0.1369(6) 0.4775(7) 0.0112(5)
C72A C 0.1603(6) 0.4672(6) 0.0678(6)
O31A O 0.1974(4) 0.6699(4) -0.2113(4)
O32A O 0.1192(4) 0.6900(4) -0.2631(4)
O33A O 0.1877(4) 0.7994(4) -0.1344(4)
O34A O 0.1118(4) 0.8826(4) -0.1572(4)
O35A O -0.0136(5) 0.8863(6) -0.2935(5)
H97A H -0.015331 0.921019 -0.319566
C73A C 0.1484(6) 0.7025(6) -0.2381(6)
C74A C 0.1435(6) 0.7735(6) -0.2042(6)
H98A H 0.178562 0.745677 -0.181751
C75A C 0.1191(6) 0.7626(6) -0.2399(6)
C76A C 0.0666(6) 0.8003(7) -0.2692(6)
H99A H 0.049403 0.791822 -0.292254
C77A C 0.0406(7) 0.8490(7) -0.2645(7)
C78A C 0.0635(6) 0.8627(7) -0.2321(6)
H100A H 0.043204 0.898058 -0.230227
C79A C 0.1150(6) 0.8267(7) -0.2021(6)
C80A C 0.1408(6) 0.8381(7) -0.1617(6)
O36A O 0.5881(3) 0.2485(4) -0.1190(3)
O37A O 0.5894(3) 0.1889(3) -0.1528(3)
O38A O 0.7463(4) 0.1868(4) 0.0156(4)
O39A O 0.8223(4) 0.1059(4) 0.0342(4)
O40A O 0.7853(5) 0.0429(5) -0.0994(5)
H101A H 0.803581 0.010095 -0.069034
C81A C 0.6114(5) 0.2043(6) -0.1255(5)
C82A C 0.6953(6) 0.1741(6) -0.0615(6)
H102A H 0.674513 0.203887 -0.052356
C83A C 0.6722(5) 0.1672(6) -0.1006(6)
C84A C 0.7031(6) 0.1220(6) -0.1120(6)
H103A H 0.687452 0.117181 -0.139224
C85A C 0.7524(7) 0.0867(7) -0.0861(7)
C86A C 0.7784(6) 0.0931(7) -0.0472(6)
H104A H 0.815343 0.067344 -0.029527
C87A C 0.7492(6) 0.1372(6) -0.0356(6)
C88A C 0.7763(6) 0.1425(7) 0.0086(6)
O41A O 0.4983(3) 0.2301(4) -0.0676(3)
O42A O 0.4939(4) 0.1783(4) -0.1090(3)
O43A O 0.4951(4) 0.1420(4) 0.1378(3)
O44A O 0.4859(4) 0.0514(4) 0.1903(4)
O45A O 0.4423(4) 0.0065(4) 0.0440(4)
H105A H 0.429842 0.015345 0.011577
C89A C 0.4925(6) 0.1868(6) -0.0671(5)
C90A C 0.4866(5) 0.1421(6) 0.0361(5)
H106A H 0.495954 0.173196 0.034786
C91A C 0.4812(6) 0.1392(6) -0.0110(5)
C92A C 0.4652(6) 0.0955(6) -0.0113(6)
H107A H 0.460350 0.095457 -0.045524
C93A C 0.4572(6) 0.0542(6) 0.0381(6)
C94A C 0.4635(6) 0.0527(6) 0.0883(6)
H108A H 0.458192 0.021969 0.122965
C95A C 0.4780(6) 0.0977(6) 0.0871(5)
C96A C 0.4859(6) 0.0963(7) 0.1437(5)
O46A O 0.4151(3) 0.8862(4) -0.2093(3)
O47A O 0.4169(3) 0.9810(4) -0.2577(4)
O48A O 0.2509(3) 0.8640(4) -0.1346(4)
O49A O 0.1763(4) 0.9468(4) -0.1559(4)
O50A O 0.2268(4) 1.1235(4) -0.2923(5)
H109A H 0.215645 1.134541 -0.325998
C97A C 0.3936(5) 0.9450(6) -0.2343(6)
C98A C 0.3064(5) 0.9368(6) -0.2022(6)
H110A H 0.325288 0.893419 -0.181739
C99A C 0.3327(5) 0.9721(6) -0.2334(6)
C100A C 0.3057(6) 1.0351(6) -0.2638(6)
H111A H 0.323880 1.060630 -0.287125
C101A C 0.2522(6) 1.0606(7) -0.2601(7)
C102A C 0.2242(6) 1.0244(6) -0.2283(6)
H112A H 0.186919 1.042614 -0.227199
C103A C 0.2511(6) 0.9621(6) -0.1985(6)
C104A C 0.2227(6) 0.9219(7) -0.1585(6)
O51A O 0.5749(3) 0.8171(4) -0.2021(3)
O52A O 0.5763(3) 0.9108(4) -0.2591(3)
O53A O 0.7315(3) 0.6348(4) -0.1698(4)
O54A O 0.8024(4) 0.6472(4) -0.2152(3)
O55A O 0.7686(4) 0.8675(4) -0.2989(5)
H113A H 0.756354 0.889349 -0.334315
C105A C 0.5969(5) 0.8518(6) -0.2312(6)
C106A C 0.6788(5) 0.7613(6) -0.2141(5)
H114A H 0.658325 0.736973 -0.195268
C107A C 0.6567(5) 0.8229(6) -0.2344(5)
C108A C 0.6841(6) 0.8592(6) -0.2631(6)
H115A H 0.667030 0.902000 -0.277613
C109A C 0.7387(6) 0.8342(6) -0.2722(6)
C110A C 0.7612(6) 0.7720(6) -0.2508(6)
H116A H 0.797079 0.753647 -0.255720
C111A C 0.7313(6) 0.7346(5) -0.2213(6)
C112A C 0.7563(6) 0.6667(5) -0.2006(6)
O56A O 0.8028(4) 0.4564(4) -0.1180(4)
O57A O 0.8769(3) 0.4688(4) -0.1519(4)
O58A O 0.8117(4) 0.2488(4) 0.0176(4)
O59A O 0.8871(4) 0.1666(4) 0.0383(4)
O60A O 1.0123(4) 0.2538(5) -0.0838(5)
H117A H 1.019074 0.278542 -0.114610
C113A C 0.8514(6) 0.4357(5) -0.1238(6)
C114A C 0.8568(5) 0.3285(6) -0.0594(6)
H118A H 0.821091 0.345089 -0.052969
C115A C 0.8801(5) 0.3666(5) -0.0972(6)
C116A C 0.9317(6) 0.3426(6) -0.1066(6)
H119A H 0.947879 0.368924 -0.132858
C117A C 0.9586(6) 0.2816(7) -0.0781(7)
C118A C 0.9360(6) 0.2415(7) -0.0392(6)
H120A H 0.955697 0.198289 -0.019455
C119A C 0.8859(6) 0.2655(6) -0.0305(6)
C120A C 0.8601(6) 0.2230(6) 0.0135(6)
O61 O 0.4067(5) 0.5013(5) 0.5357(4)
N13 N 0.3871(6) 0.4804(6) 0.6205(6)
C121 C 0.3937(8) 0.5153(7) 0.5770(7)
C122 C 0.3805(7) 0.5822(6) 0.5593(6)
H121 H 0.388948 0.604192 0.520964
H122 H 0.341775 0.602252 0.558891
H123 H 0.402371 0.582903 0.586862
C123 C 0.3939(7) 0.4133(7) 0.6345(7)
H124 H 0.386729 0.390185 0.673282
H125 H 0.367991 0.417623 0.606678
H126 H 0.431040 0.391337 0.632101
C124 C 0.3693(7) 0.4895(8) 0.6695(6)
H127 H 0.367210 0.451705 0.701008
H128 H 0.395739 0.499495 0.682833
H129 H 0.333484 0.523190 0.656379
O62 O 0.5905(5) -0.0928(5) 0.5261(5)
N14 N 0.6084(6) -0.1872(6) 0.5891(6)
C125 C 0.5999(8) -0.1404(8) 0.5805(7)
C126 C 0.6091(7) -0.1358(7) 0.6336(6)
H130 H 0.600581 -0.092869 0.621262
H131 H 0.585435 -0.151075 0.660396
H132 H 0.647225 -0.160566 0.652609
C127 C 0.6043(7) -0.1954(7) 0.5342(7)
H133 H 0.612692 -0.238603 0.547888
H134 H 0.567436 -0.170249 0.511838
H135 H 0.630452 -0.182167 0.510057
C128 C 0.6178(7) -0.2454(6) 0.6462(7)
H136 H 0.624249 -0.279399 0.640045
H137 H 0.649599 -0.254750 0.671045
H138 H 0.585714 -0.239626 0.664481
O63 O 0.9921(5) 0.6157(5) -0.0570(4)
N15 N 1.0523(6) 0.6548(7) -0.0933(6)
C129 C 1.0352(7) 0.6307(9) -0.0528(7)
C130 C 1.0565(7) 0.6183(8) 0.0059(6)
H139 H 1.036766 0.597423 0.034819
H140 H 1.095419 0.592221 0.017188
H141 H 1.050791 0.657298 0.002774
C131 C 1.1026(7) 0.6707(9) -0.0913(7)
H142 H 1.110786 0.691006 -0.130092
H143 H 1.094478 0.698201 -0.076372
H144 H 1.134068 0.632888 -0.066256
C132 C 1.0304(7) 0.6686(9) -0.1515(6)
H145 H 1.050325 0.689217 -0.180353
H146 H 1.035061 0.630169 -0.149160
H147 H 0.991636 0.695387 -0.162518
O64 O 0.5984(5) 0.9693(5) 0.0564(5)
N16 N 0.6203(6) 1.0193(7) 0.0865(6)
C133 C 0.6128(8) 1.0148(8) 0.0499(7)
C134 C 0.6203(7) 1.0619(7) -0.0098(6)
H148 H 0.612425 1.052850 -0.038459
H149 H 0.595350 1.103436 -0.020573
H150 H 0.657882 1.059049 -0.007867
C135 C 0.6132(8) 0.9701(8) 0.1484(7)
H151 H 0.621037 0.979139 0.177074
H152 H 0.575804 0.972390 0.146767
H153 H 0.638509 0.928719 0.158964
C136 C 0.6363(8) 1.0681(8) 0.0851(7)
H154 H 0.640334 1.061137 0.123807
H155 H 0.670841 1.065890 0.071040
H156 H 0.607954 1.108753 0.059415
loop_
_geom_bond_atom_site_label_1
_geom_bond_atom_site_label_2
_geom_bond_site_symmetry_1
_geom_bond_site_symmetry_2
Ni1 Ni2 1_555 1_555
Ni2 N2 1_555 1_555
Ni3 Ni4 1_555 1_555
Ni4 N4 1_555 1_555
Ni5 Ni6 1_555 1_555
Ni6 N6 1_555 1_555
Ni7 Ni8 1_555 1_555
Ni8 N8 1_555 1_555
Ni9 N9 1_555 1_555
Ni10 N10 1_555 1_555
Ni11 N11 1_555 1_555
Ni12 N12 1_555 1_555
N1 Ni1 1_555 1_555
C1 N1 1_555 1_555
H1 C1 1_555 1_555
H2 C1 1_555 1_555
H3 C1 1_555 1_555
C2 N1 1_555 1_555
H4 C2 1_555 1_555
H5 C2 1_555 1_555
H6 C2 1_555 1_555
N2 C3 1_555 1_555
C3 H7 1_555 1_555
H8 C3 1_555 1_555
H9 C3 1_555 1_555
C4 N2 1_555 1_555
H10 C4 1_555 1_555
H11 C4 1_555 1_555
H12 C4 1_555 1_555
N3 Ni3 1_555 1_555
C5 N3 1_555 1_555
H13 C5 1_555 1_555
H14 C5 1_555 1_555
H15 C5 1_555 1_555
C6 N3 1_555 1_555
H16 C6 1_555 1_555
H17 C6 1_555 1_555
H18 C6 1_555 1_555
N4 C7 1_555 1_555
C7 H19 1_555 1_555
H20 C7 1_555 1_555
H21 C7 1_555 1_555
C8 N4 1_555 1_555
H22 C8 1_555 1_555
H23 C8 1_555 1_555
H24 C8 1_555 1_555
N5 Ni5 1_555 1_555
C9 N5 1_555 1_555
H25 C9 1_555 1_555
H26 C9 1_555 1_555
H27 C9 1_555 1_555
C10 N5 1_555 1_555
H28 C10 1_555 1_555
H29 C10 1_555 1_555
H30 C10 1_555 1_555
N6 C11 1_555 1_555
C11 H31 1_555 1_555
H32 C11 1_555 1_555
H33 C11 1_555 1_555
C12 N6 1_555 1_555
H34 C12 1_555 1_555
H35 C12 1_555 1_555
H36 C12 1_555 1_555
N7 Ni7 1_555 1_555
C13 N7 1_555 1_555
H37 C13 1_555 1_555
H38 C13 1_555 1_555
H39 C13 1_555 1_555
C14 N7 1_555 1_555
H40 C14 1_555 1_555
H41 C14 1_555 1_555
H42 C14 1_555 1_555
N8 C15 1_555 1_555
C15 H43 1_555 1_555
H44 C15 1_555 1_555
H45 C15 1_555 1_555
C16 N8 1_555 1_555
H46 C16 1_555 1_555
H47 C16 1_555 1_555
H48 C16 1_555 1_555
N9 C17 1_555 1_555
C17 H49 1_555 1_555
H50 C17 1_555 1_555
H51 C17 1_555 1_555
C18 N9 1_555 1_555
H52 C18 1_555 1_555
H53 C18 1_555 1_555
H54 C18 1_555 1_555
N10 C19 1_555 1_555
C19 H55 1_555 1_555
H56 C19 1_555 1_555
H57 C19 1_555 1_555
C20 N10 1_555 1_555
H58 C20 1_555 1_555
H59 C20 1_555 1_555
H60 C20 1_555 1_555
N11 C21 1_555 1_555
C21 H61 1_555 1_555
H62 C21 1_555 1_555
H63 C21 1_555 1_555
C22 N11 1_555 1_555
H64 C22 1_555 1_555
H65 C22 1_555 1_555
H66 C22 1_555 1_555
N12 C23 1_555 1_555
C23 H67 1_555 1_555
H68 C23 1_555 1_555
H69 C23 1_555 1_555
C24 N12 1_555 1_555
H70 C24 1_555 1_555
H71 C24 1_555 1_555
H72 C24 1_555 1_555
O1 Ni1 1_555 1_555
O2 Ni2 1_555 1_555
O3 Ni3 1_555 1_555
O4 Ni4 1_555 1_555
O5 H73 1_555 1_555
C25 O1 1_555 1_555
C26 H74 1_555 1_555
C27 C25 1_555 1_555
C28 C27 1_555 1_555
H75 C28 1_555 1_555
C29 O5 1_555 1_555
C30 C29 1_555 1_555
H76 C30 1_555 1_555
C31 C26 1_555 1_555
C32 O3 1_555 1_555
O6 Ni1 1_555 1_555
O7 Ni2 1_555 1_555
O8 Ni5 1_555 1_555
O9 Ni6 1_555 1_555
O10 H77 1_555 1_555
C33 O6 1_555 1_555
C34 H78 1_555 1_555
C35 C33 1_555 1_555
C36 C35 1_555 1_555
H79 C36 1_555 1_555
C37 O10 1_555 1_555
C38 C37 1_555 1_555
H80 C38 1_555 1_555
C39 C34 1_555 1_555
C40 O8 1_555 1_555
O11 Ni1 1_555 1_555
O12 Ni2 1_555 1_555
O13 Ni7 1_555 1_555
O14 Ni8 1_555 1_555
O15 H81 1_555 1_555
C41 O11 1_555 1_555
C42 H82 1_555 1_555
C43 C41 1_555 1_555
C44 C43 1_555 1_555
H83 C44 1_555 1_555
C45 O15 1_555 1_555
C46 C45 1_555 1_555
H84 C46 1_555 1_555
C47 C42 1_555 1_555
C48 O13 1_555 1_555
O16 Ni1 1_555 1_555
O17 Ni2 1_555 1_555
O18 C56 1_555 1_555
O19 Ni12 1_555 1_555
O20 H85 1_555 1_555
C49 O16 1_555 1_555
C50 H86 1_555 1_555
C51 C49 1_555 1_555
C52 C51 1_555 1_555
H87 C52 1_555 1_555
C53 O20 1_555 1_555
C54 C53 1_555 1_555
H88 C54 1_555 1_555
C55 C50 1_555 1_555
C56 O19 1_555 1_555
O21 Ni3 1_555 1_555
O22 Ni4 1_555 1_555
O23 Ni5 1_555 1_555
O24 Ni6 1_555 1_555
O25 H89 1_555 1_555
C57 O21 1_555 1_555
C58 H90 1_555 1_555
C59 C57 1_555 1_555
C60 C59 1_555 1_555
H91 C60 1_555 1_555
C61 O25 1_555 1_555
C62 C61 1_555 1_555
H92 C62 1_555 1_555
C63 C58 1_555 1_555
C64 O23 1_555 1_555
O26 Ni3 1_555 1_555
O27 Ni4 1_555 1_555
O28 Ni9 1_555 1_555
O29 C72 1_555 1_555
O30 H93 1_555 1_555
C65 O26 1_555 1_555
C66 H94 1_555 1_555
C67 C65 1_555 1_555
C68 C67 1_555 1_555
H95 C68 1_555 1_555
C69 O30 1_555 1_555
C70 C69 1_555 1_555
H96 C70 1_555 1_555
C71 C66 1_555 1_555
C72 O28 1_555 1_555
O31 Ni3 1_555 1_555
O32 Ni4 1_555 1_555
O33 Ni11 1_555 1_555
O34 C80 1_555 1_555
O35 H97 1_555 1_555
C73 O31 1_555 1_555
C74 H98 1_555 1_555
C75 C73 1_555 1_555
C76 C75 1_555 1_555
H99 C76 1_555 1_555
C77 O35 1_555 1_555
C78 C77 1_555 1_555
H100 C78 1_555 1_555
C79 C74 1_555 1_555
C80 O33 1_555 1_555
O36 Ni5 1_555 1_555
O37 Ni6 1_555 1_555
O38 C88 1_555 1_555
O39 Ni10 1_555 1_555
O40 H101 1_555 1_555
C81 O36 1_555 1_555
C82 H102 1_555 1_555
C83 C81 1_555 1_555
C84 C83 1_555 1_555
H103 C84 1_555 1_555
C85 O40 1_555 1_555
C86 C85 1_555 1_555
H104 C86 1_555 1_555
C87 C82 1_555 1_555
C88 O39 1_555 1_555
O41 Ni5 1_555 1_555
O42 Ni6 1_555 1_555
O43 C96 1_555 1_555
O44 C96 1_555 1_555
O45 H105 1_555 1_555
C89 O41 1_555 1_555
C90 H106 1_555 1_555
C91 C89 1_555 1_555
C92 C91 1_555 1_555
H107 C92 1_555 1_555
C93 O45 1_555 1_555
C94 C93 1_555 1_555
H108 C94 1_555 1_555
C95 C90 1_555 1_555
C96 C95 1_555 1_555
O46 Ni7 1_555 1_555
O47 Ni8 1_555 1_555
O48 Ni11 1_555 1_555
O49 C104 1_555 1_555
O50 H109 1_555 1_555
C97 O46 1_555 1_555
C98 H110 1_555 1_555
C99 C97 1_555 1_555
C100 C99 1_555 1_555
H111 C100 1_555 1_555
C101 O50 1_555 1_555
C102 C101 1_555 1_555
H112 C102 1_555 1_555
C103 C98 1_555 1_555
C104 O48 1_555 1_555
O51 Ni7 1_555 1_555
O52 Ni8 1_555 1_555
O53 C112 1_555 1_555
O54 Ni12 1_555 1_555
O55 H113 1_555 1_555
C105 O51 1_555 1_555
C106 H114 1_555 1_555
C107 C105 1_555 1_555
C108 C107 1_555 1_555
H115 C108 1_555 1_555
C109 O55 1_555 1_555
C110 C109 1_555 1_555
H116 C110 1_555 1_555
C111 C106 1_555 1_555
C112 O54 1_555 1_555
O56 C113 1_555 1_555
O57 Ni12 1_555 1_555
O58 C120 1_555 1_555
O59 Ni10 1_555 1_555
O60 H117 1_555 1_555
C113 O57 1_555 1_555
C114 H118 1_555 1_555
C115 C113 1_555 1_555
C116 C115 1_555 1_555
H119 C116 1_555 1_555
C117 O60 1_555 1_555
C118 C117 1_555 1_555
H120 C118 1_555 1_555
C119 C114 1_555 1_555
C120 O59 1_555 1_555
O61 C121 1_555 1_555
N13 C121 1_555 1_555
C121 C122 1_555 1_555
C122 H121 1_555 1_555
H122 C122 1_555 1_555
H123 C122 1_555 1_555
C123 N13 1_555 1_555
H124 C123 1_555 1_555
H125 C123 1_555 1_555
H126 C123 1_555 1_555
C124 N13 1_555 1_555
H127 C124 1_555 1_555
H128 C124 1_555 1_555
H129 C124 1_555 1_555
O62 C125 1_555 1_555
N14 C125 1_555 1_555
C125 C126 1_555 1_555
C126 H130 1_555 1_555
H131 C126 1_555 1_555
H132 C126 1_555 1_555
C127 N14 1_555 1_555
H133 C127 1_555 1_555
H134 C127 1_555 1_555
H135 C127 1_555 1_555
C128 N14 1_555 1_555
H136 C128 1_555 1_555
H137 C128 1_555 1_555
H138 C128 1_555 1_555
O63 C129 1_555 1_555
N15 C129 1_555 1_555
C129 C130 1_555 1_555
C130 H139 1_555 1_555
H140 C130 1_555 1_555
H141 C130 1_555 1_555
C131 N15 1_555 1_555
H142 C131 1_555 1_555
H143 C131 1_555 1_555
H144 C131 1_555 1_555
C132 N15 1_555 1_555
H145 C132 1_555 1_555
H146 C132 1_555 1_555
H147 C132 1_555 1_555
O64 C133 1_555 1_555
N16 C133 1_555 1_555
C133 C134 1_555 1_555
C134 H148 1_555 1_555
H149 C134 1_555 1_555
H150 C134 1_555 1_555
C135 N16 1_555 1_555
H151 C135 1_555 1_555
H152 C135 1_555 1_555
H153 C135 1_555 1_555
C136 N16 1_555 1_555
H154 C136 1_555 1_555
H155 C136 1_555 1_555
H156 C136 1_555 1_555
Ni1A Ni2A 1_555 1_555
Ni2A N2A 1_555 1_555
Ni3A Ni4A 1_555 1_555
Ni4A N4A 1_555 1_555
Ni5A Ni6A 1_555 1_555
Ni6A N6A 1_555 1_555
Ni7A O43 1_555 1_555
Ni8A O44 1_555 1_555
Ni9A Ni12 1_555 1_555
Ni10A Ni11 1_555 1_555
Ni11A Ni10 1_555 1_555
Ni12A Ni9 1_555 1_555
N1A Ni1A 1_555 1_555
C1A N1A 1_555 1_555
H1A C1A 1_555 1_555
H2A C1A 1_555 1_555
H3A C1A 1_555 1_555
C2A N1A 1_555 1_555
H4A C2A 1_555 1_555
H5A C2A 1_555 1_555
H6A C2A 1_555 1_555
N2A C3A 1_555 1_555
C3A H7A 1_555 1_555
H8A C3A 1_555 1_555
H9A C3A 1_555 1_555
C4A N2A 1_555 1_555
H10A C4A 1_555 1_555
H11A C4A 1_555 1_555
H12A C4A 1_555 1_555
N3A Ni3A 1_555 1_555
C5A N3A 1_555 1_555
H13A C5A 1_555 1_555
H14A C5A 1_555 1_555
H15A C5A 1_555 1_555
C6A N3A 1_555 1_555
H16A C6A 1_555 1_555
H17A C6A 1_555 1_555
H18A C6A 1_555 1_555
N4A C7A 1_555 1_555
C7A H19A 1_555 1_555
H20A C7A 1_555 1_555
H21A C7A 1_555 1_555
C8A N4A 1_555 1_555
H22A C8A 1_555 1_555
H23A C8A 1_555 1_555
H24A C8A 1_555 1_555
N5A Ni5A 1_555 1_555
C9A N5A 1_555 1_555
H25A C9A 1_555 1_555
H26A C9A 1_555 1_555
H27A C9A 1_555 1_555
C10A N5A 1_555 1_555
H28A C10A 1_555 1_555
H29A C10A 1_555 1_555
H30A C10A 1_555 1_555
N6A C11A 1_555 1_555
C11A H31A 1_555 1_555
H32A C11A 1_555 1_555
H33A C11A 1_555 1_555
C12A N6A 1_555 1_555
H34A C12A 1_555 1_555
H35A C12A 1_555 1_555
H36A C12A 1_555 1_555
N7A Ni7A 1_555 1_555
C13A N7A 1_555 1_555
H37A C13A 1_555 1_555
H38A C13A 1_555 1_555
H39A C13A 1_555 1_555
C14A N7A 1_555 1_555
H40A C14A 1_555 1_555
H41A C14A 1_555 1_555
H42A C14A 1_555 1_555
N8A Ni8A 1_555 1_555
C15A N8A 1_555 1_555
H43A C15A 1_555 1_555
H44A C15A 1_555 1_555
H45A C15A 1_555 1_555
C16A N8A 1_555 1_555
H46A C16A 1_555 1_555
H47A C16A 1_555 1_555
H48A C16A 1_555 1_555
N9A Ni9A 1_555 1_555
C17A N9A 1_555 1_555
H49A C17A 1_555 1_555
H50A C17A 1_555 1_555
H51A C17A 1_555 1_555
C18A N9A 1_555 1_555
H52A C18A 1_555 1_555
H53A C18A 1_555 1_555
H54A C18A 1_555 1_555
N10A Ni10A 1_555 1_555
C19A N10A 1_555 1_555
H55A C19A 1_555 1_555
H56A C19A 1_555 1_555
H57A C19A 1_555 1_555
C20A N10A 1_555 1_555
H58A C20A 1_555 1_555
H59A C20A 1_555 1_555
H60A C20A 1_555 1_555
N11A Ni11A 1_555 1_555
C21A N11A 1_555 1_555
H61A C21A 1_555 1_555
H62A C21A 1_555 1_555
H63A C21A 1_555 1_555
C22A N11A 1_555 1_555
H64A C22A 1_555 1_555
H65A C22A 1_555 1_555
H66A C22A 1_555 1_555
N12A Ni12A 1_555 1_555
C23A N12A 1_555 1_555
H67A C23A 1_555 1_555
H68A C23A 1_555 1_555
H69A C23A 1_555 1_555
C24A N12A 1_555 1_555
H70A C24A 1_555 1_555
H71A C24A 1_555 1_555
H72A C24A 1_555 1_555
O1A Ni1A 1_555 1_555
O2A Ni2A 1_555 1_555
O3A Ni3A 1_555 1_555
O4A Ni4A 1_555 1_555
O5A H73A 1_555 1_555
C25A O1A 1_555 1_555
C26A H74A 1_555 1_555
C27A C25A 1_555 1_555
C28A C27A 1_555 1_555
H75A C28A 1_555 1_555
C29A O5A 1_555 1_555
C30A C29A 1_555 1_555
H76A C30A 1_555 1_555
C31A C26A 1_555 1_555
C32A O3A 1_555 1_555
O6A Ni1A 1_555 1_555
O7A Ni2A 1_555 1_555
O8A Ni5A 1_555 1_555
O9A Ni6A 1_555 1_555
O10A H77A 1_555 1_555
C33A O6A 1_555 1_555
C34A H78A 1_555 1_555
C35A C33A 1_555 1_555
C36A C35A 1_555 1_555
H79A C36A 1_555 1_555
C37A O10A 1_555 1_555
C38A C37A 1_555 1_555
H80A C38A 1_555 1_555
C39A C34A 1_555 1_555
C40A O8A 1_555 1_555
O11A Ni1A 1_555 1_555
O12A Ni2A 1_555 1_555
O13A Ni7A 1_555 1_555
O14A Ni8A 1_555 1_555
O15A H81A 1_555 1_555
C41A O11A 1_555 1_555
C42A H82A 1_555 1_555
C43A C41A 1_555 1_555
C44A C43A 1_555 1_555
H83A C44A 1_555 1_555
C45A O15A 1_555 1_555
C46A C45A 1_555 1_555
H84A C46A 1_555 1_555
C47A C42A 1_555 1_555
C48A O13A 1_555 1_555
O16A Ni1A 1_555 1_555
O17A Ni2A 1_555 1_555
O18A Ni9 1_555 1_555
O19A Ni12A 1_555 1_555
O20A H85A 1_555 1_555
C49A O16A 1_555 1_555
C50A H86A 1_555 1_555
C51A C49A 1_555 1_555
C52A C51A 1_555 1_555
H87A C52A 1_555 1_555
C53A O20A 1_555 1_555
C54A C53A 1_555 1_555
H88A C54A 1_555 1_555
C55A C50A 1_555 1_555
C56A O18A 1_555 1_555
O21A Ni3A 1_555 1_555
O22A Ni4A 1_555 1_555
O23A Ni5A 1_555 1_555
O24A Ni6A 1_555 1_555
O25A H89A 1_555 1_555
C57A O21A 1_555 1_555
C58A H90A 1_555 1_555
C59A C57A 1_555 1_555
C60A C59A 1_555 1_555
H91A C60A 1_555 1_555
C61A O25A 1_555 1_555
C62A C61A 1_555 1_555
H92A C62A 1_555 1_555
C63A C58A 1_555 1_555
C64A O23A 1_555 1_555
O26A Ni3A 1_555 1_555
O27A Ni4A 1_555 1_555
O28A Ni9A 1_555 1_555
O29A Ni12 1_555 1_555
O30A H93A 1_555 1_555
C65A O26A 1_555 1_555
C66A H94A 1_555 1_555
C67A C65A 1_555 1_555
C68A C67A 1_555 1_555
H95A C68A 1_555 1_555
C69A O30A 1_555 1_555
C70A C69A 1_555 1_555
H96A C70A 1_555 1_555
C71A C66A 1_555 1_555
C72A O28A 1_555 1_555
O31A Ni3A 1_555 1_555
O32A Ni4A 1_555 1_555
O33A Ni11A 1_555 1_555
O34A Ni10 1_555 1_555
O35A H97A 1_555 1_555
C73A O31A 1_555 1_555
C74A H98A 1_555 1_555
C75A C73A 1_555 1_555
C76A C75A 1_555 1_555
H99A C76A 1_555 1_555
C77A O35A 1_555 1_555
C78A C77A 1_555 1_555
H100A C78A 1_555 1_555
C79A C74A 1_555 1_555
C80A O33A 1_555 1_555
O36A Ni5A 1_555 1_555
O37A Ni6A 1_555 1_555
O38A Ni11 1_555 1_555
O39A Ni10A 1_555 1_555
O40A H101A 1_555 1_555
C81A O36A 1_555 1_555
C82A H102A 1_555 1_555
C83A C81A 1_555 1_555
C84A C83A 1_555 1_555
H103A C84A 1_555 1_555
C85A O40A 1_555 1_555
C86A C85A 1_555 1_555
H104A C86A 1_555 1_555
C87A C82A 1_555 1_555
C88A O38A 1_555 1_555
O41A Ni5A 1_555 1_555
O42A Ni6A 1_555 1_555
O43A Ni7 1_555 1_555
O44A Ni8 1_555 1_555
O45A H105A 1_555 1_555
C89A O41A 1_555 1_555
C90A H106A 1_555 1_555
C91A C89A 1_555 1_555
C92A C91A 1_555 1_555
H107A C92A 1_555 1_555
C93A O45A 1_555 1_555
C94A C93A 1_555 1_555
H108A C94A 1_555 1_555
C95A C90A 1_555 1_555
C96A O43A 1_555 1_555
O46A Ni7A 1_555 1_555
O47A Ni8A 1_555 1_555
O48A Ni11A 1_555 1_555
O49A Ni10 1_555 1_555
O50A H109A 1_555 1_555
C97A O46A 1_555 1_555
C98A H110A 1_555 1_555
C99A C97A 1_555 1_555
C100A C99A 1_555 1_555
H111A C100A 1_555 1_555
C101A O50A 1_555 1_555
C102A C101A 1_555 1_555
H112A C102A 1_555 1_555
C103A C98A 1_555 1_555
C104A O48A 1_555 1_555
O51A Ni7A 1_555 1_555
O52A Ni8A 1_555 1_555
O53A Ni9 1_555 1_555
O54A Ni12A 1_555 1_555
O55A H113A 1_555 1_555
C105A O51A 1_555 1_555
C106A H114A 1_555 1_555
C107A C105A 1_555 1_555
C108A C107A 1_555 1_555
H115A C108A 1_555 1_555
C109A O55A 1_555 1_555
C110A C109A 1_555 1_555
H116A C110A 1_555 1_555
C111A C106A 1_555 1_555
C112A O53A 1_555 1_555
O56A Ni9 1_555 1_555
O57A Ni12A 1_555 1_555
O58A Ni11 1_555 1_555
O59A Ni10A 1_555 1_555
O60A H117A 1_555 1_555
C113A O56A 1_555 1_555
C114A H118A 1_555 1_555
C115A C113A 1_555 1_555
C116A C115A 1_555 1_555
H119A C116A 1_555 1_555
C117A O60A 1_555 1_555
C118A C117A 1_555 1_555
H120A C118A 1_555 1_555
C119A C114A 1_555 1_555
C120A O58A 1_555 1_555
O2 C25 1_555 1_555
O4 C32 1_555 1_555
C26 C27 1_555 1_555
C28 C29 1_555 1_555
C30 C31 1_555 1_555
C31 C32 1_555 1_555
O7 C33 1_555 1_555
O9 C40 1_555 1_555
C34 C35 1_555 1_555
C36 C37 1_555 1_555
C38 C39 1_555 1_555
C39 C40 1_555 1_555
O12 C41 1_555 1_555
O14 C48 1_555 1_555
C42 C43 1_555 1_555
C44 C45 1_555 1_555
C46 C47 1_555 1_555
C47 C48 1_555 1_555
O17 C49 1_555 1_555
O18 Ni9A 1_555 1_555
C50 C51 1_555 1_555
C52 C53 1_555 1_555
C54 C55 1_555 1_555
C55 C56 1_555 1_555
O22 C57 1_555 1_555
O24 C64 1_555 1_555
C58 C59 1_555 1_555
C60 C61 1_555 1_555
C62 C63 1_555 1_555
C63 C64 1_555 1_555
O27 C65 1_555 1_555
O29 Ni12A 1_555 1_555
C66 C67 1_555 1_555
C68 C69 1_555 1_555
C70 C71 1_555 1_555
C71 C72 1_555 1_555
O32 C73 1_555 1_555
O34 Ni10A 1_555 1_555
C74 C75 1_555 1_555
C76 C77 1_555 1_555
C78 C79 1_555 1_555
C79 C80 1_555 1_555
O37 C81 1_555 1_555
O38 Ni11A 1_555 1_555
C82 C83 1_555 1_555
C84 C85 1_555 1_555
C86 C87 1_555 1_555
C87 C88 1_555 1_555
O42 C89 1_555 1_555
C90 C91 1_555 1_555
C92 C93 1_555 1_555
C94 C95 1_555 1_555
O47 C97 1_555 1_555
O49 Ni10A 1_555 1_555
C98 C99 1_555 1_555
C100 C101 1_555 1_555
C102 C103 1_555 1_555
C103 C104 1_555 1_555
O52 C105 1_555 1_555
O53 Ni9A 1_555 1_555
C106 C107 1_555 1_555
C108 C109 1_555 1_555
C110 C111 1_555 1_555
C111 C112 1_555 1_555
O56 Ni9A 1_555 1_555
O58 Ni11A 1_555 1_555
C114 C115 1_555 1_555
C116 C117 1_555 1_555
C118 C119 1_555 1_555
C119 C120 1_555 1_555
Ni7A Ni8A 1_555 1_555
O2A C25A 1_555 1_555
O4A C32A 1_555 1_555
C26A C27A 1_555 1_555
C28A C29A 1_555 1_555
C30A C31A 1_555 1_555
C31A C32A 1_555 1_555
O7A C33A 1_555 1_555
O9A C40A 1_555 1_555
C34A C35A 1_555 1_555
C36A C37A 1_555 1_555
C38A C39A 1_555 1_555
C39A C40A 1_555 1_555
O12A C41A 1_555 1_555
O14A C48A 1_555 1_555
C42A C43A 1_555 1_555
C44A C45A 1_555 1_555
C46A C47A 1_555 1_555
C47A C48A 1_555 1_555
O17A C49A 1_555 1_555
O19A C56A 1_555 1_555
C50A C51A 1_555 1_555
C52A C53A 1_555 1_555
C54A C55A 1_555 1_555
C55A C56A 1_555 1_555
O22A C57A 1_555 1_555
O24A C64A 1_555 1_555
C58A C59A 1_555 1_555
C60A C61A 1_555 1_555
C62A C63A 1_555 1_555
C63A C64A 1_555 1_555
O27A C65A 1_555 1_555
O29A C72A 1_555 1_555
C66A C67A 1_555 1_555
C68A C69A 1_555 1_555
C70A C71A 1_555 1_555
C71A C72A 1_555 1_555
O32A C73A 1_555 1_555
O34A C80A 1_555 1_555
C74A C75A 1_555 1_555
C76A C77A 1_555 1_555
C78A C79A 1_555 1_555
C79A C80A 1_555 1_555
O37A C81A 1_555 1_555
O39A C88A 1_555 1_555
C82A C83A 1_555 1_555
C84A C85A 1_555 1_555
C86A C87A 1_555 1_555
C87A C88A 1_555 1_555
O42A C89A 1_555 1_555
O44A C96A 1_555 1_555
C90A C91A 1_555 1_555
C92A C93A 1_555 1_555
C94A C95A 1_555 1_555
C95A C96A 1_555 1_555
O47A C97A 1_555 1_555
O49A C104A 1_555 1_555
C98A C99A 1_555 1_555
C100A C101A 1_555 1_555
C102A C103A 1_555 1_555
C103A C104A 1_555 1_555
O52A C105A 1_555 1_555
O54A C112A 1_555 1_555
C106A C107A 1_555 1_555
C108A C109A 1_555 1_555
C110A C111A 1_555 1_555
C111A C112A 1_555 1_555
O57A C113A 1_555 1_555
O59A C120A 1_555 1_555
C114A C115A 1_555 1_555
C116A C117A 1_555 1_555
C118A C119A 1_555 1_555
C119A C120A 1_555 1_555

#END
