
#######################################################################
#
#                 Cambridge Crystallographic Data Centre
#                                CCDC 
#
#######################################################################
#
# If this CIF has been generated from an entry in the Cambridge 
# Structural Database, then it will include bibliographic, chemical, 
# crystal, experimental, refinement or atomic coordinate data resulting 
# from the CCDC's data processing and validation procedures.
#
#######################################################################

data_QEZYOM
_chemical_formula_moiety         'C234 H198 Co12 N18 O54'
_chemical_name_systematic        
'dodecakis(\m-9-(propan-2-yl)-9H-carbazole-3,6-dicarboxylato)-hexa-aqua-hexapyridine-dodeca-cobalt(ii) unknown solvate'
_symmetry_cell_setting           rhombohedral
_symmetry_space_group_name_H-M   'R -3'
_symmetry_Int_Tables_number      148
_space_group_name_Hall           '-R 3'
loop_
_symmetry_equiv_pos_site_id
_symmetry_equiv_pos_as_xyz
1 x,y,z
2 -y,x-y,z
3 -x+y,-x,z
4 2/3+x,1/3+y,1/3+z
5 2/3-y,1/3+x-y,1/3+z
6 2/3-x+y,1/3-x,1/3+z
7 1/3+x,2/3+y,2/3+z
8 1/3-y,2/3+x-y,2/3+z
9 1/3-x+y,2/3-x,2/3+z
10 -x,-y,-z
11 y,-x+y,-z
12 x-y,x,-z
13 1/3-x,2/3-y,2/3-z
14 1/3+y,2/3-x+y,2/3-z
15 1/3+x-y,2/3+x,2/3-z
16 2/3-x,1/3-y,1/3-z
17 2/3+y,1/3-x+y,1/3-z
18 2/3+x-y,1/3+x,1/3-z
_cell_length_a                   21.0949(9)
_cell_length_b                   21.0949(9)
_cell_length_c                   69.103(4)
_cell_angle_alpha                90
_cell_angle_beta                 90
_cell_angle_gamma                120
_cell_volume                     26630.7
_exptl_crystal_colour            purple
_exptl_crystal_description       Hexagonal
_cell_formula_units_Z            3
loop_
_atom_site_label
_atom_site_type_symbol
_atom_site_fract_x
_atom_site_fract_y
_atom_site_fract_z
Co1 Co 0.63298(5) 0.87340(5) 0.72693(2)
Co2 Co 0.75291(5) 0.95659(5) 0.74900(2)
O1 O 0.6979(2) 0.8458(2) 0.71193(6)
O2 O 0.7976(2) 0.9168(2) 0.73013(6)
O3 O 0.6332(2) 0.6281(2) 0.62233(6)
O4 O 0.7025(2) 0.6002(2) 0.60347(6)
O5 O 0.6201(2) 0.7982(2) 0.74743(6)
O6 O 0.7210(2) 0.8654(2) 0.76554(6)
O7 O 0.3261(2) 0.4140(2) 0.74568(6)
O8 O 0.2937(2) 0.3158(2) 0.76440(7)
O9 O 0.5395(4) 0.8077(5) 0.71095(13)
N1 N 0.9348(3) 0.8059(3) 0.66631(8)
N2 N 0.5809(3) 0.5555(3) 0.80685(9)
N3 N 0.8468(2) 1.0218(2) 0.76437(6)
C1 C 0.7649(4) 0.8725(3) 0.71603(8)
C2 C 0.8256(3) 0.7939(3) 0.67598(8)
C3 C 0.7807(3) 0.8086(3) 0.68784(8)
H1 H 0.730248 0.788240 0.684921
C4 C 0.8109(3) 0.8531(3) 0.70393(7)
C5 C 0.8844(3) 0.8820(3) 0.70810(9)
H2 H 0.903921 0.911799 0.719276
C6 C 0.9299(4) 0.8693(3) 0.69678(9)
H3 H 0.980142 0.889126 0.699991
C7 C 0.8999(3) 0.8259(3) 0.68023(9)
C8 C 0.8132(3) 0.7521(3) 0.65831(8)
C9 C 0.7525(3) 0.7107(3) 0.64704(8)
H4 H 0.706683 0.705741 0.650501
C10 C 0.7585(3) 0.6759(3) 0.63042(9)
C11 C 0.8263(4) 0.6833(4) 0.62604(9)
H5 H 0.829829 0.657568 0.615188
C12 C 0.8883(4) 0.7259(4) 0.63664(10)
H6 H 0.934232 0.731495 0.633021
C13 C 0.8811(4) 0.7607(4) 0.65297(9)
C14 C 0.6924(4) 0.6307(3) 0.61793(9)
C15 C 1.0147(4) 0.8437(4) 0.66359(11)
H7 H 1.034927 0.875318 0.675328
C16 C 1.0461(4) 0.7954(4) 0.66415(12)
H8 H 1.099640 0.825017 0.664270
H9 H 1.030256 0.763705 0.652702
H10 H 1.029377 0.765126 0.675852
C17 C 1.0383(4) 0.8972(4) 0.64692(13)
H11 H 1.091860 0.924134 0.646082
H12 H 1.020660 0.931650 0.649046
H13 H 1.017760 0.870348 0.634837
C18 C 0.6622(4) 0.8066(3) 0.76136(9)
C19 C 0.5639(3) 0.6141(3) 0.78134(9)
C20 C 0.5814(3) 0.6748(3) 0.76928(9)
H14 H 0.551910 0.670118 0.758388
C21 C 0.6433(3) 0.7420(3) 0.77378(9)
C22 C 0.6864(4) 0.7467(4) 0.78946(10)
H15 H 0.728540 0.792687 0.792164
C23 C 0.6718(4) 0.6893(4) 0.80119(10)
H16 H 0.703415 0.694564 0.811611
C24 C 0.6089(4) 0.6223(3) 0.79750(10)
C25 C 0.5063(3) 0.5398(3) 0.78115(9)
C26 C 0.4468(3) 0.4999(3) 0.76905(9)
H17 H 0.438371 0.522721 0.758298
C27 C 0.3994(3) 0.4256(3) 0.77284(9)
C28 C 0.4126(4) 0.3932(3) 0.78860(10)
H18 H 0.379776 0.342859 0.791079
C29 C 0.4715(4) 0.4311(4) 0.80086(12)
H19 H 0.479836 0.407544 0.811460
C30 C 0.5183(4) 0.5054(4) 0.79708(10)
C31 C 0.3349(3) 0.3816(4) 0.76011(9)
C32 C 0.6103(5) 0.5429(5) 0.82487(14)
H20 H 0.655228 0.590736 0.827722
C33 C 0.6363(6) 0.4909(6) 0.82285(18)
H21 H 0.650755 0.481750 0.835561
H22 H 0.678474 0.511058 0.814104
H23 H 0.597018 0.444779 0.817534
C34 C 0.5618(6) 0.5303(7) 0.84122(14)
H24 H 0.583985 0.524307 0.853042
H25 H 0.514664 0.485820 0.838932
H26 H 0.554144 0.572149 0.842698
C35 C 0.9085(3) 1.0716(4) 0.75546(10)
H27 H 0.907107 1.077218 0.741859
C36 C 0.9728(4) 1.1141(4) 0.76482(12)
H28 H 1.014889 1.149193 0.757982
C37 C 0.9752(4) 1.1051(4) 0.78441(12)
H29 H 1.019559 1.132568 0.791382
C38 C 0.9132(4) 1.0564(4) 0.79360(10)
H30 H 0.913182 1.051054 0.807253
C39 C 0.8508(3) 1.0149(3) 0.78332(9)
H31 H 0.808409 0.979510 0.789995
Co1A Co 0.12660(5) 0.75958(7) 0.72693(2)
Co2A Co 0.04341(5) 0.79632(7) 0.74900(2)
O1A O 0.1542(2) 0.8521(3) 0.71193(6)
O2A O 0.0832(2) 0.8808(3) 0.73013(6)
O3A O 0.3719(2) 1.0051(3) 0.62233(6)
O4A O 0.3998(2) 1.1023(3) 0.60347(6)
O5A O 0.2018(2) 0.8219(3) 0.74743(6)
O6A O 0.1346(2) 0.8556(3) 0.76554(6)
O7A O 0.5860(2) 0.9121(3) 0.74568(6)
O8A O 0.6842(2) 0.9779(3) 0.76440(7)
O9A O 0.1923(5) 0.7318(6) 0.71095(13)
N1A N 0.1941(3) 1.1289(4) 0.66631(8)
N2A N 0.4445(3) 1.0254(4) 0.80685(9)
N3A N -0.0218(2) 0.8250(3) 0.76437(6)
C1A C 0.1275(3) 0.8924(5) 0.71603(8)
C2A C 0.2061(3) 1.0317(4) 0.67598(8)
C3A C 0.1914(3) 0.9721(4) 0.68784(8)
H1A H 0.211760 0.942008 0.684921
C4A C 0.1469(3) 0.9578(4) 0.70393(7)
C5A C 0.1180(3) 1.0024(4) 0.70810(9)
H2A H 0.088201 0.992122 0.719276
C6A C 0.1307(3) 1.0606(5) 0.69678(9)
H3A H 0.110874 1.091016 0.699991
C7A C 0.1741(3) 1.0740(4) 0.68023(9)
C8A C 0.2479(3) 1.0611(4) 0.65831(8)
C9A C 0.2893(3) 1.0418(4) 0.64704(8)
H4A H 0.294259 1.000942 0.650501
C10A C 0.3241(3) 1.0826(4) 0.63042(9)
C11A C 0.3167(4) 1.1430(6) 0.62604(9)
H5A H 0.342432 1.172261 0.615188
C12A C 0.2741(4) 1.1624(6) 0.63664(10)
H6A H 0.268505 1.202737 0.633021
C13A C 0.2393(4) 1.1204(6) 0.65297(9)
C14A C 0.3693(3) 1.0617(5) 0.61793(9)
C15A C 0.1563(4) 1.1710(6) 0.66359(11)
H7A H 0.124682 1.159609 0.675328
C16A C 0.2046(4) 1.2507(6) 0.66415(12)
H8A H 0.174983 1.274623 0.664270
H9A H 0.236295 1.266551 0.652702
H10A H 0.234874 1.264251 0.675852
C17A C 0.1028(4) 1.1411(6) 0.64692(13)
H11A H 0.075866 1.167726 0.646082
H12A H 0.068350 1.089010 0.649046
H13A H 0.129652 1.147412 0.634837
C18A C 0.1934(3) 0.8556(5) 0.76136(9)
C19A C 0.3859(3) 0.9498(4) 0.78134(9)
C20A C 0.3252(3) 0.9066(4) 0.76928(9)
H14A H 0.329882 0.881792 0.758388
C21A C 0.2580(3) 0.9013(4) 0.77378(9)
C22A C 0.2533(4) 0.9397(6) 0.78946(10)
H15A H 0.207313 0.935853 0.792164
C23A C 0.3107(4) 0.9825(6) 0.80119(10)
H16A H 0.305436 1.008851 0.811611
C24A C 0.3777(3) 0.9866(5) 0.79750(10)
C25A C 0.4602(3) 0.9665(4) 0.78115(9)
C26A C 0.5001(3) 0.9469(4) 0.76905(9)
H17A H 0.477279 0.915650 0.758298
C27A C 0.5744(3) 0.9738(4) 0.77284(9)
C28A C 0.6068(3) 1.0194(5) 0.78860(10)
H18A H 0.657141 1.036917 0.791079
C29A C 0.5689(4) 1.0404(6) 0.80086(12)
H19A H 0.592456 1.072292 0.811460
C30A C 0.4946(4) 1.0129(6) 0.79708(10)
C31A C 0.6184(4) 0.9533(5) 0.76011(9)
C32A C 0.4571(5) 1.0674(7) 0.82487(14)
H20A H 0.409264 1.064492 0.827722
C33A C 0.5091(6) 1.1454(8) 0.82285(18)
H21A H 0.518250 1.169005 0.835561
H22A H 0.488942 1.167416 0.814104
H23A H 0.555221 1.152239 0.817534
C34A C 0.4697(7) 1.0315(9) 0.84122(14)
H24A H 0.475693 1.059678 0.853042
H25A H 0.514180 1.028844 0.838932
H26A H 0.427851 0.981995 0.842698
C35A C -0.0716(4) 0.8369(5) 0.75546(10)
H27A H -0.077218 0.829889 0.741859
C36A C -0.1141(4) 0.8587(6) 0.76482(12)
H28A H -0.149193 0.865696 0.757982
C37A C -0.1051(4) 0.8701(6) 0.78441(12)
H29A H -0.132568 0.886991 0.791382
C38A C -0.0564(4) 0.8568(6) 0.79360(10)
H30A H -0.051054 0.862128 0.807253
C39A C -0.0149(3) 0.8359(4) 0.78332(9)
H31A H 0.020490 0.828899 0.789995
Co1B Co 0.24042(7) 0.36702(5) 0.72693(2)
Co2B Co 0.20368(7) 0.24709(5) 0.74900(2)
O1B O 0.1479(3) 0.3021(2) 0.71193(6)
O2B O 0.1192(3) 0.2024(2) 0.73013(6)
O3B O -0.0051(3) 0.3668(2) 0.62233(6)
O4B O -0.1023(3) 0.2975(2) 0.60347(6)
O5B O 0.1781(3) 0.3799(2) 0.74743(6)
O6B O 0.1444(3) 0.2790(2) 0.76554(6)
O7B O 0.0879(3) 0.6739(2) 0.74568(6)
O8B O 0.0221(3) 0.7063(2) 0.76440(7)
O9B O 0.2682(6) 0.4605(4) 0.71095(13)
N1B N -0.1289(4) 0.0652(3) 0.66631(8)
N2B N -0.0254(4) 0.4191(3) 0.80685(9)
N3B N 0.1750(3) 0.1532(2) 0.76437(6)
C1B C 0.1076(5) 0.2351(4) 0.71603(8)
C2B C -0.0317(4) 0.1744(3) 0.67598(8)
C3B C 0.0279(4) 0.2193(3) 0.68784(8)
H1B H 0.057992 0.269752 0.684921
C4B C 0.0422(4) 0.1891(3) 0.70393(7)
C5B C -0.0024(4) 0.1156(3) 0.70810(9)
H2B H 0.007878 0.096079 0.719276
C6B C -0.0606(5) 0.0701(4) 0.69678(9)
H3B H -0.091016 0.019858 0.699991
C7B C -0.0740(4) 0.1001(3) 0.68023(9)
C8B C -0.0611(4) 0.1868(3) 0.65831(8)
C9B C -0.0418(4) 0.2475(3) 0.64704(8)
H4B H -0.000942 0.293317 0.650501
C10B C -0.0826(4) 0.2415(3) 0.63042(9)
C11B C -0.1430(6) 0.1737(4) 0.62604(9)
H5B H -0.172261 0.170171 0.615188
C12B C -0.1624(6) 0.1117(4) 0.63664(10)
H6B H -0.202737 0.065768 0.633021
C13B C -0.1204(6) 0.1189(4) 0.65297(9)
C14B C -0.0617(5) 0.3076(4) 0.61793(9)
C15B C -0.1710(6) -0.0147(4) 0.66359(11)
H7B H -0.159609 -0.034927 0.675328
C16B C -0.2507(6) -0.0461(4) 0.66415(12)
H8B H -0.274623 -0.099640 0.664270
H9B H -0.266551 -0.030256 0.652702
H10B H -0.264251 -0.029377 0.675852
C17B C -0.1411(6) -0.0383(4) 0.64692(13)
H11B H -0.167726 -0.091860 0.646082
H12B H -0.089010 -0.020660 0.649046
H13B H -0.147412 -0.017760 0.634837
C18B C 0.1444(5) 0.3378(4) 0.76136(9)
C19B C 0.0502(4) 0.4361(3) 0.78134(9)
C20B C 0.0934(4) 0.4186(3) 0.76928(9)
H14B H 0.118208 0.448090 0.758388
C21B C 0.0987(4) 0.3567(3) 0.77378(9)
C22B C 0.0603(6) 0.3136(4) 0.78946(10)
H15B H 0.064147 0.271460 0.792164
C23B C 0.0175(6) 0.3282(4) 0.80119(10)
H16B H -0.008851 0.296585 0.811611
C24B C 0.0134(5) 0.3911(4) 0.79750(10)
C25B C 0.0335(4) 0.4937(3) 0.78115(9)
C26B C 0.0531(4) 0.5532(3) 0.76905(9)
H17B H 0.084350 0.561629 0.758298
C27B C 0.0262(4) 0.6006(3) 0.77284(9)
C28B C -0.0194(5) 0.5874(4) 0.78860(10)
H18B H -0.036917 0.620224 0.791079
C29B C -0.0404(6) 0.5285(4) 0.80086(12)
H19B H -0.072292 0.520164 0.811460
C30B C -0.0129(6) 0.4817(4) 0.79708(10)
C31B C 0.0467(5) 0.6651(3) 0.76011(9)
C32B C -0.0674(7) 0.3897(5) 0.82487(14)
H20B H -0.064492 0.344772 0.827722
C33B C -0.1454(8) 0.3637(6) 0.82285(18)
H21B H -0.169005 0.349245 0.835561
H22B H -0.167416 0.321526 0.814104
H23B H -0.152239 0.402982 0.817534
C34B C -0.0315(9) 0.4382(6) 0.84122(14)
H24B H -0.059678 0.416015 0.853042
H25B H -0.028844 0.485336 0.838932
H26B H 0.018005 0.445856 0.842698
C35B C 0.1631(5) 0.0915(3) 0.75546(10)
H27B H 0.170111 0.092893 0.741859
C36B C 0.1413(6) 0.0272(4) 0.76482(12)
H28B H 0.134304 -0.014889 0.757982
C37B C 0.1299(6) 0.0248(4) 0.78441(12)
H29B H 0.113009 -0.019559 0.791382
C38B C 0.1432(6) 0.0868(4) 0.79360(10)
H30B H 0.137872 0.086818 0.807253
C39B C 0.1641(4) 0.1492(3) 0.78332(9)
H31B H 0.171101 0.191591 0.789995
Co1O Co 0.03369(5) 0.45993(5) 0.60640(2)
Co2O Co -0.08624(5) 0.37674(5) 0.58433(2)
O1O O -0.0312(2) 0.4875(2) 0.62140(6)
O2O O -0.1309(2) 0.4165(2) 0.60320(6)
O3O O 0.0335(2) 0.7052(2) 0.71100(6)
O4O O -0.0358(2) 0.7331(2) 0.72986(6)
O5O O 0.0466(2) 0.5351(2) 0.58590(6)
O6O O -0.0543(2) 0.4679(2) 0.56779(6)
O7O O 0.3406(2) 0.9193(2) 0.58765(6)
O8O O 0.3730(2) 1.0175(2) 0.56893(7)
O9O O 0.1272(4) 0.5256(5) 0.62238(13)
N1O N -0.2681(3) 0.5274(3) 0.66702(8)
N2O N 0.0858(3) 0.7778(3) 0.52648(9)
N3O N -0.1801(2) 0.3115(2) 0.56896(6)
C1O C -0.0982(4) 0.4608(3) 0.61730(8)
C2O C -0.1589(3) 0.5394(3) 0.65735(8)
C3O C -0.1140(3) 0.5247(3) 0.64549(8)
H1O H -0.063581 0.545093 0.648412
C4O C -0.1442(3) 0.4802(3) 0.62940(7)
C5O C -0.2177(3) 0.4513(3) 0.62523(9)
H2O H -0.237254 0.421534 0.614057
C6O C -0.2632(4) 0.4640(3) 0.63655(9)
H3O H -0.313475 0.444207 0.633342
C7O C -0.2332(3) 0.5074(3) 0.65310(9)
C8O C -0.1465(3) 0.5812(3) 0.67502(8)
C9O C -0.0858(3) 0.6226(3) 0.68629(8)
H4O H -0.040016 0.627592 0.682832
C10O C -0.0918(3) 0.6574(3) 0.70291(9)
C11O C -0.1596(4) 0.6500(4) 0.70729(9)
H5O H -0.163162 0.675765 0.718145
C12O C -0.2216(4) 0.6074(4) 0.69669(10)
H6O H -0.267565 0.601838 0.700312
C13O C -0.2144(4) 0.5726(4) 0.68036(9)
C14O C -0.0257(4) 0.7026(3) 0.71540(9)
C15O C -0.3480(4) 0.4896(4) 0.66974(11)
H7O H -0.368260 0.458015 0.658005
C16O C -0.3794(4) 0.5379(4) 0.66918(12)
H8O H -0.432973 0.508316 0.669063
H9O H -0.363589 0.569628 0.680631
H10O H -0.362710 0.568207 0.657481
C17O C -0.3716(4) 0.4361(4) 0.68641(13)
H11O H -0.425193 0.409199 0.687251
H12O H -0.353993 0.401683 0.684287
H13O H -0.351093 0.462985 0.698496
C18O C 0.0045(4) 0.5267(3) 0.57197(9)
C19O C 0.1028(3) 0.7192(3) 0.55199(9)
C20O C 0.0853(3) 0.6585(3) 0.56405(9)
H14O H 0.114757 0.663215 0.574945
C21O C 0.0234(3) 0.5913(3) 0.55955(9)
C22O C -0.0197(4) 0.5866(4) 0.54387(10)
H15O H -0.061873 0.540646 0.541169
C23O C -0.0051(4) 0.6440(4) 0.53214(10)
H16O H -0.036748 0.638769 0.521722
C24O C 0.0578(4) 0.7110(3) 0.53583(10)
C25O C 0.1604(3) 0.7935(3) 0.55218(9)
C26O C 0.2199(3) 0.8334(3) 0.56428(9)
H17O H 0.228296 0.810612 0.575035
C27O C 0.2673(3) 0.9077(3) 0.56049(9)
C28O C 0.2541(4) 0.9401(3) 0.54473(10)
H18O H 0.286891 0.990474 0.542254
C29O C 0.1952(4) 0.9022(4) 0.53247(12)
H19O H 0.186831 0.925789 0.521873
C30O C 0.1484(4) 0.8279(4) 0.53625(10)
C31O C 0.3318(3) 0.9517(4) 0.57322(9)
C32O C 0.0564(5) 0.7904(5) 0.50846(14)
H20O H 0.011439 0.742597 0.505611
C33O C 0.0304(6) 0.8424(6) 0.51048(18)
H21O H 0.015912 0.851583 0.497772
H22O H -0.011807 0.822275 0.519229
H23O H 0.069649 0.888554 0.515799
C34O C 0.1049(6) 0.8030(7) 0.49211(14)
H24O H 0.082682 0.809026 0.480291
H25O H 0.152003 0.847513 0.494401
H26O H 0.112523 0.761184 0.490635
C35O C -0.2418(3) 0.2617(4) 0.57787(10)
H27O H -0.240440 0.256115 0.591474
C36O C -0.3061(4) 0.2192(4) 0.56851(12)
H28O H -0.348222 0.184140 0.575351
C37O C -0.3085(4) 0.2282(4) 0.54892(12)
H29O H -0.352892 0.200765 0.541951
C38O C -0.2465(4) 0.2769(4) 0.53973(10)
H30O H -0.246515 0.282279 0.526080
C39O C -0.1841(3) 0.3184(3) 0.55001(9)
H31O H -0.141742 0.353823 0.543338
Co1P Co 0.54007(5) 0.57375(7) 0.60640(2)
Co2P Co 0.62326(5) 0.53701(7) 0.58433(2)
O1P O 0.5125(2) 0.4812(3) 0.62140(6)
O2P O 0.5835(2) 0.4525(3) 0.60320(6)
O3P O 0.2948(2) 0.3282(3) 0.71100(6)
O4P O 0.2669(2) 0.2310(3) 0.72986(6)
O5P O 0.4649(2) 0.5114(3) 0.58590(6)
O6P O 0.5321(2) 0.4777(3) 0.56779(6)
O7P O 0.0807(2) 0.4212(3) 0.58765(6)
O8P O -0.0175(2) 0.3554(3) 0.56893(7)
O9P O 0.4744(5) 0.6015(6) 0.62238(13)
N1P N 0.4726(3) 0.2044(4) 0.66702(8)
N2P N 0.2222(3) 0.3079(4) 0.52648(9)
N3P N 0.6885(2) 0.5083(3) 0.56896(6)
C1P C 0.5392(3) 0.4409(5) 0.61730(8)
C2P C 0.4606(3) 0.3016(4) 0.65735(8)
C3P C 0.4753(3) 0.3612(4) 0.64549(8)
H1P H 0.454907 0.391325 0.648412
C4P C 0.5198(3) 0.3755(4) 0.62940(7)
C5P C 0.5487(3) 0.3309(4) 0.62523(9)
H2P H 0.578466 0.341211 0.614057
C6P C 0.5360(3) 0.2727(5) 0.63655(9)
H3P H 0.555793 0.242317 0.633342
C7P C 0.4926(3) 0.2593(4) 0.65310(9)
C8P C 0.4188(3) 0.2722(4) 0.67502(8)
C9P C 0.3774(3) 0.2915(4) 0.68629(8)
H4P H 0.372408 0.332391 0.682832
C10P C 0.3426(3) 0.2507(4) 0.70291(9)
C11P C 0.3500(4) 0.1903(6) 0.70729(9)
H5P H 0.324235 0.161072 0.718145
C12P C 0.3926(4) 0.1709(6) 0.69669(10)
H6P H 0.398162 0.130596 0.700312
C13P C 0.4274(4) 0.2129(6) 0.68036(9)
C14P C 0.2974(3) 0.2716(5) 0.71540(9)
C15P C 0.5104(4) 0.1623(6) 0.66974(11)
H7P H 0.541985 0.173724 0.658005
C16P C 0.4621(4) 0.0826(6) 0.66918(12)
H8P H 0.491684 0.058710 0.669063
H9P H 0.430372 0.066782 0.680631
H10P H 0.431793 0.069082 0.657481
C17P C 0.5639(4) 0.1922(6) 0.68641(13)
H11P H 0.590801 0.165607 0.687251
H12P H 0.598317 0.244323 0.684287
H13P H 0.537015 0.185921 0.698496
C18P C 0.4733(3) 0.4777(5) 0.57197(9)
C19P C 0.2808(3) 0.3835(4) 0.55199(9)
C20P C 0.3415(3) 0.4267(4) 0.56405(9)
H14P H 0.336785 0.451541 0.574945
C21P C 0.4087(3) 0.4320(4) 0.55955(9)
C22P C 0.4134(4) 0.3936(6) 0.54387(10)
H15P H 0.459354 0.397480 0.541169
C23P C 0.3560(4) 0.3508(6) 0.53214(10)
H16P H 0.361231 0.324482 0.521722
C24P C 0.2890(3) 0.3467(5) 0.53583(10)
C25P C 0.2065(3) 0.3668(4) 0.55218(9)
C26P C 0.1666(3) 0.3864(4) 0.56428(9)
H17P H 0.189388 0.417683 0.575035
C27P C 0.0923(3) 0.3595(4) 0.56049(9)
C28P C 0.0599(3) 0.3139(5) 0.54473(10)
H18P H 0.009526 0.296416 0.542254
C29P C 0.0978(4) 0.2929(6) 0.53247(12)
H19P H 0.074211 0.261041 0.521873
C30P C 0.1721(4) 0.3204(6) 0.53625(10)
C31P C 0.0483(4) 0.3800(5) 0.57322(9)
C32P C 0.2096(5) 0.2659(7) 0.50846(14)
H20P H 0.257403 0.268841 0.505611
C33P C 0.1576(6) 0.1879(8) 0.51048(18)
H21P H 0.148417 0.164328 0.497772
H22P H 0.177725 0.165917 0.519229
H23P H 0.111446 0.181094 0.515799
C34P C 0.1970(7) 0.3018(9) 0.49211(14)
H24P H 0.190974 0.273655 0.480291
H25P H 0.152487 0.304489 0.494401
H26P H 0.238816 0.351338 0.490635
C35P C 0.7383(4) 0.4964(5) 0.57787(10)
H27P H 0.743885 0.503444 0.591474
C36P C 0.7808(4) 0.4746(6) 0.56851(12)
H28P H 0.815860 0.467637 0.575351
C37P C 0.7718(4) 0.4632(6) 0.54892(12)
H29P H 0.799235 0.446342 0.541951
C38P C 0.7231(4) 0.4765(6) 0.53973(10)
H30P H 0.717721 0.471205 0.526080
C39P C 0.6816(3) 0.4974(4) 0.55001(9)
H31P H 0.646177 0.504434 0.543338
Co1Q Co 0.42625(7) 0.96631(5) 0.60640(2)
Co2Q Co 0.46299(7) 1.08624(5) 0.58433(2)
O1Q O 0.5188(3) 1.0312(2) 0.62140(6)
O2Q O 0.5475(3) 1.1309(2) 0.60320(6)
O3Q O 0.6718(3) 0.9665(2) 0.71100(6)
O4Q O 0.7690(3) 1.0358(2) 0.72986(6)
O5Q O 0.4886(3) 0.9534(2) 0.58590(6)
O6Q O 0.5223(3) 1.0543(2) 0.56779(6)
O7Q O 0.5788(3) 0.6594(2) 0.58765(6)
O8Q O 0.6446(3) 0.6270(2) 0.56893(7)
O9Q O 0.3985(6) 0.8728(4) 0.62238(13)
N1Q N 0.7956(4) 1.2681(3) 0.66702(8)
N2Q N 0.6921(4) 0.9142(3) 0.52648(9)
N3Q N 0.4917(3) 1.1801(2) 0.56896(6)
C1Q C 0.5591(5) 1.0982(4) 0.61730(8)
C2Q C 0.6984(4) 1.1589(3) 0.65735(8)
C3Q C 0.6388(4) 1.1140(3) 0.64549(8)
H1Q H 0.608675 1.063581 0.648412
C4Q C 0.6245(4) 1.1442(3) 0.62940(7)
C5Q C 0.6691(4) 1.2177(3) 0.62523(9)
H2Q H 0.658789 1.237254 0.614057
C6Q C 0.7273(5) 1.2632(4) 0.63655(9)
H3Q H 0.757683 1.313475 0.633342
C7Q C 0.7407(4) 1.2332(3) 0.65310(9)
C8Q C 0.7278(4) 1.1465(3) 0.67502(8)
C9Q C 0.7085(4) 1.0858(3) 0.68629(8)
H4Q H 0.667609 1.040016 0.682832
C10Q C 0.7493(4) 1.0918(3) 0.70291(9)
C11Q C 0.8097(6) 1.1596(4) 0.70729(9)
H5Q H 0.838928 1.163162 0.718145
C12Q C 0.8291(6) 1.2216(4) 0.69669(10)
H6Q H 0.869404 1.267565 0.700312
C13Q C 0.7871(6) 1.2144(4) 0.68036(9)
C14Q C 0.7284(5) 1.0257(4) 0.71540(9)
C15Q C 0.8377(6) 1.3480(4) 0.66974(11)
H7Q H 0.826276 1.368260 0.658005
C16Q C 0.9174(6) 1.3794(4) 0.66918(12)
H8Q H 0.941290 1.432973 0.669063
H9Q H 0.933218 1.363589 0.680631
H10Q H 0.930918 1.362710 0.657481
C17Q C 0.8078(6) 1.3716(4) 0.68641(13)
H11Q H 0.834393 1.425193 0.687251
H12Q H 0.755677 1.353993 0.684287
H13Q H 0.814079 1.351093 0.698496
C18Q C 0.5223(5) 0.9955(4) 0.57197(9)
C19Q C 0.6165(4) 0.8972(3) 0.55199(9)
C20Q C 0.5733(4) 0.9147(3) 0.56405(9)
H14Q H 0.548459 0.885243 0.574945
C21Q C 0.5680(4) 0.9766(3) 0.55955(9)
C22Q C 0.6064(6) 1.0197(4) 0.54387(10)
H15Q H 0.602520 1.061873 0.541169
C23Q C 0.6492(6) 1.0051(4) 0.53214(10)
H16Q H 0.675518 1.036748 0.521722
C24Q C 0.6533(5) 0.9422(4) 0.53583(10)
C25Q C 0.6332(4) 0.8396(3) 0.55218(9)
C26Q C 0.6136(4) 0.7801(3) 0.56428(9)
H17Q H 0.582317 0.771704 0.575035
C27Q C 0.6405(4) 0.7327(3) 0.56049(9)
C28Q C 0.6861(5) 0.7459(4) 0.54473(10)
H18Q H 0.703584 0.713109 0.542254
C29Q C 0.7071(6) 0.8048(4) 0.53247(12)
H19Q H 0.738959 0.813169 0.521873
C30Q C 0.6796(6) 0.8516(4) 0.53625(10)
C31Q C 0.6200(5) 0.6682(3) 0.57322(9)
C32Q C 0.7341(7) 0.9436(5) 0.50846(14)
H20Q H 0.731159 0.988561 0.505611
C33Q C 0.8121(8) 0.9696(6) 0.51048(18)
H21Q H 0.835672 0.984088 0.497772
H22Q H 0.834083 1.011807 0.519229
H23Q H 0.818906 0.930351 0.515799
C34Q C 0.6982(9) 0.8951(6) 0.49211(14)
H24Q H 0.726345 0.917318 0.480291
H25Q H 0.695511 0.847997 0.494401
H26Q H 0.648662 0.887477 0.490635
C35Q C 0.5036(5) 1.2418(3) 0.57787(10)
H27Q H 0.496556 1.240440 0.591474
C36Q C 0.5254(6) 1.3061(4) 0.56851(12)
H28Q H 0.532363 1.348222 0.575351
C37Q C 0.5368(6) 1.3085(4) 0.54892(12)
H29Q H 0.553658 1.352892 0.541951
C38Q C 0.5235(6) 1.2465(4) 0.53973(10)
H30Q H 0.528795 1.246515 0.526080
C39Q C 0.5026(4) 1.1841(3) 0.55001(9)
H31Q H 0.495566 1.141742 0.543338
loop_
_geom_bond_atom_site_label_1
_geom_bond_atom_site_label_2
_geom_bond_site_symmetry_1
_geom_bond_site_symmetry_2
Co1 Co2 1_555 1_555
Co2 O2 1_555 1_555
O1 Co1 1_555 1_555
O2 C1 1_555 1_555
O3 C14 1_555 1_555
O4 C14 1_555 1_555
O5 Co1 1_555 1_555
O6 Co2 1_555 1_555
O7 C31 1_555 1_555
O8 C31 1_555 1_555
O9 Co1 1_555 1_555
N1 C7 1_555 1_555
N2 C24 1_555 1_555
N3 Co2 1_555 1_555
C1 O1 1_555 1_555
C2 C3 1_555 1_555
C3 H1 1_555 1_555
C4 C1 1_555 1_555
C5 C4 1_555 1_555
H2 C5 1_555 1_555
C6 C5 1_555 1_555
H3 C6 1_555 1_555
C7 C2 1_555 1_555
C8 C2 1_555 1_555
C9 C8 1_555 1_555
H4 C9 1_555 1_555
C10 C9 1_555 1_555
C11 C10 1_555 1_555
H5 C11 1_555 1_555
C12 C11 1_555 1_555
H6 C12 1_555 1_555
C13 N1 1_555 1_555
C14 C10 1_555 1_555
C15 N1 1_555 1_555
H7 C15 1_555 1_555
C16 C15 1_555 1_555
H8 C16 1_555 1_555
H9 C16 1_555 1_555
H10 C16 1_555 1_555
C17 C15 1_555 1_555
H11 C17 1_555 1_555
H12 C17 1_555 1_555
H13 C17 1_555 1_555
C18 O5 1_555 1_555
C19 C20 1_555 1_555
C20 H14 1_555 1_555
C21 C18 1_555 1_555
C22 C21 1_555 1_555
H15 C22 1_555 1_555
C23 C22 1_555 1_555
H16 C23 1_555 1_555
C24 C19 1_555 1_555
C25 C19 1_555 1_555
C26 C25 1_555 1_555
H17 C26 1_555 1_555
C27 C26 1_555 1_555
C28 C27 1_555 1_555
H18 C28 1_555 1_555
C29 C28 1_555 1_555
H19 C29 1_555 1_555
C30 N2 1_555 1_555
C31 C27 1_555 1_555
C32 N2 1_555 1_555
H20 C32 1_555 1_555
C33 C32 1_555 1_555
H21 C33 1_555 1_555
H22 C33 1_555 1_555
H23 C33 1_555 1_555
C34 C32 1_555 1_555
H24 C34 1_555 1_555
H25 C34 1_555 1_555
H26 C34 1_555 1_555
C35 N3 1_555 1_555
H27 C35 1_555 1_555
C36 C35 1_555 1_555
H28 C36 1_555 1_555
C37 C36 1_555 1_555
H29 C37 1_555 1_555
C38 C37 1_555 1_555
H30 C38 1_555 1_555
C39 N3 1_555 1_555
H31 C39 1_555 1_555
Co1A Co2A 1_555 1_555
Co2A O2A 1_555 1_555
O1A Co1A 1_555 1_555
O2A C1A 1_555 1_555
O3A C14A 1_555 1_555
O4A C14A 1_555 1_555
O5A Co1A 1_555 1_555
O6A Co2A 1_555 1_555
O7A Co1 1_555 1_555
O8A Co2 1_555 1_555
O9A Co1A 1_555 1_555
N1A C7A 1_555 1_555
N2A C24A 1_555 1_555
N3A Co2A 1_555 1_555
C1A O1A 1_555 1_555
C2A C3A 1_555 1_555
C3A H1A 1_555 1_555
C4A C1A 1_555 1_555
C5A C4A 1_555 1_555
H2A C5A 1_555 1_555
C6A C5A 1_555 1_555
H3A C6A 1_555 1_555
C7A C2A 1_555 1_555
C8A C2A 1_555 1_555
C9A C8A 1_555 1_555
H4A C9A 1_555 1_555
C10A C9A 1_555 1_555
C11A C10A 1_555 1_555
H5A C11A 1_555 1_555
C12A C11A 1_555 1_555
H6A C12A 1_555 1_555
C13A N1A 1_555 1_555
C14A C10A 1_555 1_555
C15A N1A 1_555 1_555
H7A C15A 1_555 1_555
C16A C15A 1_555 1_555
H8A C16A 1_555 1_555
H9A C16A 1_555 1_555
H10A C16A 1_555 1_555
C17A C15A 1_555 1_555
H11A C17A 1_555 1_555
H12A C17A 1_555 1_555
H13A C17A 1_555 1_555
C18A O5A 1_555 1_555
C19A C20A 1_555 1_555
C20A H14A 1_555 1_555
C21A C18A 1_555 1_555
C22A C21A 1_555 1_555
H15A C22A 1_555 1_555
C23A C22A 1_555 1_555
H16A C23A 1_555 1_555
C24A C19A 1_555 1_555
C25A C19A 1_555 1_555
C26A C25A 1_555 1_555
H17A C26A 1_555 1_555
C27A C26A 1_555 1_555
C28A C27A 1_555 1_555
H18A C28A 1_555 1_555
C29A C28A 1_555 1_555
H19A C29A 1_555 1_555
C30A N2A 1_555 1_555
C31A O7A 1_555 1_555
C32A N2A 1_555 1_555
H20A C32A 1_555 1_555
C33A C32A 1_555 1_555
H21A C33A 1_555 1_555
H22A C33A 1_555 1_555
H23A C33A 1_555 1_555
C34A C32A 1_555 1_555
H24A C34A 1_555 1_555
H25A C34A 1_555 1_555
H26A C34A 1_555 1_555
C35A N3A 1_555 1_555
H27A C35A 1_555 1_555
C36A C35A 1_555 1_555
H28A C36A 1_555 1_555
C37A C36A 1_555 1_555
H29A C37A 1_555 1_555
C38A C37A 1_555 1_555
H30A C38A 1_555 1_555
C39A N3A 1_555 1_555
H31A C39A 1_555 1_555
Co1B O7 1_555 1_555
Co2B O8 1_555 1_555
O1B Co1B 1_555 1_555
O2B Co2B 1_555 1_555
O3B C14B 1_555 1_555
O4B C14B 1_555 1_555
O5B Co1B 1_555 1_555
O6B Co2B 1_555 1_555
O7B Co1A 1_555 1_555
O8B Co2A 1_555 1_555
O9B Co1B 1_555 1_555
N1B C7B 1_555 1_555
N2B C24B 1_555 1_555
N3B Co2B 1_555 1_555
C1B O1B 1_555 1_555
C2B C3B 1_555 1_555
C3B H1B 1_555 1_555
C4B C1B 1_555 1_555
C5B C4B 1_555 1_555
H2B C5B 1_555 1_555
C6B C5B 1_555 1_555
H3B C6B 1_555 1_555
C7B C2B 1_555 1_555
C8B C2B 1_555 1_555
C9B C8B 1_555 1_555
H4B C9B 1_555 1_555
C10B C9B 1_555 1_555
C11B C10B 1_555 1_555
H5B C11B 1_555 1_555
C12B C11B 1_555 1_555
H6B C12B 1_555 1_555
C13B N1B 1_555 1_555
C14B C10B 1_555 1_555
C15B N1B 1_555 1_555
H7B C15B 1_555 1_555
C16B C15B 1_555 1_555
H8B C16B 1_555 1_555
H9B C16B 1_555 1_555
H10B C16B 1_555 1_555
C17B C15B 1_555 1_555
H11B C17B 1_555 1_555
H12B C17B 1_555 1_555
H13B C17B 1_555 1_555
C18B O5B 1_555 1_555
C19B C20B 1_555 1_555
C20B H14B 1_555 1_555
C21B C18B 1_555 1_555
C22B C21B 1_555 1_555
H15B C22B 1_555 1_555
C23B C22B 1_555 1_555
H16B C23B 1_555 1_555
C24B C19B 1_555 1_555
C25B C19B 1_555 1_555
C26B C25B 1_555 1_555
H17B C26B 1_555 1_555
C27B C26B 1_555 1_555
C28B C27B 1_555 1_555
H18B C28B 1_555 1_555
C29B C28B 1_555 1_555
H19B C29B 1_555 1_555
C30B N2B 1_555 1_555
C31B O7B 1_555 1_555
C32B N2B 1_555 1_555
H20B C32B 1_555 1_555
C33B C32B 1_555 1_555
H21B C33B 1_555 1_555
H22B C33B 1_555 1_555
H23B C33B 1_555 1_555
C34B C32B 1_555 1_555
H24B C34B 1_555 1_555
H25B C34B 1_555 1_555
H26B C34B 1_555 1_555
C35B N3B 1_555 1_555
H27B C35B 1_555 1_555
C36B C35B 1_555 1_555
H28B C36B 1_555 1_555
C37B C36B 1_555 1_555
H29B C37B 1_555 1_555
C38B C37B 1_555 1_555
H30B C38B 1_555 1_555
C39B N3B 1_555 1_555
H31B C39B 1_555 1_555
Co1O O3B 1_555 1_555
Co2O O4B 1_555 1_555
O1O Co1O 1_555 1_555
O2O Co2O 1_555 1_555
O3O Co1A 1_555 1_555
O4O Co2A 1_555 1_555
O5O Co1O 1_555 1_555
O6O Co2O 1_555 1_555
O7O C31O 1_555 1_555
O8O C31O 1_555 1_555
O9O Co1O 1_555 1_555
N1O C7O 1_555 1_555
N2O C24O 1_555 1_555
N3O Co2O 1_555 1_555
C1O O1O 1_555 1_555
C2O C3O 1_555 1_555
C3O H1O 1_555 1_555
C4O C1O 1_555 1_555
C5O C4O 1_555 1_555
H2O C5O 1_555 1_555
C6O C5O 1_555 1_555
H3O C6O 1_555 1_555
C7O C2O 1_555 1_555
C8O C2O 1_555 1_555
C9O C8O 1_555 1_555
H4O C9O 1_555 1_555
C10O C9O 1_555 1_555
C11O C10O 1_555 1_555
H5O C11O 1_555 1_555
C12O C11O 1_555 1_555
H6O C12O 1_555 1_555
C13O N1O 1_555 1_555
C14O O3O 1_555 1_555
C15O N1O 1_555 1_555
H7O C15O 1_555 1_555
C16O C15O 1_555 1_555
H8O C16O 1_555 1_555
H9O C16O 1_555 1_555
H10O C16O 1_555 1_555
C17O C15O 1_555 1_555
H11O C17O 1_555 1_555
H12O C17O 1_555 1_555
H13O C17O 1_555 1_555
C18O O5O 1_555 1_555
C19O C20O 1_555 1_555
C20O H14O 1_555 1_555
C21O C18O 1_555 1_555
C22O C21O 1_555 1_555
H15O C22O 1_555 1_555
C23O C22O 1_555 1_555
H16O C23O 1_555 1_555
C24O C19O 1_555 1_555
C25O C19O 1_555 1_555
C26O C25O 1_555 1_555
H17O C26O 1_555 1_555
C27O C26O 1_555 1_555
C28O C27O 1_555 1_555
H18O C28O 1_555 1_555
C29O C28O 1_555 1_555
H19O C29O 1_555 1_555
C30O N2O 1_555 1_555
C31O C27O 1_555 1_555
C32O N2O 1_555 1_555
H20O C32O 1_555 1_555
C33O C32O 1_555 1_555
H21O C33O 1_555 1_555
H22O C33O 1_555 1_555
H23O C33O 1_555 1_555
C34O C32O 1_555 1_555
H24O C34O 1_555 1_555
H25O C34O 1_555 1_555
H26O C34O 1_555 1_555
C35O N3O 1_555 1_555
H27O C35O 1_555 1_555
C36O C35O 1_555 1_555
H28O C36O 1_555 1_555
C37O C36O 1_555 1_555
H29O C37O 1_555 1_555
C38O C37O 1_555 1_555
H30O C38O 1_555 1_555
C39O N3O 1_555 1_555
H31O C39O 1_555 1_555
Co1P O3 1_555 1_555
Co2P O4 1_555 1_555
O1P Co1P 1_555 1_555
O2P Co2P 1_555 1_555
O3P Co1B 1_555 1_555
O4P Co2B 1_555 1_555
O5P Co1P 1_555 1_555
O6P Co2P 1_555 1_555
O7P Co1O 1_555 1_555
O8P Co2O 1_555 1_555
O9P Co1P 1_555 1_555
N1P C7P 1_555 1_555
N2P C24P 1_555 1_555
N3P Co2P 1_555 1_555
C1P O1P 1_555 1_555
C2P C3P 1_555 1_555
C3P H1P 1_555 1_555
C4P C1P 1_555 1_555
C5P C4P 1_555 1_555
H2P C5P 1_555 1_555
C6P C5P 1_555 1_555
H3P C6P 1_555 1_555
C7P C2P 1_555 1_555
C8P C2P 1_555 1_555
C9P C8P 1_555 1_555
H4P C9P 1_555 1_555
C10P C9P 1_555 1_555
C11P C10P 1_555 1_555
H5P C11P 1_555 1_555
C12P C11P 1_555 1_555
H6P C12P 1_555 1_555
C13P N1P 1_555 1_555
C14P O3P 1_555 1_555
C15P N1P 1_555 1_555
H7P C15P 1_555 1_555
C16P C15P 1_555 1_555
H8P C16P 1_555 1_555
H9P C16P 1_555 1_555
H10P C16P 1_555 1_555
C17P C15P 1_555 1_555
H11P C17P 1_555 1_555
H12P C17P 1_555 1_555
H13P C17P 1_555 1_555
C18P O5P 1_555 1_555
C19P C20P 1_555 1_555
C20P H14P 1_555 1_555
C21P C18P 1_555 1_555
C22P C21P 1_555 1_555
H15P C22P 1_555 1_555
C23P C22P 1_555 1_555
H16P C23P 1_555 1_555
C24P C19P 1_555 1_555
C25P C19P 1_555 1_555
C26P C25P 1_555 1_555
H17P C26P 1_555 1_555
C27P C26P 1_555 1_555
C28P C27P 1_555 1_555
H18P C28P 1_555 1_555
C29P C28P 1_555 1_555
H19P C29P 1_555 1_555
C30P N2P 1_555 1_555
C31P O7P 1_555 1_555
C32P N2P 1_555 1_555
H20P C32P 1_555 1_555
C33P C32P 1_555 1_555
H21P C33P 1_555 1_555
H22P C33P 1_555 1_555
H23P C33P 1_555 1_555
C34P C32P 1_555 1_555
H24P C34P 1_555 1_555
H25P C34P 1_555 1_555
H26P C34P 1_555 1_555
C35P N3P 1_555 1_555
H27P C35P 1_555 1_555
C36P C35P 1_555 1_555
H28P C36P 1_555 1_555
C37P C36P 1_555 1_555
H29P C37P 1_555 1_555
C38P C37P 1_555 1_555
H30P C38P 1_555 1_555
C39P N3P 1_555 1_555
H31P C39P 1_555 1_555
Co1Q O3A 1_555 1_555
Co2Q O4A 1_555 1_555
O1Q Co1Q 1_555 1_555
O2Q Co2Q 1_555 1_555
O3Q Co1 1_555 1_555
O4Q Co2 1_555 1_555
O5Q Co1Q 1_555 1_555
O6Q Co2Q 1_555 1_555
O7Q Co1P 1_555 1_555
O8Q Co2P 1_555 1_555
O9Q Co1Q 1_555 1_555
N1Q C7Q 1_555 1_555
N2Q C24Q 1_555 1_555
N3Q Co2Q 1_555 1_555
C1Q O1Q 1_555 1_555
C2Q C3Q 1_555 1_555
C3Q H1Q 1_555 1_555
C4Q C1Q 1_555 1_555
C5Q C4Q 1_555 1_555
H2Q C5Q 1_555 1_555
C6Q C5Q 1_555 1_555
H3Q C6Q 1_555 1_555
C7Q C2Q 1_555 1_555
C8Q C2Q 1_555 1_555
C9Q C8Q 1_555 1_555
H4Q C9Q 1_555 1_555
C10Q C9Q 1_555 1_555
C11Q C10Q 1_555 1_555
H5Q C11Q 1_555 1_555
C12Q C11Q 1_555 1_555
H6Q C12Q 1_555 1_555
C13Q N1Q 1_555 1_555
C14Q O3Q 1_555 1_555
C15Q N1Q 1_555 1_555
H7Q C15Q 1_555 1_555
C16Q C15Q 1_555 1_555
H8Q C16Q 1_555 1_555
H9Q C16Q 1_555 1_555
H10Q C16Q 1_555 1_555
C17Q C15Q 1_555 1_555
H11Q C17Q 1_555 1_555
H12Q C17Q 1_555 1_555
H13Q C17Q 1_555 1_555
C18Q O5Q 1_555 1_555
C19Q C20Q 1_555 1_555
C20Q H14Q 1_555 1_555
C21Q C18Q 1_555 1_555
C22Q C21Q 1_555 1_555
H15Q C22Q 1_555 1_555
C23Q C22Q 1_555 1_555
H16Q C23Q 1_555 1_555
C24Q C19Q 1_555 1_555
C25Q C19Q 1_555 1_555
C26Q C25Q 1_555 1_555
H17Q C26Q 1_555 1_555
C27Q C26Q 1_555 1_555
C28Q C27Q 1_555 1_555
H18Q C28Q 1_555 1_555
C29Q C28Q 1_555 1_555
H19Q C29Q 1_555 1_555
C30Q N2Q 1_555 1_555
C31Q O7Q 1_555 1_555
C32Q N2Q 1_555 1_555
H20Q C32Q 1_555 1_555
C33Q C32Q 1_555 1_555
H21Q C33Q 1_555 1_555
H22Q C33Q 1_555 1_555
H23Q C33Q 1_555 1_555
C34Q C32Q 1_555 1_555
H24Q C34Q 1_555 1_555
H25Q C34Q 1_555 1_555
H26Q C34Q 1_555 1_555
C35Q N3Q 1_555 1_555
H27Q C35Q 1_555 1_555
C36Q C35Q 1_555 1_555
H28Q C36Q 1_555 1_555
C37Q C36Q 1_555 1_555
H29Q C37Q 1_555 1_555
C38Q C37Q 1_555 1_555
H30Q C38Q 1_555 1_555
C39Q N3Q 1_555 1_555
H31Q C39Q 1_555 1_555
O6 C18 1_555 1_555
C3 C4 1_555 1_555
C6 C7 1_555 1_555
C8 C13 1_555 1_555
C12 C13 1_555 1_555
C20 C21 1_555 1_555
C23 C24 1_555 1_555
C25 C30 1_555 1_555
C29 C30 1_555 1_555
C38 C39 1_555 1_555
O6A C18A 1_555 1_555
O8A C31A 1_555 1_555
C3A C4A 1_555 1_555
C6A C7A 1_555 1_555
C8A C13A 1_555 1_555
C12A C13A 1_555 1_555
C20A C21A 1_555 1_555
C23A C24A 1_555 1_555
C25A C30A 1_555 1_555
C27A C31A 1_555 1_555
C29A C30A 1_555 1_555
C38A C39A 1_555 1_555
Co1B Co2B 1_555 1_555
O2B C1B 1_555 1_555
O6B C18B 1_555 1_555
O8B C31B 1_555 1_555
C3B C4B 1_555 1_555
C6B C7B 1_555 1_555
C8B C13B 1_555 1_555
C12B C13B 1_555 1_555
C20B C21B 1_555 1_555
C23B C24B 1_555 1_555
C25B C30B 1_555 1_555
C27B C31B 1_555 1_555
C29B C30B 1_555 1_555
C38B C39B 1_555 1_555
Co1O Co2O 1_555 1_555
O2O C1O 1_555 1_555
O4O C14O 1_555 1_555
O6O C18O 1_555 1_555
O7O Co1Q 1_555 1_555
O8O Co2Q 1_555 1_555
C3O C4O 1_555 1_555
C6O C7O 1_555 1_555
C8O C13O 1_555 1_555
C10O C14O 1_555 1_555
C12O C13O 1_555 1_555
C20O C21O 1_555 1_555
C23O C24O 1_555 1_555
C25O C30O 1_555 1_555
C29O C30O 1_555 1_555
C38O C39O 1_555 1_555
Co1P Co2P 1_555 1_555
O2P C1P 1_555 1_555
O4P C14P 1_555 1_555
O6P C18P 1_555 1_555
O8P C31P 1_555 1_555
C3P C4P 1_555 1_555
C6P C7P 1_555 1_555
C8P C13P 1_555 1_555
C10P C14P 1_555 1_555
C12P C13P 1_555 1_555
C20P C21P 1_555 1_555
C23P C24P 1_555 1_555
C25P C30P 1_555 1_555
C27P C31P 1_555 1_555
C29P C30P 1_555 1_555
C38P C39P 1_555 1_555
Co1Q Co2Q 1_555 1_555
O2Q C1Q 1_555 1_555
O4Q C14Q 1_555 1_555
O6Q C18Q 1_555 1_555
O8Q C31Q 1_555 1_555
C3Q C4Q 1_555 1_555
C6Q C7Q 1_555 1_555
C8Q C13Q 1_555 1_555
C10Q C14Q 1_555 1_555
C12Q C13Q 1_555 1_555
C20Q C21Q 1_555 1_555
C23Q C24Q 1_555 1_555
C25Q C30Q 1_555 1_555
C27Q C31Q 1_555 1_555
C29Q C30Q 1_555 1_555
C38Q C39Q 1_555 1_555

#END
