
#######################################################################
#
#                 Cambridge Crystallographic Data Centre
#                                CCDC 
#
#######################################################################
#
# If this CIF has been generated from an entry in the Cambridge 
# Structural Database, then it will include bibliographic, chemical, 
# crystal, experimental, refinement or atomic coordinate data resulting 
# from the CCDC's data processing and validation procedures.
#
#######################################################################

data_QEZZAZ
_chemical_formula_moiety         'C204 H192 N24 Ni12 O48'
_chemical_name_systematic        
'dodecakis(\m-9-(propan-2-yl)-9H-carbazole-3,6-dicarboxylato)-dodeca-ammine-dodeca-nickel(ii) unknown solvate'
_symmetry_cell_setting           triclinic
_symmetry_space_group_name_H-M   'P -1'
_symmetry_Int_Tables_number      2
_space_group_name_Hall           '-P 1'
loop_
_symmetry_equiv_pos_site_id
_symmetry_equiv_pos_as_xyz
1 x,y,z
2 -x,-y,-z
_cell_length_a                   22.8834(6)
_cell_length_b                   23.0038(6)
_cell_length_c                   23.2582(7)
_cell_angle_alpha                66.755(2)
_cell_angle_beta                 85.482(2)
_cell_angle_gamma                61.191(2)
_cell_volume                     9762.24
_exptl_crystal_colour            green
_exptl_crystal_description       plate
_cell_formula_units_Z            1
loop_
_atom_site_label
_atom_site_type_symbol
_atom_site_fract_x
_atom_site_fract_y
_atom_site_fract_z
Ni1 Ni 0.20657(14) 0.65222(17) 0.29899(12)
Ni2 Ni 0.09576(13) 0.71240(17) 0.21981(12)
Ni3 Ni 0.31337(9) 0.67961(9) 0.68809(8)
Ni4 Ni 0.24363(8) 0.75115(9) 0.75719(8)
Ni5 Ni 0.43917(9) 0.21625(10) 0.68156(9)
Ni6 Ni 0.57746(10) 0.89617(10) 0.24865(9)
N1 N 0.2914(10) 0.6035(12) 0.3580(10)
N2 N 0.0092(6) 0.7652(9) 0.1592(6)
N3 N 0.3721(8) 0.6202(8) 0.6383(7)
N4 N 0.1896(6) 0.8023(6) 0.8096(5)
N5 N 0.4498(8) 0.3067(7) 0.6292(7)
N6 N 0.5873(6) 0.9867(5) 0.1979(5)
O1 O 0.4955(4) 0.1573(4) 0.6315(4)
O2 O 0.4835(4) 0.0617(5) 0.6943(4)
O3 O 0.6758(4) 0.2311(4) 0.3595(4)
O4 O 0.7322(4) 0.1716(4) 0.2974(4)
N7 N 0.6508(5) -0.0495(5) 0.4957(4)
C1 C 0.5025(6) 0.0962(6) 0.6479(6)
C2 C 0.6055(6) 0.0496(6) 0.5214(5)
C3 C 0.5696(6) 0.0874(6) 0.5581(5)
H1 H 0.561637 0.135224 0.547416
C4 C 0.5451(6) 0.0536(6) 0.6113(5)
C5 C 0.5556(6) -0.0161(6) 0.6280(6)
H2 H 0.538504 -0.037353 0.663991
C6 C 0.5924(6) -0.0561(7) 0.5906(5)
H3 H 0.601461 -0.104434 0.601861
C7 C 0.6141(6) -0.0208(6) 0.5371(6)
C8 C 0.6405(5) 0.0622(6) 0.4685(5)
C9 C 0.6506(5) 0.1219(5) 0.4320(4)
H4 H 0.632258 0.163701 0.441045
C10 C 0.6882(5) 0.1169(5) 0.3824(5)
C11 C 0.7119(5) 0.0574(5) 0.3671(5)
H5 H 0.735426 0.056556 0.331657
C12 C 0.7015(6) -0.0018(6) 0.4032(5)
H6 H 0.718397 -0.042968 0.393282
C13 C 0.6657(6) 0.0026(6) 0.4536(5)
C14 C 0.6996(5) 0.1805(6) 0.3424(5)
C15 C 0.6703(7) -0.1231(6) 0.4964(6)
H7 H 0.699397 -0.128794 0.462377
C16 C 0.6110(7) -0.1235(8) 0.4791(8)
H8 H 0.624388 -0.170269 0.477674
H9 H 0.588295 -0.084187 0.437521
H10 H 0.580184 -0.116455 0.510592
C17 C 0.7135(8) -0.1823(8) 0.5580(7)
H11 H 0.730195 -0.229788 0.556707
H12 H 0.686620 -0.179395 0.592731
H13 H 0.751659 -0.176315 0.564546
O5 O 0.3554(4) 0.2469(4) 0.6285(4)
O6 O 0.3417(5) 0.1515(5) 0.6872(4)
O7 O 0.1813(5) 0.5741(6) 0.3413(5)
O8 O 0.0903(6) 0.6217(7) 0.2725(5)
N8 N 0.0958(6) 0.3322(7) 0.4702(6)
C18 C 0.3252(6) 0.2120(6) 0.6427(6)
C19 C 0.1835(7) 0.3379(7) 0.5048(6)
C20 C 0.2425(6) 0.3068(7) 0.5460(5)
H14 H 0.268381 0.330764 0.537709
C21 C 0.2634(6) 0.2411(6) 0.5990(5)
C22 C 0.2285(6) 0.2031(7) 0.6104(6)
H15 H 0.244231 0.157687 0.645681
C23 C 0.1687(7) 0.2323(7) 0.5689(6)
H16 H 0.144981 0.206267 0.575726
C24 C 0.1467(7) 0.2993(8) 0.5187(6)
C25 C 0.1494(7) 0.3995(8) 0.4485(6)
C26 C 0.1621(8) 0.4572(8) 0.4119(6)
H17 H 0.199836 0.458232 0.424891
C27 C 0.1196(8) 0.5114(8) 0.3576(6)
C28 C 0.0676(8) 0.5047(10) 0.3377(7)
H18 H 0.040244 0.540211 0.298434
C29 C 0.0539(8) 0.4478(9) 0.3732(7)
H19 H 0.017459 0.445451 0.359128
C30 C 0.0959(8) 0.3954(9) 0.4294(7)
C31 C 0.1332(8) 0.5726(9) 0.3213(7)
C32 C 0.0495(9) 0.3031(10) 0.4630(9)
H20 H 0.061162 0.258084 0.502148
C33 C -0.0172(9) 0.3558(11) 0.4634(11)
H21 H -0.049447 0.346115 0.449188
H22 H -0.025092 0.404425 0.435016
H23 H -0.022967 0.353239 0.506423
C34 C 0.0680(11) 0.2805(11) 0.4101(10)
H24 H 0.056382 0.242866 0.416012
H25 H 0.116555 0.261005 0.408938
H26 H 0.043420 0.322469 0.370296
O9 O 0.3812(4) 0.2587(4) 0.7424(4)
O10 O 0.3655(4) 0.1635(5) 0.7987(5)
O11 O 0.2890(3) 0.6035(4) 0.7460(3)
O12 O 0.2281(4) 0.6660(4) 0.8035(3)
N9 N 0.2029(6) 0.3806(6) 0.9266(6)
C35 C 0.3601(6) 0.2240(6) 0.7842(6)
C36 C 0.2707(6) 0.3694(6) 0.8484(6)
C37 C 0.3080(6) 0.3318(5) 0.8113(6)
H27 H 0.327294 0.353207 0.777699
C38 C 0.3167(6) 0.2645(6) 0.8232(6)
C39 C 0.2869(7) 0.2334(7) 0.8701(6)
H28 H 0.291793 0.187833 0.876431
C40 C 0.2489(8) 0.2688(7) 0.9091(7)
H29 H 0.230101 0.246560 0.942750
C41 C 0.2402(7) 0.3361(7) 0.8968(7)
C42 C 0.2513(6) 0.4356(6) 0.8516(5)
C43 C 0.2648(5) 0.4925(5) 0.8142(5)
H30 H 0.290638 0.489114 0.780514
C44 C 0.2397(5) 0.5522(5) 0.8278(5)
C45 C 0.2010(6) 0.5563(6) 0.8771(5)
H31 H 0.185835 0.597151 0.887027
C46 C 0.1835(7) 0.5027(6) 0.9127(6)
H32 H 0.154994 0.507537 0.944457
C47 C 0.2107(7) 0.4424(6) 0.8983(6)
C48 C 0.2534(5) 0.6130(5) 0.7880(5)
C49 C 0.1562(9) 0.3684(10) 0.9752(8)
H33 H 0.135404 0.413559 0.983210
C50 C 0.1943(11) 0.3142(13) 1.0333(9)
H34 H 0.164049 0.307068 1.064261
H35 H 0.221965 0.328828 1.047987
H36 H 0.223470 0.268745 1.028542
C51 C 0.0974(10) 0.3737(13) 0.9453(11)
H37 H 0.055546 0.407519 0.955021
H38 H 0.100942 0.325567 0.961829
H39 H 0.097065 0.391309 0.899398
O13 O 0.3896(4) 0.6399(4) 0.7513(4)
O14 O 0.3335(4) 0.6972(5) 0.8131(4)
O15 O 0.7464(6) 0.3953(7) 0.7580(6)
O16 O 0.8424(6) 0.3419(7) 0.8289(6)
N10 N 0.6265(6) 0.5270(7) 0.9573(5)
C52 C 0.3839(6) 0.6567(7) 0.7962(6)
C53 C 0.5680(6) 0.5438(8) 0.8705(6)
C54 C 0.5086(6) 0.5789(7) 0.8276(6)
H40 H 0.510850 0.570891 0.790263
C55 C 0.4477(6) 0.6245(7) 0.8401(6)
C56 C 0.4433(6) 0.6398(8) 0.8930(6)
H41 H 0.400570 0.668982 0.902369
C57 C 0.5046(6) 0.6109(8) 0.9342(7)
H42 H 0.503604 0.626329 0.966725
C58 C 0.5637(6) 0.5603(8) 0.9239(7)
C59 C 0.6361(6) 0.4980(8) 0.8718(7)
C60 C 0.6728(6) 0.4629(8) 0.8326(7)
H43 H 0.650073 0.468912 0.796526
C61 C 0.7418(6) 0.4198(9) 0.8471(7)
C62 C 0.7739(8) 0.4039(10) 0.9044(7)
H44 H 0.819931 0.367370 0.917451
C63 C 0.7404(7) 0.4401(9) 0.9430(8)
H45 H 0.763634 0.434016 0.978866
C64 C 0.6708(6) 0.4859(9) 0.9259(7)
C65 C 0.7807(8) 0.3800(10) 0.8058(8)
C66 C 0.6450(9) 0.5233(10) 1.0207(7)
H46 H 0.695183 0.492871 1.029715
C67 C 0.6210(10) 0.4826(11) 1.0708(7)
H47 H 0.602001 0.507376 1.099147
H48 H 0.658465 0.433739 1.094582
H49 H 0.586143 0.479075 1.052795
C68 C 0.6307(10) 0.5970(10) 1.0116(8)
H50 H 0.608195 0.608412 1.046390
H51 H 0.601527 0.633061 0.971451
H52 H 0.673139 0.597953 1.011051
O17 O 0.2149(5) 0.7378(6) 0.2423(4)
O18 O 0.1223(5) 0.7885(6) 0.1768(4)
O19 O 0.4789(4) 0.8335(4) 0.2547(4)
O20 O 0.4962(4) 0.9248(5) 0.1934(4)
N11 N 0.2198(5) 1.0191(6) 0.0497(5)
C69 C 0.1741(6) 0.7856(7) 0.1945(6)
C70 C 0.2515(6) 0.9087(6) 0.1324(5)
C71 C 0.2406(6) 0.8506(7) 0.1711(6)
H53 H 0.271338 0.813055 0.208008
C72 C 0.1844(6) 0.8489(6) 0.1547(6)
C73 C 0.1374(6) 0.9058(7) 0.1037(6)
H54 H 0.097374 0.905595 0.095790
C74 C 0.1464(6) 0.9644(7) 0.0629(6)
H55 H 0.113729 1.002771 0.027472
C75 C 0.2046(6) 0.9638(7) 0.0763(6)
C76 C 0.3007(6) 0.9284(6) 0.1349(5)
C77 C 0.3607(5) 0.8949(6) 0.1766(5)
H56 H 0.373076 0.850759 0.212577
C78 C 0.4005(6) 0.9262(6) 0.1649(5)
C79 C 0.3783(7) 0.9940(7) 0.1137(6)
H57 H 0.404750 1.017105 0.107143
C80 C 0.3191(7) 1.0292(7) 0.0717(7)
H58 H 0.305185 1.075163 0.037557
C81 C 0.2818(6) 0.9937(7) 0.0826(6)
C82 C 0.4633(6) 0.8921(6) 0.2086(6)
C83 C 0.1821(8) 1.0888(8) -0.0092(7)
H59 H 0.143450 1.085405 -0.021659
C84 C 0.1504(10) 1.1513(9) 0.0049(9)
H60 H 0.120107 1.193709 -0.032435
H61 H 0.184805 1.159850 0.016790
H62 H 0.124543 1.143377 0.039965
C85 C 0.2215(10) 1.0872(11) -0.0624(8)
H63 H 0.190915 1.118298 -0.102345
H64 H 0.247447 1.037243 -0.059140
H65 H 0.252394 1.105047 -0.061096
O21 O 0.1416(6) 0.7110(7) 0.3453(5)
O22 O 0.0489(7) 0.7576(8) 0.2793(5)
O23 O 0.2244(4) 0.7296(5) 0.6337(4)
O24 O 0.1645(4) 0.7924(4) 0.6932(4)
N12 N -0.0624(6) 0.9019(6) 0.4769(6)
C86 C 0.0815(8) 0.7472(10) 0.3275(7)
C87 C 0.0359(6) 0.8200(8) 0.4557(6)
C88 C 0.0708(7) 0.7808(8) 0.4194(6)
H66 H 0.117154 0.745987 0.433183
C89 C 0.0411(7) 0.7902(9) 0.3649(6)
C90 C -0.0271(7) 0.8332(9) 0.3487(7)
H67 H -0.048638 0.834958 0.314297
C91 C -0.0667(8) 0.8758(9) 0.3831(6)
H68 H -0.113705 0.907826 0.370296
C92 C -0.0344(6) 0.8690(8) 0.4359(6)
C93 C 0.0506(7) 0.8237(8) 0.5119(6)
C94 C 0.1103(7) 0.7896(7) 0.5541(6)
H69 H 0.150737 0.752170 0.549347
C95 C 0.1096(6) 0.8110(7) 0.6022(6)
C96 C 0.0484(6) 0.8573(7) 0.6151(6)
H70 H 0.047308 0.866943 0.651437
C97 C -0.0115(7) 0.8898(8) 0.5757(6)
H71 H -0.053236 0.921154 0.584903
C98 C -0.0086(7) 0.8750(8) 0.5223(6)
C99 C 0.1729(6) 0.7744(7) 0.6477(6)
C100 C -0.1336(7) 0.9640(8) 0.4688(8)
H72 H -0.158174 0.967804 0.432714
C101 C -0.1663(9) 0.9443(10) 0.5204(9)
H73 H -0.214336 0.980502 0.510668
H74 H -0.146633 0.942108 0.557664
H75 H -0.160871 0.896591 0.528997
C102 C -0.1291(9) 1.0323(8) 0.4436(9)
H76 H -0.160480 1.065317 0.462029
H77 H -0.140788 1.055723 0.397531
H78 H -0.083087 1.020411 0.454690
Ni1A Ni 0.79343(14) 0.34778(17) 0.70101(12)
Ni2A Ni 0.90424(13) 0.28760(17) 0.78019(12)
Ni3A Ni 0.68663(9) 0.32039(9) 0.31191(8)
Ni4A Ni 0.75637(8) 0.24885(9) 0.24281(8)
Ni5A Ni 0.56083(9) 0.78375(10) 0.31844(9)
Ni6A Ni 0.42254(10) 0.10383(10) 0.75135(9)
N1A N 0.7086(10) 0.3965(12) 0.6420(10)
N2A N 0.9908(6) 0.2348(9) 0.8408(6)
N3A N 0.6279(8) 0.3798(8) 0.3617(7)
N4A N 0.8104(6) 0.1977(6) 0.1904(5)
N5A N 0.5502(8) 0.6933(7) 0.3708(7)
N6A N 0.4127(6) 0.0133(5) 0.8021(5)
O1A O 0.5045(4) 0.8427(4) 0.3685(4)
O2A O 0.5165(4) 0.9383(5) 0.3057(4)
O3A O 0.3242(4) 0.7689(4) 0.6405(4)
O4A O 0.2678(4) 0.8284(4) 0.7026(4)
N7A N 0.3492(5) 1.0495(5) 0.5043(4)
C1A C 0.4975(6) 0.9038(6) 0.3521(6)
C2A C 0.3945(6) 0.9504(6) 0.4786(5)
C3A C 0.4304(6) 0.9126(6) 0.4419(5)
H1A H 0.438363 0.864776 0.452584
C4A C 0.4549(6) 0.9464(6) 0.3887(5)
C5A C 0.4444(6) 1.0161(6) 0.3720(6)
H2A H 0.461496 1.037353 0.336009
C6A C 0.4076(6) 1.0561(7) 0.4094(5)
H3A H 0.398539 1.104434 0.398139
C7A C 0.3859(6) 1.0208(6) 0.4629(6)
C8A C 0.3595(5) 0.9378(6) 0.5315(5)
C9A C 0.3494(5) 0.8781(5) 0.5680(4)
H4A H 0.367742 0.836299 0.558955
C10A C 0.3118(5) 0.8831(5) 0.6176(5)
C11A C 0.2881(5) 0.9426(5) 0.6329(5)
H5A H 0.264574 0.943444 0.668343
C12A C 0.2985(6) 1.0018(6) 0.5968(5)
H6A H 0.281603 1.042968 0.606718
C13A C 0.3343(6) 0.9974(6) 0.5464(5)
C14A C 0.3004(5) 0.8195(6) 0.6576(5)
C15A C 0.3297(7) 1.1231(6) 0.5036(6)
H7A H 0.300603 1.128794 0.537623
C16A C 0.3890(7) 1.1235(8) 0.5209(8)
H8A H 0.375612 1.170269 0.522326
H9A H 0.411705 1.084187 0.562479
H10A H 0.419816 1.116455 0.489408
C17A C 0.2865(8) 1.1823(8) 0.4420(7)
H11A H 0.269805 1.229788 0.443293
H12A H 0.313380 1.179395 0.407269
H13A H 0.248341 1.176315 0.435454
O5A O 0.6446(4) 0.7531(4) 0.3715(4)
O6A O 0.6583(5) 0.8485(5) 0.3128(4)
O7A O 0.8187(5) 0.4259(6) 0.6587(5)
O8A O 0.9097(6) 0.3783(7) 0.7275(5)
N8A N 0.9042(6) 0.6678(7) 0.5298(6)
C18A C 0.6748(6) 0.7880(6) 0.3573(6)
C19A C 0.8165(7) 0.6621(7) 0.4952(6)
C20A C 0.7575(6) 0.6932(7) 0.4540(5)
H14A H 0.731619 0.669236 0.462291
C21A C 0.7366(6) 0.7589(6) 0.4010(5)
C22A C 0.7715(6) 0.7969(7) 0.3896(6)
H15A H 0.755769 0.842313 0.354319
C23A C 0.8313(7) 0.7677(7) 0.4311(6)
H16A H 0.855019 0.793733 0.424274
C24A C 0.8533(7) 0.7007(8) 0.4813(6)
C25A C 0.8506(7) 0.6005(8) 0.5515(6)
C26A C 0.8379(8) 0.5428(8) 0.5881(6)
H17A H 0.800164 0.541768 0.575109
C27A C 0.8804(8) 0.4886(8) 0.6424(6)
C28A C 0.9324(8) 0.4953(10) 0.6623(7)
H18A H 0.959756 0.459789 0.701566
C29A C 0.9461(8) 0.5522(9) 0.6268(7)
H19A H 0.982541 0.554549 0.640872
C30A C 0.9041(8) 0.6046(9) 0.5706(7)
C31A C 0.8668(8) 0.4274(9) 0.6787(7)
C32A C 0.9505(9) 0.6969(10) 0.5370(9)
H20A H 0.938838 0.741916 0.497852
C33A C 1.0172(9) 0.6442(11) 0.5366(11)
H21A H 1.049447 0.653885 0.550812
H22A H 1.025092 0.595575 0.564984
H23A H 1.022967 0.646761 0.493577
C34A C 0.9320(11) 0.7195(11) 0.5899(10)
H24A H 0.943618 0.757134 0.583988
H25A H 0.883445 0.738995 0.591062
H26A H 0.956580 0.677531 0.629704
O9A O 0.6188(4) 0.7413(4) 0.2576(4)
O10A O 0.6345(4) 0.8365(5) 0.2013(5)
O11A O 0.7110(3) 0.3965(4) 0.2540(3)
O12A O 0.7719(4) 0.3340(4) 0.1965(3)
N9A N 0.7971(6) 0.6194(6) 0.0734(6)
C35A C 0.6399(6) 0.7760(6) 0.2158(6)
C36A C 0.7293(6) 0.6306(6) 0.1516(6)
C37A C 0.6920(6) 0.6682(5) 0.1887(6)
H27A H 0.672706 0.646793 0.222301
C38A C 0.6833(6) 0.7355(6) 0.1768(6)
C39A C 0.7131(7) 0.7666(7) 0.1299(6)
H28A H 0.708207 0.812167 0.123569
C40A C 0.7511(8) 0.7312(7) 0.0909(7)
H29A H 0.769899 0.753440 0.057250
C41A C 0.7598(7) 0.6639(7) 0.1032(7)
C42A C 0.7487(6) 0.5644(6) 0.1484(5)
C43A C 0.7352(5) 0.5075(5) 0.1858(5)
H30A H 0.709362 0.510886 0.219486
C44A C 0.7603(5) 0.4478(5) 0.1722(5)
C45A C 0.7990(6) 0.4437(6) 0.1229(5)
H31A H 0.814165 0.402849 0.112973
C46A C 0.8165(7) 0.4973(6) 0.0873(6)
H32A H 0.845006 0.492463 0.055543
C47A C 0.7893(7) 0.5576(6) 0.1017(6)
C48A C 0.7466(5) 0.3870(5) 0.2120(5)
C49A C 0.8438(9) 0.6316(10) 0.0248(8)
H33A H 0.864596 0.586441 0.016790
C50A C 0.8057(11) 0.6858(13) -0.0333(9)
H34A H 0.835951 0.692932 -0.064261
H35A H 0.778035 0.671172 -0.047987
H36A H 0.776530 0.731255 -0.028542
C51A C 0.9026(10) 0.6263(13) 0.0547(11)
H37A H 0.944454 0.592481 0.044979
H38A H 0.899058 0.674433 0.038171
H39A H 0.902935 0.608691 0.100602
O13A O 0.6104(4) 0.3601(4) 0.2487(4)
O14A O 0.6665(4) 0.3028(5) 0.1869(4)
O15A O 0.2536(6) 0.6047(7) 0.2420(6)
O16A O 0.1576(6) 0.6581(7) 0.1711(6)
N10A N 0.3735(6) 0.4730(7) 0.0427(5)
C52A C 0.6161(6) 0.3433(7) 0.2038(6)
C53A C 0.4320(6) 0.4562(8) 0.1295(6)
C54A C 0.4914(6) 0.4211(7) 0.1724(6)
H40A H 0.489150 0.429109 0.209737
C55A C 0.5523(6) 0.3755(7) 0.1599(6)
C56A C 0.5567(6) 0.3602(8) 0.1070(6)
H41A H 0.599430 0.331018 0.097631
C57A C 0.4954(6) 0.3891(8) 0.0658(7)
H42A H 0.496396 0.373671 0.033275
C58A C 0.4363(6) 0.4397(8) 0.0761(7)
C59A C 0.3639(6) 0.5020(8) 0.1282(7)
C60A C 0.3272(6) 0.5371(8) 0.1674(7)
H43A H 0.349927 0.531088 0.203474
C61A C 0.2582(6) 0.5802(9) 0.1529(7)
C62A C 0.2261(8) 0.5961(10) 0.0956(7)
H44A H 0.180069 0.632630 0.082549
C63A C 0.2596(7) 0.5599(9) 0.0570(8)
H45A H 0.236366 0.565984 0.021134
C64A C 0.3292(6) 0.5141(9) 0.0741(7)
C65A C 0.2193(8) 0.6200(10) 0.1942(8)
C66A C 0.3550(9) 0.4767(10) -0.0207(7)
H46A H 0.304817 0.507129 -0.029715
C67A C 0.3790(10) 0.5174(11) -0.0708(7)
H47A H 0.397999 0.492624 -0.099147
H48A H 0.341535 0.566261 -0.094582
H49A H 0.413857 0.520925 -0.052795
C68A C 0.3693(10) 0.4030(10) -0.0116(8)
H50A H 0.391805 0.391588 -0.046390
H51A H 0.398473 0.366939 0.028549
H52A H 0.326861 0.402047 -0.011051
O17A O 0.7851(5) 0.2622(6) 0.7577(4)
O18A O 0.8777(5) 0.2115(6) 0.8232(4)
O19A O 0.5211(4) 0.1665(4) 0.7453(4)
O20A O 0.5038(4) 0.0752(5) 0.8066(4)
N11A N 0.7802(5) -0.0191(6) 0.9503(5)
C69A C 0.8259(6) 0.2144(7) 0.8055(6)
C70A C 0.7485(6) 0.0913(6) 0.8676(5)
C71A C 0.7594(6) 0.1494(7) 0.8289(6)
H53A H 0.728662 0.186945 0.791992
C72A C 0.8156(6) 0.1511(6) 0.8453(6)
C73A C 0.8626(6) 0.0942(7) 0.8963(6)
H54A H 0.902626 0.094405 0.904210
C74A C 0.8536(6) 0.0356(7) 0.9371(6)
H55A H 0.886271 -0.002771 0.972528
C75A C 0.7954(6) 0.0362(7) 0.9237(6)
C76A C 0.6993(6) 0.0716(6) 0.8651(5)
C77A C 0.6393(5) 0.1051(6) 0.8234(5)
H56A H 0.626924 0.149241 0.787423
C78A C 0.5995(6) 0.0738(6) 0.8351(5)
C79A C 0.6217(7) 0.0060(7) 0.8863(6)
H57A H 0.595250 -0.017105 0.892857
C80A C 0.6809(7) -0.0292(7) 0.9283(7)
H58A H 0.694815 -0.075163 0.962443
C81A C 0.7182(6) 0.0063(7) 0.9174(6)
C82A C 0.5367(6) 0.1079(6) 0.7914(6)
C83A C 0.8179(8) -0.0888(8) 1.0092(7)
H59A H 0.856550 -0.085405 1.021659
C84A C 0.8496(10) -0.1513(9) 0.9951(9)
H60A H 0.879893 -0.193709 1.032435
H61A H 0.815195 -0.159850 0.983210
H62A H 0.875457 -0.143377 0.960035
C85A C 0.7785(10) -0.0872(11) 1.0624(8)
H63A H 0.809085 -0.118298 1.102345
H64A H 0.752553 -0.037243 1.059140
H65A H 0.747606 -0.105047 1.061096
O21A O 0.8584(6) 0.2890(7) 0.6547(5)
O22A O 0.9511(7) 0.2424(8) 0.7207(5)
O23A O 0.7756(4) 0.2704(5) 0.3663(4)
O24A O 0.8355(4) 0.2076(4) 0.3068(4)
N12A N 1.0624(6) 0.0981(6) 0.5231(6)
C86A C 0.9185(8) 0.2528(10) 0.6725(7)
C87A C 0.9641(6) 0.1800(8) 0.5443(6)
C88A C 0.9292(7) 0.2192(8) 0.5806(6)
H66A H 0.882846 0.254013 0.566817
C89A C 0.9589(7) 0.2098(9) 0.6351(6)
C90A C 1.0271(7) 0.1668(9) 0.6513(7)
H67A H 1.048638 0.165042 0.685703
C91A C 1.0667(8) 0.1242(9) 0.6169(6)
H68A H 1.113705 0.092174 0.629704
C92A C 1.0344(6) 0.1310(8) 0.5641(6)
C93A C 0.9494(7) 0.1763(8) 0.4881(6)
C94A C 0.8897(7) 0.2104(7) 0.4459(6)
H69A H 0.849263 0.247830 0.450653
C95A C 0.8904(6) 0.1890(7) 0.3978(6)
C96A C 0.9516(6) 0.1427(7) 0.3849(6)
H70A H 0.952692 0.133057 0.348563
C97A C 1.0115(7) 0.1102(8) 0.4243(6)
H71A H 1.053236 0.078846 0.415097
C98A C 1.0086(7) 0.1250(8) 0.4777(6)
C99A C 0.8271(6) 0.2256(7) 0.3523(6)
C100A C 1.1336(7) 0.0360(8) 0.5312(8)
H72A H 1.158174 0.032196 0.567286
C101A C 1.1663(9) 0.0557(10) 0.4796(9)
H73A H 1.214336 0.019498 0.489332
H74A H 1.146633 0.057892 0.442336
H75A H 1.160871 0.103409 0.471003
C102A C 1.1291(9) -0.0323(8) 0.5564(9)
H76A H 1.160480 -0.065317 0.537971
H77A H 1.140788 -0.055723 0.602469
H78A H 1.083087 -0.020411 0.545310
loop_
_geom_bond_atom_site_label_1
_geom_bond_atom_site_label_2
_geom_bond_site_symmetry_1
_geom_bond_site_symmetry_2
Ni1 Ni2 1_555 1_555
Ni2 N2 1_555 1_555
Ni3 Ni4 1_555 1_555
Ni4 N4 1_555 1_555
Ni5 N5 1_555 1_555
Ni6 N6 1_555 1_555
N1 Ni1 1_555 1_555
N3 Ni3 1_555 1_555
O1 Ni5 1_555 1_555
O2 C1 1_555 1_555
O3 C14 1_555 1_555
O4 C14 1_555 1_555
N7 C7 1_555 1_555
C1 O1 1_555 1_555
C2 C3 1_555 1_555
C3 H1 1_555 1_555
C4 C1 1_555 1_555
C5 C4 1_555 1_555
H2 C5 1_555 1_555
C6 C5 1_555 1_555
H3 C6 1_555 1_555
C7 C2 1_555 1_555
C8 C2 1_555 1_555
C9 C8 1_555 1_555
H4 C9 1_555 1_555
C10 C9 1_555 1_555
C11 C10 1_555 1_555
H5 C11 1_555 1_555
C12 C11 1_555 1_555
H6 C12 1_555 1_555
C13 N7 1_555 1_555
C14 C10 1_555 1_555
C15 N7 1_555 1_555
H7 C15 1_555 1_555
C16 C15 1_555 1_555
H8 C16 1_555 1_555
H9 C16 1_555 1_555
H10 C16 1_555 1_555
C17 C15 1_555 1_555
H11 C17 1_555 1_555
H12 C17 1_555 1_555
H13 C17 1_555 1_555
O5 Ni5 1_555 1_555
O6 C18 1_555 1_555
O7 Ni1 1_555 1_555
O8 Ni2 1_555 1_555
N8 C24 1_555 1_555
C18 O5 1_555 1_555
C19 C20 1_555 1_555
C20 H14 1_555 1_555
C21 C18 1_555 1_555
C22 C21 1_555 1_555
H15 C22 1_555 1_555
C23 C22 1_555 1_555
H16 C23 1_555 1_555
C24 C19 1_555 1_555
C25 C19 1_555 1_555
C26 C25 1_555 1_555
H17 C26 1_555 1_555
C27 C26 1_555 1_555
C28 C27 1_555 1_555
H18 C28 1_555 1_555
C29 C28 1_555 1_555
H19 C29 1_555 1_555
C30 N8 1_555 1_555
C31 O7 1_555 1_555
C32 N8 1_555 1_555
H20 C32 1_555 1_555
C33 C32 1_555 1_555
H21 C33 1_555 1_555
H22 C33 1_555 1_555
H23 C33 1_555 1_555
C34 C32 1_555 1_555
H24 C34 1_555 1_555
H25 C34 1_555 1_555
H26 C34 1_555 1_555
O9 Ni5 1_555 1_555
O10 C35 1_555 1_555
O11 Ni3 1_555 1_555
O12 Ni4 1_555 1_555
N9 C41 1_555 1_555
C35 O9 1_555 1_555
C36 C37 1_555 1_555
C37 H27 1_555 1_555
C38 C35 1_555 1_555
C39 C38 1_555 1_555
H28 C39 1_555 1_555
C40 C39 1_555 1_555
H29 C40 1_555 1_555
C41 C36 1_555 1_555
C42 C36 1_555 1_555
C43 C42 1_555 1_555
H30 C43 1_555 1_555
C44 C43 1_555 1_555
C45 C44 1_555 1_555
H31 C45 1_555 1_555
C46 C45 1_555 1_555
H32 C46 1_555 1_555
C47 N9 1_555 1_555
C48 O11 1_555 1_555
C49 N9 1_555 1_555
H33 C49 1_555 1_555
C50 C49 1_555 1_555
H34 C50 1_555 1_555
H35 C50 1_555 1_555
H36 C50 1_555 1_555
C51 C49 1_555 1_555
H37 C51 1_555 1_555
H38 C51 1_555 1_555
H39 C51 1_555 1_555
O13 Ni3 1_555 1_555
O14 Ni4 1_555 1_555
O15 C65 1_555 1_555
O16 C65 1_555 1_555
N10 C58 1_555 1_555
C52 O13 1_555 1_555
C53 C54 1_555 1_555
C54 H40 1_555 1_555
C55 C52 1_555 1_555
C56 C55 1_555 1_555
H41 C56 1_555 1_555
C57 C56 1_555 1_555
H42 C57 1_555 1_555
C58 C53 1_555 1_555
C59 C53 1_555 1_555
C60 C59 1_555 1_555
H43 C60 1_555 1_555
C61 C60 1_555 1_555
C62 C61 1_555 1_555
H44 C62 1_555 1_555
C63 C62 1_555 1_555
H45 C63 1_555 1_555
C64 N10 1_555 1_555
C65 C61 1_555 1_555
C66 N10 1_555 1_555
H46 C66 1_555 1_555
C67 C66 1_555 1_555
H47 C67 1_555 1_555
H48 C67 1_555 1_555
H49 C67 1_555 1_555
C68 C66 1_555 1_555
H50 C68 1_555 1_555
H51 C68 1_555 1_555
H52 C68 1_555 1_555
O17 Ni1 1_555 1_555
O18 Ni2 1_555 1_555
O19 C82 1_555 1_555
O20 Ni6 1_555 1_555
N11 C75 1_555 1_555
C69 O17 1_555 1_555
C70 C71 1_555 1_555
C71 H53 1_555 1_555
C72 C69 1_555 1_555
C73 C72 1_555 1_555
H54 C73 1_555 1_555
C74 C73 1_555 1_555
H55 C74 1_555 1_555
C75 C70 1_555 1_555
C76 C70 1_555 1_555
C77 C76 1_555 1_555
H56 C77 1_555 1_555
C78 C77 1_555 1_555
C79 C78 1_555 1_555
H57 C79 1_555 1_555
C80 C79 1_555 1_555
H58 C80 1_555 1_555
C81 N11 1_555 1_555
C82 O20 1_555 1_555
C83 N11 1_555 1_555
H59 C83 1_555 1_555
C84 C83 1_555 1_555
H60 C84 1_555 1_555
H61 C84 1_555 1_555
H62 C84 1_555 1_555
C85 C83 1_555 1_555
H63 C85 1_555 1_555
H64 C85 1_555 1_555
H65 C85 1_555 1_555
O21 Ni1 1_555 1_555
O22 Ni2 1_555 1_555
O23 Ni3 1_555 1_555
O24 Ni4 1_555 1_555
N12 C92 1_555 1_555
C86 O21 1_555 1_555
C87 C88 1_555 1_555
C88 H66 1_555 1_555
C89 C86 1_555 1_555
C90 C89 1_555 1_555
H67 C90 1_555 1_555
C91 C90 1_555 1_555
H68 C91 1_555 1_555
C92 C87 1_555 1_555
C93 C87 1_555 1_555
C94 C93 1_555 1_555
H69 C94 1_555 1_555
C95 C94 1_555 1_555
C96 C95 1_555 1_555
H70 C96 1_555 1_555
C97 C96 1_555 1_555
H71 C97 1_555 1_555
C98 N12 1_555 1_555
C99 O23 1_555 1_555
C100 N12 1_555 1_555
H72 C100 1_555 1_555
C101 C100 1_555 1_555
H73 C101 1_555 1_555
H74 C101 1_555 1_555
H75 C101 1_555 1_555
C102 C100 1_555 1_555
H76 C102 1_555 1_555
H77 C102 1_555 1_555
H78 C102 1_555 1_555
Ni1A O15 1_555 1_555
Ni2A O16 1_555 1_555
Ni3A O3 1_555 1_555
Ni4A O4 1_555 1_555
Ni5A Ni6 1_555 1_555
Ni6A Ni5 1_555 1_555
N1A Ni1A 1_555 1_555
N2A Ni2A 1_555 1_555
N3A Ni3A 1_555 1_555
N4A Ni4A 1_555 1_555
N5A Ni5A 1_555 1_555
N6A Ni6A 1_555 1_555
O1A Ni5A 1_555 1_555
O2A Ni6 1_555 1_555
O3A Ni3 1_555 1_555
O4A Ni4 1_555 1_555
N7A C7A 1_555 1_555
C1A O1A 1_555 1_555
C2A C3A 1_555 1_555
C3A H1A 1_555 1_555
C4A C1A 1_555 1_555
C5A C4A 1_555 1_555
H2A C5A 1_555 1_555
C6A C5A 1_555 1_555
H3A C6A 1_555 1_555
C7A C2A 1_555 1_555
C8A C2A 1_555 1_555
C9A C8A 1_555 1_555
H4A C9A 1_555 1_555
C10A C9A 1_555 1_555
C11A C10A 1_555 1_555
H5A C11A 1_555 1_555
C12A C11A 1_555 1_555
H6A C12A 1_555 1_555
C13A N7A 1_555 1_555
C14A O3A 1_555 1_555
C15A N7A 1_555 1_555
H7A C15A 1_555 1_555
C16A C15A 1_555 1_555
H8A C16A 1_555 1_555
H9A C16A 1_555 1_555
H10A C16A 1_555 1_555
C17A C15A 1_555 1_555
H11A C17A 1_555 1_555
H12A C17A 1_555 1_555
H13A C17A 1_555 1_555
O5A Ni5A 1_555 1_555
O6A Ni6 1_555 1_555
O7A Ni1A 1_555 1_555
O8A Ni2A 1_555 1_555
N8A C24A 1_555 1_555
C18A O5A 1_555 1_555
C19A C20A 1_555 1_555
C20A H14A 1_555 1_555
C21A C18A 1_555 1_555
C22A C21A 1_555 1_555
H15A C22A 1_555 1_555
C23A C22A 1_555 1_555
H16A C23A 1_555 1_555
C24A C19A 1_555 1_555
C25A C19A 1_555 1_555
C26A C25A 1_555 1_555
H17A C26A 1_555 1_555
C27A C26A 1_555 1_555
C28A C27A 1_555 1_555
H18A C28A 1_555 1_555
C29A C28A 1_555 1_555
H19A C29A 1_555 1_555
C30A N8A 1_555 1_555
C31A O7A 1_555 1_555
C32A N8A 1_555 1_555
H20A C32A 1_555 1_555
C33A C32A 1_555 1_555
H21A C33A 1_555 1_555
H22A C33A 1_555 1_555
H23A C33A 1_555 1_555
C34A C32A 1_555 1_555
H24A C34A 1_555 1_555
H25A C34A 1_555 1_555
H26A C34A 1_555 1_555
O9A Ni5A 1_555 1_555
O10A Ni6 1_555 1_555
O11A Ni3A 1_555 1_555
O12A Ni4A 1_555 1_555
N9A C41A 1_555 1_555
C35A O9A 1_555 1_555
C36A C37A 1_555 1_555
C37A H27A 1_555 1_555
C38A C35A 1_555 1_555
C39A C38A 1_555 1_555
H28A C39A 1_555 1_555
C40A C39A 1_555 1_555
H29A C40A 1_555 1_555
C41A C36A 1_555 1_555
C42A C36A 1_555 1_555
C43A C42A 1_555 1_555
H30A C43A 1_555 1_555
C44A C43A 1_555 1_555
C45A C44A 1_555 1_555
H31A C45A 1_555 1_555
C46A C45A 1_555 1_555
H32A C46A 1_555 1_555
C47A N9A 1_555 1_555
C48A O11A 1_555 1_555
C49A N9A 1_555 1_555
H33A C49A 1_555 1_555
C50A C49A 1_555 1_555
H34A C50A 1_555 1_555
H35A C50A 1_555 1_555
H36A C50A 1_555 1_555
C51A C49A 1_555 1_555
H37A C51A 1_555 1_555
H38A C51A 1_555 1_555
H39A C51A 1_555 1_555
O13A Ni3A 1_555 1_555
O14A Ni4A 1_555 1_555
O15A Ni1 1_555 1_555
O16A Ni2 1_555 1_555
N10A C58A 1_555 1_555
C52A O13A 1_555 1_555
C53A C54A 1_555 1_555
C54A H40A 1_555 1_555
C55A C52A 1_555 1_555
C56A C55A 1_555 1_555
H41A C56A 1_555 1_555
C57A C56A 1_555 1_555
H42A C57A 1_555 1_555
C58A C53A 1_555 1_555
C59A C53A 1_555 1_555
C60A C59A 1_555 1_555
H43A C60A 1_555 1_555
C61A C60A 1_555 1_555
C62A C61A 1_555 1_555
H44A C62A 1_555 1_555
C63A C62A 1_555 1_555
H45A C63A 1_555 1_555
C64A N10A 1_555 1_555
C65A O15A 1_555 1_555
C66A N10A 1_555 1_555
H46A C66A 1_555 1_555
C67A C66A 1_555 1_555
H47A C67A 1_555 1_555
H48A C67A 1_555 1_555
H49A C67A 1_555 1_555
C68A C66A 1_555 1_555
H50A C68A 1_555 1_555
H51A C68A 1_555 1_555
H52A C68A 1_555 1_555
O17A Ni1A 1_555 1_555
O18A Ni2A 1_555 1_555
O19A Ni5 1_555 1_555
O20A Ni6A 1_555 1_555
N11A C75A 1_555 1_555
C69A O17A 1_555 1_555
C70A C71A 1_555 1_555
C71A H53A 1_555 1_555
C72A C69A 1_555 1_555
C73A C72A 1_555 1_555
H54A C73A 1_555 1_555
C74A C73A 1_555 1_555
H55A C74A 1_555 1_555
C75A C70A 1_555 1_555
C76A C70A 1_555 1_555
C77A C76A 1_555 1_555
H56A C77A 1_555 1_555
C78A C77A 1_555 1_555
C79A C78A 1_555 1_555
H57A C79A 1_555 1_555
C80A C79A 1_555 1_555
H58A C80A 1_555 1_555
C81A N11A 1_555 1_555
C82A O19A 1_555 1_555
C83A N11A 1_555 1_555
H59A C83A 1_555 1_555
C84A C83A 1_555 1_555
H60A C84A 1_555 1_555
H61A C84A 1_555 1_555
H62A C84A 1_555 1_555
C85A C83A 1_555 1_555
H63A C85A 1_555 1_555
H64A C85A 1_555 1_555
H65A C85A 1_555 1_555
O21A Ni1A 1_555 1_555
O22A Ni2A 1_555 1_555
O23A Ni3A 1_555 1_555
O24A Ni4A 1_555 1_555
N12A C92A 1_555 1_555
C86A O21A 1_555 1_555
C87A C88A 1_555 1_555
C88A H66A 1_555 1_555
C89A C86A 1_555 1_555
C90A C89A 1_555 1_555
H67A C90A 1_555 1_555
C91A C90A 1_555 1_555
H68A C91A 1_555 1_555
C92A C87A 1_555 1_555
C93A C87A 1_555 1_555
C94A C93A 1_555 1_555
H69A C94A 1_555 1_555
C95A C94A 1_555 1_555
C96A C95A 1_555 1_555
H70A C96A 1_555 1_555
C97A C96A 1_555 1_555
H71A C97A 1_555 1_555
C98A N12A 1_555 1_555
C99A O23A 1_555 1_555
C100A N12A 1_555 1_555
H72A C100A 1_555 1_555
C101A C100A 1_555 1_555
H73A C101A 1_555 1_555
H74A C101A 1_555 1_555
H75A C101A 1_555 1_555
C102A C100A 1_555 1_555
H76A C102A 1_555 1_555
H77A C102A 1_555 1_555
H78A C102A 1_555 1_555
O2 Ni6A 1_555 1_555
C3 C4 1_555 1_555
C6 C7 1_555 1_555
C8 C13 1_555 1_555
C12 C13 1_555 1_555
O6 Ni6A 1_555 1_555
O8 C31 1_555 1_555
C20 C21 1_555 1_555
C23 C24 1_555 1_555
C25 C30 1_555 1_555
C27 C31 1_555 1_555
C29 C30 1_555 1_555
O10 Ni6A 1_555 1_555
O12 C48 1_555 1_555
C37 C38 1_555 1_555
C40 C41 1_555 1_555
C42 C47 1_555 1_555
C44 C48 1_555 1_555
C46 C47 1_555 1_555
O14 C52 1_555 1_555
C54 C55 1_555 1_555
C57 C58 1_555 1_555
C59 C64 1_555 1_555
C63 C64 1_555 1_555
O18 C69 1_555 1_555
O19 Ni5A 1_555 1_555
C71 C72 1_555 1_555
C74 C75 1_555 1_555
C76 C81 1_555 1_555
C78 C82 1_555 1_555
C80 C81 1_555 1_555
O22 C86 1_555 1_555
O24 C99 1_555 1_555
C88 C89 1_555 1_555
C91 C92 1_555 1_555
C93 C98 1_555 1_555
C95 C99 1_555 1_555
C97 C98 1_555 1_555
Ni1A Ni2A 1_555 1_555
Ni3A Ni4A 1_555 1_555
O2A C1A 1_555 1_555
O4A C14A 1_555 1_555
C3A C4A 1_555 1_555
C6A C7A 1_555 1_555
C8A C13A 1_555 1_555
C10A C14A 1_555 1_555
C12A C13A 1_555 1_555
O6A C18A 1_555 1_555
O8A C31A 1_555 1_555
C20A C21A 1_555 1_555
C23A C24A 1_555 1_555
C25A C30A 1_555 1_555
C27A C31A 1_555 1_555
C29A C30A 1_555 1_555
O10A C35A 1_555 1_555
O12A C48A 1_555 1_555
C37A C38A 1_555 1_555
C40A C41A 1_555 1_555
C42A C47A 1_555 1_555
C44A C48A 1_555 1_555
C46A C47A 1_555 1_555
O14A C52A 1_555 1_555
O16A C65A 1_555 1_555
C54A C55A 1_555 1_555
C57A C58A 1_555 1_555
C59A C64A 1_555 1_555
C61A C65A 1_555 1_555
C63A C64A 1_555 1_555
O18A C69A 1_555 1_555
O20A C82A 1_555 1_555
C71A C72A 1_555 1_555
C74A C75A 1_555 1_555
C76A C81A 1_555 1_555
C78A C82A 1_555 1_555
C80A C81A 1_555 1_555
O22A C86A 1_555 1_555
O24A C99A 1_555 1_555
C88A C89A 1_555 1_555
C91A C92A 1_555 1_555
C93A C98A 1_555 1_555
C95A C99A 1_555 1_555
C97A C98A 1_555 1_555

#END
