
#######################################################################
#
#                 Cambridge Crystallographic Data Centre
#                                CCDC 
#
#######################################################################
#
# If this CIF has been generated from an entry in the Cambridge 
# Structural Database, then it will include bibliographic, chemical, 
# crystal, experimental, refinement or atomic coordinate data resulting 
# from the CCDC's data processing and validation procedures.
#
#######################################################################

data_QIFHIW
_chemical_formula_moiety         'C96 H152 N4 P8 Pt4 4+,4(F6 P1 1-),3(C2 H3 N1)'
_chemical_name_systematic        
"bis((\m~2~-Anthracene-1,8-diyl)-(\m~2~-4,4'-bipyridyl)-bis(trans-bis(triethylphosphine))-platinum) tetrakis(hexafluorophosphate) acetonitrile solvate"
_symmetry_cell_setting           monoclinic
_symmetry_space_group_name_H-M   'P 21/c'
_symmetry_Int_Tables_number      14
_space_group_name_Hall           '-P 2ybc'
loop_
_symmetry_equiv_pos_site_id
_symmetry_equiv_pos_as_xyz
1 x,y,z
2 -x,1/2+y,1/2-z
3 -x,-y,-z
4 x,1/2-y,1/2+z
_cell_length_a                   20.0273(4)
_cell_length_b                   15.2535(2)
_cell_length_c                   21.7461(5)
_cell_angle_alpha                90
_cell_angle_beta                 112.7372(7)
_cell_angle_gamma                90
_cell_volume                     6126.88
_cell_formula_units_Z            2
_exptl_crystal_recrystallization_method 'acetonitrile/diethyl ether'
loop_
_atom_site_label
_atom_site_type_symbol
_atom_site_fract_x
_atom_site_fract_y
_atom_site_fract_z
Pt1 Pt -0.1865(1) -0.0415(1) 0.6950(1)
Pt2 Pt -0.3411(1) -0.0351(1) 0.8593(1)
P1 P -0.1754(1) -0.1930(2) 0.7034(1)
P2 P -0.1981(1) 0.1061(2) 0.6675(2)
P3 P -0.3509(1) 0.1164(2) 0.8549(1)
P4 P -0.3505(1) -0.1846(1) 0.8723(1)
N1 N -0.0825(3) -0.0209(4) 0.7719(3)
N2 N -0.2478(3) -0.0261(4) 0.9503(3)
C1 C -0.2865(3) -0.0587(4) 0.6228(3)
C2 C -0.2901(4) -0.0669(5) 0.5582(4)
C3 C -0.3565(4) -0.0775(5) 0.5036(3)
C4 C -0.4192(4) -0.0849(5) 0.5128(3)
C5 C -0.4193(3) -0.0780(4) 0.5780(3)
C6 C -0.3521(3) -0.0629(4) 0.6347(3)
C7 C -0.4836(3) -0.0832(5) 0.5873(3)
C8 C -0.3568(3) -0.0544(4) 0.6980(3)
C9 C -0.4277(4) -0.0475(4) 0.7714(3)
C10 C -0.4953(4) -0.0506(5) 0.7733(4)
C11 C -0.5590(4) -0.0640(6) 0.7165(4)
C12 C -0.5549(4) -0.0759(5) 0.6568(4)
C13 C -0.4874(3) -0.0727(5) 0.6501(3)
C14 C -0.4218(3) -0.0583(4) 0.7072(3)
C15 C -0.0197(4) -0.0318(6) 0.7652(4)
C16 C 0.0470(4) -0.0203(6) 0.8170(4)
C17 C 0.0506(3) 0.0043(5) 0.8782(3)
C18 C -0.0155(4) 0.0215(7) 0.8831(4)
C19 C -0.0783(4) 0.0087(8) 0.8296(4)
C20 C 0.1190(3) 0.0141(5) 0.9373(3)
C21 C 0.1862(4) 0.0077(6) 0.9332(3)
C22 C -0.2489(4) -0.0144(6) 1.0100(4)
C23 C -0.1827(4) -0.0332(6) 0.9464(4)
C24 C 0.1190(4) 0.0283(6) 1.0002(4)
C25 C -0.1013(8) -0.2329(8) 0.7747(7)
C26 C -0.0911(11) -0.3343(10) 0.7751(10)
C27 C -0.2546(7) -0.2511(8) 0.7091(7)
C28 C -0.3116(9) -0.2810(8) 0.6492(8)
C29 C -0.1691(10) -0.2409(10) 0.6307(7)
C30 C -0.1002(9) -0.2015(13) 0.6175(10)
C31 C -0.1357(6) 0.1792(7) 0.7280(7)
C32 C -0.1278(8) 0.2709(9) 0.7056(9)
C33 C -0.2862(6) 0.1576(7) 0.6509(7)
C34 C -0.3412(7) 0.1611(9) 0.5845(8)
C35 C -0.1817(8) 0.1221(9) 0.5930(7)
C36 C -0.1114(10) 0.0813(13) 0.5972(8)
C37 C -0.3449(11) 0.1631(15) 0.7746(11)
C39 C -0.4176(7) 0.1801(11) 0.7216(8)
C40 C -0.2758(15) 0.1750(17) 0.8880(50)
C42 C -0.2780(12) 0.2757(10) 0.8991(17)
C43 C -0.4339(10) 0.1517(14) 0.8596(9)
C45 C -0.4407(15) 0.1218(14) 0.9263(11)
C46 C -0.3796(5) -0.2519(5) 0.7969(4)
C47 C -0.3820(6) -0.3504(6) 0.8068(5)
C48 C -0.2700(5) -0.2393(6) 0.9305(5)
C49 C -0.2111(6) -0.2515(8) 0.9038(6)
C50 C -0.4195(5) -0.2060(6) 0.9047(4)
C51 C -0.4091(7) -0.1593(10) 0.9693(6)
C22B C 0.2489(4) 0.0144(6) 0.9900(4)
N2B N 0.2478(3) 0.0261(4) 1.0497(3)
Pt2B Pt 0.3411(1) 0.0351(1) 1.1407(1)
P3B P 0.3509(1) -0.1164(2) 1.1451(1)
C37B C 0.3449(11) -0.1631(15) 1.2254(11)
C39B C 0.4176(7) -0.1801(11) 1.2784(8)
C40B C 0.2758(15) -0.1750(17) 1.1120(50)
C42B C 0.2780(12) -0.2757(10) 1.1009(17)
C43B C 0.4339(10) -0.1517(14) 1.1404(9)
C45B C 0.4407(15) -0.1218(14) 1.0737(11)
P4B P 0.3505(1) 0.1846(1) 1.1277(1)
C46B C 0.3796(5) 0.2519(5) 1.2031(4)
C47B C 0.3820(6) 0.3504(6) 1.1932(5)
C48B C 0.2700(5) 0.2393(6) 1.0695(5)
C49B C 0.2111(6) 0.2515(8) 1.0962(6)
C50B C 0.4195(5) 0.2060(6) 1.0953(4)
C51B C 0.4091(7) 0.1593(10) 1.0307(6)
C9B C 0.4277(4) 0.0475(4) 1.2286(3)
C10B C 0.4953(4) 0.0506(5) 1.2267(4)
C11B C 0.5590(4) 0.0640(6) 1.2835(4)
C12B C 0.5549(4) 0.0759(5) 1.3432(4)
C13B C 0.4874(3) 0.0727(5) 1.3499(3)
C7B C 0.4836(3) 0.0832(5) 1.4127(3)
C5B C 0.4193(3) 0.0780(4) 1.4220(3)
C4B C 0.4192(4) 0.0849(5) 1.4872(3)
C3B C 0.3565(4) 0.0775(5) 1.4964(3)
C2B C 0.2901(4) 0.0669(5) 1.4418(4)
C1B C 0.2865(3) 0.0587(4) 1.3772(3)
Pt1B Pt 0.1865(1) 0.0415(1) 1.3050(1)
P1B P 0.1754(1) 0.1930(2) 1.2966(1)
C25B C 0.1013(8) 0.2329(8) 1.2253(7)
C26B C 0.0911(11) 0.3343(10) 1.2249(10)
C27B C 0.2546(7) 0.2511(8) 1.2909(7)
C28B C 0.3116(9) 0.2810(8) 1.3508(8)
C29B C 0.1691(10) 0.2409(10) 1.3693(7)
C30B C 0.1002(9) 0.2015(13) 1.3825(10)
P2B P 0.1981(1) -0.1061(2) 1.3325(2)
C31B C 0.1357(6) -0.1792(7) 1.2720(7)
C32B C 0.1278(8) -0.2709(9) 1.2944(9)
C33B C 0.2862(6) -0.1576(7) 1.3491(7)
C34B C 0.3412(7) -0.1611(9) 1.4155(8)
C35B C 0.1817(8) -0.1221(9) 1.4070(7)
C36B C 0.1114(10) -0.0813(13) 1.4028(8)
N1B N 0.0825(3) 0.0209(4) 1.2281(3)
C15B C 0.0197(4) 0.0318(6) 1.2348(4)
C16B C -0.0470(4) 0.0203(6) 1.1830(4)
C17B C -0.0506(3) -0.0043(5) 1.1218(3)
C18B C 0.0155(4) -0.0215(7) 1.1169(4)
C19B C 0.0783(4) -0.0087(8) 1.1704(4)
C20B C -0.1190(3) -0.0141(5) 1.0627(3)
C21B C -0.1862(4) -0.0077(6) 1.0668(3)
C24B C -0.1190(4) -0.0283(6) 0.9998(4)
C6B C 0.3521(3) 0.0629(4) 1.3653(3)
C8B C 0.3568(3) 0.0544(4) 1.3020(3)
C14B C 0.4218(3) 0.0583(4) 1.2928(3)
C23B C 0.1827(4) 0.0332(6) 1.0536(4)
P5 P 0.3293(2) -0.0599(2) 0.8505(2)
F1 F 0.3477(6) 0.0101(5) 0.9066(5)
F2 F 0.3017(5) -0.1221(5) 0.8938(5)
F3 F 0.4053(7) -0.1061(7) 0.8797(6)
F4 F 0.3564(6) 0.0025(5) 0.8087(5)
F5 F 0.2500(6) -0.0199(8) 0.8187(5)
F6 F 0.3081(6) -0.1312(5) 0.7932(5)
P6 P 0.0386(3) 0.7273(2) 0.4972(3)
F7 F 0.0942(6) 0.7967(7) 0.5268(5)
F8 F -0.0087(7) 0.7963(10) 0.4517(10)
F9 F 0.0832(14) 0.7079(10) 0.4506(14)
F10 F 0.0894(8) 0.6576(9) 0.5477(11)
F11 F 0.0012(10) 0.7332(10) 0.5388(9)
F12 F -0.0063(13) 0.6480(9) 0.4666(10)
N3 N 0.2235(10) 0.4815(12) 0.0630(10)
C52 C 0.2068(14) 0.5051(18) 0.0995(14)
C53 C 0.1900(20) 0.5590(20) 0.1550(20)
C38? C 0.4226(17) -0.1687(18) 1.2119(15)
C41? C 0.2610(30) -0.1766(19) 1.1100(40)
C44? C 0.3730(20) -0.1594(17) 1.0707(12)
N4? N 0.0600(20) 0.5530(20) 0.1600(20)
C54? C 0.0450(60) 0.5170(70) 0.1090(30)
C55? C 0.0270(30) 0.4940(40) 0.0351(19)
loop_
_geom_bond_atom_site_label_1
_geom_bond_atom_site_label_2
_geom_bond_site_symmetry_1
_geom_bond_site_symmetry_2
Pt1 P1 1_555 1_555
Pt2 P3 1_555 1_555
P1 C25 1_555 1_555
P2 Pt1 1_555 1_555
P3 C37 1_555 1_555
P4 Pt2 1_555 1_555
P5 F1 1_555 1_555
P6 F7 1_555 1_555
F2 P5 1_555 1_555
F3 P5 1_555 1_555
F4 P5 1_555 1_555
F5 P5 1_555 1_555
F6 P5 1_555 1_555
F8 P6 1_555 1_555
F9 P6 1_555 1_555
F10 P6 1_555 1_555
F11 P6 1_555 1_555
F12 P6 1_555 1_555
N1 Pt1 1_555 1_555
N2 Pt2 1_555 1_555
C1 Pt1 1_555 1_555
C2 C1 1_555 1_555
C3 C2 1_555 1_555
C4 C3 1_555 1_555
C5 C4 1_555 1_555
C6 C1 1_555 1_555
C7 C5 1_555 1_555
C8 C6 1_555 1_555
C9 Pt2 1_555 1_555
C10 C9 1_555 1_555
C11 C10 1_555 1_555
C12 C11 1_555 1_555
C13 C7 1_555 1_555
C14 C8 1_555 1_555
C15 N1 1_555 1_555
C16 C15 1_555 1_555
C17 C16 1_555 1_555
C18 C17 1_555 1_555
C19 N1 1_555 1_555
C20 C17 1_555 1_555
C21 C20 1_555 1_555
C22 N2 1_555 1_555
C23 N2 1_555 1_555
C24 C20 1_555 1_555
C25 C26 1_555 1_555
C27 P1 1_555 1_555
C28 C27 1_555 1_555
C29 P1 1_555 1_555
C30 C29 1_555 1_555
C31 P2 1_555 1_555
C32 C31 1_555 1_555
C33 P2 1_555 1_555
C34 C33 1_555 1_555
C35 P2 1_555 1_555
C36 C35 1_555 1_555
C37 C39 1_555 1_555
C40 P3 1_555 1_555
C42 C40 1_555 1_555
C43 P3 1_555 1_555
C45 C43 1_555 1_555
C46 P4 1_555 1_555
C47 C46 1_555 1_555
C48 P4 1_555 1_555
C49 C48 1_555 1_555
C50 P4 1_555 1_555
C51 C50 1_555 1_555
N3 C52 1_555 1_555
C52 C53 1_555 1_555
C22B C21 1_555 1_555
N2B C22B 1_555 1_555
Pt2B N2B 1_555 1_555
P3B Pt2B 1_555 1_555
C37B P3B 1_555 1_555
C39B C37B 1_555 1_555
C40B P3B 1_555 1_555
C42B C40B 1_555 1_555
C43B P3B 1_555 1_555
C45B C43B 1_555 1_555
P4B Pt2B 1_555 1_555
C46B P4B 1_555 1_555
C47B C46B 1_555 1_555
C48B P4B 1_555 1_555
C49B C48B 1_555 1_555
C50B P4B 1_555 1_555
C51B C50B 1_555 1_555
C9B Pt2B 1_555 1_555
C10B C9B 1_555 1_555
C11B C10B 1_555 1_555
C12B C11B 1_555 1_555
C13B C12B 1_555 1_555
C7B C13B 1_555 1_555
C5B C7B 1_555 1_555
C4B C5B 1_555 1_555
C3B C4B 1_555 1_555
C2B C3B 1_555 1_555
C1B C2B 1_555 1_555
Pt1B C1B 1_555 1_555
P1B Pt1B 1_555 1_555
C25B P1B 1_555 1_555
C26B C25B 1_555 1_555
C27B P1B 1_555 1_555
C28B C27B 1_555 1_555
C29B P1B 1_555 1_555
C30B C29B 1_555 1_555
P2B Pt1B 1_555 1_555
C31B P2B 1_555 1_555
C32B C31B 1_555 1_555
C33B P2B 1_555 1_555
C34B C33B 1_555 1_555
C35B P2B 1_555 1_555
C36B C35B 1_555 1_555
N1B Pt1B 1_555 1_555
C15B N1B 1_555 1_555
C16B C15B 1_555 1_555
C17B C16B 1_555 1_555
C18B C17B 1_555 1_555
C19B N1B 1_555 1_555
C20B C17B 1_555 1_555
C21B C22 1_555 1_555
C24B C23 1_555 1_555
C6B C5B 1_555 1_555
C8B C6B 1_555 1_555
C14B C9B 1_555 1_555
C23B C24 1_555 1_555
C5 C6 1_555 1_555
C9 C14 1_555 1_555
C12 C13 1_555 1_555
C13 C14 1_555 1_555
C18 C19 1_555 1_555
N2B C23B 1_555 1_555
C13B C14B 1_555 1_555
C1B C6B 1_555 1_555
C18B C19B 1_555 1_555
C20B C21B 1_555 1_555
C20B C24B 1_555 1_555
C8B C14B 1_555 1_555

#END
