
#######################################################################
#
#                 Cambridge Crystallographic Data Centre
#                                CCDC 
#
#######################################################################
#
# If this CIF has been generated from an entry in the Cambridge 
# Structural Database, then it will include bibliographic, chemical, 
# crystal, experimental, refinement or atomic coordinate data resulting 
# from the CCDC's data processing and validation procedures.
#
#######################################################################

data_QIYGUB
_chemical_formula_moiety         
'C32 H48 Ag2 N4 Si4 2+,2(C1 F3 O3 S1 1-),C1 H4 O1'
_chemical_name_systematic        
"bis((\m~2~-1,2-bis(dimethyl-3-pyridylsilyl)ethane-N,N')-silver(i)) bis(trifluoromethanesulfonate) methanol solvate"
_symmetry_cell_setting           triclinic
_symmetry_space_group_name_H-M   'P -1'
_symmetry_Int_Tables_number      2
_space_group_name_Hall           '-P 1'
loop_
_symmetry_equiv_pos_site_id
_symmetry_equiv_pos_as_xyz
1 x,y,z
2 -x,-y,-z
_cell_length_a                   9.6323(8)
_cell_length_b                   15.2056(13)
_cell_length_c                   18.3968(16)
_cell_angle_alpha                66.587(2)
_cell_angle_beta                 79.761(2)
_cell_angle_gamma                85.355(2)
_cell_volume                     2433.1
_exptl_crystal_colour            colorless
_exptl_crystal_description       plate
_chemical_melting_point          249deg.C(dec.)
_cell_formula_units_Z            2
loop_
_atom_site_label
_atom_site_type_symbol
_atom_site_fract_x
_atom_site_fract_y
_atom_site_fract_z
Ag1 Ag 0.98662(6) 0.94242(4) 0.12884(4)
Ag2 Ag 0.52969(6) 0.55897(5) 0.38804(4)
Si1 Si 1.3464(2) 0.61506(16) 0.11657(14)
Si2 Si 0.9950(2) 0.39040(16) 0.22440(14)
Si3 Si 0.5190(2) 1.12437(15) 0.28566(14)
Si4 Si 0.1757(2) 0.89296(15) 0.38870(13)
N1 N 1.1880(6) 0.8699(5) 0.1335(4)
N2 N 0.7366(6) 0.4968(5) 0.3785(4)
N3 N 0.7879(6) 1.0169(4) 0.1355(4)
N4 N 0.3356(6) 0.6373(4) 0.3728(4)
C1 C 1.2060(8) 0.7859(5) 0.1238(4)
H1 H 1.1283 0.7618 0.1121
C2 C 1.3301(8) 0.7325(5) 0.1296(4)
C3 C 1.4414(8) 0.7708(6) 0.1477(5)
H2 H 1.5286 0.7367 0.1542
C4 C 1.4249(8) 0.8574(6) 0.1562(5)
H3 H 1.5008 0.8839 0.1672
C5 C 1.2981(8) 0.9045(6) 0.1486(5)
H4 H 1.2876 0.9642 0.1542
C6 C 1.1724(8) 0.5559(5) 0.1594(5)
H5 H 1.1347 0.5674 0.2086
H6 H 1.1069 0.5872 0.1204
C7 C 1.1724(8) 0.4477(5) 0.1804(5)
H7 H 1.2382 0.4162 0.2192
H8 H 1.2087 0.4360 0.1312
C8 C 0.9217(8) 0.4258(5) 0.3111(5)
C9 C 0.9983(8) 0.4083(6) 0.3722(5)
H9 H 1.0882 0.3779 0.3708
C10 C 0.9453(9) 0.4348(6) 0.4354(5)
H10 H 0.9979 0.4225 0.4775
C11 C 0.8153(9) 0.4791(6) 0.4365(5)
H11 H 0.7796 0.4980 0.4798
C12 C 0.7906(8) 0.4697(6) 0.3179(5)
H12 H 0.7353 0.4814 0.2770
C13 C 1.3944(11) 0.6363(7) 0.0085(6)
H13 H 1.4026 0.5747 0.0026
H14 H 1.4847 0.6696 -0.0132
H15 H 1.3210 0.6757 -0.0209
C14 C 1.4895(8) 0.5426(6) 0.1714(6)
H16 H 1.4998 0.4810 0.1656
H17 H 1.4652 0.5315 0.2284
H18 H 1.5786 0.5774 0.1490
C15 C 0.8770(9) 0.4357(7) 0.1470(5)
H19 H 0.7843 0.4059 0.1699
H20 H 0.9180 0.4196 0.1011
H21 H 0.8664 0.5054 0.1293
C16 C 1.0153(10) 0.2575(6) 0.2662(5)
H22 H 0.9222 0.2282 0.2887
H23 H 1.0741 0.2377 0.3085
H24 H 1.0602 0.2368 0.2234
C17 C 0.7288(8) 1.0417(5) 0.1965(5)
H25 H 0.7782 1.0256 0.2405
C18 C 0.5997(7) 1.0894(5) 0.1996(4)
C19 C 0.5303(8) 1.1097(5) 0.1339(5)
H26 H 0.4414 1.1418 0.1327
C20 C 0.5886(8) 1.0841(6) 0.0704(5)
H27 H 0.5405 1.0978 0.0262
C21 C 0.7176(8) 1.0382(5) 0.0731(5)
H28 H 0.7588 1.0208 0.0297
C22 C 0.3438(7) 1.0629(5) 0.3268(5)
H29 H 0.3041 1.0721 0.3768
H30 H 0.2786 1.0944 0.2877
C23 C 0.3488(7) 0.9563(5) 0.3448(5)
H31 H 0.4165 0.9252 0.3826
H32 H 0.3860 0.9474 0.2944
C24 C 0.1937(7) 0.7781(5) 0.3716(4)
C25 C 0.3128(7) 0.7198(5) 0.3854(5)
H33 H 0.3842 0.7392 0.4053
C26 C 0.2319(8) 0.6099(5) 0.3454(4)
H34 H 0.2443 0.5519 0.3368
C27 C 0.1115(8) 0.6612(6) 0.3299(5)
H35 H 0.0408 0.6392 0.3113
C28 C 0.0928(8) 0.7470(5) 0.3414(4)
H36 H 0.0103 0.7848 0.3286
C29 C 0.6366(8) 1.0867(6) 0.3627(5)
H37 H 0.7270 1.1196 0.3392
H38 H 0.6526 1.0172 0.3817
H39 H 0.5923 1.1034 0.4079
C30 C 0.4954(9) 1.2581(6) 0.2424(6)
H40 H 0.5880 1.2884 0.2214
H41 H 0.4464 1.2789 0.2843
H42 H 0.4396 1.2767 0.1988
C31 C 0.1290(9) 0.8655(6) 0.4981(5)
H43 H 0.0378 0.8332 0.5187
H44 H 0.1227 0.9253 0.5069
H45 H 0.2018 0.8237 0.5263
C32 C 0.0318(7) 0.9663(6) 0.3340(5)
H46 H -0.0580 0.9328 0.3578
H47 H 0.0541 0.9756 0.2773
H48 H 0.0245 1.0288 0.3383
S1 S 1.1650(2) 1.18202(17) -0.01677(15)
O1 O 1.1897(8) 1.2672(5) -0.0918(4)
O2 O 1.2911(7) 1.1408(6) 0.0114(5)
O3 O 1.0633(6) 1.1179(4) -0.0151(3)
C33 C 1.0777(15) 1.2350(9) 0.0497(7)
F1 F 1.0558(10) 1.1628(6) 0.1245(5)
F2 F 1.1588(8) 1.2968(5) 0.0572(4)
F3 F 0.9617(9) 1.2756(7) 0.0321(6)
S2 S 0.4221(2) 0.32945(16) 0.44911(15)
O4 O 0.4159(6) 0.3761(4) 0.5041(4)
O5 O 0.3642(7) 0.3855(5) 0.3767(4)
O6 O 0.5534(6) 0.2795(5) 0.4382(4)
C34 C 0.3006(11) 0.2334(7) 0.5028(6)
F4 F 0.1714(6) 0.2675(4) 0.5205(3)
F5 F 0.2886(7) 0.1824(5) 0.4591(4)
F6 F 0.3371(7) 0.1732(4) 0.5713(4)
O7 O 0.1408(9) 0.2570(8) 0.7706(5)
H49 H 0.1379 0.2204 0.8191
C35 C 0.2603(11) 0.2408(9) 0.7280(7)
H50 H 0.2708 0.2898 0.6732
H51 H 0.2571 0.1773 0.7264
H52 H 0.3407 0.2434 0.7531
loop_
_geom_bond_atom_site_label_1
_geom_bond_atom_site_label_2
_geom_bond_site_symmetry_1
_geom_bond_site_symmetry_2
Ag1 N1 1_555 1_555
Ag2 N2 1_555 1_555
Si1 C2 1_555 1_555
Si2 C7 1_555 1_555
Si3 C18 1_555 1_555
Si4 C23 1_555 1_555
N1 C1 1_555 1_555
N2 C11 1_555 1_555
N3 Ag1 1_555 1_555
N4 Ag2 1_555 1_555
C1 H1 1_555 1_555
C2 C1 1_555 1_555
C3 C2 1_555 1_555
H2 C3 1_555 1_555
C4 C3 1_555 1_555
H3 C4 1_555 1_555
C5 N1 1_555 1_555
H4 C5 1_555 1_555
C6 Si1 1_555 1_555
H5 C6 1_555 1_555
H6 C6 1_555 1_555
C7 C6 1_555 1_555
H7 C7 1_555 1_555
H8 C7 1_555 1_555
C8 Si2 1_555 1_555
C9 C8 1_555 1_555
H9 C9 1_555 1_555
C10 C9 1_555 1_555
H10 C10 1_555 1_555
C11 C10 1_555 1_555
H11 C11 1_555 1_555
C12 N2 1_555 1_555
H12 C12 1_555 1_555
C13 Si1 1_555 1_555
H13 C13 1_555 1_555
H14 C13 1_555 1_555
H15 C13 1_555 1_555
C14 Si1 1_555 1_555
H16 C14 1_555 1_555
H17 C14 1_555 1_555
H18 C14 1_555 1_555
C15 Si2 1_555 1_555
H19 C15 1_555 1_555
H20 C15 1_555 1_555
H21 C15 1_555 1_555
C16 Si2 1_555 1_555
H22 C16 1_555 1_555
H23 C16 1_555 1_555
H24 C16 1_555 1_555
C17 N3 1_555 1_555
H25 C17 1_555 1_555
C18 C17 1_555 1_555
C19 C18 1_555 1_555
H26 C19 1_555 1_555
C20 C19 1_555 1_555
H27 C20 1_555 1_555
C21 N3 1_555 1_555
H28 C21 1_555 1_555
C22 Si3 1_555 1_555
H29 C22 1_555 1_555
H30 C22 1_555 1_555
C23 C22 1_555 1_555
H31 C23 1_555 1_555
H32 C23 1_555 1_555
C24 Si4 1_555 1_555
C25 N4 1_555 1_555
H33 C25 1_555 1_555
C26 N4 1_555 1_555
H34 C26 1_555 1_555
C27 C26 1_555 1_555
H35 C27 1_555 1_555
C28 C24 1_555 1_555
H36 C28 1_555 1_555
C29 Si3 1_555 1_555
H37 C29 1_555 1_555
H38 C29 1_555 1_555
H39 C29 1_555 1_555
C30 Si3 1_555 1_555
H40 C30 1_555 1_555
H41 C30 1_555 1_555
H42 C30 1_555 1_555
C31 Si4 1_555 1_555
H43 C31 1_555 1_555
H44 C31 1_555 1_555
H45 C31 1_555 1_555
C32 Si4 1_555 1_555
H46 C32 1_555 1_555
H47 C32 1_555 1_555
H48 C32 1_555 1_555
S1 O1 1_555 1_555
O2 S1 1_555 1_555
O3 S1 1_555 1_555
C33 S1 1_555 1_555
F1 C33 1_555 1_555
F2 C33 1_555 1_555
F3 C33 1_555 1_555
S2 O4 1_555 1_555
O5 S2 1_555 1_555
O6 S2 1_555 1_555
C34 S2 1_555 1_555
F4 C34 1_555 1_555
F5 C34 1_555 1_555
F6 C34 1_555 1_555
O7 H49 1_555 1_555
C35 O7 1_555 1_555
H50 C35 1_555 1_555
H51 C35 1_555 1_555
H52 C35 1_555 1_555
C4 C5 1_555 1_555
C8 C12 1_555 1_555
C20 C21 1_555 1_555
C24 C25 1_555 1_555
C27 C28 1_555 1_555

#END
