
#######################################################################
#
#                 Cambridge Crystallographic Data Centre
#                                CCDC 
#
#######################################################################
#
# If this CIF has been generated from an entry in the Cambridge 
# Structural Database, then it will include bibliographic, chemical, 
# crystal, experimental, refinement or atomic coordinate data resulting 
# from the CCDC's data processing and validation procedures.
#
#######################################################################

data_QODBAM
_chemical_formula_moiety         'C56 H32 N4 O4 Rh2 S2'
_chemical_name_systematic        
(\m~2~-5,10,19,24-Tetraphenyl-30,33-dithiarubyrinato-N,N',N'',N''')-tetracarbonyl-cis-di-rhodium(i)
_symmetry_cell_setting           monoclinic
_symmetry_space_group_name_H-M   'C 2/c'
_symmetry_Int_Tables_number      15
_space_group_name_Hall           '-C 2yn'
loop_
_symmetry_equiv_pos_site_id
_symmetry_equiv_pos_as_xyz
1 x,y,z
2 1/2+x,1/2+y,z
3 x,-y,1/2+z
4 1/2+x,1/2-y,1/2+z
5 -x,-y,-z
6 1/2-x,1/2-y,-z
7 -x,y,1/2-z
8 1/2-x,1/2+y,1/2-z
_cell_length_a                   13.2046(2)
_cell_length_b                   16.8107(3)
_cell_length_c                   20.3873(3)
_cell_angle_alpha                90
_cell_angle_beta                 93.3860(10)
_cell_angle_gamma                90
_cell_volume                     4517.64
_exptl_crystal_colour            brown
_exptl_crystal_description       plate
_chemical_melting_point          'decomposes above 280 deg.C'
_cell_formula_units_Z            4
_exptl_crystal_recrystallization_method methanol/benzonitrile
loop_
_atom_site_label
_atom_site_type_symbol
_atom_site_fract_x
_atom_site_fract_y
_atom_site_fract_z
Rh1 Rh 0.646506(16) 0.842653(14) 0.802684(11)
N1 N 0.65019(16) 0.92997(15) 0.87636(11)
N2 N 0.73113(16) 0.92983(14) 0.75773(11)
C1 C 0.5812(2) 0.7643(2) 0.84895(15)
O1 O 0.54552(18) 0.71216(15) 0.87437(12)
C2 C 0.6627(2) 0.7667(2) 0.73843(15)
O2 O 0.67467(19) 0.71608(14) 0.70261(11)
S1 S 0.41410(5) 0.90857(5) 0.87501(3)
C3 C 0.2959(2) 0.86600(18) 0.88685(14)
C4 C 0.3032(2) 0.81507(19) 0.94184(15)
H1 H 0.2482 0.7835 0.9548
C5 C 0.3965(2) 0.81513(18) 0.97486(14)
H2 H 0.4119 0.7835 1.0127
C6 C 0.4677(2) 0.86629(18) 0.94773(14)
C7 C 0.5620(2) 0.89052(18) 0.97682(13)
C8 C 0.5846(2) 0.88059(18) 1.04876(14)
C9 C 0.5097(2) 0.89249(18) 1.09390(14)
H3 H 0.4414 0.9014 1.0782
C10 C 0.5336(2) 0.89139(19) 1.16075(14)
H4 H 0.4815 0.8982 1.1904
C11 C 0.6327(2) 0.8805(2) 1.18498(15)
H5 H 0.6492 0.8815 1.2310
C12 C 0.7078(2) 0.86810(19) 1.14109(15)
H6 H 0.7761 0.8605 1.1572
C13 C 0.6841(2) 0.86678(18) 1.07417(15)
H7 H 0.7359 0.8564 1.0449
C14 C 0.6346(2) 0.93426(18) 0.94275(13)
C15 C 0.6988(2) 0.99524(18) 0.97148(14)
H8 H 0.7043 1.0100 1.0165
C16 C 0.75052(19) 1.02810(18) 0.92250(13)
H9 H 0.7969 1.0713 0.9266
C17 C 0.72231(19) 0.98598(17) 0.86439(13)
C18 C 0.76572(19) 0.98512(17) 0.80311(13)
C19 C 0.85367(19) 1.02442(18) 0.78295(13)
H10 H 0.8897 1.0664 0.8051
C20 C 0.8757(2) 0.98947(18) 0.72526(14)
H11 H 0.9323 1.0015 0.7003
C21 C 0.79931(19) 0.93172(17) 0.70877(13)
C22 C 0.20613(19) 0.88767(18) 0.85049(13)
C23 C 0.1064(2) 0.87162(18) 0.87912(14)
C24 C 0.0317(2) 0.8305(2) 0.84243(16)
H12 H 0.0461 0.8094 0.8007
C25 C -0.0642(2) 0.8197(2) 0.86613(18)
H13 H -0.1147 0.7913 0.8405
C26 C -0.0862(2) 0.8498(2) 0.92624(16)
H14 H -0.1519 0.8430 0.9420
C27 C -0.0127(2) 0.8897(2) 0.96325(16)
H15 H -0.0272 0.9100 1.0052
C28 C 0.0834(2) 0.9007(2) 0.93974(15)
H16 H 0.1337 0.9287 0.9658
C21F C 0.20069(19) 0.93172(17) 0.79123(13)
N2F N 0.26887(16) 0.92983(14) 0.74227(11)
Rh1F Rh 0.353494(16) 0.842653(14) 0.697316(11)
N1F N 0.34981(16) 0.92997(15) 0.62364(11)
C14F C 0.3654(2) 0.93426(18) 0.55725(13)
C7F C 0.4380(2) 0.89052(18) 0.52318(13)
C6F C 0.5323(2) 0.86629(18) 0.55227(14)
S1F S 0.58590(5) 0.90857(5) 0.62499(3)
C3F C 0.7041(2) 0.86600(18) 0.61315(14)
C4F C 0.6968(2) 0.81507(19) 0.55816(15)
H1F H 0.7518 0.7835 0.5452
C5F C 0.6035(2) 0.81513(18) 0.52514(14)
H2F H 0.5881 0.7835 0.4873
C22F C 0.79387(19) 0.88767(18) 0.64951(13)
C23F C 0.8936(2) 0.87162(18) 0.62088(14)
C24F C 0.9683(2) 0.8305(2) 0.65757(16)
H12F H 0.9539 0.8094 0.6993
C25F C 1.0642(2) 0.8197(2) 0.63387(18)
H13F H 1.1147 0.7913 0.6595
C26F C 1.0862(2) 0.8498(2) 0.57376(16)
H14F H 1.1519 0.8430 0.5580
C27F C 1.0127(2) 0.8897(2) 0.53675(16)
H15F H 1.0272 0.9100 0.4948
C28F C 0.9166(2) 0.9007(2) 0.56026(15)
H16F H 0.8663 0.9287 0.5342
C8F C 0.4154(2) 0.88059(18) 0.45124(14)
C9F C 0.4903(2) 0.89249(18) 0.40610(14)
H3F H 0.5586 0.9014 0.4218
C10F C 0.4664(2) 0.89139(19) 0.33925(14)
H4F H 0.5185 0.8982 0.3096
C11F C 0.3673(2) 0.8805(2) 0.31502(15)
H5F H 0.3508 0.8815 0.2690
C12F C 0.2922(2) 0.86810(19) 0.35891(15)
H6F H 0.2239 0.8605 0.3428
C13F C 0.3159(2) 0.86678(18) 0.42583(15)
H7F H 0.2641 0.8564 0.4551
C15F C 0.3012(2) 0.99524(18) 0.52852(14)
H8F H 0.2957 1.0100 0.4835
C16F C 0.24948(19) 1.02810(18) 0.57750(13)
H9F H 0.2031 1.0713 0.5734
C17F C 0.27769(19) 0.98598(17) 0.63561(13)
C18F C 0.23428(19) 0.98512(17) 0.69689(13)
C19F C 0.14633(19) 1.02442(18) 0.71705(13)
H10F H 0.1103 1.0664 0.6949
C20F C 0.1243(2) 0.98947(18) 0.77474(14)
H11F H 0.0677 1.0015 0.7997
C1F C 0.4188(2) 0.7643(2) 0.65105(15)
O1F O 0.45448(18) 0.71216(15) 0.62563(12)
C2F C 0.3373(2) 0.7667(2) 0.76157(15)
O2F O 0.32533(19) 0.71608(14) 0.79739(11)
loop_
_geom_bond_atom_site_label_1
_geom_bond_atom_site_label_2
_geom_bond_site_symmetry_1
_geom_bond_site_symmetry_2
Rh1 N1 1_555 1_555
N1 C14 1_555 1_555
N2 Rh1 1_555 1_555
C1 Rh1 1_555 1_555
O1 C1 1_555 1_555
C2 Rh1 1_555 1_555
O2 C2 1_555 1_555
S1 C3 1_555 1_555
C3 C4 1_555 1_555
C4 H1 1_555 1_555
C5 C4 1_555 1_555
H2 C5 1_555 1_555
C6 S1 1_555 1_555
C7 C6 1_555 1_555
C8 C7 1_555 1_555
C9 C8 1_555 1_555
H3 C9 1_555 1_555
C10 C9 1_555 1_555
H4 C10 1_555 1_555
C11 C10 1_555 1_555
H5 C11 1_555 1_555
C12 C11 1_555 1_555
H6 C12 1_555 1_555
C13 C8 1_555 1_555
H7 C13 1_555 1_555
C14 C7 1_555 1_555
C15 C14 1_555 1_555
H8 C15 1_555 1_555
C16 C15 1_555 1_555
H9 C16 1_555 1_555
C17 N1 1_555 1_555
C18 N2 1_555 1_555
C19 C18 1_555 1_555
H10 C19 1_555 1_555
C20 C19 1_555 1_555
H11 C20 1_555 1_555
C21 N2 1_555 1_555
C22 C3 1_555 1_555
C23 C22 1_555 1_555
C24 C23 1_555 1_555
H12 C24 1_555 1_555
C25 C24 1_555 1_555
H13 C25 1_555 1_555
C26 C25 1_555 1_555
H14 C26 1_555 1_555
C27 C26 1_555 1_555
H15 C27 1_555 1_555
C28 C23 1_555 1_555
H16 C28 1_555 1_555
C21F C22 1_555 1_555
N2F C21F 1_555 1_555
Rh1F N2F 1_555 1_555
N1F Rh1F 1_555 1_555
C14F N1F 1_555 1_555
C7F C14F 1_555 1_555
C6F C7F 1_555 1_555
S1F C6F 1_555 1_555
C3F S1F 1_555 1_555
C4F C3F 1_555 1_555
H1F C4F 1_555 1_555
C5F C6F 1_555 1_555
H2F C5F 1_555 1_555
C22F C21 1_555 1_555
C23F C22F 1_555 1_555
C24F C23F 1_555 1_555
H12F C24F 1_555 1_555
C25F C24F 1_555 1_555
H13F C25F 1_555 1_555
C26F C25F 1_555 1_555
H14F C26F 1_555 1_555
C27F C26F 1_555 1_555
H15F C27F 1_555 1_555
C28F C23F 1_555 1_555
H16F C28F 1_555 1_555
C8F C7F 1_555 1_555
C9F C8F 1_555 1_555
H3F C9F 1_555 1_555
C10F C9F 1_555 1_555
H4F C10F 1_555 1_555
C11F C10F 1_555 1_555
H5F C11F 1_555 1_555
C12F C11F 1_555 1_555
H6F C12F 1_555 1_555
C13F C8F 1_555 1_555
H7F C13F 1_555 1_555
C15F C14F 1_555 1_555
H8F C15F 1_555 1_555
C16F C15F 1_555 1_555
H9F C16F 1_555 1_555
C17F N1F 1_555 1_555
C18F N2F 1_555 1_555
C19F C18F 1_555 1_555
H10F C19F 1_555 1_555
C20F C21F 1_555 1_555
H11F C20F 1_555 1_555
C1F Rh1F 1_555 1_555
O1F C1F 1_555 1_555
C2F Rh1F 1_555 1_555
O2F C2F 1_555 1_555
C5 C6 1_555 1_555
C12 C13 1_555 1_555
C16 C17 1_555 1_555
C17 C18 1_555 1_555
C20 C21 1_555 1_555
C27 C28 1_555 1_555
C3F C22F 1_555 1_555
C4F C5F 1_555 1_555
C27F C28F 1_555 1_555
C12F C13F 1_555 1_555
C16F C17F 1_555 1_555
C17F C18F 1_555 1_555
C19F C20F 1_555 1_555

#END
