
#######################################################################
#
#                 Cambridge Crystallographic Data Centre
#                                CCDC 
#
#######################################################################
#
# If this CIF has been generated from an entry in the Cambridge 
# Structural Database, then it will include bibliographic, chemical, 
# crystal, experimental, refinement or atomic coordinate data resulting 
# from the CCDC's data processing and validation procedures.
#
#######################################################################

data_QOPFOS
_chemical_formula_moiety         
'C360 H312 Co8 N72 O24 16+,C11 H16 O2,16(B1 F4 1-)'
_chemical_name_systematic        
"dodecakis(\m~2~-2,2'-(Naphthalene-1,5-diylbis(methanediyl-1H-pyrazole-1,3-diyl))bis(4-hydroxymethylpyridine))-octa-cobalt adamantane-1-carboxylic acid clathrate hexadecakis(tetrafluoroborate) unknown solvate"
_symmetry_cell_setting           monoclinic
_symmetry_space_group_name_H-M   'C 2/c'
_symmetry_Int_Tables_number      15
_space_group_name_Hall           '-C 2yn'
loop_
_symmetry_equiv_pos_site_id
_symmetry_equiv_pos_as_xyz
1 x,y,z
2 -x,y,1/2-z
3 1/2+x,1/2+y,z
4 1/2-x,1/2+y,1/2-z
5 -x,-y,-z
6 x,-y,1/2+z
7 1/2-x,1/2-y,-z
8 1/2+x,1/2-y,1/2+z
_cell_length_a                   27.3936(7)
_cell_length_b                   39.1227(10)
_cell_length_c                   41.964(3)
_cell_angle_alpha                90
_cell_angle_beta                 107.152(8)
_cell_angle_gamma                90
_cell_volume                     42973.2
_exptl_crystal_colour            yellow
_exptl_crystal_description       block
_cell_formula_units_Z            4
loop_
_atom_site_label
_atom_site_type_symbol
_atom_site_fract_x
_atom_site_fract_y
_atom_site_fract_z
Co1 Co 0.59166(3) 0.25851(2) 0.04190(2)
Co2 Co 0.40362(4) 0.03717(2) 0.12494(3)
Co3 Co 0.31994(4) 0.25750(3) -0.21594(3)
Co4 Co 0.12084(5) 0.03664(3) -0.13055(3)
N1 N 0.27265(15) 0.29860(9) -0.23927(10)
C1 C 0.22676(17) 0.29545(9) -0.26451(11)
H1 H 0.2151 0.2740 -0.2728
C2 C 0.19834(14) 0.32441(11) -0.27732(10)
H2 H 0.1676 0.3223 -0.2942
C3 C 0.21581(16) 0.35652(9) -0.26488(11)
C4 C 0.26170(17) 0.35967(9) -0.23964(11)
H3 H 0.2734 0.3812 -0.2313
C5 C 0.29012(14) 0.33071(11) -0.22684(10)
C6 C 0.1849(3) 0.38814(18) -0.27738(17)
H4 H 0.1722 0.3973 -0.2599
H5 H 0.2067 0.4053 -0.2829
O1 O 0.1446(2) 0.38135(14) -0.30503(14)
N2 N 0.40848(16) 0.30821(12) -0.16928(12)
N3 N 0.36003(18) 0.30016(10) -0.19185(12)
C7 C 0.33529(16) 0.33132(13) -0.20456(13)
C8 C 0.3684(2) 0.35862(10) -0.18985(15)
H6 H 0.3617 0.3818 -0.1938
C9 C 0.41368(18) 0.34434(12) -0.16804(13)
H7 H 0.4418 0.3565 -0.1552
C10 C 0.4419(3) 0.2856(2) -0.14939(19)
H8 H 0.4757 0.2956 -0.1437
H9 H 0.4425 0.2652 -0.1624
N4 N 0.64586(16) 0.22677(11) 0.07771(11)
C11 C 0.68739(19) 0.23886(10) 0.10300(13)
H10 H 0.6931 0.2623 0.1058
C12 C 0.72041(18) 0.21599(15) 0.12412(12)
H11 H 0.7482 0.2241 0.1410
C13 C 0.7119(2) 0.18102(13) 0.11996(13)
C14 C 0.6704(2) 0.16893(9) 0.09467(14)
H12 H 0.6647 0.1455 0.0919
C15 C 0.63735(16) 0.19181(12) 0.07354(11)
C16 C 0.7503(4) 0.1587(3) 0.1473(2)
H13 H 0.7848 0.1678 0.1536
H14 H 0.7391 0.1554 0.1670
O2 O 0.7455(4) 0.1302(2) 0.1287(2)
N5 N 0.51827(14) 0.19237(10) 0.00944(9)
N6 N 0.56091(16) 0.20886(7) 0.03182(10)
C17 C 0.59496(14) 0.18321(11) 0.04943(10)
C18 C 0.57336(18) 0.15087(8) 0.03792(12)
H15 H 0.5877 0.1297 0.0453
C19 C 0.52596(17) 0.15652(9) 0.01321(11)
H16 H 0.5038 0.1397 0.0015
C20 C 0.4792(3) 0.21059(16) -0.01154(16)
H17 H 0.4750 0.2318 -0.0006
H18 H 0.4479 0.1976 -0.0154
C21 C 0.43183(13) 0.27475(9) -0.11760(8)
C22 C 0.39207(13) 0.28991(9) -0.10845(10)
H19 H 0.3709 0.3057 -0.1225
C23 C 0.38394(12) 0.28148(10) -0.07824(10)
H20 H 0.3573 0.2916 -0.0721
C24 C 0.41557(13) 0.25788(9) -0.05718(8)
H21 H 0.4101 0.2522 -0.0370
C25 C 0.45533(10) 0.24272(7) -0.06633(6)
C26 C 0.46346(10) 0.25116(7) -0.09654(6)
C27 C 0.50322(13) 0.23600(9) -0.10569(8)
H22 H 0.5087 0.2416 -0.1259
C28 C 0.53485(12) 0.21240(9) -0.08463(9)
H23 H 0.5614 0.2023 -0.0908
C29 C 0.52672(12) 0.20397(9) -0.05442(9)
H24 H 0.5479 0.1882 -0.0403
C30 C 0.48696(13) 0.21913(9) -0.04527(7)
N7 N 0.63309(15) 0.30301(10) 0.06234(11)
C31 C 0.67243(18) 0.31676(12) 0.05172(11)
H25 H 0.6785 0.3085 0.0325
C32 C 0.70262(17) 0.34281(13) 0.06989(14)
H26 H 0.7289 0.3520 0.0628
C33 C 0.6935(2) 0.35511(12) 0.09867(13)
C34 C 0.6541(2) 0.34137(13) 0.10929(11)
H27 H 0.6480 0.3496 0.1286
C35 C 0.62395(16) 0.31532(12) 0.09113(12)
C36 C 0.7252(4) 0.3830(2) 0.1203(3)
H28 H 0.7027 0.4017 0.1217
H29 H 0.7396 0.3740 0.1426
O3 O 0.7622(3) 0.3951(2) 0.1101(2)
H30 H 0.7789 0.4087 0.1239
N8 N 0.52114(13) 0.26274(8) 0.09414(9)
N9 N 0.55995(14) 0.27367(9) 0.08027(8)
C37 C 0.58780(14) 0.30034(10) 0.10063(11)
C38 C 0.56620(17) 0.30591(10) 0.12708(9)
H31 H 0.5771 0.3220 0.1440
C39 C 0.52501(16) 0.28267(10) 0.12307(9)
H32 H 0.5042 0.2808 0.1369
C40 C 0.4913(2) 0.23508(13) 0.08272(14)
H33 H 0.4837 0.2344 0.0586
H34 H 0.4592 0.2382 0.0877
N10 N 0.35863(15) 0.00017(9) 0.09206(10)
C41 C 0.31717(16) -0.01693(11) 0.09728(10)
H35 H 0.3080 -0.0129 0.1166
C42 C 0.28946(14) -0.04002(11) 0.07364(13)
H36 H 0.2617 -0.0515 0.0771
C43 C 0.30321(17) -0.04601(10) 0.04479(11)
C44 C 0.34467(18) -0.02891(11) 0.03957(10)
H37 H 0.3539 -0.0329 0.0203
C45 C 0.37238(14) -0.00582(10) 0.06320(11)
C46 C 0.2737(3) -0.07018(18) 0.0178(2)
H38 H 0.2517 -0.0569 -0.0003
H39 H 0.2977 -0.0826 0.0091
O4 O 0.2444(2) -0.09333(15) 0.02884(16)
H40 H 0.2226 -0.0831 0.0350
N11 N 0.48050(14) 0.04749(9) 0.07657(10)
N12 N 0.43594(15) 0.03532(9) 0.08360(10)
C47 C 0.41232(14) 0.01082(10) 0.05889(12)
C48 C 0.44230(18) 0.00785(10) 0.03659(10)
H41 H 0.4355 -0.0064 0.0181
C49 C 0.48443(15) 0.03051(11) 0.04752(11)
H42 H 0.5101 0.0337 0.0374
C50 C 0.5096(3) 0.07527(14) 0.09283(18)
H43 H 0.5434 0.0739 0.0899
H44 H 0.5135 0.0736 0.1165
C51 C 0.51297(11) 0.20119(5) 0.09631(7)
C52 C 0.55895(11) 0.19993(7) 0.12169(7)
H45 H 0.5751 0.2201 0.1309
C53 C 0.58084(10) 0.16855(8) 0.13332(7)
H46 H 0.6116 0.1677 0.1503
C54 C 0.55674(10) 0.13843(6) 0.11958(7)
H47 H 0.5714 0.1174 0.1274
C55 C 0.51076(8) 0.13969(5) 0.09420(6)
C56 C 0.48887(8) 0.17107(5) 0.08257(5)
C57 C 0.44288(9) 0.17233(6) 0.05719(7)
H48 H 0.4282 0.1933 0.0494
C58 C 0.41878(10) 0.14222(8) 0.04345(7)
H49 H 0.3880 0.1431 0.0265
C59 C 0.44067(11) 0.11084(6) 0.05508(8)
H50 H 0.4245 0.0907 0.0459
C60 C 0.48666(11) 0.10958(5) 0.08046(8)
N13 N 0.44696(15) 0.07870(8) 0.15184(11)
C61 C 0.49392(16) 0.07607(8) 0.17614(11)
H51 H 0.5086 0.0547 0.1822
C62 C 0.51896(14) 0.10536(11) 0.19133(10)
H52 H 0.5504 0.1036 0.2076
C63 C 0.49704(17) 0.13729(9) 0.18220(11)
C64 C 0.45007(17) 0.13992(7) 0.15790(12)
H53 H 0.4354 0.1613 0.1518
C65 C 0.42503(13) 0.11063(10) 0.14271(10)
C66 C 0.5240(3) 0.16928(18) 0.1983(2)
H54 H 0.5208 0.1866 0.1813
H55 H 0.5073 0.1778 0.2142
O5 O 0.5743(2) 0.16417(15) 0.21430(15)
H56 H 0.5887 0.1572 0.2010
N14 N 0.30494(15) 0.08879(10) 0.08583(12)
N15 N 0.35380(16) 0.08032(8) 0.10764(12)
C67 C 0.37899(14) 0.11123(11) 0.12073(12)
C68 C 0.34571(18) 0.13879(8) 0.10700(14)
H57 H 0.3527 0.1619 0.1114
C69 C 0.29994(16) 0.12493(10) 0.08543(13)
H58 H 0.2717 0.1373 0.0732
C70 C 0.2714(3) 0.06534(18) 0.0678(2)
H59 H 0.2369 0.0740 0.0639
H60 H 0.2744 0.0445 0.0808
N16 N 0.0657(3) -0.00180(17) -0.15754(19)
C71 C 0.0182(3) 0.00435(15) -0.1804(2)
H61 H 0.0066 0.0267 -0.1850
C72 C -0.0118(3) -0.0229(2) -0.1963(2)
H62 H -0.0436 -0.0187 -0.2116
C73 C 0.0056(3) -0.05620(17) -0.1894(2)
C74 C 0.0531(3) -0.06234(14) -0.1666(2)
H63 H 0.0647 -0.0847 -0.1620
C75 C 0.0831(3) -0.0351(2) -0.15063(19)
C76 C -0.0278(5) -0.0879(3) -0.2073(3)
H64 H -0.0103 -0.1095 -0.2012
H65 H -0.0611 -0.0886 -0.2037
O6 O -0.0299(5) -0.0777(3) -0.2391(3)
N17 N 0.2031(3) -0.02406(14) -0.09306(16)
N18 N 0.1562(3) -0.01190(12) -0.11483(17)
C77 C 0.1269(3) -0.04064(18) -0.13010(17)
C78 C 0.1556(3) -0.07055(12) -0.11776(19)
H66 H 0.1454 -0.0929 -0.1236
C79 C 0.2027(3) -0.06031(14) -0.09487(18)
H67 H 0.2287 -0.0748 -0.0831
C80 C 0.2366(4) -0.0026(2) -0.0725(2)
H68 H 0.2370 0.0188 -0.0842
H69 H 0.2705 -0.0124 -0.0674
C81 C 0.27968(15) 0.05680(9) 0.03416(9)
C82 C 0.32203(14) 0.07081(10) 0.02719(11)
H70 H 0.3436 0.0855 0.0424
C83 C 0.33214(13) 0.06285(10) -0.00252(12)
H71 H 0.3605 0.0722 -0.0072
C84 C 0.29990(15) 0.04089(10) -0.02526(10)
H72 H 0.3067 0.0356 -0.0451
C85 C 0.25754(12) 0.02689(7) -0.01829(8)
C86 C 0.24743(12) 0.03484(7) 0.01142(8)
C87 C 0.20508(14) 0.02084(10) 0.01839(10)
H73 H 0.1983 0.0262 0.0383
C88 C 0.17283(14) -0.00112(10) -0.00435(12)
H74 H 0.1445 -0.0105 0.0003
C89 C 0.18294(16) -0.00908(10) -0.03407(11)
H75 H 0.1614 -0.0238 -0.0493
C90 C 0.22530(16) 0.00493(10) -0.04104(9)
N19 N 0.08730(18) 0.03853(12) -0.09136(10)
C91 C 0.04522(18) 0.01979(11) -0.08931(11)
H76 H 0.0293 0.0046 -0.1062
C92 C 0.02691(17) 0.02374(12) -0.06197(14)
H77 H -0.0012 0.0112 -0.0606
C93 C 0.0507(2) 0.04645(13) -0.03667(11)
C94 C 0.09275(19) 0.06519(11) -0.03871(10)
H78 H 0.1086 0.0804 -0.0218
C95 C 0.11106(16) 0.06123(11) -0.06606(12)
C96 C 0.0308(3) 0.0523(2) -0.0074(2)
H79 H 0.0580 0.0478 0.0130
H80 H 0.0210 0.0760 -0.0070
O7 O -0.0112(2) 0.03150(14) -0.00815(16)
N20 N 0.21729(16) 0.08931(11) -0.09136(10)
N21 N 0.17083(16) 0.07110(10) -0.09619(9)
C97 C 0.15264(16) 0.07765(11) -0.06840(12)
C98 C 0.1879(2) 0.09991(12) -0.04639(10)
H81 H 0.1852 0.1083 -0.0262
C99 C 0.22782(16) 0.10712(11) -0.06058(11)
H82 H 0.2559 0.1210 -0.0513
C100 C 0.2418(3) 0.09323(16) -0.11521(18)
H83 H 0.2381 0.0724 -0.1282
H84 H 0.2780 0.0966 -0.1043
N22 N 0.3598(2) 0.25923(16) -0.25416(14)
C101 C 0.4045(2) 0.27742(16) -0.25120(14)
H85 H 0.4177 0.2918 -0.2330
C102 C 0.4296(2) 0.27416(18) -0.27541(17)
H86 H 0.4595 0.2863 -0.2734
C103 C 0.4100(3) 0.25271(18) -0.30258(15)
C104 C 0.3653(3) 0.23452(16) -0.30554(14)
H87 H 0.3521 0.2202 -0.3237
C105 C 0.3402(2) 0.23778(16) -0.28133(16)
C106 C 0.4368(4) 0.2468(3) -0.3282(3)
H88 H 0.4399 0.2224 -0.3315
H89 H 0.4171 0.2567 -0.3493
O8 O 0.4855(4) 0.2617(2) -0.3179(2)
H90 H 0.5021 0.2532 -0.3002
N23 N 0.2363(2) 0.20022(13) -0.26142(12)
N24 N 0.2799(2) 0.22168(13) -0.25480(11)
C107 C 0.2990(2) 0.22024(15) -0.28278(14)
C108 C 0.2671(3) 0.19789(16) -0.30668(11)
H91 H 0.2710 0.1923 -0.3274
C109 C 0.2284(2) 0.18552(14) -0.29348(13)
H92 H 0.2024 0.1704 -0.3040
C110 C 0.2139(4) 0.19337(19) -0.2379(2)
H93 H 0.1791 0.1860 -0.2487
H94 H 0.2122 0.2143 -0.2259
C111 C 0.22166(15) 0.12333(9) -0.13899(8)
C112 C 0.17969(15) 0.14115(10) -0.13542(10)
H95 H 0.1661 0.1356 -0.1182
C113 C 0.15799(14) 0.16723(10) -0.15757(11)
H96 H 0.1299 0.1791 -0.1552
C114 C 0.17827(14) 0.17549(9) -0.18329(9)
H97 H 0.1638 0.1929 -0.1981
C115 C 0.22025(11) 0.15767(7) -0.18687(7)
C116 C 0.24194(11) 0.13160(6) -0.16472(7)
C117 C 0.28391(13) 0.11378(8) -0.16829(9)
H98 H 0.2984 0.0963 -0.1535
C118 C 0.30419(14) 0.12204(10) -0.19401(10)
H99 H 0.3323 0.1101 -0.1964
C119 C 0.28250(16) 0.14812(10) -0.21616(10)
H100 H 0.2961 0.1536 -0.2334
C120 C 0.24053(16) 0.16593(9) -0.21259(8)
N25 N 0.63001(14) 0.25145(11) 0.00464(9)
C121 C 0.67195(15) 0.23034(11) 0.00766(10)
H101 H 0.6851 0.2174 0.0269
C122 C 0.69424(15) 0.22854(12) -0.01807(12)
H102 H 0.7223 0.2144 -0.0160
C123 C 0.67460(17) 0.24784(13) -0.04681(10)
C124 C 0.63266(16) 0.26896(12) -0.04983(9)
H103 H 0.6195 0.2819 -0.0691
C125 C 0.61037(14) 0.27076(11) -0.02410(10)
C126 C 0.6994(3) 0.2479(2) -0.0747(2)
H104 H 0.6729 0.2469 -0.0959
H105 H 0.7177 0.2693 -0.0740
O9 O 0.7325(3) 0.2216(2) -0.07304(19)
H106 H 0.7451 0.2231 -0.0885
N26 N 0.50321(13) 0.30887(10) -0.00712(9)
N27 N 0.54665(13) 0.28714(9) 0.00072(8)
C127 C 0.56839(14) 0.28871(11) -0.02606(10)
C128 C 0.53838(17) 0.31141(12) -0.05046(8)
H107 H 0.5441 0.3171 -0.0706
C129 C 0.49810(14) 0.32387(10) -0.03876(10)
H108 H 0.4728 0.3392 -0.0499
C130 C 0.4748(2) 0.31315(16) 0.01433(16)
H109 H 0.4746 0.2919 0.0262
H110 H 0.4398 0.3182 0.0016
C131 C 0.4905(3) 0.4042(2) 0.14049(19)
H111 H 0.5268 0.4009 0.1508
H112 H 0.4863 0.4258 0.1287
C132 C 0.49464(13) 0.34159(9) 0.03943(8)
C133 C 0.53459(14) 0.36223(10) 0.03682(9)
H113 H 0.5485 0.3590 0.0193
C134 C 0.55372(13) 0.38763(10) 0.06035(10)
H114 H 0.5804 0.4014 0.0586
C135 C 0.53290(13) 0.39240(9) 0.08649(10)
H115 H 0.5457 0.4094 0.1022
C136 C 0.49296(11) 0.37177(7) 0.08910(7)
C137 C 0.47383(10) 0.34636(7) 0.06557(7)
C138 C 0.43388(13) 0.32572(9) 0.06818(9)
H116 H 0.4211 0.3087 0.0524
C139 C 0.41306(13) 0.33049(11) 0.09432(11)
H117 H 0.3863 0.3167 0.0961
C140 C 0.43219(15) 0.35589(12) 0.11785(9)
H118 H 0.4183 0.3591 0.1353
C141 C 0.47214(15) 0.37653(10) 0.11524(8)
N28 N 0.36498(17) 0.21770(11) -0.18803(11)
C142 C 0.40502(19) 0.20141(13) -0.19591(11)
H119 H 0.4132 0.2074 -0.2152
C143 C 0.43289(18) 0.17619(13) -0.17498(13)
H120 H 0.4597 0.1653 -0.1802
C144 C 0.4207(2) 0.16726(12) -0.14617(12)
C145 C 0.3807(2) 0.18355(12) -0.13830(10)
H121 H 0.3725 0.1776 -0.1190
C146 C 0.35282(17) 0.20877(12) -0.15923(12)
C147 C 0.4501(3) 0.1413(2) -0.1222(2)
H122 H 0.4650 0.1520 -0.1006
H123 H 0.4271 0.1234 -0.1194
O10 O 0.4885(3) 0.12709(16) -0.13314(15)
N29 N 0.24017(15) 0.25746(11) -0.16871(11)
N30 N 0.28320(17) 0.24696(11) -0.17855(10)
C148 C 0.31244(16) 0.22415(13) -0.15396(12)
C149 C 0.28748(19) 0.22054(13) -0.12890(10)
H124 H 0.2985 0.2071 -0.1099
C150 C 0.24282(18) 0.24113(13) -0.13802(11)
H125 H 0.2194 0.2435 -0.1260
C151 C 0.2074(3) 0.28281(18) -0.18350(19)
H126 H 0.1742 0.2778 -0.1807
H127 H 0.2035 0.2824 -0.2072
C152 C 0.22290(14) 0.31869(7) -0.17055(10)
C153 C 0.27065(13) 0.32299(10) -0.14743(10)
H128 H 0.2915 0.3041 -0.1398
C154 C 0.28722(11) 0.35548(11) -0.13569(10)
H129 H 0.3192 0.3584 -0.1202
C155 C 0.25606(12) 0.38366(9) -0.14708(9)
H130 H 0.2671 0.4054 -0.1392
C156 C 0.20831(11) 0.37935(7) -0.17020(7)
C157 C 0.19174(11) 0.34687(7) -0.18194(7)
C158 C 0.14400(12) 0.34256(9) -0.20507(9)
H131 H 0.1329 0.3208 -0.2129
C159 C 0.11283(11) 0.37074(11) -0.21646(9)
H132 H 0.0809 0.3679 -0.2319
C160 C 0.12940(13) 0.40322(9) -0.20472(10)
H133 H 0.1086 0.4221 -0.2123
C161 C 0.17715(14) 0.40753(7) -0.18159(10)
N31 N 0.3432(2) 0.46007(14) 0.16854(12)
C162 C 0.3017(2) 0.47979(13) 0.16998(12)
H134 H 0.2892 0.4968 0.1542
C163 C 0.2789(2) 0.47412(15) 0.19504(14)
H135 H 0.2511 0.4873 0.1960
C164 C 0.2976(2) 0.44872(16) 0.21866(12)
C165 C 0.3391(2) 0.42901(14) 0.21721(12)
H136 H 0.3516 0.4120 0.2330
C166 C 0.3619(2) 0.43468(14) 0.19216(14)
C167 C 0.2735(4) 0.4432(2) 0.2460(2)
H137 H 0.2995 0.4468 0.2671
H138 H 0.2632 0.4194 0.2453
O11 O 0.2325(3) 0.46271(18) 0.24596(16)
H139 H 0.2399 0.4830 0.2457
N32 N 0.4673(2) 0.40720(17) 0.16617(13)
N33 N 0.4205(2) 0.42501(15) 0.16116(12)
C168 C 0.4022(2) 0.41828(18) 0.18888(15)
C169 C 0.4378(3) 0.39632(18) 0.21103(13)
H140 H 0.4352 0.3879 0.2312
C170 C 0.4780(2) 0.38947(17) 0.19699(14)
H141 H 0.5064 0.3758 0.2063
N34 N 0.04323(18) 0.50209(10) -0.14969(12)
C171 C 0.0029(2) 0.51437(12) -0.13922(12)
H142 H -0.0035 0.5052 -0.1204
C172 C -0.02799(19) 0.54040(13) -0.15689(14)
H143 H -0.0550 0.5486 -0.1499
C173 C -0.0185(2) 0.55414(12) -0.18503(13)
C174 C 0.0218(2) 0.54186(12) -0.19550(12)
H144 H 0.0282 0.5511 -0.2143
C175 C 0.05271(19) 0.51583(12) -0.17783(13)
C176 C -0.0565(4) 0.5803(2) -0.2060(2)
H145 H -0.0465 0.6030 -0.1971
H146 H -0.0901 0.5756 -0.2037
O12 O -0.0597(3) 0.58016(16) -0.23801(17)
H147 H -0.0329 0.5873 -0.2404
N35 N 0.1572(3) 0.47083(16) -0.18177(18)
N36 N 0.1217(3) 0.47742(15) -0.16724(17)
C177 C 0.0935(4) 0.50092(19) -0.1869(2)
C178 C 0.1121(4) 0.5098(2) -0.2130(2)
H148 H 0.1001 0.5266 -0.2291
C179 C 0.1516(4) 0.4883(2) -0.2098(2)
H149 H 0.1712 0.4862 -0.2243
C180 C 0.1954(3) 0.44260(18) -0.1691(2)
H150 H 0.2048 0.4424 -0.1449
H151 H 0.2259 0.4477 -0.1754
Co1F Co -0.09166(3) 0.24149(2) -0.04190(2)
Co2F Co 0.09638(4) 0.46283(2) -0.12494(3)
Co3F Co 0.18006(4) 0.24250(3) 0.21594(3)
Co4F Co 0.37916(5) 0.46336(3) 0.13055(3)
N1F N 0.22735(15) 0.20140(9) 0.23927(10)
C1F C 0.27324(17) 0.20455(9) 0.26451(11)
H1F H 0.2849 0.2260 0.2728
C2F C 0.30166(14) 0.17559(11) 0.27732(10)
H2F H 0.3324 0.1777 0.2942
C3F C 0.28419(16) 0.14348(9) 0.26488(11)
C4F C 0.23830(17) 0.14033(9) 0.23964(11)
H3F H 0.2266 0.1188 0.2313
C5F C 0.20988(14) 0.16929(11) 0.22684(10)
C6F C 0.3151(3) 0.11186(18) 0.27738(17)
H4F H 0.3278 0.1027 0.2599
H5F H 0.2933 0.0947 0.2829
O1F O 0.3554(2) 0.11865(14) 0.30503(14)
N2F N 0.09152(16) 0.19179(12) 0.16928(12)
N3F N 0.13997(18) 0.19984(10) 0.19185(12)
C7F C 0.16471(16) 0.16868(13) 0.20456(13)
C8F C 0.1316(2) 0.14138(10) 0.18985(15)
H6F H 0.1383 0.1182 0.1938
C9F C 0.08632(18) 0.15566(12) 0.16804(13)
H7F H 0.0582 0.1435 0.1552
C10F C 0.0581(3) 0.2144(2) 0.14939(19)
H8F H 0.0243 0.2044 0.1437
H9F H 0.0575 0.2348 0.1624
N4F N -0.14586(16) 0.27323(11) -0.07771(11)
C11F C -0.18739(19) 0.26114(10) -0.10300(13)
H10F H -0.1931 0.2377 -0.1058
C12F C -0.22041(18) 0.28401(15) -0.12412(12)
H11F H -0.2482 0.2759 -0.1410
C13F C -0.2119(2) 0.31898(13) -0.11996(13)
C14F C -0.1704(2) 0.33107(9) -0.09467(14)
H12F H -0.1647 0.3545 -0.0919
C15F C -0.13735(16) 0.30819(12) -0.07354(11)
C16F C -0.2503(4) 0.3413(3) -0.1473(2)
H13F H -0.2848 0.3322 -0.1536
H14F H -0.2391 0.3446 -0.1670
O2F O -0.2455(4) 0.3698(2) -0.1287(2)
N5F N -0.01827(14) 0.30763(10) -0.00944(9)
N6F N -0.06091(16) 0.29114(7) -0.03182(10)
C17F C -0.09496(14) 0.31679(11) -0.04943(10)
C18F C -0.07336(18) 0.34913(8) -0.03792(12)
H15F H -0.0877 0.3703 -0.0453
C19F C -0.02596(17) 0.34348(9) -0.01321(11)
H16F H -0.0038 0.3603 -0.0015
C20F C 0.0208(3) 0.28941(16) 0.01154(16)
H17F H 0.0250 0.2682 0.0006
H18F H 0.0521 0.3024 0.0154
C21F C 0.06817(13) 0.22525(9) 0.11760(8)
C22F C 0.10793(13) 0.21009(9) 0.10845(10)
H19F H 0.1291 0.1943 0.1225
C23F C 0.11606(12) 0.21852(10) 0.07824(10)
H20F H 0.1427 0.2084 0.0721
C24F C 0.08443(13) 0.24212(9) 0.05718(8)
H21F H 0.0899 0.2478 0.0370
C25F C 0.04467(10) 0.25728(7) 0.06633(6)
C26F C 0.03654(10) 0.24884(7) 0.09654(6)
C27F C -0.00322(13) 0.26400(9) 0.10569(8)
H22F H -0.0087 0.2584 0.1259
C28F C -0.03485(12) 0.28760(9) 0.08463(9)
H23F H -0.0614 0.2977 0.0908
C29F C -0.02672(12) 0.29603(9) 0.05442(9)
H24F H -0.0479 0.3118 0.0403
C30F C 0.01304(13) 0.28087(9) 0.04527(7)
N7F N -0.13309(15) 0.19699(10) -0.06234(11)
C31F C -0.17243(18) 0.18324(12) -0.05172(11)
H25F H -0.1785 0.1915 -0.0325
C32F C -0.20262(17) 0.15719(13) -0.06989(14)
H26F H -0.2289 0.1480 -0.0628
C33F C -0.1935(2) 0.14489(12) -0.09867(13)
C34F C -0.1541(2) 0.15863(13) -0.10929(11)
H27F H -0.1480 0.1504 -0.1286
C35F C -0.12395(16) 0.18468(12) -0.09113(12)
C36F C -0.2252(4) 0.1170(2) -0.1203(3)
H28F H -0.2027 0.0983 -0.1217
H29F H -0.2396 0.1260 -0.1426
O3F O -0.2622(3) 0.1049(2) -0.1101(2)
H30F H -0.2789 0.0913 -0.1239
N8F N -0.02114(13) 0.23726(8) -0.09414(9)
N9F N -0.05995(14) 0.22633(9) -0.08027(8)
C37F C -0.08780(14) 0.19966(10) -0.10063(11)
C38F C -0.06620(17) 0.19409(10) -0.12708(9)
H31F H -0.0771 0.1780 -0.1440
C39F C -0.02501(16) 0.21733(10) -0.12307(9)
H32F H -0.0042 0.2192 -0.1369
C40F C 0.0087(2) 0.26492(13) -0.08272(14)
H33F H 0.0163 0.2656 -0.0586
H34F H 0.0408 0.2618 -0.0877
N10F N 0.14137(15) 0.49983(9) -0.09206(10)
C41F C 0.18283(16) 0.51693(11) -0.09728(10)
H35F H 0.1920 0.5129 -0.1166
C42F C 0.21054(14) 0.54002(11) -0.07364(13)
H36F H 0.2383 0.5515 -0.0771
C43F C 0.19679(17) 0.54601(10) -0.04479(11)
C44F C 0.15533(18) 0.52891(11) -0.03957(10)
H37F H 0.1461 0.5329 -0.0203
C45F C 0.12762(14) 0.50582(10) -0.06320(11)
C46F C 0.2263(3) 0.57018(18) -0.0178(2)
H38F H 0.2483 0.5569 0.0003
H39F H 0.2023 0.5826 -0.0091
O4F O 0.2556(2) 0.59333(15) -0.02884(16)
H40F H 0.2774 0.5831 -0.0350
N11F N 0.01950(14) 0.45251(9) -0.07657(10)
N12F N 0.06406(15) 0.46468(9) -0.08360(10)
C47F C 0.08768(14) 0.48918(10) -0.05889(12)
C48F C 0.05770(18) 0.49215(10) -0.03659(10)
H41F H 0.0645 0.5064 -0.0181
C49F C 0.01557(15) 0.46949(11) -0.04752(11)
H42F H -0.0101 0.4663 -0.0374
C50F C -0.0096(3) 0.42473(14) -0.09283(18)
H43F H -0.0434 0.4261 -0.0899
H44F H -0.0135 0.4264 -0.1165
C51F C -0.01297(11) 0.29881(5) -0.09631(7)
C52F C -0.05895(11) 0.30007(7) -0.12169(7)
H45F H -0.0751 0.2799 -0.1309
C53F C -0.08084(10) 0.33145(8) -0.13332(7)
H46F H -0.1116 0.3323 -0.1503
C54F C -0.05674(10) 0.36157(6) -0.11958(7)
H47F H -0.0714 0.3826 -0.1274
C55F C -0.01076(8) 0.36031(5) -0.09420(6)
C56F C 0.01113(8) 0.32893(5) -0.08257(5)
C57F C 0.05712(9) 0.32767(6) -0.05719(7)
H48F H 0.0718 0.3067 -0.0494
C58F C 0.08122(10) 0.35778(8) -0.04345(7)
H49F H 0.1120 0.3569 -0.0265
C59F C 0.05933(11) 0.38916(6) -0.05508(8)
H50F H 0.0755 0.4093 -0.0459
C60F C 0.01334(11) 0.39042(5) -0.08046(8)
N13F N 0.05304(15) 0.42130(8) -0.15184(11)
C61F C 0.00608(16) 0.42393(8) -0.17614(11)
H51F H -0.0086 0.4453 -0.1822
C62F C -0.01896(14) 0.39464(11) -0.19133(10)
H52F H -0.0504 0.3964 -0.2076
C63F C 0.00296(17) 0.36271(9) -0.18220(11)
C64F C 0.04993(17) 0.36008(7) -0.15790(12)
H53F H 0.0646 0.3387 -0.1518
C65F C 0.07497(13) 0.38937(10) -0.14271(10)
C66F C -0.0240(3) 0.33072(18) -0.1983(2)
H54F H -0.0208 0.3134 -0.1813
H55F H -0.0073 0.3222 -0.2142
O5F O -0.0743(2) 0.33583(15) -0.21430(15)
H56F H -0.0887 0.3428 -0.2010
N14F N 0.19506(15) 0.41121(10) -0.08583(12)
N15F N 0.14620(16) 0.41968(8) -0.10764(12)
C67F C 0.12101(14) 0.38877(11) -0.12073(12)
C68F C 0.15429(18) 0.36121(8) -0.10700(14)
H57F H 0.1473 0.3381 -0.1114
C69F C 0.20006(16) 0.37507(10) -0.08543(13)
H58F H 0.2283 0.3627 -0.0732
C70F C 0.2286(3) 0.43466(18) -0.0678(2)
H59F H 0.2631 0.4260 -0.0639
H60F H 0.2256 0.4555 -0.0808
N16F N 0.4343(3) 0.50180(17) 0.15754(19)
C71F C 0.4818(3) 0.49565(15) 0.1804(2)
H61F H 0.4934 0.4733 0.1850
C72F C 0.5118(3) 0.5229(2) 0.1963(2)
H62F H 0.5436 0.5187 0.2116
C73F C 0.4944(3) 0.55620(17) 0.1894(2)
C74F C 0.4469(3) 0.56234(14) 0.1666(2)
H63F H 0.4353 0.5847 0.1620
C75F C 0.4169(3) 0.5351(2) 0.15063(19)
C76F C 0.5278(5) 0.5879(3) 0.2073(3)
H64F H 0.5103 0.6095 0.2012
H65F H 0.5611 0.5886 0.2037
O6F O 0.5299(5) 0.5777(3) 0.2391(3)
N17F N 0.2969(3) 0.52406(14) 0.09306(16)
N18F N 0.3438(3) 0.51190(12) 0.11483(17)
C77F C 0.3731(3) 0.54064(18) 0.13010(17)
C78F C 0.3444(3) 0.57055(12) 0.11776(19)
H66F H 0.3546 0.5929 0.1236
C79F C 0.2973(3) 0.56031(14) 0.09487(18)
H67F H 0.2713 0.5748 0.0831
C80F C 0.2634(4) 0.5026(2) 0.0725(2)
H68F H 0.2630 0.4812 0.0842
H69F H 0.2295 0.5124 0.0674
C81F C 0.22032(15) 0.44320(9) -0.03416(9)
C82F C 0.17797(14) 0.42919(10) -0.02719(11)
H70F H 0.1564 0.4145 -0.0424
C83F C 0.16786(13) 0.43715(10) 0.00252(12)
H71F H 0.1395 0.4278 0.0072
C84F C 0.20010(15) 0.45911(10) 0.02526(10)
H72F H 0.1933 0.4644 0.0451
C85F C 0.24246(12) 0.47311(7) 0.01829(8)
C86F C 0.25257(12) 0.46516(7) -0.01142(8)
C87F C 0.29492(14) 0.47916(10) -0.01839(10)
H73F H 0.3017 0.4738 -0.0383
C88F C 0.32717(14) 0.50112(10) 0.00435(12)
H74F H 0.3555 0.5105 -0.0003
C89F C 0.31706(16) 0.50908(10) 0.03407(11)
H75F H 0.3386 0.5238 0.0493
C90F C 0.27470(16) 0.49507(10) 0.04104(9)
N19F N 0.41270(18) 0.46147(12) 0.09136(10)
C91F C 0.45478(18) 0.48021(11) 0.08931(11)
H76F H 0.4707 0.4954 0.1062
C92F C 0.47309(17) 0.47626(12) 0.06197(14)
H77F H 0.5012 0.4888 0.0606
C93F C 0.4493(2) 0.45355(13) 0.03667(11)
C94F C 0.40725(19) 0.43481(11) 0.03871(10)
H78F H 0.3914 0.4196 0.0218
C95F C 0.38894(16) 0.43877(11) 0.06606(12)
C96F C 0.4692(3) 0.4477(2) 0.0074(2)
H79F H 0.4420 0.4522 -0.0130
H80F H 0.4790 0.4240 0.0070
O7F O 0.5112(2) 0.46850(14) 0.00815(16)
N20F N 0.28271(16) 0.41069(11) 0.09136(10)
N21F N 0.32917(16) 0.42890(10) 0.09619(9)
C97F C 0.34736(16) 0.42235(11) 0.06840(12)
C98F C 0.3121(2) 0.40009(12) 0.04639(10)
H81F H 0.3148 0.3917 0.0262
C99F C 0.27218(16) 0.39288(11) 0.06058(11)
H82F H 0.2441 0.3790 0.0513
C100F C 0.2582(3) 0.40677(16) 0.11521(18)
H83F H 0.2619 0.4276 0.1282
H84F H 0.2220 0.4034 0.1043
N22F N 0.1402(2) 0.24077(16) 0.25416(14)
C101F C 0.0955(2) 0.22258(16) 0.25120(14)
H85F H 0.0823 0.2082 0.2330
C102F C 0.0704(2) 0.22584(18) 0.27541(17)
H86F H 0.0405 0.2137 0.2734
C103F C 0.0900(3) 0.24729(18) 0.30258(15)
C104F C 0.1347(3) 0.26548(16) 0.30554(14)
H87F H 0.1479 0.2798 0.3237
C105F C 0.1598(2) 0.26222(16) 0.28133(16)
C106F C 0.0632(4) 0.2532(3) 0.3282(3)
H88F H 0.0601 0.2776 0.3315
H89F H 0.0829 0.2433 0.3493
O8F O 0.0145(4) 0.2383(2) 0.3179(2)
H90F H -0.0021 0.2468 0.3002
N23F N 0.2637(2) 0.29978(13) 0.26142(12)
N24F N 0.2201(2) 0.27832(13) 0.25480(11)
C107F C 0.2010(2) 0.27976(15) 0.28278(14)
C108F C 0.2329(3) 0.30211(16) 0.30668(11)
H91F H 0.2290 0.3077 0.3274
C109F C 0.2716(2) 0.31448(14) 0.29348(13)
H92F H 0.2976 0.3296 0.3040
C110F C 0.2861(4) 0.30663(19) 0.2379(2)
H93F H 0.3209 0.3140 0.2487
H94F H 0.2878 0.2857 0.2259
C111F C 0.27834(15) 0.37667(9) 0.13899(8)
C112F C 0.32031(15) 0.35885(10) 0.13542(10)
H95F H 0.3339 0.3644 0.1182
C113F C 0.34201(14) 0.33277(10) 0.15757(11)
H96F H 0.3701 0.3209 0.1552
C114F C 0.32173(14) 0.32451(9) 0.18329(9)
H97F H 0.3362 0.3071 0.1981
C115F C 0.27975(11) 0.34233(7) 0.18687(7)
C116F C 0.25806(11) 0.36840(6) 0.16472(7)
C117F C 0.21609(13) 0.38622(8) 0.16829(9)
H98F H 0.2016 0.4037 0.1535
C118F C 0.19581(14) 0.37796(10) 0.19401(10)
H99F H 0.1677 0.3899 0.1964
C119F C 0.21750(16) 0.35188(10) 0.21616(10)
H100F H 0.2039 0.3464 0.2334
C120F C 0.25947(16) 0.33407(9) 0.21259(8)
N25F N -0.13001(14) 0.24855(11) -0.00464(9)
C121F C -0.17195(15) 0.26966(11) -0.00766(10)
H101F H -0.1851 0.2826 -0.0269
C122F C -0.19424(15) 0.27146(12) 0.01807(12)
H102F H -0.2223 0.2856 0.0160
C123F C -0.17460(17) 0.25216(13) 0.04681(10)
C124F C -0.13266(16) 0.23104(12) 0.04983(9)
H103F H -0.1195 0.2181 0.0691
C125F C -0.11037(14) 0.22924(11) 0.02410(10)
C126F C -0.1994(3) 0.2521(2) 0.0747(2)
H104F H -0.1729 0.2531 0.0959
H105F H -0.2177 0.2307 0.0740
O9F O -0.2325(3) 0.2784(2) 0.07304(19)
H106F H -0.2451 0.2769 0.0885
N26F N -0.00321(13) 0.19113(10) 0.00712(9)
N27F N -0.04665(13) 0.21286(9) -0.00072(8)
C127F C -0.06839(14) 0.21129(11) 0.02606(10)
C128F C -0.03838(17) 0.18859(12) 0.05046(8)
H107F H -0.0441 0.1829 0.0706
C129F C 0.00190(14) 0.17613(10) 0.03876(10)
H108F H 0.0272 0.1608 0.0499
C130F C 0.0252(2) 0.18685(16) -0.01433(16)
H109F H 0.0254 0.2081 -0.0262
H110F H 0.0602 0.1818 -0.0016
C131F C 0.0095(3) 0.0958(2) -0.14049(19)
H111F H -0.0268 0.0991 -0.1508
H112F H 0.0137 0.0742 -0.1287
C132F C 0.00536(13) 0.15841(9) -0.03943(8)
C133F C -0.03459(14) 0.13777(10) -0.03682(9)
H113F H -0.0485 0.1410 -0.0193
C134F C -0.05372(13) 0.11237(10) -0.06035(10)
H114F H -0.0804 0.0986 -0.0586
C135F C -0.03290(13) 0.10760(9) -0.08649(10)
H115F H -0.0457 0.0906 -0.1022
C136F C 0.00704(11) 0.12823(7) -0.08910(7)
C137F C 0.02617(10) 0.15364(7) -0.06557(7)
C138F C 0.06612(13) 0.17428(9) -0.06818(9)
H116F H 0.0789 0.1913 -0.0524
C139F C 0.08694(13) 0.16951(11) -0.09432(11)
H117F H 0.1137 0.1833 -0.0961
C140F C 0.06781(15) 0.14411(12) -0.11785(9)
H118F H 0.0817 0.1409 -0.1353
C141F C 0.02786(15) 0.12347(10) -0.11524(8)
N28F N 0.13502(17) 0.28230(11) 0.18803(11)
C142F C 0.09498(19) 0.29859(13) 0.19591(11)
H119F H 0.0868 0.2926 0.2152
C143F C 0.06711(18) 0.32381(13) 0.17498(13)
H120F H 0.0403 0.3347 0.1802
C144F C 0.0793(2) 0.33274(12) 0.14617(12)
C145F C 0.1193(2) 0.31645(12) 0.13830(10)
H121F H 0.1275 0.3224 0.1190
C146F C 0.14718(17) 0.29123(12) 0.15923(12)
C147F C 0.0499(3) 0.3587(2) 0.1222(2)
H122F H 0.0350 0.3480 0.1006
H123F H 0.0729 0.3766 0.1194
O10F O 0.0115(3) 0.37291(16) 0.13314(15)
N29F N 0.25983(15) 0.24254(11) 0.16871(11)
N30F N 0.21680(17) 0.25304(11) 0.17855(10)
C148F C 0.18756(16) 0.27585(13) 0.15396(12)
C149F C 0.21252(19) 0.27946(13) 0.12890(10)
H124F H 0.2015 0.2929 0.1099
C150F C 0.25718(18) 0.25887(13) 0.13802(11)
H125F H 0.2806 0.2565 0.1260
C151F C 0.2926(3) 0.21719(18) 0.18350(19)
H126F H 0.3258 0.2222 0.1807
H127F H 0.2965 0.2176 0.2072
C152F C 0.27710(14) 0.18131(7) 0.17055(10)
C153F C 0.22935(13) 0.17701(10) 0.14743(10)
H128F H 0.2085 0.1959 0.1398
C154F C 0.21278(11) 0.14452(11) 0.13569(10)
H129F H 0.1808 0.1416 0.1202
C155F C 0.24394(12) 0.11634(9) 0.14708(9)
H130F H 0.2329 0.0946 0.1392
C156F C 0.29169(11) 0.12065(7) 0.17020(7)
C157F C 0.30826(11) 0.15313(7) 0.18194(7)
C158F C 0.35600(12) 0.15744(9) 0.20507(9)
H131F H 0.3671 0.1792 0.2129
C159F C 0.38717(11) 0.12926(11) 0.21646(9)
H132F H 0.4191 0.1321 0.2319
C160F C 0.37060(13) 0.09678(9) 0.20472(10)
H133F H 0.3914 0.0779 0.2123
C161F C 0.32285(14) 0.09247(7) 0.18159(10)
N31F N 0.1568(2) 0.03993(14) -0.16854(12)
C162F C 0.1983(2) 0.02021(13) -0.16998(12)
H134F H 0.2108 0.0032 -0.1542
C163F C 0.2211(2) 0.02588(15) -0.19504(14)
H135F H 0.2489 0.0127 -0.1960
C164F C 0.2024(2) 0.05128(16) -0.21866(12)
C165F C 0.1609(2) 0.07099(14) -0.21721(12)
H136F H 0.1484 0.0880 -0.2330
C166F C 0.1381(2) 0.06532(14) -0.19216(14)
C167F C 0.2265(4) 0.0568(2) -0.2460(2)
H137F H 0.2005 0.0532 -0.2671
H138F H 0.2368 0.0806 -0.2453
O11F O 0.2675(3) 0.03729(18) -0.24596(16)
H139F H 0.2601 0.0170 -0.2457
N32F N 0.0327(2) 0.09280(17) -0.16617(13)
N33F N 0.0795(2) 0.07499(15) -0.16116(12)
C168F C 0.0978(2) 0.08172(18) -0.18888(15)
C169F C 0.0622(3) 0.10368(18) -0.21103(13)
H140F H 0.0648 0.1121 -0.2312
C170F C 0.0220(2) 0.11053(17) -0.19699(14)
H141F H -0.0064 0.1242 -0.2063
N34F N 0.45677(18) -0.00209(10) 0.14969(12)
C171F C 0.4971(2) -0.01437(12) 0.13922(12)
H142F H 0.5035 -0.0052 0.1204
C172F C 0.52799(19) -0.04040(13) 0.15689(14)
H143F H 0.5550 -0.0486 0.1499
C173F C 0.5185(2) -0.05414(12) 0.18503(13)
C174F C 0.4782(2) -0.04186(12) 0.19550(12)
H144F H 0.4718 -0.0511 0.2143
C175F C 0.44729(19) -0.01583(12) 0.17783(13)
C176F C 0.5565(4) -0.0803(2) 0.2060(2)
H145F H 0.5465 -0.1030 0.1971
H146F H 0.5901 -0.0756 0.2037
O12F O 0.5597(3) -0.08016(16) 0.23801(17)
H147F H 0.5329 -0.0873 0.2404
N35F N 0.3428(3) 0.02917(16) 0.18177(18)
N36F N 0.3783(3) 0.02258(15) 0.16724(17)
C177F C 0.4065(4) -0.00092(19) 0.1869(2)
C178F C 0.3879(4) -0.0098(2) 0.2130(2)
H148F H 0.3999 -0.0266 0.2291
C179F C 0.3484(4) 0.0117(2) 0.2098(2)
H149F H 0.3288 0.0138 0.2243
C180F C 0.3046(3) 0.05740(18) 0.1691(2)
H150F H 0.2952 0.0576 0.1449
H151F H 0.2741 0.0523 0.1754
B1 B 0.3691(4) 0.1391(3) -0.0555(3)
F1 F 0.3392(7) 0.1456(5) -0.0335(4)
F2 F 0.4186(3) 0.12788(17) -0.03638(16)
F3 F 0.3582(3) 0.1200(2) -0.08400(19)
F4 F 0.3737(4) 0.1733(2) -0.0614(2)
B2 B 0.1392(5) 0.1245(3) 0.0424(3)
F5 F 0.1827(3) 0.1435(2) 0.0552(2)
F6 F 0.1069(3) 0.13098(18) 0.06106(18)
F7 F 0.1514(4) 0.0902(2) 0.0467(3)
F8 F 0.1182(4) 0.1323(3) 0.0100(2)
B3 B 0.2029(5) 0.0419(4) 0.2282(4)
F9 F 0.1734(3) 0.0149(2) 0.2245(2)
F10 F 0.2514(4) 0.0341(2) 0.2395(2)
F11 F 0.1923(4) 0.0602(2) 0.2525(3)
F12 F 0.1966(6) 0.0600(3) 0.2016(3)
B4 B 0.6272(5) 0.0597(4) 0.0479(4)
F13 F 0.5820(4) 0.0582(2) 0.0266(2)
F14 F 0.6445(4) 0.0279(3) 0.0527(2)
F15 F 0.6244(7) 0.0743(5) 0.0753(3)
F16 F 0.6585(5) 0.0780(4) 0.0362(4)
C181 C 0.2207(5) 0.2196(4) -0.0345(3)
C182 C 0.2096(5) 0.2549(5) -0.0536(3)
C183 C 0.2185(5) 0.2824(3) -0.0275(4)
C184 C 0.1830(4) 0.2756(4) -0.0039(4)
C185 C 0.1928(4) 0.2429(5) 0.0142(4)
C186 C 0.1821(4) 0.2168(4) -0.0143(4)
C187 C 0.2497(4) 0.2421(4) 0.0345(3)
C188 C 0.2846(4) 0.2460(2) 0.0131(2)
C189 C 0.2730(4) 0.2810(2) -0.0073(3)
C190 C 0.2737(5) 0.2172(3) -0.0140(3)
C191 C 0.3432(4) 0.2452(2) 0.0330(3)
O13 O 0.3568(5) 0.2383(4) 0.0635(3)
O14 O 0.3746(4) 0.2493(4) 0.0162(3)
C181F C 0.2793(5) 0.2804(4) 0.0345(3)
C182F C 0.2904(5) 0.2451(5) 0.0536(3)
C183F C 0.2815(5) 0.2176(3) 0.0275(4)
C184F C 0.3170(4) 0.2244(4) 0.0039(4)
C185F C 0.3072(4) 0.2571(5) -0.0142(4)
C186F C 0.3179(4) 0.2832(4) 0.0143(4)
C187F C 0.2503(4) 0.2579(4) -0.0345(3)
C188F C 0.2154(4) 0.2540(2) -0.0131(2)
C189F C 0.2270(4) 0.2190(2) 0.0073(3)
C190F C 0.2263(5) 0.2828(3) 0.0140(3)
C191F C 0.1568(4) 0.2548(2) -0.0330(3)
O13F O 0.1432(5) 0.2617(4) -0.0635(3)
O14F O 0.1254(4) 0.2507(4) -0.0162(3)
loop_
_geom_bond_atom_site_label_1
_geom_bond_atom_site_label_2
_geom_bond_site_symmetry_1
_geom_bond_site_symmetry_2
Co1 N4 1_555 1_555
Co2 N10 1_555 1_555
Co3 N1 1_555 1_555
Co4 N16 1_555 1_555
N1 C1 1_555 1_555
C1 H1 1_555 1_555
C2 C1 1_555 1_555
H2 C2 1_555 1_555
C3 C2 1_555 1_555
C4 C3 1_555 1_555
H3 C4 1_555 1_555
C5 N1 1_555 1_555
C6 C3 1_555 1_555
H4 C6 1_555 1_555
H5 C6 1_555 1_555
O1 C6 1_555 1_555
N2 N3 1_555 1_555
N3 Co3 1_555 1_555
C7 C5 1_555 1_555
C8 C7 1_555 1_555
H6 C8 1_555 1_555
C9 N2 1_555 1_555
H7 C9 1_555 1_555
C10 N2 1_555 1_555
H8 C10 1_555 1_555
H9 C10 1_555 1_555
N4 C11 1_555 1_555
C11 H10 1_555 1_555
C12 C11 1_555 1_555
H11 C12 1_555 1_555
C13 C12 1_555 1_555
C14 C13 1_555 1_555
H12 C14 1_555 1_555
C15 N4 1_555 1_555
C16 C13 1_555 1_555
H13 C16 1_555 1_555
H14 C16 1_555 1_555
O2 C16 1_555 1_555
N5 N6 1_555 1_555
N6 Co1 1_555 1_555
C17 C15 1_555 1_555
C18 C17 1_555 1_555
H15 C18 1_555 1_555
C19 N5 1_555 1_555
H16 C19 1_555 1_555
C20 N5 1_555 1_555
H17 C20 1_555 1_555
H18 C20 1_555 1_555
C21 C10 1_555 1_555
C22 C21 1_555 1_555
H19 C22 1_555 1_555
C23 C22 1_555 1_555
H20 C23 1_555 1_555
C24 C23 1_555 1_555
H21 C24 1_555 1_555
C25 C24 1_555 1_555
C26 C21 1_555 1_555
C27 C26 1_555 1_555
H22 C27 1_555 1_555
C28 C27 1_555 1_555
H23 C28 1_555 1_555
C29 C28 1_555 1_555
H24 C29 1_555 1_555
C30 C20 1_555 1_555
N7 Co1 1_555 1_555
C31 N7 1_555 1_555
H25 C31 1_555 1_555
C32 C31 1_555 1_555
H26 C32 1_555 1_555
C33 C32 1_555 1_555
C34 C33 1_555 1_555
H27 C34 1_555 1_555
C35 N7 1_555 1_555
C36 C33 1_555 1_555
H28 C36 1_555 1_555
H29 C36 1_555 1_555
O3 C36 1_555 1_555
H30 O3 1_555 1_555
N8 N9 1_555 1_555
N9 Co1 1_555 1_555
C37 C35 1_555 1_555
C38 C37 1_555 1_555
H31 C38 1_555 1_555
C39 N8 1_555 1_555
H32 C39 1_555 1_555
C40 N8 1_555 1_555
H33 C40 1_555 1_555
H34 C40 1_555 1_555
N10 C41 1_555 1_555
C41 H35 1_555 1_555
C42 C41 1_555 1_555
H36 C42 1_555 1_555
C43 C42 1_555 1_555
C44 C43 1_555 1_555
H37 C44 1_555 1_555
C45 N10 1_555 1_555
C46 C43 1_555 1_555
H38 C46 1_555 1_555
H39 C46 1_555 1_555
O4 C46 1_555 1_555
H40 O4 1_555 1_555
N11 N12 1_555 1_555
N12 Co2 1_555 1_555
C47 C45 1_555 1_555
C48 C47 1_555 1_555
H41 C48 1_555 1_555
C49 N11 1_555 1_555
H42 C49 1_555 1_555
C50 N11 1_555 1_555
H43 C50 1_555 1_555
H44 C50 1_555 1_555
C51 C40 1_555 1_555
C52 C51 1_555 1_555
H45 C52 1_555 1_555
C53 C52 1_555 1_555
H46 C53 1_555 1_555
C54 C53 1_555 1_555
H47 C54 1_555 1_555
C55 C54 1_555 1_555
C56 C51 1_555 1_555
C57 C56 1_555 1_555
H48 C57 1_555 1_555
C58 C57 1_555 1_555
H49 C58 1_555 1_555
C59 C58 1_555 1_555
H50 C59 1_555 1_555
C60 C50 1_555 1_555
N13 Co2 1_555 1_555
C61 N13 1_555 1_555
H51 C61 1_555 1_555
C62 C61 1_555 1_555
H52 C62 1_555 1_555
C63 C62 1_555 1_555
C64 C63 1_555 1_555
H53 C64 1_555 1_555
C65 N13 1_555 1_555
C66 C63 1_555 1_555
H54 C66 1_555 1_555
H55 C66 1_555 1_555
O5 C66 1_555 1_555
H56 O5 1_555 1_555
N14 N15 1_555 1_555
N15 Co2 1_555 1_555
C67 C65 1_555 1_555
C68 C67 1_555 1_555
H57 C68 1_555 1_555
C69 N14 1_555 1_555
H58 C69 1_555 1_555
C70 N14 1_555 1_555
H59 C70 1_555 1_555
H60 C70 1_555 1_555
N16 C71 1_555 1_555
C71 H61 1_555 1_555
C72 C71 1_555 1_555
H62 C72 1_555 1_555
C73 C72 1_555 1_555
C74 C73 1_555 1_555
H63 C74 1_555 1_555
C75 N16 1_555 1_555
C76 C73 1_555 1_555
H64 C76 1_555 1_555
H65 C76 1_555 1_555
O6 C76 1_555 1_555
N17 N18 1_555 1_555
N18 Co4 1_555 1_555
C77 C75 1_555 1_555
C78 C77 1_555 1_555
H66 C78 1_555 1_555
C79 N17 1_555 1_555
H67 C79 1_555 1_555
C80 N17 1_555 1_555
H68 C80 1_555 1_555
H69 C80 1_555 1_555
C81 C70 1_555 1_555
C82 C81 1_555 1_555
H70 C82 1_555 1_555
C83 C82 1_555 1_555
H71 C83 1_555 1_555
C84 C83 1_555 1_555
H72 C84 1_555 1_555
C85 C84 1_555 1_555
C86 C81 1_555 1_555
C87 C86 1_555 1_555
H73 C87 1_555 1_555
C88 C87 1_555 1_555
H74 C88 1_555 1_555
C89 C88 1_555 1_555
H75 C89 1_555 1_555
C90 C80 1_555 1_555
N19 Co4 1_555 1_555
C91 N19 1_555 1_555
H76 C91 1_555 1_555
C92 C91 1_555 1_555
H77 C92 1_555 1_555
C93 C92 1_555 1_555
C94 C93 1_555 1_555
H78 C94 1_555 1_555
C95 N19 1_555 1_555
C96 C93 1_555 1_555
H79 C96 1_555 1_555
H80 C96 1_555 1_555
O7 C96 1_555 1_555
N20 N21 1_555 1_555
N21 Co4 1_555 1_555
C97 C95 1_555 1_555
C98 C97 1_555 1_555
H81 C98 1_555 1_555
C99 N20 1_555 1_555
H82 C99 1_555 1_555
C100 N20 1_555 1_555
H83 C100 1_555 1_555
H84 C100 1_555 1_555
N22 Co3 1_555 1_555
C101 N22 1_555 1_555
H85 C101 1_555 1_555
C102 C101 1_555 1_555
H86 C102 1_555 1_555
C103 C102 1_555 1_555
C104 C103 1_555 1_555
H87 C104 1_555 1_555
C105 N22 1_555 1_555
C106 C103 1_555 1_555
H88 C106 1_555 1_555
H89 C106 1_555 1_555
O8 C106 1_555 1_555
H90 O8 1_555 1_555
N23 N24 1_555 1_555
N24 Co3 1_555 1_555
C107 C105 1_555 1_555
C108 C107 1_555 1_555
H91 C108 1_555 1_555
C109 N23 1_555 1_555
H92 C109 1_555 1_555
C110 N23 1_555 1_555
H93 C110 1_555 1_555
H94 C110 1_555 1_555
C111 C100 1_555 1_555
C112 C111 1_555 1_555
H95 C112 1_555 1_555
C113 C112 1_555 1_555
H96 C113 1_555 1_555
C114 C113 1_555 1_555
H97 C114 1_555 1_555
C115 C114 1_555 1_555
C116 C111 1_555 1_555
C117 C116 1_555 1_555
H98 C117 1_555 1_555
C118 C117 1_555 1_555
H99 C118 1_555 1_555
C119 C118 1_555 1_555
H100 C119 1_555 1_555
C120 C110 1_555 1_555
N25 Co1 1_555 1_555
C121 N25 1_555 1_555
H101 C121 1_555 1_555
C122 C121 1_555 1_555
H102 C122 1_555 1_555
C123 C122 1_555 1_555
C124 C123 1_555 1_555
H103 C124 1_555 1_555
C125 N25 1_555 1_555
C126 C123 1_555 1_555
H104 C126 1_555 1_555
H105 C126 1_555 1_555
O9 C126 1_555 1_555
H106 O9 1_555 1_555
N26 N27 1_555 1_555
N27 Co1 1_555 1_555
C127 C125 1_555 1_555
C128 C127 1_555 1_555
H107 C128 1_555 1_555
C129 N26 1_555 1_555
H108 C129 1_555 1_555
C130 N26 1_555 1_555
H109 C130 1_555 1_555
H110 C130 1_555 1_555
C131 H111 1_555 1_555
H112 C131 1_555 1_555
C132 C130 1_555 1_555
C133 C132 1_555 1_555
H113 C133 1_555 1_555
C134 C133 1_555 1_555
H114 C134 1_555 1_555
C135 C134 1_555 1_555
H115 C135 1_555 1_555
C136 C135 1_555 1_555
C137 C132 1_555 1_555
C138 C137 1_555 1_555
H116 C138 1_555 1_555
C139 C138 1_555 1_555
H117 C139 1_555 1_555
C140 C139 1_555 1_555
H118 C140 1_555 1_555
C141 C131 1_555 1_555
N28 Co3 1_555 1_555
C142 N28 1_555 1_555
H119 C142 1_555 1_555
C143 C142 1_555 1_555
H120 C143 1_555 1_555
C144 C143 1_555 1_555
C145 C144 1_555 1_555
H121 C145 1_555 1_555
C146 N28 1_555 1_555
C147 C144 1_555 1_555
H122 C147 1_555 1_555
H123 C147 1_555 1_555
O10 C147 1_555 1_555
N29 N30 1_555 1_555
N30 Co3 1_555 1_555
C148 C146 1_555 1_555
C149 C148 1_555 1_555
H124 C149 1_555 1_555
C150 N29 1_555 1_555
H125 C150 1_555 1_555
C151 N29 1_555 1_555
H126 C151 1_555 1_555
H127 C151 1_555 1_555
C152 C151 1_555 1_555
C153 C152 1_555 1_555
H128 C153 1_555 1_555
C154 C153 1_555 1_555
H129 C154 1_555 1_555
C155 C154 1_555 1_555
H130 C155 1_555 1_555
C156 C155 1_555 1_555
C157 C152 1_555 1_555
C158 C157 1_555 1_555
H131 C158 1_555 1_555
C159 C158 1_555 1_555
H132 C159 1_555 1_555
C160 C159 1_555 1_555
H133 C160 1_555 1_555
C161 C156 1_555 1_555
N31 C162 1_555 1_555
C162 H134 1_555 1_555
C163 C162 1_555 1_555
H135 C163 1_555 1_555
C164 C163 1_555 1_555
C165 C164 1_555 1_555
H136 C165 1_555 1_555
C166 N31 1_555 1_555
C167 C164 1_555 1_555
H137 C167 1_555 1_555
H138 C167 1_555 1_555
O11 C167 1_555 1_555
H139 O11 1_555 1_555
N32 C131 1_555 1_555
N33 N32 1_555 1_555
C168 C166 1_555 1_555
C169 C168 1_555 1_555
H140 C169 1_555 1_555
C170 N32 1_555 1_555
H141 C170 1_555 1_555
N34 C171 1_555 1_555
C171 H142 1_555 1_555
C172 C171 1_555 1_555
H143 C172 1_555 1_555
C173 C172 1_555 1_555
C174 C173 1_555 1_555
H144 C174 1_555 1_555
C175 N34 1_555 1_555
C176 C173 1_555 1_555
H145 C176 1_555 1_555
H146 C176 1_555 1_555
O12 C176 1_555 1_555
H147 O12 1_555 1_555
N35 N36 1_555 1_555
N36 C177 1_555 1_555
C177 C175 1_555 1_555
C178 C177 1_555 1_555
H148 C178 1_555 1_555
C179 N35 1_555 1_555
H149 C179 1_555 1_555
C180 C161 1_555 1_555
H150 C180 1_555 1_555
H151 C180 1_555 1_555
B1 F1 1_555 1_555
F2 B1 1_555 1_555
F3 B1 1_555 1_555
F4 B1 1_555 1_555
B2 F5 1_555 1_555
F6 B2 1_555 1_555
F7 B2 1_555 1_555
F8 B2 1_555 1_555
B3 F9 1_555 1_555
F10 B3 1_555 1_555
F11 B3 1_555 1_555
F12 B3 1_555 1_555
B4 F13 1_555 1_555
F14 B4 1_555 1_555
F15 B4 1_555 1_555
F16 B4 1_555 1_555
C181 C182 1_555 1_555
C182 C183 1_555 1_555
C183 C184 1_555 1_555
C184 C185 1_555 1_555
C185 C186 1_555 1_555
C186 C181 1_555 1_555
C187 C185 1_555 1_555
C188 C187 1_555 1_555
C189 C183 1_555 1_555
C190 C181 1_555 1_555
C191 C188 1_555 1_555
O13 C191 1_555 1_555
O14 C191 1_555 1_555
Co1F N4F 1_555 1_555
Co2F N34 1_555 1_555
Co3F N1F 1_555 1_555
Co4F N31 1_555 1_555
N1F C1F 1_555 1_555
C1F H1F 1_555 1_555
C2F C1F 1_555 1_555
H2F C2F 1_555 1_555
C3F C2F 1_555 1_555
C4F C3F 1_555 1_555
H3F C4F 1_555 1_555
C5F N1F 1_555 1_555
C6F C3F 1_555 1_555
H4F C6F 1_555 1_555
H5F C6F 1_555 1_555
O1F C6F 1_555 1_555
N2F N3F 1_555 1_555
N3F Co3F 1_555 1_555
C7F C5F 1_555 1_555
C8F C7F 1_555 1_555
H6F C8F 1_555 1_555
C9F N2F 1_555 1_555
H7F C9F 1_555 1_555
C10F N2F 1_555 1_555
H8F C10F 1_555 1_555
H9F C10F 1_555 1_555
N4F C11F 1_555 1_555
C11F H10F 1_555 1_555
C12F C11F 1_555 1_555
H11F C12F 1_555 1_555
C13F C12F 1_555 1_555
C14F C13F 1_555 1_555
H12F C14F 1_555 1_555
C15F N4F 1_555 1_555
C16F C13F 1_555 1_555
H13F C16F 1_555 1_555
H14F C16F 1_555 1_555
O2F C16F 1_555 1_555
N5F N6F 1_555 1_555
N6F Co1F 1_555 1_555
C17F C15F 1_555 1_555
C18F C17F 1_555 1_555
H15F C18F 1_555 1_555
C19F N5F 1_555 1_555
H16F C19F 1_555 1_555
C20F N5F 1_555 1_555
H17F C20F 1_555 1_555
H18F C20F 1_555 1_555
C21F C10F 1_555 1_555
C22F C21F 1_555 1_555
H19F C22F 1_555 1_555
C23F C22F 1_555 1_555
H20F C23F 1_555 1_555
C24F C23F 1_555 1_555
H21F C24F 1_555 1_555
C25F C24F 1_555 1_555
C26F C21F 1_555 1_555
C27F C26F 1_555 1_555
H22F C27F 1_555 1_555
C28F C27F 1_555 1_555
H23F C28F 1_555 1_555
C29F C28F 1_555 1_555
H24F C29F 1_555 1_555
C30F C20F 1_555 1_555
N7F Co1F 1_555 1_555
C31F N7F 1_555 1_555
H25F C31F 1_555 1_555
C32F C31F 1_555 1_555
H26F C32F 1_555 1_555
C33F C32F 1_555 1_555
C34F C33F 1_555 1_555
H27F C34F 1_555 1_555
C35F N7F 1_555 1_555
C36F C33F 1_555 1_555
H28F C36F 1_555 1_555
H29F C36F 1_555 1_555
O3F C36F 1_555 1_555
H30F O3F 1_555 1_555
N8F N9F 1_555 1_555
N9F Co1F 1_555 1_555
C37F C35F 1_555 1_555
C38F C37F 1_555 1_555
H31F C38F 1_555 1_555
C39F N8F 1_555 1_555
H32F C39F 1_555 1_555
C40F N8F 1_555 1_555
H33F C40F 1_555 1_555
H34F C40F 1_555 1_555
N10F Co2F 1_555 1_555
C41F N10F 1_555 1_555
H35F C41F 1_555 1_555
C42F C41F 1_555 1_555
H36F C42F 1_555 1_555
C43F C42F 1_555 1_555
C44F C43F 1_555 1_555
H37F C44F 1_555 1_555
C45F N10F 1_555 1_555
C46F C43F 1_555 1_555
H38F C46F 1_555 1_555
H39F C46F 1_555 1_555
O4F C46F 1_555 1_555
H40F O4F 1_555 1_555
N11F N12F 1_555 1_555
N12F Co2F 1_555 1_555
C47F C45F 1_555 1_555
C48F C47F 1_555 1_555
H41F C48F 1_555 1_555
C49F N11F 1_555 1_555
H42F C49F 1_555 1_555
C50F N11F 1_555 1_555
H43F C50F 1_555 1_555
H44F C50F 1_555 1_555
C51F C40F 1_555 1_555
C52F C51F 1_555 1_555
H45F C52F 1_555 1_555
C53F C52F 1_555 1_555
H46F C53F 1_555 1_555
C54F C53F 1_555 1_555
H47F C54F 1_555 1_555
C55F C54F 1_555 1_555
C56F C51F 1_555 1_555
C57F C56F 1_555 1_555
H48F C57F 1_555 1_555
C58F C57F 1_555 1_555
H49F C58F 1_555 1_555
C59F C58F 1_555 1_555
H50F C59F 1_555 1_555
C60F C50F 1_555 1_555
N13F Co2F 1_555 1_555
C61F N13F 1_555 1_555
H51F C61F 1_555 1_555
C62F C61F 1_555 1_555
H52F C62F 1_555 1_555
C63F C62F 1_555 1_555
C64F C63F 1_555 1_555
H53F C64F 1_555 1_555
C65F N13F 1_555 1_555
C66F C63F 1_555 1_555
H54F C66F 1_555 1_555
H55F C66F 1_555 1_555
O5F C66F 1_555 1_555
H56F O5F 1_555 1_555
N14F N15F 1_555 1_555
N15F Co2F 1_555 1_555
C67F C65F 1_555 1_555
C68F C67F 1_555 1_555
H57F C68F 1_555 1_555
C69F N14F 1_555 1_555
H58F C69F 1_555 1_555
C70F N14F 1_555 1_555
H59F C70F 1_555 1_555
H60F C70F 1_555 1_555
N16F Co4F 1_555 1_555
C71F N16F 1_555 1_555
H61F C71F 1_555 1_555
C72F C71F 1_555 1_555
H62F C72F 1_555 1_555
C73F C72F 1_555 1_555
C74F C73F 1_555 1_555
H63F C74F 1_555 1_555
C75F N16F 1_555 1_555
C76F C73F 1_555 1_555
H64F C76F 1_555 1_555
H65F C76F 1_555 1_555
O6F C76F 1_555 1_555
N17F N18F 1_555 1_555
N18F Co4F 1_555 1_555
C77F C75F 1_555 1_555
C78F C77F 1_555 1_555
H66F C78F 1_555 1_555
C79F N17F 1_555 1_555
H67F C79F 1_555 1_555
C80F N17F 1_555 1_555
H68F C80F 1_555 1_555
H69F C80F 1_555 1_555
C81F C70F 1_555 1_555
C82F C81F 1_555 1_555
H70F C82F 1_555 1_555
C83F C82F 1_555 1_555
H71F C83F 1_555 1_555
C84F C83F 1_555 1_555
H72F C84F 1_555 1_555
C85F C84F 1_555 1_555
C86F C81F 1_555 1_555
C87F C86F 1_555 1_555
H73F C87F 1_555 1_555
C88F C87F 1_555 1_555
H74F C88F 1_555 1_555
C89F C88F 1_555 1_555
H75F C89F 1_555 1_555
C90F C80F 1_555 1_555
N19F Co4F 1_555 1_555
C91F N19F 1_555 1_555
H76F C91F 1_555 1_555
C92F C91F 1_555 1_555
H77F C92F 1_555 1_555
C93F C92F 1_555 1_555
C94F C93F 1_555 1_555
H78F C94F 1_555 1_555
C95F N19F 1_555 1_555
C96F C93F 1_555 1_555
H79F C96F 1_555 1_555
H80F C96F 1_555 1_555
O7F C96F 1_555 1_555
N20F N21F 1_555 1_555
N21F Co4F 1_555 1_555
C97F C95F 1_555 1_555
C98F C97F 1_555 1_555
H81F C98F 1_555 1_555
C99F N20F 1_555 1_555
H82F C99F 1_555 1_555
C100F N20F 1_555 1_555
H83F C100F 1_555 1_555
H84F C100F 1_555 1_555
N22F Co3F 1_555 1_555
C101F N22F 1_555 1_555
H85F C101F 1_555 1_555
C102F C101F 1_555 1_555
H86F C102F 1_555 1_555
C103F C102F 1_555 1_555
C104F C103F 1_555 1_555
H87F C104F 1_555 1_555
C105F N22F 1_555 1_555
C106F C103F 1_555 1_555
H88F C106F 1_555 1_555
H89F C106F 1_555 1_555
O8F C106F 1_555 1_555
H90F O8F 1_555 1_555
N23F N24F 1_555 1_555
N24F Co3F 1_555 1_555
C107F C105F 1_555 1_555
C108F C107F 1_555 1_555
H91F C108F 1_555 1_555
C109F N23F 1_555 1_555
H92F C109F 1_555 1_555
C110F N23F 1_555 1_555
H93F C110F 1_555 1_555
H94F C110F 1_555 1_555
C111F C100F 1_555 1_555
C112F C111F 1_555 1_555
H95F C112F 1_555 1_555
C113F C112F 1_555 1_555
H96F C113F 1_555 1_555
C114F C113F 1_555 1_555
H97F C114F 1_555 1_555
C115F C114F 1_555 1_555
C116F C111F 1_555 1_555
C117F C116F 1_555 1_555
H98F C117F 1_555 1_555
C118F C117F 1_555 1_555
H99F C118F 1_555 1_555
C119F C118F 1_555 1_555
H100F C119F 1_555 1_555
C120F C110F 1_555 1_555
N25F Co1F 1_555 1_555
C121F N25F 1_555 1_555
H101F C121F 1_555 1_555
C122F C121F 1_555 1_555
H102F C122F 1_555 1_555
C123F C122F 1_555 1_555
C124F C123F 1_555 1_555
H103F C124F 1_555 1_555
C125F N25F 1_555 1_555
C126F C123F 1_555 1_555
H104F C126F 1_555 1_555
H105F C126F 1_555 1_555
O9F C126F 1_555 1_555
H106F O9F 1_555 1_555
N26F N27F 1_555 1_555
N27F Co1F 1_555 1_555
C127F C125F 1_555 1_555
C128F C127F 1_555 1_555
H107F C128F 1_555 1_555
C129F N26F 1_555 1_555
H108F C129F 1_555 1_555
C130F N26F 1_555 1_555
H109F C130F 1_555 1_555
H110F C130F 1_555 1_555
C131F H111F 1_555 1_555
H112F C131F 1_555 1_555
C132F C130F 1_555 1_555
C133F C132F 1_555 1_555
H113F C133F 1_555 1_555
C134F C133F 1_555 1_555
H114F C134F 1_555 1_555
C135F C134F 1_555 1_555
H115F C135F 1_555 1_555
C136F C135F 1_555 1_555
C137F C132F 1_555 1_555
C138F C137F 1_555 1_555
H116F C138F 1_555 1_555
C139F C138F 1_555 1_555
H117F C139F 1_555 1_555
C140F C139F 1_555 1_555
H118F C140F 1_555 1_555
C141F C131F 1_555 1_555
N28F Co3F 1_555 1_555
C142F N28F 1_555 1_555
H119F C142F 1_555 1_555
C143F C142F 1_555 1_555
H120F C143F 1_555 1_555
C144F C143F 1_555 1_555
C145F C144F 1_555 1_555
H121F C145F 1_555 1_555
C146F N28F 1_555 1_555
C147F C144F 1_555 1_555
H122F C147F 1_555 1_555
H123F C147F 1_555 1_555
O10F C147F 1_555 1_555
N29F N30F 1_555 1_555
N30F Co3F 1_555 1_555
C148F C146F 1_555 1_555
C149F C148F 1_555 1_555
H124F C149F 1_555 1_555
C150F N29F 1_555 1_555
H125F C150F 1_555 1_555
C151F N29F 1_555 1_555
H126F C151F 1_555 1_555
H127F C151F 1_555 1_555
C152F C151F 1_555 1_555
C153F C152F 1_555 1_555
H128F C153F 1_555 1_555
C154F C153F 1_555 1_555
H129F C154F 1_555 1_555
C155F C154F 1_555 1_555
H130F C155F 1_555 1_555
C156F C155F 1_555 1_555
C157F C152F 1_555 1_555
C158F C157F 1_555 1_555
H131F C158F 1_555 1_555
C159F C158F 1_555 1_555
H132F C159F 1_555 1_555
C160F C159F 1_555 1_555
H133F C160F 1_555 1_555
C161F C156F 1_555 1_555
N31F Co4 1_555 1_555
C162F N31F 1_555 1_555
H134F C162F 1_555 1_555
C163F C162F 1_555 1_555
H135F C163F 1_555 1_555
C164F C163F 1_555 1_555
C165F C164F 1_555 1_555
H136F C165F 1_555 1_555
C166F N31F 1_555 1_555
C167F C164F 1_555 1_555
H137F C167F 1_555 1_555
H138F C167F 1_555 1_555
O11F C167F 1_555 1_555
H139F O11F 1_555 1_555
N32F C131F 1_555 1_555
N33F Co4 1_555 1_555
C168F C166F 1_555 1_555
C169F C168F 1_555 1_555
H140F C169F 1_555 1_555
C170F N32F 1_555 1_555
H141F C170F 1_555 1_555
N34F Co2 1_555 1_555
C171F N34F 1_555 1_555
H142F C171F 1_555 1_555
C172F C171F 1_555 1_555
H143F C172F 1_555 1_555
C173F C172F 1_555 1_555
C174F C173F 1_555 1_555
H144F C174F 1_555 1_555
C175F N34F 1_555 1_555
C176F C173F 1_555 1_555
H145F C176F 1_555 1_555
H146F C176F 1_555 1_555
O12F C176F 1_555 1_555
H147F O12F 1_555 1_555
N35F N36F 1_555 1_555
N36F Co2 1_555 1_555
C177F C175F 1_555 1_555
C178F C177F 1_555 1_555
H148F C178F 1_555 1_555
C179F N35F 1_555 1_555
H149F C179F 1_555 1_555
C180F C161F 1_555 1_555
H150F C180F 1_555 1_555
H151F C180F 1_555 1_555
C181F C187 1_555 1_555
C182F C187 1_555 1_555
C183F C187 1_555 1_555
C184F C188 1_555 1_555
C185F C188 1_555 1_555
C186F C188 1_555 1_555
C187F C181 1_555 1_555
C188F C181 1_555 1_555
C189F C181 1_555 1_555
C190F C183 1_555 1_555
C191F C184 1_555 1_555
O13F C182 1_555 1_555
O14F C184 1_555 1_555
C4 C5 1_555 1_555
N3 C7 1_555 1_555
C8 C9 1_555 1_555
C14 C15 1_555 1_555
N6 C17 1_555 1_555
C18 C19 1_555 1_555
C25 C26 1_555 1_555
C25 C30 1_555 1_555
C29 C30 1_555 1_555
C34 C35 1_555 1_555
N9 C37 1_555 1_555
C38 C39 1_555 1_555
C44 C45 1_555 1_555
N12 C47 1_555 1_555
C48 C49 1_555 1_555
C55 C56 1_555 1_555
C55 C60 1_555 1_555
C59 C60 1_555 1_555
C64 C65 1_555 1_555
N15 C67 1_555 1_555
C68 C69 1_555 1_555
C74 C75 1_555 1_555
N18 C77 1_555 1_555
C78 C79 1_555 1_555
C85 C86 1_555 1_555
C85 C90 1_555 1_555
C89 C90 1_555 1_555
C94 C95 1_555 1_555
N21 C97 1_555 1_555
C98 C99 1_555 1_555
C104 C105 1_555 1_555
N24 C107 1_555 1_555
C108 C109 1_555 1_555
C115 C116 1_555 1_555
C115 C120 1_555 1_555
C119 C120 1_555 1_555
C124 C125 1_555 1_555
N27 C127 1_555 1_555
C128 C129 1_555 1_555
C136 C137 1_555 1_555
C136 C141 1_555 1_555
C140 C141 1_555 1_555
C145 C146 1_555 1_555
N30 C148 1_555 1_555
C149 C150 1_555 1_555
C156 C157 1_555 1_555
C160 C161 1_555 1_555
C165 C166 1_555 1_555
N33 C168 1_555 1_555
N33 Co4F 1_555 1_555
C169 C170 1_555 1_555
C174 C175 1_555 1_555
N35 C180 1_555 1_555
N36 Co2F 1_555 1_555
C178 C179 1_555 1_555
C182 C187F 1_555 1_555
C182 C188F 1_555 1_555
C183 C187F 1_555 1_555
C183 C188F 1_555 1_555
C184 C188F 1_555 1_555
C184 C190F 1_555 1_555
C185 C188F 1_555 1_555
C185 C189F 1_555 1_555
C186 C188F 1_555 1_555
C186 C189F 1_555 1_555
C186 C191F 1_555 1_555
C187 C189F 1_555 1_555
C188 C189 1_555 1_555
C188 C190 1_555 1_555
C188 C181F 1_555 1_555
C188 C182F 1_555 1_555
C188 C183F 1_555 1_555
C189 C181F 1_555 1_555
C189 C185F 1_555 1_555
C189 C186F 1_555 1_555
C189 C187F 1_555 1_555
C189 C190F 1_555 1_555
C190 C183F 1_555 1_555
C190 C184F 1_555 1_555
C190 C189F 1_555 1_555
C191 C184F 1_555 1_555
C191 C186F 1_555 1_555
O13 C182F 1_555 1_555
O14 C184F 1_555 1_555
C4F C5F 1_555 1_555
N3F C7F 1_555 1_555
C8F C9F 1_555 1_555
C14F C15F 1_555 1_555
N6F C17F 1_555 1_555
C18F C19F 1_555 1_555
C25F C26F 1_555 1_555
C25F C30F 1_555 1_555
C29F C30F 1_555 1_555
C34F C35F 1_555 1_555
N9F C37F 1_555 1_555
C38F C39F 1_555 1_555
C44F C45F 1_555 1_555
N12F C47F 1_555 1_555
C48F C49F 1_555 1_555
C55F C56F 1_555 1_555
C55F C60F 1_555 1_555
C59F C60F 1_555 1_555
C64F C65F 1_555 1_555
N15F C67F 1_555 1_555
C68F C69F 1_555 1_555
C74F C75F 1_555 1_555
N18F C77F 1_555 1_555
C78F C79F 1_555 1_555
C85F C86F 1_555 1_555
C85F C90F 1_555 1_555
C89F C90F 1_555 1_555
C94F C95F 1_555 1_555
N21F C97F 1_555 1_555
C98F C99F 1_555 1_555
C104F C105F 1_555 1_555
N24F C107F 1_555 1_555
C108F C109F 1_555 1_555
C115F C116F 1_555 1_555
C115F C120F 1_555 1_555
C119F C120F 1_555 1_555
C124F C125F 1_555 1_555
N27F C127F 1_555 1_555
C128F C129F 1_555 1_555
C136F C137F 1_555 1_555
C136F C141F 1_555 1_555
C140F C141F 1_555 1_555
C145F C146F 1_555 1_555
N30F C148F 1_555 1_555
C149F C150F 1_555 1_555
C156F C157F 1_555 1_555
C160F C161F 1_555 1_555
C165F C166F 1_555 1_555
N32F N33F 1_555 1_555
N33F C168F 1_555 1_555
C169F C170F 1_555 1_555
C174F C175F 1_555 1_555
N35F C180F 1_555 1_555
N36F C177F 1_555 1_555
C178F C179F 1_555 1_555
C181F C182F 1_555 1_555
C181F C186F 1_555 1_555
C181F C190F 1_555 1_555
C182F C183F 1_555 1_555
C183F C184F 1_555 1_555
C183F C189F 1_555 1_555
C184F C185F 1_555 1_555
C185F C186F 1_555 1_555
C185F C187F 1_555 1_555
C187F C188F 1_555 1_555
C188F C189F 1_555 1_555
C188F C190F 1_555 1_555
C188F C191F 1_555 1_555
C191F O13F 1_555 1_555
C191F O14F 1_555 1_555

#END
