# generated using pymatgen
data_Co4B4H166C191N36(O7F12)2
_symmetry_space_group_name_H-M   'P 1'
_cell_length_a   23.87988158
_cell_length_b   23.87988158
_cell_length_c   41.96400000
_cell_angle_alpha   99.73842432
_cell_angle_beta   99.73842432
_cell_angle_gamma   110.00080475
_symmetry_Int_Tables_number   1
_chemical_formula_structural   Co4B4H166C191N36(O7F12)2
_chemical_formula_sum   'Co16 B16 H664 C764 N144 O56 F96'
_cell_volume   21486.57586228
_cell_formula_units_Z   4
loop_
 _symmetry_equiv_pos_site_id
 _symmetry_equiv_pos_as_xyz
  1  'x, y, z'
loop_
 _atom_site_type_symbol
 _atom_site_label
 _atom_site_symmetry_multiplicity
 _atom_site_fract_x
 _atom_site_fract_y
 _atom_site_fract_z
 _atom_site_occupancy
  B  B1  1  0.491800  0.770000  0.055500  1
  B  B2  1  0.230000  0.508200  0.444500  1
  B  B3  1  0.508200  0.230000  0.944500  1
  B  B4  1  0.770000  0.491800  0.555500  1
  B  B5  1  0.736300  0.985300  0.957600  1
  B  B6  1  0.014700  0.263700  0.542400  1
  B  B7  1  0.263700  0.014700  0.042400  1
  B  B8  1  0.985300  0.736300  0.457600  1
  B  B9  1  0.755200  0.839000  0.771800  1
  B  B10  1  0.161000  0.244800  0.728200  1
  B  B11  1  0.244800  0.161000  0.228200  1
  B  B12  1  0.839000  0.755200  0.271800  1
  B  B13  1  0.313100  0.432500  0.952100  1
  B  B14  1  0.567500  0.686900  0.547900  1
  B  B15  1  0.686900  0.567500  0.047900  1
  B  B16  1  0.432500  0.313100  0.452100  1
  C  C17  1  0.477790  0.068690  0.264510  1.0
  C  C18  1  0.931310  0.522210  0.235490  1.0
  C  C19  1  0.522210  0.931310  0.735490  1.0
  C  C20  1  0.068690  0.477790  0.764510  1.0
  C  C21  1  0.477250  0.126070  0.277320  1.0
  C  C22  1  0.873930  0.522750  0.222680  1.0
  C  C23  1  0.522750  0.873930  0.722680  1.0
  C  C24  1  0.126070  0.477250  0.777320  1.0
  C  C25  1  0.427670  0.140710  0.264880  1.0
  C  C26  1  0.859290  0.572330  0.235120  1.0
  C  C27  1  0.572330  0.859290  0.735120  1.0
  C  C28  1  0.140710  0.427670  0.764880  1.0
  C  C29  1  0.378630  0.097970  0.239640  1.0
  C  C30  1  0.902030  0.621370  0.260360  1.0
  C  C31  1  0.621370  0.902030  0.760360  1.0
  C  C32  1  0.097970  0.378630  0.739640  1.0
  C  C33  1  0.379170  0.040590  0.226840  1.0
  C  C34  1  0.959410  0.620830  0.273160  1.0
  C  C35  1  0.620830  0.959410  0.773160  1.0
  C  C36  1  0.040590  0.379170  0.726840  1.0
  C  C37  1  0.426960  0.203240  0.277380  1.0
  C  C38  1  0.796760  0.573040  0.222620  1.0
  C  C39  1  0.573040  0.796760  0.722620  1.0
  C  C40  1  0.203240  0.426960  0.777380  1.0
  C  C41  1  0.333390  0.996030  0.204560  1.0
  C  C42  1  0.003970  0.666610  0.295440  1.0
  C  C43  1  0.666610  0.003970  0.795440  1.0
  C  C44  1  0.996030  0.333390  0.704560  1.0
  C  C45  1  0.272980  0.990220  0.189850  1.0
  C  C46  1  0.009780  0.727020  0.310150  1.0
  C  C47  1  0.727020  0.009780  0.810150  1.0
  C  C48  1  0.990220  0.272980  0.689850  1.0
  C  C49  1  0.241980  0.930660  0.168040  1.0
  C  C50  1  0.069340  0.758020  0.331960  1.0
  C  C51  1  0.758020  0.069340  0.831960  1.0
  C  C52  1  0.930660  0.241980  0.668040  1.0
  C  C53  1  0.272500  0.843700  0.149390  1.0
  C  C54  1  0.156300  0.727500  0.350610  1.0
  C  C55  1  0.727500  0.156300  0.850610  1.0
  C  C56  1  0.843700  0.272500  0.649390  1.0
  C  C57  1  0.073750  0.551470  0.897000  1.0
  C  C58  1  0.448530  0.926250  0.603000  1.0
  C  C59  1  0.926250  0.448530  0.103000  1.0
  C  C60  1  0.551470  0.073750  0.397000  1.0
  C  C61  1  0.063600  0.495580  0.875880  1.0
  C  C62  1  0.504420  0.936400  0.624120  1.0
  C  C63  1  0.936400  0.504420  0.124120  1.0
  C  C64  1  0.495580  0.063600  0.375880  1.0
  C  C65  1  0.107080  0.469120  0.880040  1.0
  C  C66  1  0.530880  0.892920  0.619960  1.0
  C  C67  1  0.892920  0.530880  0.119960  1.0
  C  C68  1  0.469120  0.107080  0.380040  1.0
  C  C69  1  0.160670  0.498530  0.905330  1.0
  C  C70  1  0.501470  0.839330  0.594670  1.0
  C  C71  1  0.839330  0.501470  0.094670  1.0
  C  C72  1  0.498530  0.160670  0.405330  1.0
  C  C73  1  0.170840  0.554460  0.926460  1.0
  C  C74  1  0.445540  0.829160  0.573540  1.0
  C  C75  1  0.829160  0.445540  0.073540  1.0
  C  C76  1  0.554460  0.170840  0.426460  1.0
  C  C77  1  0.091000  0.408400  0.852700  1.0
  C  C78  1  0.591600  0.909000  0.647300  1.0
  C  C79  1  0.909000  0.591600  0.147300  1.0
  C  C80  1  0.408400  0.091000  0.352700  1.0
  C  C81  1  0.221830  0.588250  0.950570  1.0
  C  C82  1  0.411750  0.778170  0.549430  1.0
  C  C83  1  0.778170  0.411750  0.049430  1.0
  C  C84  1  0.588250  0.221830  0.450570  1.0
  C  C85  1  0.275770  0.577510  0.962080  1.0
  C  C86  1  0.422490  0.724230  0.537920  1.0
  C  C87  1  0.724230  0.422490  0.037920  1.0
  C  C88  1  0.577510  0.275770  0.462080  1.0
  C  C89  1  0.317520  0.630560  0.986790  1.0
  C  C90  1  0.369440  0.682480  0.513210  1.0
  C  C91  1  0.682480  0.369440  0.013210  1.0
  C  C92  1  0.630560  0.317520  0.486790  1.0
  C  C93  1  0.310210  0.731390  0.011540  1.0
  C  C94  1  0.268610  0.689790  0.488460  1.0
  C  C95  1  0.689790  0.268610  0.988460  1.0
  C  C96  1  0.731390  0.310210  0.511540  1.0
  C  C97  1  0.293420  0.842920  0.117600  1.0
  C  C98  1  0.157080  0.706580  0.382400  1.0
  C  C99  1  0.706580  0.157080  0.882400  1.0
  C  C100  1  0.842920  0.293420  0.617600  1.0
  C  C101  1  0.318020  0.897840  0.108450  1.0
  C  C102  1  0.102160  0.681980  0.391550  1.0
  C  C103  1  0.681980  0.102160  0.891550  1.0
  C  C104  1  0.897840  0.318020  0.608450  1.0
  C  C105  1  0.334580  0.897540  0.078240  1.0
  C  C106  1  0.102460  0.665420  0.421760  1.0
  C  C107  1  0.665420  0.102460  0.921760  1.0
  C  C108  1  0.897540  0.334580  0.578240  1.0
  C  C109  1  0.326550  0.842310  0.057180  1.0
  C  C110  1  0.157690  0.673450  0.442820  1.0
  C  C111  1  0.673450  0.157690  0.942820  1.0
  C  C112  1  0.842310  0.326550  0.557180  1.0
  C  C113  1  0.301950  0.787390  0.066330  1.0
  C  C114  1  0.212610  0.698050  0.433670  1.0
  C  C115  1  0.698050  0.212610  0.933670  1.0
  C  C116  1  0.787390  0.301950  0.566330  1.0
  C  C117  1  0.285380  0.787700  0.096540  1.0
  C  C118  1  0.212300  0.714620  0.403460  1.0
  C  C119  1  0.714620  0.212300  0.903460  1.0
  C  C120  1  0.787700  0.285380  0.596540  1.0
  C  C121  1  0.260780  0.732780  0.105690  1.0
  C  C122  1  0.267220  0.739220  0.394310  1.0
  C  C123  1  0.739220  0.267220  0.894310  1.0
  C  C124  1  0.732780  0.260780  0.605690  1.0
  C  C125  1  0.252750  0.677550  0.084630  1.0
  C  C126  1  0.322450  0.747250  0.415370  1.0
  C  C127  1  0.747250  0.322450  0.915370  1.0
  C  C128  1  0.677550  0.252750  0.584630  1.0
  C  C129  1  0.269310  0.677250  0.054420  1.0
  C  C130  1  0.322750  0.730690  0.445580  1.0
  C  C131  1  0.730690  0.322750  0.945580  1.0
  C  C132  1  0.677250  0.269310  0.554420  1.0
  C  C133  1  0.293910  0.732170  0.045270  1.0
  C  C134  1  0.267830  0.706090  0.454730  1.0
  C  C135  1  0.706090  0.267830  0.954730  1.0
  C  C136  1  0.732170  0.293910  0.545270  1.0
  C  C137  1  0.010810  0.644330  0.948280  1.0
  C  C138  1  0.355670  0.989190  0.551720  1.0
  C  C139  1  0.989190  0.355670  0.051720  1.0
  C  C140  1  0.644330  0.010810  0.448280  1.0
  C  C141  1  0.954570  0.640190  0.930110  1.0
  C  C142  1  0.359810  0.045430  0.569890  1.0
  C  C143  1  0.045430  0.359810  0.069890  1.0
  C  C144  1  0.640190  0.954570  0.430110  1.0
  C  C145  1  0.951390  0.661610  0.901330  1.0
  C  C146  1  0.338390  0.048610  0.598670  1.0
  C  C147  1  0.048610  0.338390  0.098670  1.0
  C  C148  1  0.661610  0.951390  0.401330  1.0
  C  C149  1  0.004530  0.687270  0.890710  1.0
  C  C150  1  0.312730  0.995470  0.609290  1.0
  C  C151  1  0.995470  0.312730  0.109290  1.0
  C  C152  1  0.687270  0.004530  0.390710  1.0
  C  C153  1  0.060730  0.691370  0.908870  1.0
  C  C154  1  0.308630  0.939270  0.591130  1.0
  C  C155  1  0.939270  0.308630  0.091130  1.0
  C  C156  1  0.691370  0.060730  0.408870  1.0
  C  C157  1  0.891800  0.657800  0.879700  1.0
  C  C158  1  0.342200  0.108200  0.620300  1.0
  C  C159  1  0.108200  0.342200  0.120300  1.0
  C  C160  1  0.657800  0.891800  0.379700  1.0
  C  C161  1  0.111860  0.712540  0.899370  1.0
  C  C162  1  0.287460  0.888140  0.600630  1.0
  C  C163  1  0.888140  0.287460  0.100630  1.0
  C  C164  1  0.712540  0.111860  0.399370  1.0
  C  C165  1  0.127890  0.739710  0.872920  1.0
  C  C166  1  0.260290  0.872110  0.627080  1.0
  C  C167  1  0.872110  0.260290  0.127080  1.0
  C  C168  1  0.739710  0.127890  0.372920  1.0
  C  C169  1  0.192320  0.757660  0.876930  1.0
  C  C170  1  0.242340  0.807680  0.623070  1.0
  C  C171  1  0.807680  0.242340  0.123070  1.0
  C  C172  1  0.757660  0.192320  0.376930  1.0
  C  C173  1  0.273620  0.743780  0.917280  1.0
  C  C174  1  0.256220  0.726380  0.582720  1.0
  C  C175  1  0.726380  0.256220  0.082720  1.0
  C  C176  1  0.743780  0.273620  0.417280  1.0
  C  C177  1  0.699760  0.665900  0.902720  1.0
  C  C178  1  0.334100  0.300240  0.597280  1.0
  C  C179  1  0.300240  0.334100  0.097280  1.0
  C  C180  1  0.665900  0.699760  0.402720  1.0
  C  C181  1  0.750560  0.670520  0.926360  1.0
  C  C182  1  0.329480  0.249440  0.573640  1.0
  C  C183  1  0.249440  0.329480  0.073640  1.0
  C  C184  1  0.670520  0.750560  0.426360  1.0
  C  C185  1  0.742800  0.650780  0.955210  1.0
  C  C186  1  0.349220  0.257200  0.544790  1.0
  C  C187  1  0.257200  0.349220  0.044790  1.0
  C  C188  1  0.650780  0.742800  0.455210  1.0
  C  C189  1  0.684240  0.626420  0.960430  1.0
  C  C190  1  0.373580  0.315760  0.539570  1.0
  C  C191  1  0.315760  0.373580  0.039570  1.0
  C  C192  1  0.626420  0.684240  0.460430  1.0
  C  C193  1  0.633440  0.621800  0.936800  1.0
  C  C194  1  0.378200  0.366560  0.563200  1.0
  C  C195  1  0.366560  0.378200  0.063200  1.0
  C  C196  1  0.621800  0.633440  0.436800  1.0
  C  C197  1  0.796480  0.656120  0.982200  1.0
  C  C198  1  0.343880  0.203520  0.517800  1.0
  C  C199  1  0.203520  0.343880  0.017800  1.0
  C  C200  1  0.656120  0.796480  0.482200  1.0
  C  C201  1  0.576860  0.598500  0.941110  1.0
  C  C202  1  0.401500  0.423140  0.558890  1.0
  C  C203  1  0.423140  0.401500  0.058890  1.0
  C  C204  1  0.598500  0.576860  0.441110  1.0
  C  C205  1  0.549850  0.565550  0.963410  1.0
  C  C206  1  0.434450  0.450150  0.536590  1.0
  C  C207  1  0.450150  0.434450  0.036590  1.0
  C  C208  1  0.565550  0.549850  0.463410  1.0
  C  C209  1  0.485060  0.546080  0.952480  1.0
  C  C210  1  0.453920  0.514940  0.547520  1.0
  C  C211  1  0.514940  0.453920  0.047520  1.0
  C  C212  1  0.546080  0.485060  0.452480  1.0
  C  C213  1  0.415130  0.565670  0.907170  1.0
  C  C214  1  0.434330  0.584870  0.592830  1.0
  C  C215  1  0.584870  0.434330  0.092830  1.0
  C  C216  1  0.565670  0.415130  0.407170  1.0
  C  C217  1  0.285840  0.688220  0.903690  1.0
  C  C218  1  0.311780  0.714160  0.596310  1.0
  C  C219  1  0.714160  0.311780  0.096310  1.0
  C  C220  1  0.688220  0.285840  0.403690  1.0
  C  C221  1  0.241120  0.640980  0.878310  1.0
  C  C222  1  0.359020  0.758880  0.621690  1.0
  C  C223  1  0.758880  0.359020  0.121690  1.0
  C  C224  1  0.640980  0.241120  0.378310  1.0
  C  C225  1  0.250610  0.587710  0.866680  1.0
  C  C226  1  0.412290  0.749390  0.633320  1.0
  C  C227  1  0.749390  0.412290  0.133320  1.0
  C  C228  1  0.587710  0.250610  0.366680  1.0
  C  C229  1  0.304830  0.581690  0.880420  1.0
  C  C230  1  0.418310  0.695170  0.619580  1.0
  C  C231  1  0.695170  0.418310  0.119580  1.0
  C  C232  1  0.581690  0.304830  0.380420  1.0
  C  C233  1  0.349550  0.628930  0.905800  1.0
  C  C234  1  0.371070  0.650450  0.594200  1.0
  C  C235  1  0.650450  0.371070  0.094200  1.0
  C  C236  1  0.628930  0.349550  0.405800  1.0
  C  C237  1  0.340060  0.682200  0.917430  1.0
  C  C238  1  0.317800  0.659940  0.582570  1.0
  C  C239  1  0.659940  0.317800  0.082570  1.0
  C  C240  1  0.682200  0.340060  0.417430  1.0
  C  C241  1  0.384790  0.729450  0.942810  1.0
  C  C242  1  0.270550  0.615210  0.557190  1.0
  C  C243  1  0.615210  0.270550  0.057190  1.0
  C  C244  1  0.729450  0.384790  0.442810  1.0
  C  C245  1  0.439000  0.723440  0.956550  1.0
  C  C246  1  0.276560  0.561000  0.543450  1.0
  C  C247  1  0.561000  0.276560  0.043450  1.0
  C  C248  1  0.723440  0.439000  0.456550  1.0
  C  C249  1  0.448490  0.670170  0.944920  1.0
  C  C250  1  0.329830  0.551510  0.555080  1.0
  C  C251  1  0.551510  0.329830  0.055080  1.0
  C  C252  1  0.670170  0.448490  0.444920  1.0
  C  C253  1  0.403760  0.622920  0.919540  1.0
  C  C254  1  0.377080  0.596240  0.580460  1.0
  C  C255  1  0.596240  0.377080  0.080460  1.0
  C  C256  1  0.622920  0.403760  0.419540  1.0
  C  C257  1  0.430010  0.582150  0.823860  1.0
  C  C258  1  0.417850  0.569990  0.676140  1.0
  C  C259  1  0.569990  0.417850  0.176140  1.0
  C  C260  1  0.582150  0.430010  0.323860  1.0
  C  C261  1  0.375680  0.586400  0.808670  1.0
  C  C262  1  0.413600  0.624320  0.691330  1.0
  C  C263  1  0.624320  0.413600  0.191330  1.0
  C  C264  1  0.586400  0.375680  0.308670  1.0
  C  C265  1  0.365670  0.640250  0.817800  1.0
  C  C266  1  0.359750  0.634330  0.682200  1.0
  C  C267  1  0.634330  0.359750  0.182200  1.0
  C  C268  1  0.640250  0.365670  0.317800  1.0
  C  C269  1  0.410010  0.689850  0.842100  1.0
  C  C270  1  0.310150  0.589990  0.657900  1.0
  C  C271  1  0.589990  0.310150  0.157900  1.0
  C  C272  1  0.689850  0.410010  0.342100  1.0
  C  C273  1  0.464340  0.685600  0.857290  1.0
  C  C274  1  0.314400  0.535660  0.642710  1.0
  C  C275  1  0.535660  0.314400  0.142710  1.0
  C  C276  1  0.685600  0.464340  0.357290  1.0
  C  C277  1  0.306720  0.645280  0.801700  1.0
  C  C278  1  0.354720  0.693280  0.698300  1.0
  C  C279  1  0.693280  0.354720  0.198300  1.0
  C  C280  1  0.645280  0.306720  0.301700  1.0
  C  C281  1  0.509780  0.732240  0.879270  1.0
  C  C282  1  0.267760  0.490220  0.620730  1.0
  C  C283  1  0.490220  0.267760  0.120730  1.0
  C  C284  1  0.732240  0.509780  0.379270  1.0
  C  C285  1  0.515500  0.793080  0.893000  1.0
  C  C286  1  0.206920  0.484500  0.607000  1.0
  C  C287  1  0.484500  0.206920  0.107000  1.0
  C  C288  1  0.793080  0.515500  0.393000  1.0
  C  C289  1  0.575130  0.824990  0.914570  1.0
  C  C290  1  0.175010  0.424870  0.585430  1.0
  C  C291  1  0.424870  0.175010  0.085430  1.0
  C  C292  1  0.824990  0.575130  0.414570  1.0
  C  C293  1  0.663260  0.793940  0.932200  1.0
  C  C294  1  0.206060  0.336740  0.567800  1.0
  C  C295  1  0.336740  0.206060  0.067800  1.0
  C  C296  1  0.793940  0.663260  0.432200  1.0
  C  C297  1  0.977450  0.986150  0.180400  1.0
  C  C298  1  0.013850  0.022550  0.319600  1.0
  C  C299  1  0.022550  0.013850  0.819600  1.0
  C  C300  1  0.986150  0.977450  0.680400  1.0
  C  C301  1  0.034700  0.988900  0.196300  1.0
  C  C302  1  0.011100  0.965300  0.303700  1.0
  C  C303  1  0.965300  0.011100  0.803700  1.0
  C  C304  1  0.988900  0.034700  0.696300  1.0
  C  C305  1  0.050600  0.938200  0.189400  1.0
  C  C306  1  0.061800  0.949400  0.310600  1.0
  C  C307  1  0.949400  0.061800  0.810600  1.0
  C  C308  1  0.938200  0.050600  0.689400  1.0
  C  C309  1  0.009240  0.884560  0.166600  1.0
  C  C310  1  0.115440  0.990760  0.333400  1.0
  C  C311  1  0.990760  0.115440  0.833400  1.0
  C  C312  1  0.884560  0.009240  0.666600  1.0
  C  C313  1  0.952000  0.881800  0.150630  1.0
  C  C314  1  0.118200  0.048000  0.349370  1.0
  C  C315  1  0.048000  0.118200  0.849370  1.0
  C  C316  1  0.881800  0.952000  0.650630  1.0
  C  C317  1  0.115700  0.939900  0.207300  1.0
  C  C318  1  0.060100  0.884300  0.292700  1.0
  C  C319  1  0.884300  0.060100  0.792700  1.0
  C  C320  1  0.939900  0.115700  0.707300  1.0
  C  C321  1  0.913740  0.832460  0.130100  1.0
  C  C322  1  0.167540  0.086260  0.369900  1.0
  C  C323  1  0.086260  0.167540  0.869900  1.0
  C  C324  1  0.832460  0.913740  0.630100  1.0
  C  C325  1  0.914950  0.773850  0.117760  1.0
  C  C326  1  0.226150  0.085050  0.382240  1.0
  C  C327  1  0.085050  0.226150  0.882240  1.0
  C  C328  1  0.773850  0.914950  0.617760  1.0
  C  C329  1  0.857610  0.736990  0.094870  1.0
  C  C330  1  0.263010  0.142390  0.405130  1.0
  C  C331  1  0.142390  0.263010  0.905130  1.0
  C  C332  1  0.736990  0.857610  0.594870  1.0
  C  C333  1  0.766000  0.760800  0.072500  1.0
  C  C334  1  0.239200  0.234000  0.427500  1.0
  C  C335  1  0.234000  0.239200  0.927500  1.0
  C  C336  1  0.760800  0.766000  0.572500  1.0
  C  C337  1  0.663520  0.777120  0.965840  1.0
  C  C338  1  0.222880  0.336480  0.534160  1.0
  C  C339  1  0.336480  0.222880  0.034160  1.0
  C  C340  1  0.777120  0.663520  0.465840  1.0
  C  C341  1  0.607160  0.748780  0.972810  1.0
  C  C342  1  0.251220  0.392840  0.527190  1.0
  C  C343  1  0.392840  0.251220  0.027190  1.0
  C  C344  1  0.748780  0.607160  0.472810  1.0
  C  C345  1  0.605010  0.730710  0.002520  1.0
  C  C346  1  0.269290  0.394990  0.497480  1.0
  C  C347  1  0.394990  0.269290  0.997480  1.0
  C  C348  1  0.730710  0.605010  0.502520  1.0
  C  C349  1  0.659210  0.740990  0.025260  1.0
  C  C350  1  0.259010  0.340790  0.474740  1.0
  C  C351  1  0.340790  0.259010  0.974740  1.0
  C  C352  1  0.740990  0.659210  0.525260  1.0
  C  C353  1  0.715570  0.769350  0.018290  1.0
  C  C354  1  0.230650  0.284430  0.481710  1.0
  C  C355  1  0.284430  0.230650  0.981710  1.0
  C  C356  1  0.769350  0.715570  0.518290  1.0
  C  C357  1  0.717730  0.787410  0.988580  1.0
  C  C358  1  0.212590  0.282270  0.511420  1.0
  C  C359  1  0.282270  0.212590  0.011420  1.0
  C  C360  1  0.787410  0.717730  0.488580  1.0
  C  C361  1  0.774080  0.815760  0.981610  1.0
  C  C362  1  0.184240  0.225920  0.518390  1.0
  C  C363  1  0.225920  0.184240  0.018390  1.0
  C  C364  1  0.815760  0.774080  0.481610  1.0
  C  C365  1  0.828290  0.826050  0.004350  1.0
  C  C366  1  0.173950  0.171710  0.495650  1.0
  C  C367  1  0.171710  0.173950  0.995650  1.0
  C  C368  1  0.826050  0.828290  0.504350  1.0
  C  C369  1  0.826140  0.807980  0.034070  1.0
  C  C370  1  0.192020  0.173860  0.465930  1.0
  C  C371  1  0.173860  0.192020  0.965930  1.0
  C  C372  1  0.807980  0.826140  0.534070  1.0
  C  C373  1  0.769770  0.779630  0.041040  1.0
  C  C374  1  0.220370  0.230230  0.458960  1.0
  C  C375  1  0.230230  0.220370  0.958960  1.0
  C  C376  1  0.779630  0.769770  0.541040  1.0
  C  C377  1  0.934990  0.974570  0.089310  1.0
  C  C378  1  0.025430  0.065010  0.410690  1.0
  C  C379  1  0.065010  0.025430  0.910690  1.0
  C  C380  1  0.974570  0.934990  0.589310  1.0
  C  C381  1  0.949350  0.996830  0.061970  1.0
  C  C382  1  0.003170  0.050650  0.438030  1.0
  C  C383  1  0.050650  0.003170  0.938030  1.0
  C  C384  1  0.996830  0.949350  0.561970  1.0
  C  C385  1  0.902850  0.995750  0.036670  1.0
  C  C386  1  0.004250  0.097150  0.463330  1.0
  C  C387  1  0.097150  0.004250  0.963330  1.0
  C  C388  1  0.995750  0.902850  0.536670  1.0
  C  C389  1  0.842060  0.972440  0.038710  1.0
  C  C390  1  0.027560  0.157940  0.461290  1.0
  C  C391  1  0.157940  0.027560  0.961290  1.0
  C  C392  1  0.972440  0.842060  0.538710  1.0
  C  C393  1  0.827710  0.950170  0.066060  1.0
  C  C394  1  0.049830  0.172290  0.433940  1.0
  C  C395  1  0.172290  0.049830  0.933940  1.0
  C  C396  1  0.950170  0.827710  0.566060  1.0
  C  C397  1  0.916900  0.021500  0.007400  1.0
  C  C398  1  0.978500  0.083100  0.492600  1.0
  C  C399  1  0.083100  0.978500  0.992600  1.0
  C  C400  1  0.021500  0.916900  0.507400  1.0
  C  C401  1  0.769710  0.925010  0.068400  1.0
  C  C402  1  0.074990  0.230290  0.431600  1.0
  C  C403  1  0.230290  0.074990  0.931600  1.0
  C  C404  1  0.925010  0.769710  0.568400  1.0
  C  C405  1  0.712190  0.912010  0.046390  1.0
  C  C406  1  0.087990  0.287810  0.453610  1.0
  C  C407  1  0.287810  0.087990  0.953610  1.0
  C  C408  1  0.912010  0.712190  0.546390  1.0
  C  C409  1  0.665060  0.879300  0.060580  1.0
  C  C410  1  0.120700  0.334940  0.439420  1.0
  C  C411  1  0.334940  0.120700  0.939420  1.0
  C  C412  1  0.879300  0.665060  0.560580  1.0
  C  C413  1  0.664970  0.851430  0.115210  1.0
  C  C414  1  0.148570  0.335030  0.384790  1.0
  C  C415  1  0.335030  0.148570  0.884790  1.0
  C  C416  1  0.851430  0.664970  0.615210  1.0
  C  C417  1  0.318080  0.872920  0.251200  1.0
  C  C418  1  0.127080  0.681920  0.248800  1.0
  C  C419  1  0.681920  0.127080  0.748800  1.0
  C  C420  1  0.872920  0.318080  0.751200  1.0
  C  C421  1  0.296240  0.844560  0.275410  1.0
  C  C422  1  0.155440  0.703760  0.224590  1.0
  C  C423  1  0.703760  0.155440  0.724590  1.0
  C  C424  1  0.844560  0.296240  0.775410  1.0
  C  C425  1  0.337290  0.842710  0.302580  1.0
  C  C426  1  0.157290  0.662710  0.197420  1.0
  C  C427  1  0.662710  0.157290  0.697420  1.0
  C  C428  1  0.842710  0.337290  0.802580  1.0
  C  C429  1  0.400180  0.869220  0.305540  1.0
  C  C430  1  0.130780  0.599820  0.194460  1.0
  C  C431  1  0.599820  0.130780  0.694460  1.0
  C  C432  1  0.869220  0.400180  0.805540  1.0
  C  C433  1  0.422020  0.897580  0.281330  1.0
  C  C434  1  0.102420  0.577980  0.218670  1.0
  C  C435  1  0.577980  0.102420  0.718670  1.0
  C  C436  1  0.897580  0.422020  0.781330  1.0
  C  C437  1  0.316400  0.810000  0.328200  1.0
  C  C438  1  0.190000  0.683600  0.171800  1.0
  C  C439  1  0.683600  0.190000  0.671800  1.0
  C  C440  1  0.810000  0.316400  0.828200  1.0
  C  C441  1  0.480760  0.921240  0.282780  1.0
  C  C442  1  0.078760  0.519240  0.217220  1.0
  C  C443  1  0.519240  0.078760  0.717220  1.0
  C  C444  1  0.921240  0.480760  0.782780  1.0
  C  C445  1  0.535010  0.930790  0.306680  1.0
  C  C446  1  0.069210  0.464990  0.193320  1.0
  C  C447  1  0.464990  0.069210  0.693320  1.0
  C  C448  1  0.930790  0.535010  0.806680  1.0
  C  C449  1  0.586080  0.957120  0.293480  1.0
  C  C450  1  0.042880  0.413920  0.206520  1.0
  C  C451  1  0.413920  0.042880  0.706520  1.0
  C  C452  1  0.957120  0.586080  0.793480  1.0
  C  C453  1  0.592730  0.979470  0.237900  1.0
  C  C454  1  0.020530  0.407270  0.262100  1.0
  C  C455  1  0.407270  0.020530  0.762100  1.0
  C  C456  1  0.979470  0.592730  0.737900  1.0
  C  C457  1  0.655010  0.901670  0.138990  1.0
  C  C458  1  0.098330  0.344990  0.361010  1.0
  C  C459  1  0.344990  0.098330  0.861010  1.0
  C  C460  1  0.901670  0.655010  0.638990  1.0
  C  C461  1  0.679160  0.961460  0.135420  1.0
  C  C462  1  0.038540  0.320840  0.364580  1.0
  C  C463  1  0.320840  0.038540  0.864580  1.0
  C  C464  1  0.961460  0.679160  0.635420  1.0
  C  C465  1  0.674780  0.009240  0.157570  1.0
  C  C466  1  0.990760  0.325220  0.342430  1.0
  C  C467  1  0.325220  0.990760  0.842430  1.0
  C  C468  1  0.009240  0.674780  0.657570  1.0
  C  C469  1  0.646240  0.997220  0.183290  1.0
  C  C470  1  0.002780  0.353760  0.316710  1.0
  C  C471  1  0.353760  0.002780  0.816710  1.0
  C  C472  1  0.997220  0.646240  0.683290  1.0
  C  C473  1  0.622080  0.937420  0.186870  1.0
  C  C474  1  0.062580  0.377920  0.313130  1.0
  C  C475  1  0.377920  0.062580  0.813130  1.0
  C  C476  1  0.937420  0.622080  0.686870  1.0
  C  C477  1  0.626460  0.889660  0.164720  1.0
  C  C478  1  0.110340  0.373540  0.335280  1.0
  C  C479  1  0.373540  0.110340  0.835280  1.0
  C  C480  1  0.889660  0.626460  0.664720  1.0
  C  C481  1  0.602310  0.829870  0.168290  1.0
  C  C482  1  0.170130  0.397690  0.331710  1.0
  C  C483  1  0.397690  0.170130  0.831710  1.0
  C  C484  1  0.829870  0.602310  0.668290  1.0
  C  C485  1  0.573770  0.817850  0.194010  1.0
  C  C486  1  0.182150  0.426230  0.305990  1.0
  C  C487  1  0.426230  0.182150  0.805990  1.0
  C  C488  1  0.817850  0.573770  0.694010  1.0
  C  C489  1  0.569380  0.865620  0.216160  1.0
  C  C490  1  0.134380  0.430620  0.283840  1.0
  C  C491  1  0.430620  0.134380  0.783840  1.0
  C  C492  1  0.865620  0.569380  0.716160  1.0
  C  C493  1  0.593540  0.925400  0.212590  1.0
  C  C494  1  0.074600  0.406460  0.287410  1.0
  C  C495  1  0.406460  0.074600  0.787410  1.0
  C  C496  1  0.925400  0.593540  0.712590  1.0
  C  C497  1  0.097710  0.558390  0.992340  1.0
  C  C498  1  0.441610  0.902290  0.507660  1.0
  C  C499  1  0.902290  0.441610  0.007660  1.0
  C  C500  1  0.558390  0.097710  0.492340  1.0
  C  C501  1  0.077220  0.534300  0.018070  1.0
  C  C502  1  0.465700  0.922780  0.481930  1.0
  C  C503  1  0.922780  0.465700  0.981930  1.0
  C  C504  1  0.534300  0.077220  0.518070  1.0
  C  C505  1  0.077560  0.573240  0.046810  1.0
  C  C506  1  0.426760  0.922440  0.453190  1.0
  C  C507  1  0.922440  0.426760  0.953190  1.0
  C  C508  1  0.573240  0.077560  0.546810  1.0
  C  C509  1  0.098380  0.636300  0.049830  1.0
  C  C510  1  0.363700  0.901620  0.450170  1.0
  C  C511  1  0.901620  0.363700  0.950170  1.0
  C  C512  1  0.636300  0.098380  0.549830  1.0
  C  C513  1  0.118870  0.660390  0.024100  1.0
  C  C514  1  0.339610  0.881130  0.475900  1.0
  C  C515  1  0.881130  0.339610  0.975900  1.0
  C  C516  1  0.660390  0.118870  0.524100  1.0
  C  C517  1  0.052700  0.548500  0.074700  1.0
  C  C518  1  0.451500  0.947300  0.425300  1.0
  C  C519  1  0.947300  0.451500  0.925300  1.0
  C  C520  1  0.548500  0.052700  0.574700  1.0
  C  C521  1  0.142900  0.720320  0.026060  1.0
  C  C522  1  0.279680  0.857100  0.473940  1.0
  C  C523  1  0.857100  0.279680  0.973940  1.0
  C  C524  1  0.720320  0.142900  0.526060  1.0
  C  C525  1  0.150210  0.773030  0.050460  1.0
  C  C526  1  0.226970  0.849790  0.449540  1.0
  C  C527  1  0.849790  0.226970  0.949540  1.0
  C  C528  1  0.773030  0.150210  0.550460  1.0
  C  C529  1  0.178030  0.825770  0.038760  1.0
  C  C530  1  0.174230  0.821970  0.461240  1.0
  C  C531  1  0.821970  0.174230  0.961240  1.0
  C  C532  1  0.825770  0.178030  0.538760  1.0
  C  C533  1  0.212050  0.838350  0.985670  1.0
  C  C534  1  0.161650  0.787950  0.514330  1.0
  C  C535  1  0.787950  0.161650  0.014330  1.0
  C  C536  1  0.838350  0.212050  0.485670  1.0
  C  C537  1  0.105300  0.913700  0.859510  1.0
  C  C538  1  0.086300  0.894700  0.640490  1.0
  C  C539  1  0.894700  0.086300  0.140490  1.0
  C  C540  1  0.913700  0.105300  0.359510  1.0
  C  C541  1  0.163770  0.846950  0.960570  1.0
  C  C542  1  0.153050  0.836230  0.539430  1.0
  C  C543  1  0.836230  0.153050  0.039430  1.0
  C  C544  1  0.846950  0.163770  0.460570  1.0
  C  C545  1  0.103180  0.827640  0.963180  1.0
  C  C546  1  0.172360  0.896820  0.536820  1.0
  C  C547  1  0.896820  0.172360  0.036820  1.0
  C  C548  1  0.827640  0.103180  0.463180  1.0
  C  C549  1  0.058650  0.833910  0.939650  1.0
  C  C550  1  0.166090  0.941350  0.560350  1.0
  C  C551  1  0.941350  0.166090  0.060350  1.0
  C  C552  1  0.833910  0.058650  0.439650  1.0
  C  C553  1  0.074700  0.859500  0.913510  1.0
  C  C554  1  0.140500  0.925300  0.586490  1.0
  C  C555  1  0.925300  0.140500  0.086490  1.0
  C  C556  1  0.859500  0.074700  0.413510  1.0
  C  C557  1  0.135270  0.878810  0.910900  1.0
  C  C558  1  0.121190  0.864730  0.589100  1.0
  C  C559  1  0.864730  0.121190  0.089100  1.0
  C  C560  1  0.878810  0.135270  0.410900  1.0
  C  C561  1  0.179810  0.872530  0.934430  1.0
  C  C562  1  0.127470  0.820190  0.565570  1.0
  C  C563  1  0.820190  0.127470  0.065570  1.0
  C  C564  1  0.872530  0.179810  0.434430  1.0
  C  C565  1  0.240400  0.891840  0.931820  1.0
  C  C566  1  0.108160  0.759600  0.568180  1.0
  C  C567  1  0.759600  0.108160  0.068180  1.0
  C  C568  1  0.891840  0.240400  0.431820  1.0
  C  C569  1  0.256450  0.917430  0.905680  1.0
  C  C570  1  0.082570  0.743550  0.594320  1.0
  C  C571  1  0.743550  0.082570  0.094320  1.0
  C  C572  1  0.917430  0.256450  0.405680  1.0
  C  C573  1  0.211920  0.923700  0.882150  1.0
  C  C574  1  0.076300  0.788080  0.617850  1.0
  C  C575  1  0.788080  0.076300  0.117850  1.0
  C  C576  1  0.923700  0.211920  0.382150  1.0
  C  C577  1  0.151330  0.904390  0.884760  1.0
  C  C578  1  0.095610  0.848670  0.615240  1.0
  C  C579  1  0.848670  0.095610  0.115240  1.0
  C  C580  1  0.904390  0.151330  0.384760  1.0
  C  C581  1  0.393570  0.796390  0.195910  1.0
  C  C582  1  0.203610  0.606430  0.304090  1.0
  C  C583  1  0.606430  0.203610  0.804090  1.0
  C  C584  1  0.796390  0.393570  0.695910  1.0
  C  C585  1  0.390920  0.743300  0.174980  1.0
  C  C586  1  0.256700  0.609080  0.325020  1.0
  C  C587  1  0.609080  0.256700  0.825020  1.0
  C  C588  1  0.743300  0.390920  0.674980  1.0
  C  C589  1  0.412040  0.746560  0.146170  1.0
  C  C590  1  0.253440  0.587960  0.353830  1.0
  C  C591  1  0.587960  0.253440  0.853830  1.0
  C  C592  1  0.746560  0.412040  0.646170  1.0
  C  C593  1  0.435750  0.802850  0.138300  1.0
  C  C594  1  0.197150  0.564250  0.361700  1.0
  C  C595  1  0.564250  0.197150  0.861700  1.0
  C  C596  1  0.802850  0.435750  0.638300  1.0
  C  C597  1  0.438410  0.855950  0.159230  1.0
  C  C598  1  0.144050  0.561590  0.340770  1.0
  C  C599  1  0.561590  0.144050  0.840770  1.0
  C  C600  1  0.855950  0.438410  0.659230  1.0
  C  C601  1  0.408600  0.691200  0.122200  1.0
  C  C602  1  0.308800  0.591400  0.377800  1.0
  C  C603  1  0.591400  0.308800  0.877800  1.0
  C  C604  1  0.691200  0.408600  0.622200  1.0
  C  C605  1  0.463410  0.911710  0.153960  1.0
  C  C606  1  0.088290  0.536590  0.346040  1.0
  C  C607  1  0.536590  0.088290  0.846040  1.0
  C  C608  1  0.911710  0.463410  0.653960  1.0
  C  C609  1  0.491980  0.933060  0.128900  1.0
  C  C610  1  0.066940  0.508020  0.371100  1.0
  C  C611  1  0.508020  0.066940  0.871100  1.0
  C  C612  1  0.933060  0.491980  0.628900  1.0
  C  C613  1  0.516050  0.998310  0.138020  1.0
  C  C614  1  0.001690  0.483950  0.361980  1.0
  C  C615  1  0.483950  0.001690  0.861980  1.0
  C  C616  1  0.998310  0.516050  0.638020  1.0
  C  C617  1  0.509790  0.075410  0.183500  1.0
  C  C618  1  0.924590  0.490210  0.316500  1.0
  C  C619  1  0.490210  0.924590  0.816500  1.0
  C  C620  1  0.075410  0.509790  0.683500  1.0
  C  C621  1  0.458410  0.095790  0.170550  1.0
  C  C622  1  0.904210  0.541590  0.329450  1.0
  C  C623  1  0.541590  0.904210  0.829450  1.0
  C  C624  1  0.095790  0.458410  0.670550  1.0
  C  C625  1  0.406360  0.052340  0.147430  1.0
  C  C626  1  0.947660  0.593640  0.352570  1.0
  C  C627  1  0.593640  0.947660  0.852570  1.0
  C  C628  1  0.052340  0.406360  0.647430  1.0
  C  C629  1  0.357300  0.068260  0.135690  1.0
  C  C630  1  0.931740  0.642700  0.364310  1.0
  C  C631  1  0.642700  0.931740  0.864310  1.0
  C  C632  1  0.068260  0.357300  0.635690  1.0
  C  C633  1  0.360280  0.127600  0.147080  1.0
  C  C634  1  0.872400  0.639720  0.352920  1.0
  C  C635  1  0.639720  0.872400  0.852920  1.0
  C  C636  1  0.127600  0.360280  0.647080  1.0
  C  C637  1  0.412340  0.171040  0.170200  1.0
  C  C638  1  0.828960  0.587660  0.329800  1.0
  C  C639  1  0.587660  0.828960  0.829800  1.0
  C  C640  1  0.171040  0.412340  0.670200  1.0
  C  C641  1  0.461390  0.155130  0.181940  1.0
  C  C642  1  0.844870  0.538610  0.318060  1.0
  C  C643  1  0.538610  0.844870  0.818060  1.0
  C  C644  1  0.155130  0.461390  0.681940  1.0
  C  C645  1  0.513440  0.198560  0.205070  1.0
  C  C646  1  0.801440  0.486560  0.294930  1.0
  C  C647  1  0.486560  0.801440  0.794930  1.0
  C  C648  1  0.198560  0.513440  0.705070  1.0
  C  C649  1  0.516430  0.257910  0.216460  1.0
  C  C650  1  0.742090  0.483570  0.283540  1.0
  C  C651  1  0.483570  0.742090  0.783540  1.0
  C  C652  1  0.257910  0.516430  0.716460  1.0
  C  C653  1  0.467380  0.273820  0.204720  1.0
  C  C654  1  0.726180  0.532620  0.295280  1.0
  C  C655  1  0.532620  0.726180  0.795280  1.0
  C  C656  1  0.273820  0.467380  0.704720  1.0
  C  C657  1  0.415320  0.230380  0.181590  1.0
  C  C658  1  0.769620  0.584680  0.318410  1.0
  C  C659  1  0.584680  0.769620  0.818410  1.0
  C  C660  1  0.230380  0.415320  0.681590  1.0
  C  C661  1  0.218510  0.178090  0.830020  1.0
  C  C662  1  0.821910  0.781490  0.669980  1.0
  C  C663  1  0.781490  0.821910  0.169980  1.0
  C  C664  1  0.178090  0.218510  0.330020  1.0
  C  C665  1  0.246980  0.195220  0.804960  1.0
  C  C666  1  0.804780  0.753020  0.695040  1.0
  C  C667  1  0.753020  0.804780  0.195040  1.0
  C  C668  1  0.195220  0.246980  0.304960  1.0
  C  C669  1  0.253680  0.151120  0.781340  1.0
  C  C670  1  0.848880  0.746320  0.718660  1.0
  C  C671  1  0.746320  0.848880  0.218660  1.0
  C  C672  1  0.151120  0.253680  0.281340  1.0
  C  C673  1  0.231890  0.089910  0.782790  1.0
  C  C674  1  0.910090  0.768110  0.717210  1.0
  C  C675  1  0.768110  0.910090  0.217210  1.0
  C  C676  1  0.089910  0.231890  0.282790  1.0
  C  C677  1  0.203420  0.072780  0.807840  1.0
  C  C678  1  0.927220  0.796580  0.692160  1.0
  C  C679  1  0.796580  0.927220  0.192160  1.0
  C  C680  1  0.072780  0.203420  0.307840  1.0
  C  C681  1  0.283300  0.169700  0.754000  1.0
  C  C682  1  0.830300  0.716700  0.746000  1.0
  C  C683  1  0.716700  0.830300  0.246000  1.0
  C  C684  1  0.169700  0.283300  0.254000  1.0
  C  C685  1  0.179520  0.016080  0.811120  1.0
  C  C686  1  0.983920  0.820480  0.688880  1.0
  C  C687  1  0.820480  0.983920  0.188880  1.0
  C  C688  1  0.016080  0.179520  0.311120  1.0
  C  C689  1  0.165880  0.958520  0.788970  1.0
  C  C690  1  0.041480  0.834120  0.711030  1.0
  C  C691  1  0.834120  0.041480  0.211030  1.0
  C  C692  1  0.958520  0.165880  0.288970  1.0
  C  C693  1  0.132530  0.911470  0.803010  1.0
  C  C694  1  0.088530  0.867470  0.696990  1.0
  C  C695  1  0.867470  0.088530  0.196990  1.0
  C  C696  1  0.911470  0.132530  0.303010  1.0
  C  C697  1  0.482730  0.511470  0.139220  1.0
  C  C698  1  0.488530  0.517270  0.360780  1.0
  C  C699  1  0.517270  0.488530  0.860780  1.0
  C  C700  1  0.511470  0.482730  0.639220  1.0
  C  C701  1  0.487590  0.568390  0.156890  1.0
  C  C702  1  0.431610  0.512410  0.343110  1.0
  C  C703  1  0.512410  0.431610  0.843110  1.0
  C  C704  1  0.568390  0.487590  0.656890  1.0
  C  C705  1  0.464360  0.572640  0.185030  1.0
  C  C706  1  0.427360  0.535640  0.314970  1.0
  C  C707  1  0.535640  0.427360  0.814970  1.0
  C  C708  1  0.572640  0.464360  0.685030  1.0
  C  C709  1  0.436340  0.520060  0.195500  1.0
  C  C710  1  0.479940  0.563660  0.304500  1.0
  C  C711  1  0.563660  0.479940  0.804500  1.0
  C  C712  1  0.520060  0.436340  0.695500  1.0
  C  C713  1  0.431460  0.463120  0.177830  1.0
  C  C714  1  0.536880  0.568540  0.322170  1.0
  C  C715  1  0.568540  0.536880  0.822170  1.0
  C  C716  1  0.463120  0.431460  0.677830  1.0
  C  C717  1  0.476200  0.636800  0.206000  1.0
  C  C718  1  0.363200  0.523800  0.294000  1.0
  C  C719  1  0.523800  0.363200  0.794000  1.0
  C  C720  1  0.636800  0.476200  0.706000  1.0
  C  C721  1  0.405580  0.407420  0.186900  1.0
  C  C722  1  0.592580  0.594420  0.313100  1.0
  C  C723  1  0.594420  0.592580  0.813100  1.0
  C  C724  1  0.407420  0.405580  0.686900  1.0
  C  C725  1  0.378100  0.397700  0.213000  1.0
  C  C726  1  0.602300  0.621900  0.287000  1.0
  C  C727  1  0.621900  0.602300  0.787000  1.0
  C  C728  1  0.397700  0.378100  0.713000  1.0
  C  C729  1  0.360100  0.336700  0.209800  1.0
  C  C730  1  0.663300  0.639900  0.290200  1.0
  C  C731  1  0.639900  0.663300  0.790200  1.0
  C  C732  1  0.336700  0.360100  0.709800  1.0
  C  C733  1  0.362000  0.247200  0.169100  1.0
  C  C734  1  0.752800  0.638000  0.330900  1.0
  C  C735  1  0.638000  0.752800  0.830900  1.0
  C  C736  1  0.247200  0.362000  0.669100  1.0
  C  C737  1  0.559700  0.998900  0.034500  1.0
  C  C738  1  0.001100  0.440300  0.465500  1.0
  C  C739  1  0.440300  0.001100  0.965500  1.0
  C  C740  1  0.998900  0.559700  0.534500  1.0
  C  C741  1  0.535500  0.045300  0.053600  1.0
  C  C742  1  0.954700  0.464500  0.446400  1.0
  C  C743  1  0.464500  0.954700  0.946400  1.0
  C  C744  1  0.045300  0.535500  0.553600  1.0
  C  C745  1  0.499100  0.063900  0.027500  1.0
  C  C746  1  0.936100  0.500900  0.472500  1.0
  C  C747  1  0.500900  0.936100  0.972500  1.0
  C  C748  1  0.063900  0.499100  0.527500  1.0
  C  C749  1  0.541400  0.092600  0.003900  1.0
  C  C750  1  0.907400  0.458600  0.496100  1.0
  C  C751  1  0.458600  0.907400  0.996100  1.0
  C  C752  1  0.092600  0.541400  0.503900  1.0
  C  C753  1  0.564300  0.050100  0.985800  1.0
  C  C754  1  0.949900  0.435700  0.514200  1.0
  C  C755  1  0.435700  0.949900  0.014200  1.0
  C  C756  1  0.050100  0.564300  0.485800  1.0
  C  C757  1  0.601100  0.034700  0.014300  1.0
  C  C758  1  0.965300  0.398900  0.485700  1.0
  C  C759  1  0.398900  0.965300  0.985700  1.0
  C  C760  1  0.034700  0.601100  0.514300  1.0
  C  C761  1  0.508200  0.992400  0.965500  1.0
  C  C762  1  0.007600  0.491800  0.534500  1.0
  C  C763  1  0.491800  0.007600  0.034500  1.0
  C  C764  1  0.992400  0.508200  0.465500  1.0
  C  C765  1  0.469400  0.961400  0.986900  1.0
  C  C766  1  0.038600  0.530600  0.513100  1.0
  C  C767  1  0.530600  0.038600  0.013100  1.0
  C  C768  1  0.961400  0.469400  0.486900  1.0
  C  C769  1  0.446000  0.008000  0.007300  1.0
  C  C770  1  0.992000  0.554000  0.492700  1.0
  C  C771  1  0.554000  0.992000  0.992700  1.0
  C  C772  1  0.008000  0.446000  0.507300  1.0
  C  C773  1  0.509100  0.943500  0.014000  1.0
  C  C774  1  0.056500  0.490900  0.486000  1.0
  C  C775  1  0.490900  0.056500  0.986000  1.0
  C  C776  1  0.943500  0.509100  0.514000  1.0
  C  C777  1  0.411600  0.902000  0.967000  1.0
  C  C778  1  0.098000  0.588400  0.533000  1.0
  C  C779  1  0.588400  0.098000  0.033000  1.0
  C  C780  1  0.902000  0.411600  0.467000  1.0
  Co  Co781  1  0.149830  0.666850  0.958100  1.0
  Co  Co782  1  0.333150  0.850170  0.541900  1.0
  Co  Co783  1  0.850170  0.333150  0.041900  1.0
  Co  Co784  1  0.666850  0.149830  0.458100  1.0
  Co  Co785  1  0.559210  0.633550  0.875060  1.0
  Co  Co786  1  0.366450  0.440790  0.624940  1.0
  Co  Co787  1  0.440790  0.366450  0.124940  1.0
  Co  Co788  1  0.633550  0.559210  0.375060  1.0
  Co  Co789  1  0.422560  0.937560  0.215940  1.0
  Co  Co790  1  0.062440  0.577440  0.284060  1.0
  Co  Co791  1  0.577440  0.062440  0.784060  1.0
  Co  Co792  1  0.937560  0.422560  0.715940  1.0
  Co  Co793  1  0.842520  0.915800  0.130550  1.0
  Co  Co794  1  0.084200  0.157480  0.369450  1.0
  Co  Co795  1  0.157480  0.084200  0.869450  1.0
  Co  Co796  1  0.915800  0.842520  0.630550  1.0
  F  F797  1  0.515200  0.806400  0.033500  1
  F  F798  1  0.193600  0.484800  0.466500  1
  F  F799  1  0.484800  0.193600  0.966500  1
  F  F800  1  0.806400  0.515200  0.533500  1
  F  F801  1  0.453520  0.709280  0.036380  1
  F  F802  1  0.290720  0.546480  0.463620  1
  F  F803  1  0.546480  0.290720  0.963620  1
  F  F804  1  0.709280  0.453520  0.536380  1
  F  F805  1  0.521800  0.761800  0.084000  1
  F  F806  1  0.238200  0.478200  0.416000  1
  F  F807  1  0.478200  0.238200  0.916000  1
  F  F808  1  0.761800  0.521800  0.584000  1
  F  F809  1  0.453000  0.799600  0.061400  1
  F  F810  1  0.200400  0.547000  0.438600  1
  F  F811  1  0.547000  0.200400  0.938600  1
  F  F812  1  0.799600  0.453000  0.561400  1
  F  F813  1  0.673800  0.960800  0.944800  1
  F  F814  1  0.039200  0.326200  0.555200  1
  F  F815  1  0.326200  0.039200  0.055200  1
  F  F816  1  0.960800  0.673800  0.444800  1
  F  F817  1  0.762120  0.024080  0.938940  1
  F  F818  1  0.975920  0.237880  0.561060  1
  F  F819  1  0.237880  0.975920  0.061060  1
  F  F820  1  0.024080  0.762120  0.438940  1
  F  F821  1  0.758400  0.938800  0.953300  1
  F  F822  1  0.061200  0.241600  0.546700  1
  F  F823  1  0.241600  0.061200  0.046700  1
  F  F824  1  0.938800  0.758400  0.453300  1
  F  F825  1  0.749500  0.014100  0.990000  1
  F  F826  1  0.985900  0.250500  0.510000  1
  F  F827  1  0.250500  0.985900  0.010000  1
  F  F828  1  0.014100  0.749500  0.490000  1
  F  F829  1  0.811700  0.841500  0.775500  1
  F  F830  1  0.158500  0.188300  0.724500  1
  F  F831  1  0.188300  0.158500  0.224500  1
  F  F832  1  0.841500  0.811700  0.275500  1
  F  F833  1  0.714500  0.782700  0.760500  1
  F  F834  1  0.217300  0.285500  0.739500  1
  F  F835  1  0.285500  0.217300  0.239500  1
  F  F836  1  0.782700  0.714500  0.260500  1
  F  F837  1  0.747500  0.867900  0.747500  1
  F  F838  1  0.132100  0.252500  0.752500  1
  F  F839  1  0.252500  0.132100  0.252500  1
  F  F840  1  0.867900  0.747500  0.247500  1
  F  F841  1  0.743400  0.863400  0.798400  1
  F  F842  1  0.136600  0.256600  0.701600  1
  F  F843  1  0.256600  0.136600  0.201600  1
  F  F844  1  0.863400  0.743400  0.298400  1
  F  F845  1  0.359800  0.476200  0.973400  1
  F  F846  1  0.523800  0.640200  0.526600  1
  F  F847  1  0.640200  0.523800  0.026600  1
  F  F848  1  0.476200  0.359800  0.473400  1
  F  F849  1  0.327600  0.383400  0.947300  1
  F  F850  1  0.616600  0.672400  0.552700  1
  F  F851  1  0.672400  0.616600  0.052700  1
  F  F852  1  0.383400  0.327600  0.447300  1
  F  F853  1  0.301300  0.449900  0.924700  1
  F  F854  1  0.550100  0.698700  0.575300  1
  F  F855  1  0.698700  0.550100  0.075300  1
  F  F856  1  0.449900  0.301300  0.424700  1
  F  F857  1  0.263500  0.419500  0.963800  1
  F  F858  1  0.580500  0.736500  0.536200  1
  F  F859  1  0.736500  0.580500  0.036200  1
  F  F860  1  0.419500  0.263500  0.463800  1
  F  F861  1  0.528600  0.795200  0.037300  1
  F  F862  1  0.204800  0.471400  0.462700  1
  F  F863  1  0.471400  0.204800  0.962700  1
  F  F864  1  0.795200  0.528600  0.537300  1
  F  F865  1  0.768500  0.898900  0.780000  1
  F  F866  1  0.101100  0.231500  0.720000  1
  F  F867  1  0.231500  0.101100  0.220000  1
  F  F868  1  0.898900  0.768500  0.280000  1
  F  F869  1  0.264600  0.387800  0.953800  1
  F  F870  1  0.612200  0.735400  0.546200  1
  F  F871  1  0.735400  0.612200  0.046200  1
  F  F872  1  0.387800  0.264600  0.453800  1
  F  F873  1  0.306900  0.462300  0.929700  1
  F  F874  1  0.537700  0.693100  0.570300  1
  F  F875  1  0.693100  0.537700  0.070300  1
  F  F876  1  0.462300  0.306900  0.429700  1
  F  F877  1  0.519500  0.826500  0.080300  1
  F  F878  1  0.173500  0.480500  0.419700  1
  F  F879  1  0.480500  0.173500  0.919700  1
  F  F880  1  0.826500  0.519500  0.580300  1
  F  F881  1  0.435000  0.758400  0.060200  1
  F  F882  1  0.241600  0.565000  0.439800  1
  F  F883  1  0.565000  0.241600  0.939800  1
  F  F884  1  0.758400  0.435000  0.560200  1
  F  F885  1  0.723400  0.940000  0.974000  1
  F  F886  1  0.060000  0.276600  0.526000  1
  F  F887  1  0.276600  0.060000  0.026000  1
  F  F888  1  0.940000  0.723400  0.474000  1
  F  F889  1  0.784700  0.028100  0.980800  1
  F  F890  1  0.971900  0.215300  0.519200  1
  F  F891  1  0.215300  0.971900  0.019200  1
  F  F892  1  0.028100  0.784700  0.480800  1
  H  H893  1  0.584900  0.987100  0.051000  1
  H  H894  1  0.012900  0.415100  0.449000  1
  H  H895  1  0.415100  0.012900  0.949000  1
  H  H896  1  0.987100  0.584900  0.551000  1
  H  H897  1  0.509700  0.025700  0.067200  1
  H  H898  1  0.974300  0.490300  0.432800  1
  H  H899  1  0.490300  0.974300  0.932800  1
  H  H900  1  0.025700  0.509700  0.567200  1
  H  H901  1  0.569700  0.080900  0.067900  1
  H  H902  1  0.919100  0.430300  0.432100  1
  H  H903  1  0.430300  0.919100  0.932100  1
  H  H904  1  0.080900  0.569700  0.567900  1
  H  H905  1  0.484500  0.094100  0.038200  1
  H  H906  1  0.905900  0.515500  0.461800  1
  H  H907  1  0.515500  0.905900  0.961800  1
  H  H908  1  0.094100  0.484500  0.538200  1
  H  H909  1  0.517900  0.106100  0.987800  1
  H  H910  1  0.893900  0.482100  0.512200  1
  H  H911  1  0.482100  0.893900  0.012200  1
  H  H912  1  0.106100  0.517900  0.487800  1
  H  H913  1  0.576300  0.128700  0.017400  1
  H  H914  1  0.871300  0.423700  0.482600  1
  H  H915  1  0.423700  0.871300  0.982600  1
  H  H916  1  0.128700  0.576300  0.517400  1
  H  H917  1  0.589900  0.069100  0.971600  1
  H  H918  1  0.930900  0.410100  0.528400  1
  H  H919  1  0.410100  0.930900  0.028400  1
  H  H920  1  0.069100  0.589900  0.471600  1
  H  H921  1  0.631800  0.072600  0.029100  1
  H  H922  1  0.927400  0.368200  0.470900  1
  H  H923  1  0.368200  0.927400  0.970900  1
  H  H924  1  0.072600  0.631800  0.529100  1
  H  H925  1  0.622500  0.010300  0.005100  1
  H  H926  1  0.989700  0.377500  0.494900  1
  H  H927  1  0.377500  0.989700  0.994900  1
  H  H928  1  0.010300  0.622500  0.505100  1
  H  H929  1  0.483200  0.004000  0.949200  1
  H  H930  1  0.996000  0.516800  0.550800  1
  H  H931  1  0.516800  0.996000  0.050800  1
  H  H932  1  0.004000  0.483200  0.449200  1
  H  H933  1  0.522300  0.963500  0.953500  1
  H  H934  1  0.036500  0.477700  0.546500  1
  H  H935  1  0.477700  0.036500  0.046500  1
  H  H936  1  0.963500  0.522300  0.453500  1
  H  H937  1  0.419200  0.019600  0.991900  1
  H  H938  1  0.980400  0.580800  0.508100  1
  H  H939  1  0.580800  0.980400  0.008100  1
  H  H940  1  0.019600  0.419200  0.491900  1
  H  H941  1  0.422600  0.988200  0.021900  1
  H  H942  1  0.011800  0.577400  0.478100  1
  H  H943  1  0.577400  0.011800  0.978100  1
  H  H944  1  0.988200  0.422600  0.521900  1
  H  H945  1  0.483900  0.923500  0.027800  1
  H  H946  1  0.076500  0.516100  0.472200  1
  H  H947  1  0.516100  0.076500  0.972200  1
  H  H948  1  0.923500  0.483900  0.527800  1
  H  H949  1  0.525100  0.915100  0.003300  1
  H  H950  1  0.084900  0.474900  0.496700  1
  H  H951  1  0.474900  0.084900  0.996700  1
  H  H952  1  0.915100  0.525100  0.503300  1
  H  H953  1  0.510900  0.058900  0.272800  1.0
  H  H954  1  0.941100  0.489100  0.227200  1.0
  H  H955  1  0.489100  0.941100  0.727200  1.0
  H  H956  1  0.058900  0.510900  0.772800  1.0
  H  H957  1  0.510100  0.154700  0.294200  1.0
  H  H958  1  0.845300  0.489900  0.205800  1.0
  H  H959  1  0.489900  0.845300  0.705800  1.0
  H  H960  1  0.154700  0.510100  0.794200  1.0
  H  H961  1  0.345400  0.107800  0.231300  1.0
  H  H962  1  0.892200  0.654600  0.268700  1.0
  H  H963  1  0.654600  0.892200  0.768700  1.0
  H  H964  1  0.107800  0.345400  0.731300  1.0
  H  H965  1  0.430500  0.225100  0.259900  1.0
  H  H966  1  0.774900  0.569500  0.240100  1.0
  H  H967  1  0.569500  0.774900  0.740100  1.0
  H  H968  1  0.225100  0.430500  0.759900  1.0
  H  H969  1  0.388000  0.198600  0.282900  1.0
  H  H970  1  0.801400  0.612000  0.217100  1.0
  H  H971  1  0.612000  0.801400  0.717100  1.0
  H  H972  1  0.198600  0.388000  0.782900  1.0
  H  H973  1  0.256500  0.020100  0.193800  1.0
  H  H974  1  0.979900  0.743500  0.306200  1.0
  H  H975  1  0.743500  0.979900  0.806200  1.0
  H  H976  1  0.020100  0.256500  0.693800  1.0
  H  H977  1  0.201700  0.914700  0.155200  1.0
  H  H978  1  0.085300  0.798300  0.344800  1.0
  H  H979  1  0.798300  0.085300  0.844800  1.0
  H  H980  1  0.914700  0.201700  0.655200  1.0
  H  H981  1  0.228700  0.819900  0.143700  1.0
  H  H982  1  0.180100  0.771300  0.356300  1.0
  H  H983  1  0.771300  0.180100  0.856300  1.0
  H  H984  1  0.819900  0.228700  0.643700  1.0
  H  H985  1  0.292300  0.822700  0.162400  1.0
  H  H986  1  0.177300  0.707700  0.337600  1.0
  H  H987  1  0.707700  0.177300  0.837600  1.0
  H  H988  1  0.822700  0.292300  0.662400  1.0
  H  H989  1  0.044600  0.569200  0.894200  1.0
  H  H990  1  0.430800  0.955400  0.605800  1.0
  H  H991  1  0.955400  0.430800  0.105800  1.0
  H  H992  1  0.569200  0.044600  0.394200  1.0
  H  H993  1  0.027700  0.475900  0.859000  1.0
  H  H994  1  0.524100  0.972300  0.641000  1.0
  H  H995  1  0.972300  0.524100  0.141000  1.0
  H  H996  1  0.475900  0.027700  0.359000  1.0
  H  H997  1  0.189800  0.480800  0.908100  1.0
  H  H998  1  0.519200  0.810200  0.591900  1.0
  H  H999  1  0.810200  0.519200  0.091900  1.0
  H  H1000  1  0.480800  0.189800  0.408100  1.0
  H  H1001  1  0.047400  0.383000  0.846400  1.0
  H  H1002  1  0.617000  0.952600  0.653600  1.0
  H  H1003  1  0.952600  0.617000  0.153600  1.0
  H  H1004  1  0.383000  0.047400  0.346400  1.0
  H  H1005  1  0.105500  0.416300  0.833000  1.0
  H  H1006  1  0.583700  0.894500  0.667000  1.0
  H  H1007  1  0.894500  0.583700  0.167000  1.0
  H  H1008  1  0.416300  0.105500  0.333000  1.0
  H  H1009  1  0.282600  0.542000  0.954700  1.0
  H  H1010  1  0.458000  0.717400  0.545300  1.0
  H  H1011  1  0.717400  0.458000  0.045300  1.0
  H  H1012  1  0.542000  0.282600  0.454700  1.0
  H  H1013  1  0.356500  0.635900  0.998500  1.0
  H  H1014  1  0.364100  0.643500  0.501500  1.0
  H  H1015  1  0.643500  0.364100  0.001500  1.0
  H  H1016  1  0.635900  0.356500  0.498500  1.0
  H  H1017  1  0.293200  0.756800  0.000600  1.0
  H  H1018  1  0.243200  0.706800  0.499400  1.0
  H  H1019  1  0.706800  0.243200  0.999400  1.0
  H  H1020  1  0.756800  0.293200  0.500600  1.0
  H  H1021  1  0.354500  0.749700  0.015400  1.0
  H  H1022  1  0.250300  0.645500  0.484600  1.0
  H  H1023  1  0.645500  0.250300  0.984600  1.0
  H  H1024  1  0.749700  0.354500  0.515400  1.0
  H  H1025  1  0.323400  0.934800  0.122500  1.0
  H  H1026  1  0.065200  0.676600  0.377500  1.0
  H  H1027  1  0.676600  0.065200  0.877500  1.0
  H  H1028  1  0.934800  0.323400  0.622500  1.0
  H  H1029  1  0.351100  0.934300  0.072100  1.0
  H  H1030  1  0.065700  0.648900  0.427900  1.0
  H  H1031  1  0.648900  0.065700  0.927900  1.0
  H  H1032  1  0.934300  0.351100  0.572100  1.0
  H  H1033  1  0.337700  0.842100  0.037000  1.0
  H  H1034  1  0.157900  0.662300  0.463000  1.0
  H  H1035  1  0.662300  0.157900  0.963000  1.0
  H  H1036  1  0.842100  0.337700  0.537000  1.0
  H  H1037  1  0.249700  0.732900  0.125900  1.0
  H  H1038  1  0.267100  0.750300  0.374100  1.0
  H  H1039  1  0.750300  0.267100  0.874100  1.0
  H  H1040  1  0.732900  0.249700  0.625900  1.0
  H  H1041  1  0.236300  0.640900  0.090800  1.0
  H  H1042  1  0.359100  0.763700  0.409200  1.0
  H  H1043  1  0.763700  0.359100  0.909200  1.0
  H  H1044  1  0.640900  0.236300  0.590800  1.0
  H  H1045  1  0.263900  0.640300  0.040300  1.0
  H  H1046  1  0.359700  0.736100  0.459700  1.0
  H  H1047  1  0.736100  0.359700  0.959700  1.0
  H  H1048  1  0.640300  0.263900  0.540300  1.0
  H  H1049  1  0.013000  0.630000  0.967500  1.0
  H  H1050  1  0.370000  0.987000  0.532500  1.0
  H  H1051  1  0.987000  0.370000  0.032500  1.0
  H  H1052  1  0.630000  0.013000  0.467500  1.0
  H  H1053  1  0.919100  0.623100  0.937200  1.0
  H  H1054  1  0.376900  0.080900  0.562800  1.0
  H  H1055  1  0.080900  0.376900  0.062800  1.0
  H  H1056  1  0.623100  0.919100  0.437200  1.0
  H  H1057  1  0.002400  0.701600  0.871400  1.0
  H  H1058  1  0.298400  0.997600  0.628600  1.0
  H  H1059  1  0.997600  0.298400  0.128600  1.0
  H  H1060  1  0.701600  0.002400  0.371400  1.0
  H  H1061  1  0.895600  0.699000  0.878300  1.0
  H  H1062  1  0.301000  0.104400  0.621700  1.0
  H  H1063  1  0.104400  0.301000  0.121700  1.0
  H  H1064  1  0.699000  0.895600  0.378300  1.0
  H  H1065  1  0.886400  0.634400  0.857400  1.0
  H  H1066  1  0.365600  0.113600  0.642600  1.0
  H  H1067  1  0.113600  0.365600  0.142600  1.0
  H  H1068  1  0.634400  0.886400  0.357400  1.0
  H  H1069  1  0.812400  0.629800  0.876100  1.0
  H  H1070  1  0.370200  0.187600  0.623900  1.0
  H  H1071  1  0.187600  0.370200  0.123900  1.0
  H  H1072  1  0.629800  0.812400  0.376100  1.0
  H  H1073  1  0.100900  0.744900  0.856000  1.0
  H  H1074  1  0.255100  0.899100  0.644000  1.0
  H  H1075  1  0.899100  0.255100  0.144000  1.0
  H  H1076  1  0.744900  0.100900  0.356000  1.0
  H  H1077  1  0.215000  0.776600  0.863100  1.0
  H  H1078  1  0.223400  0.785000  0.636900  1.0
  H  H1079  1  0.785000  0.223400  0.136900  1.0
  H  H1080  1  0.776600  0.215000  0.363100  1.0
  H  H1081  1  0.281900  0.750700  0.941400  1.0
  H  H1082  1  0.249300  0.718100  0.558600  1.0
  H  H1083  1  0.718100  0.249300  0.058600  1.0
  H  H1084  1  0.750700  0.281900  0.441400  1.0
  H  H1085  1  0.302600  0.779000  0.912300  1.0
  H  H1086  1  0.221000  0.697400  0.587700  1.0
  H  H1087  1  0.697400  0.221000  0.087700  1.0
  H  H1088  1  0.779000  0.302600  0.412300  1.0
  H  H1089  1  0.704900  0.679100  0.883400  1.0
  H  H1090  1  0.320900  0.295100  0.616600  1.0
  H  H1091  1  0.295100  0.320900  0.116600  1.0
  H  H1092  1  0.679100  0.704900  0.383400  1.0
  H  H1093  1  0.789800  0.686800  0.922900  1.0
  H  H1094  1  0.313200  0.210200  0.577100  1.0
  H  H1095  1  0.210200  0.313200  0.077100  1.0
  H  H1096  1  0.686800  0.789800  0.422900  1.0
  H  H1097  1  0.679000  0.613200  0.979700  1.0
  H  H1098  1  0.386800  0.321000  0.520300  1.0
  H  H1099  1  0.321000  0.386800  0.020300  1.0
  H  H1100  1  0.613200  0.679000  0.479700  1.0
  H  H1101  1  0.805200  0.691400  0.000300  1.0
  H  H1102  1  0.308600  0.194800  0.499700  1.0
  H  H1103  1  0.194800  0.308600  0.999700  1.0
  H  H1104  1  0.691400  0.805200  0.500300  1.0
  H  H1105  1  0.784900  0.619700  0.990900  1.0
  H  H1106  1  0.380300  0.215100  0.509100  1.0
  H  H1107  1  0.215100  0.380300  0.009100  1.0
  H  H1108  1  0.619700  0.784900  0.490900  1.0
  H  H1109  1  0.860500  0.694300  0.965000  1.0
  H  H1110  1  0.305700  0.139500  0.535000  1.0
  H  H1111  1  0.139500  0.305700  0.035000  1.0
  H  H1112  1  0.694300  0.860500  0.465000  1.0
  H  H1113  1  0.570900  0.558100  0.981900  1.0
  H  H1114  1  0.441900  0.429100  0.518100  1.0
  H  H1115  1  0.429100  0.441900  0.018100  1.0
  H  H1116  1  0.558100  0.570900  0.481900  1.0
  H  H1117  1  0.456200  0.523600  0.962600  1.0
  H  H1118  1  0.476400  0.543800  0.537400  1.0
  H  H1119  1  0.543800  0.476400  0.037400  1.0
  H  H1120  1  0.523600  0.456200  0.462600  1.0
  H  H1121  1  0.382700  0.530500  0.910100  1.0
  H  H1122  1  0.469500  0.617300  0.589900  1.0
  H  H1123  1  0.617300  0.469500  0.089900  1.0
  H  H1124  1  0.530500  0.382700  0.410100  1.0
  H  H1125  1  0.412900  0.560100  0.883500  1.0
  H  H1126  1  0.439900  0.587100  0.616500  1.0
  H  H1127  1  0.587100  0.439900  0.116500  1.0
  H  H1128  1  0.560100  0.412900  0.383500  1.0
  H  H1129  1  0.204800  0.645000  0.869100  1.0
  H  H1130  1  0.355000  0.795200  0.630900  1.0
  H  H1131  1  0.795200  0.355000  0.130900  1.0
  H  H1132  1  0.645000  0.204800  0.369100  1.0
  H  H1133  1  0.220700  0.556100  0.849700  1.0
  H  H1134  1  0.443900  0.779300  0.650300  1.0
  H  H1135  1  0.779300  0.443900  0.150300  1.0
  H  H1136  1  0.556100  0.220700  0.349700  1.0
  H  H1137  1  0.311200  0.546000  0.872600  1.0
  H  H1138  1  0.454000  0.688800  0.627400  1.0
  H  H1139  1  0.688800  0.454000  0.127400  1.0
  H  H1140  1  0.546000  0.311200  0.372600  1.0
  H  H1141  1  0.378500  0.765100  0.950600  1.0
  H  H1142  1  0.234900  0.621500  0.549400  1.0
  H  H1143  1  0.621500  0.234900  0.049400  1.0
  H  H1144  1  0.765100  0.378500  0.450600  1.0
  H  H1145  1  0.468900  0.755100  0.973500  1.0
  H  H1146  1  0.244900  0.531100  0.526500  1.0
  H  H1147  1  0.531100  0.244900  0.026500  1.0
  H  H1148  1  0.755100  0.468900  0.473500  1.0
  H  H1149  1  0.484800  0.666200  0.954100  1.0
  H  H1150  1  0.333800  0.515200  0.545900  1.0
  H  H1151  1  0.515200  0.333800  0.045900  1.0
  H  H1152  1  0.666200  0.484800  0.454100  1.0
  H  H1153  1  0.436700  0.546100  0.817800  1.0
  H  H1154  1  0.453900  0.563300  0.682200  1.0
  H  H1155  1  0.563300  0.453900  0.182200  1.0
  H  H1156  1  0.546100  0.436700  0.317800  1.0
  H  H1157  1  0.346000  0.553200  0.792400  1.0
  H  H1158  1  0.446800  0.654000  0.707600  1.0
  H  H1159  1  0.654000  0.446800  0.207600  1.0
  H  H1160  1  0.553200  0.346000  0.292400  1.0
  H  H1161  1  0.403300  0.725900  0.848200  1.0
  H  H1162  1  0.274100  0.596700  0.651800  1.0
  H  H1163  1  0.596700  0.274100  0.151800  1.0
  H  H1164  1  0.725900  0.403300  0.348200  1.0
  H  H1165  1  0.292600  0.665800  0.818700  1.0
  H  H1166  1  0.334200  0.707400  0.681300  1.0
  H  H1167  1  0.707400  0.334200  0.181300  1.0
  H  H1168  1  0.665800  0.292600  0.318700  1.0
  H  H1169  1  0.314900  0.670500  0.785800  1.0
  H  H1170  1  0.329500  0.685100  0.714200  1.0
  H  H1171  1  0.685100  0.329500  0.214200  1.0
  H  H1172  1  0.670500  0.314900  0.285800  1.0
  H  H1173  1  0.254100  0.568500  0.799000  1.0
  H  H1174  1  0.431500  0.745900  0.701000  1.0
  H  H1175  1  0.745900  0.431500  0.201000  1.0
  H  H1176  1  0.568500  0.254100  0.299000  1.0
  H  H1177  1  0.485400  0.809200  0.888600  1.0
  H  H1178  1  0.190800  0.514600  0.611400  1.0
  H  H1179  1  0.514600  0.190800  0.111400  1.0
  H  H1180  1  0.809200  0.485400  0.388600  1.0
  H  H1181  1  0.591000  0.865600  0.926800  1.0
  H  H1182  1  0.134400  0.409000  0.573200  1.0
  H  H1183  1  0.409000  0.134400  0.073200  1.0
  H  H1184  1  0.865600  0.591000  0.426800  1.0
  H  H1185  1  0.689100  0.837100  0.936100  1.0
  H  H1186  1  0.162900  0.310900  0.563900  1.0
  H  H1187  1  0.310900  0.162900  0.063900  1.0
  H  H1188  1  0.837100  0.689100  0.436100  1.0
  H  H1189  1  0.681100  0.770100  0.919200  1.0
  H  H1190  1  0.229900  0.318900  0.580800  1.0
  H  H1191  1  0.318900  0.229900  0.080800  1.0
  H  H1192  1  0.770100  0.681100  0.419200  1.0
  H  H1193  1  0.966700  0.020100  0.185000  1.0
  H  H1194  1  0.979900  0.033300  0.315000  1.0
  H  H1195  1  0.033300  0.979900  0.815000  1.0
  H  H1196  1  0.020100  0.966700  0.685000  1.0
  H  H1197  1  0.062300  0.024900  0.211600  1.0
  H  H1198  1  0.975100  0.937700  0.288400  1.0
  H  H1199  1  0.937700  0.975100  0.788400  1.0
  H  H1200  1  0.024900  0.062300  0.711600  1.0
  H  H1201  1  0.020000  0.850600  0.162000  1.0
  H  H1202  1  0.149400  0.980000  0.338000  1.0
  H  H1203  1  0.980000  0.149400  0.838000  1.0
  H  H1204  1  0.850600  0.020000  0.662000  1.0
  H  H1205  1  0.119800  0.900800  0.201200  1.0
  H  H1206  1  0.099200  0.880200  0.298800  1.0
  H  H1207  1  0.880200  0.099200  0.798800  1.0
  H  H1208  1  0.900800  0.119800  0.701200  1.0
  H  H1209  1  0.149700  0.972500  0.203700  1.0
  H  H1210  1  0.027500  0.850300  0.296300  1.0
  H  H1211  1  0.850300  0.027500  0.796300  1.0
  H  H1212  1  0.972500  0.149700  0.703700  1.0
  H  H1213  1  0.947500  0.761700  0.123600  1.0
  H  H1214  1  0.238300  0.052500  0.376400  1.0
  H  H1215  1  0.052500  0.238300  0.876400  1.0
  H  H1216  1  0.761700  0.947500  0.623600  1.0
  H  H1217  1  0.846100  0.696500  0.083100  1.0
  H  H1218  1  0.303500  0.153900  0.416900  1.0
  H  H1219  1  0.153900  0.303500  0.916900  1.0
  H  H1220  1  0.696500  0.846100  0.583100  1.0
  H  H1221  1  0.744200  0.781800  0.084200  1.0
  H  H1222  1  0.218200  0.255800  0.415800  1.0
  H  H1223  1  0.255800  0.218200  0.915800  1.0
  H  H1224  1  0.781800  0.744200  0.584200  1.0
  H  H1225  1  0.741900  0.717100  0.067400  1.0
  H  H1226  1  0.282900  0.258100  0.432600  1.0
  H  H1227  1  0.258100  0.282900  0.932600  1.0
  H  H1228  1  0.717100  0.741900  0.567400  1.0
  H  H1229  1  0.570900  0.741900  0.957600  1.0
  H  H1230  1  0.258100  0.429100  0.542400  1.0
  H  H1231  1  0.429100  0.258100  0.042400  1.0
  H  H1232  1  0.741900  0.570900  0.457600  1.0
  H  H1233  1  0.567300  0.711700  0.007200  1.0
  H  H1234  1  0.288300  0.432700  0.492800  1.0
  H  H1235  1  0.432700  0.288300  0.992800  1.0
  H  H1236  1  0.711700  0.567300  0.507200  1.0
  H  H1237  1  0.657700  0.728900  0.045100  1.0
  H  H1238  1  0.271100  0.342300  0.454900  1.0
  H  H1239  1  0.342300  0.271100  0.954900  1.0
  H  H1240  1  0.728900  0.657700  0.545100  1.0
  H  H1241  1  0.775500  0.827900  0.961700  1.0
  H  H1242  1  0.172100  0.224500  0.538300  1.0
  H  H1243  1  0.224500  0.172100  0.038300  1.0
  H  H1244  1  0.827900  0.775500  0.461700  1.0
  H  H1245  1  0.866000  0.845000  0.999700  1.0
  H  H1246  1  0.155000  0.134000  0.500300  1.0
  H  H1247  1  0.134000  0.155000  0.000300  1.0
  H  H1248  1  0.845000  0.866000  0.499700  1.0
  H  H1249  1  0.862400  0.814800  0.049300  1.0
  H  H1250  1  0.185200  0.137600  0.450700  1.0
  H  H1251  1  0.137600  0.185200  0.950700  1.0
  H  H1252  1  0.814800  0.862400  0.549300  1.0
  H  H1253  1  0.966100  0.975300  0.106200  1.0
  H  H1254  1  0.024700  0.033900  0.393800  1.0
  H  H1255  1  0.033900  0.024700  0.893800  1.0
  H  H1256  1  0.975300  0.966100  0.606200  1.0
  H  H1257  1  0.990000  0.012400  0.060600  1.0
  H  H1258  1  0.987600  0.010000  0.439400  1.0
  H  H1259  1  0.010000  0.987600  0.939400  1.0
  H  H1260  1  0.012400  0.990000  0.560600  1.0
  H  H1261  1  0.811000  0.971800  0.021800  1.0
  H  H1262  1  0.028200  0.189000  0.478200  1.0
  H  H1263  1  0.189000  0.028200  0.978200  1.0
  H  H1264  1  0.971800  0.811000  0.521800  1.0
  H  H1265  1  0.894200  0.989800  0.987000  1.0
  H  H1266  1  0.010200  0.105800  0.513000  1.0
  H  H1267  1  0.105800  0.010200  0.013000  1.0
  H  H1268  1  0.989800  0.894200  0.487000  1.0
  H  H1269  1  0.903000  0.055000  0.007000  1.0
  H  H1270  1  0.945000  0.097000  0.493000  1.0
  H  H1271  1  0.097000  0.945000  0.993000  1.0
  H  H1272  1  0.055000  0.903000  0.507000  1.0
  H  H1273  1  0.706500  0.923100  0.026200  1.0
  H  H1274  1  0.076900  0.293500  0.473800  1.0
  H  H1275  1  0.293500  0.076900  0.973800  1.0
  H  H1276  1  0.923100  0.706500  0.526200  1.0
  H  H1277  1  0.623100  0.865100  0.051300  1.0
  H  H1278  1  0.134900  0.376900  0.448700  1.0
  H  H1279  1  0.376900  0.134900  0.948700  1.0
  H  H1280  1  0.865100  0.623100  0.551300  1.0
  H  H1281  1  0.689500  0.834300  0.128200  1.0
  H  H1282  1  0.165700  0.310500  0.371800  1.0
  H  H1283  1  0.310500  0.165700  0.871800  1.0
  H  H1284  1  0.834300  0.689500  0.628200  1.0
  H  H1285  1  0.625400  0.818600  0.104300  1.0
  H  H1286  1  0.181400  0.374600  0.395700  1.0
  H  H1287  1  0.374600  0.181400  0.895700  1.0
  H  H1288  1  0.818600  0.625400  0.604300  1.0
  H  H1289  1  0.290500  0.874100  0.233000  1.0
  H  H1290  1  0.125900  0.709500  0.267000  1.0
  H  H1291  1  0.709500  0.125900  0.767000  1.0
  H  H1292  1  0.874100  0.290500  0.733000  1.0
  H  H1293  1  0.254200  0.826800  0.273400  1.0
  H  H1294  1  0.173200  0.745800  0.226600  1.0
  H  H1295  1  0.745800  0.173200  0.726600  1.0
  H  H1296  1  0.826800  0.254200  0.773400  1.0
  H  H1297  1  0.427700  0.868100  0.323700  1.0
  H  H1298  1  0.131900  0.572300  0.176300  1.0
  H  H1299  1  0.572300  0.131900  0.676300  1.0
  H  H1300  1  0.868100  0.427700  0.823700  1.0
  H  H1301  1  0.337700  0.782500  0.331500  1.0
  H  H1302  1  0.217500  0.662300  0.168500  1.0
  H  H1303  1  0.662300  0.217500  0.668500  1.0
  H  H1304  1  0.782500  0.337700  0.831500  1.0
  H  H1305  1  0.326200  0.839600  0.349300  1.0
  H  H1306  1  0.160400  0.673800  0.150700  1.0
  H  H1307  1  0.673800  0.160400  0.650700  1.0
  H  H1308  1  0.839600  0.326200  0.849300  1.0
  H  H1309  1  0.244700  0.751100  0.300200  1.0
  H  H1310  1  0.248900  0.755300  0.199800  1.0
  H  H1311  1  0.755300  0.248900  0.699800  1.0
  H  H1312  1  0.751100  0.244700  0.800200  1.0
  H  H1313  1  0.536700  0.921300  0.327400  1.0
  H  H1314  1  0.078700  0.463300  0.172600  1.0
  H  H1315  1  0.463300  0.078700  0.672600  1.0
  H  H1316  1  0.921300  0.536700  0.827400  1.0
  H  H1317  1  0.627200  0.968000  0.304000  1.0
  H  H1318  1  0.032000  0.372800  0.196000  1.0
  H  H1319  1  0.372800  0.032000  0.696000  1.0
  H  H1320  1  0.968000  0.627200  0.804000  1.0
  H  H1321  1  0.634900  0.006900  0.248700  1.0
  H  H1322  1  0.993100  0.365100  0.251300  1.0
  H  H1323  1  0.365100  0.993100  0.751300  1.0
  H  H1324  1  0.006900  0.634900  0.748700  1.0
  H  H1325  1  0.573500  0.002100  0.225900  1.0
  H  H1326  1  0.997900  0.426500  0.274100  1.0
  H  H1327  1  0.426500  0.997900  0.774100  1.0
  H  H1328  1  0.002100  0.573500  0.725900  1.0
  H  H1329  1  0.698300  0.969500  0.118200  1.0
  H  H1330  1  0.030500  0.301700  0.381800  1.0
  H  H1331  1  0.301700  0.030500  0.881800  1.0
  H  H1332  1  0.969500  0.698300  0.618200  1.0
  H  H1333  1  0.691000  0.049200  0.155200  1.0
  H  H1334  1  0.950800  0.309000  0.344800  1.0
  H  H1335  1  0.309000  0.950800  0.844800  1.0
  H  H1336  1  0.049200  0.691000  0.655200  1.0
  H  H1337  1  0.643300  0.029100  0.198100  1.0
  H  H1338  1  0.970900  0.356700  0.301900  1.0
  H  H1339  1  0.356700  0.970900  0.801900  1.0
  H  H1340  1  0.029100  0.643300  0.698100  1.0
  H  H1341  1  0.605300  0.797900  0.153500  1.0
  H  H1342  1  0.202100  0.394700  0.346500  1.0
  H  H1343  1  0.394700  0.202100  0.846500  1.0
  H  H1344  1  0.797900  0.605300  0.653500  1.0
  H  H1345  1  0.557600  0.777800  0.196400  1.0
  H  H1346  1  0.222200  0.442400  0.303600  1.0
  H  H1347  1  0.442400  0.222200  0.803600  1.0
  H  H1348  1  0.777800  0.557600  0.696400  1.0
  H  H1349  1  0.550300  0.857500  0.233400  1.0
  H  H1350  1  0.142500  0.449700  0.266600  1.0
  H  H1351  1  0.449700  0.142500  0.766600  1.0
  H  H1352  1  0.857500  0.550300  0.733400  1.0
  H  H1353  1  0.097500  0.532300  0.973100  1.0
  H  H1354  1  0.467700  0.902500  0.526900  1.0
  H  H1355  1  0.902500  0.467700  0.026900  1.0
  H  H1356  1  0.532300  0.097500  0.473100  1.0
  H  H1357  1  0.063300  0.492100  0.016000  1.0
  H  H1358  1  0.507900  0.936700  0.484000  1.0
  H  H1359  1  0.936700  0.507900  0.984000  1.0
  H  H1360  1  0.492100  0.063300  0.516000  1.0
  H  H1361  1  0.098600  0.662400  0.069100  1.0
  H  H1362  1  0.337600  0.901400  0.430900  1.0
  H  H1363  1  0.901400  0.337600  0.930900  1.0
  H  H1364  1  0.662400  0.098600  0.569100  1.0
  H  H1365  1  0.080200  0.574000  0.095900  1.0
  H  H1366  1  0.426000  0.919800  0.404100  1.0
  H  H1367  1  0.919800  0.426000  0.904100  1.0
  H  H1368  1  0.574000  0.080200  0.595900  1.0
  H  H1369  1  0.013000  0.551600  0.074000  1.0
  H  H1370  1  0.448400  0.987000  0.426000  1.0
  H  H1371  1  0.987000  0.448400  0.926000  1.0
  H  H1372  1  0.551600  0.013000  0.574000  1.0
  H  H1373  1  0.031800  0.478000  0.088500  1.0
  H  H1374  1  0.522000  0.968200  0.411500  1.0
  H  H1375  1  0.968200  0.522000  0.911500  1.0
  H  H1376  1  0.478000  0.031800  0.588500  1.0
  H  H1377  1  0.138800  0.773000  0.070600  1.0
  H  H1378  1  0.227000  0.861200  0.429400  1.0
  H  H1379  1  0.861200  0.227000  0.929400  1.0
  H  H1380  1  0.773000  0.138800  0.570600  1.0
  H  H1381  1  0.188000  0.866400  0.049900  1.0
  H  H1382  1  0.133600  0.812000  0.450100  1.0
  H  H1383  1  0.812000  0.133600  0.950100  1.0
  H  H1384  1  0.866400  0.188000  0.549900  1.0
  H  H1385  1  0.233500  0.817300  0.973800  1.0
  H  H1386  1  0.182700  0.766500  0.526200  1.0
  H  H1387  1  0.766500  0.182700  0.026200  1.0
  H  H1388  1  0.817300  0.233500  0.473800  1.0
  H  H1389  1  0.242000  0.878400  0.998400  1.0
  H  H1390  1  0.121600  0.758000  0.501600  1.0
  H  H1391  1  0.758000  0.121600  0.001600  1.0
  H  H1392  1  0.878400  0.242000  0.498400  1.0
  H  H1393  1  0.072300  0.874100  0.849200  1.0
  H  H1394  1  0.125900  0.927700  0.650800  1.0
  H  H1395  1  0.927700  0.125900  0.150800  1.0
  H  H1396  1  0.874100  0.072300  0.349200  1.0
  H  H1397  1  0.087900  0.939500  0.871300  1.0
  H  H1398  1  0.060500  0.912100  0.628700  1.0
  H  H1399  1  0.912100  0.060500  0.128700  1.0
  H  H1400  1  0.939500  0.087900  0.371300  1.0
  H  H1401  1  0.092500  0.810500  0.980700  1.0
  H  H1402  1  0.189500  0.907500  0.519300  1.0
  H  H1403  1  0.907500  0.189500  0.019300  1.0
  H  H1404  1  0.810500  0.092500  0.480700  1.0
  H  H1405  1  0.018200  0.821000  0.941400  1.0
  H  H1406  1  0.179000  0.981800  0.558600  1.0
  H  H1407  1  0.981800  0.179000  0.058600  1.0
  H  H1408  1  0.821000  0.018200  0.441400  1.0
  H  H1409  1  0.044900  0.863700  0.897800  1.0
  H  H1410  1  0.136300  0.955100  0.602200  1.0
  H  H1411  1  0.955100  0.136300  0.102200  1.0
  H  H1412  1  0.863700  0.044900  0.397800  1.0
  H  H1413  1  0.270200  0.887600  0.947600  1.0
  H  H1414  1  0.112400  0.729800  0.552400  1.0
  H  H1415  1  0.729800  0.112400  0.052400  1.0
  H  H1416  1  0.887600  0.270200  0.447600  1.0
  H  H1417  1  0.297000  0.930400  0.903900  1.0
  H  H1418  1  0.069600  0.703000  0.596100  1.0
  H  H1419  1  0.703000  0.069600  0.096100  1.0
  H  H1420  1  0.930400  0.297000  0.403900  1.0
  H  H1421  1  0.222600  0.940800  0.864700  1.0
  H  H1422  1  0.059200  0.777400  0.635300  1.0
  H  H1423  1  0.777400  0.059200  0.135300  1.0
  H  H1424  1  0.940800  0.222600  0.364700  1.0
  H  H1425  1  0.379400  0.794200  0.215200  1.0
  H  H1426  1  0.205800  0.620600  0.284800  1.0
  H  H1427  1  0.620600  0.205800  0.784800  1.0
  H  H1428  1  0.794200  0.379400  0.715200  1.0
  H  H1429  1  0.375000  0.705600  0.180200  1.0
  H  H1430  1  0.294400  0.625000  0.319800  1.0
  H  H1431  1  0.625000  0.294400  0.819800  1.0
  H  H1432  1  0.705600  0.375000  0.680200  1.0
  H  H1433  1  0.449900  0.805100  0.119000  1.0
  H  H1434  1  0.194900  0.550100  0.381000  1.0
  H  H1435  1  0.550100  0.194900  0.881000  1.0
  H  H1436  1  0.805100  0.449900  0.619000  1.0
  H  H1437  1  0.383000  0.687000  0.100600  1.0
  H  H1438  1  0.313000  0.617000  0.399400  1.0
  H  H1439  1  0.617000  0.313000  0.899400  1.0
  H  H1440  1  0.687000  0.383000  0.600600  1.0
  H  H1441  1  0.449500  0.696300  0.119400  1.0
  H  H1442  1  0.303700  0.550500  0.380600  1.0
  H  H1443  1  0.550500  0.303700  0.880600  1.0
  H  H1444  1  0.696300  0.449500  0.619400  1.0
  H  H1445  1  0.494400  0.908600  0.109900  1.0
  H  H1446  1  0.091400  0.505600  0.390100  1.0
  H  H1447  1  0.505600  0.091400  0.890100  1.0
  H  H1448  1  0.908600  0.494400  0.609900  1.0
  H  H1449  1  0.537100  0.024100  0.126000  1.0
  H  H1450  1  0.975900  0.462900  0.374000  1.0
  H  H1451  1  0.462900  0.975900  0.874000  1.0
  H  H1452  1  0.024100  0.537100  0.626000  1.0
  H  H1453  1  0.548000  0.103600  0.180700  1.0
  H  H1454  1  0.896400  0.452000  0.319300  1.0
  H  H1455  1  0.452000  0.896400  0.819300  1.0
  H  H1456  1  0.103600  0.548000  0.680700  1.0
  H  H1457  1  0.514100  0.078900  0.207200  1.0
  H  H1458  1  0.921100  0.485900  0.292800  1.0
  H  H1459  1  0.485900  0.921100  0.792800  1.0
  H  H1460  1  0.078900  0.514100  0.707200  1.0
  H  H1461  1  0.404400  0.012600  0.139800  1.0
  H  H1462  1  0.987400  0.595600  0.360200  1.0
  H  H1463  1  0.595600  0.987400  0.860200  1.0
  H  H1464  1  0.012600  0.404400  0.639800  1.0
  H  H1465  1  0.322400  0.039200  0.120200  1.0
  H  H1466  1  0.960800  0.677600  0.379800  1.0
  H  H1467  1  0.677600  0.960800  0.879800  1.0
  H  H1468  1  0.039200  0.322400  0.620200  1.0
  H  H1469  1  0.327500  0.138300  0.139200  1.0
  H  H1470  1  0.861700  0.672500  0.360800  1.0
  H  H1471  1  0.672500  0.861700  0.860800  1.0
  H  H1472  1  0.138300  0.327500  0.639200  1.0
  H  H1473  1  0.546300  0.187900  0.212900  1.0
  H  H1474  1  0.812100  0.453700  0.287100  1.0
  H  H1475  1  0.453700  0.812100  0.787100  1.0
  H  H1476  1  0.187900  0.546300  0.712900  1.0
  H  H1477  1  0.551200  0.287000  0.231900  1.0
  H  H1478  1  0.713000  0.448800  0.268100  1.0
  H  H1479  1  0.448800  0.713000  0.768100  1.0
  H  H1480  1  0.287000  0.551200  0.731900  1.0
  H  H1481  1  0.469300  0.313500  0.212300  1.0
  H  H1482  1  0.686500  0.530700  0.287700  1.0
  H  H1483  1  0.530700  0.686500  0.787700  1.0
  H  H1484  1  0.313500  0.469300  0.712300  1.0
  H  H1485  1  0.214000  0.207600  0.845800  1.0
  H  H1486  1  0.792400  0.786000  0.654200  1.0
  H  H1487  1  0.786000  0.792400  0.154200  1.0
  H  H1488  1  0.207600  0.214000  0.345800  1.0
  H  H1489  1  0.261600  0.236200  0.804000  1.0
  H  H1490  1  0.763800  0.738400  0.696000  1.0
  H  H1491  1  0.738400  0.763800  0.196000  1.0
  H  H1492  1  0.236200  0.261600  0.304000  1.0
  H  H1493  1  0.236400  0.060400  0.767000  1.0
  H  H1494  1  0.939600  0.763600  0.733000  1.0
  H  H1495  1  0.763600  0.939600  0.233000  1.0
  H  H1496  1  0.060400  0.236400  0.267000  1.0
  H  H1497  1  0.253700  0.147300  0.732900  1.0
  H  H1498  1  0.852700  0.746300  0.767100  1.0
  H  H1499  1  0.746300  0.852700  0.267100  1.0
  H  H1500  1  0.147300  0.253700  0.232900  1.0
  H  H1501  1  0.317400  0.156200  0.754700  1.0
  H  H1502  1  0.843800  0.682600  0.745300  1.0
  H  H1503  1  0.682600  0.843800  0.245300  1.0
  H  H1504  1  0.156200  0.317400  0.254700  1.0
  H  H1505  1  0.277100  0.243100  0.754300  1.0
  H  H1506  1  0.756900  0.722900  0.745700  1.0
  H  H1507  1  0.722900  0.756900  0.245700  1.0
  H  H1508  1  0.243100  0.277100  0.254300  1.0
  H  H1509  1  0.176900  0.952700  0.768800  1.0
  H  H1510  1  0.047300  0.823100  0.731200  1.0
  H  H1511  1  0.823100  0.047300  0.231200  1.0
  H  H1512  1  0.952700  0.176900  0.268800  1.0
  H  H1513  1  0.117800  0.869400  0.793700  1.0
  H  H1514  1  0.130600  0.882200  0.706300  1.0
  H  H1515  1  0.882200  0.130600  0.206300  1.0
  H  H1516  1  0.869400  0.117800  0.293700  1.0
  H  H1517  1  0.498300  0.508700  0.120400  1.0
  H  H1518  1  0.491300  0.501700  0.379600  1.0
  H  H1519  1  0.501700  0.491300  0.879600  1.0
  H  H1520  1  0.508700  0.498300  0.620400  1.0
  H  H1521  1  0.506400  0.603600  0.149900  1.0
  H  H1522  1  0.396400  0.493600  0.350100  1.0
  H  H1523  1  0.493600  0.396400  0.850100  1.0
  H  H1524  1  0.603600  0.506400  0.649900  1.0
  H  H1525  1  0.420700  0.522900  0.214300  1.0
  H  H1526  1  0.477100  0.579300  0.285700  1.0
  H  H1527  1  0.579300  0.477100  0.785700  1.0
  H  H1528  1  0.522900  0.420700  0.714300  1.0
  H  H1529  1  0.443500  0.649500  0.197100  1.0
  H  H1530  1  0.350500  0.556500  0.302900  1.0
  H  H1531  1  0.556500  0.350500  0.802900  1.0
  H  H1532  1  0.649500  0.443500  0.697100  1.0
  H  H1533  1  0.514500  0.665700  0.203700  1.0
  H  H1534  1  0.334300  0.485500  0.296300  1.0
  H  H1535  1  0.485500  0.334300  0.796300  1.0
  H  H1536  1  0.665700  0.514500  0.703700  1.0
  H  H1537  1  0.445600  0.620200  0.240400  1.0
  H  H1538  1  0.379800  0.554400  0.259600  1.0
  H  H1539  1  0.554400  0.379800  0.759600  1.0
  H  H1540  1  0.620200  0.445600  0.740400  1.0
  H  H1541  1  0.373300  0.426500  0.229100  1.0
  H  H1542  1  0.573500  0.626700  0.270900  1.0
  H  H1543  1  0.626700  0.573500  0.770900  1.0
  H  H1544  1  0.426500  0.373300  0.729100  1.0
  H  H1545  1  0.342600  0.315000  0.224300  1.0
  H  H1546  1  0.685000  0.657400  0.275700  1.0
  H  H1547  1  0.657400  0.685000  0.775700  1.0
  H  H1548  1  0.315000  0.342600  0.724300  1.0
  H  H1549  1  0.352800  0.237600  0.144900  1.0
  H  H1550  1  0.762400  0.647200  0.355100  1.0
  H  H1551  1  0.647200  0.762400  0.855100  1.0
  H  H1552  1  0.237600  0.352800  0.644900  1.0
  H  H1553  1  0.326400  0.221800  0.175400  1.0
  H  H1554  1  0.778200  0.673600  0.324600  1.0
  H  H1555  1  0.673600  0.778200  0.824600  1.0
  H  H1556  1  0.221800  0.326400  0.675400  1.0
  N  N1557  1  0.428750  0.025950  0.239270  1.0
  N  N1558  1  0.974050  0.571250  0.260730  1.0
  N  N1559  1  0.571250  0.974050  0.760730  1.0
  N  N1560  1  0.025950  0.428750  0.739270  1.0
  N  N1561  1  0.283310  0.899730  0.169280  1.0
  N  N1562  1  0.100270  0.716690  0.330720  1.0
  N  N1563  1  0.716690  0.100270  0.830720  1.0
  N  N1564  1  0.899730  0.283310  0.669280  1.0
  N  N1565  1  0.339810  0.940130  0.191850  1.0
  N  N1566  1  0.059870  0.660190  0.308150  1.0
  N  N1567  1  0.660190  0.059870  0.808150  1.0
  N  N1568  1  0.940130  0.339810  0.691850  1.0
  N  N1569  1  0.127370  0.580910  0.922290  1.0
  N  N1570  1  0.419090  0.872630  0.577710  1.0
  N  N1571  1  0.872630  0.419090  0.077710  1.0
  N  N1572  1  0.580910  0.127370  0.422290  1.0
  N  N1573  1  0.289360  0.674100  0.990560  1.0
  N  N1574  1  0.325900  0.710640  0.509440  1.0
  N  N1575  1  0.710640  0.325900  0.009440  1.0
  N  N1576  1  0.674100  0.289360  0.490560  1.0
  N  N1577  1  0.230230  0.647950  0.968180  1.0
  N  N1578  1  0.352050  0.769770  0.531820  1.0
  N  N1579  1  0.769770  0.352050  0.031820  1.0
  N  N1580  1  0.647950  0.230230  0.468180  1.0
  N  N1581  1  0.063900  0.669920  0.937660  1.0
  N  N1582  1  0.330080  0.936100  0.562340  1.0
  N  N1583  1  0.936100  0.330080  0.062340  1.0
  N  N1584  1  0.669920  0.063900  0.437660  1.0
  N  N1585  1  0.216120  0.741600  0.905860  1.0
  N  N1586  1  0.258400  0.783880  0.594140  1.0
  N  N1587  1  0.783880  0.258400  0.094140  1.0
  N  N1588  1  0.741600  0.216120  0.405860  1.0
  N  N1589  1  0.166380  0.713720  0.919730  1.0
  N  N1590  1  0.286280  0.833620  0.580270  1.0
  N  N1591  1  0.833620  0.286280  0.080270  1.0
  N  N1592  1  0.713720  0.166380  0.419730  1.0
  N  N1593  1  0.641200  0.641540  0.907940  1.0
  N  N1594  1  0.358460  0.358800  0.592060  1.0
  N  N1595  1  0.358800  0.358460  0.092060  1.0
  N  N1596  1  0.641540  0.641200  0.407940  1.0
  N  N1597  1  0.472010  0.566990  0.923430  1.0
  N  N1598  1  0.433010  0.527990  0.576570  1.0
  N  N1599  1  0.527990  0.433010  0.076570  1.0
  N  N1600  1  0.566990  0.472010  0.423430  1.0
  N  N1601  1  0.528740  0.599380  0.916400  1.0
  N  N1602  1  0.400620  0.471260  0.583600  1.0
  N  N1603  1  0.471260  0.400620  0.083600  1.0
  N  N1604  1  0.599380  0.528740  0.416400  1.0
  N  N1605  1  0.474340  0.631740  0.848160  1.0
  N  N1606  1  0.368260  0.525660  0.651840  1.0
  N  N1607  1  0.525660  0.368260  0.151840  1.0
  N  N1608  1  0.631740  0.474340  0.348160  1.0
  N  N1609  1  0.606270  0.783850  0.914170  1.0
  N  N1610  1  0.216150  0.393730  0.585830  1.0
  N  N1611  1  0.393730  0.216150  0.085830  1.0
  N  N1612  1  0.783850  0.606270  0.414170  1.0
  N  N1613  1  0.565880  0.726520  0.892360  1.0
  N  N1614  1  0.273480  0.434120  0.607640  1.0
  N  N1615  1  0.434120  0.273480  0.107640  1.0
  N  N1616  1  0.726520  0.565880  0.392360  1.0
  N  N1617  1  0.936100  0.932500  0.157540  1.0
  N  N1618  1  0.067500  0.063900  0.342460  1.0
  N  N1619  1  0.063900  0.067500  0.842460  1.0
  N  N1620  1  0.932500  0.936100  0.657540  1.0
  N  N1621  1  0.820960  0.772840  0.093060  1.0
  N  N1622  1  0.227160  0.179040  0.406940  1.0
  N  N1623  1  0.179040  0.227160  0.906940  1.0
  N  N1624  1  0.772840  0.820960  0.593060  1.0
  N  N1625  1  0.855700  0.831900  0.114830  1.0
  N  N1626  1  0.168100  0.144300  0.385170  1.0
  N  N1627  1  0.144300  0.168100  0.885170  1.0
  N  N1628  1  0.831900  0.855700  0.614830  1.0
  N  N1629  1  0.874170  0.951230  0.091360  1.0
  N  N1630  1  0.048770  0.125830  0.408640  1.0
  N  N1631  1  0.125830  0.048770  0.908640  1.0
  N  N1632  1  0.951230  0.874170  0.591360  1.0
  N  N1633  1  0.693400  0.872020  0.091360  1.0
  N  N1634  1  0.127980  0.306600  0.408640  1.0
  N  N1635  1  0.306600  0.127980  0.908640  1.0
  N  N1636  1  0.872020  0.693400  0.591360  1.0
  N  N1637  1  0.758070  0.900270  0.096190  1.0
  N  N1638  1  0.099730  0.241930  0.403810  1.0
  N  N1639  1  0.241930  0.099730  0.903810  1.0
  N  N1640  1  0.900270  0.758070  0.596190  1.0
  N  N1641  1  0.380970  0.899430  0.254160  1.0
  N  N1642  1  0.100570  0.619030  0.245840  1.0
  N  N1643  1  0.619030  0.100570  0.745840  1.0
  N  N1644  1  0.899430  0.380970  0.754160  1.0
  N  N1645  1  0.563480  0.963920  0.261420  1.0
  N  N1646  1  0.036080  0.436520  0.238580  1.0
  N  N1647  1  0.436520  0.036080  0.738580  1.0
  N  N1648  1  0.963920  0.563480  0.761420  1.0
  N  N1649  1  0.498420  0.941780  0.254800  1.0
  N  N1650  1  0.058220  0.501580  0.245200  1.0
  N  N1651  1  0.501580  0.058220  0.745200  1.0
  N  N1652  1  0.941780  0.498420  0.754800  1.0
  N  N1653  1  0.118540  0.621440  0.995360  1.0
  N  N1654  1  0.378560  0.881460  0.504640  1.0
  N  N1655  1  0.881460  0.378560  0.004640  1.0
  N  N1656  1  0.621440  0.118540  0.495360  1.0
  N  N1657  1  0.187920  0.805660  0.007120  1.0
  N  N1658  1  0.194340  0.812080  0.492880  1.0
  N  N1659  1  0.812080  0.194340  0.992880  1.0
  N  N1660  1  0.805660  0.187920  0.507120  1.0
  N  N1661  1  0.166210  0.740490  0.999280  1.0
  N  N1662  1  0.259510  0.833790  0.500720  1.0
  N  N1663  1  0.833790  0.259510  0.000720  1.0
  N  N1664  1  0.740490  0.166210  0.499280  1.0
  N  N1665  1  0.417320  0.852720  0.188030  1.0
  N  N1666  1  0.147280  0.582680  0.311970  1.0
  N  N1667  1  0.582680  0.147280  0.811970  1.0
  N  N1668  1  0.852720  0.417320  0.688030  1.0
  N  N1669  1  0.502370  0.017290  0.168710  1.0
  N  N1670  1  0.982710  0.497630  0.331290  1.0
  N  N1671  1  0.497630  0.982710  0.831290  1.0
  N  N1672  1  0.017290  0.502370  0.668710  1.0
  N  N1673  1  0.469840  0.963760  0.178550  1.0
  N  N1674  1  0.036240  0.530160  0.321450  1.0
  N  N1675  1  0.530160  0.036240  0.821450  1.0
  N  N1676  1  0.963760  0.469840  0.678550  1.0
  N  N1677  1  0.196730  0.116870  0.831460  1.0
  N  N1678  1  0.883130  0.803270  0.668540  1.0
  N  N1679  1  0.803270  0.883130  0.168540  1.0
  N  N1680  1  0.116870  0.196730  0.331460  1.0
  N  N1681  1  0.125500  0.939900  0.833830  1.0
  N  N1682  1  0.060100  0.874500  0.666170  1.0
  N  N1683  1  0.874500  0.060100  0.166170  1.0
  N  N1684  1  0.939900  0.125500  0.333830  1.0
  N  N1685  1  0.154490  0.004510  0.838840  1.0
  N  N1686  1  0.995490  0.845510  0.661160  1.0
  N  N1687  1  0.845510  0.995490  0.161160  1.0
  N  N1688  1  0.004510  0.154490  0.338840  1.0
  N  N1689  1  0.454680  0.458860  0.149690  1.0
  N  N1690  1  0.541140  0.545320  0.350310  1.0
  N  N1691  1  0.545320  0.541140  0.850310  1.0
  N  N1692  1  0.458860  0.454680  0.649690  1.0
  N  N1693  1  0.371970  0.313630  0.181770  1.0
  N  N1694  1  0.686370  0.628030  0.318230  1.0
  N  N1695  1  0.628030  0.686370  0.818230  1.0
  N  N1696  1  0.313630  0.371970  0.681770  1.0
  N  N1697  1  0.400880  0.355720  0.167240  1.0
  N  N1698  1  0.644280  0.599120  0.332760  1.0
  N  N1699  1  0.599120  0.644280  0.832760  1.0
  N  N1700  1  0.355720  0.400880  0.667240  1.0
  O  O1701  1  0.474050  0.236750  0.305030  1.0
  O  O1702  1  0.763250  0.525950  0.194970  1.0
  O  O1703  1  0.525950  0.763250  0.694970  1.0
  O  O1704  1  0.236750  0.474050  0.805030  1.0
  O  O1705  1  0.124300  0.384700  0.871300  1.0
  O  O1706  1  0.615300  0.875700  0.628700  1.0
  O  O1707  1  0.875700  0.615300  0.128700  1.0
  O  O1708  1  0.384700  0.124300  0.371300  1.0
  O  O1709  1  0.842700  0.632900  0.889900  1.0
  O  O1710  1  0.367100  0.157300  0.610100  1.0
  O  O1711  1  0.157300  0.367100  0.110100  1.0
  O  O1712  1  0.632900  0.842700  0.389900  1.0
  O  O1713  1  0.848930  0.662270  0.971160  1.0
  O  O1714  1  0.337730  0.151070  0.528840  1.0
  O  O1715  1  0.151070  0.337730  0.028840  1.0
  O  O1716  1  0.662270  0.848930  0.471160  1.0
  O  O1717  1  0.261530  0.589870  0.785700  1.0
  O  O1718  1  0.410130  0.738470  0.714300  1.0
  O  O1719  1  0.738470  0.410130  0.214300  1.0
  O  O1720  1  0.589870  0.261530  0.285700  1.0
  O  O1721  1  0.107600  0.952200  0.239100  1.0
  O  O1722  1  0.047800  0.892400  0.260900  1.0
  O  O1723  1  0.892400  0.047800  0.760900  1.0
  O  O1724  1  0.952200  0.107600  0.739100  1.0
  O  O1725  1  0.979700  0.042700  0.008150  1.0
  O  O1726  1  0.957300  0.020300  0.491850  1.0
  O  O1727  1  0.020300  0.957300  0.991850  1.0
  O  O1728  1  0.042700  0.979700  0.508150  1.0
  O  O1729  1  0.252800  0.776200  0.317900  1.0
  O  O1730  1  0.223800  0.747200  0.182100  1.0
  O  O1731  1  0.747200  0.223800  0.682100  1.0
  O  O1732  1  0.776200  0.252800  0.817900  1.0
  O  O1733  1  0.045900  0.489100  0.073040  1.0
  O  O1734  1  0.510900  0.954100  0.426960  1.0
  O  O1735  1  0.954100  0.510900  0.926960  1.0
  O  O1736  1  0.489100  0.045900  0.573040  1.0
  O  O1737  1  0.384410  0.638590  0.133140  1.0
  O  O1738  1  0.361410  0.615590  0.366860  1.0
  O  O1739  1  0.615590  0.361410  0.866860  1.0
  O  O1740  1  0.638590  0.384410  0.633140  1.0
  O  O1741  1  0.304790  0.230210  0.754040  1.0
  O  O1742  1  0.769790  0.695210  0.745960  1.0
  O  O1743  1  0.695210  0.769790  0.245960  1.0
  O  O1744  1  0.230210  0.304790  0.254040  1.0
  O  O1745  1  0.479540  0.639860  0.238010  1.0
  O  O1746  1  0.360140  0.520460  0.261990  1.0
  O  O1747  1  0.520460  0.360140  0.761990  1.0
  O  O1748  1  0.639860  0.479540  0.738010  1.0
  O  O1749  1  0.404900  0.881500  0.936500  1.0
  O  O1750  1  0.118500  0.595100  0.563500  1.0
  O  O1751  1  0.595100  0.118500  0.063500  1.0
  O  O1752  1  0.881500  0.404900  0.436500  1.0
  O  O1753  1  0.376100  0.874700  0.983800  1.0
  O  O1754  1  0.125300  0.623900  0.516200  1.0
  O  O1755  1  0.623900  0.125300  0.016200  1.0
  O  O1756  1  0.874700  0.376100  0.483800  1.0
