
#######################################################################
#
#                 Cambridge Crystallographic Data Centre
#                                CCDC 
#
#######################################################################
#
# If this CIF has been generated from an entry in the Cambridge 
# Structural Database, then it will include bibliographic, chemical, 
# crystal, experimental, refinement or atomic coordinate data resulting 
# from the CCDC's data processing and validation procedures.
#
#######################################################################

data_QOTFOV
_chemical_formula_moiety         
'C98 H126 N30 Pt6 12+,2(C20 H25 N7 O10 P1),2(C5 H5 N5),12(N1 O3 1-),40(H2 O1)'
_chemical_name_systematic        
"bis(\m~3~-2,4,6-tris(4-Pyridyl)-1,3,5-triazine)-tris(\m~2~-4,4'-bipyridine)-hexakis(1,2-cyclohexanediamine)-hexa-platinum(ii) bis(thymidylyl-(3'-5')-2'-deoxyadenosine) bis(adenine) clathrate dodecanitrate hydrate"
_symmetry_cell_setting           tetragonal
_symmetry_space_group_name_H-M   'P 43 21 2'
_symmetry_Int_Tables_number      96
_space_group_name_Hall           'P 4nw 2abw'
loop_
_symmetry_equiv_pos_site_id
_symmetry_equiv_pos_as_xyz
1 x,y,z
2 -x,-y,1/2+z
3 1/2-y,1/2+x,3/4+z
4 1/2+y,1/2-x,1/4+z
5 1/2-x,1/2+y,3/4-z
6 1/2+x,1/2-y,1/4-z
7 y,x,-z
8 -y,-x,1/2-z
_cell_length_a                   28.765(8)
_cell_length_b                   28.765(8)
_cell_length_c                   28.673(8)
_cell_angle_alpha                90
_cell_angle_beta                 90
_cell_angle_gamma                90
_cell_volume                     23724.8
_cell_formula_units_Z            4
loop_
_atom_site_label
_atom_site_type_symbol
_atom_site_fract_x
_atom_site_fract_y
_atom_site_fract_z
P1 P 1.35561(15) 0.74439(19) 0.04807(16)
O1 O 1.3777(4) 0.6945(5) 0.0541(4)
O2 O 1.3340(5) 0.7495(6) 0.0020(4)
O3 O 1.3918(4) 0.7761(6) 0.0620(5)
O4 O 1.3122(3) 0.7426(4) 0.0830(3)
N16 N 1.5431(4) 0.5537(5) -0.1066(5)
C52 C 1.5038(5) 0.5346(5) -0.0862(6)
H67 H 1.4893 0.5104 -0.1034
N17 N 1.4836(5) 0.5452(5) -0.0464(5)
C53 C 1.5051(5) 0.5819(6) -0.0271(5)
C54 C 1.5463(5) 0.6043(5) -0.0420(5)
C55 C 1.5650(5) 0.5895(5) -0.0838(5)
N18 N 1.6025(4) 0.6074(4) -0.1027(4)
H68 H 1.6130 0.5964 -0.1294
H69 H 1.6171 0.6304 -0.0888
N19 N 1.5562(5) 0.6397(5) -0.0128(5)
C56 C 1.5249(5) 0.6381(6) 0.0212(5)
H70 H 1.5236 0.6588 0.0470
N20 N 1.4943(5) 0.6019(5) 0.0133(5)
O5 O 1.4143(4) 0.6052(4) 0.0233(4)
C57 C 1.4543(6) 0.5875(8) 0.0433(6)
H71 H 1.4531 0.5535 0.0507
C58 C 1.4553(15) 0.6217(18) 0.0891(15)
H72 H 1.4778 0.6104 0.1127
H73 H 1.4636 0.6540 0.0803
C59 C 1.4028(15) 0.6188(19) 0.1083(15)
H74 H 1.3940 0.6503 0.1199
O6 O 1.3948(10) 0.5905(13) 0.1400(11)
C62 C 1.3795(6) 0.6121(7) 0.0580(6)
H80 H 1.3590 0.5840 0.0589
C63 C 1.3500(5) 0.6539(8) 0.0493(6)
H81 H 1.3367 0.6525 0.0175
H82 H 1.3240 0.6548 0.0719
N21 N 1.2591(4) 0.8209(4) 0.2083(4)
C64 C 1.2192(5) 0.8472(5) 0.2053(5)
O10 O 1.1921(3) 0.8477(4) 0.1724(3)
N22 N 1.2120(5) 0.8759(4) 0.2438(4)
H83 H 1.1874 0.8941 0.2430
C65 C 1.2388(7) 0.8785(6) 0.2818(5)
O11 O 1.2281(5) 0.9066(4) 0.3141(5)
C66 C 1.2744(6) 0.8489(6) 0.2856(5)
C67 C 1.2849(7) 0.8197(5) 0.2472(5)
H84 H 1.3106 0.7990 0.2491
C68 C 1.3066(9) 0.8468(6) 0.3272(7)
H85 H 1.2961 0.8689 0.3510
H86 H 1.3383 0.8548 0.3174
H87 H 1.3064 0.8153 0.3402
O12 O 1.2572(4) 0.7440(4) 0.1828(4)
C69 C 1.2684(5) 0.7899(5) 0.1685(5)
H88 H 1.2493 0.7992 0.1409
C70 C 1.3192(6) 0.7854(6) 0.1552(7)
H89 H 1.3288 0.8108 0.1340
H90 H 1.3394 0.7859 0.1832
C71 C 1.3218(6) 0.7390(6) 0.1311(5)
H91 H 1.3524 0.7235 0.1367
C72 C 1.2822(5) 0.7126(5) 0.1541(5)
H92 H 1.2605 0.7034 0.1284
C73 C 1.2894(12) 0.6702(11) 0.1829(10)
H94 H 1.2598 0.6615 0.1981
O13 O 1.3053(7) 0.6328(7) 0.1561(7)
H95 H 1.3342 0.6299 0.1597
O7 O 0.4999(16) 0.3917(16) -0.1290(16)
O9 O 0.4679(17) 0.4641(17) -0.1794(18)
N23 N 0.6138(5) 0.2527(5) 0.3727(5)
C75 C 0.5985(8) 0.2672(7) 0.3315(7)
H99 H 0.6167 0.2907 0.3172
N24 N 0.5611(6) 0.2537(6) 0.3068(6)
C76 C 0.5391(6) 0.2169(5) 0.3315(6)
C77 C 0.5519(7) 0.1977(7) 0.3724(5)
C78 C 0.5919(6) 0.2179(7) 0.3954(6)
N25 N 0.6062(5) 0.2025(6) 0.4366(4)
H100 H 0.6308 0.2150 0.4500
H101 H 0.5912 0.1798 0.4506
N26 N 0.5226(6) 0.1625(5) 0.3869(5)
C79 C 0.4904(7) 0.1594(8) 0.3537(7)
H102 H 0.4653 0.1380 0.3534
N27 N 0.4998(6) 0.1940(5) 0.3182(5)
H103 H 0.4833 0.1992 0.2929
N28 N 0.5693(5) -0.1601(5) -0.2695(5)
O15 O 0.5946(5) -0.1495(5) -0.3027(5)
O16 O 0.5549(5) -0.1285(5) -0.2411(5)
O17 O 0.5570(4) -0.2006(4) -0.2641(4)
N29 N 0.7017(10) 0.1425(11) 0.1371(11)
O18 O 0.7413(8) 0.1533(8) 0.1507(8)
O19 O 0.6895(14) 0.1041(13) 0.1613(13)
O20 O 0.6725(8) 0.1543(8) 0.1047(8)
N30 N 0.5420(11) 0.1295(11) 0.0124(11)
O21 O 0.5627(8) 0.0873(9) 0.0129(9)
O22 O 0.5746(14) 0.1521(14) 0.0327(14)
O23 O 0.5102(8) 0.1447(8) -0.0151(8)
O24 O 1.3816(6) 0.8696(6) 0.0743(6)
O25 O 0.5879(6) 0.2707(6) 1.0002(6)
O26 O 0.6141(5) -0.0545(5) -0.2850(5)
O27 O 0.6231(11) 0.0725(11) 0.0839(11)
O28 O 0.9922(15) 0.3137(16) 0.4316(13)
O29 O 0.5885(7) 0.0159(7) 0.1575(7)
O30 O 0.5239(8) 0.5515(8) 0.1985(8)
O31 O 1.2078(6) 0.9788(6) 0.3708(6)
O32 O 0.4471(6) 0.7655(6) 0.1371(5)
O33 O 0.6469(5) 0.2475(5) 0.0756(5)
O34 O 0.8107(5) 0.7873(5) 0.3299(5)
O35 O 0.4949(6) 0.2359(6) 0.0128(6)
O36 O 1.6585(9) 0.5748(9) -0.1855(8)
O37 O 0.7945(9) 0.1566(9) -0.0947(9)
O38 O 0.4455(10) 0.6034(9) 0.2202(9)
O39 O 1.1113(6) 0.2556(6) 0.3416(6)
N31 N 1.418(3) 0.830(2) 0.247(2)
O40 O 1.411(2) 0.795(2) 0.274(2)
O41 O 1.405(3) 0.836(3) 0.204(2)
O42 O 1.439(2) 0.860(2) 0.275(2)
O46 O 0.4284(12) 0.2714(12) -0.0404(12)
O47 O 1.4166(16) 0.7135(16) 0.2173(15)
N33 N 1.360(3) 0.355(3) 0.118(2)
O51 O 1.3798(15) 0.3694(15) 0.1570(16)
O52 O 1.331(3) 0.375(3) 0.089(3)
O53 O 1.388(2) 0.321(3) 0.104(2)
O57 O 1.2804(18) 0.4825(18) 0.1939(19)
O58 O 1.6508(19) 0.5638(19) -0.2764(12)
O59 O 0.497(4) 0.296(3) -0.082(4)
O60 O 1.4963(7) 0.9355(7) 0.2268(7)
O63 O 1.4345(14) 0.6838(15) 0.2729(14)
O65 O 0.3309(10) 0.5481(10) -0.2444(10)
O66 O 0.3754(18) 0.4749(15) -0.2123(19)
O67 O 1.4152(8) 0.9164(8) 0.1486(8)
O68 O 1.0400(13) 0.3059(14) 0.3540(12)
Pt1 Pt 0.588700(19) 0.021126(19) -0.170299(19)
Pt2 Pt 0.949680(18) -0.173710(19) -0.359640(19)
Pt3 Pt 0.766570(18) 0.189090(19) -0.556540(18)
N1 N 0.9057(4) -0.1187(4) -0.3599(4)
N2 N 0.7707(4) 0.1499(4) -0.4983(4)
N3 N 0.8120(4) 0.0255(4) -0.3847(4)
C1 C 0.8768(5) -0.1155(5) -0.3237(6)
H1 H 0.8784 -0.1381 -0.2996
C2 C 0.8440(5) -0.0792(4) -0.3203(5)
H2 H 0.8222 -0.0782 -0.2954
C3 C 0.8445(5) -0.0453(4) -0.3541(5)
C4 C 0.8770(5) -0.0475(5) -0.3907(4)
H3 H 0.8787 -0.0237 -0.4137
C5 C 0.9064(5) -0.0857(5) -0.3917(5)
H4 H 0.9280 -0.0882 -0.4166
C6 C 0.8097(5) 0.1239(5) -0.4913(5)
H5 H 0.8348 0.1260 -0.5128
C7 C 0.8132(5) 0.0939(5) -0.4524(5)
H6 H 0.8402 0.0755 -0.4478
C8 C 0.7780(5) 0.0920(4) -0.4224(4)
C9 C 0.7386(5) 0.1201(5) -0.4286(5)
H7 H 0.7137 0.1195 -0.4068
C10 C 0.7372(4) 0.1482(5) -0.4667(5)
H8 H 0.7108 0.1676 -0.4709
C11 C 0.8110(5) -0.0058(5) -0.3516(4)
C12 C 0.7795(4) 0.0581(5) -0.3829(5)
N4 N 0.6439(4) 0.0279(4) -0.2130(4)
N5 N 0.7812(4) -0.0058(4) -0.3163(4)
N6 N 0.7471(4) 0.0617(4) -0.3495(4)
C13 C 0.6442(5) 0.0594(5) -0.2466(5)
H9 H 0.6197 0.0815 -0.2477
C14 C 0.6788(4) 0.0618(5) -0.2804(5)
H10 H 0.6775 0.0846 -0.3043
C15 C 0.7147(5) 0.0305(5) -0.2786(5)
C16 C 0.7508(5) 0.0291(5) -0.3166(5)
C17 C 0.7146(5) -0.0030(6) -0.2442(6)
H11 H 0.7387 -0.0255 -0.2426
C18 C 0.6802(6) -0.0032(6) -0.2131(6)
H12 H 0.6808 -0.0263 -0.1894
N7 N 0.8060(3) 0.2380(4) -0.5243(3)
N8 N 0.6224(4) 0.0543(4) -0.1181(4)
C19 C 0.8507(6) 0.2398(5) -0.5310(5)
H13 H 0.8633 0.2197 -0.5541
C20 C 0.8806(5) 0.2676(5) -0.5083(5)
H14 H 0.9130 0.2667 -0.5145
C21 C 0.8615(5) 0.2981(5) -0.4747(5)
C22 C 0.8134(5) 0.2978(5) -0.4687(5)
H15 H 0.7993 0.3191 -0.4477
C23 C 0.7866(5) 0.2673(5) -0.4928(4)
H16 H 0.7540 0.2664 -0.4875
C24 C 0.6619(5) 0.0392(5) -0.0996(5)
H17 H 0.6732 0.0094 -0.1084
C25 C 0.6869(5) 0.0648(5) -0.0685(5)
H18 H 0.7147 0.0524 -0.0556
C26 C 0.8916(5) 0.3277(5) -0.4444(5)
C27 C 0.8760(5) 0.3697(5) -0.4257(6)
H19 H 0.8464 0.3817 -0.4342
C28 C 0.6065(5) 0.0964(5) -0.1049(5)
H20 H 0.5778 0.1072 -0.1172
N9 N 0.9946(4) -0.1365(4) -0.3184(4)
C29 C 0.9932(5) -0.1401(5) -0.2733(6)
H21 H 0.9719 -0.1609 -0.2590
C30 C 1.0229(5) -0.1136(6) -0.2459(6)
H22 H 1.0220 -0.1174 -0.2130
C31 C 1.0531(4) -0.0826(4) -0.2643(5)
C32 C 1.0524(6) -0.0808(6) -0.3122(5)
H23 H 1.0728 -0.0597 -0.3274
C33 C 1.0243(5) -0.1074(5) -0.3386(5)
H24 H 1.0257 -0.1053 -0.3716
N10 N 0.5505(4) -0.0104(4) -0.2206(4)
H25 H 0.5391 0.0114 -0.2410
H26 H 0.5688 -0.0309 -0.2370
N11 N 0.5317(5) 0.0095(6) -0.1301(5)
H27 H 0.5381 -0.0132 -0.1085
H28 H 0.5239 0.0363 -0.1144
N12 N 0.9084(4) -0.2141(5) -0.4003(4)
H29 H 0.8830 -0.2240 -0.3835
H30 H 0.8979 -0.1972 -0.4255
N13 N 0.9898(4) -0.2329(5) -0.3586(4)
H31 H 1.0161 -0.2287 -0.3764
H32 H 0.9988 -0.2395 -0.3286
N14 N 0.7296(4) 0.1401(5) -0.5928(4)
H33 H 0.7489 0.1161 -0.6013
H34 H 0.7063 0.1283 -0.5743
N15 N 0.7595(4) 0.2262(4) -0.6163(4)
H35 H 0.7375 0.2490 -0.6125
H36 H 0.7873 0.2402 -0.6239
C34 C 0.5117(5) -0.0355(6) -0.1981(6)
H37 H 0.5244 -0.0645 -0.1838
C35 C 0.4931(6) -0.0050(6) -0.1593(5)
H38 H 0.4775 0.0229 -0.1730
C36 C 0.4569(6) -0.0341(7) -0.1309(6)
H39 H 0.4717 -0.0626 -0.1186
H40 H 0.4451 -0.0156 -0.1043
C37 C 0.4169(7) -0.0468(7) -0.1638(8)
H41 H 0.3929 -0.0644 -0.1464
H42 H 0.4023 -0.0180 -0.1760
C38 C 0.4343(7) -0.0758(7) -0.2039(7)
H43 H 0.4081 -0.0833 -0.2249
H44 H 0.4470 -0.1054 -0.1918
C39 C 0.4735(5) -0.0494(6) -0.2325(6)
H45 H 0.4863 -0.0700 -0.2570
H46 H 0.4603 -0.0215 -0.2477
C40 C 0.9349(5) -0.2542(7) -0.4166(5)
H47 H 0.9568 -0.2429 -0.4412
C41 C 0.9633(5) -0.2699(6) -0.3767(5)
H48 H 0.9414 -0.2801 -0.3516
C42 C 0.9954(6) -0.3125(8) -0.3887(7)
H49 H 1.0192 -0.3028 -0.4117
H50 H 1.0117 -0.3229 -0.3601
C43 C 0.9668(7) -0.3534(8) -0.4089(7)
H51 H 0.9473 -0.3672 -0.3840
H52 H 0.9881 -0.3777 -0.4207
C44 C 0.9352(7) -0.3357(9) -0.4492(7)
H53 H 0.9133 -0.3608 -0.4579
H54 H 0.9549 -0.3293 -0.4768
C45 C 0.9067(6) -0.2910(8) -0.4373(6)
H55 H 0.8922 -0.2791 -0.4662
H56 H 0.8815 -0.2994 -0.4154
C46 C 0.7098(5) 0.1613(5) -0.6339(5)
H57 H 0.6823 0.1801 -0.6241
C47 C 0.7451(5) 0.1938(5) -0.6544(4)
H58 H 0.7727 0.1754 -0.6648
C48 C 0.7250(7) 0.2201(6) -0.6966(5)
H59 H 0.7487 0.2415 -0.7096
H60 H 0.6978 0.2388 -0.6869
C49 C 0.7100(10) 0.1839(7) -0.7345(6)
H61 H 0.6964 0.2002 -0.7617
H62 H 0.7375 0.1663 -0.7453
C50 C 0.6739(9) 0.1502(7) -0.7136(6)
H63 H 0.6455 0.1676 -0.7048
H64 H 0.6652 0.1266 -0.7371
C51 C 0.6939(8) 0.1269(7) -0.6716(7)
H65 H 0.7207 0.1077 -0.6813
H66 H 0.6702 0.1059 -0.6581
Pt1G Pt 0.978874(19) 0.411300(19) -0.329701(19)
Pt2G Pt 1.173710(19) 0.050320(18) -0.140360(19)
Pt3G Pt 0.810910(19) 0.233430(18) 0.056540(18)
N1G N 1.1187(4) 0.0943(4) -0.1401(4)
N2G N 0.8501(4) 0.2293(4) -0.0017(4)
N3G N 0.9745(4) 0.1880(4) -0.1153(4)
C1G C 1.1155(5) 0.1232(5) -0.1763(6)
H1G H 1.1381 0.1216 -0.2004
C2G C 1.0792(4) 0.1560(5) -0.1797(5)
H2G H 1.0782 0.1778 -0.2046
C3G C 1.0453(4) 0.1555(5) -0.1459(5)
C4G C 1.0475(5) 0.1230(5) -0.1093(4)
H3G H 1.0237 0.1213 -0.0863
C5G C 1.0857(5) 0.0936(5) -0.1083(5)
H4G H 1.0882 0.0720 -0.0834
C6G C 0.8761(5) 0.1903(5) -0.0087(5)
H5G H 0.8740 0.1652 0.0128
C7G C 0.9061(5) 0.1868(5) -0.0476(5)
H6G H 0.9245 0.1598 -0.0522
C8G C 0.9080(4) 0.2220(5) -0.0776(4)
C9G C 0.8799(5) 0.2614(5) -0.0714(5)
H7G H 0.8805 0.2863 -0.0932
C10G C 0.8518(5) 0.2628(4) -0.0333(5)
H8G H 0.8324 0.2892 -0.0291
C11G C 1.0058(5) 0.1890(5) -0.1484(4)
C12G C 0.9419(5) 0.2205(4) -0.1171(5)
N4G N 0.9721(4) 0.3561(4) -0.2870(4)
N5G N 1.0058(4) 0.2188(4) -0.1837(4)
N6G N 0.9383(4) 0.2529(4) -0.1505(4)
C13G C 0.9406(5) 0.3558(5) -0.2534(5)
H9G H 0.9185 0.3803 -0.2523
C14G C 0.9382(5) 0.3212(4) -0.2196(5)
H10G H 0.9154 0.3225 -0.1957
C15G C 0.9695(5) 0.2853(5) -0.2214(5)
C16G C 0.9709(5) 0.2492(5) -0.1834(5)
C17G C 1.0030(6) 0.2854(5) -0.2558(6)
H11G H 1.0255 0.2613 -0.2574
C18G C 1.0032(6) 0.3198(6) -0.2869(6)
H12G H 1.0263 0.3192 -0.3106
N7G N 0.7620(4) 0.1940(3) 0.0243(3)
N8G N 0.9457(4) 0.3776(4) -0.3819(4)
C19G C 0.7602(5) 0.1493(6) 0.0310(5)
H13G H 0.7803 0.1367 0.0541
C20G C 0.7324(5) 0.1194(5) 0.0083(5)
H14G H 0.7333 0.0870 0.0145
C21G C 0.7019(5) 0.1385(5) -0.0253(5)
C22G C 0.7022(5) 0.1866(5) -0.0313(5)
H15G H 0.6809 0.2007 -0.0523
C23G C 0.7327(5) 0.2134(5) -0.0072(4)
H16G H 0.7336 0.2460 -0.0125
C24G C 0.9608(5) 0.3381(5) -0.4004(5)
H17G H 0.9906 0.3268 -0.3916
C25G C 0.9352(5) 0.3131(5) -0.4315(5)
H18G H 0.9476 0.2853 -0.4444
C26G C 0.6723(5) 0.1084(5) -0.0556(5)
C27G C 0.6303(5) 0.1240(5) -0.0743(6)
H19G H 0.6183 0.1536 -0.0658
C28G C 0.9036(5) 0.3935(5) -0.3951(5)
H20G H 0.8928 0.4222 -0.3828
N9G N 1.1365(4) 0.0054(4) -0.1816(4)
C29G C 1.1401(5) 0.0068(5) -0.2267(6)
H21G H 1.1609 0.0281 -0.2410
C30G C 1.1136(6) -0.0229(5) -0.2541(6)
H22G H 1.1174 -0.0220 -0.2870
C31G C 1.0826(4) -0.0531(4) -0.2357(5)
C32G C 1.0808(6) -0.0524(6) -0.1878(5)
H23G H 1.0597 -0.0728 -0.1726
C33G C 1.1074(5) -0.0243(5) -0.1614(5)
H24G H 1.1053 -0.0257 -0.1284
N10G N 1.0104(4) 0.4495(4) -0.2794(4)
H25G H 0.9886 0.4609 -0.2590
H26G H 1.0309 0.4312 -0.2630
N11G N 0.9905(6) 0.4683(5) -0.3699(5)
H27G H 1.0132 0.4619 -0.3915
H28G H 0.9637 0.4761 -0.3856
N12G N 1.2141(5) 0.0916(4) -0.0997(4)
H29G H 1.2240 0.1170 -0.1165
H30G H 1.1972 0.1021 -0.0745
N13G N 1.2329(5) 0.0102(4) -0.1414(4)
H31G H 1.2287 -0.0161 -0.1236
H32G H 1.2395 0.0012 -0.1714
N14G N 0.8599(5) 0.2704(4) 0.0928(4)
H33G H 0.8839 0.2511 0.1013
H34G H 0.8717 0.2937 0.0743
N15G N 0.7738(4) 0.2405(4) 0.1163(4)
H35G H 0.7510 0.2625 0.1125
H36G H 0.7598 0.2127 0.1239
C34G C 1.0355(6) 0.4883(5) -0.3019(6)
H37G H 1.0645 0.4756 -0.3162
C35G C 1.0050(6) 0.5069(6) -0.3407(5)
H38G H 0.9771 0.5225 -0.3270
C36G C 1.0341(7) 0.5431(6) -0.3691(6)
H39G H 1.0626 0.5283 -0.3814
H40G H 1.0156 0.5549 -0.3957
C37G C 1.0468(7) 0.5831(7) -0.3362(8)
H41G H 1.0644 0.6071 -0.3536
H42G H 1.0180 0.5977 -0.3240
C38G C 1.0758(7) 0.5657(7) -0.2961(7)
H43G H 1.0833 0.5919 -0.2751
H44G H 1.1054 0.5530 -0.3082
C39G C 1.0494(6) 0.5265(5) -0.2675(6)
H45G H 1.0700 0.5137 -0.2430
H46G H 1.0215 0.5397 -0.2523
C40G C 1.2542(7) 0.0651(5) -0.0834(5)
H47G H 1.2429 0.0432 -0.0588
C41G C 1.2699(6) 0.0367(5) -0.1233(5)
H48G H 1.2801 0.0586 -0.1484
C42G C 1.3125(8) 0.0046(6) -0.1113(7)
H49G H 1.3028 -0.0192 -0.0883
H50G H 1.3229 -0.0117 -0.1399
C43G C 1.3534(8) 0.0332(7) -0.0911(7)
H51G H 1.3672 0.0527 -0.1160
H52G H 1.3777 0.0119 -0.0793
C44G C 1.3357(9) 0.0648(7) -0.0508(7)
H53G H 1.3608 0.0867 -0.0421
H54G H 1.3293 0.0451 -0.0232
C45G C 1.2910(8) 0.0933(6) -0.0627(6)
H55G H 1.2791 0.1078 -0.0338
H56G H 1.2994 0.1185 -0.0846
C46G C 0.8387(5) 0.2902(5) 0.1339(5)
H57G H 0.8199 0.3177 0.1241
C47G C 0.8062(5) 0.2549(5) 0.1544(4)
H58G H 0.8246 0.2273 0.1648
C48G C 0.7799(6) 0.2750(7) 0.1966(5)
H59G H 0.7585 0.2513 0.2096
H60G H 0.7612 0.3022 0.1869
C49G C 0.8161(7) 0.2900(10) 0.2345(6)
H61G H 0.7998 0.3036 0.2617
H62G H 0.8337 0.2625 0.2453
C50G C 0.8498(7) 0.3261(9) 0.2136(6)
H63G H 0.8324 0.3545 0.2048
H64G H 0.8734 0.3348 0.2371
C51G C 0.8731(7) 0.3061(8) 0.1716(7)
H65G H 0.8923 0.2793 0.1813
H66G H 0.8941 0.3298 0.1581
loop_
_geom_bond_atom_site_label_1
_geom_bond_atom_site_label_2
_geom_bond_site_symmetry_1
_geom_bond_site_symmetry_2
Pt1 N4 1_555 1_555
Pt2 N1 1_555 1_555
Pt3 N2 1_555 1_555
P1 O1 1_555 1_555
N1 C1 1_555 1_555
N2 C6 1_555 1_555
N3 C11 1_555 1_555
C1 H1 1_555 1_555
C2 C1 1_555 1_555
H2 C2 1_555 1_555
C3 C2 1_555 1_555
C4 C3 1_555 1_555
H3 C4 1_555 1_555
C5 N1 1_555 1_555
H4 C5 1_555 1_555
C6 H5 1_555 1_555
C7 C6 1_555 1_555
H6 C7 1_555 1_555
C8 C7 1_555 1_555
C9 C8 1_555 1_555
H7 C9 1_555 1_555
C10 N2 1_555 1_555
H8 C10 1_555 1_555
C11 C3 1_555 1_555
C12 N3 1_555 1_555
N4 C13 1_555 1_555
N5 C11 1_555 1_555
N6 C12 1_555 1_555
C13 H9 1_555 1_555
C14 C13 1_555 1_555
H10 C14 1_555 1_555
C15 C14 1_555 1_555
C16 N5 1_555 1_555
C17 C15 1_555 1_555
H11 C17 1_555 1_555
C18 N4 1_555 1_555
H12 C18 1_555 1_555
N7 Pt3 1_555 1_555
N8 Pt1 1_555 1_555
C19 N7 1_555 1_555
H13 C19 1_555 1_555
C20 C19 1_555 1_555
H14 C20 1_555 1_555
C21 C20 1_555 1_555
C22 C21 1_555 1_555
H15 C22 1_555 1_555
C23 N7 1_555 1_555
H16 C23 1_555 1_555
C24 N8 1_555 1_555
H17 C24 1_555 1_555
C25 C24 1_555 1_555
H18 C25 1_555 1_555
C26 C21 1_555 1_555
C27 C26 1_555 1_555
H19 C27 1_555 1_555
C28 N8 1_555 1_555
H20 C28 1_555 1_555
N9 Pt2 1_555 1_555
C29 N9 1_555 1_555
H21 C29 1_555 1_555
C30 C29 1_555 1_555
H22 C30 1_555 1_555
C31 C30 1_555 1_555
C32 C31 1_555 1_555
H23 C32 1_555 1_555
C33 N9 1_555 1_555
H24 C33 1_555 1_555
N10 Pt1 1_555 1_555
H25 N10 1_555 1_555
H26 N10 1_555 1_555
N11 Pt1 1_555 1_555
H27 N11 1_555 1_555
H28 N11 1_555 1_555
N12 Pt2 1_555 1_555
H29 N12 1_555 1_555
H30 N12 1_555 1_555
N13 Pt2 1_555 1_555
H31 N13 1_555 1_555
H32 N13 1_555 1_555
N14 Pt3 1_555 1_555
H33 N14 1_555 1_555
H34 N14 1_555 1_555
N15 Pt3 1_555 1_555
H35 N15 1_555 1_555
H36 N15 1_555 1_555
C34 N10 1_555 1_555
H37 C34 1_555 1_555
C35 N11 1_555 1_555
H38 C35 1_555 1_555
C36 C35 1_555 1_555
H39 C36 1_555 1_555
H40 C36 1_555 1_555
C37 C36 1_555 1_555
H41 C37 1_555 1_555
H42 C37 1_555 1_555
C38 C37 1_555 1_555
H43 C38 1_555 1_555
H44 C38 1_555 1_555
C39 C34 1_555 1_555
H45 C39 1_555 1_555
H46 C39 1_555 1_555
C40 N12 1_555 1_555
H47 C40 1_555 1_555
C41 N13 1_555 1_555
H48 C41 1_555 1_555
C42 C41 1_555 1_555
H49 C42 1_555 1_555
H50 C42 1_555 1_555
C43 C42 1_555 1_555
H51 C43 1_555 1_555
H52 C43 1_555 1_555
C44 C43 1_555 1_555
H53 C44 1_555 1_555
H54 C44 1_555 1_555
C45 C40 1_555 1_555
H55 C45 1_555 1_555
H56 C45 1_555 1_555
C46 N14 1_555 1_555
H57 C46 1_555 1_555
C47 N15 1_555 1_555
H58 C47 1_555 1_555
C48 C47 1_555 1_555
H59 C48 1_555 1_555
H60 C48 1_555 1_555
C49 C48 1_555 1_555
H61 C49 1_555 1_555
H62 C49 1_555 1_555
C50 C49 1_555 1_555
H63 C50 1_555 1_555
H64 C50 1_555 1_555
C51 C46 1_555 1_555
H65 C51 1_555 1_555
H66 C51 1_555 1_555
O1 C63 1_555 1_555
O2 P1 1_555 1_555
O3 P1 1_555 1_555
O4 P1 1_555 1_555
N16 C52 1_555 1_555
C52 H67 1_555 1_555
N17 C52 1_555 1_555
C53 N17 1_555 1_555
C54 C53 1_555 1_555
C55 N16 1_555 1_555
N18 C55 1_555 1_555
H68 N18 1_555 1_555
H69 N18 1_555 1_555
N19 C54 1_555 1_555
C56 N19 1_555 1_555
H70 C56 1_555 1_555
N20 C53 1_555 1_555
O5 C57 1_555 1_555
C57 N20 1_555 1_555
H71 C57 1_555 1_555
C58 C57 1_555 1_555
H72 C58 1_555 1_555
H73 C58 1_555 1_555
C59 C58 1_555 1_555
H74 C59 1_555 1_555
O6 C59 1_555 1_555
C62 O5 1_555 1_555
H80 C62 1_555 1_555
C63 C62 1_555 1_555
H81 C63 1_555 1_555
H82 C63 1_555 1_555
N21 C64 1_555 1_555
C64 O10 1_555 1_555
N22 C64 1_555 1_555
H83 N22 1_555 1_555
C65 N22 1_555 1_555
O11 C65 1_555 1_555
C66 C65 1_555 1_555
C67 N21 1_555 1_555
H84 C67 1_555 1_555
C68 C66 1_555 1_555
H85 C68 1_555 1_555
H86 C68 1_555 1_555
H87 C68 1_555 1_555
O12 C69 1_555 1_555
C69 N21 1_555 1_555
H88 C69 1_555 1_555
C70 C69 1_555 1_555
H89 C70 1_555 1_555
H90 C70 1_555 1_555
C71 O4 1_555 1_555
H91 C71 1_555 1_555
C72 O12 1_555 1_555
H92 C72 1_555 1_555
C73 C72 1_555 1_555
H94 C73 1_555 1_555
O13 C73 1_555 1_555
H95 O13 1_555 1_555
N23 C75 1_555 1_555
C75 H99 1_555 1_555
N24 C75 1_555 1_555
C76 N24 1_555 1_555
C77 C76 1_555 1_555
C78 N23 1_555 1_555
N25 C78 1_555 1_555
H100 N25 1_555 1_555
H101 N25 1_555 1_555
N26 C77 1_555 1_555
C79 N26 1_555 1_555
H102 C79 1_555 1_555
N27 C76 1_555 1_555
H103 N27 1_555 1_555
N28 O15 1_555 1_555
O16 N28 1_555 1_555
O17 N28 1_555 1_555
N29 O18 1_555 1_555
O19 N29 1_555 1_555
O20 N29 1_555 1_555
N30 O21 1_555 1_555
O22 N30 1_555 1_555
O23 N30 1_555 1_555
N31 O40 1_555 1_555
O41 N31 1_555 1_555
O42 N31 1_555 1_555
N33 O51 1_555 1_555
O52 N33 1_555 1_555
O53 N33 1_555 1_555
Pt1G N4G 1_555 1_555
Pt2G N1G 1_555 1_555
Pt3G N2G 1_555 1_555
N1G C1G 1_555 1_555
N2G C6G 1_555 1_555
N3G C11G 1_555 1_555
C1G H1G 1_555 1_555
C2G C1G 1_555 1_555
H2G C2G 1_555 1_555
C3G C2G 1_555 1_555
C4G C3G 1_555 1_555
H3G C4G 1_555 1_555
C5G N1G 1_555 1_555
H4G C5G 1_555 1_555
C6G H5G 1_555 1_555
C7G C6G 1_555 1_555
H6G C7G 1_555 1_555
C8G C7G 1_555 1_555
C9G C8G 1_555 1_555
H7G C9G 1_555 1_555
C10G N2G 1_555 1_555
H8G C10G 1_555 1_555
C11G C3G 1_555 1_555
C12G N3G 1_555 1_555
N4G C13G 1_555 1_555
N5G C11G 1_555 1_555
N6G C12G 1_555 1_555
C13G H9G 1_555 1_555
C14G C13G 1_555 1_555
H10G C14G 1_555 1_555
C15G C14G 1_555 1_555
C16G N5G 1_555 1_555
C17G C15G 1_555 1_555
H11G C17G 1_555 1_555
C18G N4G 1_555 1_555
H12G C18G 1_555 1_555
N7G Pt3G 1_555 1_555
N8G Pt1G 1_555 1_555
C19G N7G 1_555 1_555
H13G C19G 1_555 1_555
C20G C19G 1_555 1_555
H14G C20G 1_555 1_555
C21G C20G 1_555 1_555
C22G C21G 1_555 1_555
H15G C22G 1_555 1_555
C23G N7G 1_555 1_555
H16G C23G 1_555 1_555
C24G N8G 1_555 1_555
H17G C24G 1_555 1_555
C25G C26 1_555 1_555
H18G C25G 1_555 1_555
C26G C25 1_555 1_555
C27G C28 1_555 1_555
H19G C27G 1_555 1_555
C28G C27 1_555 1_555
H20G C28G 1_555 1_555
N9G Pt2G 1_555 1_555
C29G N9G 1_555 1_555
H21G C29G 1_555 1_555
C30G C29G 1_555 1_555
H22G C30G 1_555 1_555
C31G C31 1_555 1_555
C32G C31G 1_555 1_555
H23G C32G 1_555 1_555
C33G N9G 1_555 1_555
H24G C33G 1_555 1_555
N10G Pt1G 1_555 1_555
H25G N10G 1_555 1_555
H26G N10G 1_555 1_555
N11G Pt1G 1_555 1_555
H27G N11G 1_555 1_555
H28G N11G 1_555 1_555
N12G Pt2G 1_555 1_555
H29G N12G 1_555 1_555
H30G N12G 1_555 1_555
N13G Pt2G 1_555 1_555
H31G N13G 1_555 1_555
H32G N13G 1_555 1_555
N14G Pt3G 1_555 1_555
H33G N14G 1_555 1_555
H34G N14G 1_555 1_555
N15G Pt3G 1_555 1_555
H35G N15G 1_555 1_555
H36G N15G 1_555 1_555
C34G N10G 1_555 1_555
H37G C34G 1_555 1_555
C35G N11G 1_555 1_555
H38G C35G 1_555 1_555
C36G C35G 1_555 1_555
H39G C36G 1_555 1_555
H40G C36G 1_555 1_555
C37G C36G 1_555 1_555
H41G C37G 1_555 1_555
H42G C37G 1_555 1_555
C38G C37G 1_555 1_555
H43G C38G 1_555 1_555
H44G C38G 1_555 1_555
C39G C34G 1_555 1_555
H45G C39G 1_555 1_555
H46G C39G 1_555 1_555
C40G N12G 1_555 1_555
H47G C40G 1_555 1_555
C41G N13G 1_555 1_555
H48G C41G 1_555 1_555
C42G C41G 1_555 1_555
H49G C42G 1_555 1_555
H50G C42G 1_555 1_555
C43G C42G 1_555 1_555
H51G C43G 1_555 1_555
H52G C43G 1_555 1_555
C44G C43G 1_555 1_555
H53G C44G 1_555 1_555
H54G C44G 1_555 1_555
C45G C40G 1_555 1_555
H55G C45G 1_555 1_555
H56G C45G 1_555 1_555
C46G N14G 1_555 1_555
H57G C46G 1_555 1_555
C47G N15G 1_555 1_555
H58G C47G 1_555 1_555
C48G C47G 1_555 1_555
H59G C48G 1_555 1_555
H60G C48G 1_555 1_555
C49G C48G 1_555 1_555
H61G C49G 1_555 1_555
H62G C49G 1_555 1_555
C50G C49G 1_555 1_555
H63G C50G 1_555 1_555
H64G C50G 1_555 1_555
C51G C46G 1_555 1_555
H65G C51G 1_555 1_555
H66G C51G 1_555 1_555
C4 C5 1_555 1_555
C8 C12 1_555 1_555
C9 C10 1_555 1_555
N6 C16 1_555 1_555
C15 C16 1_555 1_555
C17 C18 1_555 1_555
C22 C23 1_555 1_555
C32 C33 1_555 1_555
C34 C35 1_555 1_555
C38 C39 1_555 1_555
C40 C41 1_555 1_555
C44 C45 1_555 1_555
C46 C47 1_555 1_555
C50 C51 1_555 1_555
C54 C55 1_555 1_555
C56 N20 1_555 1_555
C59 C62 1_555 1_555
C66 C67 1_555 1_555
C70 C71 1_555 1_555
C71 C72 1_555 1_555
C77 C78 1_555 1_555
C79 N27 1_555 1_555
C4G C5G 1_555 1_555
C8G C12G 1_555 1_555
C9G C10G 1_555 1_555
N6G C16G 1_555 1_555
C15G C16G 1_555 1_555
C17G C18G 1_555 1_555
N8G C28G 1_555 1_555
C21G C26G 1_555 1_555
C22G C23G 1_555 1_555
C24G C25G 1_555 1_555
C26G C27G 1_555 1_555
C30G C31G 1_555 1_555
C32G C33G 1_555 1_555
C34G C35G 1_555 1_555
C38G C39G 1_555 1_555
C40G C41G 1_555 1_555
C44G C45G 1_555 1_555
C46G C47G 1_555 1_555
C50G C51G 1_555 1_555

#END
