# generated using pymatgen
data_P2H206Pt6C158(N22O45)3
_symmetry_space_group_name_H-M   'P 1'
_cell_length_a   28.67300000
_cell_length_b   28.76500000
_cell_length_c   28.76500000
_cell_angle_alpha   90.00000000
_cell_angle_beta   90.00000000
_cell_angle_gamma   90.00000000
_symmetry_Int_Tables_number   1
_chemical_formula_structural   P2H206Pt6C158(N22O45)3
_chemical_formula_sum   'P8 H824 Pt24 C632 N264 O540'
_cell_volume   23724.76347642
_cell_formula_units_Z   4
loop_
 _symmetry_equiv_pos_site_id
 _symmetry_equiv_pos_as_xyz
  1  'x, y, z'
loop_
 _atom_site_type_symbol
 _atom_site_label
 _atom_site_symmetry_multiplicity
 _atom_site_fract_x
 _atom_site_fract_y
 _atom_site_fract_z
 _atom_site_occupancy
  P  P1  1  0.048070  0.355610  0.744390  1
  P  P2  1  0.548070  0.644390  0.255610  1
  P  P3  1  0.798070  0.755610  0.855610  1
  P  P4  1  0.298070  0.244390  0.144390  1
  P  P5  1  0.701930  0.144390  0.244390  1
  P  P6  1  0.201930  0.855610  0.755610  1
  P  P7  1  0.951930  0.744390  0.355610  1
  P  P8  1  0.451930  0.255610  0.644390  1
  H  H9  1  0.896600  0.489300  0.510400  1
  H  H10  1  0.396600  0.510700  0.489600  1
  H  H11  1  0.646600  0.989600  0.989300  1
  H  H12  1  0.146600  0.010400  0.010700  1
  H  H13  1  0.853400  0.010700  0.010400  1
  H  H14  1  0.353400  0.989300  0.989600  1
  H  H15  1  0.103400  0.510400  0.489300  1
  H  H16  1  0.603400  0.489600  0.510700  1
  H  H17  1  0.870600  0.613000  0.596400  1
  H  H18  1  0.370600  0.387000  0.403600  1
  H  H19  1  0.620600  0.903600  0.113000  1
  H  H20  1  0.120600  0.096400  0.887000  1
  H  H21  1  0.879400  0.887000  0.096400  1
  H  H22  1  0.379400  0.113000  0.903600  1
  H  H23  1  0.129400  0.596400  0.613000  1
  H  H24  1  0.629400  0.403600  0.387000  1
  H  H25  1  0.911200  0.617100  0.630400  1
  H  H26  1  0.411200  0.382900  0.369600  1
  H  H27  1  0.661200  0.869600  0.117100  1
  H  H28  1  0.161200  0.130400  0.882900  1
  H  H29  1  0.838800  0.882900  0.130400  1
  H  H30  1  0.338800  0.117100  0.869600  1
  H  H31  1  0.088800  0.630400  0.617100  1
  H  H32  1  0.588800  0.369600  0.382900  1
  H  H33  1  0.047000  0.523600  0.658800  1
  H  H34  1  0.547000  0.476400  0.341200  1
  H  H35  1  0.797000  0.841200  0.023600  1
  H  H36  1  0.297000  0.158800  0.976400  1
  H  H37  1  0.703000  0.976400  0.158800  1
  H  H38  1  0.203000  0.023600  0.841200  1
  H  H39  1  0.953000  0.658800  0.523600  1
  H  H40  1  0.453000  0.341200  0.476400  1
  H  H41  1  0.050700  0.453100  0.553500  1
  H  H42  1  0.550700  0.546900  0.446500  1
  H  H43  1  0.800700  0.946500  0.953100  1
  H  H44  1  0.300700  0.053500  0.046900  1
  H  H45  1  0.699300  0.046900  0.053500  1
  H  H46  1  0.199300  0.953100  0.946500  1
  H  H47  1  0.949300  0.553500  0.453100  1
  H  H48  1  0.449300  0.446500  0.546900  1
  H  H49  1  0.112700  0.477800  0.610400  1
  H  H50  1  0.612700  0.522200  0.389600  1
  H  H51  1  0.862700  0.889600  0.977800  1
  H  H52  1  0.362700  0.110400  0.022200  1
  H  H53  1  0.637300  0.022200  0.110400  1
  H  H54  1  0.137300  0.977800  0.889600  1
  H  H55  1  0.887300  0.610400  0.477800  1
  H  H56  1  0.387300  0.389600  0.522200  1
  H  H57  1  0.080300  0.463600  0.654000  1
  H  H58  1  0.580300  0.536400  0.346000  1
  H  H59  1  0.830300  0.846000  0.963600  1
  H  H60  1  0.330300  0.154000  0.036400  1
  H  H61  1  0.669700  0.036400  0.154000  1
  H  H62  1  0.169700  0.963600  0.846000  1
  H  H63  1  0.919700  0.654000  0.463600  1
  H  H64  1  0.419700  0.346000  0.536400  1
  H  H65  1  0.119900  0.394000  0.650300  1
  H  H66  1  0.619900  0.606000  0.349700  1
  H  H67  1  0.869900  0.849700  0.894000  1
  H  H68  1  0.369900  0.150300  0.106000  1
  H  H69  1  0.630100  0.106000  0.150300  1
  H  H70  1  0.130100  0.894000  0.849700  1
  H  H71  1  0.880100  0.650300  0.394000  1
  H  H72  1  0.380100  0.349700  0.606000  1
  H  H73  1  0.058900  0.359000  0.584000  1
  H  H74  1  0.558900  0.641000  0.416000  1
  H  H75  1  0.808900  0.916000  0.859000  1
  H  H76  1  0.308900  0.084000  0.141000  1
  H  H77  1  0.691100  0.141000  0.084000  1
  H  H78  1  0.191100  0.859000  0.916000  1
  H  H79  1  0.941100  0.584000  0.359000  1
  H  H80  1  0.441100  0.416000  0.641000  1
  H  H81  1  0.017500  0.336700  0.652500  1
  H  H82  1  0.517500  0.663300  0.347500  1
  H  H83  1  0.767500  0.847500  0.836700  1
  H  H84  1  0.267500  0.152500  0.163300  1
  H  H85  1  0.732500  0.163300  0.152500  1
  H  H86  1  0.232500  0.836700  0.847500  1
  H  H87  1  0.982500  0.652500  0.336700  1
  H  H88  1  0.482500  0.347500  0.663300  1
  H  H89  1  0.071900  0.324000  0.654800  1
  H  H90  1  0.571900  0.676000  0.345200  1
  H  H91  1  0.821900  0.845200  0.824000  1
  H  H92  1  0.321900  0.154800  0.176000  1
  H  H93  1  0.678100  0.176000  0.154800  1
  H  H94  1  0.178100  0.824000  0.845200  1
  H  H95  1  0.928100  0.654800  0.324000  1
  H  H96  1  0.428100  0.345200  0.676000  1
  H  H97  1  0.243000  0.187400  0.894100  1
  H  H98  1  0.743000  0.812600  0.105900  1
  H  H99  1  0.993000  0.605900  0.687400  1
  H  H100  1  0.493000  0.394100  0.312600  1
  H  H101  1  0.507000  0.312600  0.394100  1
  H  H102  1  0.007000  0.687400  0.605900  1
  H  H103  1  0.757000  0.894100  0.187400  1
  H  H104  1  0.257000  0.105900  0.812600  1
  H  H105  1  0.249100  0.310600  0.799000  1
  H  H106  1  0.749100  0.689400  0.201000  1
  H  H107  1  0.999100  0.701000  0.810600  1
  H  H108  1  0.499100  0.299000  0.189400  1
  H  H109  1  0.500900  0.189400  0.299000  1
  H  H110  1  0.000900  0.810600  0.701000  1
  H  H111  1  0.750900  0.799000  0.310600  1
  H  H112  1  0.250900  0.201000  0.689400  1
  H  H113  1  0.351000  0.296100  0.868900  1
  H  H114  1  0.851000  0.703900  0.131100  1
  H  H115  1  0.101000  0.631100  0.796100  1
  H  H116  1  0.601000  0.368900  0.203900  1
  H  H117  1  0.399000  0.203900  0.368900  1
  H  H118  1  0.899000  0.796100  0.631100  1
  H  H119  1  0.649000  0.868900  0.296100  1
  H  H120  1  0.149000  0.131100  0.703900  1
  H  H121  1  0.317400  0.338300  0.854800  1
  H  H122  1  0.817400  0.661700  0.145200  1
  H  H123  1  0.067400  0.645200  0.838300  1
  H  H124  1  0.567400  0.354800  0.161700  1
  H  H125  1  0.432600  0.161700  0.354800  1
  H  H126  1  0.932600  0.838300  0.645200  1
  H  H127  1  0.682600  0.854800  0.338300  1
  H  H128  1  0.182600  0.145200  0.661700  1
  H  H129  1  0.340200  0.306400  0.815300  1
  H  H130  1  0.840200  0.693600  0.184700  1
  H  H131  1  0.090200  0.684700  0.806400  1
  H  H132  1  0.590200  0.315300  0.193600  1
  H  H133  1  0.409800  0.193600  0.315300  1
  H  H134  1  0.909800  0.806400  0.684700  1
  H  H135  1  0.659800  0.815300  0.306400  1
  H  H136  1  0.159800  0.184700  0.693600  1
  H  H137  1  0.140900  0.249300  0.799200  1
  H  H138  1  0.640900  0.750700  0.200800  1
  H  H139  1  0.890900  0.700800  0.749300  1
  H  H140  1  0.390900  0.299200  0.250700  1
  H  H141  1  0.609100  0.250700  0.299200  1
  H  H142  1  0.109100  0.749300  0.700800  1
  H  H143  1  0.859100  0.799200  0.249300  1
  H  H144  1  0.359100  0.200800  0.750700  1
  H  H145  1  0.134000  0.328800  0.810800  1
  H  H146  1  0.634000  0.671200  0.189200  1
  H  H147  1  0.884000  0.689200  0.828800  1
  H  H148  1  0.384000  0.310800  0.171200  1
  H  H149  1  0.616000  0.171200  0.310800  1
  H  H150  1  0.116000  0.828800  0.689200  1
  H  H151  1  0.866000  0.810800  0.328800  1
  H  H152  1  0.366000  0.189200  0.671200  1
  H  H153  1  0.183200  0.339400  0.785900  1
  H  H154  1  0.683200  0.660600  0.214100  1
  H  H155  1  0.933200  0.714100  0.839400  1
  H  H156  1  0.433200  0.285900  0.160600  1
  H  H157  1  0.566800  0.160600  0.285900  1
  H  H158  1  0.066800  0.839400  0.714100  1
  H  H159  1  0.816800  0.785900  0.339400  1
  H  H160  1  0.316800  0.214100  0.660600  1
  H  H161  1  0.136700  0.352400  0.723500  1
  H  H162  1  0.636700  0.647600  0.276500  1
  H  H163  1  0.886700  0.776500  0.852400  1
  H  H164  1  0.386700  0.223500  0.147600  1
  H  H165  1  0.613300  0.147600  0.223500  1
  H  H166  1  0.113300  0.852400  0.776500  1
  H  H167  1  0.863300  0.723500  0.352400  1
  H  H168  1  0.363300  0.276500  0.647600  1
  H  H169  1  0.128400  0.260500  0.703400  1
  H  H170  1  0.628400  0.739500  0.296600  1
  H  H171  1  0.878400  0.796600  0.760500  1
  H  H172  1  0.378400  0.203400  0.239500  1
  H  H173  1  0.621600  0.239500  0.203400  1
  H  H174  1  0.121600  0.760500  0.796600  1
  H  H175  1  0.871600  0.703400  0.260500  1
  H  H176  1  0.371600  0.296600  0.739500  1
  H  H177  1  0.198100  0.259800  0.661500  1
  H  H178  1  0.698100  0.740200  0.338500  1
  H  H179  1  0.948100  0.838500  0.759800  1
  H  H180  1  0.448100  0.161500  0.240200  1
  H  H181  1  0.551900  0.240200  0.161500  1
  H  H182  1  0.051900  0.759800  0.838500  1
  H  H183  1  0.801900  0.661500  0.259800  1
  H  H184  1  0.301900  0.338500  0.740200  1
  H  H185  1  0.159700  0.334200  0.629900  1
  H  H186  1  0.659700  0.665800  0.370100  1
  H  H187  1  0.909700  0.870100  0.834200  1
  H  H188  1  0.409700  0.129900  0.165800  1
  H  H189  1  0.590300  0.165800  0.129900  1
  H  H190  1  0.090300  0.834200  0.870100  1
  H  H191  1  0.840300  0.629900  0.334200  1
  H  H192  1  0.340300  0.370100  0.665800  1
  H  H193  1  0.317200  0.616700  0.290700  1
  H  H194  1  0.817200  0.383300  0.709300  1
  H  H195  1  0.067200  0.209300  0.116700  1
  H  H196  1  0.567200  0.790700  0.883300  1
  H  H197  1  0.432800  0.883300  0.790700  1
  H  H198  1  0.932800  0.116700  0.209300  1
  H  H199  1  0.682800  0.290700  0.616700  1
  H  H200  1  0.182800  0.709300  0.383300  1
  H  H201  1  0.450000  0.630800  0.215000  1
  H  H202  1  0.950000  0.369200  0.785000  1
  H  H203  1  0.200000  0.285000  0.130800  1
  H  H204  1  0.700000  0.715000  0.869200  1
  H  H205  1  0.300000  0.869200  0.715000  1
  H  H206  1  0.800000  0.130800  0.285000  1
  H  H207  1  0.550000  0.215000  0.630800  1
  H  H208  1  0.050000  0.785000  0.369200  1
  H  H209  1  0.450600  0.591200  0.179800  1
  H  H210  1  0.950600  0.408800  0.820200  1
  H  H211  1  0.200600  0.320200  0.091200  1
  H  H212  1  0.700600  0.679800  0.908800  1
  H  H213  1  0.299400  0.908800  0.679800  1
  H  H214  1  0.799400  0.091200  0.320200  1
  H  H215  1  0.549400  0.179800  0.591200  1
  H  H216  1  0.049400  0.820200  0.408800  1
  H  H217  1  0.353400  0.465300  0.138000  1
  H  H218  1  0.853400  0.534700  0.862000  1
  H  H219  1  0.103400  0.362000  0.965300  1
  H  H220  1  0.603400  0.638000  0.034700  1
  H  H221  1  0.396600  0.034700  0.638000  1
  H  H222  1  0.896600  0.965300  0.362000  1
  H  H223  1  0.646600  0.138000  0.465300  1
  H  H224  1  0.146600  0.862000  0.534700  1
  H  H225  1  0.292900  0.483300  0.199200  1
  H  H226  1  0.792900  0.516700  0.800800  1
  H  H227  1  0.042900  0.300800  0.983300  1
  H  H228  1  0.542900  0.699200  0.016700  1
  H  H229  1  0.457100  0.016700  0.699200  1
  H  H230  1  0.957100  0.983300  0.300800  1
  H  H231  1  0.707100  0.199200  0.483300  1
  H  H232  1  0.207100  0.800800  0.516700  1
  H  H233  1  0.150800  0.368000  0.595300  1
  H  H234  1  0.650800  0.632000  0.404700  1
  H  H235  1  0.900800  0.904700  0.868000  1
  H  H236  1  0.400800  0.095300  0.132000  1
  H  H237  1  0.599200  0.132000  0.095300  1
  H  H238  1  0.099200  0.868000  0.904700  1
  H  H239  1  0.849200  0.595300  0.368000  1
  H  H240  1  0.349200  0.404700  0.632000  1
  H  H241  1  0.110700  0.464500  0.572900  1
  H  H242  1  0.610700  0.535500  0.427100  1
  H  H243  1  0.860700  0.927100  0.964500  1
  H  H244  1  0.360700  0.072900  0.035500  1
  H  H245  1  0.639300  0.035500  0.072900  1
  H  H246  1  0.139300  0.964500  0.927100  1
  H  H247  1  0.889300  0.572900  0.464500  1
  H  H248  1  0.389300  0.427100  0.535500  1
  H  H249  1  0.098500  0.468700  0.627500  1
  H  H250  1  0.598500  0.531300  0.372500  1
  H  H251  1  0.848500  0.872500  0.968700  1
  H  H252  1  0.348500  0.127500  0.031300  1
  H  H253  1  0.651500  0.031300  0.127500  1
  H  H254  1  0.151500  0.968700  0.872500  1
  H  H255  1  0.901500  0.627500  0.468700  1
  H  H256  1  0.401500  0.372500  0.531300  1
  H  H257  1  0.124400  0.397100  0.627100  1
  H  H258  1  0.624400  0.602900  0.372900  1
  H  H259  1  0.874400  0.872900  0.897100  1
  H  H260  1  0.374400  0.127100  0.102900  1
  H  H261  1  0.625600  0.102900  0.127100  1
  H  H262  1  0.125600  0.897100  0.872900  1
  H  H263  1  0.875600  0.627100  0.397100  1
  H  H264  1  0.375600  0.372900  0.602900  1
  H  H265  1  0.133700  0.374800  0.550100  1
  H  H266  1  0.633700  0.625200  0.449900  1
  H  H267  1  0.883700  0.949900  0.874800  1
  H  H268  1  0.383700  0.050100  0.125200  1
  H  H269  1  0.616300  0.125200  0.050100  1
  H  H270  1  0.116300  0.874800  0.949900  1
  H  H271  1  0.866300  0.550100  0.374800  1
  H  H272  1  0.366300  0.449900  0.625200  1
  H  H273  1  0.207700  0.312400  0.677000  1
  H  H274  1  0.707700  0.687600  0.323000  1
  H  H275  1  0.957700  0.823000  0.812400  1
  H  H276  1  0.457700  0.177000  0.187600  1
  H  H277  1  0.542300  0.187600  0.177000  1
  H  H278  1  0.042300  0.812400  0.823000  1
  H  H279  1  0.792300  0.677000  0.312400  1
  H  H280  1  0.292300  0.323000  0.687600  1
  H  H281  1  0.172500  0.331700  0.659800  1
  H  H282  1  0.672500  0.668300  0.340200  1
  H  H283  1  0.922500  0.840200  0.831700  1
  H  H284  1  0.422500  0.159800  0.168300  1
  H  H285  1  0.577500  0.168300  0.159800  1
  H  H286  1  0.077500  0.831700  0.840200  1
  H  H287  1  0.827500  0.659800  0.331700  1
  H  H288  1  0.327500  0.340200  0.668300  1
  H  H289  1  0.212000  0.327600  0.699200  1
  H  H290  1  0.712000  0.672400  0.300800  1
  H  H291  1  0.962000  0.800800  0.827600  1
  H  H292  1  0.462000  0.199200  0.172400  1
  H  H293  1  0.538000  0.172400  0.199200  1
  H  H294  1  0.038000  0.827600  0.800800  1
  H  H295  1  0.788000  0.699200  0.327600  1
  H  H296  1  0.288000  0.300800  0.672400  1
  H  H297  1  0.230500  0.286800  0.628900  1
  H  H298  1  0.730500  0.713200  0.371100  1
  H  H299  1  0.980500  0.871100  0.786800  1
  H  H300  1  0.480500  0.128900  0.213200  1
  H  H301  1  0.519500  0.213200  0.128900  1
  H  H302  1  0.019500  0.786800  0.871100  1
  H  H303  1  0.769500  0.628900  0.286800  1
  H  H304  1  0.269500  0.371100  0.713200  1
  H  H305  1  0.700400  0.878400  0.861900  1.0
  H  H306  1  0.200400  0.121600  0.138100  1.0
  H  H307  1  0.450400  0.638100  0.378400  1.0
  H  H308  1  0.950400  0.361900  0.621600  1.0
  H  H309  1  0.049600  0.621600  0.361900  1.0
  H  H310  1  0.549600  0.378400  0.638100  1.0
  H  H311  1  0.299600  0.861900  0.878400  1.0
  H  H312  1  0.799600  0.138100  0.121600  1.0
  H  H313  1  0.704600  0.822200  0.921800  1.0
  H  H314  1  0.204600  0.177800  0.078200  1.0
  H  H315  1  0.454600  0.578200  0.322200  1.0
  H  H316  1  0.954600  0.421800  0.677800  1.0
  H  H317  1  0.045400  0.677800  0.421800  1.0
  H  H318  1  0.545400  0.322200  0.578200  1.0
  H  H319  1  0.295400  0.921800  0.822200  1.0
  H  H320  1  0.795400  0.078200  0.177800  1.0
  H  H321  1  0.586300  0.878700  0.976300  1.0
  H  H322  1  0.086300  0.121300  0.023700  1.0
  H  H323  1  0.336300  0.523700  0.378700  1.0
  H  H324  1  0.836300  0.476300  0.621300  1.0
  H  H325  1  0.163700  0.621300  0.476300  1.0
  H  H326  1  0.663700  0.378700  0.523700  1.0
  H  H327  1  0.413700  0.976300  0.878700  1.0
  H  H328  1  0.913700  0.023700  0.121300  1.0
  H  H329  1  0.583400  0.928000  0.911800  1.0
  H  H330  1  0.083400  0.072000  0.088200  1.0
  H  H331  1  0.333400  0.588200  0.428000  1.0
  H  H332  1  0.833400  0.411800  0.572000  1.0
  H  H333  1  0.166600  0.572000  0.411800  1.0
  H  H334  1  0.666600  0.428000  0.588200  1.0
  H  H335  1  0.416600  0.911800  0.928000  1.0
  H  H336  1  0.916600  0.088200  0.072000  1.0
  H  H337  1  0.487200  0.834800  0.126000  1.0
  H  H338  1  0.987200  0.165200  0.874000  1.0
  H  H339  1  0.237200  0.374000  0.334800  1.0
  H  H340  1  0.737200  0.626000  0.665200  1.0
  H  H341  1  0.262800  0.665200  0.626000  1.0
  H  H342  1  0.762800  0.334800  0.374000  1.0
  H  H343  1  0.512800  0.126000  0.834800  1.0
  H  H344  1  0.012800  0.874000  0.165200  1.0
  H  H345  1  0.552200  0.840200  0.075500  1.0
  H  H346  1  0.052200  0.159800  0.924500  1.0
  H  H347  1  0.302200  0.424500  0.340200  1.0
  H  H348  1  0.802200  0.575500  0.659800  1.0
  H  H349  1  0.197800  0.659800  0.575500  1.0
  H  H350  1  0.697800  0.340200  0.424500  1.0
  H  H351  1  0.447800  0.075500  0.840200  1.0
  H  H352  1  0.947800  0.924500  0.159800  1.0
  H  H353  1  0.593200  0.713700  0.119500  1.0
  H  H354  1  0.093200  0.286300  0.880500  1.0
  H  H355  1  0.343200  0.380500  0.213700  1.0
  H  H356  1  0.843200  0.619500  0.786300  1.0
  H  H357  1  0.156800  0.786300  0.619500  1.0
  H  H358  1  0.656800  0.213700  0.380500  1.0
  H  H359  1  0.406800  0.119500  0.713700  1.0
  H  H360  1  0.906800  0.880500  0.286300  1.0
  H  H361  1  0.529100  0.710800  0.167600  1.0
  H  H362  1  0.029100  0.289200  0.832400  1.0
  H  H363  1  0.279100  0.332400  0.210800  1.0
  H  H364  1  0.779100  0.667600  0.789200  1.0
  H  H365  1  0.220900  0.789200  0.667600  1.0
  H  H366  1  0.720900  0.210800  0.332400  1.0
  H  H367  1  0.470900  0.167600  0.710800  1.0
  H  H368  1  0.970900  0.832400  0.289200  1.0
  H  H369  1  0.752300  0.619700  0.081500  1.0
  H  H370  1  0.252300  0.380300  0.918500  1.0
  H  H371  1  0.502300  0.418500  0.119700  1.0
  H  H372  1  0.002300  0.581500  0.880300  1.0
  H  H373  1  0.997700  0.880300  0.581500  1.0
  H  H374  1  0.497700  0.119700  0.418500  1.0
  H  H375  1  0.247700  0.081500  0.619700  1.0
  H  H376  1  0.747700  0.918500  0.380300  1.0
  H  H377  1  0.695700  0.677500  0.084600  1.0
  H  H378  1  0.195700  0.322500  0.915400  1.0
  H  H379  1  0.445700  0.415400  0.177500  1.0
  H  H380  1  0.945700  0.584600  0.822500  1.0
  H  H381  1  0.054300  0.822500  0.584600  1.0
  H  H382  1  0.554300  0.177500  0.415400  1.0
  H  H383  1  0.304300  0.084600  0.677500  1.0
  H  H384  1  0.804300  0.915400  0.322500  1.0
  H  H385  1  0.757400  0.738700  0.974500  1.0
  H  H386  1  0.257400  0.261300  0.025500  1.0
  H  H387  1  0.507400  0.525500  0.238700  1.0
  H  H388  1  0.007400  0.474500  0.761300  1.0
  H  H389  1  0.992600  0.761300  0.474500  1.0
  H  H390  1  0.492600  0.238700  0.525500  1.0
  H  H391  1  0.242600  0.974500  0.738700  1.0
  H  H392  1  0.742600  0.025500  0.261300  1.0
  H  H393  1  0.810600  0.680800  0.973700  1.0
  H  H394  1  0.310600  0.319200  0.026300  1.0
  H  H395  1  0.560600  0.526300  0.180800  1.0
  H  H396  1  0.060600  0.473700  0.819200  1.0
  H  H397  1  0.939400  0.819200  0.473700  1.0
  H  H398  1  0.439400  0.180800  0.526300  1.0
  H  H399  1  0.189400  0.973700  0.680800  1.0
  H  H400  1  0.689400  0.026300  0.319200  1.0
  H  H401  1  0.445900  0.863300  0.219700  1.0
  H  H402  1  0.945900  0.136700  0.780300  1.0
  H  H403  1  0.195900  0.280300  0.363300  1.0
  H  H404  1  0.695900  0.719700  0.636700  1.0
  H  H405  1  0.304100  0.636700  0.719700  1.0
  H  H406  1  0.804100  0.363300  0.280300  1.0
  H  H407  1  0.554100  0.219700  0.863300  1.0
  H  H408  1  0.054100  0.780300  0.136700  1.0
  H  H409  1  0.485500  0.913000  0.266700  1.0
  H  H410  1  0.985500  0.087000  0.733300  1.0
  H  H411  1  0.235500  0.233300  0.413000  1.0
  H  H412  1  0.735500  0.766700  0.587000  1.0
  H  H413  1  0.264500  0.587000  0.766700  1.0
  H  H414  1  0.764500  0.413000  0.233300  1.0
  H  H415  1  0.514500  0.266700  0.913000  1.0
  H  H416  1  0.014500  0.733300  0.087000  1.0
  H  H417  1  0.552300  0.799300  0.319100  1.0
  H  H418  1  0.052300  0.200700  0.680900  1.0
  H  H419  1  0.302300  0.180900  0.299300  1.0
  H  H420  1  0.802300  0.819100  0.700700  1.0
  H  H421  1  0.197700  0.700700  0.819100  1.0
  H  H422  1  0.697700  0.299300  0.180900  1.0
  H  H423  1  0.447700  0.319100  0.799300  1.0
  H  H424  1  0.947700  0.680900  0.200700  1.0
  H  H425  1  0.512500  0.754000  0.266400  1.0
  H  H426  1  0.012500  0.246000  0.733600  1.0
  H  H427  1  0.262500  0.233600  0.254000  1.0
  H  H428  1  0.762500  0.766400  0.746000  1.0
  H  H429  1  0.237500  0.746000  0.766400  1.0
  H  H430  1  0.737500  0.254000  0.233600  1.0
  H  H431  1  0.487500  0.266400  0.754000  1.0
  H  H432  1  0.987500  0.733600  0.246000  1.0
  H  H433  1  0.891600  0.673200  0.009400  1.0
  H  H434  1  0.391600  0.326800  0.990600  1.0
  H  H435  1  0.641600  0.490600  0.173200  1.0
  H  H436  1  0.141600  0.509400  0.826800  1.0
  H  H437  1  0.858400  0.826800  0.509400  1.0
  H  H438  1  0.358400  0.173200  0.490600  1.0
  H  H439  1  0.108400  0.009400  0.673200  1.0
  H  H440  1  0.608400  0.990600  0.326800  1.0
  H  H441  1  0.944400  0.714700  0.052400  1.0
  H  H442  1  0.444400  0.285300  0.947600  1.0
  H  H443  1  0.694400  0.447600  0.214700  1.0
  H  H444  1  0.194400  0.552400  0.785300  1.0
  H  H445  1  0.805600  0.785300  0.552400  1.0
  H  H446  1  0.305600  0.214700  0.447600  1.0
  H  H447  1  0.055600  0.052400  0.714700  1.0
  H  H448  1  0.555600  0.947600  0.285300  1.0
  H  H449  1  0.565800  0.846400  0.381700  1.0
  H  H450  1  0.065800  0.153600  0.618300  1.0
  H  H451  1  0.315800  0.118300  0.346400  1.0
  H  H452  1  0.815800  0.881700  0.653600  1.0
  H  H453  1  0.184200  0.653600  0.881700  1.0
  H  H454  1  0.684200  0.346400  0.118300  1.0
  H  H455  1  0.434200  0.381700  0.846400  1.0
  H  H456  1  0.934200  0.618300  0.153600  1.0
  H  H457  1  0.882800  0.577800  0.107200  1.0
  H  H458  1  0.382800  0.422200  0.892800  1.0
  H  H459  1  0.632800  0.392800  0.077800  1.0
  H  H460  1  0.132800  0.607200  0.922200  1.0
  H  H461  1  0.867200  0.922200  0.607200  1.0
  H  H462  1  0.367200  0.077800  0.392800  1.0
  H  H463  1  0.117200  0.107200  0.577800  1.0
  H  H464  1  0.617200  0.892800  0.422200  1.0
  H  H465  1  0.741000  0.971900  0.839100  1.0
  H  H466  1  0.241000  0.028100  0.160900  1.0
  H  H467  1  0.491000  0.660900  0.471900  1.0
  H  H468  1  0.991000  0.339100  0.528100  1.0
  H  H469  1  0.009000  0.528100  0.339100  1.0
  H  H470  1  0.509000  0.471900  0.660900  1.0
  H  H471  1  0.259000  0.839100  0.971900  1.0
  H  H472  1  0.759000  0.160900  0.028100  1.0
  H  H473  1  0.787000  0.022000  0.882600  1.0
  H  H474  1  0.287000  0.978000  0.117400  1.0
  H  H475  1  0.537000  0.617400  0.522000  1.0
  H  H476  1  0.037000  0.382600  0.478000  1.0
  H  H477  1  0.963000  0.478000  0.382600  1.0
  H  H478  1  0.463000  0.522000  0.617400  1.0
  H  H479  1  0.213000  0.882600  0.022000  1.0
  H  H480  1  0.713000  0.117400  0.978000  1.0
  H  H481  1  0.672600  0.072800  0.940300  1.0
  H  H482  1  0.172600  0.927200  0.059700  1.0
  H  H483  1  0.422600  0.559700  0.572800  1.0
  H  H484  1  0.922600  0.440300  0.427200  1.0
  H  H485  1  0.077400  0.427200  0.440300  1.0
  H  H486  1  0.577400  0.572800  0.559700  1.0
  H  H487  1  0.327400  0.940300  0.072800  1.0
  H  H488  1  0.827400  0.059700  0.927200  1.0
  H  H489  1  0.628400  0.025700  0.894700  1.0
  H  H490  1  0.128400  0.974300  0.105300  1.0
  H  H491  1  0.378400  0.605300  0.525700  1.0
  H  H492  1  0.878400  0.394700  0.474300  1.0
  H  H493  1  0.121600  0.474300  0.394700  1.0
  H  H494  1  0.621600  0.525700  0.605300  1.0
  H  H495  1  0.371600  0.894700  0.025700  1.0
  H  H496  1  0.871600  0.105300  0.974300  1.0
  H  H497  1  0.759000  0.539100  0.011400  1.0
  H  H498  1  0.259000  0.460900  0.988600  1.0
  H  H499  1  0.509000  0.488600  0.039100  1.0
  H  H500  1  0.009000  0.511400  0.960900  1.0
  H  H501  1  0.991000  0.960900  0.511400  1.0
  H  H502  1  0.491000  0.039100  0.488600  1.0
  H  H503  1  0.241000  0.011400  0.539100  1.0
  H  H504  1  0.741000  0.988600  0.460900  1.0
  H  H505  1  0.763000  0.568800  0.969100  1.0
  H  H506  1  0.263000  0.431200  0.030900  1.0
  H  H507  1  0.513000  0.530900  0.068800  1.0
  H  H508  1  0.013000  0.469100  0.931200  1.0
  H  H509  1  0.987000  0.931200  0.469100  1.0
  H  H510  1  0.487000  0.068800  0.530900  1.0
  H  H511  1  0.237000  0.969100  0.568800  1.0
  H  H512  1  0.737000  0.030900  0.431200  1.0
  H  H513  1  0.891500  0.538100  0.986800  1.0
  H  H514  1  0.391500  0.461900  0.013200  1.0
  H  H515  1  0.641500  0.513200  0.038100  1.0
  H  H516  1  0.141500  0.486800  0.961900  1.0
  H  H517  1  0.858500  0.961900  0.486800  1.0
  H  H518  1  0.358500  0.038100  0.513200  1.0
  H  H519  1  0.108500  0.986800  0.538100  1.0
  H  H520  1  0.608500  0.013200  0.461900  1.0
  H  H521  1  0.885600  0.523900  0.036300  1.0
  H  H522  1  0.385600  0.476100  0.963700  1.0
  H  H523  1  0.635600  0.463700  0.023900  1.0
  H  H524  1  0.135600  0.536300  0.976100  1.0
  H  H525  1  0.864400  0.976100  0.536300  1.0
  H  H526  1  0.364400  0.023900  0.463700  1.0
  H  H527  1  0.114400  0.036300  0.523900  1.0
  H  H528  1  0.614400  0.963700  0.476100  1.0
  H  H529  1  0.616500  0.883000  0.776000  1.0
  H  H530  1  0.116500  0.117000  0.224000  1.0
  H  H531  1  0.366500  0.724000  0.383000  1.0
  H  H532  1  0.866500  0.276000  0.617000  1.0
  H  H533  1  0.133500  0.617000  0.276000  1.0
  H  H534  1  0.633500  0.383000  0.724000  1.0
  H  H535  1  0.383500  0.776000  0.883000  1.0
  H  H536  1  0.883500  0.224000  0.117000  1.0
  H  H537  1  0.574500  0.897900  0.802800  1.0
  H  H538  1  0.074500  0.102100  0.197200  1.0
  H  H539  1  0.324500  0.697200  0.397900  1.0
  H  H540  1  0.824500  0.302800  0.602100  1.0
  H  H541  1  0.175500  0.602100  0.302800  1.0
  H  H542  1  0.675500  0.397900  0.697200  1.0
  H  H543  1  0.425500  0.802800  0.897900  1.0
  H  H544  1  0.925500  0.197200  0.102100  1.0
  H  H545  1  0.623600  0.016100  0.771300  1.0
  H  H546  1  0.123600  0.983900  0.228700  1.0
  H  H547  1  0.373600  0.728700  0.516100  1.0
  H  H548  1  0.873600  0.271300  0.483900  1.0
  H  H549  1  0.126400  0.483900  0.271300  1.0
  H  H550  1  0.626400  0.516100  0.728700  1.0
  H  H551  1  0.376400  0.771300  0.016100  1.0
  H  H552  1  0.876400  0.228700  0.983900  1.0
  H  H553  1  0.671400  0.998800  0.760500  1.0
  H  H554  1  0.171400  0.001200  0.239500  1.0
  H  H555  1  0.421400  0.739500  0.498800  1.0
  H  H556  1  0.921400  0.260500  0.501200  1.0
  H  H557  1  0.078600  0.501200  0.260500  1.0
  H  H558  1  0.578600  0.498800  0.739500  1.0
  H  H559  1  0.328600  0.760500  0.998800  1.0
  H  H560  1  0.828600  0.239500  0.001200  1.0
  H  H561  1  0.398700  0.748900  0.116100  1.0
  H  H562  1  0.898700  0.251100  0.883900  1.0
  H  H563  1  0.148700  0.383900  0.248900  1.0
  H  H564  1  0.648700  0.616100  0.751100  1.0
  H  H565  1  0.351300  0.751100  0.616100  1.0
  H  H566  1  0.851300  0.248900  0.383900  1.0
  H  H567  1  0.601300  0.116100  0.748900  1.0
  H  H568  1  0.101300  0.883900  0.251100  1.0
  H  H569  1  0.425700  0.706300  0.128300  1.0
  H  H570  1  0.925700  0.293700  0.871700  1.0
  H  H571  1  0.175700  0.371700  0.206300  1.0
  H  H572  1  0.675700  0.628300  0.793700  1.0
  H  H573  1  0.324300  0.793700  0.628300  1.0
  H  H574  1  0.824300  0.206300  0.371700  1.0
  H  H575  1  0.574300  0.128300  0.706300  1.0
  H  H576  1  0.074300  0.871700  0.293700  1.0
  H  H577  1  0.387500  0.737500  0.249000  1.0
  H  H578  1  0.887500  0.262500  0.751000  1.0
  H  H579  1  0.137500  0.251000  0.237500  1.0
  H  H580  1  0.637500  0.749000  0.762500  1.0
  H  H581  1  0.362500  0.762500  0.749000  1.0
  H  H582  1  0.862500  0.237500  0.251000  1.0
  H  H583  1  0.612500  0.249000  0.737500  1.0
  H  H584  1  0.112500  0.751000  0.262500  1.0
  H  H585  1  0.376100  0.787300  0.240200  1.0
  H  H586  1  0.876100  0.212700  0.759800  1.0
  H  H587  1  0.126100  0.259800  0.287300  1.0
  H  H588  1  0.626100  0.740200  0.712700  1.0
  H  H589  1  0.373900  0.712700  0.740200  1.0
  H  H590  1  0.873900  0.287300  0.259800  1.0
  H  H591  1  0.623900  0.240200  0.787300  1.0
  H  H592  1  0.123900  0.759800  0.212700  1.0
  H  H593  1  0.816200  0.524400  0.935500  1.0
  H  H594  1  0.316200  0.475600  0.064500  1.0
  H  H595  1  0.566200  0.564500  0.024400  1.0
  H  H596  1  0.066200  0.435500  0.975600  1.0
  H  H597  1  0.933800  0.975600  0.435500  1.0
  H  H598  1  0.433800  0.024400  0.564500  1.0
  H  H599  1  0.183800  0.935500  0.524400  1.0
  H  H600  1  0.683800  0.064500  0.475600  1.0
  H  H601  1  0.827000  0.477500  0.022900  1.0
  H  H602  1  0.327000  0.522500  0.977100  1.0
  H  H603  1  0.577000  0.477100  0.977500  1.0
  H  H604  1  0.077000  0.522900  0.022500  1.0
  H  H605  1  0.923000  0.022500  0.522900  1.0
  H  H606  1  0.423000  0.977500  0.477100  1.0
  H  H607  1  0.173000  0.022900  0.477500  1.0
  H  H608  1  0.673000  0.977100  0.522500  1.0
  H  H609  1  0.881400  0.471700  0.937400  1.0
  H  H610  1  0.381400  0.528300  0.062600  1.0
  H  H611  1  0.631400  0.562600  0.971700  1.0
  H  H612  1  0.131400  0.437400  0.028300  1.0
  H  H613  1  0.868600  0.028300  0.437400  1.0
  H  H614  1  0.368600  0.971700  0.562600  1.0
  H  H615  1  0.118600  0.937400  0.471700  1.0
  H  H616  1  0.618600  0.062600  0.528300  1.0
  H  H617  1  0.895700  0.445100  0.984400  1.0
  H  H618  1  0.395700  0.554900  0.015600  1.0
  H  H619  1  0.645700  0.515600  0.945100  1.0
  H  H620  1  0.145700  0.484400  0.054900  1.0
  H  H621  1  0.854300  0.054900  0.484400  1.0
  H  H622  1  0.354300  0.945100  0.515600  1.0
  H  H623  1  0.104300  0.984400  0.445100  1.0
  H  H624  1  0.604300  0.015600  0.554900  1.0
  H  H625  1  0.853600  0.392900  0.935600  1.0
  H  H626  1  0.353600  0.607100  0.064400  1.0
  H  H627  1  0.603600  0.564400  0.892900  1.0
  H  H628  1  0.103600  0.435600  0.107100  1.0
  H  H629  1  0.896400  0.107100  0.435600  1.0
  H  H630  1  0.396400  0.892900  0.564400  1.0
  H  H631  1  0.146400  0.935600  0.392900  1.0
  H  H632  1  0.646400  0.064400  0.607100  1.0
  H  H633  1  0.824000  0.402300  0.982000  1.0
  H  H634  1  0.324000  0.597700  0.018000  1.0
  H  H635  1  0.574000  0.518000  0.902300  1.0
  H  H636  1  0.074000  0.482000  0.097700  1.0
  H  H637  1  0.926000  0.097700  0.482000  1.0
  H  H638  1  0.426000  0.902300  0.518000  1.0
  H  H639  1  0.176000  0.982000  0.402300  1.0
  H  H640  1  0.676000  0.018000  0.597700  1.0
  H  H641  1  0.775100  0.408100  0.916700  1.0
  H  H642  1  0.275100  0.591900  0.083300  1.0
  H  H643  1  0.525100  0.583300  0.908100  1.0
  H  H644  1  0.025100  0.416700  0.091900  1.0
  H  H645  1  0.974900  0.091900  0.416700  1.0
  H  H646  1  0.474900  0.908100  0.583300  1.0
  H  H647  1  0.224900  0.916700  0.408100  1.0
  H  H648  1  0.724900  0.083300  0.591900  1.0
  H  H649  1  0.808200  0.447000  0.894600  1.0
  H  H650  1  0.308200  0.553000  0.105400  1.0
  H  H651  1  0.558200  0.605400  0.947000  1.0
  H  H652  1  0.058200  0.394600  0.053000  1.0
  H  H653  1  0.941800  0.053000  0.394600  1.0
  H  H654  1  0.441800  0.947000  0.605400  1.0
  H  H655  1  0.191800  0.894600  0.447000  1.0
  H  H656  1  0.691800  0.105400  0.553000  1.0
  H  H657  1  0.743000  0.486300  0.930000  1.0
  H  H658  1  0.243000  0.513700  0.070000  1.0
  H  H659  1  0.493000  0.570000  0.986300  1.0
  H  H660  1  0.993000  0.430000  0.013700  1.0
  H  H661  1  0.007000  0.013700  0.430000  1.0
  H  H662  1  0.507000  0.986300  0.570000  1.0
  H  H663  1  0.257000  0.930000  0.486300  1.0
  H  H664  1  0.757000  0.070000  0.513700  1.0
  H  H665  1  0.752300  0.460300  0.978500  1.0
  H  H666  1  0.252300  0.539700  0.021500  1.0
  H  H667  1  0.502300  0.521500  0.960300  1.0
  H  H668  1  0.002300  0.478500  0.039700  1.0
  H  H669  1  0.997700  0.039700  0.478500  1.0
  H  H670  1  0.497700  0.960300  0.521500  1.0
  H  H671  1  0.247700  0.978500  0.460300  1.0
  H  H672  1  0.747700  0.021500  0.539700  1.0
  H  H673  1  0.558800  0.956800  0.757100  1.0
  H  H674  1  0.058800  0.043200  0.242900  1.0
  H  H675  1  0.308800  0.742900  0.456800  1.0
  H  H676  1  0.808800  0.257100  0.543200  1.0
  H  H677  1  0.191200  0.543200  0.257100  1.0
  H  H678  1  0.691200  0.456800  0.742900  1.0
  H  H679  1  0.441200  0.757100  0.956800  1.0
  H  H680  1  0.941200  0.242900  0.043200  1.0
  H  H681  1  0.648400  0.941400  0.719900  1.0
  H  H682  1  0.148400  0.058600  0.280100  1.0
  H  H683  1  0.398400  0.780100  0.441400  1.0
  H  H684  1  0.898400  0.219900  0.558600  1.0
  H  H685  1  0.101600  0.558600  0.219900  1.0
  H  H686  1  0.601600  0.441400  0.780100  1.0
  H  H687  1  0.351600  0.719900  0.941400  1.0
  H  H688  1  0.851600  0.280100  0.058600  1.0
  H  H689  1  0.588300  0.019200  0.697200  1.0
  H  H690  1  0.088300  0.980800  0.302800  1.0
  H  H691  1  0.338300  0.802800  0.519200  1.0
  H  H692  1  0.838300  0.197200  0.480800  1.0
  H  H693  1  0.161700  0.480800  0.197200  1.0
  H  H694  1  0.661700  0.519200  0.802800  1.0
  H  H695  1  0.411700  0.697200  0.019200  1.0
  H  H696  1  0.911700  0.302800  0.980800  1.0
  H  H697  1  0.639900  0.011700  0.677100  1.0
  H  H698  1  0.139900  0.988300  0.322900  1.0
  H  H699  1  0.389900  0.822900  0.511700  1.0
  H  H700  1  0.889900  0.177100  0.488300  1.0
  H  H701  1  0.110100  0.488300  0.177100  1.0
  H  H702  1  0.610100  0.511700  0.822900  1.0
  H  H703  1  0.360100  0.677100  0.011700  1.0
  H  H704  1  0.860100  0.322900  0.988300  1.0
  H  H705  1  0.616000  0.947300  0.632800  1.0
  H  H706  1  0.116000  0.052700  0.367200  1.0
  H  H707  1  0.366000  0.867200  0.447300  1.0
  H  H708  1  0.866000  0.132800  0.552700  1.0
  H  H709  1  0.134000  0.552700  0.132800  1.0
  H  H710  1  0.634000  0.447300  0.867200  1.0
  H  H711  1  0.384000  0.632800  0.947300  1.0
  H  H712  1  0.884000  0.367200  0.052700  1.0
  H  H713  1  0.579300  0.988100  0.622300  1.0
  H  H714  1  0.079300  0.011900  0.377700  1.0
  H  H715  1  0.329300  0.877700  0.488100  1.0
  H  H716  1  0.829300  0.122300  0.511900  1.0
  H  H717  1  0.170700  0.511900  0.122300  1.0
  H  H718  1  0.670700  0.488100  0.877700  1.0
  H  H719  1  0.420700  0.622300  0.988100  1.0
  H  H720  1  0.920700  0.377700  0.011900  1.0
  H  H721  1  0.542100  0.913300  0.639200  1.0
  H  H722  1  0.042100  0.086700  0.360800  1.0
  H  H723  1  0.292100  0.860800  0.413300  1.0
  H  H724  1  0.792100  0.139200  0.586700  1.0
  H  H725  1  0.207900  0.586700  0.139200  1.0
  H  H726  1  0.707900  0.413300  0.860800  1.0
  H  H727  1  0.457900  0.639200  0.913300  1.0
  H  H728  1  0.957900  0.360800  0.086700  1.0
  H  H729  1  0.523200  0.954900  0.670700  1.0
  H  H730  1  0.023200  0.045100  0.329300  1.0
  H  H731  1  0.273200  0.829300  0.454900  1.0
  H  H732  1  0.773200  0.170700  0.545100  1.0
  H  H733  1  0.226800  0.545100  0.170700  1.0
  H  H734  1  0.726800  0.454900  0.829300  1.0
  H  H735  1  0.476800  0.670700  0.954900  1.0
  H  H736  1  0.976800  0.329300  0.045100  1.0
  H  H737  1  0.533800  0.892200  0.720900  1.0
  H  H738  1  0.033800  0.107800  0.279100  1.0
  H  H739  1  0.283800  0.779100  0.392200  1.0
  H  H740  1  0.783800  0.220900  0.607800  1.0
  H  H741  1  0.216200  0.607800  0.220900  1.0
  H  H742  1  0.716200  0.392200  0.779100  1.0
  H  H743  1  0.466200  0.720900  0.892200  1.0
  H  H744  1  0.966200  0.279100  0.107800  1.0
  H  H745  1  0.584600  0.881500  0.700600  1.0
  H  H746  1  0.084600  0.118500  0.299400  1.0
  H  H747  1  0.334600  0.799400  0.381500  1.0
  H  H748  1  0.834600  0.200600  0.618500  1.0
  H  H749  1  0.165400  0.618500  0.200600  1.0
  H  H750  1  0.665400  0.381500  0.799400  1.0
  H  H751  1  0.415400  0.700600  0.881500  1.0
  H  H752  1  0.915400  0.299400  0.118500  1.0
  H  H753  1  0.375900  0.682300  0.180100  1.0
  H  H754  1  0.875900  0.317700  0.819900  1.0
  H  H755  1  0.125900  0.319900  0.182300  1.0
  H  H756  1  0.625900  0.680100  0.817700  1.0
  H  H757  1  0.374100  0.817700  0.680100  1.0
  H  H758  1  0.874100  0.182300  0.319900  1.0
  H  H759  1  0.624100  0.180100  0.682300  1.0
  H  H760  1  0.124100  0.819900  0.317700  1.0
  H  H761  1  0.335200  0.772700  0.175400  1.0
  H  H762  1  0.835200  0.227300  0.824600  1.0
  H  H763  1  0.085200  0.324600  0.272700  1.0
  H  H764  1  0.585200  0.675400  0.727300  1.0
  H  H765  1  0.414800  0.727300  0.675400  1.0
  H  H766  1  0.914800  0.272700  0.324600  1.0
  H  H767  1  0.664800  0.175400  0.772700  1.0
  H  H768  1  0.164800  0.824600  0.227300  1.0
  H  H769  1  0.290400  0.748700  0.241500  1.0
  H  H770  1  0.790400  0.251300  0.758500  1.0
  H  H771  1  0.040400  0.258500  0.248700  1.0
  H  H772  1  0.540400  0.741500  0.751300  1.0
  H  H773  1  0.459600  0.751300  0.741500  1.0
  H  H774  1  0.959600  0.248700  0.258500  1.0
  H  H775  1  0.709600  0.241500  0.748700  1.0
  H  H776  1  0.209600  0.758500  0.251300  1.0
  H  H777  1  0.313100  0.697800  0.238800  1.0
  H  H778  1  0.813100  0.302200  0.761200  1.0
  H  H779  1  0.063100  0.261200  0.197800  1.0
  H  H780  1  0.563100  0.738800  0.802200  1.0
  H  H781  1  0.436900  0.802200  0.738800  1.0
  H  H782  1  0.936900  0.197800  0.261200  1.0
  H  H783  1  0.686900  0.238800  0.697800  1.0
  H  H784  1  0.186900  0.761200  0.302200  1.0
  H  H785  1  0.238300  0.696400  0.200200  1.0
  H  H786  1  0.738300  0.303600  0.799800  1.0
  H  H787  1  0.988300  0.299800  0.196400  1.0
  H  H788  1  0.488300  0.700200  0.803600  1.0
  H  H789  1  0.511700  0.803600  0.700200  1.0
  H  H790  1  0.011700  0.196400  0.299800  1.0
  H  H791  1  0.761700  0.200200  0.696400  1.0
  H  H792  1  0.261700  0.799800  0.303600  1.0
  H  H793  1  0.254700  0.737500  0.166300  1.0
  H  H794  1  0.754700  0.262500  0.833700  1.0
  H  H795  1  0.004700  0.333700  0.237500  1.0
  H  H796  1  0.504700  0.666300  0.762500  1.0
  H  H797  1  0.495300  0.762500  0.666300  1.0
  H  H798  1  0.995300  0.237500  0.333700  1.0
  H  H799  1  0.745300  0.166300  0.737500  1.0
  H  H800  1  0.245300  0.833700  0.262500  1.0
  H  H801  1  0.295200  0.645500  0.167600  1.0
  H  H802  1  0.795200  0.354500  0.832400  1.0
  H  H803  1  0.045200  0.332400  0.145500  1.0
  H  H804  1  0.545200  0.667600  0.854500  1.0
  H  H805  1  0.454800  0.854500  0.667600  1.0
  H  H806  1  0.954800  0.145500  0.332400  1.0
  H  H807  1  0.704800  0.167600  0.645500  1.0
  H  H808  1  0.204800  0.832400  0.354500  1.0
  H  H809  1  0.262900  0.665200  0.126600  1.0
  H  H810  1  0.762900  0.334800  0.873400  1.0
  H  H811  1  0.012900  0.373400  0.165200  1.0
  H  H812  1  0.512900  0.626600  0.834800  1.0
  H  H813  1  0.487100  0.834800  0.626600  1.0
  H  H814  1  0.987100  0.165200  0.373400  1.0
  H  H815  1  0.737100  0.126600  0.665200  1.0
  H  H816  1  0.237100  0.873400  0.334800  1.0
  H  H817  1  0.318700  0.720700  0.107700  1.0
  H  H818  1  0.818700  0.279300  0.892300  1.0
  H  H819  1  0.068700  0.392300  0.220700  1.0
  H  H820  1  0.568700  0.607700  0.779300  1.0
  H  H821  1  0.431300  0.779300  0.607700  1.0
  H  H822  1  0.931300  0.220700  0.392300  1.0
  H  H823  1  0.681300  0.107700  0.720700  1.0
  H  H824  1  0.181300  0.892300  0.279300  1.0
  H  H825  1  0.341900  0.670200  0.105900  1.0
  H  H826  1  0.841900  0.329800  0.894100  1.0
  H  H827  1  0.091900  0.394100  0.170200  1.0
  H  H828  1  0.591900  0.605900  0.829800  1.0
  H  H829  1  0.408100  0.829800  0.605900  1.0
  H  H830  1  0.908100  0.170200  0.394100  1.0
  H  H831  1  0.658100  0.105900  0.670200  1.0
  H  H832  1  0.158100  0.894100  0.329800  1.0
  Pt  Pt833  1  0.829701  0.588700  0.021126  1.0
  Pt  Pt834  1  0.329701  0.411300  0.978874  1.0
  Pt  Pt835  1  0.579701  0.478874  0.088700  1.0
  Pt  Pt836  1  0.079701  0.521126  0.911300  1.0
  Pt  Pt837  1  0.920299  0.911300  0.521126  1.0
  Pt  Pt838  1  0.420299  0.088700  0.478874  1.0
  Pt  Pt839  1  0.170299  0.021126  0.588700  1.0
  Pt  Pt840  1  0.670299  0.978874  0.411300  1.0
  Pt  Pt841  1  0.640360  0.949680  0.826290  1.0
  Pt  Pt842  1  0.140360  0.050320  0.173710  1.0
  Pt  Pt843  1  0.390360  0.673710  0.449680  1.0
  Pt  Pt844  1  0.890360  0.326290  0.550320  1.0
  Pt  Pt845  1  0.109640  0.550320  0.326290  1.0
  Pt  Pt846  1  0.609640  0.449680  0.673710  1.0
  Pt  Pt847  1  0.359640  0.826290  0.949680  1.0
  Pt  Pt848  1  0.859640  0.173710  0.050320  1.0
  Pt  Pt849  1  0.443460  0.766570  0.189090  1.0
  Pt  Pt850  1  0.943460  0.233430  0.810910  1.0
  Pt  Pt851  1  0.193460  0.310910  0.266570  1.0
  Pt  Pt852  1  0.693460  0.689090  0.733430  1.0
  Pt  Pt853  1  0.306540  0.733430  0.689090  1.0
  Pt  Pt854  1  0.806540  0.266570  0.310910  1.0
  Pt  Pt855  1  0.556540  0.189090  0.766570  1.0
  Pt  Pt856  1  0.056540  0.810910  0.233430  1.0
  C  C857  1  0.913800  0.503800  0.534600  1
  C  C858  1  0.413800  0.496200  0.465400  1
  C  C859  1  0.663800  0.965400  0.003800  1
  C  C860  1  0.163800  0.034600  0.996200  1
  C  C861  1  0.836200  0.996200  0.034600  1
  C  C862  1  0.336200  0.003800  0.965400  1
  C  C863  1  0.086200  0.534600  0.503800  1
  C  C864  1  0.586200  0.465400  0.496200  1
  C  C865  1  0.972900  0.505100  0.581900  1
  C  C866  1  0.472900  0.494900  0.418100  1
  C  C867  1  0.722900  0.918100  0.005100  1
  C  C868  1  0.222900  0.081900  0.994900  1
  C  C869  1  0.777100  0.994900  0.081900  1
  C  C870  1  0.277100  0.005100  0.918100  1
  C  C871  1  0.027100  0.581900  0.505100  1
  C  C872  1  0.527100  0.418100  0.494900  1
  C  C873  1  0.958000  0.546300  0.604300  1
  C  C874  1  0.458000  0.453700  0.395700  1
  C  C875  1  0.708000  0.895700  0.046300  1
  C  C876  1  0.208000  0.104300  0.953700  1
  C  C877  1  0.792000  0.953700  0.104300  1
  C  C878  1  0.292000  0.046300  0.895700  1
  C  C879  1  0.042000  0.604300  0.546300  1
  C  C880  1  0.542000  0.395700  0.453700  1
  C  C881  1  0.916200  0.565000  0.589500  1
  C  C882  1  0.416200  0.435000  0.410500  1
  C  C883  1  0.666200  0.910500  0.065000  1
  C  C884  1  0.166200  0.089500  0.935000  1
  C  C885  1  0.833800  0.935000  0.089500  1
  C  C886  1  0.333800  0.065000  0.910500  1
  C  C887  1  0.083800  0.589500  0.565000  1
  C  C888  1  0.583800  0.410500  0.435000  1
  C  C889  1  0.021200  0.524900  0.638100  1
  C  C890  1  0.521200  0.475100  0.361900  1
  C  C891  1  0.771200  0.861900  0.024900  1
  C  C892  1  0.271200  0.138100  0.975100  1
  C  C893  1  0.728800  0.975100  0.138100  1
  C  C894  1  0.228800  0.024900  0.861900  1
  C  C895  1  0.978800  0.638100  0.524900  1
  C  C896  1  0.478800  0.361900  0.475100  1
  C  C897  1  0.043300  0.454300  0.587500  1
  C  C898  1  0.543300  0.545700  0.412500  1
  C  C899  1  0.793300  0.912500  0.954300  1
  C  C900  1  0.293300  0.087500  0.045700  1
  C  C901  1  0.706700  0.045700  0.087500  1
  C  C902  1  0.206700  0.954300  0.912500  1
  C  C903  1  0.956700  0.587500  0.454300  1
  C  C904  1  0.456700  0.412500  0.545700  1
  C  C905  1  0.089100  0.455300  0.621700  1
  C  C906  1  0.589100  0.544700  0.378300  1
  C  C907  1  0.839100  0.878300  0.955300  1
  C  C908  1  0.339100  0.121700  0.044700  1
  C  C909  1  0.660900  0.044700  0.121700  1
  C  C910  1  0.160900  0.955300  0.878300  1
  C  C911  1  0.910900  0.621700  0.455300  1
  C  C912  1  0.410900  0.378300  0.544700  1
  C  C913  1  0.108300  0.402800  0.618800  1
  C  C914  1  0.608300  0.597200  0.381200  1
  C  C915  1  0.858300  0.881200  0.902800  1
  C  C916  1  0.358300  0.118800  0.097200  1
  C  C917  1  0.641700  0.097200  0.118800  1
  C  C918  1  0.141700  0.902800  0.881200  1
  C  C919  1  0.891700  0.618800  0.402800  1
  C  C920  1  0.391700  0.381200  0.597200  1
  C  C921  1  0.058000  0.379500  0.612100  1
  C  C922  1  0.558000  0.620500  0.387900  1
  C  C923  1  0.808000  0.887900  0.879500  1
  C  C924  1  0.308000  0.112100  0.120500  1
  C  C925  1  0.692000  0.120500  0.112100  1
  C  C926  1  0.192000  0.879500  0.887900  1
  C  C927  1  0.942000  0.612100  0.379500  1
  C  C928  1  0.442000  0.387900  0.620500  1
  C  C929  1  0.049300  0.350000  0.653900  1
  C  C930  1  0.549300  0.650000  0.346100  1
  C  C931  1  0.799300  0.846100  0.850000  1
  C  C932  1  0.299300  0.153900  0.150000  1
  C  C933  1  0.700700  0.150000  0.153900  1
  C  C934  1  0.200700  0.850000  0.846100  1
  C  C935  1  0.950700  0.653900  0.350000  1
  C  C936  1  0.450700  0.346100  0.650000  1
  C  C937  1  0.205300  0.219200  0.847200  1
  C  C938  1  0.705300  0.780800  0.152800  1
  C  C939  1  0.955300  0.652800  0.719200  1
  C  C940  1  0.455300  0.347200  0.280800  1
  C  C941  1  0.544700  0.280800  0.347200  1
  C  C942  1  0.044700  0.719200  0.652800  1
  C  C943  1  0.794700  0.847200  0.219200  1
  C  C944  1  0.294700  0.152800  0.780800  1
  C  C945  1  0.281800  0.238800  0.878500  1
  C  C946  1  0.781800  0.761200  0.121500  1
  C  C947  1  0.031800  0.621500  0.738800  1
  C  C948  1  0.531800  0.378500  0.261200  1
  C  C949  1  0.468200  0.261200  0.378500  1
  C  C950  1  0.968200  0.738800  0.621500  1
  C  C951  1  0.718200  0.878500  0.238800  1
  C  C952  1  0.218200  0.121500  0.761200  1
  C  C953  1  0.285600  0.274400  0.848900  1
  C  C954  1  0.785600  0.725600  0.151100  1
  C  C955  1  0.035600  0.651100  0.774400  1
  C  C956  1  0.535600  0.348900  0.225600  1
  C  C957  1  0.464400  0.225600  0.348900  1
  C  C958  1  0.964400  0.774400  0.651100  1
  C  C959  1  0.714400  0.848900  0.274400  1
  C  C960  1  0.214400  0.151100  0.725600  1
  C  C961  1  0.247200  0.284900  0.819700  1
  C  C962  1  0.747200  0.715100  0.180300  1
  C  C963  1  0.997200  0.680300  0.784900  1
  C  C964  1  0.497200  0.319700  0.215100  1
  C  C965  1  0.502800  0.215100  0.319700  1
  C  C966  1  0.002800  0.784900  0.680300  1
  C  C967  1  0.752800  0.819700  0.284900  1
  C  C968  1  0.252800  0.180300  0.715100  1
  C  C969  1  0.327200  0.306600  0.846800  1
  C  C970  1  0.827200  0.693400  0.153200  1
  C  C971  1  0.077200  0.653200  0.806600  1
  C  C972  1  0.577200  0.346800  0.193400  1
  C  C973  1  0.422800  0.193400  0.346800  1
  C  C974  1  0.922800  0.806600  0.653200  1
  C  C975  1  0.672800  0.846800  0.306600  1
  C  C976  1  0.172800  0.153200  0.693400  1
  C  C977  1  0.168500  0.268400  0.789900  1
  C  C978  1  0.668500  0.731600  0.210100  1
  C  C979  1  0.918500  0.710100  0.768400  1
  C  C980  1  0.418500  0.289900  0.231600  1
  C  C981  1  0.581500  0.231600  0.289900  1
  C  C982  1  0.081500  0.768400  0.710100  1
  C  C983  1  0.831500  0.789900  0.268400  1
  C  C984  1  0.331500  0.210100  0.731600  1
  C  C985  1  0.155200  0.319200  0.785400  1
  C  C986  1  0.655200  0.680800  0.214600  1
  C  C987  1  0.905200  0.714600  0.819200  1
  C  C988  1  0.405200  0.285400  0.180800  1
  C  C989  1  0.594800  0.180800  0.285400  1
  C  C990  1  0.094800  0.819200  0.714600  1
  C  C991  1  0.844800  0.785400  0.319200  1
  C  C992  1  0.344800  0.214600  0.680800  1
  C  C993  1  0.131100  0.321800  0.739000  1
  C  C994  1  0.631100  0.678200  0.261000  1
  C  C995  1  0.881100  0.761000  0.821800  1
  C  C996  1  0.381100  0.239000  0.178200  1
  C  C997  1  0.618900  0.178200  0.239000  1
  C  C998  1  0.118900  0.821800  0.761000  1
  C  C999  1  0.868900  0.739000  0.321800  1
  C  C1000  1  0.368900  0.261000  0.678200  1
  C  C1001  1  0.154100  0.282200  0.712600  1
  C  C1002  1  0.654100  0.717800  0.287400  1
  C  C1003  1  0.904100  0.787400  0.782200  1
  C  C1004  1  0.404100  0.212600  0.217800  1
  C  C1005  1  0.595900  0.217800  0.212600  1
  C  C1006  1  0.095900  0.782200  0.787400  1
  C  C1007  1  0.845900  0.712600  0.282200  1
  C  C1008  1  0.345900  0.287400  0.717800  1
  C  C1009  1  0.182900  0.289400  0.670200  1
  C  C1010  1  0.682900  0.710600  0.329800  1
  C  C1011  1  0.932900  0.829800  0.789400  1
  C  C1012  1  0.432900  0.170200  0.210600  1
  C  C1013  1  0.567100  0.210600  0.170200  1
  C  C1014  1  0.067100  0.789400  0.829800  1
  C  C1015  1  0.817100  0.670200  0.289400  1
  C  C1016  1  0.317100  0.329800  0.710600  1
  C  C1017  1  0.331500  0.598500  0.267200  1
  C  C1018  1  0.831500  0.401500  0.732800  1
  C  C1019  1  0.081500  0.232800  0.098500  1
  C  C1020  1  0.581500  0.767200  0.901500  1
  C  C1021  1  0.418500  0.901500  0.767200  1
  C  C1022  1  0.918500  0.098500  0.232800  1
  C  C1023  1  0.668500  0.267200  0.598500  1
  C  C1024  1  0.168500  0.732800  0.401500  1
  C  C1025  1  0.331500  0.539100  0.216900  1
  C  C1026  1  0.831500  0.460900  0.783100  1
  C  C1027  1  0.081500  0.283100  0.039100  1
  C  C1028  1  0.581500  0.716900  0.960900  1
  C  C1029  1  0.418500  0.960900  0.716900  1
  C  C1030  1  0.918500  0.039100  0.283100  1
  C  C1031  1  0.668500  0.216900  0.539100  1
  C  C1032  1  0.168500  0.783100  0.460900  1
  C  C1033  1  0.372400  0.551900  0.197700  1
  C  C1034  1  0.872400  0.448100  0.802300  1
  C  C1035  1  0.122400  0.302300  0.051900  1
  C  C1036  1  0.622400  0.697700  0.948100  1
  C  C1037  1  0.377600  0.948100  0.697700  1
  C  C1038  1  0.877600  0.051900  0.302300  1
  C  C1039  1  0.627600  0.197700  0.551900  1
  C  C1040  1  0.127600  0.802300  0.448100  1
  C  C1041  1  0.395400  0.591900  0.217900  1
  C  C1042  1  0.895400  0.408100  0.782100  1
  C  C1043  1  0.145400  0.282100  0.091900  1
  C  C1044  1  0.645400  0.717900  0.908100  1
  C  C1045  1  0.354600  0.908100  0.717900  1
  C  C1046  1  0.854600  0.091900  0.282100  1
  C  C1047  1  0.604600  0.217900  0.591900  1
  C  C1048  1  0.104600  0.782100  0.408100  1
  C  C1049  1  0.353700  0.490400  0.159400  1
  C  C1050  1  0.853700  0.509600  0.840600  1
  C  C1051  1  0.103700  0.340600  0.990400  1
  C  C1052  1  0.603700  0.659400  0.009600  1
  C  C1053  1  0.396300  0.009600  0.659400  1
  C  C1054  1  0.896300  0.990400  0.340600  1
  C  C1055  1  0.646300  0.159400  0.490400  1
  C  C1056  1  0.146300  0.840600  0.509600  1
  C  C1057  1  0.091400  0.451600  0.598000  1
  C  C1058  1  0.591400  0.548400  0.402000  1
  C  C1059  1  0.841400  0.902000  0.951600  1
  C  C1060  1  0.341400  0.098000  0.048400  1
  C  C1061  1  0.658600  0.048400  0.098000  1
  C  C1062  1  0.158600  0.951600  0.902000  1
  C  C1063  1  0.908600  0.598000  0.451600  1
  C  C1064  1  0.408600  0.402000  0.548400  1
  C  C1065  1  0.099400  0.404000  0.604000  1
  C  C1066  1  0.599400  0.596000  0.396000  1
  C  C1067  1  0.849400  0.896000  0.904000  1
  C  C1068  1  0.349400  0.104000  0.096000  1
  C  C1069  1  0.650600  0.096000  0.104000  1
  C  C1070  1  0.150600  0.904000  0.896000  1
  C  C1071  1  0.900600  0.604000  0.404000  1
  C  C1072  1  0.400600  0.396000  0.596000  1
  C  C1073  1  0.189600  0.309700  0.680000  1
  C  C1074  1  0.689600  0.690300  0.320000  1
  C  C1075  1  0.939600  0.820000  0.809700  1
  C  C1076  1  0.439600  0.180000  0.190300  1
  C  C1077  1  0.560400  0.190300  0.180000  1
  C  C1078  1  0.060400  0.809700  0.820000  1
  C  C1079  1  0.810400  0.680000  0.309700  1
  C  C1080  1  0.310400  0.320000  0.690300  1
  C  C1081  1  0.676300  0.876800  0.884500  1.0
  C  C1082  1  0.176300  0.123200  0.115500  1.0
  C  C1083  1  0.426300  0.615500  0.376800  1.0
  C  C1084  1  0.926300  0.384500  0.623200  1.0
  C  C1085  1  0.073700  0.623200  0.384500  1.0
  C  C1086  1  0.573700  0.376800  0.615500  1.0
  C  C1087  1  0.323700  0.884500  0.876800  1.0
  C  C1088  1  0.823700  0.115500  0.123200  1.0
  C  C1089  1  0.679700  0.844000  0.920800  1.0
  C  C1090  1  0.179700  0.156000  0.079200  1.0
  C  C1091  1  0.429700  0.579200  0.344000  1.0
  C  C1092  1  0.929700  0.420800  0.656000  1.0
  C  C1093  1  0.070300  0.656000  0.420800  1.0
  C  C1094  1  0.570300  0.344000  0.579200  1.0
  C  C1095  1  0.320300  0.920800  0.844000  1.0
  C  C1096  1  0.820300  0.079200  0.156000  1.0
  C  C1097  1  0.645900  0.844500  0.954700  1.0
  C  C1098  1  0.145900  0.155500  0.045300  1.0
  C  C1099  1  0.395900  0.545300  0.344500  1.0
  C  C1100  1  0.895900  0.454700  0.655500  1.0
  C  C1101  1  0.104100  0.655500  0.454700  1.0
  C  C1102  1  0.604100  0.344500  0.545300  1.0
  C  C1103  1  0.354100  0.954700  0.844500  1.0
  C  C1104  1  0.854100  0.045300  0.155500  1.0
  C  C1105  1  0.609300  0.877000  0.952500  1.0
  C  C1106  1  0.109300  0.123000  0.047500  1.0
  C  C1107  1  0.359300  0.547500  0.377000  1.0
  C  C1108  1  0.859300  0.452500  0.623000  1.0
  C  C1109  1  0.140700  0.623000  0.452500  1.0
  C  C1110  1  0.640700  0.377000  0.547500  1.0
  C  C1111  1  0.390700  0.952500  0.877000  1.0
  C  C1112  1  0.890700  0.047500  0.123000  1.0
  C  C1113  1  0.608300  0.906400  0.914300  1.0
  C  C1114  1  0.108300  0.093600  0.085700  1.0
  C  C1115  1  0.358300  0.585700  0.406400  1.0
  C  C1116  1  0.858300  0.414300  0.593600  1.0
  C  C1117  1  0.141700  0.593600  0.414300  1.0
  C  C1118  1  0.641700  0.406400  0.585700  1.0
  C  C1119  1  0.391700  0.914300  0.906400  1.0
  C  C1120  1  0.891700  0.085700  0.093600  1.0
  C  C1121  1  0.508700  0.809700  0.123900  1.0
  C  C1122  1  0.008700  0.190300  0.876100  1.0
  C  C1123  1  0.258700  0.376100  0.309700  1.0
  C  C1124  1  0.758700  0.623900  0.690300  1.0
  C  C1125  1  0.241300  0.690300  0.623900  1.0
  C  C1126  1  0.741300  0.309700  0.376100  1.0
  C  C1127  1  0.491300  0.123900  0.809700  1.0
  C  C1128  1  0.991300  0.876100  0.190300  1.0
  C  C1129  1  0.547600  0.813200  0.093900  1.0
  C  C1130  1  0.047600  0.186800  0.906100  1.0
  C  C1131  1  0.297600  0.406100  0.313200  1.0
  C  C1132  1  0.797600  0.593900  0.686800  1.0
  C  C1133  1  0.202400  0.686800  0.593900  1.0
  C  C1134  1  0.702400  0.313200  0.406100  1.0
  C  C1135  1  0.452400  0.093900  0.813200  1.0
  C  C1136  1  0.952400  0.906100  0.186800  1.0
  C  C1137  1  0.577600  0.778000  0.092000  1.0
  C  C1138  1  0.077600  0.222000  0.908000  1.0
  C  C1139  1  0.327600  0.408000  0.278000  1.0
  C  C1140  1  0.827600  0.592000  0.722000  1.0
  C  C1141  1  0.172400  0.722000  0.592000  1.0
  C  C1142  1  0.672400  0.278000  0.408000  1.0
  C  C1143  1  0.422400  0.092000  0.778000  1.0
  C  C1144  1  0.922400  0.908000  0.222000  1.0
  C  C1145  1  0.571400  0.738600  0.120100  1.0
  C  C1146  1  0.071400  0.261400  0.879900  1.0
  C  C1147  1  0.321400  0.379900  0.238600  1.0
  C  C1148  1  0.821400  0.620100  0.761400  1.0
  C  C1149  1  0.178600  0.761400  0.620100  1.0
  C  C1150  1  0.678600  0.238600  0.379900  1.0
  C  C1151  1  0.428600  0.120100  0.738600  1.0
  C  C1152  1  0.928600  0.879900  0.261400  1.0
  C  C1153  1  0.533300  0.737200  0.148200  1.0
  C  C1154  1  0.033300  0.262800  0.851800  1.0
  C  C1155  1  0.283300  0.351800  0.237200  1.0
  C  C1156  1  0.783300  0.648200  0.762800  1.0
  C  C1157  1  0.216700  0.762800  0.648200  1.0
  C  C1158  1  0.716700  0.237200  0.351800  1.0
  C  C1159  1  0.466700  0.148200  0.737200  1.0
  C  C1160  1  0.966700  0.851800  0.262800  1.0
  C  C1161  1  0.648400  0.811000  0.994200  1.0
  C  C1162  1  0.148400  0.189000  0.005800  1.0
  C  C1163  1  0.398400  0.505800  0.311000  1.0
  C  C1164  1  0.898400  0.494200  0.689000  1.0
  C  C1165  1  0.101600  0.689000  0.494200  1.0
  C  C1166  1  0.601600  0.311000  0.505800  1.0
  C  C1167  1  0.351600  0.994200  0.811000  1.0
  C  C1168  1  0.851600  0.005800  0.189000  1.0
  C  C1169  1  0.617100  0.779500  0.058100  1.0
  C  C1170  1  0.117100  0.220500  0.941900  1.0
  C  C1171  1  0.367100  0.441900  0.279500  1.0
  C  C1172  1  0.867100  0.558100  0.720500  1.0
  C  C1173  1  0.132900  0.720500  0.558100  1.0
  C  C1174  1  0.632900  0.279500  0.441900  1.0
  C  C1175  1  0.382900  0.058100  0.779500  1.0
  C  C1176  1  0.882900  0.941900  0.220500  1.0
  C  C1177  1  0.753400  0.644200  0.059400  1.0
  C  C1178  1  0.253400  0.355800  0.940600  1.0
  C  C1179  1  0.503400  0.440600  0.144200  1.0
  C  C1180  1  0.003400  0.559400  0.855800  1.0
  C  C1181  1  0.996600  0.855800  0.559400  1.0
  C  C1182  1  0.496600  0.144200  0.440600  1.0
  C  C1183  1  0.246600  0.059400  0.644200  1.0
  C  C1184  1  0.746600  0.940600  0.355800  1.0
  C  C1185  1  0.719600  0.678800  0.061800  1.0
  C  C1186  1  0.219600  0.321200  0.938200  1.0
  C  C1187  1  0.469600  0.438200  0.178800  1.0
  C  C1188  1  0.969600  0.561800  0.821200  1.0
  C  C1189  1  0.030400  0.821200  0.561800  1.0
  C  C1190  1  0.530400  0.178800  0.438200  1.0
  C  C1191  1  0.280400  0.061800  0.678800  1.0
  C  C1192  1  0.780400  0.938200  0.321200  1.0
  C  C1193  1  0.721400  0.714700  0.030500  1.0
  C  C1194  1  0.221400  0.285300  0.969500  1.0
  C  C1195  1  0.471400  0.469500  0.214700  1.0
  C  C1196  1  0.971400  0.530500  0.785300  1.0
  C  C1197  1  0.028600  0.785300  0.530500  1.0
  C  C1198  1  0.528600  0.214700  0.469500  1.0
  C  C1199  1  0.278600  0.030500  0.714700  1.0
  C  C1200  1  0.778600  0.969500  0.285300  1.0
  C  C1201  1  0.683400  0.750800  0.029100  1.0
  C  C1202  1  0.183400  0.249200  0.970900  1.0
  C  C1203  1  0.433400  0.470900  0.250800  1.0
  C  C1204  1  0.933400  0.529100  0.749200  1.0
  C  C1205  1  0.066600  0.749200  0.529100  1.0
  C  C1206  1  0.566600  0.250800  0.470900  1.0
  C  C1207  1  0.316600  0.029100  0.750800  1.0
  C  C1208  1  0.816600  0.970900  0.249200  1.0
  C  C1209  1  0.755800  0.714600  0.997000  1.0
  C  C1210  1  0.255800  0.285400  0.003000  1.0
  C  C1211  1  0.505800  0.503000  0.214600  1.0
  C  C1212  1  0.005800  0.497000  0.785400  1.0
  C  C1213  1  0.994200  0.785400  0.497000  1.0
  C  C1214  1  0.494200  0.214600  0.503000  1.0
  C  C1215  1  0.244200  0.997000  0.714600  1.0
  C  C1216  1  0.744200  0.003000  0.285400  1.0
  C  C1217  1  0.786900  0.680200  0.996800  1.0
  C  C1218  1  0.286900  0.319800  0.003200  1.0
  C  C1219  1  0.536900  0.503200  0.180200  1.0
  C  C1220  1  0.036900  0.496800  0.819800  1.0
  C  C1221  1  0.963100  0.819800  0.496800  1.0
  C  C1222  1  0.463100  0.180200  0.503200  1.0
  C  C1223  1  0.213100  0.996800  0.680200  1.0
  C  C1224  1  0.713100  0.003200  0.319800  1.0
  C  C1225  1  0.469000  0.850700  0.239800  1.0
  C  C1226  1  0.969000  0.149300  0.760200  1.0
  C  C1227  1  0.219000  0.260200  0.350700  1.0
  C  C1228  1  0.719000  0.739800  0.649300  1.0
  C  C1229  1  0.281000  0.649300  0.739800  1.0
  C  C1230  1  0.781000  0.350700  0.260200  1.0
  C  C1231  1  0.531000  0.239800  0.850700  1.0
  C  C1232  1  0.031000  0.760200  0.149300  1.0
  C  C1233  1  0.491700  0.880600  0.267600  1.0
  C  C1234  1  0.991700  0.119400  0.732400  1.0
  C  C1235  1  0.241700  0.232400  0.380600  1.0
  C  C1236  1  0.741700  0.767600  0.619400  1.0
  C  C1237  1  0.258300  0.619400  0.767600  1.0
  C  C1238  1  0.758300  0.380600  0.232400  1.0
  C  C1239  1  0.508300  0.267600  0.880600  1.0
  C  C1240  1  0.008300  0.732400  0.119400  1.0
  C  C1241  1  0.525300  0.861500  0.298100  1.0
  C  C1242  1  0.025300  0.138500  0.701900  1.0
  C  C1243  1  0.275300  0.201900  0.361500  1.0
  C  C1244  1  0.775300  0.798100  0.638500  1.0
  C  C1245  1  0.224700  0.638500  0.798100  1.0
  C  C1246  1  0.724700  0.361500  0.201900  1.0
  C  C1247  1  0.474700  0.298100  0.861500  1.0
  C  C1248  1  0.974700  0.701900  0.138500  1.0
  C  C1249  1  0.531300  0.813400  0.297800  1.0
  C  C1250  1  0.031300  0.186600  0.702200  1.0
  C  C1251  1  0.281300  0.202200  0.313400  1.0
  C  C1252  1  0.781300  0.797800  0.686600  1.0
  C  C1253  1  0.218700  0.686600  0.797800  1.0
  C  C1254  1  0.718700  0.313400  0.202200  1.0
  C  C1255  1  0.468700  0.297800  0.813400  1.0
  C  C1256  1  0.968700  0.702200  0.186600  1.0
  C  C1257  1  0.507200  0.786600  0.267300  1.0
  C  C1258  1  0.007200  0.213400  0.732700  1.0
  C  C1259  1  0.257200  0.232700  0.286600  1.0
  C  C1260  1  0.757200  0.767300  0.713400  1.0
  C  C1261  1  0.242800  0.713400  0.767300  1.0
  C  C1262  1  0.742800  0.286600  0.232700  1.0
  C  C1263  1  0.492800  0.267300  0.786600  1.0
  C  C1264  1  0.992800  0.732700  0.213400  1.0
  C  C1265  1  0.900400  0.661900  0.039200  1.0
  C  C1266  1  0.400400  0.338100  0.960800  1.0
  C  C1267  1  0.650400  0.460800  0.161900  1.0
  C  C1268  1  0.150400  0.539200  0.838100  1.0
  C  C1269  1  0.849600  0.838100  0.539200  1.0
  C  C1270  1  0.349600  0.161900  0.460800  1.0
  C  C1271  1  0.099600  0.039200  0.661900  1.0
  C  C1272  1  0.599600  0.960800  0.338100  1.0
  C  C1273  1  0.931500  0.686900  0.064800  1.0
  C  C1274  1  0.431500  0.313100  0.935200  1.0
  C  C1275  1  0.681500  0.435200  0.186900  1.0
  C  C1276  1  0.181500  0.564800  0.813100  1.0
  C  C1277  1  0.818500  0.813100  0.564800  1.0
  C  C1278  1  0.318500  0.186900  0.435200  1.0
  C  C1279  1  0.068500  0.064800  0.686900  1.0
  C  C1280  1  0.568500  0.935200  0.313100  1.0
  C  C1281  1  0.555600  0.891600  0.327700  1.0
  C  C1282  1  0.055600  0.108400  0.672300  1.0
  C  C1283  1  0.305600  0.172300  0.391600  1.0
  C  C1284  1  0.805600  0.827700  0.608400  1.0
  C  C1285  1  0.194400  0.608400  0.827700  1.0
  C  C1286  1  0.694400  0.391600  0.172300  1.0
  C  C1287  1  0.444400  0.327700  0.891600  1.0
  C  C1288  1  0.944400  0.672300  0.108400  1.0
  C  C1289  1  0.574300  0.876000  0.369700  1.0
  C  C1290  1  0.074300  0.124000  0.630300  1.0
  C  C1291  1  0.324300  0.130300  0.376000  1.0
  C  C1292  1  0.824300  0.869700  0.624000  1.0
  C  C1293  1  0.175700  0.624000  0.869700  1.0
  C  C1294  1  0.675700  0.376000  0.130300  1.0
  C  C1295  1  0.425700  0.369700  0.876000  1.0
  C  C1296  1  0.925700  0.630300  0.124000  1.0
  C  C1297  1  0.895100  0.606500  0.096400  1.0
  C  C1298  1  0.395100  0.393500  0.903600  1.0
  C  C1299  1  0.645100  0.403600  0.106500  1.0
  C  C1300  1  0.145100  0.596400  0.893500  1.0
  C  C1301  1  0.854900  0.893500  0.596400  1.0
  C  C1302  1  0.354900  0.106500  0.403600  1.0
  C  C1303  1  0.104900  0.096400  0.606500  1.0
  C  C1304  1  0.604900  0.903600  0.393500  1.0
  C  C1305  1  0.726700  0.993200  0.859900  1.0
  C  C1306  1  0.226700  0.006800  0.140100  1.0
  C  C1307  1  0.476700  0.640100  0.493200  1.0
  C  C1308  1  0.976700  0.359900  0.506800  1.0
  C  C1309  1  0.023300  0.506800  0.359900  1.0
  C  C1310  1  0.523300  0.493200  0.640100  1.0
  C  C1311  1  0.273300  0.859900  0.993200  1.0
  C  C1312  1  0.773300  0.140100  0.006800  1.0
  C  C1313  1  0.754100  0.022900  0.886400  1.0
  C  C1314  1  0.254100  0.977100  0.113600  1.0
  C  C1315  1  0.504100  0.613600  0.522900  1.0
  C  C1316  1  0.004100  0.386400  0.477100  1.0
  C  C1317  1  0.995900  0.477100  0.386400  1.0
  C  C1318  1  0.495900  0.522900  0.613600  1.0
  C  C1319  1  0.245900  0.886400  0.022900  1.0
  C  C1320  1  0.745900  0.113600  0.977100  1.0
  C  C1321  1  0.735700  0.053100  0.917400  1.0
  C  C1322  1  0.235700  0.946900  0.082600  1.0
  C  C1323  1  0.485700  0.582600  0.553100  1.0
  C  C1324  1  0.985700  0.417400  0.446900  1.0
  C  C1325  1  0.014300  0.446900  0.417400  1.0
  C  C1326  1  0.514300  0.553100  0.582600  1.0
  C  C1327  1  0.264300  0.917400  0.053100  1.0
  C  C1328  1  0.764300  0.082600  0.946900  1.0
  C  C1329  1  0.687800  0.052400  0.919200  1.0
  C  C1330  1  0.187800  0.947600  0.080800  1.0
  C  C1331  1  0.437800  0.580800  0.552400  1.0
  C  C1332  1  0.937800  0.419200  0.447600  1.0
  C  C1333  1  0.062200  0.447600  0.419200  1.0
  C  C1334  1  0.562200  0.552400  0.580800  1.0
  C  C1335  1  0.312200  0.919200  0.052400  1.0
  C  C1336  1  0.812200  0.080800  0.947600  1.0
  C  C1337  1  0.661400  0.024300  0.892600  1.0
  C  C1338  1  0.161400  0.975700  0.107400  1.0
  C  C1339  1  0.411400  0.607400  0.524300  1.0
  C  C1340  1  0.911400  0.392600  0.475700  1.0
  C  C1341  1  0.088600  0.475700  0.392600  1.0
  C  C1342  1  0.588600  0.524300  0.607400  1.0
  C  C1343  1  0.338600  0.892600  0.024300  1.0
  C  C1344  1  0.838600  0.107400  0.975700  1.0
  C  C1345  1  0.801900  0.511700  0.964500  1.0
  C  C1346  1  0.301900  0.488300  0.035500  1.0
  C  C1347  1  0.551900  0.535500  0.011700  1.0
  C  C1348  1  0.051900  0.464500  0.988300  1.0
  C  C1349  1  0.948100  0.988300  0.464500  1.0
  C  C1350  1  0.448100  0.011700  0.535500  1.0
  C  C1351  1  0.198100  0.964500  0.511700  1.0
  C  C1352  1  0.698100  0.035500  0.488300  1.0
  C  C1353  1  0.840700  0.493100  0.995000  1.0
  C  C1354  1  0.340700  0.506900  0.005000  1.0
  C  C1355  1  0.590700  0.505000  0.993100  1.0
  C  C1356  1  0.090700  0.495000  0.006900  1.0
  C  C1357  1  0.909300  0.006900  0.495000  1.0
  C  C1358  1  0.409300  0.993100  0.505000  1.0
  C  C1359  1  0.159300  0.995000  0.493100  1.0
  C  C1360  1  0.659300  0.005000  0.506900  1.0
  C  C1361  1  0.869100  0.456900  0.965900  1.0
  C  C1362  1  0.369100  0.543100  0.034100  1.0
  C  C1363  1  0.619100  0.534100  0.956900  1.0
  C  C1364  1  0.119100  0.465900  0.043100  1.0
  C  C1365  1  0.880900  0.043100  0.465900  1.0
  C  C1366  1  0.380900  0.956900  0.534100  1.0
  C  C1367  1  0.130900  0.965900  0.456900  1.0
  C  C1368  1  0.630900  0.034100  0.543100  1.0
  C  C1369  1  0.836200  0.416900  0.953200  1.0
  C  C1370  1  0.336200  0.583100  0.046800  1.0
  C  C1371  1  0.586200  0.546800  0.916900  1.0
  C  C1372  1  0.086200  0.453200  0.083100  1.0
  C  C1373  1  0.913800  0.083100  0.453200  1.0
  C  C1374  1  0.413800  0.916900  0.546800  1.0
  C  C1375  1  0.163800  0.953200  0.416900  1.0
  C  C1376  1  0.663800  0.046800  0.583100  1.0
  C  C1377  1  0.796100  0.434300  0.924200  1.0
  C  C1378  1  0.296100  0.565700  0.075800  1.0
  C  C1379  1  0.546100  0.575800  0.934300  1.0
  C  C1380  1  0.046100  0.424200  0.065700  1.0
  C  C1381  1  0.953900  0.065700  0.424200  1.0
  C  C1382  1  0.453900  0.934300  0.575800  1.0
  C  C1383  1  0.203900  0.924200  0.434300  1.0
  C  C1384  1  0.703900  0.075800  0.565700  1.0
  C  C1385  1  0.767500  0.473500  0.950600  1.0
  C  C1386  1  0.267500  0.526500  0.049400  1.0
  C  C1387  1  0.517500  0.549400  0.973500  1.0
  C  C1388  1  0.017500  0.450600  0.026500  1.0
  C  C1389  1  0.982500  0.026500  0.450600  1.0
  C  C1390  1  0.482500  0.973500  0.549400  1.0
  C  C1391  1  0.232500  0.950600  0.473500  1.0
  C  C1392  1  0.732500  0.049400  0.526500  1.0
  C  C1393  1  0.583400  0.934900  0.745800  1.0
  C  C1394  1  0.083400  0.065100  0.254200  1.0
  C  C1395  1  0.333400  0.754200  0.434900  1.0
  C  C1396  1  0.833400  0.245800  0.565100  1.0
  C  C1397  1  0.166600  0.565100  0.245800  1.0
  C  C1398  1  0.666600  0.434900  0.754200  1.0
  C  C1399  1  0.416600  0.745800  0.934900  1.0
  C  C1400  1  0.916600  0.254200  0.065100  1.0
  C  C1401  1  0.623300  0.963300  0.730100  1.0
  C  C1402  1  0.123300  0.036700  0.269900  1.0
  C  C1403  1  0.373300  0.769900  0.463300  1.0
  C  C1404  1  0.873300  0.230100  0.536700  1.0
  C  C1405  1  0.126700  0.536700  0.230100  1.0
  C  C1406  1  0.626700  0.463300  0.769900  1.0
  C  C1407  1  0.376700  0.730100  0.963300  1.0
  C  C1408  1  0.876700  0.269900  0.036700  1.0
  C  C1409  1  0.611300  0.995400  0.687500  1.0
  C  C1410  1  0.111300  0.004600  0.312500  1.0
  C  C1411  1  0.361300  0.812500  0.495400  1.0
  C  C1412  1  0.861300  0.187500  0.504600  1.0
  C  C1413  1  0.138700  0.504600  0.187500  1.0
  C  C1414  1  0.638700  0.495400  0.812500  1.0
  C  C1415  1  0.388700  0.687500  0.995400  1.0
  C  C1416  1  0.888700  0.312500  0.004600  1.0
  C  C1417  1  0.591100  0.966800  0.646600  1.0
  C  C1418  1  0.091100  0.033200  0.353400  1.0
  C  C1419  1  0.341100  0.853400  0.466800  1.0
  C  C1420  1  0.841100  0.146600  0.533200  1.0
  C  C1421  1  0.158900  0.533200  0.146600  1.0
  C  C1422  1  0.658900  0.466800  0.853400  1.0
  C  C1423  1  0.408900  0.646600  0.966800  1.0
  C  C1424  1  0.908900  0.353400  0.033200  1.0
  C  C1425  1  0.550800  0.935200  0.664300  1.0
  C  C1426  1  0.050800  0.064800  0.335700  1.0
  C  C1427  1  0.300800  0.835700  0.435200  1.0
  C  C1428  1  0.800800  0.164300  0.564800  1.0
  C  C1429  1  0.199200  0.564800  0.164300  1.0
  C  C1430  1  0.699200  0.435200  0.835700  1.0
  C  C1431  1  0.449200  0.664300  0.935200  1.0
  C  C1432  1  0.949200  0.335700  0.064800  1.0
  C  C1433  1  0.562700  0.906700  0.709000  1.0
  C  C1434  1  0.062700  0.093300  0.291000  1.0
  C  C1435  1  0.312700  0.791000  0.406700  1.0
  C  C1436  1  0.812700  0.209000  0.593300  1.0
  C  C1437  1  0.187300  0.593300  0.209000  1.0
  C  C1438  1  0.687300  0.406700  0.791000  1.0
  C  C1439  1  0.437300  0.709000  0.906700  1.0
  C  C1440  1  0.937300  0.291000  0.093300  1.0
  C  C1441  1  0.366100  0.709800  0.161300  1.0
  C  C1442  1  0.866100  0.290200  0.838700  1.0
  C  C1443  1  0.116100  0.338700  0.209800  1.0
  C  C1444  1  0.616100  0.661300  0.790200  1.0
  C  C1445  1  0.383900  0.790200  0.661300  1.0
  C  C1446  1  0.883900  0.209800  0.338700  1.0
  C  C1447  1  0.633900  0.161300  0.709800  1.0
  C  C1448  1  0.133900  0.838700  0.290200  1.0
  C  C1449  1  0.345600  0.745100  0.193800  1.0
  C  C1450  1  0.845600  0.254900  0.806200  1.0
  C  C1451  1  0.095600  0.306200  0.245100  1.0
  C  C1452  1  0.595600  0.693800  0.754900  1.0
  C  C1453  1  0.404400  0.754900  0.693800  1.0
  C  C1454  1  0.904400  0.245100  0.306200  1.0
  C  C1455  1  0.654400  0.193800  0.745100  1.0
  C  C1456  1  0.154400  0.806200  0.254900  1.0
  C  C1457  1  0.303400  0.725000  0.220100  1.0
  C  C1458  1  0.803400  0.275000  0.779900  1.0
  C  C1459  1  0.053400  0.279900  0.225000  1.0
  C  C1460  1  0.553400  0.720100  0.775000  1.0
  C  C1461  1  0.446600  0.775000  0.720100  1.0
  C  C1462  1  0.946600  0.225000  0.279900  1.0
  C  C1463  1  0.696600  0.220100  0.725000  1.0
  C  C1464  1  0.196600  0.779900  0.275000  1.0
  C  C1465  1  0.265500  0.710000  0.183900  1.0
  C  C1466  1  0.765500  0.290000  0.816100  1.0
  C  C1467  1  0.015500  0.316100  0.210000  1.0
  C  C1468  1  0.515500  0.683900  0.790000  1.0
  C  C1469  1  0.484500  0.790000  0.683900  1.0
  C  C1470  1  0.984500  0.210000  0.316100  1.0
  C  C1471  1  0.734500  0.183900  0.710000  1.0
  C  C1472  1  0.234500  0.816100  0.290000  1.0
  C  C1473  1  0.286400  0.673900  0.150200  1.0
  C  C1474  1  0.786400  0.326100  0.849800  1.0
  C  C1475  1  0.036400  0.349800  0.173900  1.0
  C  C1476  1  0.536400  0.650200  0.826100  1.0
  C  C1477  1  0.463600  0.826100  0.650200  1.0
  C  C1478  1  0.963600  0.173900  0.349800  1.0
  C  C1479  1  0.713600  0.150200  0.673900  1.0
  C  C1480  1  0.213600  0.849800  0.326100  1.0
  C  C1481  1  0.328400  0.693900  0.126900  1.0
  C  C1482  1  0.828400  0.306100  0.873100  1.0
  C  C1483  1  0.078400  0.373100  0.193900  1.0
  C  C1484  1  0.578400  0.626900  0.806100  1.0
  C  C1485  1  0.421600  0.806100  0.626900  1.0
  C  C1486  1  0.921600  0.193900  0.373100  1.0
  C  C1487  1  0.671600  0.126900  0.693900  1.0
  C  C1488  1  0.171600  0.873100  0.306100  1.0
  N  N1489  1  0.893400  0.543100  0.553700  1
  N  N1490  1  0.393400  0.456900  0.446300  1
  N  N1491  1  0.643400  0.946300  0.043100  1
  N  N1492  1  0.143400  0.053700  0.956900  1
  N  N1493  1  0.856600  0.956900  0.053700  1
  N  N1494  1  0.356600  0.043100  0.946300  1
  N  N1495  1  0.106600  0.553700  0.543100  1
  N  N1496  1  0.606600  0.446300  0.456900  1
  N  N1497  1  0.953600  0.483600  0.545200  1
  N  N1498  1  0.453600  0.516400  0.454800  1
  N  N1499  1  0.703600  0.954800  0.983600  1
  N  N1500  1  0.203600  0.045200  0.016400  1
  N  N1501  1  0.796400  0.016400  0.045200  1
  N  N1502  1  0.296400  0.983600  0.954800  1
  N  N1503  1  0.046400  0.545200  0.483600  1
  N  N1504  1  0.546400  0.454800  0.516400  1
  N  N1505  1  0.897300  0.602500  0.607400  1
  N  N1506  1  0.397300  0.397500  0.392600  1
  N  N1507  1  0.647300  0.892600  0.102500  1
  N  N1508  1  0.147300  0.107400  0.897500  1
  N  N1509  1  0.852700  0.897500  0.107400  1
  N  N1510  1  0.352700  0.102500  0.892600  1
  N  N1511  1  0.102700  0.607400  0.602500  1
  N  N1512  1  0.602700  0.392600  0.397500  1
  N  N1513  1  0.987200  0.556200  0.639700  1
  N  N1514  1  0.487200  0.443800  0.360300  1
  N  N1515  1  0.737200  0.860300  0.056200  1
  N  N1516  1  0.237200  0.139700  0.943800  1
  N  N1517  1  0.762800  0.943800  0.139700  1
  N  N1518  1  0.262800  0.056200  0.860300  1
  N  N1519  1  0.012800  0.639700  0.556200  1
  N  N1520  1  0.512800  0.360300  0.443800  1
  N  N1521  1  0.013300  0.494300  0.601900  1
  N  N1522  1  0.513300  0.505700  0.398100  1
  N  N1523  1  0.763300  0.898100  0.994300  1
  N  N1524  1  0.263300  0.101900  0.005700  1
  N  N1525  1  0.736700  0.005700  0.101900  1
  N  N1526  1  0.236700  0.994300  0.898100  1
  N  N1527  1  0.986700  0.601900  0.494300  1
  N  N1528  1  0.486700  0.398100  0.505700  1
  N  N1529  1  0.208300  0.259100  0.820900  1
  N  N1530  1  0.708300  0.740900  0.179100  1
  N  N1531  1  0.958300  0.679100  0.759100  1
  N  N1532  1  0.458300  0.320900  0.240900  1
  N  N1533  1  0.541700  0.240900  0.320900  1
  N  N1534  1  0.041700  0.759100  0.679100  1
  N  N1535  1  0.791700  0.820900  0.259100  1
  N  N1536  1  0.291700  0.179100  0.740900  1
  N  N1537  1  0.243800  0.212000  0.875900  1
  N  N1538  1  0.743800  0.788000  0.124100  1
  N  N1539  1  0.993800  0.624100  0.712000  1
  N  N1540  1  0.493800  0.375900  0.288000  1
  N  N1541  1  0.506200  0.288000  0.375900  1
  N  N1542  1  0.006200  0.712000  0.624100  1
  N  N1543  1  0.756200  0.875900  0.212000  1
  N  N1544  1  0.256200  0.124100  0.788000  1
  N  N1545  1  0.372700  0.613800  0.252700  1
  N  N1546  1  0.872700  0.386200  0.747300  1
  N  N1547  1  0.122700  0.247300  0.113800  1
  N  N1548  1  0.622700  0.752700  0.886200  1
  N  N1549  1  0.377300  0.886200  0.752700  1
  N  N1550  1  0.877300  0.113800  0.247300  1
  N  N1551  1  0.627300  0.252700  0.613800  1
  N  N1552  1  0.127300  0.747300  0.386200  1
  N  N1553  1  0.306800  0.561100  0.253700  1
  N  N1554  1  0.806800  0.438900  0.746300  1
  N  N1555  1  0.056800  0.246300  0.061100  1
  N  N1556  1  0.556800  0.753700  0.938900  1
  N  N1557  1  0.443200  0.938900  0.753700  1
  N  N1558  1  0.943200  0.061100  0.246300  1
  N  N1559  1  0.693200  0.253700  0.561100  1
  N  N1560  1  0.193200  0.746300  0.438900  1
  N  N1561  1  0.436600  0.606200  0.202500  1
  N  N1562  1  0.936600  0.393800  0.797500  1
  N  N1563  1  0.186600  0.297500  0.106200  1
  N  N1564  1  0.686600  0.702500  0.893800  1
  N  N1565  1  0.313400  0.893800  0.702500  1
  N  N1566  1  0.813400  0.106200  0.297500  1
  N  N1567  1  0.563400  0.202500  0.606200  1
  N  N1568  1  0.063400  0.797500  0.393800  1
  N  N1569  1  0.386900  0.522600  0.162500  1
  N  N1570  1  0.886900  0.477400  0.837500  1
  N  N1571  1  0.136900  0.337500  0.022600  1
  N  N1572  1  0.636900  0.662500  0.977400  1
  N  N1573  1  0.363100  0.977400  0.662500  1
  N  N1574  1  0.863100  0.022600  0.337500  1
  N  N1575  1  0.613100  0.162500  0.522600  1
  N  N1576  1  0.113100  0.837500  0.477400  1
  N  N1577  1  0.318200  0.499800  0.194000  1
  N  N1578  1  0.818200  0.500200  0.806000  1
  N  N1579  1  0.068200  0.306000  0.999800  1
  N  N1580  1  0.568200  0.694000  0.000200  1
  N  N1581  1  0.431800  0.000200  0.694000  1
  N  N1582  1  0.931800  0.999800  0.306000  1
  N  N1583  1  0.681800  0.194000  0.499800  1
  N  N1584  1  0.181800  0.806000  0.500200  1
  N  N1585  1  0.730500  0.569300  0.839900  1
  N  N1586  1  0.230500  0.430700  0.160100  1
  N  N1587  1  0.480500  0.660100  0.069300  1
  N  N1588  1  0.980500  0.339900  0.930700  1
  N  N1589  1  0.019500  0.930700  0.339900  1
  N  N1590  1  0.519500  0.069300  0.660100  1
  N  N1591  1  0.269500  0.839900  0.569300  1
  N  N1592  1  0.769500  0.160100  0.430700  1
  N  N1593  1  0.137100  0.701700  0.142500  1
  N  N1594  1  0.637100  0.298300  0.857500  1
  N  N1595  1  0.887100  0.357500  0.201700  1
  N  N1596  1  0.387100  0.642500  0.798300  1
  N  N1597  1  0.612900  0.798300  0.642500  1
  N  N1598  1  0.112900  0.201700  0.357500  1
  N  N1599  1  0.862900  0.142500  0.701700  1
  N  N1600  1  0.362900  0.857500  0.298300  1
  N  N1601  1  0.012400  0.542000  0.129500  1
  N  N1602  1  0.512400  0.458000  0.870500  1
  N  N1603  1  0.762400  0.370500  0.042000  1
  N  N1604  1  0.262400  0.629500  0.958000  1
  N  N1605  1  0.737600  0.958000  0.629500  1
  N  N1606  1  0.237600  0.042000  0.370500  1
  N  N1607  1  0.987600  0.129500  0.542000  1
  N  N1608  1  0.487600  0.870500  0.458000  1
  N  N1609  1  0.247000  0.418000  0.830000  1
  N  N1610  1  0.747000  0.582000  0.170000  1
  N  N1611  1  0.997000  0.670000  0.918000  1
  N  N1612  1  0.497000  0.330000  0.082000  1
  N  N1613  1  0.503000  0.082000  0.330000  1
  N  N1614  1  0.003000  0.918000  0.670000  1
  N  N1615  1  0.753000  0.830000  0.418000  1
  N  N1616  1  0.253000  0.170000  0.582000  1
  N  N1617  1  0.118000  0.360000  0.355000  1
  N  N1618  1  0.618000  0.640000  0.645000  1
  N  N1619  1  0.868000  0.145000  0.860000  1
  N  N1620  1  0.368000  0.855000  0.140000  1
  N  N1621  1  0.632000  0.140000  0.855000  1
  N  N1622  1  0.132000  0.860000  0.145000  1
  N  N1623  1  0.882000  0.355000  0.360000  1
  N  N1624  1  0.382000  0.645000  0.640000  1
  N  N1625  1  0.750000  0.350500  0.649500  1
  N  N1626  1  0.250000  0.649500  0.350500  1
  N  N1627  1  0.500000  0.850500  0.850500  1
  N  N1628  1  0.000000  0.149500  0.149500  1
  N  N1629  1  0.750000  0.337900  0.662100  1
  N  N1630  1  0.250000  0.662100  0.337900  1
  N  N1631  1  0.500000  0.837900  0.837900  1
  N  N1632  1  0.000000  0.162100  0.162100  1
  N  N1633  1  0.640100  0.905700  0.881300  1.0
  N  N1634  1  0.140100  0.094300  0.118700  1.0
  N  N1635  1  0.390100  0.618700  0.405700  1.0
  N  N1636  1  0.890100  0.381300  0.594300  1.0
  N  N1637  1  0.109900  0.594300  0.381300  1.0
  N  N1638  1  0.609900  0.405700  0.618700  1.0
  N  N1639  1  0.359900  0.881300  0.905700  1.0
  N  N1640  1  0.859900  0.118700  0.094300  1.0
  N  N1641  1  0.501700  0.770700  0.149900  1.0
  N  N1642  1  0.001700  0.229300  0.850100  1.0
  N  N1643  1  0.251700  0.350100  0.270700  1.0
  N  N1644  1  0.751700  0.649900  0.729300  1.0
  N  N1645  1  0.248300  0.729300  0.649900  1.0
  N  N1646  1  0.748300  0.270700  0.350100  1.0
  N  N1647  1  0.498300  0.149900  0.770700  1.0
  N  N1648  1  0.998300  0.850100  0.229300  1.0
  N  N1649  1  0.615300  0.812000  0.025500  1.0
  N  N1650  1  0.115300  0.188000  0.974500  1.0
  N  N1651  1  0.365300  0.474500  0.312000  1.0
  N  N1652  1  0.865300  0.525500  0.688000  1.0
  N  N1653  1  0.134700  0.688000  0.525500  1.0
  N  N1654  1  0.634700  0.312000  0.474500  1.0
  N  N1655  1  0.384700  0.025500  0.812000  1.0
  N  N1656  1  0.884700  0.974500  0.188000  1.0
  N  N1657  1  0.787000  0.643900  0.027900  1.0
  N  N1658  1  0.287000  0.356100  0.972100  1.0
  N  N1659  1  0.537000  0.472100  0.143900  1.0
  N  N1660  1  0.037000  0.527900  0.856100  1.0
  N  N1661  1  0.963000  0.856100  0.527900  1.0
  N  N1662  1  0.463000  0.143900  0.472100  1.0
  N  N1663  1  0.213000  0.027900  0.643900  1.0
  N  N1664  1  0.713000  0.972100  0.356100  1.0
  N  N1665  1  0.683700  0.781200  0.994200  1.0
  N  N1666  1  0.183700  0.218800  0.005800  1.0
  N  N1667  1  0.433700  0.505800  0.281200  1.0
  N  N1668  1  0.933700  0.494200  0.718800  1.0
  N  N1669  1  0.066300  0.718800  0.494200  1.0
  N  N1670  1  0.566300  0.281200  0.505800  1.0
  N  N1671  1  0.316300  0.994200  0.781200  1.0
  N  N1672  1  0.816300  0.005800  0.218800  1.0
  N  N1673  1  0.650500  0.747100  0.061700  1.0
  N  N1674  1  0.150500  0.252900  0.938300  1.0
  N  N1675  1  0.400500  0.438300  0.247100  1.0
  N  N1676  1  0.900500  0.561700  0.752900  1.0
  N  N1677  1  0.099500  0.752900  0.561700  1.0
  N  N1678  1  0.599500  0.247100  0.438300  1.0
  N  N1679  1  0.349500  0.061700  0.747100  1.0
  N  N1680  1  0.849500  0.938300  0.252900  1.0
  N  N1681  1  0.475700  0.806000  0.238000  1.0
  N  N1682  1  0.975700  0.194000  0.762000  1.0
  N  N1683  1  0.225700  0.262000  0.306000  1.0
  N  N1684  1  0.725700  0.738000  0.694000  1.0
  N  N1685  1  0.274300  0.694000  0.738000  1.0
  N  N1686  1  0.774300  0.306000  0.262000  1.0
  N  N1687  1  0.524300  0.238000  0.806000  1.0
  N  N1688  1  0.024300  0.762000  0.194000  1.0
  N  N1689  1  0.881900  0.622400  0.054300  1.0
  N  N1690  1  0.381900  0.377600  0.945700  1.0
  N  N1691  1  0.631900  0.445700  0.122400  1.0
  N  N1692  1  0.131900  0.554300  0.877600  1.0
  N  N1693  1  0.868100  0.877600  0.554300  1.0
  N  N1694  1  0.368100  0.122400  0.445700  1.0
  N  N1695  1  0.118100  0.054300  0.622400  1.0
  N  N1696  1  0.618100  0.945700  0.377600  1.0
  N  N1697  1  0.681600  0.994600  0.863500  1.0
  N  N1698  1  0.181600  0.005400  0.136500  1.0
  N  N1699  1  0.431600  0.636500  0.494600  1.0
  N  N1700  1  0.931600  0.363500  0.505400  1.0
  N  N1701  1  0.068400  0.505400  0.363500  1.0
  N  N1702  1  0.568400  0.494600  0.636500  1.0
  N  N1703  1  0.318400  0.863500  0.994600  1.0
  N  N1704  1  0.818400  0.136500  0.005400  1.0
  N  N1705  1  0.779400  0.550500  0.989600  1.0
  N  N1706  1  0.279400  0.449500  0.010400  1.0
  N  N1707  1  0.529400  0.510400  0.050500  1.0
  N  N1708  1  0.029400  0.489600  0.949500  1.0
  N  N1709  1  0.970600  0.949500  0.489600  1.0
  N  N1710  1  0.470600  0.050500  0.510400  1.0
  N  N1711  1  0.220600  0.989600  0.550500  1.0
  N  N1712  1  0.720600  0.010400  0.449500  1.0
  N  N1713  1  0.869900  0.531700  0.009500  1.0
  N  N1714  1  0.369900  0.468300  0.990500  1.0
  N  N1715  1  0.619900  0.490500  0.031700  1.0
  N  N1716  1  0.119900  0.509500  0.968300  1.0
  N  N1717  1  0.880100  0.968300  0.509500  1.0
  N  N1718  1  0.380100  0.031700  0.490500  1.0
  N  N1719  1  0.130100  0.009500  0.531700  1.0
  N  N1720  1  0.630100  0.990500  0.468300  1.0
  N  N1721  1  0.599700  0.908400  0.785900  1.0
  N  N1722  1  0.099700  0.091600  0.214100  1.0
  N  N1723  1  0.349700  0.714100  0.408400  1.0
  N  N1724  1  0.849700  0.285900  0.591600  1.0
  N  N1725  1  0.150300  0.591600  0.285900  1.0
  N  N1726  1  0.650300  0.408400  0.714100  1.0
  N  N1727  1  0.400300  0.785900  0.908400  1.0
  N  N1728  1  0.900300  0.214100  0.091600  1.0
  N  N1729  1  0.641400  0.989800  0.767100  1.0
  N  N1730  1  0.141400  0.010200  0.232900  1.0
  N  N1731  1  0.391400  0.732900  0.489800  1.0
  N  N1732  1  0.891400  0.267100  0.510200  1.0
  N  N1733  1  0.108600  0.510200  0.267100  1.0
  N  N1734  1  0.608600  0.489800  0.732900  1.0
  N  N1735  1  0.358600  0.767100  0.989800  1.0
  N  N1736  1  0.858600  0.232900  0.010200  1.0
  N  N1737  1  0.407200  0.729600  0.140100  1.0
  N  N1738  1  0.907200  0.270400  0.859900  1.0
  N  N1739  1  0.157200  0.359900  0.229600  1.0
  N  N1740  1  0.657200  0.640100  0.770400  1.0
  N  N1741  1  0.342800  0.770400  0.640100  1.0
  N  N1742  1  0.842800  0.229600  0.359900  1.0
  N  N1743  1  0.592800  0.140100  0.729600  1.0
  N  N1744  1  0.092800  0.859900  0.270400  1.0
  N  N1745  1  0.383700  0.759500  0.226200  1.0
  N  N1746  1  0.883700  0.240500  0.773800  1.0
  N  N1747  1  0.133700  0.273800  0.259500  1.0
  N  N1748  1  0.633700  0.726200  0.740500  1.0
  N  N1749  1  0.366300  0.740500  0.726200  1.0
  N  N1750  1  0.866300  0.259500  0.273800  1.0
  N  N1751  1  0.616300  0.226200  0.759500  1.0
  N  N1752  1  0.116300  0.773800  0.240500  1.0
  O  O1753  1  0.054100  0.377700  0.694500  1
  O  O1754  1  0.554100  0.622300  0.305500  1
  O  O1755  1  0.804100  0.805500  0.877700  1
  O  O1756  1  0.304100  0.194500  0.122300  1
  O  O1757  1  0.695900  0.122300  0.194500  1
  O  O1758  1  0.195900  0.877700  0.805500  1
  O  O1759  1  0.945900  0.694500  0.377700  1
  O  O1760  1  0.445900  0.305500  0.622300  1
  O  O1761  1  0.002000  0.334000  0.749500  1
  O  O1762  1  0.502000  0.666000  0.250500  1
  O  O1763  1  0.752000  0.750500  0.834000  1
  O  O1764  1  0.252000  0.249500  0.166000  1
  O  O1765  1  0.748000  0.166000  0.249500  1
  O  O1766  1  0.248000  0.834000  0.750500  1
  O  O1767  1  0.998000  0.749500  0.334000  1
  O  O1768  1  0.498000  0.250500  0.666000  1
  O  O1769  1  0.062000  0.391800  0.776100  1
  O  O1770  1  0.562000  0.608200  0.223900  1
  O  O1771  1  0.812000  0.723900  0.891800  1
  O  O1772  1  0.312000  0.276100  0.108200  1
  O  O1773  1  0.688000  0.108200  0.276100  1
  O  O1774  1  0.188000  0.891800  0.723900  1
  O  O1775  1  0.938000  0.776100  0.391800  1
  O  O1776  1  0.438000  0.223900  0.608200  1
  O  O1777  1  0.083000  0.312200  0.742600  1
  O  O1778  1  0.583000  0.687800  0.257400  1
  O  O1779  1  0.833000  0.757400  0.812200  1
  O  O1780  1  0.333000  0.242600  0.187800  1
  O  O1781  1  0.667000  0.187800  0.242600  1
  O  O1782  1  0.167000  0.812200  0.757400  1
  O  O1783  1  0.917000  0.742600  0.312200  1
  O  O1784  1  0.417000  0.257400  0.687800  1
  O  O1785  1  0.023300  0.414300  0.605200  1
  O  O1786  1  0.523300  0.585700  0.394800  1
  O  O1787  1  0.773300  0.894800  0.914300  1
  O  O1788  1  0.273300  0.105200  0.085700  1
  O  O1789  1  0.726700  0.085700  0.105200  1
  O  O1790  1  0.226700  0.914300  0.894800  1
  O  O1791  1  0.976700  0.605200  0.414300  1
  O  O1792  1  0.476700  0.394800  0.585700  1
  O  O1793  1  0.140000  0.394800  0.590500  1
  O  O1794  1  0.640000  0.605200  0.409500  1
  O  O1795  1  0.890000  0.909500  0.894800  1
  O  O1796  1  0.390000  0.090500  0.105200  1
  O  O1797  1  0.610000  0.105200  0.090500  1
  O  O1798  1  0.110000  0.894800  0.909500  1
  O  O1799  1  0.860000  0.590500  0.394800  1
  O  O1800  1  0.360000  0.409500  0.605200  1
  O  O1801  1  0.172400  0.192100  0.847700  1
  O  O1802  1  0.672400  0.807900  0.152300  1
  O  O1803  1  0.922400  0.652300  0.692100  1
  O  O1804  1  0.422400  0.347700  0.307900  1
  O  O1805  1  0.577600  0.307900  0.347700  1
  O  O1806  1  0.077600  0.692100  0.652300  1
  O  O1807  1  0.827600  0.847700  0.192100  1
  O  O1808  1  0.327600  0.152300  0.807900  1
  O  O1809  1  0.314100  0.228100  0.906600  1
  O  O1810  1  0.814100  0.771900  0.093400  1
  O  O1811  1  0.064100  0.593400  0.728100  1
  O  O1812  1  0.564100  0.406600  0.271900  1
  O  O1813  1  0.435900  0.271900  0.406600  1
  O  O1814  1  0.935900  0.728100  0.593400  1
  O  O1815  1  0.685900  0.906600  0.228100  1
  O  O1816  1  0.185900  0.093400  0.771900  1
  O  O1817  1  0.182800  0.257200  0.744000  1
  O  O1818  1  0.682800  0.742800  0.256000  1
  O  O1819  1  0.932800  0.756000  0.757200  1
  O  O1820  1  0.432800  0.244000  0.242800  1
  O  O1821  1  0.567200  0.242800  0.244000  1
  O  O1822  1  0.067200  0.757200  0.756000  1
  O  O1823  1  0.817200  0.744000  0.257200  1
  O  O1824  1  0.317200  0.256000  0.742800  1
  O  O1825  1  0.156100  0.305300  0.632800  1
  O  O1826  1  0.656100  0.694700  0.367200  1
  O  O1827  1  0.906100  0.867200  0.805300  1
  O  O1828  1  0.406100  0.132800  0.194700  1
  O  O1829  1  0.593900  0.194700  0.132800  1
  O  O1830  1  0.093900  0.805300  0.867200  1
  O  O1831  1  0.843900  0.632800  0.305300  1
  O  O1832  1  0.343900  0.367200  0.694700  1
  O  O1833  1  0.871000  0.499900  0.391700  1
  O  O1834  1  0.371000  0.500100  0.608300  1
  O  O1835  1  0.621000  0.108300  0.999900  1
  O  O1836  1  0.121000  0.891700  0.000100  1
  O  O1837  1  0.879000  0.000100  0.891700  1
  O  O1838  1  0.379000  0.999900  0.108300  1
  O  O1839  1  0.129000  0.391700  0.499900  1
  O  O1840  1  0.629000  0.608300  0.500100  1
  O  O1841  1  0.820600  0.467900  0.464100  1
  O  O1842  1  0.320600  0.532100  0.535900  1
  O  O1843  1  0.570600  0.035900  0.967900  1
  O  O1844  1  0.070600  0.964100  0.032100  1
  O  O1845  1  0.929400  0.032100  0.964100  1
  O  O1846  1  0.429400  0.967900  0.035900  1
  O  O1847  1  0.179400  0.464100  0.467900  1
  O  O1848  1  0.679400  0.535900  0.532100  1
  O  O1849  1  0.697300  0.594600  0.850500  1
  O  O1850  1  0.197300  0.405400  0.149500  1
  O  O1851  1  0.447300  0.649500  0.094600  1
  O  O1852  1  0.947300  0.350500  0.905400  1
  O  O1853  1  0.052700  0.905400  0.350500  1
  O  O1854  1  0.552700  0.094600  0.649500  1
  O  O1855  1  0.302700  0.850500  0.594600  1
  O  O1856  1  0.802700  0.149500  0.405400  1
  O  O1857  1  0.758900  0.554900  0.871500  1
  O  O1858  1  0.258900  0.445100  0.128500  1
  O  O1859  1  0.508900  0.628500  0.054900  1
  O  O1860  1  0.008900  0.371500  0.945100  1
  O  O1861  1  0.991100  0.945100  0.371500  1
  O  O1862  1  0.491100  0.054900  0.628500  1
  O  O1863  1  0.241100  0.871500  0.554900  1
  O  O1864  1  0.741100  0.128500  0.445100  1
  O  O1865  1  0.735900  0.557000  0.799400  1
  O  O1866  1  0.235900  0.443000  0.200600  1
  O  O1867  1  0.485900  0.700600  0.057000  1
  O  O1868  1  0.985900  0.299400  0.943000  1
  O  O1869  1  0.014100  0.943000  0.299400  1
  O  O1870  1  0.514100  0.057000  0.700600  1
  O  O1871  1  0.264100  0.799400  0.557000  1
  O  O1872  1  0.764100  0.200600  0.443000  1
  O  O1873  1  0.150700  0.741300  0.153300  1
  O  O1874  1  0.650700  0.258700  0.846700  1
  O  O1875  1  0.900700  0.346700  0.241300  1
  O  O1876  1  0.400700  0.653300  0.758700  1
  O  O1877  1  0.599300  0.758700  0.653300  1
  O  O1878  1  0.099300  0.241300  0.346700  1
  O  O1879  1  0.849300  0.153300  0.741300  1
  O  O1880  1  0.349300  0.846700  0.258700  1
  O  O1881  1  0.161300  0.689500  0.104100  1
  O  O1882  1  0.661300  0.310500  0.895900  1
  O  O1883  1  0.911300  0.395900  0.189500  1
  O  O1884  1  0.411300  0.604100  0.810500  1
  O  O1885  1  0.588700  0.810500  0.604100  1
  O  O1886  1  0.088700  0.189500  0.395900  1
  O  O1887  1  0.838700  0.104100  0.689500  1
  O  O1888  1  0.338700  0.895900  0.310500  1
  O  O1889  1  0.104700  0.672500  0.154300  1
  O  O1890  1  0.604700  0.327500  0.845700  1
  O  O1891  1  0.854700  0.345700  0.172500  1
  O  O1892  1  0.354700  0.654300  0.827500  1
  O  O1893  1  0.645300  0.827500  0.654300  1
  O  O1894  1  0.145300  0.172500  0.345700  1
  O  O1895  1  0.895300  0.154300  0.672500  1
  O  O1896  1  0.395300  0.845700  0.327500  1
  O  O1897  1  0.012900  0.562700  0.087300  1
  O  O1898  1  0.512900  0.437300  0.912700  1
  O  O1899  1  0.762900  0.412700  0.062700  1
  O  O1900  1  0.262900  0.587300  0.937300  1
  O  O1901  1  0.737100  0.937300  0.587300  1
  O  O1902  1  0.237100  0.062700  0.412700  1
  O  O1903  1  0.987100  0.087300  0.562700  1
  O  O1904  1  0.487100  0.912700  0.437300  1
  O  O1905  1  0.032700  0.574600  0.152100  1
  O  O1906  1  0.532700  0.425400  0.847900  1
  O  O1907  1  0.782700  0.347900  0.074600  1
  O  O1908  1  0.282700  0.652100  0.925400  1
  O  O1909  1  0.717300  0.925400  0.652100  1
  O  O1910  1  0.217300  0.074600  0.347900  1
  O  O1911  1  0.967300  0.152100  0.574600  1
  O  O1912  1  0.467300  0.847900  0.425400  1
  O  O1913  1  0.984900  0.510200  0.144700  1
  O  O1914  1  0.484900  0.489800  0.855300  1
  O  O1915  1  0.734900  0.355300  0.010200  1
  O  O1916  1  0.234900  0.644700  0.989800  1
  O  O1917  1  0.765100  0.989800  0.644700  1
  O  O1918  1  0.265100  0.010200  0.355300  1
  O  O1919  1  0.015100  0.144700  0.510200  1
  O  O1920  1  0.515100  0.855300  0.489800  1
  O  O1921  1  0.074300  0.381600  0.869600  1
  O  O1922  1  0.574300  0.618400  0.130400  1
  O  O1923  1  0.824300  0.630400  0.881600  1
  O  O1924  1  0.324300  0.369600  0.118400  1
  O  O1925  1  0.675700  0.118400  0.369600  1
  O  O1926  1  0.175700  0.881600  0.630400  1
  O  O1927  1  0.925700  0.869600  0.381600  1
  O  O1928  1  0.425700  0.130400  0.618400  1
  O  O1929  1  0.000200  0.587900  0.270700  1
  O  O1930  1  0.500200  0.412100  0.729300  1
  O  O1931  1  0.750200  0.229300  0.087900  1
  O  O1932  1  0.250200  0.770700  0.912100  1
  O  O1933  1  0.749800  0.912100  0.770700  1
  O  O1934  1  0.249800  0.087900  0.229300  1
  O  O1935  1  0.999800  0.270700  0.587900  1
  O  O1936  1  0.499800  0.729300  0.412100  1
  O  O1937  1  0.715000  0.614100  0.945500  1
  O  O1938  1  0.215000  0.385900  0.054500  1
  O  O1939  1  0.465000  0.554500  0.114100  1
  O  O1940  1  0.965000  0.445500  0.885900  1
  O  O1941  1  0.035000  0.885900  0.445500  1
  O  O1942  1  0.535000  0.114100  0.554500  1
  O  O1943  1  0.285000  0.945500  0.614100  1
  O  O1944  1  0.785000  0.054500  0.385900  1
  O  O1945  1  0.083900  0.623100  0.072500  1
  O  O1946  1  0.583900  0.376900  0.927500  1
  O  O1947  1  0.833900  0.427500  0.123100  1
  O  O1948  1  0.333900  0.572500  0.876900  1
  O  O1949  1  0.666100  0.876900  0.572500  1
  O  O1950  1  0.166100  0.123100  0.427500  1
  O  O1951  1  0.916100  0.072500  0.623100  1
  O  O1952  1  0.416100  0.927500  0.376900  1
  O  O1953  1  0.431600  0.992200  0.313700  1
  O  O1954  1  0.931600  0.007800  0.686300  1
  O  O1955  1  0.181600  0.186300  0.492200  1
  O  O1956  1  0.681600  0.813700  0.507800  1
  O  O1957  1  0.318400  0.507800  0.813700  1
  O  O1958  1  0.818400  0.492200  0.186300  1
  O  O1959  1  0.568400  0.313700  0.992200  1
  O  O1960  1  0.068400  0.686300  0.007800  1
  O  O1961  1  0.157500  0.588500  0.015900  1
  O  O1962  1  0.657500  0.411500  0.984100  1
  O  O1963  1  0.907500  0.484100  0.088500  1
  O  O1964  1  0.407500  0.515900  0.911500  1
  O  O1965  1  0.592500  0.911500  0.515900  1
  O  O1966  1  0.092500  0.088500  0.484100  1
  O  O1967  1  0.842500  0.015900  0.588500  1
  O  O1968  1  0.342500  0.984100  0.411500  1
  O  O1969  1  0.198500  0.523900  0.551500  1
  O  O1970  1  0.698500  0.476100  0.448500  1
  O  O1971  1  0.948500  0.948500  0.023900  1
  O  O1972  1  0.448500  0.051500  0.976100  1
  O  O1973  1  0.551500  0.976100  0.051500  1
  O  O1974  1  0.051500  0.023900  0.948500  1
  O  O1975  1  0.801500  0.551500  0.523900  1
  O  O1976  1  0.301500  0.448500  0.476100  1
  O  O1977  1  0.370800  0.207800  0.978800  1
  O  O1978  1  0.870800  0.792200  0.021200  1
  O  O1979  1  0.120800  0.521200  0.707800  1
  O  O1980  1  0.620800  0.478800  0.292200  1
  O  O1981  1  0.379200  0.292200  0.478800  1
  O  O1982  1  0.879200  0.707800  0.521200  1
  O  O1983  1  0.629200  0.978800  0.207800  1
  O  O1984  1  0.129200  0.021200  0.792200  1
  O  O1985  1  0.137100  0.447100  0.765500  1
  O  O1986  1  0.637100  0.552900  0.234500  1
  O  O1987  1  0.887100  0.734500  0.947100  1
  O  O1988  1  0.387100  0.265500  0.052900  1
  O  O1989  1  0.612900  0.052900  0.265500  1
  O  O1990  1  0.112900  0.947100  0.734500  1
  O  O1991  1  0.862900  0.765500  0.447100  1
  O  O1992  1  0.362900  0.234500  0.552900  1
  O  O1993  1  0.075600  0.646900  0.247500  1
  O  O1994  1  0.575600  0.353100  0.752500  1
  O  O1995  1  0.825600  0.252500  0.146900  1
  O  O1996  1  0.325600  0.747500  0.853100  1
  O  O1997  1  0.674400  0.853100  0.747500  1
  O  O1998  1  0.174400  0.146900  0.252500  1
  O  O1999  1  0.924400  0.247500  0.646900  1
  O  O2000  1  0.424400  0.752500  0.353100  1
  O  O2001  1  0.329900  0.810700  0.787300  1
  O  O2002  1  0.829900  0.189300  0.212700  1
  O  O2003  1  0.079900  0.712700  0.310700  1
  O  O2004  1  0.579900  0.287300  0.689300  1
  O  O2005  1  0.420100  0.689300  0.287300  1
  O  O2006  1  0.920100  0.310700  0.712700  1
  O  O2007  1  0.670100  0.787300  0.810700  1
  O  O2008  1  0.170100  0.212700  0.189300  1
  O  O2009  1  0.012800  0.494900  0.235900  1
  O  O2010  1  0.512800  0.505100  0.764100  1
  O  O2011  1  0.762800  0.264100  0.994900  1
  O  O2012  1  0.262800  0.735900  0.005100  1
  O  O2013  1  0.737200  0.005100  0.735900  1
  O  O2014  1  0.237200  0.994900  0.264100  1
  O  O2015  1  0.987200  0.235900  0.494900  1
  O  O2016  1  0.487200  0.764100  0.505100  1
  O  O2017  1  0.814500  0.658500  0.574800  1
  O  O2018  1  0.314500  0.341500  0.425200  1
  O  O2019  1  0.564500  0.925200  0.158500  1
  O  O2020  1  0.064500  0.074800  0.841500  1
  O  O2021  1  0.935500  0.841500  0.074800  1
  O  O2022  1  0.435500  0.158500  0.925200  1
  O  O2023  1  0.185500  0.574800  0.658500  1
  O  O2024  1  0.685500  0.425200  0.341500  1
  O  O2025  1  0.905300  0.794500  0.156600  1
  O  O2026  1  0.405300  0.205500  0.843400  1
  O  O2027  1  0.655300  0.343400  0.294500  1
  O  O2028  1  0.155300  0.656600  0.705500  1
  O  O2029  1  0.844700  0.705500  0.656600  1
  O  O2030  1  0.344700  0.294500  0.343400  1
  O  O2031  1  0.094700  0.156600  0.794500  1
  O  O2032  1  0.594700  0.843400  0.205500  1
  O  O2033  1  0.220200  0.445500  0.603400  1
  O  O2034  1  0.720200  0.554500  0.396600  1
  O  O2035  1  0.970200  0.896600  0.945500  1
  O  O2036  1  0.470200  0.103400  0.054500  1
  O  O2037  1  0.529800  0.054500  0.103400  1
  O  O2038  1  0.029800  0.945500  0.896600  1
  O  O2039  1  0.779800  0.603400  0.445500  1
  O  O2040  1  0.279800  0.396600  0.554500  1
  O  O2041  1  0.341600  0.111300  0.255600  1
  O  O2042  1  0.841600  0.888700  0.744400  1
  O  O2043  1  0.091600  0.244400  0.611300  1
  O  O2044  1  0.591600  0.755600  0.388700  1
  O  O2045  1  0.408400  0.388700  0.755600  1
  O  O2046  1  0.908400  0.611300  0.244400  1
  O  O2047  1  0.658400  0.255600  0.111300  1
  O  O2048  1  0.158400  0.744400  0.888700  1
  O  O2049  1  0.274000  0.411000  0.795000  1
  O  O2050  1  0.774000  0.589000  0.205000  1
  O  O2051  1  0.024000  0.705000  0.911000  1
  O  O2052  1  0.524000  0.295000  0.089000  1
  O  O2053  1  0.476000  0.089000  0.295000  1
  O  O2054  1  0.976000  0.911000  0.705000  1
  O  O2055  1  0.726000  0.795000  0.411000  1
  O  O2056  1  0.226000  0.205000  0.589000  1
  O  O2057  1  0.204000  0.405000  0.836000  1
  O  O2058  1  0.704000  0.595000  0.164000  1
  O  O2059  1  0.954000  0.664000  0.905000  1
  O  O2060  1  0.454000  0.336000  0.095000  1
  O  O2061  1  0.546000  0.095000  0.336000  1
  O  O2062  1  0.046000  0.905000  0.664000  1
  O  O2063  1  0.796000  0.836000  0.405000  1
  O  O2064  1  0.296000  0.164000  0.595000  1
  O  O2065  1  0.275000  0.439000  0.860000  1
  O  O2066  1  0.775000  0.561000  0.140000  1
  O  O2067  1  0.025000  0.640000  0.939000  1
  O  O2068  1  0.525000  0.360000  0.061000  1
  O  O2069  1  0.475000  0.061000  0.360000  1
  O  O2070  1  0.975000  0.939000  0.640000  1
  O  O2071  1  0.725000  0.860000  0.439000  1
  O  O2072  1  0.225000  0.140000  0.561000  1
  O  O2073  1  0.959600  0.428400  0.271400  1
  O  O2074  1  0.459600  0.571600  0.728600  1
  O  O2075  1  0.709600  0.228600  0.928400  1
  O  O2076  1  0.209600  0.771400  0.071600  1
  O  O2077  1  0.790400  0.071600  0.771400  1
  O  O2078  1  0.290400  0.928400  0.228600  1
  O  O2079  1  0.040400  0.271400  0.428400  1
  O  O2080  1  0.540400  0.728600  0.571600  1
  O  O2081  1  0.217300  0.416600  0.713500  1
  O  O2082  1  0.717300  0.583400  0.286500  1
  O  O2083  1  0.967300  0.786500  0.916600  1
  O  O2084  1  0.467300  0.213500  0.083400  1
  O  O2085  1  0.532700  0.083400  0.213500  1
  O  O2086  1  0.032700  0.916600  0.786500  1
  O  O2087  1  0.782700  0.713500  0.416600  1
  O  O2088  1  0.282700  0.286500  0.583400  1
  O  O2089  1  0.157000  0.379800  0.369400  1
  O  O2090  1  0.657000  0.620200  0.630600  1
  O  O2091  1  0.907000  0.130600  0.879800  1
  O  O2092  1  0.407000  0.869400  0.120200  1
  O  O2093  1  0.593000  0.120200  0.869400  1
  O  O2094  1  0.093000  0.879800  0.130600  1
  O  O2095  1  0.843000  0.369400  0.379800  1
  O  O2096  1  0.343000  0.630600  0.620200  1
  O  O2097  1  0.089000  0.331000  0.375000  1
  O  O2098  1  0.589000  0.669000  0.625000  1
  O  O2099  1  0.839000  0.125000  0.831000  1
  O  O2100  1  0.339000  0.875000  0.169000  1
  O  O2101  1  0.661000  0.169000  0.875000  1
  O  O2102  1  0.161000  0.831000  0.125000  1
  O  O2103  1  0.911000  0.375000  0.331000  1
  O  O2104  1  0.411000  0.625000  0.669000  1
  O  O2105  1  0.104000  0.388000  0.321000  1
  O  O2106  1  0.604000  0.612000  0.679000  1
  O  O2107  1  0.854000  0.179000  0.888000  1
  O  O2108  1  0.354000  0.821000  0.112000  1
  O  O2109  1  0.646000  0.112000  0.821000  1
  O  O2110  1  0.146000  0.888000  0.179000  1
  O  O2111  1  0.896000  0.321000  0.388000  1
  O  O2112  1  0.396000  0.679000  0.612000  1
  O  O2113  1  0.193900  0.280400  0.482500  1
  O  O2114  1  0.693900  0.719600  0.517500  1
  O  O2115  1  0.943900  0.017500  0.780400  1
  O  O2116  1  0.443900  0.982500  0.219600  1
  O  O2117  1  0.556100  0.219600  0.982500  1
  O  O2118  1  0.056100  0.780400  0.017500  1
  O  O2119  1  0.806100  0.482500  0.280400  1
  O  O2120  1  0.306100  0.517500  0.719600  1
  O  O2121  1  0.723600  0.650800  0.563800  1
  O  O2122  1  0.223600  0.349200  0.436200  1
  O  O2123  1  0.473600  0.936200  0.150800  1
  O  O2124  1  0.973600  0.063800  0.849200  1
  O  O2125  1  0.026400  0.849200  0.063800  1
  O  O2126  1  0.526400  0.150800  0.936200  1
  O  O2127  1  0.276400  0.563800  0.650800  1
  O  O2128  1  0.776400  0.436200  0.349200  1
  O  O2129  1  0.918000  0.497000  0.296000  1
  O  O2130  1  0.418000  0.503000  0.704000  1
  O  O2131  1  0.668000  0.204000  0.997000  1
  O  O2132  1  0.168000  0.796000  0.003000  1
  O  O2133  1  0.832000  0.003000  0.796000  1
  O  O2134  1  0.332000  0.997000  0.204000  1
  O  O2135  1  0.082000  0.296000  0.497000  1
  O  O2136  1  0.582000  0.704000  0.503000  1
  O  O2137  1  0.226800  0.496300  0.935500  1
  O  O2138  1  0.726800  0.503700  0.064500  1
  O  O2139  1  0.976800  0.564500  0.996300  1
  O  O2140  1  0.476800  0.435500  0.003700  1
  O  O2141  1  0.523200  0.003700  0.435500  1
  O  O2142  1  0.023200  0.996300  0.564500  1
  O  O2143  1  0.773200  0.935500  0.496300  1
  O  O2144  1  0.273200  0.064500  0.503700  1
  O  O2145  1  0.272900  0.434500  0.683800  1
  O  O2146  1  0.772900  0.565500  0.316200  1
  O  O2147  1  0.022900  0.816200  0.934500  1
  O  O2148  1  0.522900  0.183800  0.065500  1
  O  O2149  1  0.477100  0.065500  0.183800  1
  O  O2150  1  0.977100  0.934500  0.816200  1
  O  O2151  1  0.727100  0.683800  0.434500  1
  O  O2152  1  0.227100  0.316200  0.565500  1
  O  O2153  1  0.755600  0.330900  0.548100  1
  O  O2154  1  0.255600  0.669100  0.451900  1
  O  O2155  1  0.505600  0.951900  0.830900  1
  O  O2156  1  0.005600  0.048100  0.169100  1
  O  O2157  1  0.994400  0.169100  0.048100  1
  O  O2158  1  0.494400  0.830900  0.951900  1
  O  O2159  1  0.244400  0.548100  0.330900  1
  O  O2160  1  0.744400  0.451900  0.669100  1
  O  O2161  1  0.787700  0.375400  0.474900  1
  O  O2162  1  0.287700  0.624600  0.525100  1
  O  O2163  1  0.537700  0.025100  0.875400  1
  O  O2164  1  0.037700  0.974900  0.124600  1
  O  O2165  1  0.962300  0.124600  0.974900  1
  O  O2166  1  0.462300  0.875400  0.025100  1
  O  O2167  1  0.212300  0.474900  0.375400  1
  O  O2168  1  0.712300  0.525100  0.624600  1
  O  O2169  1  0.148600  0.415200  0.916400  1
  O  O2170  1  0.648600  0.584800  0.083600  1
  O  O2171  1  0.898600  0.583600  0.915200  1
  O  O2172  1  0.398600  0.416400  0.084800  1
  O  O2173  1  0.601400  0.084800  0.416400  1
  O  O2174  1  0.101400  0.915200  0.583600  1
  O  O2175  1  0.851400  0.916400  0.415200  1
  O  O2176  1  0.351400  0.083600  0.584800  1
  O  O2177  1  0.354000  0.040000  0.305900  1
  O  O2178  1  0.854000  0.960000  0.694100  1
  O  O2179  1  0.104000  0.194100  0.540000  1
  O  O2180  1  0.604000  0.805900  0.460000  1
  O  O2181  1  0.396000  0.460000  0.805900  1
  O  O2182  1  0.896000  0.540000  0.194100  1
  O  O2183  1  0.646000  0.305900  0.040000  1
  O  O2184  1  0.146000  0.694100  0.960000  1
  O  O2185  1  0.116100  0.398100  0.552000  1
  O  O2186  1  0.616100  0.601900  0.448000  1
  O  O2187  1  0.866100  0.948000  0.898100  1
  O  O2188  1  0.366100  0.052000  0.101900  1
  O  O2189  1  0.633900  0.101900  0.052000  1
  O  O2190  1  0.133900  0.898100  0.948000  1
  O  O2191  1  0.883900  0.552000  0.398100  1
  O  O2192  1  0.383900  0.448000  0.601900  1
  O  O2193  1  0.215700  0.273300  0.650200  1
  O  O2194  1  0.715700  0.726700  0.349800  1
  O  O2195  1  0.965700  0.849800  0.773300  1
  O  O2196  1  0.465700  0.150200  0.226700  1
  O  O2197  1  0.534300  0.226700  0.150200  1
  O  O2198  1  0.034300  0.773300  0.849800  1
  O  O2199  1  0.784300  0.650200  0.273300  1
  O  O2200  1  0.284300  0.349800  0.726700  1
  O  O2201  1  0.760000  0.330000  0.687000  1
  O  O2202  1  0.260000  0.670000  0.313000  1
  O  O2203  1  0.510000  0.813000  0.830000  1
  O  O2204  1  0.010000  0.187000  0.170000  1
  O  O2205  1  0.990000  0.170000  0.187000  1
  O  O2206  1  0.490000  0.830000  0.813000  1
  O  O2207  1  0.240000  0.687000  0.330000  1
  O  O2208  1  0.740000  0.313000  0.670000  1
  O  O2209  1  0.714000  0.375000  0.646000  1
  O  O2210  1  0.214000  0.625000  0.354000  1
  O  O2211  1  0.464000  0.854000  0.875000  1
  O  O2212  1  0.964000  0.146000  0.125000  1
  O  O2213  1  0.036000  0.125000  0.146000  1
  O  O2214  1  0.536000  0.875000  0.854000  1
  O  O2215  1  0.286000  0.646000  0.375000  1
  O  O2216  1  0.786000  0.354000  0.625000  1
  O  O2217  1  0.764000  0.331000  0.611000  1
  O  O2218  1  0.264000  0.669000  0.389000  1
  O  O2219  1  0.514000  0.889000  0.831000  1
  O  O2220  1  0.014000  0.111000  0.169000  1
  O  O2221  1  0.986000  0.169000  0.111000  1
  O  O2222  1  0.486000  0.831000  0.889000  1
  O  O2223  1  0.236000  0.611000  0.331000  1
  O  O2224  1  0.736000  0.389000  0.669000  1
  O  O2225  1  0.759000  0.309000  0.501000  1
  O  O2226  1  0.259000  0.691000  0.499000  1
  O  O2227  1  0.509000  0.999000  0.809000  1
  O  O2228  1  0.009000  0.001000  0.191000  1
  O  O2229  1  0.991000  0.191000  0.001000  1
  O  O2230  1  0.491000  0.809000  0.999000  1
  O  O2231  1  0.241000  0.501000  0.309000  1
  O  O2232  1  0.741000  0.499000  0.691000  1
  O  O2233  1  0.143100  0.419800  0.310100  1
  O  O2234  1  0.643100  0.580200  0.689900  1
  O  O2235  1  0.893100  0.189900  0.919800  1
  O  O2236  1  0.393100  0.810100  0.080200  1
  O  O2237  1  0.606900  0.080200  0.810100  1
  O  O2238  1  0.106900  0.919800  0.189900  1
  O  O2239  1  0.856900  0.310100  0.419800  1
  O  O2240  1  0.356900  0.689900  0.580200  1
  O  O2241  1  0.016800  0.351000  0.345800  1
  O  O2242  1  0.516800  0.649000  0.654200  1
  O  O2243  1  0.766800  0.154200  0.851000  1
  O  O2244  1  0.266800  0.845800  0.149000  1
  O  O2245  1  0.733200  0.149000  0.845800  1
  O  O2246  1  0.233200  0.851000  0.154200  1
  O  O2247  1  0.983200  0.345800  0.351000  1
  O  O2248  1  0.483200  0.654200  0.649000  1
  O  O2249  1  0.750000  0.369100  0.630900  1
  O  O2250  1  0.250000  0.630900  0.369100  1
  O  O2251  1  0.500000  0.869100  0.869100  1
  O  O2252  1  0.000000  0.130900  0.130900  1
  O  O2253  1  0.771900  0.300200  0.659300  1
  O  O2254  1  0.271900  0.699800  0.340700  1
  O  O2255  1  0.521900  0.840700  0.800200  1
  O  O2256  1  0.021900  0.159300  0.199800  1
  O  O2257  1  0.978100  0.199800  0.159300  1
  O  O2258  1  0.478100  0.800200  0.840700  1
  O  O2259  1  0.228100  0.659300  0.300200  1
  O  O2260  1  0.728100  0.340700  0.699800  1
  O  O2261  1  0.707000  0.347000  0.666000  1
  O  O2262  1  0.207000  0.653000  0.334000  1
  O  O2263  1  0.457000  0.834000  0.847000  1
  O  O2264  1  0.957000  0.166000  0.153000  1
  O  O2265  1  0.043000  0.153000  0.166000  1
  O  O2266  1  0.543000  0.847000  0.834000  1
  O  O2267  1  0.293000  0.666000  0.347000  1
  O  O2268  1  0.793000  0.334000  0.653000  1
  O  O2269  1  0.220000  0.409000  0.766000  1
  O  O2270  1  0.720000  0.591000  0.234000  1
  O  O2271  1  0.970000  0.734000  0.909000  1
  O  O2272  1  0.470000  0.266000  0.091000  1
  O  O2273  1  0.530000  0.091000  0.266000  1
  O  O2274  1  0.030000  0.909000  0.734000  1
  O  O2275  1  0.780000  0.766000  0.409000  1
  O  O2276  1  0.280000  0.234000  0.591000  1
  O  O2277  1  0.220000  0.440000  0.854000  1
  O  O2278  1  0.720000  0.560000  0.146000  1
  O  O2279  1  0.970000  0.646000  0.940000  1
  O  O2280  1  0.470000  0.354000  0.060000  1
  O  O2281  1  0.530000  0.060000  0.354000  1
  O  O2282  1  0.030000  0.940000  0.646000  1
  O  O2283  1  0.780000  0.854000  0.440000  1
  O  O2284  1  0.280000  0.146000  0.560000  1
  O  O2285  1  0.172700  0.441400  0.295500  1
  O  O2286  1  0.672700  0.558600  0.704500  1
  O  O2287  1  0.922700  0.204500  0.941400  1
  O  O2288  1  0.422700  0.795500  0.058600  1
  O  O2289  1  0.577300  0.058600  0.795500  1
  O  O2290  1  0.077300  0.941400  0.204500  1
  O  O2291  1  0.827300  0.295500  0.441400  1
  O  O2292  1  0.327300  0.704500  0.558600  1
