
#######################################################################
#
#                 Cambridge Crystallographic Data Centre
#                                CCDC 
#
#######################################################################
#
# If this CIF has been generated from an entry in the Cambridge 
# Structural Database, then it will include bibliographic, chemical, 
# crystal, experimental, refinement or atomic coordinate data resulting 
# from the CCDC's data processing and validation procedures.
#
#######################################################################

data_QOTFIP
_chemical_formula_moiety         
'2(C84 H120 N30 Pt6 6+),C10 H12 N5 O7 P1 2-,C9 H11 N2 O9 P1 2-,8(N1 O3 1-),50(H2 O1)'
_chemical_name_systematic        
"bis(\m~3~-2,4,6-tris(4-Pyridyl)-1,3,5-triazine)-tris(\m~2~-pyrazine)-hexakis(1,2-cyclohexanediamine)-hexa-platinum(ii) 5'-adenosine monophosphate 5'-uridine monophosphate clathrate nitrate hydrate"
_chemical_properties_biological  
'Adenosine monophosphate is used in the treatment of vascular disease'
_symmetry_cell_setting           orthorhombic
_symmetry_space_group_name_H-M   'P 21 21 2'
_symmetry_Int_Tables_number      18
_space_group_name_Hall           'P 2 2ab'
loop_
_symmetry_equiv_pos_site_id
_symmetry_equiv_pos_as_xyz
1 x,y,z
2 -x,-y,z
3 1/2-x,1/2+y,-z
4 1/2+x,1/2-y,-z
_cell_length_a                   23.445(3)
_cell_length_b                   26.734(3)
_cell_length_c                   28.033(4)
_cell_angle_alpha                90
_cell_angle_beta                 90
_cell_angle_gamma                90
_cell_volume                     17570.5
_cell_formula_units_Z            2
loop_
_atom_site_label
_atom_site_type_symbol
_atom_site_fract_x
_atom_site_fract_y
_atom_site_fract_z
O2 O -0.435(2) 0.4306(18) 0.3126(17)
O3 O -0.0203(17) 0.3343(14) 0.2476(15)
O4 O 0.4329(17) 0.5935(15) 0.4037(14)
O5 O 0.194(2) 0.4337(19) 0.5935(19)
O6 O 0.515(3) 0.596(3) 0.562(2)
O7 O 0.3224(15) 0.4655(13) 0.4960(12)
O8 O 0.411(2) 0.531(2) 0.4638(19)
O9 O 0.372(4) 0.482(4) 0.618(4)
O10 O 0.2829(17) 0.3756(15) 0.6382(15)
O11 O -0.3878(15) 0.2114(13) 0.2611(14)
N1 N -0.3271(14) 0.3210(12) 0.2565(9)
H1 H -0.3640 0.3182 0.2611
H2 H -0.3058 0.2941 0.2535
N2 N -0.3328(11) 0.4082(12) 0.2583(6)
C1 C -0.3111(14) 0.4542(12) 0.2576(8)
H3 H -0.3371 0.4814 0.2599
N3 N -0.2557(14) 0.4652(11) 0.2538(8)
C2 C -0.2217(9) 0.4243(11) 0.2506(16)
C3 C -0.2429(11) 0.3759(10) 0.2506(9)
C4 C -0.3024(13) 0.3676(11) 0.2540(11)
N4 N -0.1978(13) 0.3429(10) 0.2486(9)
C5 C -0.1509(13) 0.3713(9) 0.2448(14)
H4 H -0.1135 0.3583 0.2405
N5 N -0.1630(10) 0.4209(9) 0.2477(11)
P1 P 0.0442(15) 0.4020(11) 0.1484(11)
O12 O 0.084(4) 0.4476(18) 0.157(2)
O13 O 0.0415(17) 0.3929(14) 0.0936(11)
O14 O 0.0763(18) 0.3567(15) 0.1733(12)
O15 O -0.011(2) 0.418(2) 0.1805(19)
O16 O -0.1075(14) 0.4675(15) 0.1987(9)
C6 C -0.1236(11) 0.4640(10) 0.2479(11)
H5 H -0.1438 0.4951 0.2584
C7 C -0.0678(13) 0.4580(16) 0.2742(10)
H6 H -0.0490 0.4276 0.2607
O17 O -0.0751(16) 0.4486(16) 0.3240(10)
H7 H -0.0886 0.4198 0.3278
C8 C -0.0385(14) 0.5028(16) 0.2513(14)
O18 O -0.066(3) 0.540(2) 0.2798(18)
H8 H -0.0781 0.5271 0.3053
C9 C -0.0580(18) 0.4969(17) 0.1983(12)
C10 C -0.037(2) 0.469(2) 0.1544(17)
H9 H -0.0690 0.4607 0.1324
N6 N -0.2143(10) 0.1572(9) 0.2492(10)
C11 C -0.2238(10) 0.2087(10) 0.2485(5)
O19 O -0.2723(9) 0.2249(10) 0.2499(7)
N7 N -0.1757(9) 0.2354(9) 0.2483(9)
H10 H -0.1797 0.2681 0.2509
C12 C -0.1194(10) 0.2178(12) 0.2445(11)
O20 O -0.0785(9) 0.2469(11) 0.2423(7)
C13 C -0.1131(12) 0.1666(11) 0.2444(11)
H11 H -0.0767 0.1512 0.2426
C14 C -0.1621(13) 0.1390(12) 0.2469(14)
H12 H -0.1582 0.1037 0.2471
O21 O -0.2712(18) 0.0961(14) 0.2812(11)
C15 C -0.261(2) 0.1230(16) 0.2384(15)
H13 H -0.2958 0.1434 0.2311
C16 C -0.248(3) 0.0905(18) 0.1960(13)
H14 H -0.2081 0.0810 0.2034
O22 O -0.2401(19) 0.1146(15) 0.1499(12)
H15 H -0.2151 0.1370 0.1524
C17 C -0.279(2) 0.0437(15) 0.2126(15)
H16 H -0.2630 0.0126 0.1978
O23 O -0.335(2) 0.055(3) 0.196(2)
H17 H -0.3435 0.0360 0.1734
C18 C -0.2699(17) 0.0452(16) 0.2681(15)
H18 H -0.3037 0.0287 0.2831
C19 C -0.221(3) 0.041(3) 0.3032(19)
H19 H -0.2010 0.0735 0.3092
H20 H -0.2306 0.0244 0.3335
P2 P -0.1303(9) -0.0232(8) 0.2611(7)
O24 O -0.1429(19) -0.0614(14) 0.2210(11)
O25 O -0.1274(12) -0.0483(11) 0.3101(8)
O26 O -0.083(2) 0.0099(18) 0.2451(15)
O27 O -0.1917(14) 0.0093(15) 0.2688(16)
N8 N 0.561(2) 0.7151(16) 0.0457(13)
O28 O 0.573(2) 0.6679(15) 0.0521(17)
O29 O 0.563(3) 0.733(2) 0.0028(14)
O30 O 0.567(3) 0.7435(17) 0.0808(15)
N9 N 0.9072(8) 0.6895(9) 0.0097(7)
O31 O 0.9016(10) 0.7163(8) 0.0443(8)
O32 O 0.9145(19) 0.7076(15) -0.0301(9)
O33 O 0.907(2) 0.6426(9) 0.0124(15)
N10 N 0.5438(19) 0.7155(12) 0.4836(11)
O34 O 0.5395(17) 0.7346(13) 0.5249(10)
O35 O 0.5485(11) 0.7392(9) 0.4469(9)
O36 O 0.565(2) 0.6705(11) 0.4810(13)
N11 N 0.1035(14) 0.3006(11) 0.4694(10)
O37 O 0.1027(18) 0.2960(14) 0.4231(10)
O38 O 0.1122(15) 0.3420(11) 0.4868(11)
O39 O 0.0746(15) 0.2695(12) 0.4916(11)
N12 N -0.2307(18) 0.721(2) 0.2819(16)
O40 O -0.2042(19) 0.719(2) 0.2421(16)
O41 O -0.2844(16) 0.7220(18) 0.2799(16)
O42 O -0.207(2) 0.744(2) 0.3170(16)
O43 O -0.400(3) 0.690(3) 0.266(3)
O44 O -0.463(4) 0.652(4) 0.272(4)
O45 O 0.891(2) 0.665(2) 0.3442(19)
O46 O 0.917(5) 0.584(4) 0.410(4)
O47 O -0.437(3) 0.049(2) 0.130(2)
O48 O -0.363(3) 0.715(2) 0.176(2)
O49 O -0.286(3) 0.498(2) -0.022(2)
O50 O -0.355(2) 0.5381(17) 0.0251(16)
O51 O -0.445(4) 0.545(3) 0.306(3)
O52 O 0.6029(18) 0.0450(16) 0.3534(16)
O53 O 0.566(3) -0.014(3) 0.364(2)
O54 O 0.3332(17) 0.1836(16) 0.3497(15)
O55 O 0.6768(10) 0.8219(8) 0.1740(8)
O56 O 0.7984(9) 0.7999(8) 0.1690(7)
O57 O 0.1478(11) 0.2938(10) 0.1327(9)
O58 O 0.6868(11) 1.0544(10) 0.9927(9)
O59 O 0.5885(10) 1.0165(9) 0.9430(8)
O60 O 0.9103(11) 0.9448(10) 0.1288(9)
O61 O -0.3914(17) 0.7014(16) 0.3613(15)
O62 O -0.1481(13) 0.0941(12) 0.1010(11)
O63 O 0.0624(17) 0.9235(14) 0.1631(14)
O64 O -0.385(2) 0.593(2) 0.069(2)
O65 O -0.435(2) -0.0263(19) 0.1967(19)
O66 O 0.0491(18) 0.9197(16) 0.3123(15)
O67 O -0.1755(14) 0.8489(12) 0.2445(13)
O68 O -0.211(3) 0.003(2) 0.093(2)
O69 O -0.4448(16) 0.0636(13) 0.0637(13)
O70 O -0.030(2) 0.948(2) 0.351(2)
O71 O -0.4246(19) 0.5316(17) 0.2069(16)
O72 O 0.5000 0.0000 -0.0013(14)
O73 O 0.0571(13) 0.8876(11) 0.0408(11)
O74 O -0.2248(19) -0.0565(16) 0.1513(16)
O75 O 0.437(4) 0.505(4) 0.096(3)
O76 O 0.362(4) 0.121(4) 0.265(4)
O77 O 0.919(3) 0.562(3) 0.547(3)
O78 O -0.504(4) 0.639(3) 0.177(3)
O79 O 0.982(4) 0.541(3) 0.462(3)
O80 O 0.844(3) 0.551(2) 0.500(2)
Pt1 Pt -0.26476(3) 0.60236(3) 0.13266(2)
Pt2 Pt -0.51181(3) 0.16030(3) 0.14185(3)
Pt3 Pt 0.04310(3) 0.19203(3) 0.11645(2)
Pt4 Pt -0.26065(5) 0.59921(4) 0.37464(3)
Pt5 Pt -0.49858(4) 0.15940(4) 0.38378(3)
Pt6 Pt 0.05725(4) 0.19035(5) 0.35840(3)
N13 N -0.4419(6) 0.2037(5) 0.1397(4)
N14 N -0.0329(5) 0.2271(5) 0.1184(5)
N15 N -0.2585(6) 0.5255(4) 0.1327(4)
N16 N -0.2400(5) 0.2702(4) 0.1354(4)
N17 N -0.1960(5) 0.3491(5) 0.1305(4)
N18 N -0.2956(5) 0.3435(5) 0.1398(4)
C20 C -0.4439(6) 0.2529(6) 0.1411(6)
H21 H -0.4804 0.2682 0.1401
C21 C -0.3970(6) 0.2839(7) 0.1440(6)
H22 H -0.4011 0.3188 0.1491
C22 C -0.3421(6) 0.2615(6) 0.1391(6)
C23 C -0.3415(8) 0.2113(6) 0.1362(7)
H23 H -0.3060 0.1946 0.1328
C24 C -0.3915(7) 0.1828(7) 0.1381(6)
H24 H -0.3888 0.1474 0.1382
C25 C -0.0814(7) 0.2004(7) 0.1248(6)
H25 H -0.0786 0.1650 0.1265
C26 C -0.1343(7) 0.2217(7) 0.1290(6)
H26 H -0.1674 0.2014 0.1316
C27 C -0.1389(6) 0.2732(6) 0.1294(5)
C28 C -0.0887(7) 0.3016(7) 0.1237(6)
H27 H -0.0896 0.3371 0.1234
C29 C -0.0369(7) 0.2752(7) 0.1185(6)
H28 H -0.0028 0.2941 0.1149
C30 C -0.2094(8) 0.5066(6) 0.1255(6)
H29 H -0.1775 0.5273 0.1190
C31 C -0.2033(8) 0.4518(6) 0.1274(6)
H30 H -0.1667 0.4369 0.1249
C32 C -0.2531(7) 0.4212(6) 0.1331(4)
C33 C -0.3044(8) 0.4463(6) 0.1416(6)
H31 H -0.3388 0.4286 0.1475
C34 C -0.3029(8) 0.4967(7) 0.1409(6)
H32 H -0.3379 0.5133 0.1471
C35 C -0.2915(5) 0.2917(5) 0.1386(5)
C36 C -0.1947(6) 0.2975(6) 0.1313(5)
C37 C -0.2489(7) 0.3695(6) 0.1345(5)
N19 N -0.4248(8) 0.2013(8) 0.3797(6)
N20 N -0.2538(8) 0.5224(7) 0.3726(5)
N21 N -0.0175(7) 0.2261(9) 0.3583(6)
N22 N -0.2843(6) 0.3398(7) 0.3692(5)
N23 N -0.1828(6) 0.3453(7) 0.3647(5)
N24 N -0.2270(6) 0.2684(6) 0.3636(4)
C38 C -0.3769(9) 0.1790(9) 0.3743(7)
H33 H -0.3763 0.1435 0.3732
C39 C -0.3213(9) 0.2069(8) 0.3697(7)
H34 H -0.2852 0.1912 0.3662
C40 C -0.3292(8) 0.2586(8) 0.3711(7)
C41 C -0.3816(8) 0.2802(9) 0.3774(7)
H35 H -0.3845 0.3155 0.3800
C42 C -0.4293(9) 0.2517(9) 0.3798(7)
H36 H -0.4658 0.2671 0.3815
C43 C -0.2954(11) 0.4924(9) 0.3758(7)
H37 H -0.3317 0.5071 0.3812
C44 C -0.2945(11) 0.4443(9) 0.3728(8)
H38 H -0.3280 0.4243 0.3732
C45 C -0.2401(9) 0.4242(8) 0.3688(5)
C46 C -0.1951(10) 0.4551(9) 0.3639(7)
H39 H -0.1583 0.4416 0.3581
C47 C -0.2018(11) 0.5024(10) 0.3671(7)
H40 H -0.1694 0.5237 0.3656
C48 C -0.0257(10) 0.2749(11) 0.3583(8)
H41 H 0.0069 0.2961 0.3564
C49 C -0.0761(9) 0.2960(9) 0.3607(8)
H42 H -0.0769 0.3315 0.3628
C50 C -0.1259(8) 0.2729(8) 0.3605(6)
C51 C -0.1209(9) 0.2209(9) 0.3600(7)
H43 H -0.1545 0.2011 0.3609
C52 C -0.0675(8) 0.1971(10) 0.3582(6)
H44 H -0.0652 0.1617 0.3570
C53 C -0.2761(9) 0.2886(9) 0.3657(7)
C54 C -0.2353(9) 0.3670(8) 0.3668(6)
C55 C -0.1806(8) 0.2979(8) 0.3620(6)
N25 N -0.2589(7) 0.6011(6) 0.3023(4)
C56 C -0.2176(9) 0.6014(10) 0.2771(6)
H45 H -0.1818 0.6020 0.2931
C57 C -0.2154(9) 0.6009(10) 0.2295(6)
H46 H -0.1798 0.5990 0.2134
N26 N -0.2646(6) 0.6031(4) 0.2048(4)
C58 C -0.3107(9) 0.6052(9) 0.2300(7)
H47 H -0.3469 0.6077 0.2149
C59 C -0.3067(9) 0.6035(10) 0.2807(6)
H48 H -0.3408 0.6043 0.2990
N27 N 0.0577(7) 0.1916(8) 0.2866(5)
C60 C 0.0449(11) 0.1505(11) 0.2638(7)
H49 H 0.0390 0.1203 0.2809
C61 C 0.0396(9) 0.1509(9) 0.2121(6)
H50 H 0.0278 0.1215 0.1958
N28 N 0.0510(6) 0.1918(7) 0.1879(4)
C62 C 0.0667(11) 0.2282(10) 0.2120(7)
H51 H 0.0779 0.2576 0.1954
C63 C 0.0689(11) 0.2292(11) 0.2616(8)
H52 H 0.0795 0.2594 0.2771
N29 N -0.5050(6) 0.1599(8) 0.3118(6)
C64 C -0.5323(11) 0.1949(12) 0.2913(8)
H53 H -0.5517 0.2202 0.3087
C65 C -0.5319(11) 0.1936(12) 0.2397(9)
H54 H -0.5495 0.2208 0.2236
N30 N -0.5098(6) 0.1590(6) 0.2135(5)
C66 C -0.4853(10) 0.1234(9) 0.2362(7)
H55 H -0.4664 0.0973 0.2194
C67 C -0.4869(13) 0.1236(9) 0.2886(8)
H56 H -0.4736 0.0949 0.3053
N31 N -0.2669(7) 0.6038(5) 0.0602(4)
H57 H -0.2409 0.5813 0.0482
H58 H -0.3026 0.5946 0.0497
N32 N -0.2693(8) 0.6773(5) 0.1261(5)
H59 H -0.2954 0.6900 0.1474
H60 H -0.2343 0.6914 0.1325
C68 C -0.2537(9) 0.6530(6) 0.0433(5)
H61 H -0.2118 0.6588 0.0470
C69 C -0.2866(8) 0.6891(7) 0.0777(6)
H62 H -0.3282 0.6817 0.0747
C70 C -0.2779(10) 0.7452(7) 0.0670(8)
H63 H -0.2376 0.7543 0.0732
H64 H -0.3021 0.7652 0.0887
C71 C -0.2938(9) 0.7585(9) 0.0126(9)
H65 H -0.2840 0.7937 0.0053
H66 H -0.3350 0.7535 0.0067
C72 C -0.2555(12) 0.7199(9) -0.0206(8)
H67 H -0.2145 0.7264 -0.0148
H68 H -0.2633 0.7267 -0.0547
C73 C -0.2694(10) 0.6587(8) -0.0091(6)
H69 H -0.3102 0.6510 -0.0145
H70 H -0.2458 0.6366 -0.0294
N33 N -0.5170(6) 0.1584(5) 0.0710(4)
H71 H -0.5103 0.1897 0.0585
H72 H -0.4904 0.1367 0.0587
N34 N -0.5827(6) 0.1183(6) 0.1379(6)
H73 H -0.5796 0.0915 0.1583
H74 H -0.6138 0.1370 0.1470
C74 C -0.5756(8) 0.1414(8) 0.0583(7)
H75 H -0.6026 0.1696 0.0645
C75 C -0.5907(7) 0.1005(8) 0.0892(7)
H76 H -0.5645 0.0717 0.0831
C76 C -0.6550(8) 0.0828(9) 0.0821(8)
H77 H -0.6644 0.0553 0.1043
H78 H -0.6817 0.1109 0.0879
C77 C -0.6589(10) 0.0651(10) 0.0305(9)
H79 H -0.6979 0.0529 0.0238
H80 H -0.6320 0.0370 0.0254
C78 C -0.6439(11) 0.1092(12) -0.0045(9)
H81 H -0.6701 0.1375 0.0014
H82 H -0.6497 0.0979 -0.0378
C79 C -0.5780(10) 0.1283(10) 0.0018(8)
H83 H -0.5702 0.1582 -0.0179
H84 H -0.5504 0.1016 -0.0065
N35 N 0.0369(6) 0.1876(6) 0.0460(4)
H85 H 0.0001 0.1796 0.0376
H86 H 0.0456 0.2181 0.0326
N36 N 0.1192(6) 0.1558(8) 0.1052(5)
H87 H 0.1472 0.1691 0.1244
H88 H 0.1156 0.1223 0.1122
C80 C 0.0762(7) 0.1494(9) 0.0277(6)
H89 H 0.0628 0.1152 0.0367
C81 C 0.1343(7) 0.1625(9) 0.0540(5)
H90 H 0.1461 0.1978 0.0474
C82 C 0.1803(8) 0.1272(10) 0.0418(6)
H91 H 0.1716 0.0936 0.0547
H92 H 0.2169 0.1387 0.0556
C83 C 0.1850(9) 0.1248(10) -0.0171(6)
H93 H 0.2018 0.1566 -0.0285
H94 H 0.2116 0.0976 -0.0258
C84 C 0.1344(8) 0.1172(10) -0.0408(7)
H95 H 0.1220 0.0822 -0.0358
H96 H 0.1408 0.1219 -0.0755
C85 C 0.0863(8) 0.1527(8) -0.0245(6)
H97 H 0.0965 0.1875 -0.0329
H98 H 0.0507 0.1441 -0.0416
N37 N -0.2623(11) 0.5962(8) 0.4497(5)
H99 H -0.2858 0.5710 0.4602
H100 H -0.2263 0.5914 0.4619
N38 N -0.2753(11) 0.6741(7) 0.3812(6)
H101 H -0.2516 0.6912 0.3606
H102 H -0.3124 0.6809 0.3726
C86 C -0.2846(15) 0.6451(12) 0.4629(8)
H103 H -0.3271 0.6430 0.4607
C87 C -0.2651(15) 0.6922(11) 0.4315(9)
H104 H -0.2226 0.6932 0.4348
C88 C -0.2826(16) 0.7370(12) 0.4458(11)
H105 H -0.3239 0.7397 0.4390
H106 H -0.2630 0.7626 0.4261
C89 C -0.2731(19) 0.7501(15) 0.4983(12)
H107 H -0.2952 0.7803 0.5067
H108 H -0.2322 0.7571 0.5040
C90 C -0.2934(16) 0.7035(12) 0.5310(11)
H109 H -0.2816 0.7099 0.5644
H110 H -0.3356 0.7018 0.5305
C91 C -0.2697(16) 0.6528(12) 0.5156(8)
H111 H -0.2867 0.6258 0.5351
H112 H -0.2278 0.6521 0.5199
N39 N -0.4935(8) 0.1605(9) 0.4569(5)
H113 H -0.4573 0.1519 0.4667
H114 H -0.5016 0.1920 0.4683
N40 N -0.5727(6) 0.1220(9) 0.3918(6)
H115 H -0.6006 0.1355 0.3727
H116 H -0.5682 0.0888 0.3840
C92 C -0.5371(9) 0.1226(9) 0.4756(7)
H117 H -0.5213 0.0884 0.4695
C93 C -0.5889(9) 0.1278(9) 0.4466(7)
H118 H -0.6065 0.1614 0.4522
C94 C -0.6320(10) 0.0864(9) 0.4593(7)
H119 H -0.6154 0.0531 0.4526
H120 H -0.6671 0.0902 0.4400
C95 C -0.6462(11) 0.091(2) 0.5128(9)
H121 H -0.6721 0.0638 0.5226
H122 H -0.6655 0.1234 0.5190
C96 C -0.5874(12) 0.0881(12) 0.5430(8)
H123 H -0.5963 0.0917 0.5774
H124 H -0.5701 0.0547 0.5383
C97 C -0.5437(11) 0.1283(11) 0.5289(7)
H125 H -0.5578 0.1621 0.5371
H126 H -0.5068 0.1226 0.5453
N41 N 0.0535(18) 0.207(2) 0.4319(15)
H127 H 0.0477 0.2403 0.4374
H128 H 0.0257 0.1885 0.4472
N42 N 0.131(2) 0.168(2) 0.3609(15)
H129 H 0.1378 0.1433 0.3386
H130 H 0.1568 0.1933 0.3578
C98 C 0.112(2) 0.1908(18) 0.4459(13)
H131 H 0.1394 0.2191 0.4429
C99 C 0.1286(19) 0.147(2) 0.4122(12)
H132 H 0.0967 0.1220 0.4132
C100 C 0.184(2) 0.118(2) 0.4247(14)
H133 H 0.2168 0.1412 0.4221
H134 H 0.1895 0.0908 0.4014
C101 C 0.182(3) 0.095(2) 0.4782(15)
H135 H 0.2179 0.0781 0.4868
H136 H 0.1497 0.0712 0.4821
C102 C 0.172(2) 0.147(2) 0.5099(14)
H137 H 0.2025 0.1713 0.5025
H138 H 0.1739 0.1391 0.5443
C103 C 0.107(2) 0.173(2) 0.4976(12)
H139 H 0.0764 0.1487 0.5014
H140 H 0.1000 0.2021 0.5190
H141 H 0.1156 0.0964 0.4119
O1 O -0.127(2) 0.308(2) 0.237(2)
N43? N 0.0651(15) 0.1760(14) 0.4322(10)
H142? H 0.0547 0.2043 0.4486
H143? H 0.0398 0.1511 0.4403
N44? N 0.134(2) 0.1412(18) 0.3614(10)
H144? H 0.1289 0.1140 0.3417
H145? H 0.1655 0.1586 0.3508
C104? C 0.1212(17) 0.1613(17) 0.4476(11)
H146? H 0.1467 0.1912 0.4497
C105? C 0.1437(19) 0.1244(18) 0.4093(10)
C106? C 0.2006(19) 0.097(2) 0.4193(13)
H147? H 0.2316 0.1218 0.4226
H148? H 0.2099 0.0750 0.3919
C107? C 0.197(2) 0.0633(19) 0.4676(15)
H149? H 0.2342 0.0477 0.4754
H150? H 0.1674 0.0371 0.4653
C108? C 0.180(2) 0.107(2) 0.5067(14)
H151? H 0.2100 0.1332 0.5068
H152? H 0.1784 0.0923 0.5389
C109? C 0.116(2) 0.136(2) 0.4964(12)
H153? H 0.0850 0.1113 0.4963
H154? H 0.1085 0.1612 0.5214
N45? N -0.363(3) 0.301(3) 0.260(5)
O81? O -0.412(4) 0.279(4) 0.264(5)
O82? O -0.320(4) 0.274(3) 0.252(5)
O83? O -0.361(4) 0.348(3) 0.254(4)
O84? O -0.223(4) 0.419(4) 0.251(5)
O85? O -0.237(2) 0.4874(19) 0.250(2)
O86? O -0.240(2) 0.315(2) 0.249(2)
O87? O -0.306(4) 0.144(3) 0.263(3)
O88? O 0.909(2) 0.655(2) -0.016(2)
O89? O -0.214(4) 0.165(4) 0.304(4)
O90? O 0.413(3) 0.494(3) 0.458(2)
O91? O -0.450(2) 0.3058(17) 0.2597(17)
H155? H 0.0039 0.5026 0.2553
H156? H -0.0697 0.5309 0.1871
H157? H -0.0074 0.4875 0.1371
N46? N 0.5535(17) 0.7244(16) 0.0309(15)
O92? O 0.5637(15) 0.6833(14) 0.0105(13)
O93? O 0.5332(15) 0.7539(14) 0.0137(12)
O94? O 0.5678(18) 0.7248(17) 0.0840(12)
O95? O -0.484(3) 0.665(2) 0.325(2)
O96? O -0.463(3) 0.676(3) 0.219(3)
O97? O -0.350(3) 0.728(3) 0.270(3)
O98? O 0.897(2) 0.622(2) 0.375(2)
O99? O -0.490(4) 0.021(2) 0.150(3)
O100? O -0.402(2) 0.0591(16) 0.1305(17)
O101? O -0.3375(15) 0.7216(12) 0.2050(13)
O102? O -0.386(5) 0.697(4) 0.186(4)
O103? O -0.307(3) 0.506(2) 0.011(2)
O104? O -0.486(6) 0.567(4) 0.276(4)
O105? O 0.331(3) 0.140(2) 0.334(2)
O106? O -0.556(3) 0.604(3) 0.167(2)
O107? O 1.023(3) 0.503(3) 0.737(2)
loop_
_geom_bond_atom_site_label_1
_geom_bond_atom_site_label_2
_geom_bond_site_symmetry_1
_geom_bond_site_symmetry_2
N1 H1 1_555 1_555
H2 N1 1_555 1_555
N2 C1 1_555 1_555
C1 H3 1_555 1_555
N3 C1 1_555 1_555
C2 N3 1_555 1_555
C3 C2 1_555 1_555
C4 N1 1_555 1_555
N4 C3 1_555 1_555
C5 N4 1_555 1_555
H4 C5 1_555 1_555
N5 C2 1_555 1_555
P1 O12 1_555 1_555
O13 P1 1_555 1_555
O14 P1 1_555 1_555
O15 P1 1_555 1_555
O16 C6 1_555 1_555
C6 N5 1_555 1_555
H5 C6 1_555 1_555
C7 C6 1_555 1_555
H6 C7 1_555 1_555
O17 C7 1_555 1_555
H7 O17 1_555 1_555
C8 C7 1_555 1_555
O18 C8 1_555 1_555
H8 O18 1_555 1_555
C9 O16 1_555 1_555
C10 O15 1_555 1_555
H9 C10 1_555 1_555
N6 C11 1_555 1_555
C11 O19 1_555 1_555
N7 C11 1_555 1_555
H10 N7 1_555 1_555
C12 N7 1_555 1_555
O20 C12 1_555 1_555
C13 C12 1_555 1_555
H11 C13 1_555 1_555
C14 N6 1_555 1_555
H12 C14 1_555 1_555
O21 C15 1_555 1_555
C15 N6 1_555 1_555
H13 C15 1_555 1_555
C16 C15 1_555 1_555
H14 C16 1_555 1_555
O22 C16 1_555 1_555
H15 O22 1_555 1_555
C17 C16 1_555 1_555
H16 C17 1_555 1_555
O23 C17 1_555 1_555
H17 O23 1_555 1_555
C18 O21 1_555 1_555
H18 C18 1_555 1_555
C19 C18 1_555 1_555
H19 C19 1_555 1_555
H20 C19 1_555 1_555
P2 O24 1_555 1_555
O25 P2 1_555 1_555
O26 P2 1_555 1_555
O27 C19 1_555 1_555
N8 O28 1_555 1_555
O29 N8 1_555 1_555
O30 N8 1_555 1_555
N9 O31 1_555 1_555
O32 N9 1_555 1_555
O33 N9 1_555 1_555
N10 O34 1_555 1_555
O35 N10 1_555 1_555
O36 N10 1_555 1_555
N11 O37 1_555 1_555
O38 N11 1_555 1_555
O39 N11 1_555 1_555
N12 O40 1_555 1_555
O41 N12 1_555 1_555
O42 N12 1_555 1_555
Pt1 N15 1_555 1_555
Pt2 N13 1_555 1_555
Pt3 N14 1_555 1_555
Pt4 N20 1_555 1_555
Pt5 N19 1_555 1_555
Pt6 N21 1_555 1_555
N13 C20 1_555 1_555
N14 C25 1_555 1_555
N15 C30 1_555 1_555
N16 C35 1_555 1_555
N17 C36 1_555 1_555
N18 C35 1_555 1_555
C20 H21 1_555 1_555
C21 C20 1_555 1_555
H22 C21 1_555 1_555
C22 C21 1_555 1_555
C23 C22 1_555 1_555
H23 C23 1_555 1_555
C24 N13 1_555 1_555
H24 C24 1_555 1_555
C25 H25 1_555 1_555
C26 C25 1_555 1_555
H26 C26 1_555 1_555
C27 C26 1_555 1_555
C28 C27 1_555 1_555
H27 C28 1_555 1_555
C29 N14 1_555 1_555
H28 C29 1_555 1_555
C30 H29 1_555 1_555
C31 C30 1_555 1_555
H30 C31 1_555 1_555
C32 C31 1_555 1_555
C33 C32 1_555 1_555
H31 C33 1_555 1_555
C34 N15 1_555 1_555
H32 C34 1_555 1_555
C35 C22 1_555 1_555
C36 N16 1_555 1_555
C37 N17 1_555 1_555
N19 C38 1_555 1_555
N20 C43 1_555 1_555
N21 C48 1_555 1_555
N22 C53 1_555 1_555
N23 C54 1_555 1_555
N24 C53 1_555 1_555
C38 H33 1_555 1_555
C39 C38 1_555 1_555
H34 C39 1_555 1_555
C40 C39 1_555 1_555
C41 C40 1_555 1_555
H35 C41 1_555 1_555
C42 N19 1_555 1_555
H36 C42 1_555 1_555
C43 H37 1_555 1_555
C44 C43 1_555 1_555
H38 C44 1_555 1_555
C45 C44 1_555 1_555
C46 C45 1_555 1_555
H39 C46 1_555 1_555
C47 N20 1_555 1_555
H40 C47 1_555 1_555
C48 H41 1_555 1_555
C49 C48 1_555 1_555
H42 C49 1_555 1_555
C50 C49 1_555 1_555
C51 C50 1_555 1_555
H43 C51 1_555 1_555
C52 N21 1_555 1_555
H44 C52 1_555 1_555
C53 C40 1_555 1_555
C54 N22 1_555 1_555
C55 N23 1_555 1_555
N25 Pt4 1_555 1_555
C56 N25 1_555 1_555
H45 C56 1_555 1_555
C57 C56 1_555 1_555
H46 C57 1_555 1_555
N26 Pt1 1_555 1_555
C58 N26 1_555 1_555
H47 C58 1_555 1_555
C59 N25 1_555 1_555
H48 C59 1_555 1_555
N27 Pt6 1_555 1_555
C60 N27 1_555 1_555
H49 C60 1_555 1_555
C61 C60 1_555 1_555
H50 C61 1_555 1_555
N28 Pt3 1_555 1_555
C62 N28 1_555 1_555
H51 C62 1_555 1_555
C63 N27 1_555 1_555
H52 C63 1_555 1_555
N29 Pt5 1_555 1_555
C64 N29 1_555 1_555
H53 C64 1_555 1_555
C65 C64 1_555 1_555
H54 C65 1_555 1_555
N30 Pt2 1_555 1_555
C66 N30 1_555 1_555
H55 C66 1_555 1_555
C67 N29 1_555 1_555
H56 C67 1_555 1_555
N31 Pt1 1_555 1_555
H57 N31 1_555 1_555
H58 N31 1_555 1_555
N32 Pt1 1_555 1_555
H59 N32 1_555 1_555
H60 N32 1_555 1_555
C68 N31 1_555 1_555
H61 C68 1_555 1_555
C69 N32 1_555 1_555
H62 C69 1_555 1_555
C70 C69 1_555 1_555
H63 C70 1_555 1_555
H64 C70 1_555 1_555
C71 C70 1_555 1_555
H65 C71 1_555 1_555
H66 C71 1_555 1_555
C72 C71 1_555 1_555
H67 C72 1_555 1_555
H68 C72 1_555 1_555
C73 C68 1_555 1_555
H69 C73 1_555 1_555
H70 C73 1_555 1_555
N33 Pt2 1_555 1_555
H71 N33 1_555 1_555
H72 N33 1_555 1_555
N34 Pt2 1_555 1_555
H73 N34 1_555 1_555
H74 N34 1_555 1_555
C74 N33 1_555 1_555
H75 C74 1_555 1_555
C75 N34 1_555 1_555
H76 C75 1_555 1_555
C76 C75 1_555 1_555
H77 C76 1_555 1_555
H78 C76 1_555 1_555
C77 C76 1_555 1_555
H79 C77 1_555 1_555
H80 C77 1_555 1_555
C78 C77 1_555 1_555
H81 C78 1_555 1_555
H82 C78 1_555 1_555
C79 C74 1_555 1_555
H83 C79 1_555 1_555
H84 C79 1_555 1_555
N35 Pt3 1_555 1_555
H85 N35 1_555 1_555
H86 N35 1_555 1_555
N36 Pt3 1_555 1_555
H87 N36 1_555 1_555
H88 N36 1_555 1_555
C80 N35 1_555 1_555
H89 C80 1_555 1_555
C81 N36 1_555 1_555
H90 C81 1_555 1_555
C82 C81 1_555 1_555
H91 C82 1_555 1_555
H92 C82 1_555 1_555
C83 C82 1_555 1_555
H93 C83 1_555 1_555
H94 C83 1_555 1_555
C84 C83 1_555 1_555
H95 C84 1_555 1_555
H96 C84 1_555 1_555
C85 C80 1_555 1_555
H97 C85 1_555 1_555
H98 C85 1_555 1_555
N37 Pt4 1_555 1_555
H99 N37 1_555 1_555
H100 N37 1_555 1_555
N38 Pt4 1_555 1_555
H101 N38 1_555 1_555
H102 N38 1_555 1_555
C86 N37 1_555 1_555
H103 C86 1_555 1_555
C87 N38 1_555 1_555
H104 C87 1_555 1_555
C88 C87 1_555 1_555
H105 C88 1_555 1_555
H106 C88 1_555 1_555
C89 C88 1_555 1_555
H107 C89 1_555 1_555
H108 C89 1_555 1_555
C90 C89 1_555 1_555
H109 C90 1_555 1_555
H110 C90 1_555 1_555
C91 C86 1_555 1_555
H111 C91 1_555 1_555
H112 C91 1_555 1_555
N39 Pt5 1_555 1_555
H113 N39 1_555 1_555
H114 N39 1_555 1_555
N40 Pt5 1_555 1_555
H115 N40 1_555 1_555
H116 N40 1_555 1_555
C92 N39 1_555 1_555
H117 C92 1_555 1_555
C93 N40 1_555 1_555
H118 C93 1_555 1_555
C94 C93 1_555 1_555
H119 C94 1_555 1_555
H120 C94 1_555 1_555
C95 C94 1_555 1_555
H121 C95 1_555 1_555
H122 C95 1_555 1_555
C96 C95 1_555 1_555
H123 C96 1_555 1_555
H124 C96 1_555 1_555
C97 C92 1_555 1_555
H125 C97 1_555 1_555
H126 C97 1_555 1_555
N41 Pt6 1_555 1_555
H127 N41 1_555 1_555
H128 N41 1_555 1_555
N42 Pt6 1_555 1_555
H129 N42 1_555 1_555
H130 N42 1_555 1_555
C98 N41 1_555 1_555
H131 C98 1_555 1_555
C99 N42 1_555 1_555
H132 C99 1_555 1_555
C100 C99 1_555 1_555
H133 C100 1_555 1_555
H134 C100 1_555 1_555
C101 C100 1_555 1_555
H135 C101 1_555 1_555
H136 C101 1_555 1_555
C102 C101 1_555 1_555
H137 C102 1_555 1_555
H138 C102 1_555 1_555
C103 C98 1_555 1_555
H139 C103 1_555 1_555
H140 C103 1_555 1_555
H141 H132 1_555 1_555
N2 C4 1_555 1_555
C3 C4 1_555 1_555
C5 N5 1_555 1_555
C8 C9 1_555 1_555
C9 C10 1_555 1_555
C13 C14 1_555 1_555
C17 C18 1_555 1_555
P2 O27 1_555 1_555
N18 C37 1_555 1_555
C23 C24 1_555 1_555
C27 C36 1_555 1_555
C28 C29 1_555 1_555
C32 C37 1_555 1_555
C33 C34 1_555 1_555
N24 C55 1_555 1_555
C41 C42 1_555 1_555
C45 C54 1_555 1_555
C46 C47 1_555 1_555
C50 C55 1_555 1_555
C51 C52 1_555 1_555
C57 N26 1_555 1_555
C58 C59 1_555 1_555
C61 N28 1_555 1_555
C62 C63 1_555 1_555
C65 N30 1_555 1_555
C66 C67 1_555 1_555
C68 C69 1_555 1_555
C72 C73 1_555 1_555
C74 C75 1_555 1_555
C78 C79 1_555 1_555
C80 C81 1_555 1_555
C84 C85 1_555 1_555
C86 C87 1_555 1_555
C90 C91 1_555 1_555
C92 C93 1_555 1_555
C96 C97 1_555 1_555
C98 C99 1_555 1_555
C102 C103 1_555 1_555

#END
