
#######################################################################
#
#                 Cambridge Crystallographic Data Centre
#                                CCDC 
#
#######################################################################
#
# If this CIF has been generated from an entry in the Cambridge 
# Structural Database, then it will include bibliographic, chemical, 
# crystal, experimental, refinement or atomic coordinate data resulting 
# from the CCDC's data processing and validation procedures.
#
#######################################################################

data_QOTFEL
_chemical_formula_moiety         
'C78 H96 N30 Pt6 12+,2(C18 H12),12(N1 O3 1-),33(H2 O1)'
_chemical_name_systematic        
"bis(\m~3~-2,4,6-tris(4-Pyridyl)-1,3,5-triazine)-tris(\m~2~-4,4'-bipyridine)-hexakis(1,2-ethylenediamine)-hexa-platinum(ii) bis(pyrene) clathrate dodecanitrate hydrate"
_symmetry_cell_setting           rhombohedral
_symmetry_space_group_name_H-M   'R 3 c'
_symmetry_Int_Tables_number      161
_space_group_name_Hall           'R 3 -2"c'
loop_
_symmetry_equiv_pos_site_id
_symmetry_equiv_pos_as_xyz
1 x,y,z
2 -y,x-y,z
3 -x+y,-x,z
4 -y,-x,1/2+z
5 -x+y,y,1/2+z
6 x,x-y,1/2+z
7 2/3+x,1/3+y,1/3+z
8 2/3-y,1/3+x-y,1/3+z
9 2/3-x+y,1/3-x,1/3+z
10 2/3-y,1/3-x,5/6+z
11 2/3-x+y,1/3+y,5/6+z
12 2/3+x,1/3+x-y,5/6+z
13 1/3+x,2/3+y,2/3+z
14 1/3-y,2/3+x-y,2/3+z
15 1/3-x+y,2/3-x,2/3+z
16 1/3-y,2/3-x,1/6+z
17 1/3-x+y,2/3+y,1/6+z
18 1/3+x,2/3+x-y,1/6+z
_cell_length_a                   32.247(4)
_cell_length_b                   32.247(4)
_cell_length_c                   27.798(7)
_cell_angle_alpha                90
_cell_angle_beta                 90
_cell_angle_gamma                120
_cell_volume                     25033.6
_exptl_crystal_colour            'pale yellow'
_exptl_crystal_description       plate
_cell_formula_units_Z            6
loop_
_atom_site_label
_atom_site_type_symbol
_atom_site_fract_x
_atom_site_fract_y
_atom_site_fract_z
Pt1 Pt 0.261917(9) 0.073557(10) 0.398766(10)
Pt2 Pt 0.224554(11) -0.018798(11) 0.786545(10)
N1 N 0.1927(2) 0.0555(2) 0.4051(2)
N2 N 0.0337(2) 0.0474(2) 0.41478(19)
N3 N 0.2626(2) 0.0624(2) 0.4706(2)
N4 N 0.2634(2) 0.0854(3) 0.3264(2)
H1 H 0.2358 0.0616 0.3125
H2 H 0.2649 0.1142 0.3209
N5 N 0.3303(3) 0.0880(3) 0.3885(3)
H3 H 0.3499 0.1081 0.4122
H4 H 0.3316 0.0601 0.3895
N6 N 0.2311(2) 0.0011(3) 0.7167(2)
N7 N 0.2827(3) -0.0272(4) 0.7819(3)
H5 H 0.2786 -0.0479 0.7572
H6 H 0.3095 0.0018 0.7755
N8 N 0.2233(3) -0.0383(3) 0.8564(3)
H7 H 0.2154 -0.0204 0.8761
H8 H 0.2007 -0.0701 0.8603
N9 N 0.1652(2) -0.0134(2) 0.7926(2)
N10 N 0.0445(2) 0.0409(2) 0.7940(2)
C1 C 0.1791(3) 0.0885(3) 0.4083(3)
H9 H 0.2028 0.1214 0.4085
C2 C 0.1314(3) 0.0756(3) 0.4115(3)
H10 H 0.1225 0.0996 0.4128
C3 C 0.0967(2) 0.0277(2) 0.4128(2)
C4 C 0.1111(3) -0.0057(3) 0.4104(3)
H11 H 0.0879 -0.0389 0.4111
C5 C 0.1587(3) 0.0084(3) 0.4071(3)
H12 H 0.1682 -0.0151 0.4063
C6 C 0.0447(2) 0.0129(2) 0.4148(2)
C7 C 0.2651(3) 0.0938(3) 0.5031(3)
H13 H 0.2717 0.1244 0.4923
C8 C 0.2587(3) 0.0841(3) 0.5519(3)
H14 H 0.2597 0.1073 0.5737
C9 C 0.2509(3) 0.0407(3) 0.5683(3)
C10 C 0.2495(3) 0.0079(3) 0.5338(3)
H15 H 0.2446 -0.0225 0.5437
C11 C 0.2552(3) 0.0198(3) 0.4870(3)
H16 H 0.2540 -0.0029 0.4644
C12 C 0.3050(3) 0.0859(4) 0.3047(3)
H17 H 0.3130 0.1031 0.2736
H18 H 0.2982 0.0528 0.2990
C13 C 0.3464(3) 0.1114(4) 0.3401(4)
H19 H 0.3744 0.1092 0.3289
H20 H 0.3559 0.1457 0.3423
C14 C 0.2583(3) 0.0470(3) 0.7040(3)
H21 H 0.2734 0.0704 0.7285
C15 C 0.2654(3) 0.0616(3) 0.6561(3)
H22 H 0.2853 0.0944 0.6481
C16 C 0.2425(3) 0.0269(3) 0.6197(3)
C17 C 0.2130(4) -0.0208(3) 0.6348(3)
H23 H 0.1964 -0.0453 0.6116
C18 C 0.2082(3) -0.0319(3) 0.6825(3)
H24 H 0.1879 -0.0643 0.6919
C19 C 0.2891(4) -0.0470(4) 0.8287(4)
H25 H 0.2711 -0.0824 0.8276
H26 H 0.3234 -0.0364 0.8335
C20 C 0.2716(4) -0.0303(4) 0.8693(4)
H27 H 0.2938 0.0041 0.8753
H28 H 0.2696 -0.0483 0.8988
C21 C 0.1220(3) -0.0526(3) 0.7951(3)
H29 H 0.1199 -0.0830 0.7965
C22 C 0.1676(3) 0.0299(3) 0.7901(3)
H30 H 0.1982 0.0579 0.7876
C23 C 0.1277(3) 0.0348(3) 0.7910(3)
H31 H 0.1305 0.0656 0.7901
C24 C 0.0827(3) -0.0066(3) 0.7932(2)
C25 C 0.0389(3) -0.0027(3) 0.7936(2)
C26 C 0.0801(3) -0.0504(3) 0.7958(3)
H32 H 0.0499 -0.0789 0.7982
Pt1A Pt -0.073557(10) 0.188360(13) 0.398766(10)
Pt1B Pt -0.188360(13) -0.261917(9) 0.398766(10)
Pt2A Pt 0.018798(11) 0.243352(16) 0.786545(10)
Pt2B Pt -0.243352(16) -0.224554(11) 0.786545(10)
N1A N -0.0555(2) 0.1372(3) 0.4051(2)
N1B N -0.1372(3) -0.1927(2) 0.4051(2)
N2A N -0.0474(2) -0.0137(3) 0.41478(19)
N2B N 0.0137(3) -0.0337(2) 0.41478(19)
N3A N -0.0624(2) 0.2002(3) 0.4706(2)
N3B N -0.2002(3) -0.2626(2) 0.4706(2)
N4A N -0.0854(3) 0.1780(4) 0.3264(2)
N4B N -0.1780(4) -0.2634(2) 0.3264(2)
H1A H -0.0616 0.1742 0.3125
H1B H -0.1742 -0.2358 0.3125
H2A H -0.1142 0.1507 0.3209
H2B H -0.1507 -0.2649 0.3209
N5A N -0.0880(3) 0.2423(4) 0.3885(3)
N5B N -0.2423(4) -0.3303(3) 0.3885(3)
H3A H -0.1081 0.2418 0.4122
H3B H -0.2418 -0.3499 0.4122
H4A H -0.0601 0.2715 0.3895
H4B H -0.2715 -0.3316 0.3895
N6A N -0.0011(3) 0.2300(4) 0.7167(2)
N6B N -0.2300(4) -0.2311(2) 0.7167(2)
N7A N 0.0272(4) 0.3099(5) 0.7819(3)
N7B N -0.3099(5) -0.2827(3) 0.7819(3)
H5A H 0.0479 0.3265 0.7572
H5B H -0.3265 -0.2786 0.7572
H6A H -0.0018 0.3077 0.7755
H6B H -0.3077 -0.3095 0.7755
N8A N 0.0383(3) 0.2616(4) 0.8564(3)
N8B N -0.2616(4) -0.2233(3) 0.8564(3)
H7A H 0.0204 0.2358 0.8761
H7B H -0.2358 -0.2154 0.8761
H8A H 0.0701 0.2708 0.8603
H8B H -0.2708 -0.2007 0.8603
N9A N 0.0134(2) 0.1786(3) 0.7926(2)
N9B N -0.1786(3) -0.1652(2) 0.7926(2)
N10A N -0.0409(2) 0.0036(3) 0.7940(2)
N10B N -0.0036(3) -0.0445(2) 0.7940(2)
C1A C -0.0885(3) 0.0906(4) 0.4083(3)
C1B C -0.0906(4) -0.1791(3) 0.4083(3)
H9A H -0.1214 0.0814 0.4085
H9B H -0.0814 -0.2028 0.4085
C2A C -0.0756(3) 0.0558(4) 0.4115(3)
C2B C -0.0558(4) -0.1314(3) 0.4115(3)
H10A H -0.0996 0.0229 0.4128
H10B H -0.0229 -0.1225 0.4128
C3A C -0.0277(2) 0.0690(3) 0.4128(2)
C3B C -0.0690(3) -0.0967(2) 0.4128(2)
C4A C 0.0057(3) 0.1168(4) 0.4104(3)
C4B C -0.1168(4) -0.1111(3) 0.4104(3)
H11A H 0.0389 0.1268 0.4111
H11B H -0.1268 -0.0879 0.4111
C5A C -0.0084(3) 0.1503(4) 0.4071(3)
C5B C -0.1503(4) -0.1587(3) 0.4071(3)
H12A H 0.0151 0.1833 0.4063
H12B H -0.1833 -0.1682 0.4063
C6A C -0.0129(2) 0.0318(3) 0.4148(2)
C6B C -0.0318(3) -0.0447(2) 0.4148(2)
C7A C -0.0938(3) 0.1713(4) 0.5031(3)
C7B C -0.1713(4) -0.2651(3) 0.5031(3)
H13A H -0.1244 0.1473 0.4923
H13B H -0.1473 -0.2717 0.4923
C8A C -0.0841(3) 0.1746(4) 0.5519(3)
C8B C -0.1746(4) -0.2587(3) 0.5519(3)
H14A H -0.1073 0.1524 0.5737
H14B H -0.1524 -0.2597 0.5737
C9A C -0.0407(3) 0.2102(4) 0.5683(3)
C9B C -0.2102(4) -0.2509(3) 0.5683(3)
C10A C -0.0079(3) 0.2416(4) 0.5338(3)
C10B C -0.2416(4) -0.2495(3) 0.5338(3)
H15A H 0.0225 0.2671 0.5437
H15B H -0.2671 -0.2446 0.5437
C11A C -0.0198(3) 0.2354(4) 0.4870(3)
C11B C -0.2354(4) -0.2552(3) 0.4870(3)
H16A H 0.0029 0.2569 0.4644
H16B H -0.2569 -0.2540 0.4644
C12A C -0.0859(4) 0.2191(5) 0.3047(3)
C12B C -0.2191(5) -0.3050(3) 0.3047(3)
H17A H -0.1031 0.2099 0.2736
H17B H -0.2099 -0.3130 0.2736
H18A H -0.0528 0.2454 0.2990
H18B H -0.2454 -0.2982 0.2990
C13A C -0.1114(4) 0.2350(5) 0.3401(4)
C13B C -0.2350(5) -0.3464(3) 0.3401(4)
H19A H -0.1092 0.2652 0.3289
H19B H -0.2652 -0.3744 0.3289
H20A H -0.1457 0.2102 0.3423
H20B H -0.2102 -0.3559 0.3423
C14A C -0.0470(3) 0.2113(4) 0.7040(3)
C14B C -0.2113(4) -0.2583(3) 0.7040(3)
H21A H -0.0704 0.2030 0.7285
H21B H -0.2030 -0.2734 0.7285
C15A C -0.0616(3) 0.2038(4) 0.6561(3)
C15B C -0.2038(4) -0.2654(3) 0.6561(3)
H22A H -0.0944 0.1909 0.6481
H22B H -0.1909 -0.2853 0.6481
C16A C -0.0269(3) 0.2156(4) 0.6197(3)
C16B C -0.2156(4) -0.2425(3) 0.6197(3)
C17A C 0.0208(3) 0.2338(5) 0.6348(3)
C17B C -0.2338(5) -0.2130(4) 0.6348(3)
H23A H 0.0453 0.2417 0.6116
H23B H -0.2417 -0.1964 0.6116
C18A C 0.0319(3) 0.2401(4) 0.6825(3)
C18B C -0.2401(4) -0.2082(3) 0.6825(3)
H24A H 0.0643 0.2522 0.6919
H24B H -0.2522 -0.1879 0.6919
C19A C 0.0470(4) 0.3361(6) 0.8287(4)
C19B C -0.3361(6) -0.2891(4) 0.8287(4)
H25A H 0.0824 0.3535 0.8276
H25B H -0.3535 -0.2711 0.8276
H26A H 0.0364 0.3598 0.8335
H26B H -0.3598 -0.3234 0.8335
C20A C 0.0303(4) 0.3019(6) 0.8693(4)
C20B C -0.3019(6) -0.2716(4) 0.8693(4)
H27A H -0.0041 0.2897 0.8753
H27B H -0.2897 -0.2938 0.8753
H28A H 0.0483 0.3179 0.8988
H28B H -0.3179 -0.2696 0.8988
C21A C 0.0526(3) 0.1746(4) 0.7951(3)
C21B C -0.1746(4) -0.1220(3) 0.7951(3)
H29A H 0.0830 0.2029 0.7965
H29B H -0.2029 -0.1199 0.7965
C22A C -0.0299(3) 0.1377(4) 0.7901(3)
C22B C -0.1377(4) -0.1676(3) 0.7901(3)
H30A H -0.0579 0.1403 0.7876
H30B H -0.1403 -0.1982 0.7876
C23A C -0.0348(3) 0.0929(4) 0.7910(3)
C23B C -0.0929(4) -0.1277(3) 0.7910(3)
H31A H -0.0656 0.0649 0.7901
H31B H -0.0649 -0.1305 0.7901
C24A C 0.0066(3) 0.0893(4) 0.7932(2)
C24B C -0.0893(4) -0.0827(3) 0.7932(2)
C25A C 0.0027(3) 0.0416(4) 0.7936(2)
C25B C -0.0416(4) -0.0389(3) 0.7936(2)
C26A C 0.0504(3) 0.1305(4) 0.7958(3)
C26B C -0.1305(4) -0.0801(3) 0.7958(3)
H32A H 0.0789 0.1288 0.7982
H32B H -0.1288 -0.0499 0.7982
C27 C 0.0507(3) 1.0175(3) 0.6679(2)
C28 C 0.1001(3) 1.0337(3) 0.6677(3)
H33 H 0.1221 1.0672 0.6683
C29 C 0.1177(3) 1.0013(3) 0.6668(3)
H34 H 0.1510 1.0124 0.6653
C30 C 0.0837(3) 0.9515(3) 0.6682(3)
H35 H 0.0945 0.9289 0.6695
C31 C 0.0365(3) 0.9361(3) 0.6679(3)
H36 H 0.0149 0.9025 0.6675
C32 C 0.0174(3) 0.9670(3) 0.6681(3)
C27A C -0.0175(3) 1.0332(4) 0.6679(2)
C27B C -0.0332(4) 0.9493(3) 0.6679(2)
C28A C -0.0337(3) 1.0664(4) 0.6677(3)
C28B C -0.0664(4) 0.8999(3) 0.6677(3)
H33A H -0.0672 1.0549 0.6683
H33B H -0.0549 0.8779 0.6683
C29A C -0.0013(3) 1.1164(4) 0.6668(3)
C29B C -0.1164(4) 0.8823(3) 0.6668(3)
H34A H -0.0124 1.1386 0.6653
H34B H -0.1386 0.8490 0.6653
C30A C 0.0485(3) 1.1322(4) 0.6682(3)
C30B C -0.1322(4) 0.9163(3) 0.6682(3)
H35A H 0.0711 1.1656 0.6695
H35B H -0.1656 0.9055 0.6695
C31A C 0.0639(3) 1.1004(4) 0.6679(3)
C31B C -0.1004(4) 0.9635(3) 0.6679(3)
H36A H 0.0975 1.1124 0.6675
H36B H -0.1124 0.9851 0.6675
C32A C 0.0330(3) 1.0504(4) 0.6681(3)
C32B C -0.0504(4) 0.9826(3) 0.6681(3)
C33 C 0.1233(3) 0.1076(4) 0.0372(3)
H37 H 0.1483 0.1400 0.0366
C34 C 0.1338(3) 0.0703(4) 0.0376(3)
H38 H 0.1662 0.0775 0.0377
C35 C 0.0979(3) 0.0239(3) 0.0378(3)
H39 H 0.1058 -0.0008 0.0375
C36 C 0.0489(3) 0.0114(3) 0.0384(2)
C37 C 0.0385(3) 0.0487(3) 0.0379(2)
C38 C 0.0766(3) 0.0964(3) 0.0377(3)
H40 H 0.0695 0.1217 0.0380
C33A C -0.1076(4) 0.0157(5) 0.0372(3)
C33B C -0.0157(5) -0.1233(3) 0.0372(3)
H37A H -0.1400 0.0083 0.0366
H37B H -0.0083 -0.1483 0.0366
C34A C -0.0703(4) 0.0635(5) 0.0376(3)
C34B C -0.0635(5) -0.1338(3) 0.0376(3)
H38A H -0.0775 0.0887 0.0377
H38B H -0.0887 -0.1662 0.0377
C35A C -0.0239(3) 0.0740(4) 0.0378(3)
C35B C -0.0740(4) -0.0979(3) 0.0378(3)
H39A H 0.0008 0.1066 0.0375
H39B H -0.1066 -0.1058 0.0375
C36A C -0.0114(3) 0.0375(4) 0.0384(2)
C36B C -0.0375(4) -0.0489(3) 0.0384(2)
C37A C -0.0487(3) -0.0102(4) 0.0379(2)
C37B C 0.0102(4) -0.0385(3) 0.0379(2)
C38A C -0.0964(3) -0.0198(4) 0.0377(3)
C38B C 0.0198(4) -0.0766(3) 0.0377(3)
H40A H -0.1217 -0.0522 0.0380
H40B H 0.0522 -0.0695 0.0380
N11 N 0.0231(6) 0.8297(6) 0.4581(5)
O1 O 0.0493(7) 0.8583(6) 0.4258(5)
O2 O -0.0078(4) 0.7936(4) 0.4488(6)
O3 O 0.0358(4) 0.8470(4) 0.5023(3)
N12 N 0.2304(3) 0.0809(3) 0.1817(3)
O4 O 0.2474(4) 0.0950(3) 0.1412(3)
O5 O 0.1922(3) 0.0413(3) 0.1845(3)
O6 O 0.2486(3) 0.1037(3) 0.2175(2)
N13 N 0.9074(2) 0.7010(3) 0.3324(2)
O7 O 0.9213(3) 0.7305(3) 0.3659(3)
O8 O 0.8857(3) 0.7051(3) 0.2986(2)
O9 O 0.9159(3) 0.6665(3) 0.3342(3)
O10 O 0.1355(4) 0.9120(3) 0.5041(5)
O11 O 0.1612(3) 0.8597(3) 0.7614(4)
O12 O 0.1530(4) 0.8717(4) 0.5863(5)
O13 O 0.3204(3) 0.8663(3) 0.7472(3)
O14 O 0.2466(4) 0.8850(4) 0.7178(3)
O15 O 0.9074(4) 0.6798(3) 0.4521(3)
O16 O 0.1890(4) 0.9111(3) 0.4186(4)
O17 O 0.1706(3) 0.8539(3) 0.8620(3)
O18 O 0.1751(3) 0.0112(3) 0.2829(3)
O19 O 0.3991(4) 0.1352(5) 0.4617(4)
O20 O 0.3233(4) -0.0079(4) 0.6402(5)
O21 O 0.3546(4) 0.0404(6) 0.7233(5)
N14 N 0.3789(6) 0.1015(6) 0.5851(6)
O22 O 0.3967(4) 0.1347(4) 0.5598(4)
O23 O 0.3575(6) 0.0604(5) 0.5698(5)
O24 O 0.3905(9) 0.1073(8) 0.6291(7)
loop_
_geom_bond_atom_site_label_1
_geom_bond_atom_site_label_2
_geom_bond_site_symmetry_1
_geom_bond_site_symmetry_2
Pt1 N1 1_555 1_555
Pt2 N6 1_555 1_555
N1 C1 1_555 1_555
N2 C6 1_555 1_555
N3 Pt1 1_555 1_555
N4 Pt1 1_555 1_555
H1 N4 1_555 1_555
H2 N4 1_555 1_555
N5 Pt1 1_555 1_555
H3 N5 1_555 1_555
H4 N5 1_555 1_555
N6 C14 1_555 1_555
N7 Pt2 1_555 1_555
H5 N7 1_555 1_555
H6 N7 1_555 1_555
N8 Pt2 1_555 1_555
H7 N8 1_555 1_555
H8 N8 1_555 1_555
N9 Pt2 1_555 1_555
N10 C25 1_555 1_555
C1 H9 1_555 1_555
C2 C1 1_555 1_555
H10 C2 1_555 1_555
C3 C2 1_555 1_555
C4 C3 1_555 1_555
H11 C4 1_555 1_555
C5 N1 1_555 1_555
H12 C5 1_555 1_555
C6 C3 1_555 1_555
C7 N3 1_555 1_555
H13 C7 1_555 1_555
C8 C7 1_555 1_555
H14 C8 1_555 1_555
C9 C8 1_555 1_555
C10 C9 1_555 1_555
H15 C10 1_555 1_555
C11 N3 1_555 1_555
H16 C11 1_555 1_555
C12 N4 1_555 1_555
H17 C12 1_555 1_555
H18 C12 1_555 1_555
C13 N5 1_555 1_555
H19 C13 1_555 1_555
H20 C13 1_555 1_555
C14 H21 1_555 1_555
C15 C14 1_555 1_555
H22 C15 1_555 1_555
C16 C9 1_555 1_555
C17 C16 1_555 1_555
H23 C17 1_555 1_555
C18 N6 1_555 1_555
H24 C18 1_555 1_555
C19 N7 1_555 1_555
H25 C19 1_555 1_555
H26 C19 1_555 1_555
C20 N8 1_555 1_555
H27 C20 1_555 1_555
H28 C20 1_555 1_555
C21 N9 1_555 1_555
H29 C21 1_555 1_555
C22 N9 1_555 1_555
H30 C22 1_555 1_555
C23 C22 1_555 1_555
H31 C23 1_555 1_555
C24 C23 1_555 1_555
C25 C24 1_555 1_555
C26 C21 1_555 1_555
H32 C26 1_555 1_555
C27 C28 1_555 1_555
C28 H33 1_555 1_555
C29 C28 1_555 1_555
H34 C29 1_555 1_555
C30 C29 1_555 1_555
H35 C30 1_555 1_555
C31 C30 1_555 1_555
H36 C31 1_555 1_555
C32 C27 1_555 1_555
C33 H37 1_555 1_555
C34 C33 1_555 1_555
H38 C34 1_555 1_555
C35 C34 1_555 1_555
H39 C35 1_555 1_555
C36 C35 1_555 1_555
C37 C36 1_555 1_555
C38 C33 1_555 1_555
H40 C38 1_555 1_555
N11 O1 1_555 1_555
O2 N11 1_555 1_555
O3 N11 1_555 1_555
N12 O4 1_555 1_555
O5 N12 1_555 1_555
O6 N12 1_555 1_555
N13 O7 1_555 1_555
O8 N13 1_555 1_555
O9 N13 1_555 1_555
N14 O22 1_555 1_555
O23 N14 1_555 1_555
O24 N14 1_555 1_555
Pt1A N1A 1_555 1_555
Pt1B N1B 1_555 1_555
Pt2A N6A 1_555 1_555
Pt2B N6B 1_555 1_555
N1A C1A 1_555 1_555
N1B C1B 1_555 1_555
N2A C6A 1_555 1_555
N2B C6 1_555 1_555
N3A Pt1A 1_555 1_555
N3B Pt1B 1_555 1_555
N4A Pt1A 1_555 1_555
N4B Pt1B 1_555 1_555
H1A N4A 1_555 1_555
H1B N4B 1_555 1_555
H2A N4A 1_555 1_555
H2B N4B 1_555 1_555
N5A Pt1A 1_555 1_555
N5B Pt1B 1_555 1_555
H3A N5A 1_555 1_555
H3B N5B 1_555 1_555
H4A N5A 1_555 1_555
H4B N5B 1_555 1_555
N6A C14A 1_555 1_555
N6B C14B 1_555 1_555
N7A Pt2A 1_555 1_555
N7B Pt2B 1_555 1_555
H5A N7A 1_555 1_555
H5B N7B 1_555 1_555
H6A N7A 1_555 1_555
H6B N7B 1_555 1_555
N8A Pt2A 1_555 1_555
N8B Pt2B 1_555 1_555
H7A N8A 1_555 1_555
H7B N8B 1_555 1_555
H8A N8A 1_555 1_555
H8B N8B 1_555 1_555
N9A Pt2A 1_555 1_555
N9B Pt2B 1_555 1_555
N10A C25A 1_555 1_555
N10B C25 1_555 1_555
C1A H9A 1_555 1_555
C1B H9B 1_555 1_555
C2A C1A 1_555 1_555
C2B C1B 1_555 1_555
H10A C2A 1_555 1_555
H10B C2B 1_555 1_555
C3A C2A 1_555 1_555
C3B C2B 1_555 1_555
C4A C3A 1_555 1_555
C4B C3B 1_555 1_555
H11A C4A 1_555 1_555
H11B C4B 1_555 1_555
C5A N1A 1_555 1_555
C5B N1B 1_555 1_555
H12A C5A 1_555 1_555
H12B C5B 1_555 1_555
C6A N2 1_555 1_555
C6B N2A 1_555 1_555
C7A N3A 1_555 1_555
C7B N3B 1_555 1_555
H13A C7A 1_555 1_555
H13B C7B 1_555 1_555
C8A C7A 1_555 1_555
C8B C7B 1_555 1_555
H14A C8A 1_555 1_555
H14B C8B 1_555 1_555
C9A C8A 1_555 1_555
C9B C8B 1_555 1_555
C10A C9A 1_555 1_555
C10B C9B 1_555 1_555
H15A C10A 1_555 1_555
H15B C10B 1_555 1_555
C11A N3A 1_555 1_555
C11B N3B 1_555 1_555
H16A C11A 1_555 1_555
H16B C11B 1_555 1_555
C12A N4A 1_555 1_555
C12B N4B 1_555 1_555
H17A C12A 1_555 1_555
H17B C12B 1_555 1_555
H18A C12A 1_555 1_555
H18B C12B 1_555 1_555
C13A N5A 1_555 1_555
C13B N5B 1_555 1_555
H19A C13A 1_555 1_555
H19B C13B 1_555 1_555
H20A C13A 1_555 1_555
H20B C13B 1_555 1_555
C14A H21A 1_555 1_555
C14B H21B 1_555 1_555
C15A C14A 1_555 1_555
C15B C14B 1_555 1_555
H22A C15A 1_555 1_555
H22B C15B 1_555 1_555
C16A C9A 1_555 1_555
C16B C9B 1_555 1_555
C17A C16A 1_555 1_555
C17B C16B 1_555 1_555
H23A C17A 1_555 1_555
H23B C17B 1_555 1_555
C18A N6A 1_555 1_555
C18B N6B 1_555 1_555
H24A C18A 1_555 1_555
H24B C18B 1_555 1_555
C19A N7A 1_555 1_555
C19B N7B 1_555 1_555
H25A C19A 1_555 1_555
H25B C19B 1_555 1_555
H26A C19A 1_555 1_555
H26B C19B 1_555 1_555
C20A N8A 1_555 1_555
C20B N8B 1_555 1_555
H27A C20A 1_555 1_555
H27B C20B 1_555 1_555
H28A C20A 1_555 1_555
H28B C20B 1_555 1_555
C21A N9A 1_555 1_555
C21B N9B 1_555 1_555
H29A C21A 1_555 1_555
H29B C21B 1_555 1_555
C22A N9A 1_555 1_555
C22B N9B 1_555 1_555
H30A C22A 1_555 1_555
H30B C22B 1_555 1_555
C23A C22A 1_555 1_555
C23B C22B 1_555 1_555
H31A C23A 1_555 1_555
H31B C23B 1_555 1_555
C24A C23A 1_555 1_555
C24B C23B 1_555 1_555
C25A N10 1_555 1_555
C25B N10A 1_555 1_555
C26A C21A 1_555 1_555
C26B C21B 1_555 1_555
H32A C26A 1_555 1_555
H32B C26B 1_555 1_555
C27A C28A 1_555 1_555
C27B C32 1_555 1_555
C28A H33A 1_555 1_555
C28B C27B 1_555 1_555
H33B C28B 1_555 1_555
C29A C28A 1_555 1_555
C29B C28B 1_555 1_555
H34A C29A 1_555 1_555
H34B C29B 1_555 1_555
C30A C29A 1_555 1_555
C30B C29B 1_555 1_555
H35A C30A 1_555 1_555
H35B C30B 1_555 1_555
C31A C30A 1_555 1_555
C31B C30B 1_555 1_555
H36A C31A 1_555 1_555
H36B C31B 1_555 1_555
C32A C27 1_555 1_555
C32B C27A 1_555 1_555
C33A H37A 1_555 1_555
C33B H37B 1_555 1_555
C34A C33A 1_555 1_555
C34B C33B 1_555 1_555
H38A C34A 1_555 1_555
H38B C34B 1_555 1_555
C35A C34A 1_555 1_555
C35B C34B 1_555 1_555
H39A C35A 1_555 1_555
H39B C35B 1_555 1_555
C36A C37 1_555 1_555
C36B C35B 1_555 1_555
C37A C36A 1_555 1_555
C37B C36 1_555 1_555
C38A C33A 1_555 1_555
C38B C33B 1_555 1_555
H40A C38A 1_555 1_555
H40B C38B 1_555 1_555
C4 C5 1_555 1_555
C10 C11 1_555 1_555
C12 C13 1_555 1_555
C15 C16 1_555 1_555
C17 C18 1_555 1_555
C19 C20 1_555 1_555
C24 C26 1_555 1_555
C31 C32 1_555 1_555
C37 C38 1_555 1_555
N2B C6B 1_555 1_555
N10B C25B 1_555 1_555
C3A C6A 1_555 1_555
C3B C6B 1_555 1_555
C4A C5A 1_555 1_555
C4B C5B 1_555 1_555
C10A C11A 1_555 1_555
C10B C11B 1_555 1_555
C12A C13A 1_555 1_555
C12B C13B 1_555 1_555
C15A C16A 1_555 1_555
C15B C16B 1_555 1_555
C17A C18A 1_555 1_555
C17B C18B 1_555 1_555
C19A C20A 1_555 1_555
C19B C20B 1_555 1_555
C24A C25A 1_555 1_555
C24A C26A 1_555 1_555
C24B C25B 1_555 1_555
C24B C26B 1_555 1_555
C27A C32A 1_555 1_555
C27B C32B 1_555 1_555
C31A C32A 1_555 1_555
C31B C32B 1_555 1_555
C35A C36A 1_555 1_555
C36B C37A 1_555 1_555
C36B C37B 1_555 1_555
C37A C38A 1_555 1_555
C37B C38B 1_555 1_555

#END
