# generated using pymatgen
data_P4H314Pt12C218N92O213
_symmetry_space_group_name_H-M   'P 1'
_cell_length_a   23.44500000
_cell_length_b   26.73400000
_cell_length_c   28.03300000
_cell_angle_alpha   90.00000000
_cell_angle_beta   90.00000000
_cell_angle_gamma   90.00000000
_symmetry_Int_Tables_number   1
_chemical_formula_structural   P4H314Pt12C218N92O213
_chemical_formula_sum   'P8 H628 Pt24 C436 N184 O426'
_cell_volume   17570.48533479
_cell_formula_units_Z   2
loop_
 _symmetry_equiv_pos_site_id
 _symmetry_equiv_pos_as_xyz
  1  'x, y, z'
loop_
 _atom_site_type_symbol
 _atom_site_label
 _atom_site_symmetry_multiplicity
 _atom_site_fract_x
 _atom_site_fract_y
 _atom_site_fract_z
 _atom_site_occupancy
  P  P1  1  0.044200  0.402000  0.148400  1
  P  P2  1  0.955800  0.598000  0.148400  1
  P  P3  1  0.455800  0.902000  0.851600  1
  P  P4  1  0.544200  0.098000  0.851600  1
  P  P5  1  0.869700  0.976800  0.261100  1
  P  P6  1  0.130300  0.023200  0.261100  1
  P  P7  1  0.630300  0.476800  0.738900  1
  P  P8  1  0.369700  0.523200  0.738900  1
  H  H9  1  0.636000  0.318200  0.261100  1
  H  H10  1  0.364000  0.681800  0.261100  1
  H  H11  1  0.864000  0.818200  0.738900  1
  H  H12  1  0.136000  0.181800  0.738900  1
  H  H13  1  0.694200  0.294100  0.253500  1
  H  H14  1  0.305800  0.705900  0.253500  1
  H  H15  1  0.805800  0.794100  0.746500  1
  H  H16  1  0.194200  0.205900  0.746500  1
  H  H17  1  0.662900  0.481400  0.259900  1
  H  H18  1  0.337100  0.518600  0.259900  1
  H  H19  1  0.837100  0.981400  0.740100  1
  H  H20  1  0.162900  0.018600  0.740100  1
  H  H21  1  0.886500  0.358300  0.240500  1
  H  H22  1  0.113500  0.641700  0.240500  1
  H  H23  1  0.613500  0.858300  0.759500  1
  H  H24  1  0.386500  0.141700  0.759500  1
  H  H25  1  0.856200  0.495100  0.258400  1
  H  H26  1  0.143800  0.504900  0.258400  1
  H  H27  1  0.643800  0.995100  0.741600  1
  H  H28  1  0.356200  0.004900  0.741600  1
  H  H29  1  0.951000  0.427600  0.260700  1
  H  H30  1  0.049000  0.572400  0.260700  1
  H  H31  1  0.549000  0.927600  0.739300  1
  H  H32  1  0.451000  0.072400  0.739300  1
  H  H33  1  0.911400  0.419800  0.327800  1
  H  H34  1  0.088600  0.580200  0.327800  1
  H  H35  1  0.588600  0.919800  0.672200  1
  H  H36  1  0.411400  0.080200  0.672200  1
  H  H37  1  0.921900  0.527100  0.305300  1
  H  H38  1  0.078100  0.472900  0.305300  1
  H  H39  1  0.578100  0.027100  0.694700  1
  H  H40  1  0.421900  0.972900  0.694700  1
  H  H41  1  0.931000  0.460700  0.132400  1
  H  H42  1  0.069000  0.539300  0.132400  1
  H  H43  1  0.569000  0.960700  0.867600  1
  H  H44  1  0.431000  0.039300  0.867600  1
  H  H45  1  0.820300  0.268100  0.250900  1
  H  H46  1  0.179700  0.731900  0.250900  1
  H  H47  1  0.679700  0.768100  0.749100  1
  H  H48  1  0.320300  0.231900  0.749100  1
  H  H49  1  0.923300  0.151200  0.242600  1
  H  H50  1  0.076700  0.848800  0.242600  1
  H  H51  1  0.576700  0.651200  0.757400  1
  H  H52  1  0.423300  0.348800  0.757400  1
  H  H53  1  0.841800  0.103700  0.247100  1
  H  H54  1  0.158200  0.896300  0.247100  1
  H  H55  1  0.658200  0.603700  0.752900  1
  H  H56  1  0.341800  0.396300  0.752900  1
  H  H57  1  0.704200  0.143400  0.231100  1
  H  H58  1  0.295800  0.856600  0.231100  1
  H  H59  1  0.795800  0.643400  0.768900  1
  H  H60  1  0.204200  0.356600  0.768900  1
  H  H61  1  0.791900  0.081000  0.203400  1
  H  H62  1  0.208100  0.919000  0.203400  1
  H  H63  1  0.708100  0.581000  0.796600  1
  H  H64  1  0.291900  0.419000  0.796600  1
  H  H65  1  0.784900  0.137000  0.152400  1
  H  H66  1  0.215100  0.863000  0.152400  1
  H  H67  1  0.715100  0.637000  0.847600  1
  H  H68  1  0.284900  0.363000  0.847600  1
  H  H69  1  0.737000  0.012600  0.197800  1
  H  H70  1  0.263000  0.987400  0.197800  1
  H  H71  1  0.763000  0.512600  0.802200  1
  H  H72  1  0.237000  0.487400  0.802200  1
  H  H73  1  0.656500  0.036000  0.173400  1
  H  H74  1  0.343500  0.964000  0.173400  1
  H  H75  1  0.843500  0.536000  0.826600  1
  H  H76  1  0.156500  0.464000  0.826600  1
  H  H77  1  0.696300  0.028700  0.283100  1
  H  H78  1  0.303700  0.971300  0.283100  1
  H  H79  1  0.803700  0.528700  0.716900  1
  H  H80  1  0.196300  0.471300  0.716900  1
  H  H81  1  0.799000  0.073500  0.309200  1
  H  H82  1  0.201000  0.926500  0.309200  1
  H  H83  1  0.701000  0.573500  0.690800  1
  H  H84  1  0.299000  0.426500  0.690800  1
  H  H85  1  0.769400  0.024400  0.333500  1
  H  H86  1  0.230600  0.975600  0.333500  1
  H  H87  1  0.730600  0.524400  0.666500  1
  H  H88  1  0.269400  0.475600  0.666500  1
  H  H89  1  0.519600  0.268200  0.140100  1
  H  H90  1  0.480400  0.731800  0.140100  1
  H  H91  1  0.980400  0.768200  0.859900  1
  H  H92  1  0.019600  0.231800  0.859900  1
  H  H93  1  0.598900  0.318800  0.149100  1
  H  H94  1  0.401100  0.681200  0.149100  1
  H  H95  1  0.901100  0.818800  0.850900  1
  H  H96  1  0.098900  0.181200  0.850900  1
  H  H97  1  0.694000  0.194600  0.132800  1
  H  H98  1  0.306000  0.805400  0.132800  1
  H  H99  1  0.806000  0.694600  0.867200  1
  H  H100  1  0.194000  0.305400  0.867200  1
  H  H101  1  0.611200  0.147400  0.138200  1
  H  H102  1  0.388800  0.852600  0.138200  1
  H  H103  1  0.888800  0.647400  0.861800  1
  H  H104  1  0.111200  0.352600  0.861800  1
  H  H105  1  0.921400  0.165000  0.126500  1
  H  H106  1  0.078600  0.835000  0.126500  1
  H  H107  1  0.578600  0.665000  0.873500  1
  H  H108  1  0.421400  0.335000  0.873500  1
  H  H109  1  0.832600  0.201400  0.131600  1
  H  H110  1  0.167400  0.798600  0.131600  1
  H  H111  1  0.667400  0.701400  0.868400  1
  H  H112  1  0.332600  0.298600  0.868400  1
  H  H113  1  0.910400  0.337100  0.123400  1
  H  H114  1  0.089600  0.662900  0.123400  1
  H  H115  1  0.589600  0.837100  0.876600  1
  H  H116  1  0.410400  0.162900  0.876600  1
  H  H117  1  0.997200  0.294100  0.114900  1
  H  H118  1  0.002800  0.705900  0.114900  1
  H  H119  1  0.502800  0.794100  0.885100  1
  H  H120  1  0.497200  0.205900  0.885100  1
  H  H121  1  0.822500  0.527300  0.119000  1
  H  H122  1  0.177500  0.472700  0.119000  1
  H  H123  1  0.677500  0.027300  0.881000  1
  H  H124  1  0.322500  0.972700  0.881000  1
  H  H125  1  0.833300  0.436900  0.124900  1
  H  H126  1  0.166700  0.563100  0.124900  1
  H  H127  1  0.666700  0.936900  0.875100  1
  H  H128  1  0.333300  0.063100  0.875100  1
  H  H129  1  0.661200  0.428600  0.147500  1
  H  H130  1  0.338800  0.571400  0.147500  1
  H  H131  1  0.838800  0.928600  0.852500  1
  H  H132  1  0.161200  0.071400  0.852500  1
  H  H133  1  0.662100  0.513300  0.147100  1
  H  H134  1  0.337900  0.486700  0.147100  1
  H  H135  1  0.837900  0.013300  0.852900  1
  H  H136  1  0.162100  0.986700  0.852900  1
  H  H137  1  0.623700  0.143500  0.373200  1
  H  H138  1  0.376300  0.856500  0.373200  1
  H  H139  1  0.876300  0.643500  0.626800  1
  H  H140  1  0.123700  0.356500  0.626800  1
  H  H141  1  0.714800  0.191200  0.366200  1
  H  H142  1  0.285200  0.808800  0.366200  1
  H  H143  1  0.785200  0.691200  0.633800  1
  H  H144  1  0.214800  0.308800  0.633800  1
  H  H145  1  0.615500  0.315500  0.380000  1
  H  H146  1  0.384500  0.684500  0.380000  1
  H  H147  1  0.884500  0.815500  0.620000  1
  H  H148  1  0.115500  0.184500  0.620000  1
  H  H149  1  0.534200  0.267100  0.381500  1
  H  H150  1  0.465800  0.732900  0.381500  1
  H  H151  1  0.965800  0.767100  0.618500  1
  H  H152  1  0.034200  0.232900  0.618500  1
  H  H153  1  0.668300  0.507100  0.381200  1
  H  H154  1  0.331700  0.492900  0.381200  1
  H  H155  1  0.831700  0.007100  0.618800  1
  H  H156  1  0.168300  0.992900  0.618800  1
  H  H157  1  0.672000  0.424300  0.373200  1
  H  H158  1  0.328000  0.575700  0.373200  1
  H  H159  1  0.828000  0.924300  0.626800  1
  H  H160  1  0.172000  0.075700  0.626800  1
  H  H161  1  0.841700  0.441600  0.358100  1
  H  H162  1  0.158300  0.558400  0.358100  1
  H  H163  1  0.658300  0.941600  0.641900  1
  H  H164  1  0.341700  0.058400  0.641900  1
  H  H165  1  0.830600  0.523700  0.365600  1
  H  H166  1  0.169400  0.476300  0.365600  1
  H  H167  1  0.669400  0.023700  0.634400  1
  H  H168  1  0.330600  0.976300  0.634400  1
  H  H169  1  0.006900  0.296100  0.356400  1
  H  H170  1  0.993100  0.703900  0.356400  1
  H  H171  1  0.493100  0.796100  0.643600  1
  H  H172  1  0.506900  0.203900  0.643600  1
  H  H173  1  0.923100  0.331500  0.362800  1
  H  H174  1  0.076900  0.668500  0.362800  1
  H  H175  1  0.576900  0.831500  0.637200  1
  H  H176  1  0.423100  0.168500  0.637200  1
  H  H177  1  0.845500  0.201100  0.360900  1
  H  H178  1  0.154500  0.798900  0.360900  1
  H  H179  1  0.654500  0.701100  0.639100  1
  H  H180  1  0.345500  0.298900  0.639100  1
  H  H181  1  0.934800  0.161700  0.357000  1
  H  H182  1  0.065200  0.838300  0.357000  1
  H  H183  1  0.565200  0.661700  0.643000  1
  H  H184  1  0.434800  0.338300  0.643000  1
  H  H185  1  0.818200  0.602000  0.293100  1
  H  H186  1  0.181800  0.398000  0.293100  1
  H  H187  1  0.681800  0.102000  0.706900  1
  H  H188  1  0.318200  0.898000  0.706900  1
  H  H189  1  0.820200  0.599000  0.213400  1
  H  H190  1  0.179800  0.401000  0.213400  1
  H  H191  1  0.679800  0.099000  0.786600  1
  H  H192  1  0.320200  0.901000  0.786600  1
  H  H193  1  0.653100  0.607700  0.214900  1
  H  H194  1  0.346900  0.392300  0.214900  1
  H  H195  1  0.846900  0.107700  0.785100  1
  H  H196  1  0.153100  0.892300  0.785100  1
  H  H197  1  0.659200  0.604300  0.299000  1
  H  H198  1  0.340800  0.395700  0.299000  1
  H  H199  1  0.840800  0.104300  0.701000  1
  H  H200  1  0.159200  0.895700  0.701000  1
  H  H201  1  0.039000  0.120300  0.280900  1
  H  H202  1  0.961000  0.879700  0.280900  1
  H  H203  1  0.461000  0.620300  0.719100  1
  H  H204  1  0.539000  0.379700  0.719100  1
  H  H205  1  0.027800  0.121500  0.195800  1
  H  H206  1  0.972200  0.878500  0.195800  1
  H  H207  1  0.472200  0.621500  0.804200  1
  H  H208  1  0.527800  0.378500  0.804200  1
  H  H209  1  0.077900  0.257600  0.195400  1
  H  H210  1  0.922100  0.742400  0.195400  1
  H  H211  1  0.422100  0.757600  0.804600  1
  H  H212  1  0.577900  0.242400  0.804600  1
  H  H213  1  0.079500  0.259400  0.277100  1
  H  H214  1  0.920500  0.740600  0.277100  1
  H  H215  1  0.420500  0.759400  0.722900  1
  H  H216  1  0.579500  0.240600  0.722900  1
  H  H217  1  0.448300  0.220200  0.308700  1
  H  H218  1  0.551700  0.779800  0.308700  1
  H  H219  1  0.051700  0.720200  0.691300  1
  H  H220  1  0.948300  0.279800  0.691300  1
  H  H221  1  0.450500  0.220800  0.223600  1
  H  H222  1  0.549500  0.779200  0.223600  1
  H  H223  1  0.049500  0.720800  0.776400  1
  H  H224  1  0.950500  0.279200  0.776400  1
  H  H225  1  0.533600  0.097300  0.219400  1
  H  H226  1  0.466400  0.902700  0.219400  1
  H  H227  1  0.966400  0.597300  0.780600  1
  H  H228  1  0.033600  0.402700  0.780600  1
  H  H229  1  0.526400  0.094900  0.305300  1
  H  H230  1  0.473600  0.905100  0.305300  1
  H  H231  1  0.973600  0.594900  0.694700  1
  H  H232  1  0.026400  0.405100  0.694700  1
  H  H233  1  0.759100  0.581300  0.048200  1
  H  H234  1  0.240900  0.418700  0.048200  1
  H  H235  1  0.740900  0.081300  0.951800  1
  H  H236  1  0.259100  0.918700  0.951800  1
  H  H237  1  0.697400  0.594600  0.049700  1
  H  H238  1  0.302600  0.405400  0.049700  1
  H  H239  1  0.802600  0.094600  0.950300  1
  H  H240  1  0.197400  0.905400  0.950300  1
  H  H241  1  0.704600  0.690000  0.147400  1
  H  H242  1  0.295400  0.310000  0.147400  1
  H  H243  1  0.795400  0.190000  0.852600  1
  H  H244  1  0.204600  0.810000  0.852600  1
  H  H245  1  0.765700  0.691400  0.132500  1
  H  H246  1  0.234300  0.308600  0.132500  1
  H  H247  1  0.734300  0.191400  0.867500  1
  H  H248  1  0.265700  0.808600  0.867500  1
  H  H249  1  0.788200  0.658800  0.047000  1
  H  H250  1  0.211800  0.341200  0.047000  1
  H  H251  1  0.711800  0.158800  0.953000  1
  H  H252  1  0.288200  0.841200  0.953000  1
  H  H253  1  0.671800  0.681700  0.074700  1
  H  H254  1  0.328200  0.318300  0.074700  1
  H  H255  1  0.828200  0.181700  0.925300  1
  H  H256  1  0.171800  0.818300  0.925300  1
  H  H257  1  0.762400  0.754300  0.073200  1
  H  H258  1  0.237600  0.245700  0.073200  1
  H  H259  1  0.737600  0.254300  0.926800  1
  H  H260  1  0.262400  0.745700  0.926800  1
  H  H261  1  0.697900  0.765200  0.088700  1
  H  H262  1  0.302100  0.234800  0.088700  1
  H  H263  1  0.802100  0.265200  0.911300  1
  H  H264  1  0.197900  0.734800  0.911300  1
  H  H265  1  0.716000  0.793700  0.005300  1
  H  H266  1  0.284000  0.206300  0.005300  1
  H  H267  1  0.784000  0.293700  0.994700  1
  H  H268  1  0.216000  0.706300  0.994700  1
  H  H269  1  0.665000  0.753500  0.006700  1
  H  H270  1  0.335000  0.246500  0.006700  1
  H  H271  1  0.835000  0.253500  0.993300  1
  H  H272  1  0.165000  0.746500  0.993300  1
  H  H273  1  0.785500  0.726400  0.985200  1
  H  H274  1  0.214500  0.273600  0.985200  1
  H  H275  1  0.714500  0.226400  0.014800  1
  H  H276  1  0.285500  0.773600  0.014800  1
  H  H277  1  0.736700  0.726700  0.945300  1
  H  H278  1  0.263300  0.273300  0.945300  1
  H  H279  1  0.763300  0.226700  0.054700  1
  H  H280  1  0.236700  0.773300  0.054700  1
  H  H281  1  0.689800  0.651000  0.985500  1
  H  H282  1  0.310200  0.349000  0.985500  1
  H  H283  1  0.810200  0.151000  0.014500  1
  H  H284  1  0.189800  0.849000  0.014500  1
  H  H285  1  0.754200  0.636600  0.970600  1
  H  H286  1  0.245800  0.363400  0.970600  1
  H  H287  1  0.745800  0.136600  0.029400  1
  H  H288  1  0.254200  0.863400  0.029400  1
  H  H289  1  0.489700  0.189700  0.058500  1
  H  H290  1  0.510300  0.810300  0.058500  1
  H  H291  1  0.010300  0.689700  0.941500  1
  H  H292  1  0.989700  0.310300  0.941500  1
  H  H293  1  0.509600  0.136700  0.058700  1
  H  H294  1  0.490400  0.863300  0.058700  1
  H  H295  1  0.990400  0.636700  0.941300  1
  H  H296  1  0.009600  0.363300  0.941300  1
  H  H297  1  0.420400  0.091500  0.158300  1
  H  H298  1  0.579600  0.908500  0.158300  1
  H  H299  1  0.079600  0.591500  0.841700  1
  H  H300  1  0.920400  0.408500  0.841700  1
  H  H301  1  0.386200  0.137000  0.147000  1
  H  H302  1  0.613800  0.863000  0.147000  1
  H  H303  1  0.113800  0.637000  0.853000  1
  H  H304  1  0.886200  0.363000  0.853000  1
  H  H305  1  0.397400  0.169600  0.064500  1
  H  H306  1  0.602600  0.830400  0.064500  1
  H  H307  1  0.102600  0.669600  0.935500  1
  H  H308  1  0.897400  0.330400  0.935500  1
  H  H309  1  0.435500  0.071700  0.083100  1
  H  H310  1  0.564500  0.928300  0.083100  1
  H  H311  1  0.064500  0.571700  0.916900  1
  H  H312  1  0.935500  0.428300  0.916900  1
  H  H313  1  0.335600  0.055300  0.104300  1
  H  H314  1  0.664400  0.944700  0.104300  1
  H  H315  1  0.164400  0.555300  0.895700  1
  H  H316  1  0.835600  0.444700  0.895700  1
  H  H317  1  0.318300  0.110900  0.087900  1
  H  H318  1  0.681700  0.889100  0.087900  1
  H  H319  1  0.181700  0.610900  0.912100  1
  H  H320  1  0.818300  0.389100  0.912100  1
  H  H321  1  0.302100  0.052900  0.023800  1
  H  H322  1  0.697900  0.947100  0.023800  1
  H  H323  1  0.197900  0.552900  0.976200  1
  H  H324  1  0.802100  0.447100  0.976200  1
  H  H325  1  0.368000  0.037000  0.025400  1
  H  H326  1  0.632000  0.963000  0.025400  1
  H  H327  1  0.132000  0.537000  0.974600  1
  H  H328  1  0.868000  0.463000  0.974600  1
  H  H329  1  0.329900  0.137500  0.001400  1
  H  H330  1  0.670100  0.862500  0.001400  1
  H  H331  1  0.170100  0.637500  0.998600  1
  H  H332  1  0.829900  0.362500  0.998600  1
  H  H333  1  0.350300  0.097900  0.962200  1
  H  H334  1  0.649700  0.902100  0.962200  1
  H  H335  1  0.149700  0.597900  0.037800  1
  H  H336  1  0.850300  0.402100  0.037800  1
  H  H337  1  0.429800  0.158200  0.982100  1
  H  H338  1  0.570200  0.841800  0.982100  1
  H  H339  1  0.070200  0.658200  0.017900  1
  H  H340  1  0.929800  0.341800  0.017900  1
  H  H341  1  0.449600  0.101600  0.993500  1
  H  H342  1  0.550400  0.898400  0.993500  1
  H  H343  1  0.050400  0.601600  0.006500  1
  H  H344  1  0.949600  0.398400  0.006500  1
  H  H345  1  0.000100  0.179600  0.037600  1
  H  H346  1  0.999900  0.820400  0.037600  1
  H  H347  1  0.499900  0.679600  0.962400  1
  H  H348  1  0.500100  0.320400  0.962400  1
  H  H349  1  0.045600  0.218100  0.032600  1
  H  H350  1  0.954400  0.781900  0.032600  1
  H  H351  1  0.454400  0.718100  0.967400  1
  H  H352  1  0.545600  0.281900  0.967400  1
  H  H353  1  0.147200  0.169100  0.124400  1
  H  H354  1  0.852800  0.830900  0.124400  1
  H  H355  1  0.352800  0.669100  0.875600  1
  H  H356  1  0.647200  0.330900  0.875600  1
  H  H357  1  0.115600  0.122300  0.112200  1
  H  H358  1  0.884400  0.877700  0.112200  1
  H  H359  1  0.384400  0.622300  0.887800  1
  H  H360  1  0.615600  0.377700  0.887800  1
  H  H361  1  0.062800  0.115200  0.036700  1
  H  H362  1  0.937200  0.884800  0.036700  1
  H  H363  1  0.437200  0.615200  0.963300  1
  H  H364  1  0.562800  0.384800  0.963300  1
  H  H365  1  0.146100  0.197800  0.047400  1
  H  H366  1  0.853900  0.802200  0.047400  1
  H  H367  1  0.353900  0.697800  0.952600  1
  H  H368  1  0.646100  0.302200  0.952600  1
  H  H369  1  0.171600  0.093600  0.054700  1
  H  H370  1  0.828400  0.906400  0.054700  1
  H  H371  1  0.328400  0.593600  0.945300  1
  H  H372  1  0.671600  0.406400  0.945300  1
  H  H373  1  0.216900  0.138700  0.055600  1
  H  H374  1  0.783100  0.861300  0.055600  1
  H  H375  1  0.283100  0.638700  0.944400  1
  H  H376  1  0.716900  0.361300  0.944400  1
  H  H377  1  0.201800  0.156600  0.971500  1
  H  H378  1  0.798200  0.843400  0.971500  1
  H  H379  1  0.298200  0.656600  0.028500  1
  H  H380  1  0.701800  0.343400  0.028500  1
  H  H381  1  0.211600  0.097600  0.974200  1
  H  H382  1  0.788400  0.902400  0.974200  1
  H  H383  1  0.288400  0.597600  0.025800  1
  H  H384  1  0.711600  0.402400  0.025800  1
  H  H385  1  0.122000  0.082200  0.964200  1
  H  H386  1  0.878000  0.917800  0.964200  1
  H  H387  1  0.378000  0.582200  0.035800  1
  H  H388  1  0.622000  0.417800  0.035800  1
  H  H389  1  0.140800  0.121900  0.924500  1
  H  H390  1  0.859200  0.878100  0.924500  1
  H  H391  1  0.359200  0.621900  0.075500  1
  H  H392  1  0.640800  0.378100  0.075500  1
  H  H393  1  0.096500  0.187500  0.967100  1
  H  H394  1  0.903500  0.812500  0.967100  1
  H  H395  1  0.403500  0.687500  0.032900  1
  H  H396  1  0.596500  0.312500  0.032900  1
  H  H397  1  0.050700  0.144100  0.958400  1
  H  H398  1  0.949300  0.855900  0.958400  1
  H  H399  1  0.449300  0.644100  0.041600  1
  H  H400  1  0.550700  0.355900  0.041600  1
  H  H401  1  0.714200  0.571000  0.460200  1
  H  H402  1  0.285800  0.429000  0.460200  1
  H  H403  1  0.785800  0.071000  0.539800  1
  H  H404  1  0.214200  0.929000  0.539800  1
  H  H405  1  0.773700  0.591400  0.461900  1
  H  H406  1  0.226300  0.408600  0.461900  1
  H  H407  1  0.726300  0.091400  0.538100  1
  H  H408  1  0.273700  0.908600  0.538100  1
  H  H409  1  0.748400  0.691200  0.360600  1
  H  H410  1  0.251600  0.308800  0.360600  1
  H  H411  1  0.751600  0.191200  0.639400  1
  H  H412  1  0.248400  0.808800  0.639400  1
  H  H413  1  0.687600  0.680900  0.372600  1
  H  H414  1  0.312400  0.319100  0.372600  1
  H  H415  1  0.812400  0.180900  0.627400  1
  H  H416  1  0.187600  0.819100  0.627400  1
  H  H417  1  0.672900  0.643000  0.460700  1
  H  H418  1  0.327100  0.357000  0.460700  1
  H  H419  1  0.827100  0.143000  0.539300  1
  H  H420  1  0.172900  0.857000  0.539300  1
  H  H421  1  0.777400  0.693200  0.434800  1
  H  H422  1  0.222600  0.306800  0.434800  1
  H  H423  1  0.722600  0.193200  0.565200  1
  H  H424  1  0.277400  0.806800  0.565200  1
  H  H425  1  0.676100  0.739700  0.439000  1
  H  H426  1  0.323900  0.260300  0.439000  1
  H  H427  1  0.823900  0.239700  0.561000  1
  H  H428  1  0.176100  0.760300  0.561000  1
  H  H429  1  0.737000  0.762600  0.426100  1
  H  H430  1  0.263000  0.237400  0.426100  1
  H  H431  1  0.763000  0.262600  0.573900  1
  H  H432  1  0.237000  0.737400  0.573900  1
  H  H433  1  0.704800  0.780300  0.506700  1
  H  H434  1  0.295200  0.219700  0.506700  1
  H  H435  1  0.795200  0.280300  0.493300  1
  H  H436  1  0.204800  0.719700  0.493300  1
  H  H437  1  0.767800  0.757100  0.504000  1
  H  H438  1  0.232200  0.242900  0.504000  1
  H  H439  1  0.732200  0.257100  0.496000  1
  H  H440  1  0.267800  0.742900  0.496000  1
  H  H441  1  0.718400  0.709900  0.564400  1
  H  H442  1  0.281600  0.290100  0.564400  1
  H  H443  1  0.781600  0.209900  0.435600  1
  H  H444  1  0.218400  0.790100  0.435600  1
  H  H445  1  0.664400  0.701800  0.530500  1
  H  H446  1  0.335600  0.298200  0.530500  1
  H  H447  1  0.835600  0.201800  0.469500  1
  H  H448  1  0.164400  0.798200  0.469500  1
  H  H449  1  0.713300  0.625800  0.535100  1
  H  H450  1  0.286700  0.374200  0.535100  1
  H  H451  1  0.786700  0.125800  0.464900  1
  H  H452  1  0.213300  0.874200  0.464900  1
  H  H453  1  0.772200  0.652100  0.519900  1
  H  H454  1  0.227800  0.347900  0.519900  1
  H  H455  1  0.727800  0.152100  0.480100  1
  H  H456  1  0.272200  0.847900  0.480100  1
  H  H457  1  0.542700  0.151900  0.466700  1
  H  H458  1  0.457300  0.848100  0.466700  1
  H  H459  1  0.957300  0.651900  0.533300  1
  H  H460  1  0.042700  0.348100  0.533300  1
  H  H461  1  0.498400  0.192000  0.468300  1
  H  H462  1  0.501600  0.808000  0.468300  1
  H  H463  1  0.001600  0.692000  0.531700  1
  H  H464  1  0.998400  0.308000  0.531700  1
  H  H465  1  0.399400  0.135500  0.372700  1
  H  H466  1  0.600600  0.864500  0.372700  1
  H  H467  1  0.100600  0.635500  0.627300  1
  H  H468  1  0.899400  0.364500  0.627300  1
  H  H469  1  0.431800  0.088800  0.384000  1
  H  H470  1  0.568200  0.911200  0.384000  1
  H  H471  1  0.068200  0.588800  0.616000  1
  H  H472  1  0.931800  0.411200  0.616000  1
  H  H473  1  0.478700  0.088400  0.469500  1
  H  H474  1  0.521300  0.911600  0.469500  1
  H  H475  1  0.021300  0.588400  0.530500  1
  H  H476  1  0.978700  0.411600  0.530500  1
  H  H477  1  0.393500  0.161400  0.452200  1
  H  H478  1  0.606500  0.838600  0.452200  1
  H  H479  1  0.106500  0.661400  0.547800  1
  H  H480  1  0.893500  0.338600  0.547800  1
  H  H481  1  0.384600  0.053100  0.452600  1
  H  H482  1  0.615400  0.946900  0.452600  1
  H  H483  1  0.115400  0.553100  0.547400  1
  H  H484  1  0.884600  0.446900  0.547400  1
  H  H485  1  0.332900  0.090200  0.440000  1
  H  H486  1  0.667100  0.909800  0.440000  1
  H  H487  1  0.167100  0.590200  0.560000  1
  H  H488  1  0.832900  0.409800  0.560000  1
  H  H489  1  0.327900  0.063800  0.522600  1
  H  H490  1  0.672100  0.936200  0.522600  1
  H  H491  1  0.172100  0.563800  0.477400  1
  H  H492  1  0.827900  0.436200  0.477400  1
  H  H493  1  0.334500  0.123400  0.519000  1
  H  H494  1  0.665500  0.876600  0.519000  1
  H  H495  1  0.165500  0.623400  0.481000  1
  H  H496  1  0.834500  0.376600  0.481000  1
  H  H497  1  0.403700  0.091700  0.577400  1
  H  H498  1  0.596300  0.908300  0.577400  1
  H  H499  1  0.096300  0.591700  0.422600  1
  H  H500  1  0.903700  0.408300  0.422600  1
  H  H501  1  0.429900  0.054700  0.538300  1
  H  H502  1  0.570100  0.945300  0.538300  1
  H  H503  1  0.070100  0.554700  0.461700  1
  H  H504  1  0.929900  0.445300  0.461700  1
  H  H505  1  0.442200  0.162100  0.537100  1
  H  H506  1  0.557800  0.837900  0.537100  1
  H  H507  1  0.057800  0.662100  0.462900  1
  H  H508  1  0.942200  0.337900  0.462900  1
  H  H509  1  0.493200  0.122600  0.545300  1
  H  H510  1  0.506800  0.877400  0.545300  1
  H  H511  1  0.006800  0.622600  0.454700  1
  H  H512  1  0.993200  0.377400  0.454700  1
  H  H513  1  0.047700  0.240300  0.437400  1
  H  H514  1  0.952300  0.759700  0.437400  1
  H  H515  1  0.452300  0.740300  0.562600  1
  H  H516  1  0.547700  0.259700  0.562600  1
  H  H517  1  0.025700  0.188500  0.447200  1
  H  H518  1  0.974300  0.811500  0.447200  1
  H  H519  1  0.474300  0.688500  0.552800  1
  H  H520  1  0.525700  0.311500  0.552800  1
  H  H521  1  0.137800  0.143300  0.338600  1
  H  H522  1  0.862200  0.856700  0.338600  1
  H  H523  1  0.362200  0.643300  0.661400  1
  H  H524  1  0.637800  0.356700  0.661400  1
  H  H525  1  0.156800  0.193300  0.357800  1
  H  H526  1  0.843200  0.806700  0.357800  1
  H  H527  1  0.343200  0.693300  0.642200  1
  H  H528  1  0.656800  0.306700  0.642200  1
  H  H529  1  0.139400  0.219100  0.442900  1
  H  H530  1  0.860600  0.780900  0.442900  1
  H  H531  1  0.360600  0.719100  0.557100  1
  H  H532  1  0.639400  0.280900  0.557100  1
  H  H533  1  0.096700  0.122000  0.413200  1
  H  H534  1  0.903300  0.878000  0.413200  1
  H  H535  1  0.403300  0.622000  0.586800  1
  H  H536  1  0.596700  0.378000  0.586800  1
  H  H537  1  0.216800  0.141200  0.422100  1
  H  H538  1  0.783200  0.858800  0.422100  1
  H  H539  1  0.283200  0.641200  0.577900  1
  H  H540  1  0.716800  0.358800  0.577900  1
  H  H541  1  0.189500  0.090800  0.401400  1
  H  H542  1  0.810500  0.909200  0.401400  1
  H  H543  1  0.310500  0.590800  0.598600  1
  H  H544  1  0.689500  0.409200  0.598600  1
  H  H545  1  0.217900  0.078100  0.486800  1
  H  H546  1  0.782100  0.921900  0.486800  1
  H  H547  1  0.282100  0.578100  0.513200  1
  H  H548  1  0.717900  0.421900  0.513200  1
  H  H549  1  0.149700  0.071200  0.482100  1
  H  H550  1  0.850300  0.928800  0.482100  1
  H  H551  1  0.350300  0.571200  0.517900  1
  H  H552  1  0.649700  0.428800  0.517900  1
  H  H553  1  0.202500  0.171300  0.502500  1
  H  H554  1  0.797500  0.828700  0.502500  1
  H  H555  1  0.297500  0.671300  0.497500  1
  H  H556  1  0.702500  0.328700  0.497500  1
  H  H557  1  0.173900  0.139100  0.544300  1
  H  H558  1  0.826100  0.860900  0.544300  1
  H  H559  1  0.326100  0.639100  0.455700  1
  H  H560  1  0.673900  0.360900  0.455700  1
  H  H561  1  0.076400  0.148700  0.501400  1
  H  H562  1  0.923600  0.851300  0.501400  1
  H  H563  1  0.423600  0.648700  0.498600  1
  H  H564  1  0.576400  0.351300  0.498600  1
  H  H565  1  0.100000  0.202100  0.519000  1
  H  H566  1  0.900000  0.797900  0.519000  1
  H  H567  1  0.400000  0.702100  0.481000  1
  H  H568  1  0.600000  0.297900  0.481000  1
  H  H569  1  0.115600  0.096400  0.411900  1
  H  H570  1  0.884400  0.903600  0.411900  1
  H  H571  1  0.384400  0.596400  0.588100  1
  H  H572  1  0.615600  0.403600  0.588100  1
  H  H573  1  0.054700  0.204300  0.448600  1
  H  H574  1  0.945300  0.795700  0.448600  1
  H  H575  1  0.445300  0.704300  0.551400  1
  H  H576  1  0.554700  0.295700  0.551400  1
  H  H577  1  0.039800  0.151100  0.440300  1
  H  H578  1  0.960200  0.848900  0.440300  1
  H  H579  1  0.460200  0.651100  0.559700  1
  H  H580  1  0.539800  0.348900  0.559700  1
  H  H581  1  0.128900  0.114000  0.341700  1
  H  H582  1  0.871100  0.886000  0.341700  1
  H  H583  1  0.371100  0.614000  0.658300  1
  H  H584  1  0.628900  0.386000  0.658300  1
  H  H585  1  0.165500  0.158600  0.350800  1
  H  H586  1  0.834500  0.841400  0.350800  1
  H  H587  1  0.334500  0.658600  0.649200  1
  H  H588  1  0.665500  0.341400  0.649200  1
  H  H589  1  0.146700  0.191200  0.449700  1
  H  H590  1  0.853300  0.808800  0.449700  1
  H  H591  1  0.353300  0.691200  0.550300  1
  H  H592  1  0.646700  0.308800  0.550300  1
  H  H593  1  0.231600  0.121800  0.422600  1
  H  H594  1  0.768400  0.878200  0.422600  1
  H  H595  1  0.268400  0.621800  0.577400  1
  H  H596  1  0.731600  0.378200  0.577400  1
  H  H597  1  0.209900  0.075000  0.391900  1
  H  H598  1  0.790100  0.925000  0.391900  1
  H  H599  1  0.290100  0.575000  0.608100  1
  H  H600  1  0.709900  0.425000  0.608100  1
  H  H601  1  0.234200  0.047700  0.475400  1
  H  H602  1  0.765800  0.952300  0.475400  1
  H  H603  1  0.265800  0.547700  0.524600  1
  H  H604  1  0.734200  0.452300  0.524600  1
  H  H605  1  0.167400  0.037100  0.465300  1
  H  H606  1  0.832600  0.962900  0.465300  1
  H  H607  1  0.332600  0.537100  0.534700  1
  H  H608  1  0.667400  0.462900  0.534700  1
  H  H609  1  0.210000  0.133200  0.506800  1
  H  H610  1  0.790000  0.866800  0.506800  1
  H  H611  1  0.290000  0.633200  0.493200  1
  H  H612  1  0.710000  0.366800  0.493200  1
  H  H613  1  0.178400  0.092300  0.538900  1
  H  H614  1  0.821600  0.907700  0.538900  1
  H  H615  1  0.321600  0.592300  0.461100  1
  H  H616  1  0.678400  0.407700  0.461100  1
  H  H617  1  0.085000  0.111300  0.496300  1
  H  H618  1  0.915000  0.888700  0.496300  1
  H  H619  1  0.415000  0.611300  0.503700  1
  H  H620  1  0.585000  0.388700  0.503700  1
  H  H621  1  0.108500  0.161200  0.521400  1
  H  H622  1  0.891500  0.838800  0.521400  1
  H  H623  1  0.391500  0.661200  0.478600  1
  H  H624  1  0.608500  0.338800  0.478600  1
  H  H625  1  0.003900  0.502600  0.255300  1
  H  H626  1  0.996100  0.497400  0.255300  1
  H  H627  1  0.496100  0.002600  0.744700  1
  H  H628  1  0.503900  0.997400  0.744700  1
  H  H629  1  0.930300  0.530900  0.187100  1
  H  H630  1  0.069700  0.469100  0.187100  1
  H  H631  1  0.569700  0.030900  0.812900  1
  H  H632  1  0.430300  0.969100  0.812900  1
  H  H633  1  0.992600  0.487500  0.137100  1
  H  H634  1  0.007400  0.512500  0.137100  1
  H  H635  1  0.507400  0.987500  0.862900  1
  H  H636  1  0.492600  0.012500  0.862900  1
  Pt  Pt637  1  0.735240  0.602360  0.132660  1
  Pt  Pt638  1  0.264760  0.397640  0.132660  1
  Pt  Pt639  1  0.764760  0.102360  0.867340  1
  Pt  Pt640  1  0.235240  0.897640  0.867340  1
  Pt  Pt641  1  0.488190  0.160300  0.141850  1
  Pt  Pt642  1  0.511810  0.839700  0.141850  1
  Pt  Pt643  1  0.011810  0.660300  0.858150  1
  Pt  Pt644  1  0.988190  0.339700  0.858150  1
  Pt  Pt645  1  0.043100  0.192030  0.116450  1
  Pt  Pt646  1  0.956900  0.807970  0.116450  1
  Pt  Pt647  1  0.456900  0.692030  0.883550  1
  Pt  Pt648  1  0.543100  0.307970  0.883550  1
  Pt  Pt649  1  0.739350  0.599210  0.374640  1
  Pt  Pt650  1  0.260650  0.400790  0.374640  1
  Pt  Pt651  1  0.760650  0.099210  0.625360  1
  Pt  Pt652  1  0.239350  0.900790  0.625360  1
  Pt  Pt653  1  0.501420  0.159400  0.383780  1
  Pt  Pt654  1  0.498580  0.840600  0.383780  1
  Pt  Pt655  1  0.998580  0.659400  0.616220  1
  Pt  Pt656  1  0.001420  0.340600  0.616220  1
  Pt  Pt657  1  0.057250  0.190350  0.358400  1
  Pt  Pt658  1  0.942750  0.809650  0.358400  1
  Pt  Pt659  1  0.442750  0.690350  0.641600  1
  Pt  Pt660  1  0.557250  0.309650  0.641600  1
  C  C661  1  0.688900  0.454200  0.257600  1
  C  C662  1  0.311100  0.545800  0.257600  1
  C  C663  1  0.811100  0.954200  0.742400  1
  C  C664  1  0.188900  0.045800  0.742400  1
  C  C665  1  0.778300  0.424300  0.250600  1
  C  C666  1  0.221700  0.575700  0.250600  1
  C  C667  1  0.721700  0.924300  0.749400  1
  C  C668  1  0.278300  0.075700  0.749400  1
  C  C669  1  0.757100  0.375900  0.250600  1
  C  C670  1  0.242900  0.624100  0.250600  1
  C  C671  1  0.742900  0.875900  0.749400  1
  C  C672  1  0.257100  0.124100  0.749400  1
  C  C673  1  0.697600  0.367600  0.254000  1
  C  C674  1  0.302400  0.632400  0.254000  1
  C  C675  1  0.802400  0.867600  0.746000  1
  C  C676  1  0.197600  0.132400  0.746000  1
  C  C677  1  0.849100  0.371300  0.244800  1
  C  C678  1  0.150900  0.628700  0.244800  1
  C  C679  1  0.650900  0.871300  0.755200  1
  C  C680  1  0.349100  0.128700  0.755200  1
  C  C681  1  0.876400  0.464000  0.247900  1
  C  C682  1  0.123600  0.536000  0.247900  1
  C  C683  1  0.623600  0.964000  0.752100  1
  C  C684  1  0.376400  0.036000  0.752100  1
  C  C685  1  0.932200  0.458000  0.274200  1
  C  C686  1  0.067800  0.542000  0.274200  1
  C  C687  1  0.567800  0.958000  0.725800  1
  C  C688  1  0.432200  0.042000  0.725800  1
  C  C689  1  0.961500  0.502800  0.251300  1
  C  C690  1  0.038500  0.497200  0.251300  1
  C  C691  1  0.538500  0.002800  0.748700  1
  C  C692  1  0.461500  0.997200  0.748700  1
  C  C693  1  0.942000  0.496900  0.198300  1
  C  C694  1  0.058000  0.503100  0.198300  1
  C  C695  1  0.558000  0.996900  0.801700  1
  C  C696  1  0.442000  0.003100  0.801700  1
  C  C697  1  0.963000  0.469000  0.154400  1
  C  C698  1  0.037000  0.531000  0.154400  1
  C  C699  1  0.537000  0.969000  0.845600  1
  C  C700  1  0.463000  0.031000  0.845600  1
  C  C701  1  0.776200  0.208700  0.248500  1
  C  C702  1  0.223800  0.791300  0.248500  1
  C  C703  1  0.723800  0.708700  0.751500  1
  C  C704  1  0.276200  0.291300  0.751500  1
  C  C705  1  0.880600  0.217800  0.244500  1
  C  C706  1  0.119400  0.782200  0.244500  1
  C  C707  1  0.619400  0.717800  0.755500  1
  C  C708  1  0.380600  0.282200  0.755500  1
  C  C709  1  0.886900  0.166600  0.244400  1
  C  C710  1  0.113100  0.833400  0.244400  1
  C  C711  1  0.613100  0.666600  0.755600  1
  C  C712  1  0.386900  0.333400  0.755600  1
  C  C713  1  0.837900  0.139000  0.246900  1
  C  C714  1  0.162100  0.861000  0.246900  1
  C  C715  1  0.662100  0.639000  0.753100  1
  C  C716  1  0.337900  0.361000  0.753100  1
  C  C717  1  0.739000  0.123000  0.238400  1
  C  C718  1  0.261000  0.877000  0.238400  1
  C  C719  1  0.761000  0.623000  0.761600  1
  C  C720  1  0.239000  0.377000  0.761600  1
  C  C721  1  0.752000  0.090500  0.196000  1
  C  C722  1  0.248000  0.909500  0.196000  1
  C  C723  1  0.748000  0.590500  0.804000  1
  C  C724  1  0.252000  0.409500  0.804000  1
  C  C725  1  0.721000  0.043700  0.212600  1
  C  C726  1  0.279000  0.956300  0.212600  1
  C  C727  1  0.779000  0.543700  0.787400  1
  C  C728  1  0.221000  0.456300  0.787400  1
  C  C729  1  0.730100  0.045200  0.268100  1
  C  C730  1  0.269900  0.954800  0.268100  1
  C  C731  1  0.769900  0.545200  0.731900  1
  C  C732  1  0.230100  0.454800  0.731900  1
  C  C733  1  0.779000  0.041000  0.303200  1
  C  C734  1  0.221000  0.959000  0.303200  1
  C  C735  1  0.721000  0.541000  0.696800  1
  C  C736  1  0.279000  0.459000  0.696800  1
  C  C737  1  0.556100  0.252900  0.141100  1
  C  C738  1  0.443900  0.747100  0.141100  1
  C  C739  1  0.943900  0.752900  0.858900  1
  C  C740  1  0.056100  0.247100  0.858900  1
  C  C741  1  0.603000  0.283900  0.144000  1
  C  C742  1  0.397000  0.716100  0.144000  1
  C  C743  1  0.897000  0.783900  0.856000  1
  C  C744  1  0.103000  0.216100  0.856000  1
  C  C745  1  0.657900  0.261500  0.139100  1
  C  C746  1  0.342100  0.738500  0.139100  1
  C  C747  1  0.842100  0.761500  0.860900  1
  C  C748  1  0.157900  0.238500  0.860900  1
  C  C749  1  0.658500  0.211300  0.136200  1
  C  C750  1  0.341500  0.788700  0.136200  1
  C  C751  1  0.841500  0.711300  0.863800  1
  C  C752  1  0.158500  0.288700  0.863800  1
  C  C753  1  0.608500  0.182800  0.138100  1
  C  C754  1  0.391500  0.817200  0.138100  1
  C  C755  1  0.891500  0.682800  0.861900  1
  C  C756  1  0.108500  0.317200  0.861900  1
  C  C757  1  0.918600  0.200400  0.124800  1
  C  C758  1  0.081400  0.799600  0.124800  1
  C  C759  1  0.581400  0.700400  0.875200  1
  C  C760  1  0.418600  0.299600  0.875200  1
  C  C761  1  0.865700  0.221700  0.129000  1
  C  C762  1  0.134300  0.778300  0.129000  1
  C  C763  1  0.634300  0.721700  0.871000  1
  C  C764  1  0.365700  0.278300  0.871000  1
  C  C765  1  0.861100  0.273200  0.129400  1
  C  C766  1  0.138900  0.726800  0.129400  1
  C  C767  1  0.638900  0.773200  0.870600  1
  C  C768  1  0.361100  0.226800  0.870600  1
  C  C769  1  0.911300  0.301600  0.123700  1
  C  C770  1  0.088700  0.698400  0.123700  1
  C  C771  1  0.588700  0.801600  0.876300  1
  C  C772  1  0.411300  0.198400  0.876300  1
  C  C773  1  0.963100  0.275200  0.118500  1
  C  C774  1  0.036900  0.724800  0.118500  1
  C  C775  1  0.536900  0.775200  0.881500  1
  C  C776  1  0.463100  0.224800  0.881500  1
  C  C777  1  0.790600  0.506600  0.125500  1
  C  C778  1  0.209400  0.493400  0.125500  1
  C  C779  1  0.709400  0.006600  0.874500  1
  C  C780  1  0.290600  0.993400  0.874500  1
  C  C781  1  0.796700  0.451800  0.127400  1
  C  C782  1  0.203300  0.548200  0.127400  1
  C  C783  1  0.703300  0.951800  0.872600  1
  C  C784  1  0.296700  0.048200  0.872600  1
  C  C785  1  0.746900  0.421200  0.133100  1
  C  C786  1  0.253100  0.578800  0.133100  1
  C  C787  1  0.753100  0.921200  0.866900  1
  C  C788  1  0.246900  0.078800  0.866900  1
  C  C789  1  0.695600  0.446300  0.141600  1
  C  C790  1  0.304400  0.553700  0.141600  1
  C  C791  1  0.804400  0.946300  0.858400  1
  C  C792  1  0.195600  0.053700  0.858400  1
  C  C793  1  0.697100  0.496700  0.140900  1
  C  C794  1  0.302900  0.503300  0.140900  1
  C  C795  1  0.802900  0.996700  0.859100  1
  C  C796  1  0.197100  0.003300  0.859100  1
  C  C797  1  0.708500  0.291700  0.138600  1
  C  C798  1  0.291500  0.708300  0.138600  1
  C  C799  1  0.791500  0.791700  0.861400  1
  C  C800  1  0.208500  0.208300  0.861400  1
  C  C801  1  0.805300  0.297500  0.131300  1
  C  C802  1  0.194700  0.702500  0.131300  1
  C  C803  1  0.694700  0.797500  0.868700  1
  C  C804  1  0.305300  0.202500  0.868700  1
  C  C805  1  0.751100  0.369500  0.134500  1
  C  C806  1  0.248900  0.630500  0.134500  1
  C  C807  1  0.748900  0.869500  0.865500  1
  C  C808  1  0.251100  0.130500  0.865500  1
  C  C809  1  0.623100  0.179000  0.374300  1
  C  C810  1  0.376900  0.821000  0.374300  1
  C  C811  1  0.876900  0.679000  0.625700  1
  C  C812  1  0.123100  0.321000  0.625700  1
  C  C813  1  0.678700  0.206900  0.369700  1
  C  C814  1  0.321300  0.793100  0.369700  1
  C  C815  1  0.821300  0.706900  0.630300  1
  C  C816  1  0.178700  0.293100  0.630300  1
  C  C817  1  0.670800  0.258600  0.371100  1
  C  C818  1  0.329200  0.741400  0.371100  1
  C  C819  1  0.829200  0.758600  0.628900  1
  C  C820  1  0.170800  0.241400  0.628900  1
  C  C821  1  0.618400  0.280200  0.377400  1
  C  C822  1  0.381600  0.719800  0.377400  1
  C  C823  1  0.881600  0.780200  0.622600  1
  C  C824  1  0.118400  0.219800  0.622600  1
  C  C825  1  0.570700  0.251700  0.379800  1
  C  C826  1  0.429300  0.748300  0.379800  1
  C  C827  1  0.929300  0.751700  0.620200  1
  C  C828  1  0.070700  0.248300  0.620200  1
  C  C829  1  0.704600  0.492400  0.375800  1
  C  C830  1  0.295400  0.507600  0.375800  1
  C  C831  1  0.795400  0.992400  0.624200  1
  C  C832  1  0.204600  0.007600  0.624200  1
  C  C833  1  0.705500  0.444300  0.372800  1
  C  C834  1  0.294500  0.555700  0.372800  1
  C  C835  1  0.794500  0.944300  0.627200  1
  C  C836  1  0.205500  0.055700  0.627200  1
  C  C837  1  0.759900  0.424200  0.368800  1
  C  C838  1  0.240100  0.575800  0.368800  1
  C  C839  1  0.740100  0.924200  0.631200  1
  C  C840  1  0.259900  0.075800  0.631200  1
  C  C841  1  0.804900  0.455100  0.363900  1
  C  C842  1  0.195100  0.544900  0.363900  1
  C  C843  1  0.695100  0.955100  0.636100  1
  C  C844  1  0.304900  0.044900  0.636100  1
  C  C845  1  0.798200  0.502400  0.367100  1
  C  C846  1  0.201800  0.497600  0.367100  1
  C  C847  1  0.701800  0.002400  0.632900  1
  C  C848  1  0.298200  0.997600  0.632900  1
  C  C849  1  0.974300  0.274900  0.358300  1
  C  C850  1  0.025700  0.725100  0.358300  1
  C  C851  1  0.525700  0.774900  0.641700  1
  C  C852  1  0.474300  0.225100  0.641700  1
  C  C853  1  0.923900  0.296000  0.360700  1
  C  C854  1  0.076100  0.704000  0.360700  1
  C  C855  1  0.576100  0.796000  0.639300  1
  C  C856  1  0.423900  0.204000  0.639300  1
  C  C857  1  0.874100  0.272900  0.360500  1
  C  C858  1  0.125900  0.727100  0.360500  1
  C  C859  1  0.625900  0.772900  0.639500  1
  C  C860  1  0.374100  0.227100  0.639500  1
  C  C861  1  0.879100  0.220900  0.360000  1
  C  C862  1  0.120900  0.779100  0.360000  1
  C  C863  1  0.620900  0.720900  0.640000  1
  C  C864  1  0.379100  0.279100  0.640000  1
  C  C865  1  0.932500  0.197100  0.358200  1
  C  C866  1  0.067500  0.802900  0.358200  1
  C  C867  1  0.567500  0.697100  0.641800  1
  C  C868  1  0.432500  0.302900  0.641800  1
  C  C869  1  0.723900  0.288600  0.365700  1
  C  C870  1  0.276100  0.711400  0.365700  1
  C  C871  1  0.776100  0.788600  0.634300  1
  C  C872  1  0.223900  0.211400  0.634300  1
  C  C873  1  0.764700  0.367000  0.366800  1
  C  C874  1  0.235300  0.633000  0.366800  1
  C  C875  1  0.735300  0.867000  0.633200  1
  C  C876  1  0.264700  0.133000  0.633200  1
  C  C877  1  0.819400  0.297900  0.362000  1
  C  C878  1  0.180600  0.702100  0.362000  1
  C  C879  1  0.680600  0.797900  0.638000  1
  C  C880  1  0.319400  0.202100  0.638000  1
  C  C881  1  0.782400  0.601400  0.277100  1
  C  C882  1  0.217600  0.398600  0.277100  1
  C  C883  1  0.717600  0.101400  0.722900  1
  C  C884  1  0.282400  0.898600  0.722900  1
  C  C885  1  0.784600  0.600900  0.229500  1
  C  C886  1  0.215400  0.399100  0.229500  1
  C  C887  1  0.715400  0.100900  0.770500  1
  C  C888  1  0.284600  0.899100  0.770500  1
  C  C889  1  0.689300  0.605200  0.230000  1
  C  C890  1  0.310700  0.394800  0.230000  1
  C  C891  1  0.810700  0.105200  0.770000  1
  C  C892  1  0.189300  0.894800  0.770000  1
  C  C893  1  0.693300  0.603500  0.280700  1
  C  C894  1  0.306700  0.396500  0.280700  1
  C  C895  1  0.806700  0.103500  0.719300  1
  C  C896  1  0.193300  0.896500  0.719300  1
  C  C897  1  0.044900  0.150500  0.263800  1
  C  C898  1  0.955100  0.849500  0.263800  1
  C  C899  1  0.455100  0.650500  0.736200  1
  C  C900  1  0.544900  0.349500  0.736200  1
  C  C901  1  0.039600  0.150900  0.212100  1
  C  C902  1  0.960400  0.849100  0.212100  1
  C  C903  1  0.460400  0.650900  0.787900  1
  C  C904  1  0.539600  0.349100  0.787900  1
  C  C905  1  0.066700  0.228200  0.212000  1
  C  C906  1  0.933300  0.771800  0.212000  1
  C  C907  1  0.433300  0.728200  0.788000  1
  C  C908  1  0.566700  0.271800  0.788000  1
  C  C909  1  0.068900  0.229200  0.261600  1
  C  C910  1  0.931100  0.770800  0.261600  1
  C  C911  1  0.431100  0.729200  0.738400  1
  C  C912  1  0.568900  0.270800  0.738400  1
  C  C913  1  0.467700  0.194900  0.291300  1
  C  C914  1  0.532300  0.805100  0.291300  1
  C  C915  1  0.032300  0.694900  0.708700  1
  C  C916  1  0.967700  0.305100  0.708700  1
  C  C917  1  0.468100  0.193600  0.239700  1
  C  C918  1  0.531900  0.806400  0.239700  1
  C  C919  1  0.031900  0.693600  0.760300  1
  C  C920  1  0.968100  0.306400  0.760300  1
  C  C921  1  0.514700  0.123400  0.236200  1
  C  C922  1  0.485300  0.876600  0.236200  1
  C  C923  1  0.985300  0.623400  0.763800  1
  C  C924  1  0.014700  0.376600  0.763800  1
  C  C925  1  0.513100  0.123600  0.288600  1
  C  C926  1  0.486900  0.876400  0.288600  1
  C  C927  1  0.986900  0.623600  0.711400  1
  C  C928  1  0.013100  0.376400  0.711400  1
  C  C929  1  0.746300  0.653000  0.043300  1
  C  C930  1  0.253700  0.347000  0.043300  1
  C  C931  1  0.753700  0.153000  0.956700  1
  C  C932  1  0.246300  0.847000  0.956700  1
  C  C933  1  0.713400  0.689100  0.077700  1
  C  C934  1  0.286600  0.310900  0.077700  1
  C  C935  1  0.786600  0.189100  0.922300  1
  C  C936  1  0.213400  0.810900  0.922300  1
  C  C937  1  0.722100  0.745200  0.067000  1
  C  C938  1  0.277900  0.254800  0.067000  1
  C  C939  1  0.777900  0.245200  0.933000  1
  C  C940  1  0.222100  0.754800  0.933000  1
  C  C941  1  0.706200  0.758500  0.012600  1
  C  C942  1  0.293800  0.241500  0.012600  1
  C  C943  1  0.793800  0.258500  0.987400  1
  C  C944  1  0.206200  0.741500  0.987400  1
  C  C945  1  0.744500  0.719900  0.979400  1
  C  C946  1  0.255500  0.280100  0.979400  1
  C  C947  1  0.755500  0.219900  0.020600  1
  C  C948  1  0.244500  0.780100  0.020600  1
  C  C949  1  0.730600  0.658700  0.990900  1
  C  C950  1  0.269400  0.341300  0.990900  1
  C  C951  1  0.769400  0.158700  0.009100  1
  C  C952  1  0.230600  0.841300  0.009100  1
  C  C953  1  0.424400  0.141400  0.058300  1
  C  C954  1  0.575600  0.858600  0.058300  1
  C  C955  1  0.075600  0.641400  0.941700  1
  C  C956  1  0.924400  0.358600  0.941700  1
  C  C957  1  0.409300  0.100500  0.089200  1
  C  C958  1  0.590700  0.899500  0.089200  1
  C  C959  1  0.090700  0.600500  0.910800  1
  C  C960  1  0.909300  0.399500  0.910800  1
  C  C961  1  0.345000  0.082800  0.082100  1
  C  C962  1  0.655000  0.917200  0.082100  1
  C  C963  1  0.155000  0.582800  0.917900  1
  C  C964  1  0.845000  0.417200  0.917900  1
  C  C965  1  0.341100  0.065100  0.030500  1
  C  C966  1  0.658900  0.934900  0.030500  1
  C  C967  1  0.158900  0.565100  0.969500  1
  C  C968  1  0.841100  0.434900  0.969500  1
  C  C969  1  0.356100  0.109200  0.995500  1
  C  C970  1  0.643900  0.890800  0.995500  1
  C  C971  1  0.143900  0.609200  0.004500  1
  C  C972  1  0.856100  0.390800  0.004500  1
  C  C973  1  0.422000  0.128300  0.001800  1
  C  C974  1  0.578000  0.871700  0.001800  1
  C  C975  1  0.078000  0.628300  0.998200  1
  C  C976  1  0.922000  0.371700  0.998200  1
  C  C977  1  0.076200  0.149400  0.027700  1
  C  C978  1  0.923800  0.850600  0.027700  1
  C  C979  1  0.423800  0.649400  0.972300  1
  C  C980  1  0.576200  0.350600  0.972300  1
  C  C981  1  0.134300  0.162500  0.054000  1
  C  C982  1  0.865700  0.837500  0.054000  1
  C  C983  1  0.365700  0.662500  0.946000  1
  C  C984  1  0.634300  0.337500  0.946000  1
  C  C985  1  0.180300  0.127200  0.041800  1
  C  C986  1  0.819700  0.872800  0.041800  1
  C  C987  1  0.319700  0.627200  0.958200  1
  C  C988  1  0.680300  0.372800  0.958200  1
  C  C989  1  0.185000  0.124800  0.982900  1
  C  C990  1  0.815000  0.875200  0.982900  1
  C  C991  1  0.315000  0.624800  0.017100  1
  C  C992  1  0.685000  0.375200  0.017100  1
  C  C993  1  0.134400  0.117200  0.959200  1
  C  C994  1  0.865600  0.882800  0.959200  1
  C  C995  1  0.365600  0.617200  0.040800  1
  C  C996  1  0.634400  0.382800  0.040800  1
  C  C997  1  0.086300  0.152700  0.975500  1
  C  C998  1  0.913700  0.847300  0.975500  1
  C  C999  1  0.413700  0.652700  0.024500  1
  C  C1000  1  0.586300  0.347300  0.024500  1
  C  C1001  1  0.715400  0.645100  0.462900  1
  C  C1002  1  0.284600  0.354900  0.462900  1
  C  C1003  1  0.784600  0.145100  0.537100  1
  C  C1004  1  0.215400  0.854900  0.537100  1
  C  C1005  1  0.734900  0.692200  0.431500  1
  C  C1006  1  0.265100  0.307800  0.431500  1
  C  C1007  1  0.765100  0.192200  0.568500  1
  C  C1008  1  0.234900  0.807800  0.568500  1
  C  C1009  1  0.717400  0.737000  0.445800  1
  C  C1010  1  0.282600  0.263000  0.445800  1
  C  C1011  1  0.782600  0.237000  0.554200  1
  C  C1012  1  0.217400  0.763000  0.554200  1
  C  C1013  1  0.726900  0.750100  0.498300  1
  C  C1014  1  0.273100  0.249900  0.498300  1
  C  C1015  1  0.773100  0.250100  0.501700  1
  C  C1016  1  0.226900  0.749900  0.501700  1
  C  C1017  1  0.706600  0.703500  0.531000  1
  C  C1018  1  0.293400  0.296500  0.531000  1
  C  C1019  1  0.793400  0.203500  0.469000  1
  C  C1020  1  0.206600  0.796500  0.469000  1
  C  C1021  1  0.730300  0.652800  0.515600  1
  C  C1022  1  0.269700  0.347200  0.515600  1
  C  C1023  1  0.769700  0.152800  0.484400  1
  C  C1024  1  0.230300  0.847200  0.484400  1
  C  C1025  1  0.462900  0.122600  0.475600  1
  C  C1026  1  0.537100  0.877400  0.475600  1
  C  C1027  1  0.037100  0.622600  0.524400  1
  C  C1028  1  0.962900  0.377400  0.524400  1
  C  C1029  1  0.411100  0.127800  0.446600  1
  C  C1030  1  0.588900  0.872200  0.446600  1
  C  C1031  1  0.088900  0.627800  0.553400  1
  C  C1032  1  0.911100  0.372200  0.553400  1
  C  C1033  1  0.368000  0.086400  0.459300  1
  C  C1034  1  0.632000  0.913600  0.459300  1
  C  C1035  1  0.132000  0.586400  0.540700  1
  C  C1036  1  0.868000  0.413600  0.540700  1
  C  C1037  1  0.353800  0.091000  0.512800  1
  C  C1038  1  0.646200  0.909000  0.512800  1
  C  C1039  1  0.146200  0.591000  0.487200  1
  C  C1040  1  0.853800  0.409000  0.487200  1
  C  C1041  1  0.412600  0.088100  0.543000  1
  C  C1042  1  0.587400  0.911900  0.543000  1
  C  C1043  1  0.087400  0.588100  0.457000  1
  C  C1044  1  0.912600  0.411900  0.457000  1
  C  C1045  1  0.456300  0.128300  0.528900  1
  C  C1046  1  0.543700  0.871700  0.528900  1
  C  C1047  1  0.043700  0.628300  0.471100  1
  C  C1048  1  0.956300  0.371700  0.471100  1
  C  C1049  1  0.112000  0.190800  0.445900  1
  C  C1050  1  0.888000  0.809200  0.445900  1
  C  C1051  1  0.388000  0.690800  0.554100  1
  C  C1052  1  0.612000  0.309200  0.554100  1
  C  C1053  1  0.128600  0.147000  0.412200  1
  C  C1054  1  0.871400  0.853000  0.412200  1
  C  C1055  1  0.371400  0.647000  0.587800  1
  C  C1056  1  0.628600  0.353000  0.587800  1
  C  C1057  1  0.184000  0.118000  0.424700  1
  C  C1058  1  0.816000  0.882000  0.424700  1
  C  C1059  1  0.316000  0.618000  0.575300  1
  C  C1060  1  0.684000  0.382000  0.575300  1
  C  C1061  1  0.182000  0.095000  0.478200  1
  C  C1062  1  0.818000  0.905000  0.478200  1
  C  C1063  1  0.318000  0.595000  0.521800  1
  C  C1064  1  0.682000  0.405000  0.521800  1
  C  C1065  1  0.172000  0.147000  0.509900  1
  C  C1066  1  0.828000  0.853000  0.509900  1
  C  C1067  1  0.328000  0.647000  0.490100  1
  C  C1068  1  0.672000  0.353000  0.490100  1
  C  C1069  1  0.107000  0.173000  0.497600  1
  C  C1070  1  0.893000  0.827000  0.497600  1
  C  C1071  1  0.393000  0.673000  0.502400  1
  C  C1072  1  0.607000  0.327000  0.502400  1
  C  C1073  1  0.121200  0.161300  0.447600  1
  C  C1074  1  0.878800  0.838700  0.447600  1
  C  C1075  1  0.378800  0.661300  0.552400  1
  C  C1076  1  0.621200  0.338700  0.552400  1
  C  C1077  1  0.143700  0.124400  0.409300  1
  C  C1078  1  0.856300  0.875600  0.409300  1
  C  C1079  1  0.356300  0.624400  0.590700  1
  C  C1080  1  0.643700  0.375600  0.590700  1
  C  C1081  1  0.200600  0.097000  0.419300  1
  C  C1082  1  0.799400  0.903000  0.419300  1
  C  C1083  1  0.299400  0.597000  0.580700  1
  C  C1084  1  0.700600  0.403000  0.580700  1
  C  C1085  1  0.197000  0.063300  0.467600  1
  C  C1086  1  0.803000  0.936700  0.467600  1
  C  C1087  1  0.303000  0.563300  0.532400  1
  C  C1088  1  0.697000  0.436700  0.532400  1
  C  C1089  1  0.180000  0.107000  0.506700  1
  C  C1090  1  0.820000  0.893000  0.506700  1
  C  C1091  1  0.320000  0.607000  0.493300  1
  C  C1092  1  0.680000  0.393000  0.493300  1
  C  C1093  1  0.116000  0.136000  0.496400  1
  C  C1094  1  0.884000  0.864000  0.496400  1
  C  C1095  1  0.384000  0.636000  0.503600  1
  C  C1096  1  0.616000  0.364000  0.503600  1
  N  N1097  1  0.672900  0.321000  0.256500  1
  N  N1098  1  0.327100  0.679000  0.256500  1
  N  N1099  1  0.827100  0.821000  0.743500  1
  N  N1100  1  0.172900  0.179000  0.743500  1
  N  N1101  1  0.667200  0.408200  0.258300  1
  N  N1102  1  0.332800  0.591800  0.258300  1
  N  N1103  1  0.832800  0.908200  0.741700  1
  N  N1104  1  0.167200  0.091800  0.741700  1
  N  N1105  1  0.744300  0.465200  0.253800  1
  N  N1106  1  0.255700  0.534800  0.253800  1
  N  N1107  1  0.755700  0.965200  0.746200  1
  N  N1108  1  0.244300  0.034800  0.746200  1
  N  N1109  1  0.802200  0.342900  0.248600  1
  N  N1110  1  0.197800  0.657100  0.248600  1
  N  N1111  1  0.697800  0.842900  0.751400  1
  N  N1112  1  0.302200  0.157100  0.751400  1
  N  N1113  1  0.837000  0.420900  0.247700  1
  N  N1114  1  0.163000  0.579100  0.247700  1
  N  N1115  1  0.663000  0.920900  0.752300  1
  N  N1116  1  0.337000  0.079100  0.752300  1
  N  N1117  1  0.785700  0.157200  0.249200  1
  N  N1118  1  0.214300  0.842800  0.249200  1
  N  N1119  1  0.714300  0.657200  0.750800  1
  N  N1120  1  0.285700  0.342800  0.750800  1
  N  N1121  1  0.824300  0.235400  0.248300  1
  N  N1122  1  0.175700  0.764600  0.248300  1
  N  N1123  1  0.675700  0.735400  0.751700  1
  N  N1124  1  0.324300  0.264600  0.751700  1
  N  N1125  1  0.561000  0.715100  0.045700  1
  N  N1126  1  0.439000  0.284900  0.045700  1
  N  N1127  1  0.939000  0.215100  0.954300  1
  N  N1128  1  0.061000  0.784900  0.954300  1
  N  N1129  1  0.907200  0.689500  0.009700  1
  N  N1130  1  0.092800  0.310500  0.009700  1
  N  N1131  1  0.592800  0.189500  0.990300  1
  N  N1132  1  0.407200  0.810500  0.990300  1
  N  N1133  1  0.543800  0.715500  0.483600  1
  N  N1134  1  0.456200  0.284500  0.483600  1
  N  N1135  1  0.956200  0.215500  0.516400  1
  N  N1136  1  0.043800  0.784500  0.516400  1
  N  N1137  1  0.103500  0.300600  0.469400  1
  N  N1138  1  0.896500  0.699400  0.469400  1
  N  N1139  1  0.396500  0.800600  0.530600  1
  N  N1140  1  0.603500  0.199400  0.530600  1
  N  N1141  1  0.769300  0.721000  0.281900  1
  N  N1142  1  0.230700  0.279000  0.281900  1
  N  N1143  1  0.730700  0.221000  0.718100  1
  N  N1144  1  0.269300  0.779000  0.718100  1
  N  N1145  1  0.558100  0.203700  0.139700  1
  N  N1146  1  0.441900  0.796300  0.139700  1
  N  N1147  1  0.941900  0.703700  0.860300  1
  N  N1148  1  0.058100  0.296300  0.860300  1
  N  N1149  1  0.967100  0.227100  0.118400  1
  N  N1150  1  0.032900  0.772900  0.118400  1
  N  N1151  1  0.532900  0.727100  0.881600  1
  N  N1152  1  0.467100  0.272900  0.881600  1
  N  N1153  1  0.741500  0.525500  0.132700  1
  N  N1154  1  0.258500  0.474500  0.132700  1
  N  N1155  1  0.758500  0.025500  0.867300  1
  N  N1156  1  0.241500  0.974500  0.867300  1
  N  N1157  1  0.760000  0.270200  0.135400  1
  N  N1158  1  0.240000  0.729800  0.135400  1
  N  N1159  1  0.740000  0.770200  0.864600  1
  N  N1160  1  0.260000  0.229800  0.864600  1
  N  N1161  1  0.804000  0.349100  0.130500  1
  N  N1162  1  0.196000  0.650900  0.130500  1
  N  N1163  1  0.696000  0.849100  0.869500  1
  N  N1164  1  0.304000  0.150900  0.869500  1
  N  N1165  1  0.704400  0.343500  0.139800  1
  N  N1166  1  0.295600  0.656500  0.139800  1
  N  N1167  1  0.795600  0.843500  0.860200  1
  N  N1168  1  0.204400  0.156500  0.860200  1
  N  N1169  1  0.575200  0.201300  0.379700  1
  N  N1170  1  0.424800  0.798700  0.379700  1
  N  N1171  1  0.924800  0.701300  0.620300  1
  N  N1172  1  0.075200  0.298700  0.620300  1
  N  N1173  1  0.746200  0.522400  0.372600  1
  N  N1174  1  0.253800  0.477600  0.372600  1
  N  N1175  1  0.753800  0.022400  0.627400  1
  N  N1176  1  0.246200  0.977600  0.627400  1
  N  N1177  1  0.982500  0.226100  0.358300  1
  N  N1178  1  0.017500  0.773900  0.358300  1
  N  N1179  1  0.517500  0.726100  0.641700  1
  N  N1180  1  0.482500  0.273900  0.641700  1
  N  N1181  1  0.715700  0.339800  0.369200  1
  N  N1182  1  0.284300  0.660200  0.369200  1
  N  N1183  1  0.784300  0.839800  0.630800  1
  N  N1184  1  0.215700  0.160200  0.630800  1
  N  N1185  1  0.817200  0.345300  0.364700  1
  N  N1186  1  0.182800  0.654700  0.364700  1
  N  N1187  1  0.682800  0.845300  0.635300  1
  N  N1188  1  0.317200  0.154700  0.635300  1
  N  N1189  1  0.773000  0.268400  0.363600  1
  N  N1190  1  0.227000  0.731600  0.363600  1
  N  N1191  1  0.727000  0.768400  0.636400  1
  N  N1192  1  0.273000  0.231600  0.636400  1
  N  N1193  1  0.741100  0.601100  0.302300  1
  N  N1194  1  0.258900  0.398900  0.302300  1
  N  N1195  1  0.758900  0.101100  0.697700  1
  N  N1196  1  0.241100  0.898900  0.697700  1
  N  N1197  1  0.735400  0.603100  0.204800  1
  N  N1198  1  0.264600  0.396900  0.204800  1
  N  N1199  1  0.764600  0.103100  0.795200  1
  N  N1200  1  0.235400  0.896900  0.795200  1
  N  N1201  1  0.057700  0.191600  0.286600  1
  N  N1202  1  0.942300  0.808400  0.286600  1
  N  N1203  1  0.442300  0.691600  0.713400  1
  N  N1204  1  0.557700  0.308400  0.713400  1
  N  N1205  1  0.051000  0.191800  0.187900  1
  N  N1206  1  0.949000  0.808200  0.187900  1
  N  N1207  1  0.449000  0.691800  0.812100  1
  N  N1208  1  0.551000  0.308200  0.812100  1
  N  N1209  1  0.495000  0.159900  0.311800  1
  N  N1210  1  0.505000  0.840100  0.311800  1
  N  N1211  1  0.005000  0.659900  0.688200  1
  N  N1212  1  0.995000  0.340100  0.688200  1
  N  N1213  1  0.490200  0.159000  0.213500  1
  N  N1214  1  0.509800  0.841000  0.213500  1
  N  N1215  1  0.009800  0.659000  0.786500  1
  N  N1216  1  0.990200  0.341000  0.786500  1
  N  N1217  1  0.733100  0.603800  0.060200  1
  N  N1218  1  0.266900  0.396200  0.060200  1
  N  N1219  1  0.766900  0.103800  0.939800  1
  N  N1220  1  0.233100  0.896200  0.939800  1
  N  N1221  1  0.730700  0.677300  0.126100  1
  N  N1222  1  0.269300  0.322700  0.126100  1
  N  N1223  1  0.769300  0.177300  0.873900  1
  N  N1224  1  0.230700  0.822700  0.873900  1
  N  N1225  1  0.483000  0.158400  0.071000  1
  N  N1226  1  0.517000  0.841600  0.071000  1
  N  N1227  1  0.017000  0.658400  0.929000  1
  N  N1228  1  0.983000  0.341600  0.929000  1
  N  N1229  1  0.417300  0.118300  0.137900  1
  N  N1230  1  0.582700  0.881700  0.137900  1
  N  N1231  1  0.082700  0.618300  0.862100  1
  N  N1232  1  0.917300  0.381700  0.862100  1
  N  N1233  1  0.036900  0.187600  0.046000  1
  N  N1234  1  0.963100  0.812400  0.046000  1
  N  N1235  1  0.463100  0.687600  0.954000  1
  N  N1236  1  0.536900  0.312400  0.954000  1
  N  N1237  1  0.119200  0.155800  0.105200  1
  N  N1238  1  0.880800  0.844200  0.105200  1
  N  N1239  1  0.380800  0.655800  0.894800  1
  N  N1240  1  0.619200  0.344200  0.894800  1
  N  N1241  1  0.737700  0.596200  0.449700  1
  N  N1242  1  0.262300  0.403800  0.449700  1
  N  N1243  1  0.762300  0.096200  0.550300  1
  N  N1244  1  0.237700  0.903800  0.550300  1
  N  N1245  1  0.724700  0.674100  0.381200  1
  N  N1246  1  0.275300  0.325900  0.381200  1
  N  N1247  1  0.775300  0.174100  0.618800  1
  N  N1248  1  0.224700  0.825900  0.618800  1
  N  N1249  1  0.506500  0.160500  0.456900  1
  N  N1250  1  0.493500  0.839500  0.456900  1
  N  N1251  1  0.993500  0.660500  0.543100  1
  N  N1252  1  0.006500  0.339500  0.543100  1
  N  N1253  1  0.427300  0.122000  0.391800  1
  N  N1254  1  0.572700  0.878000  0.391800  1
  N  N1255  1  0.072700  0.622000  0.608200  1
  N  N1256  1  0.927300  0.378000  0.608200  1
  N  N1257  1  0.053500  0.207000  0.431900  1
  N  N1258  1  0.946500  0.793000  0.431900  1
  N  N1259  1  0.446500  0.707000  0.568100  1
  N  N1260  1  0.553500  0.293000  0.568100  1
  N  N1261  1  0.131000  0.168000  0.360900  1
  N  N1262  1  0.869000  0.832000  0.360900  1
  N  N1263  1  0.369000  0.668000  0.639100  1
  N  N1264  1  0.631000  0.332000  0.639100  1
  N  N1265  1  0.065100  0.176000  0.432200  1
  N  N1266  1  0.934900  0.824000  0.432200  1
  N  N1267  1  0.434900  0.676000  0.567800  1
  N  N1268  1  0.565100  0.324000  0.567800  1
  N  N1269  1  0.134000  0.141200  0.361400  1
  N  N1270  1  0.866000  0.858800  0.361400  1
  N  N1271  1  0.366000  0.641200  0.638600  1
  N  N1272  1  0.634000  0.358800  0.638600  1
  N  N1273  1  0.637000  0.301000  0.260000  1
  N  N1274  1  0.363000  0.699000  0.260000  1
  N  N1275  1  0.863000  0.801000  0.740000  1
  N  N1276  1  0.137000  0.199000  0.740000  1
  N  N1277  1  0.553500  0.724400  0.030900  1
  N  N1278  1  0.446500  0.275600  0.030900  1
  N  N1279  1  0.946500  0.224400  0.969100  1
  N  N1280  1  0.053500  0.775600  0.969100  1
  O  O1281  1  0.565000  0.430600  0.312600  1
  O  O1282  1  0.435000  0.569400  0.312600  1
  O  O1283  1  0.935000  0.930600  0.687400  1
  O  O1284  1  0.065000  0.069400  0.687400  1
  O  O1285  1  0.979700  0.334300  0.247600  1
  O  O1286  1  0.020300  0.665700  0.247600  1
  O  O1287  1  0.520300  0.834300  0.752400  1
  O  O1288  1  0.479700  0.165700  0.752400  1
  O  O1289  1  0.432900  0.593500  0.403700  1
  O  O1290  1  0.567100  0.406500  0.403700  1
  O  O1291  1  0.067100  0.093500  0.596300  1
  O  O1292  1  0.932900  0.906500  0.596300  1
  O  O1293  1  0.194000  0.433700  0.593500  1
  O  O1294  1  0.806000  0.566300  0.593500  1
  O  O1295  1  0.306000  0.933700  0.406500  1
  O  O1296  1  0.694000  0.066300  0.406500  1
  O  O1297  1  0.515000  0.596000  0.562000  1
  O  O1298  1  0.485000  0.404000  0.562000  1
  O  O1299  1  0.985000  0.096000  0.438000  1
  O  O1300  1  0.015000  0.904000  0.438000  1
  O  O1301  1  0.322400  0.465500  0.496000  1
  O  O1302  1  0.677600  0.534500  0.496000  1
  O  O1303  1  0.177600  0.965500  0.504000  1
  O  O1304  1  0.822400  0.034500  0.504000  1
  O  O1305  1  0.411000  0.531000  0.463800  1
  O  O1306  1  0.589000  0.469000  0.463800  1
  O  O1307  1  0.089000  0.031000  0.536200  1
  O  O1308  1  0.911000  0.969000  0.536200  1
  O  O1309  1  0.372000  0.482000  0.618000  1
  O  O1310  1  0.628000  0.518000  0.618000  1
  O  O1311  1  0.128000  0.982000  0.382000  1
  O  O1312  1  0.872000  0.018000  0.382000  1
  O  O1313  1  0.282900  0.375600  0.638200  1
  O  O1314  1  0.717100  0.624400  0.638200  1
  O  O1315  1  0.217100  0.875600  0.361800  1
  O  O1316  1  0.782900  0.124400  0.361800  1
  O  O1317  1  0.612200  0.211400  0.261100  1
  O  O1318  1  0.387800  0.788600  0.261100  1
  O  O1319  1  0.887800  0.711400  0.738900  1
  O  O1320  1  0.112200  0.288600  0.738900  1
  O  O1321  1  0.084000  0.447600  0.157000  1
  O  O1322  1  0.916000  0.552400  0.157000  1
  O  O1323  1  0.416000  0.947600  0.843000  1
  O  O1324  1  0.584000  0.052400  0.843000  1
  O  O1325  1  0.041500  0.392900  0.093600  1
  O  O1326  1  0.958500  0.607100  0.093600  1
  O  O1327  1  0.458500  0.892900  0.906400  1
  O  O1328  1  0.541500  0.107100  0.906400  1
  O  O1329  1  0.076300  0.356700  0.173300  1
  O  O1330  1  0.923700  0.643300  0.173300  1
  O  O1331  1  0.423700  0.856700  0.826700  1
  O  O1332  1  0.576300  0.143300  0.826700  1
  O  O1333  1  0.989000  0.418000  0.180500  1
  O  O1334  1  0.011000  0.582000  0.180500  1
  O  O1335  1  0.511000  0.918000  0.819500  1
  O  O1336  1  0.489000  0.082000  0.819500  1
  O  O1337  1  0.892500  0.467500  0.198700  1
  O  O1338  1  0.107500  0.532500  0.198700  1
  O  O1339  1  0.607500  0.967500  0.801300  1
  O  O1340  1  0.392500  0.032500  0.801300  1
  O  O1341  1  0.924900  0.448600  0.324000  1
  O  O1342  1  0.075100  0.551400  0.324000  1
  O  O1343  1  0.575100  0.948600  0.676000  1
  O  O1344  1  0.424900  0.051400  0.676000  1
  O  O1345  1  0.934000  0.540000  0.279800  1
  O  O1346  1  0.066000  0.460000  0.279800  1
  O  O1347  1  0.566000  0.040000  0.720200  1
  O  O1348  1  0.434000  0.960000  0.720200  1
  O  O1349  1  0.727700  0.224900  0.249900  1
  O  O1350  1  0.272300  0.775100  0.249900  1
  O  O1351  1  0.772300  0.724900  0.750100  1
  O  O1352  1  0.227700  0.275100  0.750100  1
  O  O1353  1  0.921500  0.246900  0.242300  1
  O  O1354  1  0.078500  0.753100  0.242300  1
  O  O1355  1  0.578500  0.746900  0.757700  1
  O  O1356  1  0.421500  0.253100  0.757700  1
  O  O1357  1  0.728800  0.096100  0.281200  1
  O  O1358  1  0.271200  0.903900  0.281200  1
  O  O1359  1  0.771200  0.596100  0.718800  1
  O  O1360  1  0.228800  0.403900  0.718800  1
  O  O1361  1  0.759900  0.114600  0.149900  1
  O  O1362  1  0.240100  0.885400  0.149900  1
  O  O1363  1  0.740100  0.614600  0.850100  1
  O  O1364  1  0.259900  0.385400  0.850100  1
  O  O1365  1  0.665000  0.055000  0.196000  1
  O  O1366  1  0.335000  0.945000  0.196000  1
  O  O1367  1  0.835000  0.555000  0.804000  1
  O  O1368  1  0.165000  0.445000  0.804000  1
  O  O1369  1  0.857100  0.938600  0.221000  1
  O  O1370  1  0.142900  0.061400  0.221000  1
  O  O1371  1  0.642900  0.438600  0.779000  1
  O  O1372  1  0.357100  0.561400  0.779000  1
  O  O1373  1  0.872600  0.951700  0.310100  1
  O  O1374  1  0.127400  0.048300  0.310100  1
  O  O1375  1  0.627400  0.451700  0.689900  1
  O  O1376  1  0.372600  0.548300  0.689900  1
  O  O1377  1  0.917000  0.009900  0.245100  1
  O  O1378  1  0.083000  0.990100  0.245100  1
  O  O1379  1  0.583000  0.509900  0.754900  1
  O  O1380  1  0.417000  0.490100  0.754900  1
  O  O1381  1  0.808300  0.009300  0.268800  1
  O  O1382  1  0.191700  0.990700  0.268800  1
  O  O1383  1  0.691700  0.509300  0.731200  1
  O  O1384  1  0.308300  0.490700  0.731200  1
  O  O1385  1  0.573000  0.667900  0.052100  1
  O  O1386  1  0.427000  0.332100  0.052100  1
  O  O1387  1  0.927000  0.167900  0.947900  1
  O  O1388  1  0.073000  0.832100  0.947900  1
  O  O1389  1  0.563000  0.733000  0.002800  1
  O  O1390  1  0.437000  0.267000  0.002800  1
  O  O1391  1  0.937000  0.233000  0.997200  1
  O  O1392  1  0.063000  0.767000  0.997200  1
  O  O1393  1  0.567000  0.743500  0.080800  1
  O  O1394  1  0.433000  0.256500  0.080800  1
  O  O1395  1  0.933000  0.243500  0.919200  1
  O  O1396  1  0.067000  0.756500  0.919200  1
  O  O1397  1  0.901600  0.716300  0.044300  1
  O  O1398  1  0.098400  0.283700  0.044300  1
  O  O1399  1  0.598400  0.216300  0.955700  1
  O  O1400  1  0.401600  0.783700  0.955700  1
  O  O1401  1  0.914500  0.707600  0.969900  1
  O  O1402  1  0.085500  0.292400  0.969900  1
  O  O1403  1  0.585500  0.207600  0.030100  1
  O  O1404  1  0.414500  0.792400  0.030100  1
  O  O1405  1  0.907000  0.642600  0.012400  1
  O  O1406  1  0.093000  0.357400  0.012400  1
  O  O1407  1  0.593000  0.142600  0.987600  1
  O  O1408  1  0.407000  0.857400  0.987600  1
  O  O1409  1  0.539500  0.734600  0.524900  1
  O  O1410  1  0.460500  0.265400  0.524900  1
  O  O1411  1  0.960500  0.234600  0.475100  1
  O  O1412  1  0.039500  0.765400  0.475100  1
  O  O1413  1  0.548500  0.739200  0.446900  1
  O  O1414  1  0.451500  0.260800  0.446900  1
  O  O1415  1  0.951500  0.239200  0.553100  1
  O  O1416  1  0.048500  0.760800  0.553100  1
  O  O1417  1  0.565000  0.670500  0.481000  1
  O  O1418  1  0.435000  0.329500  0.481000  1
  O  O1419  1  0.935000  0.170500  0.519000  1
  O  O1420  1  0.065000  0.829500  0.519000  1
  O  O1421  1  0.102700  0.296000  0.423100  1
  O  O1422  1  0.897300  0.704000  0.423100  1
  O  O1423  1  0.397300  0.796000  0.576900  1
  O  O1424  1  0.602700  0.204000  0.576900  1
  O  O1425  1  0.112200  0.342000  0.486800  1
  O  O1426  1  0.887800  0.658000  0.486800  1
  O  O1427  1  0.387800  0.842000  0.513200  1
  O  O1428  1  0.612200  0.158000  0.513200  1
  O  O1429  1  0.074600  0.269500  0.491600  1
  O  O1430  1  0.925400  0.730500  0.491600  1
  O  O1431  1  0.425400  0.769500  0.508400  1
  O  O1432  1  0.574600  0.230500  0.508400  1
  O  O1433  1  0.795800  0.719000  0.242100  1
  O  O1434  1  0.204200  0.281000  0.242100  1
  O  O1435  1  0.704200  0.219000  0.757900  1
  O  O1436  1  0.295800  0.781000  0.757900  1
  O  O1437  1  0.715600  0.722000  0.279900  1
  O  O1438  1  0.284400  0.278000  0.279900  1
  O  O1439  1  0.784400  0.222000  0.720100  1
  O  O1440  1  0.215600  0.778000  0.720100  1
  O  O1441  1  0.793000  0.744000  0.317000  1
  O  O1442  1  0.207000  0.256000  0.317000  1
  O  O1443  1  0.707000  0.244000  0.683000  1
  O  O1444  1  0.293000  0.756000  0.683000  1
  O  O1445  1  0.600000  0.690000  0.266000  1
  O  O1446  1  0.400000  0.310000  0.266000  1
  O  O1447  1  0.900000  0.190000  0.734000  1
  O  O1448  1  0.100000  0.810000  0.734000  1
  O  O1449  1  0.537000  0.652000  0.272000  1
  O  O1450  1  0.463000  0.348000  0.272000  1
  O  O1451  1  0.963000  0.152000  0.728000  1
  O  O1452  1  0.037000  0.848000  0.728000  1
  O  O1453  1  0.891000  0.665000  0.344200  1
  O  O1454  1  0.109000  0.335000  0.344200  1
  O  O1455  1  0.609000  0.165000  0.655800  1
  O  O1456  1  0.391000  0.835000  0.655800  1
  O  O1457  1  0.917000  0.584000  0.410000  1
  O  O1458  1  0.083000  0.416000  0.410000  1
  O  O1459  1  0.583000  0.084000  0.590000  1
  O  O1460  1  0.417000  0.916000  0.590000  1
  O  O1461  1  0.563000  0.049000  0.130000  1
  O  O1462  1  0.437000  0.951000  0.130000  1
  O  O1463  1  0.937000  0.549000  0.870000  1
  O  O1464  1  0.063000  0.451000  0.870000  1
  O  O1465  1  0.637000  0.715000  0.176000  1
  O  O1466  1  0.363000  0.285000  0.176000  1
  O  O1467  1  0.863000  0.215000  0.824000  1
  O  O1468  1  0.137000  0.785000  0.824000  1
  O  O1469  1  0.714000  0.498000  0.978000  1
  O  O1470  1  0.286000  0.502000  0.978000  1
  O  O1471  1  0.786000  0.998000  0.022000  1
  O  O1472  1  0.214000  0.002000  0.022000  1
  O  O1473  1  0.645000  0.538100  0.025100  1
  O  O1474  1  0.355000  0.461900  0.025100  1
  O  O1475  1  0.855000  0.038100  0.974900  1
  O  O1476  1  0.145000  0.961900  0.974900  1
  O  O1477  1  0.555000  0.545000  0.306000  1
  O  O1478  1  0.445000  0.455000  0.306000  1
  O  O1479  1  0.945000  0.045000  0.694000  1
  O  O1480  1  0.055000  0.955000  0.694000  1
  O  O1481  1  0.602900  0.045000  0.353400  1
  O  O1482  1  0.397100  0.955000  0.353400  1
  O  O1483  1  0.897100  0.545000  0.646600  1
  O  O1484  1  0.102900  0.455000  0.646600  1
  O  O1485  1  0.566000  0.986000  0.364000  1
  O  O1486  1  0.434000  0.014000  0.364000  1
  O  O1487  1  0.934000  0.486000  0.636000  1
  O  O1488  1  0.066000  0.514000  0.636000  1
  O  O1489  1  0.333200  0.183600  0.349700  1
  O  O1490  1  0.666800  0.816400  0.349700  1
  O  O1491  1  0.166800  0.683600  0.650300  1
  O  O1492  1  0.833200  0.316400  0.650300  1
  O  O1493  1  0.676800  0.821900  0.174000  1
  O  O1494  1  0.323200  0.178100  0.174000  1
  O  O1495  1  0.823200  0.321900  0.826000  1
  O  O1496  1  0.176800  0.678100  0.826000  1
  O  O1497  1  0.798400  0.799900  0.169000  1
  O  O1498  1  0.201600  0.200100  0.169000  1
  O  O1499  1  0.701600  0.299900  0.831000  1
  O  O1500  1  0.298400  0.700100  0.831000  1
  O  O1501  1  0.147800  0.293800  0.132700  1
  O  O1502  1  0.852200  0.706200  0.132700  1
  O  O1503  1  0.352200  0.793800  0.867300  1
  O  O1504  1  0.647800  0.206200  0.867300  1
  O  O1505  1  0.686800  0.054400  0.992700  1
  O  O1506  1  0.313200  0.945600  0.992700  1
  O  O1507  1  0.813200  0.554400  0.007300  1
  O  O1508  1  0.186800  0.445600  0.007300  1
  O  O1509  1  0.588500  0.016500  0.943000  1
  O  O1510  1  0.411500  0.983500  0.943000  1
  O  O1511  1  0.911500  0.516500  0.057000  1
  O  O1512  1  0.088500  0.483500  0.057000  1
  O  O1513  1  0.910300  0.944800  0.128800  1
  O  O1514  1  0.089700  0.055200  0.128800  1
  O  O1515  1  0.589700  0.444800  0.871200  1
  O  O1516  1  0.410300  0.555200  0.871200  1
  O  O1517  1  0.608600  0.701400  0.361300  1
  O  O1518  1  0.391400  0.298600  0.361300  1
  O  O1519  1  0.891400  0.201400  0.638700  1
  O  O1520  1  0.108600  0.798600  0.638700  1
  O  O1521  1  0.851900  0.094100  0.101000  1
  O  O1522  1  0.148100  0.905900  0.101000  1
  O  O1523  1  0.648100  0.594100  0.899000  1
  O  O1524  1  0.351900  0.405900  0.899000  1
  O  O1525  1  0.062400  0.923500  0.163100  1
  O  O1526  1  0.937600  0.076500  0.163100  1
  O  O1527  1  0.437600  0.423500  0.836900  1
  O  O1528  1  0.562400  0.576500  0.836900  1
  O  O1529  1  0.615000  0.593000  0.069000  1
  O  O1530  1  0.385000  0.407000  0.069000  1
  O  O1531  1  0.885000  0.093000  0.931000  1
  O  O1532  1  0.115000  0.907000  0.931000  1
  O  O1533  1  0.565000  0.973700  0.196700  1
  O  O1534  1  0.435000  0.026300  0.196700  1
  O  O1535  1  0.935000  0.473700  0.803300  1
  O  O1536  1  0.065000  0.526300  0.803300  1
  O  O1537  1  0.049100  0.919700  0.312300  1
  O  O1538  1  0.950900  0.080300  0.312300  1
  O  O1539  1  0.450900  0.419700  0.687700  1
  O  O1540  1  0.549100  0.580300  0.687700  1
  O  O1541  1  0.824500  0.848900  0.244500  1
  O  O1542  1  0.175500  0.151100  0.244500  1
  O  O1543  1  0.675500  0.348900  0.755500  1
  O  O1544  1  0.324500  0.651100  0.755500  1
  O  O1545  1  0.789000  0.003000  0.093000  1
  O  O1546  1  0.211000  0.997000  0.093000  1
  O  O1547  1  0.711000  0.503000  0.907000  1
  O  O1548  1  0.289000  0.497000  0.907000  1
  O  O1549  1  0.555200  0.063600  0.063700  1
  O  O1550  1  0.444800  0.936400  0.063700  1
  O  O1551  1  0.944800  0.563600  0.936300  1
  O  O1552  1  0.055200  0.436400  0.936300  1
  O  O1553  1  0.970000  0.948000  0.351000  1
  O  O1554  1  0.030000  0.052000  0.351000  1
  O  O1555  1  0.530000  0.448000  0.649000  1
  O  O1556  1  0.470000  0.552000  0.649000  1
  O  O1557  1  0.575400  0.531600  0.206900  1
  O  O1558  1  0.424600  0.468400  0.206900  1
  O  O1559  1  0.924600  0.031600  0.793100  1
  O  O1560  1  0.075400  0.968400  0.793100  1
  O  O1561  1  0.500000  0.000000  0.998700  1
  O  O1562  1  0.000000  0.500000  0.001300  1
  O  O1563  1  0.057100  0.887600  0.040800  1
  O  O1564  1  0.942900  0.112400  0.040800  1
  O  O1565  1  0.442900  0.387600  0.959200  1
  O  O1566  1  0.557100  0.612400  0.959200  1
  O  O1567  1  0.775200  0.943500  0.151300  1
  O  O1568  1  0.224800  0.056500  0.151300  1
  O  O1569  1  0.724800  0.443500  0.848700  1
  O  O1570  1  0.275200  0.556500  0.848700  1
  O  O1571  1  0.437000  0.505000  0.096000  1
  O  O1572  1  0.563000  0.495000  0.096000  1
  O  O1573  1  0.063000  0.005000  0.904000  1
  O  O1574  1  0.937000  0.995000  0.904000  1
  O  O1575  1  0.362000  0.121000  0.265000  1
  O  O1576  1  0.638000  0.879000  0.265000  1
  O  O1577  1  0.138000  0.621000  0.735000  1
  O  O1578  1  0.862000  0.379000  0.735000  1
  O  O1579  1  0.919000  0.562000  0.547000  1
  O  O1580  1  0.081000  0.438000  0.547000  1
  O  O1581  1  0.581000  0.062000  0.453000  1
  O  O1582  1  0.419000  0.938000  0.453000  1
  O  O1583  1  0.496000  0.639000  0.177000  1
  O  O1584  1  0.504000  0.361000  0.177000  1
  O  O1585  1  0.004000  0.139000  0.823000  1
  O  O1586  1  0.996000  0.861000  0.823000  1
  O  O1587  1  0.982000  0.541000  0.462000  1
  O  O1588  1  0.018000  0.459000  0.462000  1
  O  O1589  1  0.518000  0.041000  0.538000  1
  O  O1590  1  0.482000  0.959000  0.538000  1
  O  O1591  1  0.844000  0.551000  0.500000  1
  O  O1592  1  0.156000  0.449000  0.500000  1
  O  O1593  1  0.656000  0.051000  0.500000  1
  O  O1594  1  0.344000  0.949000  0.500000  1
  O  O1595  1  0.873000  0.308000  0.237000  1
  O  O1596  1  0.127000  0.692000  0.237000  1
  O  O1597  1  0.627000  0.808000  0.763000  1
  O  O1598  1  0.373000  0.192000  0.763000  1
  O  O1599  1  0.588000  0.279000  0.264000  1
  O  O1600  1  0.412000  0.721000  0.264000  1
  O  O1601  1  0.912000  0.779000  0.736000  1
  O  O1602  1  0.088000  0.221000  0.736000  1
  O  O1603  1  0.680000  0.274000  0.252000  1
  O  O1604  1  0.320000  0.726000  0.252000  1
  O  O1605  1  0.820000  0.774000  0.748000  1
  O  O1606  1  0.180000  0.226000  0.748000  1
  O  O1607  1  0.639000  0.348000  0.254000  1
  O  O1608  1  0.361000  0.652000  0.254000  1
  O  O1609  1  0.861000  0.848000  0.746000  1
  O  O1610  1  0.139000  0.152000  0.746000  1
  O  O1611  1  0.777000  0.419000  0.251000  1
  O  O1612  1  0.223000  0.581000  0.251000  1
  O  O1613  1  0.723000  0.919000  0.749000  1
  O  O1614  1  0.277000  0.081000  0.749000  1
  O  O1615  1  0.763000  0.487400  0.250000  1
  O  O1616  1  0.237000  0.512600  0.250000  1
  O  O1617  1  0.737000  0.987400  0.750000  1
  O  O1618  1  0.263000  0.012600  0.750000  1
  O  O1619  1  0.760000  0.315000  0.249000  1
  O  O1620  1  0.240000  0.685000  0.249000  1
  O  O1621  1  0.740000  0.815000  0.751000  1
  O  O1622  1  0.260000  0.185000  0.751000  1
  O  O1623  1  0.694000  0.144000  0.263000  1
  O  O1624  1  0.306000  0.856000  0.263000  1
  O  O1625  1  0.806000  0.644000  0.737000  1
  O  O1626  1  0.194000  0.356000  0.737000  1
  O  O1627  1  0.909000  0.655000  0.984000  1
  O  O1628  1  0.091000  0.345000  0.984000  1
  O  O1629  1  0.591000  0.155000  0.016000  1
  O  O1630  1  0.409000  0.845000  0.016000  1
  O  O1631  1  0.786000  0.165000  0.304000  1
  O  O1632  1  0.214000  0.835000  0.304000  1
  O  O1633  1  0.714000  0.665000  0.696000  1
  O  O1634  1  0.286000  0.335000  0.696000  1
  O  O1635  1  0.413000  0.494000  0.458000  1
  O  O1636  1  0.587000  0.506000  0.458000  1
  O  O1637  1  0.087000  0.994000  0.542000  1
  O  O1638  1  0.913000  0.006000  0.542000  1
  O  O1639  1  0.550000  0.305800  0.259700  1
  O  O1640  1  0.450000  0.694200  0.259700  1
  O  O1641  1  0.950000  0.805800  0.740300  1
  O  O1642  1  0.050000  0.194200  0.740300  1
  O  O1643  1  0.563700  0.683300  0.010500  1
  O  O1644  1  0.436300  0.316700  0.010500  1
  O  O1645  1  0.936300  0.183300  0.989500  1
  O  O1646  1  0.063700  0.816700  0.989500  1
  O  O1647  1  0.533200  0.753900  0.013700  1
  O  O1648  1  0.466800  0.246100  0.013700  1
  O  O1649  1  0.966800  0.253900  0.986300  1
  O  O1650  1  0.033200  0.746100  0.986300  1
  O  O1651  1  0.567800  0.724800  0.084000  1
  O  O1652  1  0.432200  0.275200  0.084000  1
  O  O1653  1  0.932200  0.224800  0.916000  1
  O  O1654  1  0.067800  0.775200  0.916000  1
  O  O1655  1  0.516000  0.665000  0.325000  1
  O  O1656  1  0.484000  0.335000  0.325000  1
  O  O1657  1  0.984000  0.165000  0.675000  1
  O  O1658  1  0.016000  0.835000  0.675000  1
  O  O1659  1  0.537000  0.676000  0.219000  1
  O  O1660  1  0.463000  0.324000  0.219000  1
  O  O1661  1  0.963000  0.176000  0.781000  1
  O  O1662  1  0.037000  0.824000  0.781000  1
  O  O1663  1  0.650000  0.728000  0.270000  1
  O  O1664  1  0.350000  0.272000  0.270000  1
  O  O1665  1  0.850000  0.228000  0.730000  1
  O  O1666  1  0.150000  0.772000  0.730000  1
  O  O1667  1  0.897000  0.622000  0.375000  1
  O  O1668  1  0.103000  0.378000  0.375000  1
  O  O1669  1  0.603000  0.122000  0.625000  1
  O  O1670  1  0.397000  0.878000  0.625000  1
  O  O1671  1  0.510000  0.021000  0.150000  1
  O  O1672  1  0.490000  0.979000  0.150000  1
  O  O1673  1  0.990000  0.521000  0.850000  1
  O  O1674  1  0.010000  0.479000  0.850000  1
  O  O1675  1  0.598000  0.059100  0.130500  1
  O  O1676  1  0.402000  0.940900  0.130500  1
  O  O1677  1  0.902000  0.559100  0.869500  1
  O  O1678  1  0.098000  0.440900  0.869500  1
  O  O1679  1  0.662500  0.721600  0.205000  1
  O  O1680  1  0.337500  0.278400  0.205000  1
  O  O1681  1  0.837500  0.221600  0.795000  1
  O  O1682  1  0.162500  0.778400  0.795000  1
  O  O1683  1  0.614000  0.697000  0.186000  1
  O  O1684  1  0.386000  0.303000  0.186000  1
  O  O1685  1  0.886000  0.197000  0.814000  1
  O  O1686  1  0.114000  0.803000  0.814000  1
  O  O1687  1  0.693000  0.506000  0.011000  1
  O  O1688  1  0.307000  0.494000  0.011000  1
  O  O1689  1  0.807000  0.006000  0.989000  1
  O  O1690  1  0.193000  0.994000  0.989000  1
  O  O1691  1  0.514000  0.567000  0.276000  1
  O  O1692  1  0.486000  0.433000  0.276000  1
  O  O1693  1  0.986000  0.067000  0.724000  1
  O  O1694  1  0.014000  0.933000  0.724000  1
  O  O1695  1  0.331000  0.140000  0.334000  1
  O  O1696  1  0.669000  0.860000  0.334000  1
  O  O1697  1  0.169000  0.640000  0.666000  1
  O  O1698  1  0.831000  0.360000  0.666000  1
  O  O1699  1  0.444000  0.604000  0.167000  1
  O  O1700  1  0.556000  0.396000  0.167000  1
  O  O1701  1  0.056000  0.104000  0.833000  1
  O  O1702  1  0.944000  0.896000  0.833000  1
  O  O1703  1  0.023000  0.503000  0.737000  1
  O  O1704  1  0.977000  0.497000  0.737000  1
  O  O1705  1  0.477000  0.003000  0.263000  1
  O  O1706  1  0.523000  0.997000  0.263000  1
