
#######################################################################
#
#                 Cambridge Crystallographic Data Centre
#                                CCDC 
#
#######################################################################
#
# If this CIF has been generated from an entry in the Cambridge 
# Structural Database, then it will include bibliographic, chemical, 
# crystal, experimental, refinement or atomic coordinate data resulting 
# from the CCDC's data processing and validation procedures.
#
#######################################################################

data_QOZPIE
_chemical_formula_moiety         
'C132 H128 N36 O4 Pd6 Zn3 12+,12(N1 O3 1-),3(C2 H6 O1),29(H2 O1)'
_chemical_name_systematic        
'tris(\m~5~-5,10,15,20-tetrakis(3-Pyridyl)porphyrinato)-hexakis((ethylenediamine)-palladium(ii))-tetra-aqua-tri-zinc dodecanitrate ethanol solvate hydrate'
_symmetry_cell_setting           triclinic
_symmetry_space_group_name_H-M   'P -1'
_symmetry_Int_Tables_number      2
_space_group_name_Hall           '-P 1'
loop_
_symmetry_equiv_pos_site_id
_symmetry_equiv_pos_as_xyz
1 x,y,z
2 -x,-y,-z
_cell_length_a                   20.6267(14)
_cell_length_b                   20.7442(14)
_cell_length_c                   28.1631(19)
_cell_angle_alpha                72.8840(10)
_cell_angle_beta                 74.0620(10)
_cell_angle_gamma                66.2070(10)
_cell_volume                     10369.3
_exptl_crystal_colour            purple
_chemical_melting_point          'above 480 deg.C'
_cell_formula_units_Z            2
loop_
_atom_site_label
_atom_site_type_symbol
_atom_site_fract_x
_atom_site_fract_y
_atom_site_fract_z
Pd1 Pd 0.90192(4) 0.67991(4) -0.04592(3)
Pd2 Pd 0.19032(4) 0.81802(4) 0.01817(3)
Pd3 Pd 0.98131(5) 0.49978(5) -0.32953(4)
Pd4 Pd 0.27534(5) 0.63172(5) -0.27834(3)
Pd5 Pd 0.88030(5) 0.99264(6) -0.36761(4)
Pd6 Pd 0.18251(5) 1.09426(6) -0.29781(4)
Zn1 Zn 0.59170(7) 0.81883(8) -0.40157(5)
Zn2 Zn 0.59714(6) 0.56488(6) -0.10796(4)
Zn3 Zn 0.51126(7) 1.00481(10) -0.13864(6)
N1 N 0.7072(4) 0.5246(4) -0.1126(3)
N2 N 0.8508(4) 0.6095(4) -0.0102(3)
C1 C 0.7588(5) 0.4902(5) -0.1494(4)
C2 C 0.8282(5) 0.4682(5) -0.1379(4)
H1 H 0.8715 0.4442 -0.1568
C3 C 0.8202(5) 0.4883(5) -0.0946(4)
H2 H 0.8565 0.4802 -0.0777
C4 C 0.7435(5) 0.5251(5) -0.0795(4)
C5 C 0.7138(5) 0.5559(5) -0.0375(4)
C6 C 0.7631(5) 0.5597(5) -0.0089(4)
C7 C 0.8062(5) 0.6016(5) -0.0339(4)
H3 H 0.8042 0.6246 -0.0675
C8 C 0.7659(6) 0.5272(6) 0.0402(4)
H4 H 0.7385 0.4983 0.0572
C9 C 0.8106(6) 0.5370(5) 0.0658(4)
H5 H 0.8114 0.5173 0.0999
C10 C 0.8528(5) 0.5772(5) 0.0372(4)
H6 H 0.8847 0.5816 0.0527
N3 N 0.6107(4) 0.5212(4) -0.1691(3)
N4 N 0.9110(5) 0.4500(5) -0.2906(4)
C11 C 0.5578(6) 0.5189(6) -0.1877(4)
C12 C 0.5871(6) 0.4966(7) -0.2363(4)
H7 H 0.5617 0.4932 -0.2575
C13 C 0.6599(6) 0.4818(7) -0.2440(4)
H8 H 0.6937 0.4655 -0.2714
C14 C 0.6742(5) 0.4963(6) -0.2009(4)
C15 C 0.7431(5) 0.4803(6) -0.1915(4)
C16 C 0.8069(5) 0.4445(6) -0.2287(4)
C17 C 0.8539(5) 0.4796(6) -0.2559(4)
H9 H 0.8466 0.5244 -0.2505
C18 C 0.8192(6) 0.3762(7) -0.2369(5)
H10 H 0.7877 0.3519 -0.2190
C19 C 0.8756(7) 0.3464(9) -0.2699(5)
H11 H 0.8852 0.3005 -0.2744
C20 C 0.9206(6) 0.3858(7) -0.2981(5)
H12 H 0.9583 0.3665 -0.3228
N5 N 0.4920(4) 0.5700(4) -0.0898(3)
N6 N 0.3432(5) 0.5565(5) -0.2327(3)
C21 C 0.4426(5) 0.5893(5) -0.0484(4)
C22 C 0.3748(5) 0.5832(5) -0.0482(4)
H13 H 0.3336 0.5916 -0.0235
C23 C 0.3847(5) 0.5627(5) -0.0918(4)
H14 H 0.3502 0.5555 -0.1029
C24 C 0.4560(5) 0.5541(5) -0.1177(4)
C25 C 0.4852(5) 0.5325(5) -0.1628(4)
C26 C 0.4383(6) 0.5158(6) -0.1856(4)
C27 C 0.3895(5) 0.5694(6) -0.2147(4)
H15 H 0.3889 0.6163 -0.2220
C28 C 0.4382(9) 0.4464(7) -0.1744(6)
H16 H 0.4693 0.4094 -0.1543
C29 C 0.3897(9) 0.4325(8) -0.1940(7)
H17 H 0.3895 0.3861 -0.1882
C30 C 0.3434(8) 0.4894(7) -0.2217(6)
H18 H 0.3102 0.4809 -0.2334
N7 N 0.5857(4) 0.5798(4) -0.0356(3)
N8 N 0.2708(4) 0.7270(4) 0.0440(3)
C31 C 0.6385(5) 0.5846(5) -0.0177(4)
C32 C 0.6075(5) 0.6215(5) 0.0230(4)
H19 H 0.6319 0.6325 0.0411
C33 C 0.5354(6) 0.6376(6) 0.0302(4)
H20 H 0.5008 0.6620 0.0541
C34 C 0.5222(5) 0.6102(5) -0.0060(4)
C35 C 0.4540(5) 0.6137(5) -0.0100(4)
C36 C 0.3908(5) 0.6431(5) 0.0265(4)
C37 C 0.3310(5) 0.6970(5) 0.0121(4)
H21 H 0.3313 0.7148 -0.0223
C38 C 0.3895(5) 0.6189(5) 0.0781(4)
H22 H 0.4291 0.5815 0.0899
C39 C 0.3298(5) 0.6498(6) 0.1126(4)
H23 H 0.3301 0.6351 0.1471
C40 C 0.2696(5) 0.7031(5) 0.0942(4)
H24 H 0.2283 0.7225 0.1166
N9 N 0.5134(4) 0.9390(5) -0.0687(4)
N10 N 0.8124(4) 0.7593(4) -0.0228(3)
C41 C 0.4579(6) 0.9209(6) -0.0375(5)
C42 C 0.4842(6) 0.8632(7) 0.0048(5)
H25 H 0.4565 0.8419 0.0318
C43 C 0.5551(6) 0.8467(6) -0.0023(5)
H26 H 0.5866 0.8108 0.0180
C44 C 0.5737(6) 0.8960(6) -0.0480(4)
C45 C 0.6441(6) 0.8973(5) -0.0674(4)
C46 C 0.6991(6) 0.8536(6) -0.0352(4)
C47 C 0.7596(6) 0.7995(6) -0.0511(4)
H27 H 0.7649 0.7896 -0.0824
C48 C 0.6904(6) 0.8645(6) 0.0126(4)
H28 H 0.6493 0.9000 0.0249
C49 C 0.7414(7) 0.8238(6) 0.0418(4)
H29 H 0.7348 0.8305 0.0743
C50 C 0.8044(6) 0.7713(6) 0.0226(4)
H30 H 0.8405 0.7450 0.0418
N11 N 0.6190(5) 0.9825(4) -0.1477(3)
N12 N 0.7975(5) 1.0647(5) -0.3318(4)
C51 C 0.6644(6) 0.9382(6) -0.1136(4)
C52 C 0.7358(6) 0.9422(6) -0.1328(4)
H31 H 0.7759 0.9174 -0.1173
C53 C 0.7324(5) 0.9897(6) -0.1783(4)
H32 H 0.7695 1.0046 -0.1992
C54 C 0.6607(6) 1.0122(5) -0.1876(4)
C55 C 0.6364(6) 1.0623(5) -0.2311(4)
C56 C 0.6895(6) 1.0902(6) -0.2703(4)
C57 C 0.7470(6) 1.0441(6) -0.2957(4)
H33 H 0.7519 0.9958 -0.2877
C58 C 0.6846(7) 1.1609(6) -0.2812(5)
H34 H 0.6467 1.1936 -0.2640
C59 C 0.7352(7) 1.1834(7) -0.3172(5)
H35 H 0.7321 1.2312 -0.3245
C60 C 0.7901(8) 1.1348(7) -0.3421(5)
H36 H 0.8238 1.1505 -0.3672
N13 N 0.5074(5) 1.0742(5) -0.2072(3)
N14 N 0.2348(4) 1.1487(5) -0.2833(3)
C61 C 0.5658(6) 1.0872(6) -0.2391(4)
C62 C 0.5429(7) 1.1345(6) -0.2879(5)
H37 H 0.5712 1.1530 -0.3160
C63 C 0.4715(6) 1.1445(7) -0.2820(5)
H38 H 0.4424 1.1708 -0.3062
C64 C 0.4492(6) 1.1075(6) -0.2319(4)
C65 C 0.3809(6) 1.1065(5) -0.2127(4)
C66 C 0.3277(6) 1.1472(6) -0.2441(4)
C67 C 0.2856(5) 1.1141(6) -0.2539(4)
H39 H 0.2935 1.0658 -0.2392
C68 C 0.3103(6) 1.2224(6) -0.2640(5)
H40 H 0.3328 1.2483 -0.2567
C69 C 0.2572(6) 1.2565(6) -0.2953(5)
H41 H 0.2465 1.3051 -0.3103
C70 C 0.2209(6) 1.2184(6) -0.3038(4)
H42 H 0.1861 1.2421 -0.3243
N15 N 0.4028(4) 1.0250(4) -0.1283(3)
N16 N 0.2430(4) 0.8750(4) 0.0303(3)
C71 C 0.3585(5) 1.0705(5) -0.1628(4)
C72 C 0.2867(6) 1.0745(5) -0.1404(4)
H43 H 0.2465 1.1009 -0.1557
C73 C 0.2865(6) 1.0331(5) -0.0923(4)
H44 H 0.2471 1.0266 -0.0685
C74 C 0.3599(6) 1.0023(6) -0.0870(4)
C75 C 0.3844(6) 0.9532(6) -0.0432(4)
C76 C 0.3308(5) 0.9309(5) -0.0010(4)
C77 C 0.2887(5) 0.8981(5) -0.0075(4)
H45 H 0.2923 0.8919 -0.0396
C78 C 0.3210(7) 0.9414(7) 0.0482(5)
H46 H 0.3467 0.9648 0.0547
C79 C 0.2736(7) 0.9172(6) 0.0859(4)
H47 H 0.2678 0.9226 0.1186
C80 C 0.2358(6) 0.8858(6) 0.0759(4)
H48 H 0.2027 0.8706 0.1020
N17 N 0.6988(5) 0.8076(5) -0.4215(3)
N18 N 0.8178(5) 1.0084(5) -0.4182(4)
C81 C 0.7556(6) 0.7428(7) -0.4246(4)
C82 C 0.8235(7) 0.7555(8) -0.4384(5)
H49 H 0.8693 0.7211 -0.4436
C83 C 0.8076(6) 0.8278(7) -0.4423(4)
H50 H 0.8398 0.8519 -0.4501
C84 C 0.7285(7) 0.8586(7) -0.4314(4)
C85 C 0.6888(6) 0.9323(6) -0.4325(5)
C86 C 0.7335(7) 0.9784(7) -0.4421(4)
C87 C 0.7755(6) 0.9695(6) -0.4092(4)
H51 H 0.7749 0.9351 -0.3793
C88 C 0.7385(9) 1.0306(8) -0.4892(5)
H52 H 0.7119 1.0379 -0.5134
C89 C 0.7803(9) 1.0667(8) -0.4971(5)
H53 H 0.7829 1.1005 -0.5271
C90 C 0.8235(7) 1.0559(7) -0.4603(5)
H54 H 0.8539 1.0816 -0.4665
N19 N 0.6193(5) 0.7126(5) -0.4088(3)
N20 N 0.9256(5) 0.5354(6) -0.3866(4)
C91 C 0.5721(6) 0.6792(6) -0.3988(4)
C92 C 0.6120(7) 0.6016(7) -0.3913(5)
H55 H 0.5925 0.5655 -0.3836
C93 C 0.6818(7) 0.5921(8) -0.3978(5)
H56 H 0.7202 0.5486 -0.3955
C94 C 0.6853(6) 0.6637(6) -0.4092(4)
C95 C 0.7503(6) 0.6749(6) -0.4170(4)
C96 C 0.8193(6) 0.6139(7) -0.4214(4)
C97 C 0.8637(6) 0.5912(6) -0.3855(4)
H57 H 0.8493 0.6162 -0.3597
C98 C 0.8411(6) 0.5768(7) -0.4593(4)
H58 H 0.8132 0.5903 -0.4839
C99 C 0.9068(7) 0.5176(8) -0.4606(5)
H59 H 0.9224 0.4919 -0.4861
C100 C 0.9479(6) 0.4982(7) -0.4235(4)
H60 H 0.9910 0.4592 -0.4242
N21 N 0.4874(5) 0.8360(5) -0.4059(3)
N22 N 0.3583(5) 0.6250(5) -0.3382(3)
C101 C 0.4305(6) 0.9009(7) -0.4078(4)
C102 C 0.3655(6) 0.8897(7) -0.4067(4)
H61 H 0.3201 0.9250 -0.4084
C103 C 0.3827(6) 0.8193(6) -0.4028(4)
H62 H 0.3512 0.7966 -0.4012
C104 C 0.4582(6) 0.7847(6) -0.4015(4)
C105 C 0.4969(6) 0.7125(6) -0.3969(4)
C106 C 0.4539(6) 0.6653(6) -0.3886(4)
C107 C 0.4008(6) 0.6638(6) -0.3464(4)
H63 H 0.3941 0.6905 -0.3229
C108 C 0.4658(7) 0.6226(7) -0.4219(5)
H64 H 0.5023 0.6213 -0.4501
C109 C 0.4228(8) 0.5816(8) -0.4131(5)
H65 H 0.4306 0.5521 -0.4349
C110 C 0.3687(7) 0.5854(7) -0.3717(5)
H66 H 0.3383 0.5599 -0.3667
N23 N 0.5690(5) 0.9276(5) -0.4212(4)
N24 N 0.2513(5) 1.0871(6) -0.3645(4)
C111 C 0.6179(7) 0.9627(7) -0.4286(5)
C112 C 0.5730(7) 1.0429(8) -0.4305(6)
H67 H 0.5906 1.0795 -0.4351
C113 C 0.5072(9) 1.0500(8) -0.4245(6)
H68 H 0.4689 1.0934 -0.4231
C114 C 0.4998(7) 0.9807(6) -0.4201(5)
C115 C 0.4361(6) 0.9679(7) -0.4137(5)
C116 C 0.3662(7) 1.0303(6) -0.4113(5)
C117 C 0.3145(6) 1.0335(7) -0.3672(4)
H69 H 0.3246 0.9969 -0.3388
C118 C 0.3494(7) 1.0870(7) -0.4545(5)
H70 H 0.3816 1.0866 -0.4849
C119 C 0.2838(8) 1.1424(8) -0.4496(6)
H71 H 0.2721 1.1806 -0.4768
C120 C 0.2366(7) 1.1414(7) -0.4055(5)
H72 H 0.1927 1.1792 -0.4032
N25 N 0.9537(5) 0.7486(5) -0.0824(4)
H73 H 0.9390 0.7723 -0.1121
H74 H 0.9441 0.7811 -0.0638
N26 N 0.9949(5) 0.6036(5) -0.0667(4)
H75 H 1.0169 0.5788 -0.0399
H76 H 0.9867 0.5727 -0.0789
C121 C 1.0345(6) 0.7060(6) -0.0915(6)
H77 H 1.0598 0.7338 -0.1181
H78 H 1.0540 0.6933 -0.0609
C122 C 1.0415(7) 0.6399(7) -0.1066(6)
H79 H 1.0913 0.6076 -0.1098
H80 H 1.0264 0.6528 -0.1388
N27 N 0.1096(5) 0.9083(5) -0.0055(4)
H81 H 0.0940 0.9376 0.0164
H82 H 0.1260 0.9317 -0.0358
N28 N 0.1326(5) 0.7660(5) 0.0048(4)
H83 H 0.1627 0.7294 -0.0104
H84 H 0.1090 0.7477 0.0342
C123 C 0.0807(7) 0.8178(7) -0.0279(6)
H85 H 0.0429 0.7999 -0.0255
H86 H 0.1048 0.8250 -0.0628
C124 C 0.0483(7) 0.8898(6) -0.0095(6)
H87 H 0.0200 0.9276 -0.0333
H88 H 0.0172 0.8847 0.0231
N29 N 1.0573(6) 0.5434(8) -0.3664(5)
H89 H 1.0894 0.5169 -0.3885
H90 H 1.0370 0.5884 -0.3836
N30 N 1.0386(5) 0.4636(6) -0.2729(4)
H91 H 1.0153 0.4896 -0.2488
H92 H 1.0440 0.4172 -0.2589
C125 C 1.1101(7) 0.4712(9) -0.2946(6)
H93 H 1.1403 0.4348 -0.3142
H94 H 1.1343 0.4665 -0.2681
C126 C 1.0943(9) 0.5449(10) -0.3275(7)
H95 H 1.1384 0.5547 -0.3435
H96 H 1.0630 0.5814 -0.3082
N31 N 0.1897(5) 0.6447(6) -0.2219(4)
H97 H 0.1796 0.6039 -0.2103
H98 H 0.1995 0.6548 -0.1962
N32 N 0.2036(6) 0.7017(6) -0.3228(4)
H99 H 0.2101 0.7444 -0.3331
H100 H 0.2100 0.6847 -0.3504
C127 C 0.1294(7) 0.7111(10) -0.2935(6)
H101 H 0.0965 0.7581 -0.3067
H102 H 0.1137 0.6749 -0.2972
C128 C 0.1274(8) 0.7045(10) -0.2411(7)
H103 H 0.0834 0.6968 -0.2217
H104 H 0.1265 0.7493 -0.2362
N33 N 0.9664(6) 0.9196(8) -0.4005(5)
H105 H 0.9565 0.8799 -0.3973
H106 H 0.9770 0.9380 -0.4336
N34 N 0.9466(6) 0.9755(8) -0.3202(5)
H107 H 0.9558 1.0159 -0.3241
H108 H 0.9253 0.9642 -0.2880
C129 C 1.0285(8) 0.9008(9) -0.3757(7)
H109 H 1.0544 0.8493 -0.3717
H110 H 1.0609 0.9246 -0.3982
C130 C 1.0126(11) 0.9178(19) -0.3313(11)
H111 H 1.0517 0.9300 -0.3281
H112 H 1.0114 0.8751 -0.3056
N35 N 0.1141(5) 1.0959(6) -0.2303(4)
H113 H 0.1384 1.0659 -0.2055
H114 H 0.0962 1.1407 -0.2242
N36 N 0.1261(6) 1.0395(8) -0.3072(5)
H115 H 0.0957 1.0684 -0.3287
H116 H 0.1566 1.0014 -0.3207
C131 C 0.0561(8) 1.0746(9) -0.2300(6)
H117 H 0.0188 1.1153 -0.2456
H118 H 0.0353 1.0576 -0.1956
C132 C 0.0856(9) 1.0149(10) -0.2592(7)
H119 H 0.1166 0.9713 -0.2406
H120 H 0.0465 1.0047 -0.2645
O1 O 0.5813(6) 0.7985(6) -0.3232(4)
O2 O 0.5833(5) 0.6714(4) -0.1472(4)
O3 O 0.5323(10) 0.9058(9) -0.1770(7)
O4 O 0.4925(11) 1.1073(10) -0.1058(8)
N37 N -0.0070(6) 0.4060(6) -0.0598(4)
O5 O 0.0112(7) 0.3445(6) -0.0342(5)
O6 O -0.0276(5) 0.4573(5) -0.0389(3)
O7 O -0.0019(7) 0.4118(6) -0.1063(4)
N38 N 0.7038(8) 0.5717(7) 0.3138(6)
O8 O 0.6808(11) 0.5815(10) 0.3577(6)
O9 O 0.6852(9) 0.6240(8) 0.2811(6)
O10 O 0.7356(6) 0.5101(6) 0.3082(4)
N39 N 1.1217(7) 0.0975(6) 0.0184(5)
O11 O 1.0887(7) 0.1585(6) -0.0016(5)
O12 O 1.1308(8) 0.0924(7) 0.0607(5)
O13 O 1.1371(5) 0.0419(5) 0.0039(4)
N40 N 0.7888(7) 0.3388(7) 0.0891(4)
O14 O 0.8022(7) 0.3627(6) 0.0442(4)
O15 O 0.7835(9) 0.2803(8) 0.0998(6)
O16 O 0.7810(5) 0.3742(5) 0.1206(4)
N41 N -0.0212(6) 0.7055(5) 0.2172(4)
O17 O -0.0655(5) 0.6932(5) 0.2553(4)
O18 O 0.0159(5) 0.6586(5) 0.1931(3)
O19 O -0.0152(6) 0.7665(5) 0.2033(4)
N42 N 0.1066(12) 0.1689(13) 0.2004(9)
O20 O 0.0445(12) 0.1958(14) 0.1947(10)
O21 O 0.1420(14) 0.2060(16) 0.1752(11)
O22 O 0.1241(10) 0.1234(10) 0.2407(7)
N43 N 1.1976(12) -0.0520(14) -0.1407(8)
O23 O 1.2308(9) -0.0337(8) -0.1841(6)
O24 O 1.2393(11) -0.0965(12) -0.1124(8)
O25 O 1.1375(12) -0.0121(14) -0.1199(9)
N44 N -0.1420(11) 0.6340(10) 0.4043(8)
O26 O -0.1801(10) 0.6860(9) 0.4243(7)
O27 O -0.0857(10) 0.6381(11) 0.3796(8)
O28 O -0.1485(10) 0.5741(10) 0.4234(8)
N45 N 0.8028(6) 0.1153(6) 0.3620(4)
O29 O 0.8100(5) 0.0518(5) 0.3827(4)
O30 O 0.8100(7) 0.1333(6) 0.3172(4)
O31 O 0.7859(5) 0.1624(5) 0.3864(4)
N46 N 0.6706(5) 1.2802(5) -0.2111(3)
O32 O 0.6013(8) 1.3133(11) -0.2146(8)
O33 O 0.7175(7) 1.2931(7) -0.2401(5)
O34 O 0.6695(4) 1.2342(4) -0.1701(3)
O35 O 0.1224(13) 0.3569(13) 0.1545(10)
O36 O 0.8566(6) 0.4776(6) 0.1858(4)
O37 O 0.0055(11) 0.4634(10) 0.1794(8)
O38 O 0.8922(5) 0.1973(5) -0.1512(3)
O39 O 0.9769(4) 0.2666(4) -0.0895(3)
O40 O 0.813(2) 0.216(2) 0.1785(15)
O41 O 0.9335(9) -0.0203(9) -0.1364(6)
O42 O 1.0853(11) 0.1348(11) -0.1002(8)
O43 O 1.0774(11) -0.1999(11) 0.3239(8)
O44 O 1.2991(13) -0.3749(13) 0.3287(10)
O45 O 0.4383(14) 0.5766(13) 0.4513(10)
O46 O 0.692(2) 0.218(2) 0.1048(14)
O47 O 0.9651(5) 0.0652(5) -0.0952(4)
O48 O 0.0516(18) 0.2338(18) 0.3650(13)
O49 O 0.6812(15) 0.2231(15) 0.2542(11)
O50 O 0.7884(10) 0.3436(9) 0.4133(7)
O51 O 0.579(2) 0.248(2) 0.1588(18)
O52 O 0.9447(11) -0.2358(11) 0.3377(8)
O53 O 0.5446(14) 1.2465(13) -0.1309(10)
O54 O 0.1493(8) -0.1790(8) 0.2307(6)
O55 O 0.1152(9) -0.0395(9) 0.2301(7)
O56 O 0.0869(18) 0.4027(18) 0.2267(13)
O57 O 1.0353(14) -0.1267(14) -0.1799(10)
O58 O 0.7424(12) 0.4693(12) 0.4304(9)
O59 O 0.2374(16) 0.1375(16) 0.2853(11)
O60 O 0.524(2) 0.328(2) 0.5555(16)
O61 O 0.486(2) 0.046(3) 0.2814(18)
O62 O 0.6094(16) 0.2255(16) 0.5690(12)
O63 O 0.694(2) 0.084(2) 0.2590(16)
O64 O 0.9929(13) -0.0858(13) 0.3612(9)
O65 O 1.1754(19) -0.3188(19) 0.3909(13)
O66 O -0.2340(11) 0.6132(11) 0.1883(8)
C133 C -0.218(2) 0.676(2) 0.1582(16)
H121 H -0.2603 0.7178 0.1632
H122 H -0.2084 0.6731 0.1230
C134 C -0.1550(13) 0.6871(13) 0.1679(9)
H123 H -0.1516 0.7321 0.1475
H124 H -0.1113 0.6485 0.1595
H125 H -0.1623 0.6879 0.2029
O67 O 0.5910(14) -0.2915(13) 0.3881(10)
C135 C 0.627(2) -0.268(2) 0.4174(17)
H126 H 0.6777 -0.2884 0.4047
H127 H 0.6136 -0.2163 0.4046
C136 C 0.6222(15) -0.2765(16) 0.4695(11)
H128 H 0.6514 -0.2540 0.4747
H129 H 0.6390 -0.3269 0.4846
H130 H 0.5730 -0.2546 0.4847
O68 O 0.4216(14) 0.5719(14) 0.3549(10)
C137 C 0.4865(16) 0.5834(15) 0.3184(11)
H131 H 0.4846 0.5797 0.2853
H132 H 0.5295 0.5453 0.3289
C138 C 0.4929(19) 0.6619(19) 0.3138(14)
H133 H 0.5340 0.6666 0.2888
H134 H 0.4983 0.6647 0.3458
H135 H 0.4501 0.7000 0.3040
loop_
_geom_bond_atom_site_label_1
_geom_bond_atom_site_label_2
_geom_bond_site_symmetry_1
_geom_bond_site_symmetry_2
Pd1 N2 1_555 1_555
Pd2 N8 1_555 1_555
Pd3 N4 1_555 1_555
Pd4 N6 1_555 1_555
Pd5 N12 1_555 1_555
Pd6 N14 1_555 1_555
Zn1 N17 1_555 1_555
Zn2 N1 1_555 1_555
Zn3 N9 1_555 1_555
N1 C1 1_555 1_555
N2 C7 1_555 1_555
C1 C2 1_555 1_555
C2 H1 1_555 1_555
C3 C2 1_555 1_555
H2 C3 1_555 1_555
C4 N1 1_555 1_555
C5 C4 1_555 1_555
C6 C5 1_555 1_555
C7 C6 1_555 1_555
H3 C7 1_555 1_555
C8 C6 1_555 1_555
H4 C8 1_555 1_555
C9 C8 1_555 1_555
H5 C9 1_555 1_555
C10 N2 1_555 1_555
H6 C10 1_555 1_555
N3 Zn2 1_555 1_555
N4 C17 1_555 1_555
C11 N3 1_555 1_555
C12 C11 1_555 1_555
H7 C12 1_555 1_555
C13 C12 1_555 1_555
H8 C13 1_555 1_555
C14 N3 1_555 1_555
C15 C1 1_555 1_555
C16 C15 1_555 1_555
C17 C16 1_555 1_555
H9 C17 1_555 1_555
C18 C16 1_555 1_555
H10 C18 1_555 1_555
C19 C18 1_555 1_555
H11 C19 1_555 1_555
C20 N4 1_555 1_555
H12 C20 1_555 1_555
N5 Zn2 1_555 1_555
N6 C27 1_555 1_555
C21 N5 1_555 1_555
C22 C21 1_555 1_555
H13 C22 1_555 1_555
C23 C22 1_555 1_555
H14 C23 1_555 1_555
C24 N5 1_555 1_555
C25 C11 1_555 1_555
C26 C25 1_555 1_555
C27 C26 1_555 1_555
H15 C27 1_555 1_555
C28 C26 1_555 1_555
H16 C28 1_555 1_555
C29 C28 1_555 1_555
H17 C29 1_555 1_555
C30 N6 1_555 1_555
H18 C30 1_555 1_555
N7 Zn2 1_555 1_555
N8 C37 1_555 1_555
C31 C5 1_555 1_555
C32 C31 1_555 1_555
H19 C32 1_555 1_555
C33 C32 1_555 1_555
H20 C33 1_555 1_555
C34 N7 1_555 1_555
C35 C21 1_555 1_555
C36 C35 1_555 1_555
C37 C36 1_555 1_555
H21 C37 1_555 1_555
C38 C36 1_555 1_555
H22 C38 1_555 1_555
C39 C38 1_555 1_555
H23 C39 1_555 1_555
C40 N8 1_555 1_555
H24 C40 1_555 1_555
N9 C41 1_555 1_555
N10 Pd1 1_555 1_555
C41 C42 1_555 1_555
C42 H25 1_555 1_555
C43 C42 1_555 1_555
H26 C43 1_555 1_555
C44 N9 1_555 1_555
C45 C44 1_555 1_555
C46 C45 1_555 1_555
C47 N10 1_555 1_555
H27 C47 1_555 1_555
C48 C46 1_555 1_555
H28 C48 1_555 1_555
C49 C48 1_555 1_555
H29 C49 1_555 1_555
C50 N10 1_555 1_555
H30 C50 1_555 1_555
N11 Zn3 1_555 1_555
N12 C57 1_555 1_555
C51 C45 1_555 1_555
C52 C51 1_555 1_555
H31 C52 1_555 1_555
C53 C52 1_555 1_555
H32 C53 1_555 1_555
C54 N11 1_555 1_555
C55 C54 1_555 1_555
C56 C55 1_555 1_555
C57 C56 1_555 1_555
H33 C57 1_555 1_555
C58 C56 1_555 1_555
H34 C58 1_555 1_555
C59 C58 1_555 1_555
H35 C59 1_555 1_555
C60 N12 1_555 1_555
H36 C60 1_555 1_555
N13 Zn3 1_555 1_555
N14 C67 1_555 1_555
C61 C55 1_555 1_555
C62 C61 1_555 1_555
H37 C62 1_555 1_555
C63 C62 1_555 1_555
H38 C63 1_555 1_555
C64 N13 1_555 1_555
C65 C64 1_555 1_555
C66 C65 1_555 1_555
C67 C66 1_555 1_555
H39 C67 1_555 1_555
C68 C66 1_555 1_555
H40 C68 1_555 1_555
C69 C68 1_555 1_555
H41 C69 1_555 1_555
C70 N14 1_555 1_555
H42 C70 1_555 1_555
N15 Zn3 1_555 1_555
N16 Pd2 1_555 1_555
C71 C65 1_555 1_555
C72 C71 1_555 1_555
H43 C72 1_555 1_555
C73 C72 1_555 1_555
H44 C73 1_555 1_555
C74 N15 1_555 1_555
C75 C41 1_555 1_555
C76 C75 1_555 1_555
C77 N16 1_555 1_555
H45 C77 1_555 1_555
C78 C76 1_555 1_555
H46 C78 1_555 1_555
C79 C78 1_555 1_555
H47 C79 1_555 1_555
C80 N16 1_555 1_555
H48 C80 1_555 1_555
N17 C81 1_555 1_555
N18 Pd5 1_555 1_555
C81 C82 1_555 1_555
C82 H49 1_555 1_555
C83 C82 1_555 1_555
H50 C83 1_555 1_555
C84 N17 1_555 1_555
C85 C84 1_555 1_555
C86 C85 1_555 1_555
C87 N18 1_555 1_555
H51 C87 1_555 1_555
C88 C86 1_555 1_555
H52 C88 1_555 1_555
C89 C88 1_555 1_555
H53 C89 1_555 1_555
C90 N18 1_555 1_555
H54 C90 1_555 1_555
N19 Zn1 1_555 1_555
N20 Pd3 1_555 1_555
C91 N19 1_555 1_555
C92 C91 1_555 1_555
H55 C92 1_555 1_555
C93 C92 1_555 1_555
H56 C93 1_555 1_555
C94 N19 1_555 1_555
C95 C81 1_555 1_555
C96 C95 1_555 1_555
C97 N20 1_555 1_555
H57 C97 1_555 1_555
C98 C96 1_555 1_555
H58 C98 1_555 1_555
C99 C98 1_555 1_555
H59 C99 1_555 1_555
C100 N20 1_555 1_555
H60 C100 1_555 1_555
N21 Zn1 1_555 1_555
N22 Pd4 1_555 1_555
C101 N21 1_555 1_555
C102 C101 1_555 1_555
H61 C102 1_555 1_555
C103 C102 1_555 1_555
H62 C103 1_555 1_555
C104 N21 1_555 1_555
C105 C91 1_555 1_555
C106 C105 1_555 1_555
C107 N22 1_555 1_555
H63 C107 1_555 1_555
C108 C106 1_555 1_555
H64 C108 1_555 1_555
C109 C108 1_555 1_555
H65 C109 1_555 1_555
C110 N22 1_555 1_555
H66 C110 1_555 1_555
N23 Zn1 1_555 1_555
N24 Pd6 1_555 1_555
C111 C85 1_555 1_555
C112 C111 1_555 1_555
H67 C112 1_555 1_555
C113 C112 1_555 1_555
H68 C113 1_555 1_555
C114 N23 1_555 1_555
C115 C101 1_555 1_555
C116 C115 1_555 1_555
C117 N24 1_555 1_555
H69 C117 1_555 1_555
C118 C116 1_555 1_555
H70 C118 1_555 1_555
C119 C118 1_555 1_555
H71 C119 1_555 1_555
C120 N24 1_555 1_555
H72 C120 1_555 1_555
N25 Pd1 1_555 1_555
H73 N25 1_555 1_555
H74 N25 1_555 1_555
N26 Pd1 1_555 1_555
H75 N26 1_555 1_555
H76 N26 1_555 1_555
C121 N25 1_555 1_555
H77 C121 1_555 1_555
H78 C121 1_555 1_555
C122 N26 1_555 1_555
H79 C122 1_555 1_555
H80 C122 1_555 1_555
N27 Pd2 1_555 1_555
H81 N27 1_555 1_555
H82 N27 1_555 1_555
N28 Pd2 1_555 1_555
H83 N28 1_555 1_555
H84 N28 1_555 1_555
C123 N28 1_555 1_555
H85 C123 1_555 1_555
H86 C123 1_555 1_555
C124 N27 1_555 1_555
H87 C124 1_555 1_555
H88 C124 1_555 1_555
N29 Pd3 1_555 1_555
H89 N29 1_555 1_555
H90 N29 1_555 1_555
N30 Pd3 1_555 1_555
H91 N30 1_555 1_555
H92 N30 1_555 1_555
C125 N30 1_555 1_555
H93 C125 1_555 1_555
H94 C125 1_555 1_555
C126 N29 1_555 1_555
H95 C126 1_555 1_555
H96 C126 1_555 1_555
N31 Pd4 1_555 1_555
H97 N31 1_555 1_555
H98 N31 1_555 1_555
N32 Pd4 1_555 1_555
H99 N32 1_555 1_555
H100 N32 1_555 1_555
C127 N32 1_555 1_555
H101 C127 1_555 1_555
H102 C127 1_555 1_555
C128 N31 1_555 1_555
H103 C128 1_555 1_555
H104 C128 1_555 1_555
N33 Pd5 1_555 1_555
H105 N33 1_555 1_555
H106 N33 1_555 1_555
N34 Pd5 1_555 1_555
H107 N34 1_555 1_555
H108 N34 1_555 1_555
C129 N33 1_555 1_555
H109 C129 1_555 1_555
H110 C129 1_555 1_555
C130 N34 1_555 1_555
H111 C130 1_555 1_555
H112 C130 1_555 1_555
N35 Pd6 1_555 1_555
H113 N35 1_555 1_555
H114 N35 1_555 1_555
N36 Pd6 1_555 1_555
H115 N36 1_555 1_555
H116 N36 1_555 1_555
C131 N35 1_555 1_555
H117 C131 1_555 1_555
H118 C131 1_555 1_555
C132 N36 1_555 1_555
H119 C132 1_555 1_555
H120 C132 1_555 1_555
O1 Zn1 1_555 1_555
O2 Zn2 1_555 1_555
O3 Zn3 1_555 1_555
O4 Zn3 1_555 1_555
N37 O5 1_555 1_555
O6 N37 1_555 1_555
O7 N37 1_555 1_555
N38 O8 1_555 1_555
O9 N38 1_555 1_555
O10 N38 1_555 1_555
N39 O11 1_555 1_555
O12 N39 1_555 1_555
O13 N39 1_555 1_555
N40 O14 1_555 1_555
O15 N40 1_555 1_555
O16 N40 1_555 1_555
N41 O17 1_555 1_555
O18 N41 1_555 1_555
O19 N41 1_555 1_555
N42 O20 1_555 1_555
O21 N42 1_555 1_555
O22 N42 1_555 1_555
N43 O23 1_555 1_555
O24 N43 1_555 1_555
O25 N43 1_555 1_555
N44 O26 1_555 1_555
O27 N44 1_555 1_555
O28 N44 1_555 1_555
N45 O29 1_555 1_555
O30 N45 1_555 1_555
O31 N45 1_555 1_555
N46 O32 1_555 1_555
O33 N46 1_555 1_555
O34 N46 1_555 1_555
O66 C133 1_555 1_555
C133 H121 1_555 1_555
H122 C133 1_555 1_555
C134 C133 1_555 1_555
H123 C134 1_555 1_555
H124 C134 1_555 1_555
H125 C134 1_555 1_555
O67 C135 1_555 1_555
C135 H126 1_555 1_555
H127 C135 1_555 1_555
C136 C135 1_555 1_555
H128 C136 1_555 1_555
H129 C136 1_555 1_555
H130 C136 1_555 1_555
O68 C137 1_555 1_555
C137 H131 1_555 1_555
H132 C137 1_555 1_555
C138 C137 1_555 1_555
H133 C138 1_555 1_555
H134 C138 1_555 1_555
H135 C138 1_555 1_555
C3 C4 1_555 1_555
C9 C10 1_555 1_555
C13 C14 1_555 1_555
C14 C15 1_555 1_555
C19 C20 1_555 1_555
C23 C24 1_555 1_555
C24 C25 1_555 1_555
C29 C30 1_555 1_555
N7 C31 1_555 1_555
C33 C34 1_555 1_555
C34 C35 1_555 1_555
C39 C40 1_555 1_555
C43 C44 1_555 1_555
C46 C47 1_555 1_555
C49 C50 1_555 1_555
N11 C51 1_555 1_555
C53 C54 1_555 1_555
C59 C60 1_555 1_555
N13 C61 1_555 1_555
C63 C64 1_555 1_555
C69 C70 1_555 1_555
N15 C71 1_555 1_555
C73 C74 1_555 1_555
C74 C75 1_555 1_555
C76 C77 1_555 1_555
C79 C80 1_555 1_555
C83 C84 1_555 1_555
C86 C87 1_555 1_555
C89 C90 1_555 1_555
C93 C94 1_555 1_555
C94 C95 1_555 1_555
C96 C97 1_555 1_555
C99 C100 1_555 1_555
C103 C104 1_555 1_555
C104 C105 1_555 1_555
C106 C107 1_555 1_555
C109 C110 1_555 1_555
N23 C111 1_555 1_555
C113 C114 1_555 1_555
C114 C115 1_555 1_555
C116 C117 1_555 1_555
C119 C120 1_555 1_555
C121 C122 1_555 1_555
C123 C124 1_555 1_555
C125 C126 1_555 1_555
C127 C128 1_555 1_555
C129 C130 1_555 1_555
C131 C132 1_555 1_555

#END
