####################################################################### 
# 
# This file contains crystal structure data downloaded from the 
# Cambridge Structural Database (CSD) hosted by the Cambridge 
# Crystallographic Data Centre (CCDC).
# 
# Full information about CCDC data access policies and citation 
# guidelines are available at http://www.ccdc.cam.ac.uk/access/V1 
# 
# Audit and citation data items may have been added by the CCDC. 
# Please retain this information to preserve the provenance of 
# this file and to allow appropriate attribution of the data. 
# 
#######################################################################

data_p21m
_audit_block_doi                 10.5517/cc139zds
_database_code_depnum_ccdc_archive 'CCDC 1022485'
loop_
_citation_id
_citation_doi
_citation_year
1 10.1002/anie.201409216 2015
_audit_update_record             
;
2014-09-02 deposited with the CCDC.	2019-03-04 downloaded from the CCDC.
;

_audit_creation_method           SHELXL-97
_chemical_name_systematic        
; 
 ? 
;
_chemical_name_common            'M9L18 complex'
_chemical_melting_point          ?
_chemical_formula_moiety         '18(C15 H11 N3), Pd9, 18(B F4)'
_chemical_formula_sum            'C270 H198 B18 F72 N54 Pd9'
_chemical_formula_weight         6719.00

loop_
_atom_type_symbol
_atom_type_description
_atom_type_scat_dispersion_real
_atom_type_scat_dispersion_imag
_atom_type_scat_source
C C 0.0030 0.0016 'International Tables Vol C Tables 4.2.6.8 and 6.1.1.4'
H H 0.0000 0.0000 'International Tables Vol C Tables 4.2.6.8 and 6.1.1.4'
B B 0.0015 0.0007 'International Tables Vol C Tables 4.2.6.8 and 6.1.1.4'
N N 0.0059 0.0032 'International Tables Vol C Tables 4.2.6.8 and 6.1.1.4'
F F 0.0170 0.0100 'International Tables Vol C Tables 4.2.6.8 and 6.1.1.4'
Pd Pd -1.0140 0.9845 'International Tables Vol C Tables 4.2.6.8 and 6.1.1.4'

_symmetry_cell_setting           monoclinic
_symmetry_space_group_name_H-M   'P 21/m'
_symmetry_space_group_name_Hall  '-P 2yb'

loop_
_symmetry_equiv_pos_as_xyz
'x, y, z'
'-x, y+1/2, -z'
'-x, -y, -z'
'x, -y-1/2, z'

_cell_length_a                   53.598(11)
_cell_length_b                   43.824(9)
_cell_length_c                   53.599(11)
_cell_angle_alpha                90.00
_cell_angle_beta                 120.01(3)
_cell_angle_gamma                90.00
_cell_volume                     109022(38)
_cell_formula_units_Z            6
_cell_measurement_temperature    296(2)
_cell_measurement_reflns_used    49071
_cell_measurement_theta_min      ?
_cell_measurement_theta_max      ?

_exptl_crystal_description       needle
_exptl_crystal_colour            colorless
_exptl_crystal_size_max          0.25
_exptl_crystal_size_mid          0.02
_exptl_crystal_size_min          0.02
_exptl_crystal_density_meas      ?
_exptl_crystal_density_diffrn    0.614
_exptl_crystal_density_method    'not measured'
_exptl_crystal_F_000             20088
_exptl_absorpt_coefficient_mu    0.247
_exptl_absorpt_correction_type   empirical
_exptl_absorpt_correction_T_min  0.9408
_exptl_absorpt_correction_T_max  0.9951
_exptl_absorpt_process_details   'HKL2000 DENZO SCALEPACK'

_exptl_special_details           
; 
 ? 
;

_diffrn_ambient_temperature      296(2)
_diffrn_radiation_wavelength     0.70000
_diffrn_radiation_type           synchrotron
_diffrn_radiation_source         'SPring-8 BL41XU beamline'
_diffrn_radiation_monochromator  'Si 111'
_diffrn_measurement_device_type  'PAD Pilatus3 6M (Dectris)'
_diffrn_measurement_method       'oscillation method, \w scans'
_diffrn_measurement_details      
' 0.50 degrees, 1.0 sec, detector distance 250.00 mm'
_diffrn_detector_area_resol_mean ?
_diffrn_standards_number         ?
_diffrn_standards_interval_count ?
_diffrn_standards_interval_time  ?
_diffrn_standards_decay_%        ?
_diffrn_reflns_number            179337
_diffrn_reflns_av_R_equivalents  0.0554
_diffrn_reflns_av_sigmaI/netI    0.0575
_diffrn_reflns_limit_h_min       -40
_diffrn_reflns_limit_h_max       40
_diffrn_reflns_limit_k_min       -32
_diffrn_reflns_limit_k_max       32
_diffrn_reflns_limit_l_min       -41
_diffrn_reflns_limit_l_max       41
_diffrn_reflns_theta_min         0.43
_diffrn_reflns_theta_max         15.56
_reflns_number_total             50735
_reflns_number_gt                26452
_reflns_threshold_expression     >2\s(I)

_computing_data_collection       'SPring-8 BSS'
_computing_cell_refinement       HKL2000
_computing_data_reduction        HKL2000
_computing_structure_solution    superflip
_computing_structure_refinement  'SHELXL-97 (Sheldrick, 1997)'
_computing_molecular_graphics    'Yadokari-XG 2009 (Wakita Nemoto et al., 2009)'
_computing_publication_material  'Yadokari-XG 2009 (Wakita Nemoto et al., 2009)'

_refine_special_details          
; 
 Refinement of F^2^ against ALL reflections.  The weighted R-factor wR and 
 goodness of fit S are based on F^2^, conventional R-factors R are based 
 on F, with F set to zero for negative F^2^. The threshold expression of 
 F^2^ > 2sigma(F^2^) is used only for calculating R-factors(gt) etc. and is 
 not relevant to the choice of reflections for refinement.  R-factors based 
 on F^2^ are statistically about twice as large as those based on F, and R- 
 factors based on ALL data will be even larger. 
;

_refine_ls_structure_factor_coef Fsqd
_refine_ls_matrix_type           full
_refine_ls_weighting_scheme      calc
_refine_ls_weighting_details     
'calc w=1/[\s^2^(Fo^2^)+(0.2000P)^2^] where P=(Fo^2^+2Fc^2^)/3'
_atom_sites_solution_primary     iterative
_atom_sites_solution_secondary   difmap
_atom_sites_solution_hydrogens   geom
_refine_ls_hydrogen_treatment    constr
_refine_ls_extinction_method     none
_refine_ls_extinction_coef       ?
_refine_ls_number_reflns         50735
_refine_ls_number_parameters     4782
_refine_ls_number_restraints     4271
_refine_ls_R_factor_all          0.2483
_refine_ls_R_factor_gt           0.2128
_refine_ls_wR_factor_ref         0.5290
_refine_ls_wR_factor_gt          0.5022
_refine_ls_goodness_of_fit_ref   1.871
_refine_ls_restrained_S_all      1.879
_refine_ls_shift/su_max          0.103
_refine_ls_shift/su_mean         0.009

loop_
_atom_site_label
_atom_site_type_symbol
_atom_site_fract_x
_atom_site_fract_y
_atom_site_fract_z
_atom_site_U_iso_or_equiv
_atom_site_adp_type
_atom_site_occupancy
_atom_site_symmetry_multiplicity
_atom_site_calc_flag
_atom_site_refinement_flags
_atom_site_disorder_assembly
_atom_site_disorder_group
N1 N 0.6562(4) 0.3562(3) 0.9454(4) 0.301(7) Uani 1 1 d GU . .
C1 C 0.6525(4) 0.3275(4) 0.9543(3) 0.305(8) Uani 1 1 d GU . .
H1 H 0.6517 0.3256 0.9712 0.366 Uiso 1 1 calc R . .
C2 C 0.6501(4) 0.3019(3) 0.9381(4) 0.302(8) Uani 1 1 d GU . .
H2 H 0.6476 0.2827 0.9440 0.362 Uiso 1 1 calc R . .
C3 C 0.6513(4) 0.3048(4) 0.9129(4) 0.293(7) Uani 1 1 d GU . .
C4 C 0.6550(4) 0.3334(5) 0.9040(3) 0.294(7) Uani 1 1 d GU . .
H3 H 0.6558 0.3354 0.8871 0.353 Uiso 1 1 calc R . .
C5 C 0.6574(4) 0.3591(3) 0.9203(4) 0.296(8) Uani 1 1 d GU . .
H4 H 0.6598 0.3782 0.9143 0.355 Uiso 1 1 calc R . .
N2 N 0.6515(7) 0.2500 0.9093(7) 0.286(9) Uani 1 2 d SU . .
C6 C 0.6504(7) 0.2766(6) 0.8969(8) 0.297(7) Uani 1 1 d U . .
C7 C 0.6413(7) 0.2757(6) 0.8666(7) 0.310(8) Uani 1 1 d U . .
H5 H 0.6398 0.2943 0.8576 0.372 Uiso 1 1 calc R . .
C8 C 0.6348(10) 0.2500 0.8497(10) 0.309(11) Uani 1 2 d SU . .
H6 H 0.6272 0.2500 0.8299 0.371 Uiso 1 2 calc SR . .
N3 N 0.4451(4) 0.3558(3) 1.1556(4) 0.299(7) Uani 1 1 d GU . .
C9 C 0.4538(3) 0.3272(4) 1.1518(4) 0.309(8) Uani 1 1 d GU . .
H7 H 0.4705 0.3252 1.1506 0.370 Uiso 1 1 calc R . .
C10 C 0.4375(4) 0.3016(3) 1.1496(4) 0.299(8) Uani 1 1 d GU . .
H8 H 0.4434 0.2824 1.1470 0.359 Uiso 1 1 calc R . .
C11 C 0.4126(4) 0.3046(3) 1.1512(4) 0.293(7) Uani 1 1 d GU . .
C12 C 0.4039(3) 0.3332(5) 1.1551(4) 0.291(7) Uani 1 1 d GU . .
H9 H 0.3872 0.3352 1.1562 0.350 Uiso 1 1 calc R . .
C13 C 0.4202(4) 0.3588(3) 1.1573(4) 0.291(8) Uani 1 1 d GU . .
H10 H 0.4143 0.3780 1.1599 0.349 Uiso 1 1 calc R . .
N4 N 0.4099(7) 0.2500 1.1519(7) 0.288(9) Uani 1 2 d SU . .
C14 C 0.3966(8) 0.2768(6) 1.1495(7) 0.298(7) Uani 1 1 d U . .
C15 C 0.3664(7) 0.2756(6) 1.1415(7) 0.316(9) Uani 1 1 d U . .
H11 H 0.3576 0.2938 1.1419 0.379 Uiso 1 1 calc R . .
C16 C 0.3500(11) 0.2500 1.1336(10) 0.318(12) Uani 1 2 d SU . .
H12 H 0.3300 0.2500 1.1240 0.382 Uiso 1 2 calc SR . .
N5 N 0.7027(3) 0.3859(5) 0.9912(5) 0.324(8) Uani 1 1 d GU . .
C17 C 0.7165(5) 0.3672(4) 1.0153(5) 0.339(9) Uani 1 1 d GU . .
H13 H 0.7059 0.3570 1.0221 0.407 Uiso 1 1 calc R . .
C18 C 0.7463(6) 0.3639(4) 1.0294(4) 0.342(9) Uani 1 1 d GU . .
H14 H 0.7555 0.3514 1.0456 0.411 Uiso 1 1 calc R . .
C19 C 0.7623(3) 0.3792(5) 1.0194(5) 0.355(8) Uani 1 1 d GU . .
C20 C 0.7484(5) 0.3978(4) 0.9953(5) 0.340(9) Uani 1 1 d GU . .
H15 H 0.7591 0.4081 0.9885 0.407 Uiso 1 1 calc R . .
C21 C 0.7187(6) 0.4012(3) 0.9812(3) 0.322(9) Uani 1 1 d GU . .
H16 H 0.7094 0.4137 0.9650 0.386 Uiso 1 1 calc R . .
N6 N 0.8027(6) 0.3515(5) 1.0573(7) 0.378(8) Uani 1 1 d GU . .
C22 C 0.7920(4) 0.3712(6) 1.0339(6) 0.379(9) Uani 1 1 d GU . .
C23 C 0.8106(7) 0.3839(5) 1.0257(5) 0.410(10) Uani 1 1 d GU . .
H17 H 0.8034 0.3971 1.0100 0.492 Uiso 1 1 calc R . .
C24 C 0.8398(6) 0.3770(6) 1.0409(7) 0.428(10) Uani 1 1 d GU . .
H18 H 0.8522 0.3856 1.0354 0.514 Uiso 1 1 calc R . .
C25 C 0.8505(4) 0.3573(6) 1.0644(6) 0.413(10) Uani 1 1 d GU . .
H19 H 0.8700 0.3527 1.0746 0.495 Uiso 1 1 calc R . .
C26 C 0.8319(7) 0.3445(4) 1.0726(4) 0.387(9) Uani 1 1 d GU . .
N7 N 0.8514(7) 0.2832(4) 1.1392(4) 0.366(9) Uani 1 1 d GU . .
C27 C 0.8231(5) 0.2930(5) 1.1223(6) 0.368(9) Uani 1 1 d GU . .
H20 H 0.8087 0.2851 1.1253 0.442 Uiso 1 1 calc R . .
C28 C 0.8163(4) 0.3146(6) 1.1008(5) 0.375(10) Uani 1 1 d GU . .
H21 H 0.7974 0.3212 1.0895 0.449 Uiso 1 1 calc R . .
C29 C 0.8378(7) 0.3264(4) 1.0963(4) 0.377(9) Uani 1 1 d GU . .
C30 C 0.8661(6) 0.3166(6) 1.1132(6) 0.374(9) Uani 1 1 d GU . .
H22 H 0.8805 0.3245 1.1102 0.449 Uiso 1 1 calc R . .
C31 C 0.8729(4) 0.2950(6) 1.1347(5) 0.365(10) Uani 1 1 d GU . .
H23 H 0.8919 0.2884 1.1460 0.438 Uiso 1 1 calc R . .
N8 N 0.8642(7) 0.2818(4) 1.1984(5) 0.377(9) Uani 1 1 d GU . .
C32 C 0.8399(4) 0.2940(6) 1.1976(5) 0.384(10) Uani 1 1 d GU . .
H24 H 0.8221 0.2845 1.1868 0.461 Uiso 1 1 calc R . .
C33 C 0.8422(5) 0.3203(7) 1.2130(6) 0.397(10) Uani 1 1 d GU . .
H25 H 0.8259 0.3285 1.2125 0.476 Uiso 1 1 calc R . .
C34 C 0.8688(8) 0.3345(4) 1.2292(5) 0.415(10) Uani 1 1 d GU . .
C35 C 0.8931(5) 0.3223(6) 1.2300(5) 0.400(10) Uani 1 1 d GU . .
H26 H 0.9109 0.3318 1.2408 0.480 Uiso 1 1 calc R . .
C36 C 0.8908(5) 0.2959(7) 1.2146(6) 0.390(10) Uani 1 1 d GU . .
H27 H 0.9071 0.2878 1.2151 0.468 Uiso 1 1 calc R . .
N9 N 0.8467(5) 0.3759(8) 1.2412(5) 0.437(10) Uani 1 1 d GU . .
C37 C 0.8723(9) 0.3641(5) 1.2445(6) 0.447(10) Uani 1 1 d GU . .
C38 C 0.8983(6) 0.3786(8) 1.2626(8) 0.475(12) Uani 1 1 d GU . .
H28 H 0.9154 0.3707 1.2649 0.570 Uiso 1 1 calc R . .
C39 C 0.8987(6) 0.4048(8) 1.2774(6) 0.485(12) Uani 1 1 d GU . .
H29 H 0.9160 0.4145 1.2895 0.582 Uiso 1 1 calc R . .
C40 C 0.8731(9) 0.4166(5) 1.2740(6) 0.471(12) Uani 1 1 d GU . .
H30 H 0.8733 0.4342 1.2839 0.566 Uiso 1 1 calc R . .
C41 C 0.8471(6) 0.4021(8) 1.2559(8) 0.447(10) Uani 1 1 d GU . .
N10 N 0.7648(4) 0.4376(6) 1.2345(5) 0.371(9) Uani 1 1 d GU . .
C42 C 0.7657(5) 0.4085(6) 1.2247(4) 0.376(10) Uani 1 1 d GU . .
H31 H 0.7486 0.3979 1.2132 0.451 Uiso 1 1 calc R . .
C43 C 0.7920(7) 0.3951(4) 1.2320(6) 0.394(10) Uani 1 1 d GU . .
H32 H 0.7926 0.3757 1.2255 0.473 Uiso 1 1 calc R . .
C44 C 0.8175(4) 0.4109(7) 1.2492(6) 0.415(9) Uani 1 1 d GU . .
C45 C 0.8166(5) 0.4400(7) 1.2591(5) 0.399(10) Uani 1 1 d GU . .
H33 H 0.8337 0.4505 1.2706 0.478 Uiso 1 1 calc R . .
C46 C 0.7903(7) 0.4534(4) 1.2517(5) 0.388(10) Uani 1 1 d GU . .
H34 H 0.7897 0.4728 1.2583 0.466 Uiso 1 1 calc R . .
N11 N 0.7184(5) 0.4688(5) 1.1877(4) 0.349(8) Uani 1 1 d GU . .
C47 C 0.7063(4) 0.4509(3) 1.1630(6) 0.342(9) Uani 1 1 d GU . .
H35 H 0.7021 0.4305 1.1639 0.411 Uiso 1 1 calc R . .
C48 C 0.7004(5) 0.4636(5) 1.1368(4) 0.341(9) Uani 1 1 d GU . .
H36 H 0.6923 0.4517 1.1202 0.409 Uiso 1 1 calc R . .
C49 C 0.7066(5) 0.4941(5) 1.1354(4) 0.352(8) Uani 1 1 d GU . .
C50 C 0.7187(5) 0.5120(3) 1.1601(6) 0.357(9) Uani 1 1 d GU . .
H37 H 0.7229 0.5324 1.1592 0.428 Uiso 1 1 calc R . .
C51 C 0.7246(4) 0.4993(5) 1.1863(4) 0.361(10) Uani 1 1 d GU . .
H38 H 0.7327 0.5113 1.2029 0.434 Uiso 1 1 calc R . .
N12 N 0.6918(5) 0.4854(3) 1.0853(6) 0.341(8) Uani 1 1 d GU . .
C52 C 0.7006(5) 0.5055(6) 1.1082(4) 0.365(9) Uani 1 1 d GU . .
C53 C 0.7029(5) 0.5365(5) 1.1041(5) 0.399(10) Uani 1 1 d GU . .
H39 H 0.7088 0.5500 1.1195 0.479 Uiso 1 1 calc R . .
C54 C 0.6965(5) 0.5473(3) 1.0772(7) 0.390(10) Uani 1 1 d GU . .
H40 H 0.6980 0.5680 1.0745 0.468 Uiso 1 1 calc R . .
C55 C 0.6877(5) 0.5271(6) 1.0543(4) 0.374(9) Uani 1 1 d GU . .
H41 H 0.6834 0.5343 1.0363 0.449 Uiso 1 1 calc R . .
C56 C 0.6854(5) 0.4961(5) 1.0584(5) 0.335(8) Uani 1 1 d GU . .
N13 N 0.6658(4) 0.4252(4) 0.9975(4) 0.299(7) Uani 1 1 d GU . .
C57 C 0.6688(4) 0.4191(3) 1.0244(5) 0.323(9) Uani 1 1 d GU . .
H42 H 0.6667 0.3992 1.0292 0.388 Uiso 1 1 calc R . .
C58 C 0.6749(4) 0.4426(5) 1.0440(3) 0.318(8) Uani 1 1 d GU . .
H43 H 0.6770 0.4385 1.0620 0.381 Uiso 1 1 calc R . .
C59 C 0.6780(4) 0.4723(4) 1.0368(4) 0.312(8) Uani 1 1 d GU . .
C60 C 0.6750(4) 0.4784(3) 1.0100(5) 0.311(8) Uani 1 1 d GU . .
H44 H 0.6770 0.4983 1.0052 0.373 Uiso 1 1 calc R . .
C61 C 0.6688(4) 0.4549(5) 0.9904(3) 0.303(8) Uani 1 1 d GU . .
H45 H 0.6668 0.4590 0.9724 0.364 Uiso 1 1 calc R . .
N14 N 0.6171(3) 0.3941(4) 0.9510(4) 0.272(6) Uani 1 1 d GU . .
C62 C 0.6030(5) 0.3771(3) 0.9621(3) 0.290(8) Uani 1 1 d GU . .
H46 H 0.6136 0.3673 0.9798 0.348 Uiso 1 1 calc R . .
C63 C 0.5732(5) 0.3747(4) 0.9468(4) 0.298(8) Uani 1 1 d GU . .
H47 H 0.5638 0.3633 0.9543 0.358 Uiso 1 1 calc R . .
C64 C 0.5574(3) 0.3893(4) 0.9204(4) 0.305(7) Uani 1 1 d GU . .
C65 C 0.5715(5) 0.4063(4) 0.9093(3) 0.291(8) Uani 1 1 d GU . .
H48 H 0.5610 0.4161 0.8916 0.350 Uiso 1 1 calc R . .
C66 C 0.6014(5) 0.4087(3) 0.9246(4) 0.281(7) Uani 1 1 d GU . .
H49 H 0.6108 0.4201 0.9172 0.338 Uiso 1 1 calc R . .
N15 N 0.5158(5) 0.3631(4) 0.9135(3) 0.314(7) Uani 1 1 d GU . .
C67 C 0.5267(3) 0.3884(6) 0.9065(4) 0.319(8) Uani 1 1 d GU . .
C68 C 0.5080(6) 0.4090(4) 0.8858(5) 0.361(9) Uani 1 1 d GU . .
H50 H 0.5152 0.4259 0.8812 0.433 Uiso 1 1 calc R . .
C69 C 0.4784(5) 0.4042(5) 0.8722(4) 0.378(10) Uani 1 1 d GU . .
H51 H 0.4659 0.4179 0.8583 0.454 Uiso 1 1 calc R . .
C70 C 0.4675(3) 0.3788(6) 0.8792(5) 0.368(10) Uani 1 1 d GU . .
H52 H 0.4477 0.3756 0.8700 0.442 Uiso 1 1 calc R . .
C71 C 0.4862(6) 0.3583(4) 0.8998(5) 0.330(8) Uani 1 1 d GU . .
N16 N 0.4575(5) 0.2826(3) 0.9275(5) 0.299(7) Uani 1 1 d GU . .
C72 C 0.4850(4) 0.2945(4) 0.9446(3) 0.304(8) Uani 1 1 d GU . .
H53 H 0.4973 0.2861 0.9626 0.365 Uiso 1 1 calc R . .
C73 C 0.4942(3) 0.3190(5) 0.9348(4) 0.303(8) Uani 1 1 d GU . .
H54 H 0.5126 0.3270 0.9462 0.363 Uiso 1 1 calc R . .
C74 C 0.4759(5) 0.3316(3) 0.9079(5) 0.306(7) Uani 1 1 d GU . .
C75 C 0.4484(5) 0.3197(5) 0.8908(3) 0.305(8) Uani 1 1 d GU . .
H55 H 0.4361 0.3281 0.8728 0.366 Uiso 1 1 calc R . .
C76 C 0.4392(3) 0.2951(5) 0.9006(4) 0.300(8) Uani 1 1 d GU . .
H56 H 0.4208 0.2872 0.8892 0.361 Uiso 1 1 calc R . .
N17 N 0.4278(5) 0.2828(3) 0.9578(5) 0.294(7) Uani 1 1 d GU . .
C77 C 0.4450(3) 0.2948(4) 0.9853(4) 0.300(8) Uani 1 1 d GU . .
H57 H 0.4630 0.2863 0.9975 0.360 Uiso 1 1 calc R . .
C78 C 0.4354(4) 0.3195(5) 0.9944(3) 0.296(8) Uani 1 1 d GU . .
H58 H 0.4469 0.3275 1.0128 0.355 Uiso 1 1 calc R . .
C79 C 0.4085(5) 0.3322(3) 0.9761(5) 0.305(7) Uani 1 1 d GU . .
C80 C 0.3913(3) 0.3203(4) 0.9487(4) 0.299(8) Uani 1 1 d GU . .
H59 H 0.3733 0.3288 0.9365 0.359 Uiso 1 1 calc R . .
C81 C 0.4009(4) 0.2956(4) 0.9395(3) 0.297(8) Uani 1 1 d GU . .
H60 H 0.3894 0.2875 0.9212 0.356 Uiso 1 1 calc R . .
N18 N 0.4140(3) 0.3638(4) 1.0162(5) 0.319(7) Uani 1 1 d GU . .
C82 C 0.4004(5) 0.3591(4) 0.9866(6) 0.332(8) Uani 1 1 d GU . .
C83 C 0.3797(5) 0.3797(6) 0.9679(3) 0.368(10) Uani 1 1 d GU . .
H61 H 0.3706 0.3766 0.9481 0.441 Uiso 1 1 calc R . .
C84 C 0.3726(4) 0.4049(5) 0.9789(5) 0.382(10) Uani 1 1 d GU . .
H62 H 0.3587 0.4186 0.9664 0.459 Uiso 1 1 calc R . .
C85 C 0.3862(5) 0.4095(4) 1.0085(6) 0.366(9) Uani 1 1 d GU . .
H63 H 0.3814 0.4264 1.0158 0.439 Uiso 1 1 calc R . .
C86 C 0.4069(5) 0.3890(6) 1.0271(3) 0.324(8) Uani 1 1 d GU . .
N19 N 0.4513(4) 0.3943(4) 1.1172(3) 0.272(6) Uani 1 1 d GU . .
C87 C 0.4624(3) 0.3773(3) 1.1031(5) 0.283(8) Uani 1 1 d GU . .
H64 H 0.4801 0.3676 1.1137 0.340 Uiso 1 1 calc R . .
C88 C 0.4470(5) 0.3748(4) 1.0733(5) 0.295(8) Uani 1 1 d GU . .
H65 H 0.4545 0.3635 1.0639 0.354 Uiso 1 1 calc R . .
C89 C 0.4206(4) 0.3894(4) 1.0575(3) 0.306(8) Uani 1 1 d GU . .
C90 C 0.4095(3) 0.4064(4) 1.0716(5) 0.296(8) Uani 1 1 d GU . .
H66 H 0.3917 0.4161 1.0611 0.355 Uiso 1 1 calc R . .
C91 C 0.4248(4) 0.4088(3) 1.1015(5) 0.282(7) Uani 1 1 d GU . .
H67 H 0.4173 0.4202 1.1109 0.339 Uiso 1 1 calc R . .
N20 N 0.4970(4) 0.4251(4) 1.1652(4) 0.299(7) Uani 1 1 d GU . .
C92 C 0.5237(5) 0.4190(3) 1.1680(4) 0.325(9) Uani 1 1 d GU . .
H68 H 0.5284 0.3993 1.1656 0.390 Uiso 1 1 calc R . .
C93 C 0.5434(3) 0.4426(5) 1.1744(4) 0.317(8) Uani 1 1 d GU . .
H69 H 0.5613 0.4385 1.1763 0.381 Uiso 1 1 calc R . .
C94 C 0.5363(4) 0.4721(4) 1.1780(4) 0.314(8) Uani 1 1 d GU . .
C95 C 0.5096(5) 0.4782(3) 1.1751(4) 0.308(8) Uani 1 1 d GU . .
H70 H 0.5048 0.4980 1.1775 0.370 Uiso 1 1 calc R . .
C96 C 0.4899(3) 0.4547(5) 1.1687(4) 0.298(8) Uani 1 1 d GU . .
H71 H 0.4720 0.4587 1.1669 0.358 Uiso 1 1 calc R . .
N21 N 0.5863(7) 0.4855(3) 1.1924(5) 0.346(8) Uani 1 1 d GU . .
C97 C 0.5591(5) 0.4955(5) 1.1861(5) 0.343(8) Uani 1 1 d GU . .
C98 C 0.5544(4) 0.5263(6) 1.1887(5) 0.384(10) Uani 1 1 d GU . .
H72 H 0.5363 0.5330 1.1845 0.461 Uiso 1 1 calc R . .
C99 C 0.5769(7) 0.5471(3) 1.1975(5) 0.397(11) Uani 1 1 d GU . .
H73 H 0.5737 0.5676 1.1992 0.477 Uiso 1 1 calc R . .
C100 C 0.6040(5) 0.5371(5) 1.2038(5) 0.402(10) Uani 1 1 d GU . .
H74 H 0.6191 0.5510 1.2097 0.483 Uiso 1 1 calc R . .
C101 C 0.6087(4) 0.5063(6) 1.2013(5) 0.372(9) Uani 1 1 d GU . .
N22 N 0.6880(4) 0.4685(6) 1.2189(5) 0.352(8) Uani 1 1 d GU . .
C102 C 0.6632(6) 0.4507(3) 1.2060(4) 0.347(9) Uani 1 1 d GU . .
H75 H 0.6642 0.4305 1.2014 0.416 Uiso 1 1 calc R . .
C103 C 0.6370(5) 0.4633(5) 1.1999(5) 0.349(9) Uani 1 1 d GU . .
H76 H 0.6203 0.4515 1.1913 0.418 Uiso 1 1 calc R . .
C104 C 0.6355(4) 0.4936(6) 1.2068(5) 0.362(9) Uani 1 1 d GU . .
C105 C 0.6603(6) 0.5114(3) 1.2196(5) 0.371(10) Uani 1 1 d GU . .
H77 H 0.6594 0.5316 1.2242 0.445 Uiso 1 1 calc R . .
C106 C 0.6866(5) 0.4988(5) 1.2257(4) 0.373(10) Uani 1 1 d GU . .
H78 H 0.7032 0.5106 1.2343 0.448 Uiso 1 1 calc R . .
N23 N 0.7346(5) 0.4368(6) 1.2647(4) 0.376(9) Uani 1 1 d GU . .
C107 C 0.7255(5) 0.4075(6) 1.2659(5) 0.381(10) Uani 1 1 d GU . .
H79 H 0.7150 0.3963 1.2491 0.457 Uiso 1 1 calc R . .
C108 C 0.7320(6) 0.3948(4) 1.2923(7) 0.393(10) Uani 1 1 d GU . .
H80 H 0.7258 0.3752 1.2931 0.472 Uiso 1 1 calc R . .
C109 C 0.7477(6) 0.4116(7) 1.3175(4) 0.417(9) Uani 1 1 d GU . .
C110 C 0.7568(5) 0.4409(6) 1.3163(4) 0.405(10) Uani 1 1 d GU . .
H81 H 0.7673 0.4521 1.3331 0.486 Uiso 1 1 calc R . .
C111 C 0.7503(5) 0.4536(4) 1.2899(7) 0.393(10) Uani 1 1 d GU . .
H82 H 0.7565 0.4732 1.2891 0.472 Uiso 1 1 calc R . .
N24 N 0.7409(6) 0.3748(8) 1.3465(5) 0.441(10) Uani 1 1 d GU . .
C112 C 0.7563(8) 0.4008(8) 1.3475(6) 0.447(10) Uani 1 1 d GU . .
C113 C 0.7741(6) 0.4150(5) 1.3737(9) 0.473(12) Uani 1 1 d GU . .
H83 H 0.7844 0.4324 1.3744 0.568 Uiso 1 1 calc R . .
C114 C 0.7766(6) 0.4032(8) 1.3989(5) 0.483(12) Uani 1 1 d GU . .
H84 H 0.7885 0.4127 1.4165 0.579 Uiso 1 1 calc R . .
C115 C 0.7613(8) 0.3772(8) 1.3979(6) 0.474(12) Uani 1 1 d GU . .
H85 H 0.7629 0.3693 1.4148 0.569 Uiso 1 1 calc R . .
C116 C 0.7434(6) 0.3630(5) 1.3717(9) 0.447(10) Uani 1 1 d GU . .
N25 N 0.6984(5) 0.2814(4) 1.3649(7) 0.374(9) Uani 1 1 d GU . .
C117 C 0.6972(5) 0.2935(6) 1.3404(4) 0.382(10) Uani 1 1 d GU . .
H86 H 0.6863 0.2838 1.3227 0.458 Uiso 1 1 calc R . .
C118 C 0.7123(6) 0.3200(6) 1.3422(5) 0.399(10) Uani 1 1 d GU . .
H87 H 0.7115 0.3281 1.3258 0.478 Uiso 1 1 calc R . .
C119 C 0.7285(5) 0.3345(4) 1.3687(7) 0.414(9) Uani 1 1 d GU . .
C120 C 0.7297(5) 0.3224(6) 1.3932(5) 0.403(10) Uani 1 1 d GU . .
H88 H 0.7406 0.3320 1.4109 0.483 Uiso 1 1 calc R . .
C121 C 0.7147(6) 0.2958(6) 1.3913(5) 0.395(10) Uani 1 1 d GU . .
H89 H 0.7155 0.2877 1.4078 0.474 Uiso 1 1 calc R . .
N26 N 0.6392(4) 0.2825(4) 1.3511(7) 0.373(9) Uani 1 1 d GU . .
C122 C 0.6226(6) 0.2925(6) 1.3228(5) 0.374(9) Uani 1 1 d GU . .
H90 H 0.6259 0.2848 1.3085 0.449 Uiso 1 1 calc R . .
C123 C 0.6011(5) 0.3141(6) 1.3159(4) 0.376(10) Uani 1 1 d GU . .
H91 H 0.5900 0.3209 1.2970 0.451 Uiso 1 1 calc R . .
C124 C 0.5962(5) 0.3257(4) 1.3372(7) 0.383(9) Uani 1 1 d GU . .
C125 C 0.6128(6) 0.3156(6) 1.3655(6) 0.373(9) Uani 1 1 d GU . .
H92 H 0.6096 0.3233 1.3798 0.448 Uiso 1 1 calc R . .
C126 C 0.6343(5) 0.2940(6) 1.3724(4) 0.369(10) Uani 1 1 d GU . .
H93 H 0.6454 0.2873 1.3913 0.443 Uiso 1 1 calc R . .
N27 N 0.5569(7) 0.3522(5) 1.3030(6) 0.386(8) Uani 1 1 d GU . .
C127 C 0.5730(5) 0.3460(4) 1.3324(7) 0.396(9) Uani 1 1 d GU . .
C128 C 0.5653(6) 0.3591(6) 1.3512(4) 0.414(10) Uani 1 1 d GU . .
H94 H 0.5761 0.3549 1.3708 0.497 Uiso 1 1 calc R . .
C129 C 0.5416(7) 0.3783(6) 1.3407(6) 0.426(10) Uani 1 1 d GU . .
H95 H 0.5364 0.3871 1.3533 0.511 Uiso 1 1 calc R . .
C130 C 0.5255(5) 0.3845(5) 1.3114(7) 0.411(10) Uani 1 1 d GU . .
H96 H 0.5096 0.3974 1.3043 0.494 Uiso 1 1 calc R . .
C131 C 0.5332(6) 0.3714(6) 1.2925(4) 0.389(9) Uani 1 1 d GU . .
N28 N 0.4912(5) 0.3867(5) 1.2025(3) 0.327(8) Uani 1 1 d GU . .
C132 C 0.5150(5) 0.3675(4) 1.2161(5) 0.344(9) Uani 1 1 d GU . .
H97 H 0.5218 0.3574 1.2054 0.413 Uiso 1 1 calc R . .
C133 C 0.5288(4) 0.3634(4) 1.2458(5) 0.351(9) Uani 1 1 d GU . .
H98 H 0.5447 0.3506 1.2549 0.421 Uiso 1 1 calc R . .
C134 C 0.5187(5) 0.3784(5) 1.2619(3) 0.365(8) Uani 1 1 d GU . .
C135 C 0.4949(5) 0.3976(4) 1.2483(5) 0.347(9) Uani 1 1 d GU . .
H99 H 0.4882 0.4076 1.2591 0.416 Uiso 1 1 calc R . .
C136 C 0.4812(4) 0.4017(3) 1.2186(5) 0.326(9) Uani 1 1 d GU . .
H100 H 0.4653 0.4145 1.2095 0.391 Uiso 1 1 calc R . .
N29 N 0.3438(4) 0.3561(3) 0.2890(4) 0.302(7) Uani 1 1 d GU . .
C137 C 0.3471(4) 0.3275(5) 0.3015(3) 0.306(8) Uani 1 1 d GU . .
H101 H 0.3477 0.3256 0.3191 0.368 Uiso 1 1 calc R . .
C138 C 0.3494(4) 0.3017(3) 0.2877(4) 0.309(8) Uani 1 1 d GU . .
H102 H 0.3516 0.2826 0.2961 0.371 Uiso 1 1 calc R . .
C139 C 0.3485(4) 0.3045(3) 0.2614(4) 0.298(7) Uani 1 1 d GU . .
C140 C 0.3452(4) 0.3331(5) 0.2489(3) 0.292(7) Uani 1 1 d GU . .
H103 H 0.3446 0.3350 0.2314 0.350 Uiso 1 1 calc R . .
C141 C 0.3429(4) 0.3589(3) 0.2628(4) 0.301(8) Uani 1 1 d GU . .
H104 H 0.3407 0.3780 0.2544 0.361 Uiso 1 1 calc R . .
N30 N 0.3488(7) 0.2500 0.2589(6) 0.302(9) Uani 1 2 d SDU . .
C142 C 0.3515(6) 0.2769(6) 0.2473(5) 0.304(8) Uani 1 1 d DU . .
C143 C 0.3587(5) 0.2748(6) 0.2257(5) 0.315(9) Uani 1 1 d DU . .
H105 H 0.3596 0.2935 0.2179 0.378 Uiso 1 1 calc R . .
C144 C 0.3645(9) 0.2500 0.2138(8) 0.320(12) Uani 1 2 d SDU . .
H106 H 0.3710 0.2500 0.2006 0.384 Uiso 1 2 calc SR . .
N31 N 0.5547(4) 0.3561(3) 0.7112(4) 0.293(7) Uani 1 1 d GU . .
C145 C 0.5455(3) 0.3274(4) 0.6988(3) 0.315(9) Uani 1 1 d GU . .
H107 H 0.5286 0.3255 0.6813 0.378 Uiso 1 1 calc R . .
C146 C 0.5617(4) 0.3017(3) 0.7128(4) 0.315(9) Uani 1 1 d GU . .
H108 H 0.5555 0.2825 0.7045 0.378 Uiso 1 1 calc R . .
C147 C 0.5870(4) 0.3046(3) 0.7391(4) 0.295(7) Uani 1 1 d GU . .
C148 C 0.5962(3) 0.3332(5) 0.7514(3) 0.286(8) Uani 1 1 d GU . .
H109 H 0.6132 0.3352 0.7690 0.343 Uiso 1 1 calc R . .
C149 C 0.5801(4) 0.3590(3) 0.7375(4) 0.287(8) Uani 1 1 d GU . .
H110 H 0.5862 0.3781 0.7458 0.345 Uiso 1 1 calc R . .
N32 N 0.5901(7) 0.2500 0.7414(7) 0.288(10) Uani 1 2 d SU . .
C150 C 0.6028(8) 0.2760(6) 0.7521(7) 0.296(8) Uani 1 1 d U . .
C151 C 0.6320(7) 0.2748(6) 0.7744(6) 0.310(9) Uani 1 1 d U . .
H111 H 0.6405 0.2937 0.7816 0.372 Uiso 1 1 calc R . .
C152 C 0.6499(10) 0.2500 0.7870(9) 0.312(12) Uani 1 2 d SU . .
H112 H 0.6694 0.2500 0.8007 0.374 Uiso 1 2 calc SR . .
N33 N 0.2348(5) 0.4368(6) 0.4696(4) 0.382(9) Uani 1 1 d GU . .
C153 C 0.2341(5) 0.4078(6) 0.4588(6) 0.400(10) Uani 1 1 d GU . .
H113 H 0.2511 0.3972 0.4647 0.480 Uiso 1 1 calc R . .
C154 C 0.2078(7) 0.3946(4) 0.4394(6) 0.417(10) Uani 1 1 d GU . .
H114 H 0.2073 0.3752 0.4322 0.500 Uiso 1 1 calc R . .
C155 C 0.1823(5) 0.4105(7) 0.4306(5) 0.433(10) Uani 1 1 d GU . .
C156 C 0.1830(5) 0.4395(7) 0.4414(6) 0.419(10) Uani 1 1 d GU . .
H115 H 0.1660 0.4501 0.4356 0.503 Uiso 1 1 calc R . .
C157 C 0.2093(7) 0.4527(4) 0.4609(6) 0.396(10) Uani 1 1 d GU . .
H116 H 0.2098 0.4721 0.4681 0.475 Uiso 1 1 calc R . .
N34 N 0.1532(5) 0.3748(8) 0.3950(8) 0.447(10) Uani 1 1 d GU . .
C158 C 0.1527(6) 0.4015(8) 0.4087(5) 0.451(10) Uani 1 1 d GU . .
C159 C 0.1267(9) 0.4166(5) 0.3998(7) 0.465(11) Uani 1 1 d GU . .
H117 H 0.1264 0.4344 0.4090 0.558 Uiso 1 1 calc R . .
C160 C 0.1014(6) 0.4050(8) 0.3771(8) 0.473(12) Uani 1 1 d GU . .
H118 H 0.0840 0.4150 0.3712 0.568 Uiso 1 1 calc R . .
C161 C 0.1019(6) 0.3783(8) 0.3634(5) 0.468(11) Uani 1 1 d GU . .
H119 H 0.0849 0.3705 0.3482 0.561 Uiso 1 1 calc R . .
C162 C 0.1278(9) 0.3632(5) 0.3723(7) 0.446(10) Uani 1 1 d GU . .
N35 N 0.1352(7) 0.2814(4) 0.3333(6) 0.382(9) Uani 1 1 d GU . .
C163 C 0.1596(4) 0.2937(7) 0.3567(6) 0.396(10) Uani 1 1 d GU . .
H120 H 0.1774 0.2844 0.3634 0.476 Uiso 1 1 calc R . .
C164 C 0.1573(5) 0.3199(7) 0.3701(5) 0.408(10) Uani 1 1 d GU . .
H121 H 0.1736 0.3281 0.3857 0.490 Uiso 1 1 calc R . .
C165 C 0.1306(8) 0.3337(4) 0.3601(7) 0.413(9) Uani 1 1 d GU . .
C166 C 0.1062(5) 0.3214(7) 0.3367(7) 0.406(10) Uani 1 1 d GU . .
H122 H 0.0884 0.3306 0.3300 0.488 Uiso 1 1 calc R . .
C167 C 0.1085(5) 0.2952(7) 0.3233(4) 0.391(10) Uani 1 1 d GU . .
H123 H 0.0922 0.2869 0.3077 0.469 Uiso 1 1 calc R . .
N36 N 0.1489(7) 0.2822(4) 0.2876(6) 0.355(8) Uani 1 1 d GU . .
C168 C 0.1771(5) 0.2925(6) 0.2994(4) 0.364(10) Uani 1 1 d GU . .
H124 H 0.1914 0.2847 0.3168 0.436 Uiso 1 1 calc R . .
C169 C 0.1838(4) 0.3145(6) 0.2850(6) 0.377(10) Uani 1 1 d GU . .
H125 H 0.2027 0.3214 0.2928 0.452 Uiso 1 1 calc R . .
C170 C 0.1624(7) 0.3261(4) 0.2588(6) 0.376(9) Uani 1 1 d GU . .
C171 C 0.1342(6) 0.3158(6) 0.2471(4) 0.382(10) Uani 1 1 d GU . .
H126 H 0.1199 0.3236 0.2296 0.459 Uiso 1 1 calc R . .
C172 C 0.1274(4) 0.2938(6) 0.2615(6) 0.374(10) Uani 1 1 d GU . .
H127 H 0.1086 0.2869 0.2536 0.448 Uiso 1 1 calc R . .
N37 N 0.1971(6) 0.3526(5) 0.2546(4) 0.375(9) Uani 1 1 d GU . .
C173 C 0.1680(7) 0.3451(4) 0.2406(6) 0.391(9) Uani 1 1 d GU . .
C174 C 0.1494(4) 0.3574(6) 0.2136(6) 0.414(11) Uani 1 1 d GU . .
H128 H 0.1299 0.3524 0.2042 0.497 Uiso 1 1 calc R . .
C175 C 0.1599(6) 0.3771(6) 0.2006(4) 0.425(11) Uani 1 1 d GU . .
H129 H 0.1475 0.3853 0.1826 0.510 Uiso 1 1 calc R . .
C176 C 0.1890(7) 0.3845(5) 0.2147(6) 0.413(10) Uani 1 1 d GU . .
H130 H 0.1960 0.3977 0.2060 0.496 Uiso 1 1 calc R . .
C177 C 0.2076(4) 0.3723(6) 0.2417(6) 0.380(9) Uani 1 1 d GU . .
N38 N 0.2977(3) 0.3864(4) 0.2890(5) 0.309(7) Uani 1 1 d GU . .
C178 C 0.2838(5) 0.3673(4) 0.2989(3) 0.334(9) Uani 1 1 d GU . .
H131 H 0.2944 0.3571 0.3164 0.401 Uiso 1 1 calc R . .
C179 C 0.2541(5) 0.3634(4) 0.2828(5) 0.346(9) Uani 1 1 d GU . .
H132 H 0.2448 0.3506 0.2894 0.416 Uiso 1 1 calc R . .
C180 C 0.2383(3) 0.3787(5) 0.2567(5) 0.353(8) Uani 1 1 d GU . .
C181 C 0.2521(5) 0.3978(4) 0.2468(3) 0.331(9) Uani 1 1 d GU . .
H133 H 0.2416 0.4081 0.2294 0.397 Uiso 1 1 calc R . .
C182 C 0.2818(5) 0.4017(3) 0.2630(5) 0.309(8) Uani 1 1 d GU . .
H134 H 0.2911 0.4145 0.2564 0.371 Uiso 1 1 calc R . .
N39 N 0.3340(4) 0.4251(4) 0.3317(4) 0.299(7) Uani 1 1 d GU . .
C183 C 0.3311(4) 0.4189(3) 0.3556(4) 0.320(9) Uani 1 1 d GU . .
H135 H 0.3332 0.3991 0.3625 0.384 Uiso 1 1 calc R . .
C184 C 0.3250(5) 0.4425(5) 0.3691(4) 0.322(8) Uani 1 1 d GU . .
H136 H 0.3231 0.4384 0.3851 0.386 Uiso 1 1 calc R . .
C185 C 0.3218(4) 0.4721(4) 0.3587(5) 0.322(8) Uani 1 1 d GU . .
C186 C 0.3247(4) 0.4783(3) 0.3348(5) 0.317(9) Uani 1 1 d GU . .
H137 H 0.3225 0.4981 0.3279 0.380 Uiso 1 1 calc R . .
C187 C 0.3307(4) 0.4547(5) 0.3213(3) 0.306(8) Uani 1 1 d GU . .
H138 H 0.3327 0.4588 0.3053 0.368 Uiso 1 1 calc R . .
N40 N 0.3082(5) 0.4856(3) 0.3940(5) 0.348(8) Uani 1 1 d GU . .
C188 C 0.3144(5) 0.4959(5) 0.3732(5) 0.341(8) Uani 1 1 d GU . .
C189 C 0.3117(5) 0.5268(6) 0.3662(5) 0.375(10) Uani 1 1 d GU . .
H139 H 0.3159 0.5337 0.3523 0.450 Uiso 1 1 calc R . .
C190 C 0.3029(5) 0.5472(3) 0.3801(6) 0.383(11) Uani 1 1 d GU . .
H140 H 0.3011 0.5679 0.3754 0.460 Uiso 1 1 calc R . .
C191 C 0.2967(5) 0.5369(5) 0.4009(5) 0.392(10) Uani 1 1 d GU . .
H141 H 0.2908 0.5506 0.4102 0.471 Uiso 1 1 calc R . .
C192 C 0.2993(5) 0.5061(6) 0.4079(4) 0.367(9) Uani 1 1 d GU . .
N41 N 0.2818(5) 0.4682(5) 0.4693(4) 0.357(8) Uani 1 1 d GU . .
C193 C 0.2946(5) 0.4506(3) 0.4572(5) 0.347(10) Uani 1 1 d GU . .
H142 H 0.2994 0.4304 0.4627 0.416 Uiso 1 1 calc R . .
C194 C 0.3003(5) 0.4633(5) 0.4368(5) 0.347(9) Uani 1 1 d GU . .
H143 H 0.3089 0.4515 0.4287 0.417 Uiso 1 1 calc R . .
C195 C 0.2932(5) 0.4935(5) 0.4285(4) 0.360(9) Uani 1 1 d GU . .
C196 C 0.2803(5) 0.5111(3) 0.4406(5) 0.358(10) Uani 1 1 d GU . .
H144 H 0.2756 0.5314 0.4350 0.430 Uiso 1 1 calc R . .
C197 C 0.2747(4) 0.4985(5) 0.4610(5) 0.356(10) Uani 1 1 d GU . .
H145 H 0.2661 0.5102 0.4691 0.427 Uiso 1 1 calc R . .
N42 N 0.3829(3) 0.3942(4) 0.3340(4) 0.283(7) Uani 1 1 d GU . .
C198 C 0.3969(5) 0.3769(3) 0.3590(4) 0.286(7) Uani 1 1 d GU . .
H146 H 0.3864 0.3670 0.3660 0.344 Uiso 1 1 calc R . .
C199 C 0.4268(5) 0.3745(4) 0.3736(3) 0.293(8) Uani 1 1 d GU . .
H147 H 0.4362 0.3629 0.3903 0.352 Uiso 1 1 calc R . .
C200 C 0.4426(3) 0.3893(4) 0.3631(4) 0.305(7) Uani 1 1 d GU . .
C201 C 0.4286(5) 0.4066(4) 0.3380(5) 0.296(8) Uani 1 1 d GU . .
H148 H 0.4391 0.4165 0.3310 0.356 Uiso 1 1 calc R . .
C202 C 0.3987(5) 0.4090(3) 0.3235(3) 0.282(8) Uani 1 1 d GU . .
H149 H 0.3893 0.4206 0.3067 0.338 Uiso 1 1 calc R . .
N43 N 0.4837(5) 0.3635(4) 0.3979(5) 0.320(7) Uani 1 1 d GU . .
C203 C 0.4727(3) 0.3884(6) 0.3795(4) 0.322(7) Uani 1 1 d GU . .
C204 C 0.4913(6) 0.4089(4) 0.3773(4) 0.358(9) Uani 1 1 d GU . .
H150 H 0.4840 0.4256 0.3650 0.430 Uiso 1 1 calc R . .
C205 C 0.5209(5) 0.4045(5) 0.3936(5) 0.364(9) Uani 1 1 d GU . .
H151 H 0.5334 0.4182 0.3921 0.437 Uiso 1 1 calc R . .
C206 C 0.5319(3) 0.3796(6) 0.4120(5) 0.350(9) Uani 1 1 d GU . .
H152 H 0.5517 0.3766 0.4229 0.420 Uiso 1 1 calc R . .
C207 C 0.5133(6) 0.3591(4) 0.4141(4) 0.319(7) Uani 1 1 d GU . .
N44 N 0.5423(5) 0.2822(3) 0.4694(3) 0.297(7) Uani 1 1 d GU . .
C208 C 0.5150(4) 0.2943(4) 0.4598(4) 0.302(8) Uani 1 1 d GU . .
H153 H 0.5030 0.2857 0.4657 0.362 Uiso 1 1 calc R . .
C209 C 0.5057(3) 0.3193(5) 0.4414(4) 0.302(8) Uani 1 1 d GU . .
H154 H 0.4875 0.3274 0.4349 0.362 Uiso 1 1 calc R . .
C210 C 0.5238(5) 0.3322(3) 0.4326(3) 0.306(7) Uani 1 1 d GU . .
C211 C 0.5511(5) 0.3201(5) 0.4422(4) 0.309(8) Uani 1 1 d GU . .
H155 H 0.5631 0.3288 0.4363 0.371 Uiso 1 1 calc R . .
C212 C 0.5603(3) 0.2951(5) 0.4606(4) 0.305(8) Uani 1 1 d GU . .
H156 H 0.5786 0.2870 0.4671 0.366 Uiso 1 1 calc R . .
N45 N 0.5727(5) 0.2822(3) 0.5304(3) 0.288(7) Uani 1 1 d GU . .
C213 C 0.5553(3) 0.2942(4) 0.5404(4) 0.298(8) Uani 1 1 d GU . .
H157 H 0.5373 0.2857 0.5346 0.357 Uiso 1 1 calc R . .
C214 C 0.5648(4) 0.3189(4) 0.5592(4) 0.301(8) Uani 1 1 d GU . .
H158 H 0.5531 0.3269 0.5659 0.361 Uiso 1 1 calc R . .
C215 C 0.5917(5) 0.3317(3) 0.5680(3) 0.304(8) Uani 1 1 d GU . .
C216 C 0.6090(3) 0.3197(4) 0.5580(4) 0.307(8) Uani 1 1 d GU . .
H159 H 0.6270 0.3282 0.5638 0.368 Uiso 1 1 calc R . .
C217 C 0.5996(4) 0.2950(4) 0.5392(4) 0.298(8) Uani 1 1 d GU . .
H160 H 0.6112 0.2869 0.5325 0.358 Uiso 1 1 calc R . .
N46 N 0.5863(3) 0.3631(4) 0.6017(5) 0.322(8) Uani 1 1 d GU . .
C218 C 0.5995(5) 0.3586(4) 0.5853(4) 0.330(8) Uani 1 1 d GU . .
C219 C 0.6203(5) 0.3789(6) 0.5874(5) 0.360(9) Uani 1 1 d GU . .
H161 H 0.6291 0.3759 0.5764 0.432 Uiso 1 1 calc R . .
C220 C 0.6279(4) 0.4038(5) 0.6058(5) 0.362(10) Uani 1 1 d GU . .
H162 H 0.6418 0.4175 0.6072 0.434 Uiso 1 1 calc R . .
C221 C 0.6147(5) 0.4084(4) 0.6222(4) 0.353(10) Uani 1 1 d GU . .
H163 H 0.6199 0.4251 0.6346 0.423 Uiso 1 1 calc R . .
C222 C 0.5939(5) 0.3880(6) 0.6202(4) 0.323(8) Uani 1 1 d GU . .
N47 N 0.5484(4) 0.3939(4) 0.6656(4) 0.285(7) Uani 1 1 d GU . .
C223 C 0.5375(3) 0.3769(3) 0.6404(4) 0.293(9) Uani 1 1 d GU . .
H164 H 0.5199 0.3670 0.6332 0.352 Uiso 1 1 calc R . .
C224 C 0.5530(5) 0.3748(4) 0.6260(3) 0.295(9) Uani 1 1 d GU . .
H165 H 0.5458 0.3635 0.6091 0.354 Uiso 1 1 calc R . .
C225 C 0.5793(4) 0.3896(4) 0.6368(4) 0.301(8) Uani 1 1 d GU . .
C226 C 0.5902(3) 0.4066(4) 0.6621(5) 0.293(9) Uani 1 1 d GU . .
H166 H 0.6078 0.4165 0.6693 0.352 Uiso 1 1 calc R . .
C227 C 0.5747(4) 0.4087(3) 0.6765(3) 0.287(9) Uani 1 1 d GU . .
H167 H 0.5820 0.4200 0.6934 0.344 Uiso 1 1 calc R . .
N48 N 0.5029(4) 0.4248(4) 0.6683(4) 0.315(8) Uani 1 1 d GU . .
C228 C 0.4760(5) 0.4185(3) 0.6447(5) 0.333(9) Uani 1 1 d GU . .
H168 H 0.4713 0.3986 0.6378 0.400 Uiso 1 1 calc R . .
C229 C 0.4560(3) 0.4418(5) 0.6314(4) 0.335(9) Uani 1 1 d GU . .
H169 H 0.4380 0.4375 0.6156 0.403 Uiso 1 1 calc R . .
C230 C 0.4630(4) 0.4715(4) 0.6417(5) 0.328(8) Uani 1 1 d GU . .
C231 C 0.4899(5) 0.4779(3) 0.6653(5) 0.313(8) Uani 1 1 d GU . .
H170 H 0.4946 0.4978 0.6721 0.376 Uiso 1 1 calc R . .
C232 C 0.5099(3) 0.4546(5) 0.6785(3) 0.306(8) Uani 1 1 d GU . .
H171 H 0.5279 0.4588 0.6943 0.367 Uiso 1 1 calc R . .
N49 N 0.4134(6) 0.4858(3) 0.6059(5) 0.356(8) Uani 1 1 d GU . .
C233 C 0.4407(5) 0.4959(5) 0.6264(5) 0.351(8) Uani 1 1 d GU . .
C234 C 0.4455(4) 0.5268(6) 0.6330(5) 0.386(10) Uani 1 1 d GU . .
H172 H 0.4638 0.5335 0.6467 0.464 Uiso 1 1 calc R . .
C235 C 0.4231(7) 0.5476(3) 0.6193(6) 0.400(10) Uani 1 1 d GU . .
H173 H 0.4264 0.5682 0.6237 0.479 Uiso 1 1 calc R . .
C236 C 0.3958(5) 0.5375(5) 0.5988(5) 0.402(10) Uani 1 1 d GU . .
H174 H 0.3808 0.5514 0.5896 0.482 Uiso 1 1 calc R . .
C237 C 0.3909(4) 0.5066(6) 0.5922(5) 0.375(9) Uani 1 1 d GU . .
N50 N 0.3122(4) 0.4689(6) 0.5306(4) 0.361(9) Uani 1 1 d GU . .
C238 C 0.3370(6) 0.4511(3) 0.5426(5) 0.358(9) Uani 1 1 d GU . .
H175 H 0.3360 0.4309 0.5367 0.430 Uiso 1 1 calc R . .
C239 C 0.3631(5) 0.4633(5) 0.5635(5) 0.357(9) Uani 1 1 d GU . .
H176 H 0.3796 0.4514 0.5715 0.429 Uiso 1 1 calc R . .
C240 C 0.3644(4) 0.4934(6) 0.5723(4) 0.366(9) Uani 1 1 d GU . .
C241 C 0.3397(6) 0.5112(3) 0.5603(5) 0.366(10) Uani 1 1 d GU . .
H177 H 0.3406 0.5313 0.5662 0.439 Uiso 1 1 calc R . .
C242 C 0.3136(5) 0.4990(5) 0.5394(5) 0.366(10) Uani 1 1 d GU . .
H178 H 0.2970 0.5109 0.5314 0.439 Uiso 1 1 calc R . .
N51 N 0.2654(6) 0.4358(6) 0.5302(4) 0.384(9) Uani 1 1 d GU . .
C243 C 0.2749(5) 0.4067(6) 0.5413(6) 0.393(10) Uani 1 1 d GU . .
H179 H 0.2860 0.3956 0.5357 0.472 Uiso 1 1 calc R . .
C244 C 0.2677(6) 0.3944(4) 0.5608(6) 0.395(10) Uani 1 1 d GU . .
H180 H 0.2741 0.3750 0.5682 0.474 Uiso 1 1 calc R . .
C245 C 0.2511(6) 0.4111(7) 0.5692(5) 0.418(9) Uani 1 1 d GU . .
C246 C 0.2417(5) 0.4402(6) 0.5581(6) 0.414(10) Uani 1 1 d GU . .
H181 H 0.2306 0.4514 0.5637 0.496 Uiso 1 1 calc R . .
C247 C 0.2489(5) 0.4526(4) 0.5386(5) 0.398(10) Uani 1 1 d GU . .
H182 H 0.2425 0.4720 0.5312 0.478 Uiso 1 1 calc R . .
N52 N 0.2592(5) 0.3754(7) 0.6055(7) 0.430(9) Uani 1 1 d GU . .
C248 C 0.2434(7) 0.4012(8) 0.5912(5) 0.431(9) Uani 1 1 d GU . .
C249 C 0.2259(6) 0.4153(5) 0.6000(7) 0.446(11) Uani 1 1 d GU . .
H183 H 0.2154 0.4326 0.5904 0.536 Uiso 1 1 calc R . .
C250 C 0.2241(6) 0.4036(8) 0.6232(8) 0.454(11) Uani 1 1 d GU . .
H184 H 0.2124 0.4131 0.6291 0.545 Uiso 1 1 calc R . .
C251 C 0.2398(7) 0.3778(8) 0.6375(5) 0.448(10) Uani 1 1 d GU . .
H185 H 0.2386 0.3700 0.6530 0.537 Uiso 1 1 calc R . .
C252 C 0.2574(6) 0.3637(5) 0.6287(7) 0.426(9) Uani 1 1 d GU . .
N53 N 0.3019(5) 0.2819(4) 0.6670(6) 0.386(9) Uani 1 1 d GU . .
C253 C 0.3030(5) 0.2941(6) 0.6437(6) 0.392(9) Uani 1 1 d GU . .
H186 H 0.3144 0.2849 0.6372 0.470 Uiso 1 1 calc R . .
C254 C 0.2872(6) 0.3202(7) 0.6300(4) 0.400(9) Uani 1 1 d GU . .
H187 H 0.2880 0.3283 0.6144 0.480 Uiso 1 1 calc R . .
C255 C 0.2703(5) 0.3340(4) 0.6397(6) 0.407(9) Uani 1 1 d GU . .
C256 C 0.2692(5) 0.3218(6) 0.6630(6) 0.397(9) Uani 1 1 d GU . .
H188 H 0.2578 0.3310 0.6695 0.477 Uiso 1 1 calc R . .
C257 C 0.2849(6) 0.2957(7) 0.6767(4) 0.391(9) Uani 1 1 d GU . .
H189 H 0.2842 0.2876 0.6923 0.469 Uiso 1 1 calc R . .
N54 N 0.3604(4) 0.2826(4) 0.7107(5) 0.360(9) Uani 1 1 d GU . .
C258 C 0.3773(6) 0.2935(5) 0.6997(4) 0.354(9) Uani 1 1 d GU . .
H190 H 0.3743 0.2864 0.6820 0.424 Uiso 1 1 calc R . .
C259 C 0.3987(5) 0.3149(5) 0.7151(6) 0.364(9) Uani 1 1 d GU . .
H191 H 0.4100 0.3221 0.7077 0.437 Uiso 1 1 calc R . .
C260 C 0.4032(4) 0.3254(4) 0.7414(6) 0.368(8) Uani 1 1 d GU . .
C261 C 0.3863(6) 0.3146(6) 0.7524(4) 0.374(9) Uani 1 1 d GU . .
H192 H 0.3893 0.3217 0.7701 0.449 Uiso 1 1 calc R . .
C262 C 0.3649(5) 0.2932(5) 0.7371(6) 0.370(9) Uani 1 1 d GU . .
H193 H 0.3535 0.2859 0.7444 0.444 Uiso 1 1 calc R . .
N55 N 0.4421(6) 0.3518(5) 0.7453(4) 0.372(8) Uani 1 1 d GU . .
C263 C 0.4273(4) 0.3446(4) 0.7596(6) 0.390(9) Uani 1 1 d GU . .
C264 C 0.4355(6) 0.3577(6) 0.7862(6) 0.415(10) Uani 1 1 d GU . .
H194 H 0.4256 0.3529 0.7958 0.497 Uiso 1 1 calc R . .
C265 C 0.4585(7) 0.3780(6) 0.7985(4) 0.420(11) Uani 1 1 d GU . .
H195 H 0.4640 0.3868 0.8163 0.505 Uiso 1 1 calc R . .
C266 C 0.4734(5) 0.3852(5) 0.7842(6) 0.407(11) Uani 1 1 d GU . .
H196 H 0.4888 0.3987 0.7924 0.488 Uiso 1 1 calc R . .
C267 C 0.4652(6) 0.3721(6) 0.7575(6) 0.378(9) Uani 1 1 d GU . .
N56 N 0.5086(5) 0.3867(5) 0.7110(5) 0.331(8) Uani 1 1 d GU . .
C268 C 0.4847(5) 0.3676(4) 0.7009(3) 0.351(10) Uani 1 1 d GU . .
H197 H 0.4778 0.3576 0.6834 0.421 Uiso 1 1 calc R . .
C269 C 0.4712(4) 0.3634(4) 0.7170(6) 0.354(9) Uani 1 1 d GU . .
H198 H 0.4553 0.3506 0.7103 0.425 Uiso 1 1 calc R . .
C270 C 0.4815(5) 0.3783(5) 0.7433(5) 0.358(8) Uani 1 1 d GU . .
C271 C 0.5053(5) 0.3974(4) 0.7534(4) 0.353(10) Uani 1 1 d GU . .
H199 H 0.5122 0.4074 0.7709 0.423 Uiso 1 1 calc R . .
C272 C 0.5189(4) 0.4016(4) 0.7373(5) 0.334(9) Uani 1 1 d GU . .
H200 H 0.5348 0.4143 0.7440 0.400 Uiso 1 1 calc R . .
N57 N -0.2112(4) 0.6441(3) -0.0544(4) 0.288(7) Uani 1 1 d GU . .
C273 C -0.1984(3) 0.6726(4) -0.0454(3) 0.311(8) Uani 1 1 d GU . .
H201 H -0.1808 0.6745 -0.0284 0.373 Uiso 1 1 calc R . .
C274 C -0.2120(4) 0.6984(3) -0.0617(4) 0.310(8) Uani 1 1 d GU . .
H202 H -0.2035 0.7174 -0.0557 0.372 Uiso 1 1 calc R . .
C275 C -0.2383(4) 0.6956(3) -0.0871(4) 0.294(7) Uani 1 1 d GU . .
C276 C -0.2510(3) 0.6671(5) -0.0961(3) 0.288(8) Uani 1 1 d GU . .
H203 H -0.2686 0.6652 -0.1130 0.346 Uiso 1 1 calc R . .
C277 C -0.2375(4) 0.6413(3) -0.0797(4) 0.285(8) Uani 1 1 d GU . .
H204 H -0.2460 0.6222 -0.0858 0.343 Uiso 1 1 calc R . .
N58 N -0.2411(6) 0.7500 -0.0898(6) 0.286(10) Uani 1 2 d SDU . .
C278 C -0.2535(5) 0.7233(5) -0.1043(5) 0.296(7) Uani 1 1 d DU . .
C279 C -0.2750(5) 0.7233(6) -0.1333(5) 0.311(9) Uani 1 1 d DU . .
H205 H -0.2830 0.7047 -0.1422 0.373 Uiso 1 1 calc R . .
C280 C -0.2850(8) 0.7500 -0.1495(9) 0.316(12) Uani 1 2 d SDU . .
H206 H -0.2972 0.7500 -0.1694 0.379 Uiso 1 2 calc SR . .
N59 N 0.2106(4) 0.6442(3) 0.1556(4) 0.298(7) Uani 1 1 d GU . .
C281 C 0.1981(3) 0.6729(4) 0.1520(4) 0.307(8) Uani 1 1 d GU . .
H207 H 0.1804 0.6748 0.1511 0.368 Uiso 1 1 calc R . .
C282 C 0.2121(4) 0.6985(3) 0.1498(4) 0.307(8) Uani 1 1 d GU . .
H208 H 0.2038 0.7177 0.1474 0.369 Uiso 1 1 calc R . .
C283 C 0.2386(4) 0.6956(4) 0.1512(4) 0.297(7) Uani 1 1 d GU . .
C284 C 0.2511(3) 0.6669(5) 0.1548(4) 0.294(7) Uani 1 1 d GU . .
H209 H 0.2688 0.6649 0.1557 0.353 Uiso 1 1 calc R . .
C285 C 0.2371(4) 0.6412(3) 0.1570(4) 0.296(8) Uani 1 1 d GU . .
H210 H 0.2454 0.6221 0.1594 0.355 Uiso 1 1 calc R . .
N60 N 0.2417(6) 0.7500 0.1516(7) 0.300(9) Uani 1 2 d SDU . .
C286 C 0.2529(6) 0.7227(6) 0.1493(6) 0.305(8) Uani 1 1 d DU . .
C287 C 0.2742(5) 0.7243(6) 0.1417(5) 0.317(9) Uani 1 1 d DU . .
H211 H 0.2821 0.7058 0.1406 0.380 Uiso 1 1 calc R . .
C288 C 0.2852(8) 0.7500 0.1356(9) 0.316(12) Uani 1 2 d SDU . .
H212 H 0.2978 0.7500 0.1285 0.379 Uiso 1 2 calc SR . .
N61 N -0.2112(5) 0.6135(4) -0.0084(5) 0.322(7) Uani 1 1 d GU . .
C289 C -0.2013(3) 0.6328(4) 0.0152(5) 0.345(9) Uani 1 1 d GU . .
H213 H -0.1839 0.6431 0.0219 0.414 Uiso 1 1 calc R . .
C290 C -0.2174(6) 0.6369(4) 0.0288(4) 0.348(9) Uani 1 1 d GU . .
H214 H -0.2107 0.6498 0.0446 0.418 Uiso 1 1 calc R . .
C291 C -0.2433(5) 0.6215(5) 0.0188(5) 0.354(8) Uani 1 1 d GU . .
C292 C -0.2533(4) 0.6022(4) -0.0049(5) 0.345(9) Uani 1 1 d GU . .
H215 H -0.2707 0.5919 -0.0116 0.414 Uiso 1 1 calc R . .
C293 C -0.2372(5) 0.5982(3) -0.0185(4) 0.328(9) Uani 1 1 d GU . .
H216 H -0.2439 0.5852 -0.0343 0.393 Uiso 1 1 calc R . .
N62 N -0.2451(4) 0.6478(5) 0.0574(6) 0.368(8) Uani 1 1 d GU . .
C294 C -0.2583(6) 0.6277(6) 0.0343(6) 0.374(8) Uani 1 1 d GU . .
C295 C -0.2852(6) 0.6156(5) 0.0264(5) 0.408(11) Uani 1 1 d GU . .
H217 H -0.2940 0.6021 0.0110 0.489 Uiso 1 1 calc R . .
C296 C -0.2989(4) 0.6235(6) 0.0417(7) 0.421(11) Uani 1 1 d GU . .
H218 H -0.3169 0.6154 0.0364 0.505 Uiso 1 1 calc R . .
C297 C -0.2858(6) 0.6437(6) 0.0647(6) 0.416(10) Uani 1 1 d GU . .
H219 H -0.2950 0.6490 0.0749 0.500 Uiso 1 1 calc R . .
C298 C -0.2589(6) 0.6558(4) 0.0726(4) 0.388(9) Uani 1 1 d GU . .
N63 N -0.2111(5) 0.7177(4) 0.1392(4) 0.366(9) Uani 1 1 d GU . .
C299 C -0.2004(4) 0.7071(5) 0.1220(6) 0.362(9) Uani 1 1 d GU . .
H220 H -0.1829 0.7145 0.1247 0.435 Uiso 1 1 calc R . .
C300 C -0.2157(6) 0.6855(6) 0.1007(5) 0.364(9) Uani 1 1 d GU . .
H221 H -0.2085 0.6785 0.0892 0.437 Uiso 1 1 calc R . .
C301 C -0.2418(6) 0.6745(4) 0.0967(4) 0.367(8) Uani 1 1 d GU . .
C302 C -0.2525(4) 0.6851(6) 0.1139(6) 0.372(9) Uani 1 1 d GU . .
H222 H -0.2700 0.6777 0.1112 0.446 Uiso 1 1 calc R . .
C303 C -0.2372(6) 0.7066(6) 0.1352(5) 0.372(9) Uani 1 1 d GU . .
H223 H -0.2444 0.7137 0.1467 0.447 Uiso 1 1 calc R . .
N64 N -0.1671(6) 0.7180(4) 0.1977(5) 0.384(9) Uani 1 1 d GU . .
C304 C -0.1430(6) 0.7068(6) 0.1975(5) 0.388(9) Uani 1 1 d GU . .
H224 H -0.1362 0.7165 0.1866 0.466 Uiso 1 1 calc R . .
C305 C -0.1289(4) 0.6810(7) 0.2135(6) 0.395(9) Uani 1 1 d GU . .
H225 H -0.1128 0.6735 0.2134 0.474 Uiso 1 1 calc R . .
C306 C -0.1390(6) 0.6665(4) 0.2298(5) 0.407(9) Uani 1 1 d GU . .
C307 C -0.1632(7) 0.6777(6) 0.2301(5) 0.400(9) Uani 1 1 d GU . .
H226 H -0.1699 0.6680 0.2410 0.480 Uiso 1 1 calc R . .
C308 C -0.1772(4) 0.7035(7) 0.2140(6) 0.389(9) Uani 1 1 d GU . .
H227 H -0.1934 0.7110 0.2142 0.467 Uiso 1 1 calc R . .
N65 N -0.1058(7) 0.6257(7) 0.2416(5) 0.429(9) Uani 1 1 d GU . .
C309 C -0.1281(7) 0.6375(5) 0.2449(6) 0.429(9) Uani 1 1 d GU . .
C310 C -0.1364(5) 0.6227(8) 0.2626(7) 0.451(10) Uani 1 1 d GU . .
H228 H -0.1513 0.6306 0.2648 0.541 Uiso 1 1 calc R . .
C311 C -0.1224(8) 0.5962(8) 0.2769(6) 0.458(11) Uani 1 1 d GU . .
H229 H -0.1280 0.5863 0.2888 0.549 Uiso 1 1 calc R . .
C312 C -0.1002(7) 0.5843(5) 0.2737(6) 0.443(11) Uani 1 1 d GU . .
H230 H -0.0908 0.5666 0.2833 0.531 Uiso 1 1 calc R . .
C313 C -0.0919(5) 0.5991(8) 0.2560(7) 0.429(9) Uani 1 1 d GU . .
N66 N -0.0305(5) 0.5639(7) 0.2339(6) 0.389(9) Uani 1 1 d GU . .
C314 C -0.0413(6) 0.5930(6) 0.2245(5) 0.399(10) Uani 1 1 d GU . .
H231 H -0.0358 0.6040 0.2132 0.478 Uiso 1 1 calc R . .
C315 C -0.0604(6) 0.6059(4) 0.2320(6) 0.397(10) Uani 1 1 d GU . .
H232 H -0.0677 0.6254 0.2257 0.476 Uiso 1 1 calc R . .
C316 C -0.0687(5) 0.5895(7) 0.2489(6) 0.422(9) Uani 1 1 d GU . .
C317 C -0.0579(6) 0.5603(6) 0.2583(5) 0.424(10) Uani 1 1 d GU . .
H233 H -0.0634 0.5494 0.2696 0.508 Uiso 1 1 calc R . .
C318 C -0.0388(6) 0.5475(4) 0.2508(6) 0.405(11) Uani 1 1 d GU . .
H234 H -0.0315 0.5280 0.2572 0.486 Uiso 1 1 calc R . .
N67 N -0.0313(4) 0.5313(5) 0.1878(4) 0.346(8) Uani 1 1 d GU . .
C319 C -0.0432(5) 0.5487(3) 0.1628(6) 0.348(9) Uani 1 1 d GU . .
H235 H -0.0379 0.5691 0.1637 0.417 Uiso 1 1 calc R . .
C320 C -0.0630(5) 0.5358(5) 0.1366(4) 0.345(9) Uani 1 1 d GU . .
H236 H -0.0709 0.5475 0.1199 0.414 Uiso 1 1 calc R . .
C321 C -0.0709(4) 0.5054(6) 0.1353(4) 0.362(8) Uani 1 1 d GU . .
C322 C -0.0590(5) 0.4879(3) 0.1603(6) 0.362(9) Uani 1 1 d GU . .
H237 H -0.0643 0.4676 0.1594 0.434 Uiso 1 1 calc R . .
C323 C -0.0392(5) 0.5008(5) 0.1865(4) 0.359(9) Uani 1 1 d GU . .
H238 H -0.0312 0.4891 0.2032 0.431 Uiso 1 1 calc R . .
N68 N -0.1069(5) 0.5146(3) 0.0855(6) 0.353(8) Uani 1 1 d GU . .
C324 C -0.0929(5) 0.4945(6) 0.1085(4) 0.371(8) Uani 1 1 d GU . .
C325 C -0.0986(5) 0.4634(5) 0.1043(5) 0.404(10) Uani 1 1 d GU . .
H239 H -0.0893 0.4500 0.1197 0.485 Uiso 1 1 calc R . .
C326 C -0.1183(6) 0.4525(3) 0.0771(7) 0.407(10) Uani 1 1 d GU . .
H240 H -0.1222 0.4317 0.0743 0.488 Uiso 1 1 calc R . .
C327 C -0.1323(5) 0.4726(6) 0.0541(4) 0.393(10) Uani 1 1 d GU . .
H241 H -0.1455 0.4652 0.0359 0.471 Uiso 1 1 calc R . .
C328 C -0.1266(5) 0.5037(5) 0.0583(5) 0.352(8) Uani 1 1 d GU . .
N69 N -0.1681(4) 0.5750(4) -0.0026(4) 0.305(7) Uani 1 1 d GU . .
C329 C -0.1443(4) 0.5812(3) 0.0242(5) 0.326(9) Uani 1 1 d GU . .
H242 H -0.1373 0.6010 0.0289 0.391 Uiso 1 1 calc R . .
C330 C -0.1309(4) 0.5577(5) 0.0439(3) 0.332(9) Uani 1 1 d GU . .
H243 H -0.1149 0.5618 0.0618 0.398 Uiso 1 1 calc R . .
C331 C -0.1413(5) 0.5281(4) 0.0368(4) 0.327(8) Uani 1 1 d GU . .
C332 C -0.1652(5) 0.5219(3) 0.0100(5) 0.313(8) Uani 1 1 d GU . .
H244 H -0.1722 0.5021 0.0053 0.376 Uiso 1 1 calc R . .
C333 C -0.1786(3) 0.5454(5) -0.0097(3) 0.299(8) Uani 1 1 d GU . .
H245 H -0.1945 0.5413 -0.0276 0.358 Uiso 1 1 calc R . .
N70 N -0.1652(4) 0.6063(4) -0.0482(4) 0.288(7) Uani 1 1 d GU . .
C334 C -0.1400(4) 0.6232(3) -0.0378(3) 0.303(9) Uani 1 1 d GU . .
H246 H -0.1324 0.6331 -0.0201 0.363 Uiso 1 1 calc R . .
C335 C -0.1261(3) 0.6254(4) -0.0537(5) 0.303(9) Uani 1 1 d GU . .
H247 H -0.1092 0.6368 -0.0467 0.363 Uiso 1 1 calc R . .
C336 C -0.1374(5) 0.6107(4) -0.0801(4) 0.304(8) Uani 1 1 d GU . .
C337 C -0.1626(5) 0.5938(4) -0.0906(3) 0.298(9) Uani 1 1 d GU . .
H248 H -0.1701 0.5839 -0.1083 0.357 Uiso 1 1 calc R . .
C338 C -0.1765(3) 0.5916(3) -0.0747(5) 0.290(9) Uani 1 1 d GU . .
H249 H -0.1933 0.5802 -0.0817 0.348 Uiso 1 1 calc R . .
N71 N -0.1024(5) 0.6363(4) -0.0860(3) 0.328(8) Uani 1 1 d GU . .
C339 C -0.1207(4) 0.6112(6) -0.0937(5) 0.327(8) Uani 1 1 d GU . .
C340 C -0.1224(4) 0.5908(4) -0.1143(5) 0.354(10) Uani 1 1 d GU . .
H250 H -0.1346 0.5740 -0.1195 0.424 Uiso 1 1 calc R . .
C341 C -0.1058(5) 0.5955(5) -0.1274(4) 0.360(10) Uani 1 1 d GU . .
H251 H -0.1070 0.5819 -0.1412 0.433 Uiso 1 1 calc R . .
C342 C -0.0876(5) 0.6206(6) -0.1197(5) 0.361(9) Uani 1 1 d GU . .
H252 H -0.0765 0.6238 -0.1284 0.433 Uiso 1 1 calc R . .
C343 C -0.0859(4) 0.6410(4) -0.0990(5) 0.330(8) Uani 1 1 d GU . .
N72 N -0.0306(3) 0.7182(3) -0.0730(5) 0.300(7) Uani 1 1 d GU . .
C344 C -0.0407(4) 0.7065(4) -0.0556(3) 0.305(8) Uani 1 1 d GU . .
H253 H -0.0349 0.7151 -0.0377 0.366 Uiso 1 1 calc R . .
C345 C -0.0595(4) 0.6818(5) -0.0650(4) 0.300(8) Uani 1 1 d GU . .
H254 H -0.0663 0.6739 -0.0534 0.360 Uiso 1 1 calc R . .
C346 C -0.0682(4) 0.6688(3) -0.0918(5) 0.301(7) Uani 1 1 d GU . .
C347 C -0.0582(4) 0.6806(5) -0.1092(3) 0.307(8) Uani 1 1 d GU . .
H255 H -0.0640 0.6719 -0.1271 0.368 Uiso 1 1 calc R . .
C348 C -0.0393(4) 0.7053(4) -0.0998(4) 0.302(8) Uani 1 1 d GU . .
H256 H -0.0326 0.7131 -0.1115 0.362 Uiso 1 1 calc R . .
N73 N 0.0300(3) 0.7176(3) -0.0427(5) 0.297(7) Uani 1 1 d GU . .
C349 C 0.0398(4) 0.7056(4) -0.0153(4) 0.299(8) Uani 1 1 d GU . .
H257 H 0.0339 0.7141 -0.0033 0.358 Uiso 1 1 calc R . .
C350 C 0.0585(4) 0.6808(5) -0.0061(3) 0.304(8) Uani 1 1 d GU . .
H258 H 0.0651 0.6727 0.0122 0.365 Uiso 1 1 calc R . .
C351 C 0.0673(4) 0.6680(3) -0.0241(5) 0.309(7) Uani 1 1 d GU . .
C352 C 0.0575(4) 0.6801(5) -0.0515(5) 0.311(8) Uani 1 1 d GU . .
H259 H 0.0634 0.6716 -0.0636 0.373 Uiso 1 1 calc R . .
C353 C 0.0388(4) 0.7049(5) -0.0608(3) 0.302(8) Uani 1 1 d GU . .
H260 H 0.0322 0.7130 -0.0791 0.362 Uiso 1 1 calc R . .
N74 N 0.1023(5) 0.6365(4) 0.0164(5) 0.327(7) Uani 1 1 d GU . .
C354 C 0.0858(4) 0.6413(4) -0.0131(6) 0.328(7) Uani 1 1 d GU . .
C355 C 0.0876(5) 0.6211(6) -0.0322(3) 0.362(9) Uani 1 1 d GU . .
H261 H 0.0766 0.6244 -0.0519 0.434 Uiso 1 1 calc R . .
C356 C 0.1059(5) 0.5961(5) -0.0217(5) 0.374(9) Uani 1 1 d GU . .
H262 H 0.1072 0.5826 -0.0344 0.449 Uiso 1 1 calc R . .
C357 C 0.1224(4) 0.5913(4) 0.0079(6) 0.367(9) Uani 1 1 d GU . .
H263 H 0.1347 0.5745 0.0149 0.440 Uiso 1 1 calc R . .
C358 C 0.1206(4) 0.6114(6) 0.0269(3) 0.327(8) Uani 1 1 d GU . .
N75 N 0.1656(4) 0.6058(4) 0.1169(3) 0.288(7) Uani 1 1 d GU . .
C359 C 0.1404(4) 0.6230(3) 0.1027(5) 0.288(8) Uani 1 1 d GU . .
H264 H 0.1333 0.6328 0.1132 0.346 Uiso 1 1 calc R . .
C360 C 0.1259(3) 0.6254(4) 0.0728(5) 0.293(8) Uani 1 1 d GU . .
H265 H 0.1091 0.6368 0.0634 0.352 Uiso 1 1 calc R . .
C361 C 0.1366(4) 0.6107(4) 0.0571(3) 0.304(7) Uani 1 1 d GU . .
C362 C 0.1618(5) 0.5936(4) 0.0713(5) 0.304(8) Uani 1 1 d GU . .
H266 H 0.1689 0.5837 0.0608 0.365 Uiso 1 1 calc R . .
C363 C 0.1762(3) 0.5911(3) 0.1011(5) 0.288(8) Uani 1 1 d GU . .
H267 H 0.1931 0.5797 0.1106 0.346 Uiso 1 1 calc R . .
N76 N 0.1688(4) 0.5748(4) 0.1664(4) 0.307(7) Uani 1 1 d GU . .
C364 C 0.1446(4) 0.5810(3) 0.1686(4) 0.318(9) Uani 1 1 d GU . .
H268 H 0.1375 0.6008 0.1662 0.381 Uiso 1 1 calc R . .
C365 C 0.1309(4) 0.5575(5) 0.1746(4) 0.316(8) Uani 1 1 d GU . .
H269 H 0.1147 0.5616 0.1761 0.379 Uiso 1 1 calc R . .
C366 C 0.1415(5) 0.5279(4) 0.1783(4) 0.321(8) Uani 1 1 d GU . .
C367 C 0.1657(5) 0.5217(3) 0.1761(4) 0.313(8) Uani 1 1 d GU . .
H270 H 0.1728 0.5019 0.1785 0.376 Uiso 1 1 calc R . .
C368 C 0.1794(3) 0.5452(5) 0.1701(4) 0.309(8) Uani 1 1 d GU . .
H271 H 0.1956 0.5411 0.1686 0.371 Uiso 1 1 calc R . .
N77 N 0.1058(5) 0.5139(3) 0.1915(4) 0.348(8) Uani 1 1 d GU . .
C369 C 0.1274(5) 0.5037(5) 0.1863(5) 0.345(8) Uani 1 1 d GU . .
C370 C 0.1346(5) 0.4729(6) 0.1892(5) 0.374(10) Uani 1 1 d GU . .
H272 H 0.1490 0.4661 0.1857 0.448 Uiso 1 1 calc R . .
C371 C 0.1202(6) 0.4523(3) 0.1973(5) 0.381(11) Uani 1 1 d GU . .
H273 H 0.1250 0.4317 0.1993 0.458 Uiso 1 1 calc R . .
C372 C 0.0987(5) 0.4625(5) 0.2025(5) 0.390(10) Uani 1 1 d GU . .
H274 H 0.0890 0.4487 0.2079 0.468 Uiso 1 1 calc R . .
C373 C 0.0915(4) 0.4933(6) 0.1996(5) 0.365(9) Uani 1 1 d GU . .
N78 N 0.0309(4) 0.5318(5) 0.2188(5) 0.360(9) Uani 1 1 d GU . .
C374 C 0.0432(5) 0.5492(3) 0.2060(4) 0.346(10) Uani 1 1 d GU . .
H275 H 0.0380 0.5696 0.2015 0.415 Uiso 1 1 calc R . .
C375 C 0.0632(5) 0.5361(5) 0.1999(4) 0.341(9) Uani 1 1 d GU . .
H276 H 0.0714 0.5478 0.1913 0.410 Uiso 1 1 calc R . .
C376 C 0.0709(4) 0.5057(6) 0.2065(5) 0.355(9) Uani 1 1 d GU . .
C377 C 0.0586(5) 0.4883(3) 0.2193(5) 0.362(10) Uani 1 1 d GU . .
H277 H 0.0638 0.4679 0.2237 0.434 Uiso 1 1 calc R . .
C378 C 0.0387(5) 0.5013(5) 0.2254(4) 0.369(10) Uani 1 1 d GU . .
H278 H 0.0305 0.4897 0.2340 0.442 Uiso 1 1 calc R . .
N79 N 0.0302(4) 0.5637(6) 0.2653(4) 0.385(9) Uani 1 1 d GU . .
C379 C 0.0409(6) 0.5929(6) 0.2664(5) 0.400(10) Uani 1 1 d GU . .
H279 H 0.0351 0.6037 0.2494 0.480 Uiso 1 1 calc R . .
C380 C 0.0602(6) 0.6058(4) 0.2928(7) 0.416(10) Uani 1 1 d GU . .
H280 H 0.0674 0.6253 0.2935 0.500 Uiso 1 1 calc R . .
C381 C 0.0688(5) 0.5896(7) 0.3181(4) 0.429(9) Uani 1 1 d GU . .
C382 C 0.0581(6) 0.5605(6) 0.3170(5) 0.415(10) Uani 1 1 d GU . .
H281 H 0.0639 0.5496 0.3340 0.498 Uiso 1 1 calc R . .
C383 C 0.0388(6) 0.5475(4) 0.2906(7) 0.396(10) Uani 1 1 d GU . .
H282 H 0.0316 0.5280 0.2899 0.476 Uiso 1 1 calc R . .
N80 N 0.1057(7) 0.6257(7) 0.3472(5) 0.435(9) Uani 1 1 d GU . .
C384 C 0.0915(5) 0.5992(8) 0.3472(5) 0.444(10) Uani 1 1 d GU . .
C385 C 0.0993(7) 0.5843(5) 0.3730(9) 0.462(11) Uani 1 1 d GU . .
H283 H 0.0898 0.5666 0.3730 0.555 Uiso 1 1 calc R . .
C386 C 0.1214(8) 0.5959(8) 0.3987(5) 0.468(11) Uani 1 1 d GU . .
H284 H 0.1267 0.5860 0.4160 0.562 Uiso 1 1 calc R . .
C387 C 0.1356(5) 0.6225(8) 0.3987(5) 0.461(11) Uani 1 1 d GU . .
H285 H 0.1504 0.6303 0.4159 0.553 Uiso 1 1 calc R . .
C388 C 0.1277(7) 0.6373(5) 0.3729(9) 0.435(9) Uani 1 1 d GU . .
N81 N 0.1669(6) 0.7183(4) 0.3652(7) 0.379(9) Uani 1 1 d GU . .
C389 C 0.1435(6) 0.7062(6) 0.3407(4) 0.386(10) Uani 1 1 d GU . .
H286 H 0.1371 0.7156 0.3229 0.464 Uiso 1 1 calc R . .
C390 C 0.1299(5) 0.6801(7) 0.3427(5) 0.399(10) Uani 1 1 d GU . .
H287 H 0.1142 0.6720 0.3262 0.479 Uiso 1 1 calc R . .
C391 C 0.1396(6) 0.6661(4) 0.3692(7) 0.404(9) Uani 1 1 d GU . .
C392 C 0.1629(6) 0.6782(6) 0.3938(5) 0.397(10) Uani 1 1 d GU . .
H288 H 0.1694 0.6689 0.4116 0.477 Uiso 1 1 calc R . .
C393 C 0.1766(4) 0.7043(6) 0.3918(5) 0.383(10) Uani 1 1 d GU . .
H289 H 0.1922 0.7124 0.4082 0.460 Uiso 1 1 calc R . .
N82 N 0.2120(6) 0.7176(4) 0.3511(6) 0.355(8) Uani 1 1 d GU . .
C394 C 0.2003(4) 0.7072(5) 0.3229(5) 0.363(10) Uani 1 1 d GU . .
H290 H 0.1828 0.7149 0.3086 0.435 Uiso 1 1 calc R . .
C395 C 0.2150(6) 0.6855(6) 0.3162(4) 0.374(10) Uani 1 1 d GU . .
H291 H 0.2072 0.6786 0.2974 0.449 Uiso 1 1 calc R . .
C396 C 0.2412(6) 0.6741(4) 0.3377(7) 0.374(9) Uani 1 1 d GU . .
C397 C 0.2528(4) 0.6845(6) 0.3659(6) 0.380(10) Uani 1 1 d GU . .
H292 H 0.2704 0.6769 0.3802 0.456 Uiso 1 1 calc R . .
C398 C 0.2382(6) 0.7062(6) 0.3726(4) 0.372(10) Uani 1 1 d GU . .
H293 H 0.2460 0.7131 0.3914 0.446 Uiso 1 1 calc R . .
N83 N 0.2455(4) 0.6481(5) 0.3033(6) 0.386(9) Uani 1 1 d GU . .
C399 C 0.2598(7) 0.6559(4) 0.3324(7) 0.399(9) Uani 1 1 d GU . .
C400 C 0.2868(7) 0.6438(6) 0.3509(4) 0.423(11) Uani 1 1 d GU . .
H294 H 0.2964 0.6490 0.3703 0.508 Uiso 1 1 calc R . .
C401 C 0.2995(4) 0.6237(6) 0.3405(7) 0.437(12) Uani 1 1 d GU . .
H295 H 0.3176 0.6156 0.3529 0.525 Uiso 1 1 calc R . .
C402 C 0.2852(7) 0.6158(5) 0.3115(7) 0.423(11) Uani 1 1 d GU . .
H296 H 0.2938 0.6024 0.3045 0.507 Uiso 1 1 calc R . .
C403 C 0.2582(6) 0.6280(6) 0.2929(4) 0.390(9) Uani 1 1 d GU . .
N84 N 0.2101(5) 0.6139(4) 0.2019(3) 0.316(8) Uani 1 1 d GU . .
C404 C 0.1998(3) 0.6319(4) 0.2162(5) 0.339(9) Uani 1 1 d GU . .
H297 H 0.1821 0.6417 0.2059 0.407 Uiso 1 1 calc R . .
C405 C 0.2161(6) 0.6353(4) 0.2459(5) 0.359(9) Uani 1 1 d GU . .
H298 H 0.2092 0.6473 0.2555 0.431 Uiso 1 1 calc R . .
C406 C 0.2426(5) 0.6207(5) 0.2613(3) 0.358(9) Uani 1 1 d GU . .
C407 C 0.2528(3) 0.6027(4) 0.2470(5) 0.333(9) Uani 1 1 d GU . .
H299 H 0.2705 0.5930 0.2573 0.400 Uiso 1 1 calc R . .
C408 C 0.2365(5) 0.5993(3) 0.2173(5) 0.322(8) Uani 1 1 d GU . .
H300 H 0.2434 0.5873 0.2077 0.386 Uiso 1 1 calc R . .
Pd1 Pd 0.66911(10) 0.2500 1.35838(7) 0.3227(18) Uani 1 2 d S . .
Pd2 Pd 0.47047(5) 0.39096(4) 1.16021(6) 0.2796(12) Uani 1 1 d . . .
Pd3 Pd 0.44326(7) 0.2500 0.94329(6) 0.2669(14) Uani 1 2 d S . .
Pd4 Pd 0.66016(6) 0.39092(4) 0.97043(5) 0.2796(12) Uani 1 1 d . . .
Pd5 Pd 0.85834(7) 0.2500 1.16911(9) 0.3219(17) Uani 1 2 d S . .
Pd6 Pd 0.72612(7) 0.45258(6) 1.22617(7) 0.3315(14) Uani 1 1 d . . .
Pd7 Pd 0.33105(10) 0.2500 0.68923(9) 0.3223(18) Uani 1 2 d S . .
Pd8 Pd 0.27383(7) 0.45251(6) 0.49991(7) 0.3320(14) Uani 1 1 d . . .
Pd9 Pd 0.14168(7) 0.2500 0.31061(9) 0.3238(18) Uani 1 2 d S . .
Pd10 Pd 0.33981(6) 0.39093(4) 0.31026(5) 0.2795(12) Uani 1 1 d . . .
Pd11 Pd 0.55671(7) 0.2500 0.49995(7) 0.2657(13) Uani 1 2 d S . .
Pd12 Pd 0.52954(5) 0.39092(4) 0.68973(5) 0.2781(12) Uani 1 1 d . . .
Pd13 Pd 0.18937(9) 0.7500 0.35831(7) 0.3219(18) Uani 1 2 d S . .
Pd14 Pd 0.18974(5) 0.60909(4) 0.16016(6) 0.2788(12) Uani 1 1 d . . .
Pd15 Pd -0.00002(7) 0.7500 -0.05669(6) 0.2658(13) Uani 1 2 d S . .
Pd16 Pd -0.18971(5) 0.60904(4) -0.02949(5) 0.2794(12) Uani 1 1 d . . .
Pd17 Pd -0.18932(9) 0.7500 0.16896(9) 0.3227(18) Uani 1 2 d S . .
Pd18 Pd 0.00000(7) 0.54741(6) 0.22619(7) 0.3337(14) Uani 1 1 d . . .
B1 B 0.6326(11) 0.2500 1.2580(9) 0.32(3) Uiso 0.60 2 d SPDU . .
F1A F 0.6468(9) 0.2500 1.2879(8) 0.365(18) Uiso 0.60 2 d SPDU A .
F1B F 0.6283(17) 0.2805(6) 1.2491(13) 0.57(5) Uiso 0.30 1 d PDU A -1
F1C F 0.6063(12) 0.2351(12) 1.2481(12) 0.50(4) Uiso 0.30 1 d PDU A -1
F1D F 0.6491(17) 0.2342(13) 1.2488(15) 0.63(6) Uiso 0.30 1 d PDU A -1
B2 B 0.7047(12) 0.2500 1.4494(12) 0.27(4) Uiso 0.40 2 d SPDU . .
F2A F 0.6835(13) 0.2500 1.4202(11) 0.40(3) Uiso 0.40 2 d SPDU B .
F2B F 0.7294(13) 0.2652(14) 1.4534(18) 0.49(6) Uiso 0.20 1 d PDU B -1
F2C F 0.7110(17) 0.2194(6) 1.4580(15) 0.47(5) Uiso 0.20 1 d PDU B -1
F2D F 0.6946(16) 0.2641(11) 1.4658(13) 0.38(4) Uiso 0.20 1 d PDU B -1
B3 B 0.5389(7) 0.3213(7) 1.1591(7) 0.36(2) Uiso 0.80 1 d PDU . .
F3A F 0.5191(5) 0.3413(5) 1.1599(5) 0.372(10) Uiso 0.80 1 d PDU C .
F3B F 0.5649(13) 0.3363(16) 1.167(3) 0.64(4) Uiso 0.40 1 d PDU C 1
F3C F 0.5286(17) 0.309(2) 1.1316(11) 0.62(4) Uiso 0.40 1 d PDU C 1
F3D F 0.544(2) 0.2983(18) 1.179(2) 0.65(4) Uiso 0.40 1 d PDU C 1
F3F F 0.5613(16) 0.315(2) 1.1869(10) 0.61(4) Uiso 0.40 1 d PDU C 2
F3G F 0.550(2) 0.3347(18) 1.143(2) 0.61(4) Uiso 0.40 1 d PDU C 2
F3H F 0.5264(15) 0.2935(13) 1.146(3) 0.67(4) Uiso 0.40 1 d PDU C 2
B4 B 0.4247(5) 0.4599(6) 1.1601(7) 0.57(3) Uiso 0.80 1 d PDU . .
F4A F 0.4337(5) 0.4299(5) 1.1616(5) 0.403(11) Uiso 0.80 1 d PDU D .
F4B F 0.4065(5) 0.4505(4) 1.1693(6) 0.139(8) Uiso 0.40 1 d PDU D 1
F4C F 0.4474(11) 0.4786(12) 1.1786(16) 0.78(5) Uiso 0.40 1 d PDU D 1
F4D F 0.4047(13) 0.4734(12) 1.1339(9) 0.56(3) Uiso 0.40 1 d PDU D 1
F4F F 0.3972(4) 0.4502(4) 1.1522(7) 0.179(11) Uiso 0.40 1 d PDU D 2
F4G F 0.4325(13) 0.4746(12) 1.1865(10) 0.59(3) Uiso 0.40 1 d PDU D 2
F4H F 0.4274(17) 0.4775(13) 1.1403(15) 0.75(5) Uiso 0.40 1 d PDU D 2
B5 B 0.5221(12) 0.2500 1.0325(9) 0.53(5) Uiso 0.60 2 d SPDU . .
F5A F 0.5039(8) 0.2500 1.0028(7) 0.312(13) Uiso 0.60 2 d SPDU E .
F5B F 0.5067(19) 0.2608(19) 1.0456(14) 0.64(5) Uiso 0.30 1 d PDU E -1
F5C F 0.5466(13) 0.2670(17) 1.0395(17) 0.70(7) Uiso 0.30 1 d PDU E -1
F5D F 0.531(2) 0.2196(7) 1.0412(15) 0.78(7) Uiso 0.30 1 d PDU E -1
B6 B 0.3663(9) 0.2500 0.8594(8) 0.39(3) Uiso 0.80 2 d SPDU . .
F6A F 0.3892(7) 0.2500 0.8876(7) 0.386(14) Uiso 0.80 2 d SPDU F .
F6B F 0.3445(9) 0.2358(10) 0.8616(11) 0.50(3) Uiso 0.40 1 d PDU F -1
F6C F 0.3736(15) 0.2370(13) 0.8404(11) 0.67(5) Uiso 0.40 1 d PDU F -1
F6D F 0.3587(14) 0.2807(6) 0.8516(14) 0.68(5) Uiso 0.40 1 d PDU F -1
B7 B 0.6607(7) 0.3209(7) 1.0388(7) 0.343(19) Uiso 0.80 1 d PDU . .
F7A F 0.6601(5) 0.3421(5) 1.0193(5) 0.376(10) Uiso 0.80 1 d PDU G .
F7B F 0.6330(9) 0.311(2) 1.031(2) 0.55(3) Uiso 0.40 1 d PDU G 1
F7C F 0.674(3) 0.3331(19) 1.0666(9) 0.67(4) Uiso 0.40 1 d PDU G 1
F7D F 0.677(3) 0.2961(17) 1.038(3) 0.66(4) Uiso 0.40 1 d PDU G 1
F7F F 0.648(3) 0.3333(18) 1.054(2) 0.62(4) Uiso 0.40 1 d PDU G 2
F7G F 0.6892(9) 0.313(3) 1.059(2) 0.60(4) Uiso 0.40 1 d PDU G 2
F7H F 0.645(3) 0.2945(16) 1.0250(13) 0.63(4) Uiso 0.40 1 d PDU G 2
B8 B 0.6611(7) 0.4606(6) 0.9248(6) 0.69(3) Uiso 1 1 d DU . .
F8A F 0.6615(5) 0.4298(5) 0.9320(4) 0.431(10) Uiso 1 1 d DU H .
F8B F 0.656(2) 0.4805(12) 0.9414(15) 0.94(5) Uiso 0.50 1 d PDU H 1
F8C F 0.6857(9) 0.4664(12) 0.9221(14) 0.55(3) Uiso 0.50 1 d PDU H 1
F8D F 0.6393(10) 0.4605(10) 0.8951(7) 0.48(2) Uiso 0.50 1 d PDU H 1
F8F F 0.6354(13) 0.4762(14) 0.9165(17) 0.81(4) Uiso 0.50 1 d PDU H 2
F8G F 0.6858(14) 0.4753(14) 0.9462(11) 0.86(4) Uiso 0.50 1 d PDU H 2
F8H F 0.6628(3) 0.4499(2) 0.9028(3) 0.122(4) Uiso 0.50 1 d PDU H 2
B9 B 0.7578(9) 0.2500 1.1302(11) 0.34(3) Uiso 0.60 2 d SPDU . .
F9A F 0.7876(8) 0.2500 1.1475(8) 0.350(16) Uiso 0.60 2 d SPDU I .
F9B F 0.7459(14) 0.2360(13) 1.1451(17) 0.59(5) Uiso 0.30 1 d PDU I -1
F9C F 0.7490(14) 0.2806(6) 1.1240(17) 0.61(5) Uiso 0.30 1 d PDU I -1
F9D F 0.7503(14) 0.2345(12) 1.1047(11) 0.53(5) Uiso 0.30 1 d PDU I -1
B10 B 0.9415(14) 0.2500 1.2025(12) 0.61(5) Uiso 0.60 2 d SPDU . .
F10A F 0.9153(12) 0.2500 1.1767(15) 0.60(4) Uiso 0.60 2 d SPDU J .
F10B F 0.9627(12) 0.2631(12) 1.1980(14) 0.45(4) Uiso 0.30 1 d PDU J -1
F10C F 0.9496(19) 0.2201(8) 1.2123(18) 0.75(7) Uiso 0.30 1 d PDU J -1
F10D F 0.938(2) 0.2682(17) 1.2224(18) 0.85(8) Uiso 0.30 1 d PDU J -1
B11 B 0.6970(10) 0.3646(9) 1.1878(9) 0.46(4) Uiso 0.50 1 d PDU . .
F11A F 0.6972(7) 0.3915(7) 1.2009(7) 0.357(15) Uiso 0.50 1 d PDU . .
F11B F 0.6681(9) 0.3580(10) 1.1702(10) 0.51(3) Uiso 0.50 1 d PDU . .
F11C F 0.7102(14) 0.3695(15) 1.1713(14) 0.69(4) Uiso 0.50 1 d PDU . .
F11D F 0.7128(14) 0.3442(11) 1.2104(12) 0.67(4) Uiso 0.50 1 d PDU . .
B12 B 0.7612(7) 0.5438(7) 1.2621(7) 0.53(3) Uiso 1 1 d DU . .
F12A F 0.7514(7) 0.5145(6) 1.2520(7) 0.574(17) Uiso 1 1 d DU K .
F12B F 0.740(2) 0.5644(11) 1.244(3) 0.69(4) Uiso 0.50 1 d PDU K 1
F12C F 0.765(4) 0.5474(19) 1.2895(18) 0.71(4) Uiso 0.50 1 d PDU K 1
F12D F 0.786(2) 0.550(2) 1.261(4) 0.64(3) Uiso 0.50 1 d PDU K 1
F12F F 0.743(2) 0.558(2) 1.271(4) 0.72(4) Uiso 0.50 1 d PDU K 2
F12G F 0.7887(18) 0.5400(13) 1.286(2) 0.63(3) Uiso 0.50 1 d PDU K 2
F12H F 0.764(4) 0.5614(18) 1.2422(19) 0.69(4) Uiso 0.50 1 d PDU K 2
B13 B 0.3664(12) 0.2500 0.6241(12) 0.37(4) Uiso 0.60 2 d SPDU . .
F13A F 0.3529(9) 0.2500 0.6405(9) 0.360(17) Uiso 0.60 2 d SPDU L .
F13B F 0.3916(13) 0.2325(14) 0.6386(18) 0.60(6) Uiso 0.30 1 d PDU L -1
F13C F 0.3479(17) 0.2358(14) 0.5978(12) 0.58(5) Uiso 0.30 1 d PDU L -1
F13D F 0.3723(19) 0.2801(7) 0.6201(19) 0.65(6) Uiso 0.30 1 d PDU L -1
B14 B 0.2972(13) 0.2500 0.7516(14) 0.50(4) Uiso 0.60 2 d SPDU . .
F14A F 0.3151(14) 0.2500 0.7396(14) 0.52(3) Uiso 0.60 2 d SPDU M .
F14B F 0.3111(19) 0.2360(14) 0.7787(14) 0.59(5) Uiso 0.30 1 d PDU M -1
F14C F 0.2723(14) 0.2331(15) 0.734(2) 0.67(6) Uiso 0.30 1 d PDU M -1
F14D F 0.2905(19) 0.2801(7) 0.755(2) 0.66(6) Uiso 0.30 1 d PDU M -1
B15 B 0.3071(9) 0.3628(8) 0.5004(9) 0.56(3) Uiso 0.60 1 d PDU . .
F15A F 0.2997(8) 0.3929(7) 0.4989(8) 0.424(16) Uiso 0.60 1 d PDU N .
F15B F 0.295(3) 0.3457(16) 0.513(4) 0.70(5) Uiso 0.30 1 d PDU N 1
F15C F 0.293(4) 0.354(2) 0.4708(12) 0.70(5) Uiso 0.30 1 d PDU N 1
F15D F 0.3365(11) 0.3603(15) 0.511(4) 0.58(4) Uiso 0.30 1 d PDU N 1
F15F F 0.2830(15) 0.3441(14) 0.491(4) 0.69(5) Uiso 0.30 1 d PDU N 2
F15G F 0.324(3) 0.3575(17) 0.488(4) 0.61(4) Uiso 0.30 1 d PDU N 2
F15H F 0.325(4) 0.359(2) 0.5308(11) 0.70(5) Uiso 0.30 1 d PDU N 2
B16 B 0.2379(7) 0.5446(7) 0.4989(7) 0.53(3) Uiso 1 1 d DU . .
F16A F 0.2482(6) 0.5151(6) 0.5006(7) 0.545(15) Uiso 1 1 d DU O .
F16B F 0.214(3) 0.5420(13) 0.502(4) 0.61(3) Uiso 0.50 1 d PDU O 1
F16C F 0.2585(18) 0.5634(18) 0.520(3) 0.70(4) Uiso 0.50 1 d PDU O 1
F16D F 0.230(4) 0.557(2) 0.472(2) 0.69(4) Uiso 0.50 1 d PDU O 1
F16F F 0.240(4) 0.550(2) 0.5255(19) 0.64(3) Uiso 0.50 1 d PDU O 2
F16G F 0.255(3) 0.5656(12) 0.495(5) 0.68(4) Uiso 0.50 1 d PDU O 2
F16H F 0.2099(19) 0.547(2) 0.476(3) 0.69(4) Uiso 0.50 1 d PDU O 2
B17 B 0.2431(10) 0.2500 0.3736(12) 0.41(4) Uiso 0.60 2 d SPDU . .
F17A F 0.2132(9) 0.2500 0.3602(9) 0.377(18) Uiso 0.60 2 d SPDU P .
F17B F 0.2540(15) 0.2354(14) 0.4001(12) 0.61(6) Uiso 0.30 1 d PDU P -1
F17C F 0.2508(15) 0.2345(13) 0.3556(17) 0.57(5) Uiso 0.30 1 d PDU P -1
F17D F 0.2528(15) 0.2802(7) 0.377(2) 0.68(6) Uiso 0.30 1 d PDU P -1
B18 B 0.0486(13) 0.2500 0.2519(14) 0.56(5) Uiso 0.60 2 d SPDU . .
F18A F 0.0780(12) 0.2500 0.2609(15) 0.56(4) Uiso 0.60 2 d SPDU Q .
F18B F 0.0394(17) 0.2800(7) 0.251(2) 0.70(7) Uiso 0.30 1 d PDU Q -1
F18C F 0.044(2) 0.2316(16) 0.271(2) 0.75(7) Uiso 0.30 1 d PDU Q -1
F18D F 0.0329(15) 0.2373(15) 0.2243(15) 0.56(5) Uiso 0.30 1 d PDU Q -1
B19 B 0.3404(7) 0.3206(7) 0.3790(7) 0.42(2) Uiso 0.90 1 d PDU . .
F19A F 0.3394(5) 0.3410(5) 0.3587(5) 0.424(11) Uiso 0.90 1 d PDU R .
F19B F 0.357(2) 0.3335(17) 0.4066(8) 0.68(4) Uiso 0.45 1 d PDU R 1
F19C F 0.353(2) 0.2931(13) 0.379(2) 0.72(4) Uiso 0.45 1 d PDU R 1
F19D F 0.3126(10) 0.314(2) 0.3736(19) 0.64(4) Uiso 0.45 1 d PDU R 1
F19F F 0.333(3) 0.3354(15) 0.3979(18) 0.71(4) Uiso 0.45 1 d PDU R 2
F19G F 0.3675(11) 0.307(2) 0.3953(19) 0.66(4) Uiso 0.45 1 d PDU R 2
F19H F 0.320(2) 0.2982(17) 0.3635(13) 0.69(4) Uiso 0.45 1 d PDU R 2
B20 B 0.3424(7) 0.4603(6) 0.2647(5) 0.66(3) Uiso 1 1 d DU . .
F20A F 0.3390(5) 0.4301(5) 0.2706(4) 0.427(10) Uiso 1 1 d DU S .
F20B F 0.3218(16) 0.4789(12) 0.2659(17) 0.86(4) Uiso 0.50 1 d PDU S 1
F20C F 0.3699(10) 0.4732(14) 0.2770(13) 0.75(4) Uiso 0.50 1 d PDU S 1
F20D F 0.3359(4) 0.4499(3) 0.2394(3) 0.126(4) Uiso 0.50 1 d PDU S 1
F20F F 0.3165(8) 0.4713(12) 0.2406(11) 0.58(3) Uiso 0.50 1 d PDU S 2
F20G F 0.3563(18) 0.4801(12) 0.2873(11) 0.89(4) Uiso 0.50 1 d PDU S 2
F20H F 0.3581(10) 0.4536(8) 0.2503(10) 0.41(2) Uiso 0.50 1 d PDU S 2
B21 B 0.4675(9) 0.2500 0.4870(13) 0.58(5) Uiso 0.60 2 d SPDU . .
F21A F 0.4975(8) 0.2500 0.5011(8) 0.326(14) Uiso 0.60 2 d SPDU T .
F21B F 0.4566(14) 0.2638(16) 0.4597(13) 0.60(5) Uiso 0.30 1 d PDU T -1
F21C F 0.4574(15) 0.2201(8) 0.484(2) 0.78(7) Uiso 0.30 1 d PDU T -1
F21D F 0.4601(17) 0.2681(17) 0.504(2) 0.72(7) Uiso 0.30 1 d PDU T -1
B22 B 0.6395(9) 0.2500 0.5040(10) 0.40(3) Uiso 0.80 2 d SPDU . .
F22A F 0.6120(8) 0.2500 0.5007(8) 0.407(16) Uiso 0.80 2 d SPDU U .
F22B F 0.6364(10) 0.2622(10) 0.4790(10) 0.47(3) Uiso 0.40 1 d PDU U -1
F22C F 0.6479(14) 0.2193(6) 0.5055(15) 0.71(5) Uiso 0.40 1 d PDU U -1
F22D F 0.6592(11) 0.2646(13) 0.5291(11) 0.66(5) Uiso 0.40 1 d PDU U -1
B23 B 0.4621(7) 0.3212(7) 0.6227(7) 0.37(2) Uiso 0.80 1 d PDU . .
F23A F 0.4810(5) 0.3429(5) 0.6416(5) 0.392(11) Uiso 0.80 1 d PDU V .
F23B F 0.4767(15) 0.2934(12) 0.627(3) 0.65(4) Uiso 0.40 1 d PDU V 1
F23C F 0.453(3) 0.331(2) 0.5947(8) 0.63(4) Uiso 0.40 1 d PDU V 1
F23D F 0.4390(18) 0.316(3) 0.627(2) 0.65(4) Uiso 0.40 1 d PDU V 1
F23F F 0.4730(18) 0.307(2) 0.607(2) 0.59(4) Uiso 0.40 1 d PDU V 2
F23G F 0.4362(14) 0.3358(15) 0.603(2) 0.69(4) Uiso 0.40 1 d PDU V 2
F23H F 0.457(3) 0.300(2) 0.6394(14) 0.63(4) Uiso 0.40 1 d PDU V 2
B24 B 0.5762(6) 0.4611(6) 0.7358(5) 0.68(3) Uiso 1 1 d DU . .
F24A F 0.5682(5) 0.4303(5) 0.7291(5) 0.438(10) Uiso 1 1 d DU W .
F24B F 0.6064(6) 0.4568(9) 0.7471(11) 0.45(2) Uiso 0.50 1 d PDU W 1
F24C F 0.5770(14) 0.4697(12) 0.7618(11) 0.56(3) Uiso 0.50 1 d PDU W 1
F24D F 0.5646(17) 0.4832(12) 0.7148(12) 0.94(5) Uiso 0.50 1 d PDU W 1
F24F F 0.5875(17) 0.4764(14) 0.7208(13) 0.82(4) Uiso 0.50 1 d PDU W 2
F24G F 0.5968(3) 0.4500(2) 0.7601(3) 0.123(4) Uiso 0.50 1 d PDU W 2
F24H F 0.5551(12) 0.4786(13) 0.7374(18) 0.86(4) Uiso 0.50 1 d PDU W 2
B25 B 0.1272(11) 0.7500 0.2589(9) 0.32(3) Uiso 0.60 2 d SPDU . .
F25A F 0.1421(9) 0.7500 0.2888(9) 0.371(18) Uiso 0.60 2 d SPDU X .
F25B F 0.1444(16) 0.7654(12) 0.2501(14) 0.53(5) Uiso 0.30 1 d PDU X -1
F25C F 0.1014(12) 0.7655(13) 0.2491(14) 0.58(5) Uiso 0.30 1 d PDU X -1
F25D F 0.1230(17) 0.7195(6) 0.2499(14) 0.57(5) Uiso 0.30 1 d PDU X -1
B26 B 0.2463(14) 0.7500 0.4519(13) 0.55(5) Uiso 0.60 2 d SPDU . .
F26A F 0.2389(15) 0.7500 0.4229(12) 0.56(4) Uiso 0.60 2 d SPDU Y .
F26B F 0.246(2) 0.7800(7) 0.4607(17) 0.69(6) Uiso 0.30 1 d PDU Y -1
F26C F 0.2738(14) 0.7376(15) 0.4686(14) 0.56(5) Uiso 0.30 1 d PDU Y -1
F26D F 0.2270(19) 0.7316(16) 0.456(2) 0.72(7) Uiso 0.30 1 d PDU Y -1
B27 B 0.1203(7) 0.6781(7) 0.1591(7) 0.38(2) Uiso 0.80 1 d PDU . .
F27A F 0.1410(5) 0.6582(5) 0.1597(5) 0.395(11) Uiso 0.80 1 d PDU Z .
F27B F 0.126(2) 0.684(2) 0.1869(10) 0.61(4) Uiso 0.40 1 d PDU Z 1
F27C F 0.121(2) 0.7059(14) 0.146(3) 0.65(4) Uiso 0.40 1 d PDU Z 1
F27D F 0.0928(8) 0.6656(19) 0.142(2) 0.62(4) Uiso 0.40 1 d PDU Z 1
F27F F 0.103(2) 0.6623(16) 0.167(3) 0.68(4) Uiso 0.40 1 d PDU Z 2
F27G F 0.1355(13) 0.7007(18) 0.179(2) 0.63(4) Uiso 0.40 1 d PDU Z 2
F27H F 0.103(2) 0.690(2) 0.1316(10) 0.59(4) Uiso 0.40 1 d PDU Z 2
B28 B 0.2352(5) 0.5397(6) 0.1575(7) 0.67(3) Uiso 1 1 d DU . .
F28A F 0.2286(5) 0.5695(5) 0.1618(5) 0.460(11) Uiso 1 1 d DU A .
F28B F 0.2576(12) 0.5271(12) 0.1835(9) 0.60(3) Uiso 0.50 1 d PDU A 1
F28C F 0.2130(11) 0.5201(13) 0.1407(16) 0.89(4) Uiso 0.50 1 d PDU A 1
F28D F 0.2516(9) 0.5475(7) 0.1442(9) 0.367(18) Uiso 0.50 1 d PDU A 1
F28F F 0.2338(17) 0.5194(12) 0.1769(16) 0.88(4) Uiso 0.50 1 d PDU A 2
F28G F 0.2225(13) 0.5284(14) 0.1294(10) 0.73(4) Uiso 0.50 1 d PDU A 2
F28H F 0.2610(3) 0.5501(3) 0.1649(4) 0.129(5) Uiso 0.50 1 d PDU A 2
B29 B 0.0103(11) 0.7500 0.0309(8) 0.63(5) Uiso 0.80 2 d SPDU . .
F29A F -0.0002(7) 0.7500 0.0013(7) 0.365(13) Uiso 0.80 2 d SPDU B .
F29B F 0.0389(11) 0.7392(17) 0.0447(12) 0.66(5) Uiso 0.40 1 d PDU B -1
F29C F 0.010(2) 0.7802(8) 0.0395(15) 0.90(7) Uiso 0.40 1 d PDU B -1
F29D F -0.0081(17) 0.7320(17) 0.0361(16) 0.85(7) Uiso 0.40 1 d PDU B -1
B30 B -0.0044(10) 0.7500 -0.1399(8) 0.35(3) Uiso 0.80 2 d SPDU . .
F30A F -0.0013(8) 0.7500 -0.1124(7) 0.405(15) Uiso 0.80 2 d SPDU C .
F30B F 0.0201(10) 0.7642(9) -0.1368(11) 0.48(3) Uiso 0.40 1 d PDU C -1
F30C F -0.0302(11) 0.7632(12) -0.1602(10) 0.61(4) Uiso 0.40 1 d PDU C -1
F30D F -0.0041(14) 0.7193(6) -0.1477(13) 0.62(5) Uiso 0.40 1 d PDU C -1
B31 B -0.1222(7) 0.6781(7) 0.0383(7) 0.40(2) Uiso 0.80 1 d PDU . .
F31A F -0.1415(5) 0.6566(5) 0.0193(5) 0.396(11) Uiso 0.80 1 d PDU D .
F31B F -0.110(3) 0.669(2) 0.0669(8) 0.66(4) Uiso 0.40 1 d PDU D 1
F31C F -0.101(2) 0.683(3) 0.031(3) 0.62(4) Uiso 0.40 1 d PDU D 1
F31D F -0.1382(16) 0.7050(16) 0.034(3) 0.67(4) Uiso 0.40 1 d PDU D 1
F31F F -0.133(2) 0.688(3) 0.056(3) 0.62(4) Uiso 0.40 1 d PDU D 2
F31G F -0.0956(14) 0.6636(18) 0.055(3) 0.66(4) Uiso 0.40 1 d PDU D 2
F31H F -0.118(3) 0.703(2) 0.0240(14) 0.66(4) Uiso 0.40 1 d PDU D 2
B32 B -0.2357(5) 0.5401(6) -0.0761(6) 0.67(3) Uiso 1 1 d DU . .
F32A F -0.2290(5) 0.5704(5) -0.0675(5) 0.445(11) Uiso 1 1 d DU E .
F32B F -0.2359(17) 0.5231(13) -0.0541(11) 0.87(4) Uiso 0.50 1 d PDU E 1
F32C F -0.2214(12) 0.5263(14) -0.0889(15) 0.76(4) Uiso 0.50 1 d PDU E 1
F32D F -0.2607(3) 0.5501(3) -0.0965(3) 0.131(5) Uiso 0.50 1 d PDU E 1
F32F F -0.2598(12) 0.5294(12) -0.0743(14) 0.60(3) Uiso 0.50 1 d PDU E 2
F32G F -0.2130(11) 0.5202(12) -0.0670(17) 0.91(5) Uiso 0.50 1 d PDU E 2
F32H F -0.2499(10) 0.5457(8) -0.1065(6) 0.40(2) Uiso 0.50 1 d PDU E 2
B33 B -0.1262(12) 0.7500 0.1304(12) 0.40(4) Uiso 0.60 2 d SPDU . .
F33A F -0.1393(9) 0.7500 0.1472(9) 0.361(17) Uiso 0.60 2 d SPDU F .
F33B F -0.1246(19) 0.7197(7) 0.1230(18) 0.62(6) Uiso 0.30 1 d PDU F -1
F33C F -0.0989(12) 0.7629(15) 0.1460(18) 0.62(6) Uiso 0.30 1 d PDU F -1
F33D F -0.1435(17) 0.7672(13) 0.1056(12) 0.57(5) Uiso 0.30 1 d PDU F -1
B34 B -0.2462(13) 0.7500 0.2058(12) 0.49(4) Uiso 0.60 2 d SPDU . .
F34A F -0.2390(14) 0.7500 0.1840(13) 0.52(3) Uiso 0.60 2 d SPDU G .
F34B F -0.2725(14) 0.7352(12) 0.1961(16) 0.51(4) Uiso 0.30 1 d PDU G -1
F34C F -0.248(2) 0.7799(7) 0.2135(18) 0.65(6) Uiso 0.30 1 d PDU G -1
F34D F -0.2251(18) 0.7333(15) 0.2293(14) 0.69(7) Uiso 0.30 1 d PDU G -1
B35 B -0.0012(9) 0.6382(8) 0.1909(9) 0.56(3) Uiso 0.60 1 d PDU . .
F35A F 0.0010(8) 0.6078(7) 0.1977(7) 0.407(15) Uiso 0.60 1 d PDU H .
F35B F -0.014(4) 0.6546(16) 0.203(4) 0.70(5) Uiso 0.30 1 d PDU H 1
F35C F -0.013(4) 0.6420(16) 0.1615(11) 0.61(4) Uiso 0.30 1 d PDU H 1
F35D F 0.0282(12) 0.6471(19) 0.204(4) 0.68(5) Uiso 0.30 1 d PDU H 1
F35F F -0.0316(11) 0.642(2) 0.173(4) 0.70(5) Uiso 0.30 1 d PDU H 2
F35G F 0.011(4) 0.6445(16) 0.174(3) 0.58(4) Uiso 0.30 1 d PDU H 2
F35H F 0.008(4) 0.6560(14) 0.2155(16) 0.70(5) Uiso 0.30 1 d PDU H 2
B36 B -0.0005(7) 0.4563(7) 0.2622(7) 0.40(2) Uiso 0.80 1 d PDU . .
F36A F -0.0012(7) 0.4848(6) 0.2507(7) 0.487(16) Uiso 0.80 1 d PDU I .
F36B F -0.015(3) 0.4568(16) 0.277(3) 0.59(4) Uiso 0.40 1 d PDU I 1
F36C F 0.0289(8) 0.450(2) 0.281(3) 0.55(3) Uiso 0.40 1 d PDU I 1
F36D F -0.012(4) 0.4344(12) 0.2404(11) 0.58(3) Uiso 0.40 1 d PDU I 1
F36F F 0.012(4) 0.4585(14) 0.2919(8) 0.57(3) Uiso 0.40 1 d PDU I 2
F36G F 0.014(3) 0.4355(15) 0.254(3) 0.57(3) Uiso 0.40 1 d PDU I 2
F36H F -0.0295(8) 0.447(2) 0.250(3) 0.58(4) Uiso 0.40 1 d PDU I 2
B51 B 0.4619(7) 0.5478(7) 1.1690(7) 0.47(4) Uiso 0.50 1 d PDU . .
F51A F 0.4597(6) 0.5163(6) 1.1703(6) 0.319(12) Uiso 0.50 1 d PDU . .
F51B F 0.4865(7) 0.5540(8) 1.1678(8) 0.428(19) Uiso 0.50 1 d PDU . .
F51C F 0.4381(7) 0.5572(7) 1.1434(7) 0.394(17) Uiso 0.50 1 d PDU . .
F51D F 0.4614(8) 0.5605(7) 1.1929(7) 0.383(16) Uiso 0.50 1 d PDU . .
B52 B 0.3332(8) 0.6458(8) 0.1663(7) 0.45(3) Uiso 0.50 1 d PDU . .
F52A F 0.3329(8) 0.6771(6) 0.1665(7) 0.385(16) Uiso 0.50 1 d PDU . .
F52B F 0.3066(7) 0.6363(8) 0.1619(8) 0.412(18) Uiso 0.50 1 d PDU . .
F52C F 0.3384(8) 0.6365(7) 0.1445(7) 0.380(16) Uiso 0.50 1 d PDU . .
F52D F 0.3551(7) 0.6369(8) 0.1934(7) 0.405(17) Uiso 0.50 1 d PDU . .
B53 B 0.4617(7) 0.4522(7) 0.2928(7) 0.45(3) Uiso 0.50 1 d PDU . .
F53A F 0.4608(6) 0.4838(6) 0.2897(6) 0.323(13) Uiso 0.50 1 d PDU . .
F53B F 0.4869(7) 0.4457(8) 0.3182(7) 0.411(18) Uiso 0.50 1 d PDU . .
F53C F 0.4376(7) 0.4445(7) 0.2948(8) 0.388(16) Uiso 0.50 1 d PDU . .
F53D F 0.4605(7) 0.4401(7) 0.2680(6) 0.373(15) Uiso 0.50 1 d PDU . .
B54 B -0.2063(7) 0.4524(7) -0.0375(7) 0.43(3) Uiso 0.50 1 d PDU . .
F54A F -0.2102(6) 0.4838(6) -0.0391(6) 0.319(12) Uiso 0.50 1 d PDU . .
F54B F -0.1799(7) 0.4467(8) -0.0133(7) 0.413(18) Uiso 0.50 1 d PDU . .
F54C F -0.2054(7) 0.4454(7) -0.0623(7) 0.380(16) Uiso 0.50 1 d PDU . .
F54D F -0.2307(7) 0.4397(7) -0.0382(7) 0.374(15) Uiso 0.50 1 d PDU . .
B55 B -0.3337(7) 0.6455(7) -0.1671(7) 0.45(3) Uiso 0.50 1 d PDU . .
F55A F -0.3339(7) 0.6768(6) -0.1667(7) 0.378(16) Uiso 0.50 1 d PDU . .
F55B F -0.3550(7) 0.6359(7) -0.1612(8) 0.401(17) Uiso 0.50 1 d PDU . .
F55C F -0.3063(7) 0.6362(7) -0.1459(7) 0.388(16) Uiso 0.50 1 d PDU . .
F55D F -0.3392(8) 0.6361(8) -0.1942(7) 0.417(18) Uiso 0.50 1 d PDU . .
B56 B 0.3315(7) 0.4515(7) 0.0377(7) 0.44(3) Uiso 0.50 1 d PDU . .
F56A F 0.3298(6) 0.4831(6) 0.0396(6) 0.324(12) Uiso 0.50 1 d PDU . .
F56B F 0.3323(8) 0.4463(7) 0.0127(7) 0.385(16) Uiso 0.50 1 d PDU . .
F56C F 0.3580(7) 0.4450(7) 0.0619(7) 0.399(17) Uiso 0.50 1 d PDU . .
F56D F 0.3081(7) 0.4397(7) 0.0393(7) 0.380(16) Uiso 0.50 1 d PDU . .
B57 B 0.2070(7) 0.4520(7) 0.1688(7) 0.45(3) Uiso 0.50 1 d PDU . .
F57A F 0.2104(6) 0.4838(6) 0.1708(6) 0.332(13) Uiso 0.50 1 d PDU . .
F57B F 0.1809(7) 0.4460(7) 0.1671(8) 0.395(17) Uiso 0.50 1 d PDU . .
F57C F 0.2053(7) 0.4439(7) 0.1429(6) 0.378(16) Uiso 0.50 1 d PDU . .
F57D F 0.2317(7) 0.4395(7) 0.1922(7) 0.382(16) Uiso 0.50 1 d PDU . .
B58 B 0.3308(7) 0.5479(7) 0.2930(7) 0.44(3) Uiso 0.50 1 d PDU . .
F58A F 0.3299(6) 0.5162(6) 0.2903(6) 0.315(12) Uiso 0.50 1 d PDU . .
F58B F 0.3328(8) 0.5538(7) 0.3194(7) 0.399(17) Uiso 0.50 1 d PDU . .
F58C F 0.3562(7) 0.5573(7) 0.2940(7) 0.379(16) Uiso 0.50 1 d PDU . .
F58D F 0.3070(7) 0.5605(7) 0.2685(6) 0.378(15) Uiso 0.50 1 d PDU . .
B59 B 0.6669(10) 0.5021(9) 0.8335(10) 0.47(4) Uiso 0.30 1 d PDU . .
F59A F 0.6683(13) 0.4704(9) 0.8335(12) 0.41(3) Uiso 0.30 1 d PDU . .
F59B F 0.6691(13) 0.5116(11) 0.8593(10) 0.40(3) Uiso 0.30 1 d PDU . .
F59C F 0.6898(11) 0.5141(11) 0.8311(12) 0.39(3) Uiso 0.30 1 d PDU . .
F59D F 0.6406(11) 0.5112(12) 0.8102(11) 0.44(3) Uiso 0.30 1 d PDU . .
B60 B 0.0671(11) 0.6426(10) -0.1120(10) 0.42(4) Uiso 0.30 1 d PDU . .
F60A F 0.0650(16) 0.6494(15) -0.1384(11) 0.51(4) Uiso 0.30 1 d PDU . .
F60B F 0.0400(10) 0.6428(13) -0.1142(14) 0.42(3) Uiso 0.30 1 d PDU . .
F60C F 0.0843(10) 0.6656(9) -0.0933(10) 0.33(2) Uiso 0.30 1 d PDU . .
F60D F 0.0786(14) 0.6134(10) -0.1019(14) 0.46(4) Uiso 0.30 1 d PDU . .
B61 B -0.0667(10) 0.6428(10) -0.1804(10) 0.39(4) Uiso 0.30 1 d PDU . .
F61A F -0.0629(15) 0.6521(14) -0.2031(12) 0.48(4) Uiso 0.30 1 d PDU . .
F61B F -0.0403(10) 0.6412(12) -0.1550(11) 0.42(3) Uiso 0.30 1 d PDU . .
F61C F -0.0795(14) 0.6138(10) -0.1851(14) 0.45(3) Uiso 0.30 1 d PDU . .
F61D F -0.0839(10) 0.6648(9) -0.1777(10) 0.33(2) Uiso 0.30 1 d PDU . .
B62 B 0.6128(10) 0.3580(10) 0.4321(10) 0.41(4) Uiso 0.30 1 d PDU . .
F62A F 0.6391(11) 0.3499(15) 0.4344(16) 0.51(4) Uiso 0.30 1 d PDU . .
F62B F 0.5934(11) 0.3348(9) 0.4164(10) 0.35(2) Uiso 0.30 1 d PDU . .
F62C F 0.6151(13) 0.3601(12) 0.4591(10) 0.40(3) Uiso 0.30 1 d PDU . .
F62D F 0.6027(14) 0.3863(10) 0.4184(13) 0.43(3) Uiso 0.30 1 d PDU . .
B63 B 0.6806(10) 0.3568(9) 0.5683(10) 0.38(4) Uiso 0.30 1 d PDU . .
F63A F 0.7047(12) 0.3471(14) 0.5671(15) 0.47(4) Uiso 0.30 1 d PDU . .
F63B F 0.6758(11) 0.3347(9) 0.5840(10) 0.34(2) Uiso 0.30 1 d PDU . .
F63C F 0.6569(12) 0.3590(12) 0.5406(10) 0.41(3) Uiso 0.30 1 d PDU . .
F63D F 0.6848(15) 0.3856(10) 0.5813(13) 0.45(3) Uiso 0.30 1 d PDU . .
B64 B 0.3217(10) 0.3596(10) 0.8887(10) 0.42(4) Uiso 0.30 1 d PDU . .
F64A F 0.2986(13) 0.3557(15) 0.8608(11) 0.51(4) Uiso 0.30 1 d PDU . .
F64B F 0.3219(12) 0.3338(9) 0.9040(11) 0.36(2) Uiso 0.30 1 d PDU . .
F64C F 0.3185(13) 0.3865(9) 0.9011(12) 0.40(3) Uiso 0.30 1 d PDU . .
F64D F 0.3476(12) 0.3623(13) 0.8886(14) 0.42(3) Uiso 0.30 1 d PDU . .
B65 B 0.3887(11) 0.3598(10) 0.8216(11) 0.43(4) Uiso 0.30 1 d PDU . .
F65A F 0.3610(11) 0.3533(16) 0.7991(14) 0.54(4) Uiso 0.30 1 d PDU . .
F65B F 0.4061(11) 0.3354(9) 0.8229(11) 0.35(2) Uiso 0.30 1 d PDU . .
F65C F 0.3891(15) 0.3628(13) 0.8476(12) 0.43(3) Uiso 0.30 1 d PDU . .
F65D F 0.3981(14) 0.3874(10) 0.8160(14) 0.43(3) Uiso 0.30 1 d PDU . .

loop_
_atom_site_aniso_label
_atom_site_aniso_U_11
_atom_site_aniso_U_22
_atom_site_aniso_U_33
_atom_site_aniso_U_23
_atom_site_aniso_U_13
_atom_site_aniso_U_12
N1 0.413(15) 0.205(11) 0.319(15) 0.019(12) 0.207(14) -0.020(12)
C1 0.430(15) 0.206(14) 0.317(15) 0.015(12) 0.214(14) -0.024(14)
C2 0.427(15) 0.218(12) 0.311(16) 0.005(12) 0.223(14) -0.028(13)
C3 0.412(13) 0.224(12) 0.303(15) -0.001(11) 0.225(13) -0.010(11)
C4 0.405(14) 0.225(13) 0.305(15) 0.015(12) 0.217(13) -0.007(13)
C5 0.407(15) 0.222(12) 0.307(16) 0.012(12) 0.215(14) -0.004(12)
N2 0.410(18) 0.22(2) 0.294(19) 0.000 0.226(16) 0.000
C6 0.414(14) 0.235(16) 0.300(16) 0.001(10) 0.223(14) -0.006(10)
C7 0.425(17) 0.249(18) 0.30(2) 0.011(11) 0.219(16) -0.005(11)
C8 0.42(2) 0.24(2) 0.31(2) 0.000 0.221(19) 0.000
N3 0.313(16) 0.194(11) 0.424(14) -0.019(11) 0.209(14) 0.022(12)
C9 0.314(16) 0.200(13) 0.445(15) -0.025(14) 0.215(14) 0.011(12)
C10 0.307(16) 0.206(12) 0.441(15) -0.024(12) 0.230(14) 0.002(12)
C11 0.303(15) 0.215(12) 0.423(13) -0.009(11) 0.228(13) 0.002(11)
C12 0.299(15) 0.219(13) 0.414(14) -0.005(13) 0.222(13) 0.019(12)
C13 0.301(17) 0.207(12) 0.414(15) -0.007(12) 0.217(14) 0.016(12)
N4 0.31(2) 0.22(2) 0.410(18) 0.000 0.233(16) 0.000
C14 0.306(17) 0.227(15) 0.421(14) -0.005(10) 0.227(14) 0.002(10)
C15 0.31(2) 0.240(18) 0.436(17) -0.004(11) 0.217(17) 0.009(11)
C16 0.31(2) 0.23(2) 0.44(2) 0.000 0.21(2) 0.000
N5 0.314(17) 0.275(15) 0.387(18) 0.065(12) 0.177(15) -0.006(13)
C17 0.318(18) 0.305(15) 0.398(19) 0.077(13) 0.181(16) -0.021(14)
C18 0.311(17) 0.325(14) 0.407(18) 0.086(13) 0.192(15) -0.034(14)
C19 0.319(15) 0.333(13) 0.419(17) 0.090(12) 0.188(14) -0.034(13)
C20 0.323(17) 0.296(14) 0.402(18) 0.081(13) 0.183(16) -0.017(14)
C21 0.318(18) 0.268(14) 0.388(18) 0.069(12) 0.184(16) -0.006(14)
N6 0.315(15) 0.382(15) 0.447(17) 0.100(13) 0.198(14) -0.036(13)
C22 0.318(15) 0.377(14) 0.448(17) 0.098(12) 0.197(14) -0.048(13)
C23 0.329(18) 0.418(16) 0.471(19) 0.103(14) 0.191(16) -0.037(16)
C24 0.337(18) 0.434(17) 0.48(2) 0.105(15) 0.182(17) -0.033(16)
C25 0.332(17) 0.427(17) 0.47(2) 0.100(15) 0.195(16) -0.039(15)
C26 0.317(15) 0.396(15) 0.459(17) 0.092(12) 0.203(14) -0.047(13)
N7 0.309(18) 0.370(16) 0.441(19) 0.050(14) 0.204(16) -0.008(15)
C27 0.300(17) 0.378(17) 0.45(2) 0.063(15) 0.201(16) -0.012(16)
C28 0.302(16) 0.383(17) 0.46(2) 0.071(15) 0.202(16) -0.020(15)
C29 0.304(15) 0.387(15) 0.457(18) 0.066(13) 0.203(15) -0.024(13)
C30 0.305(16) 0.385(17) 0.46(2) 0.050(14) 0.208(16) -0.013(15)
C31 0.301(17) 0.379(18) 0.45(2) 0.050(15) 0.214(16) -0.008(15)
N8 0.265(17) 0.431(18) 0.401(18) -0.060(15) 0.141(16) -0.034(16)
C32 0.271(17) 0.44(2) 0.406(18) -0.073(16) 0.142(16) -0.033(16)
C33 0.274(16) 0.45(2) 0.416(18) -0.083(16) 0.133(15) -0.044(16)
C34 0.284(15) 0.455(18) 0.429(17) -0.095(14) 0.122(15) -0.037(15)
C35 0.274(16) 0.45(2) 0.418(18) -0.083(16) 0.129(16) -0.029(16)
C36 0.270(17) 0.44(2) 0.411(19) -0.069(16) 0.131(16) -0.032(17)
N9 0.295(15) 0.467(18) 0.465(17) -0.121(15) 0.127(15) -0.046(15)
C37 0.300(15) 0.469(18) 0.463(16) -0.113(14) 0.109(15) -0.042(15)
C38 0.311(17) 0.48(2) 0.487(19) -0.122(17) 0.091(17) -0.047(17)
C39 0.314(18) 0.50(2) 0.498(19) -0.123(17) 0.093(18) -0.042(17)
C40 0.306(18) 0.490(19) 0.495(19) -0.126(17) 0.108(17) -0.040(17)
C41 0.302(15) 0.467(17) 0.479(17) -0.126(15) 0.126(15) -0.049(15)
N10 0.283(16) 0.41(2) 0.432(19) -0.117(16) 0.191(15) -0.059(16)
C42 0.288(16) 0.41(2) 0.436(18) -0.110(17) 0.187(16) -0.068(16)
C43 0.292(17) 0.424(18) 0.450(18) -0.117(16) 0.174(16) -0.081(16)
C44 0.297(15) 0.444(17) 0.463(16) -0.122(15) 0.160(15) -0.065(14)
C45 0.299(17) 0.427(19) 0.455(18) -0.128(16) 0.177(16) -0.063(16)
C46 0.293(18) 0.420(19) 0.445(19) -0.121(16) 0.180(17) -0.063(16)
N11 0.423(17) 0.276(14) 0.382(18) -0.040(14) 0.227(16) -0.070(14)
C47 0.426(17) 0.265(14) 0.372(19) -0.056(14) 0.226(17) -0.069(14)
C48 0.429(16) 0.257(13) 0.370(17) -0.042(14) 0.224(16) -0.073(14)
C49 0.434(15) 0.264(12) 0.378(16) -0.041(13) 0.218(15) -0.059(13)
C50 0.435(17) 0.274(14) 0.379(18) -0.056(14) 0.216(17) -0.060(14)
C51 0.435(17) 0.267(15) 0.387(18) -0.052(15) 0.209(17) -0.064(15)
N12 0.426(14) 0.240(11) 0.376(16) -0.019(11) 0.215(15) -0.040(11)
C52 0.444(14) 0.256(12) 0.390(15) -0.021(12) 0.204(15) -0.050(12)
C53 0.469(16) 0.277(14) 0.406(18) -0.009(14) 0.184(17) -0.039(14)
C54 0.473(17) 0.270(14) 0.391(18) -0.008(14) 0.190(18) -0.038(14)
C55 0.458(16) 0.257(14) 0.388(17) -0.011(14) 0.197(16) -0.038(15)
C56 0.425(13) 0.231(11) 0.372(15) -0.003(12) 0.215(14) -0.038(12)
N13 0.402(15) 0.210(11) 0.328(16) 0.007(12) 0.216(14) -0.022(12)
C57 0.417(15) 0.222(12) 0.344(17) 0.007(13) 0.200(16) -0.028(13)
C58 0.420(15) 0.210(13) 0.344(16) -0.001(12) 0.207(15) -0.026(13)
C59 0.409(13) 0.210(11) 0.350(15) 0.004(11) 0.216(14) -0.034(12)
C60 0.403(15) 0.210(12) 0.347(16) 0.012(12) 0.208(15) -0.028(12)
C61 0.399(15) 0.198(13) 0.340(16) 0.020(12) 0.204(15) -0.023(14)
N14 0.326(16) 0.263(13) 0.270(14) 0.054(11) 0.181(13) 0.002(12)
C62 0.336(18) 0.287(13) 0.271(14) 0.052(11) 0.170(13) 0.002(14)
C63 0.338(17) 0.296(12) 0.273(14) 0.066(12) 0.162(13) 0.001(13)
C64 0.340(15) 0.293(12) 0.279(13) 0.073(11) 0.152(12) 0.008(12)
C65 0.337(17) 0.271(12) 0.280(14) 0.068(11) 0.165(13) -0.003(13)
C66 0.337(17) 0.253(12) 0.274(15) 0.057(11) 0.168(14) -0.006(13)
N15 0.334(15) 0.328(13) 0.268(12) 0.078(11) 0.141(12) 0.015(12)
C67 0.341(15) 0.316(13) 0.279(12) 0.082(11) 0.139(12) 0.021(12)
C68 0.357(17) 0.344(14) 0.311(15) 0.091(13) 0.113(14) 0.018(15)
C69 0.362(18) 0.350(15) 0.321(15) 0.100(14) 0.096(15) 0.011(15)
C70 0.360(17) 0.349(16) 0.309(15) 0.104(14) 0.102(14) 0.016(14)
C71 0.337(15) 0.337(13) 0.272(12) 0.090(11) 0.119(12) 0.019(12)
N16 0.306(17) 0.325(14) 0.252(14) 0.045(12) 0.129(13) 0.027(13)
C72 0.311(17) 0.324(15) 0.253(14) 0.058(13) 0.124(13) 0.017(14)
C73 0.313(16) 0.318(15) 0.256(14) 0.068(13) 0.127(13) 0.001(13)
C74 0.315(15) 0.322(13) 0.256(13) 0.073(11) 0.124(12) 0.010(12)
C75 0.312(16) 0.331(15) 0.249(14) 0.064(13) 0.124(13) 0.014(13)
C76 0.307(16) 0.332(16) 0.247(15) 0.056(13) 0.127(13) 0.026(13)
N17 0.261(15) 0.319(13) 0.303(16) 0.032(13) 0.141(13) 0.049(12)
C77 0.261(15) 0.324(15) 0.308(17) 0.021(14) 0.137(13) 0.065(13)
C78 0.262(15) 0.316(15) 0.309(15) 0.009(13) 0.142(12) 0.078(13)
C79 0.269(13) 0.320(13) 0.313(14) 0.019(12) 0.137(12) 0.079(12)
C80 0.262(14) 0.329(15) 0.309(16) 0.021(13) 0.144(12) 0.066(13)
C81 0.261(16) 0.324(15) 0.304(15) 0.030(13) 0.140(13) 0.056(13)
N18 0.283(13) 0.318(13) 0.337(15) 0.028(12) 0.139(12) 0.091(11)
C82 0.287(13) 0.329(13) 0.340(14) 0.032(12) 0.126(12) 0.096(11)
C83 0.319(15) 0.339(16) 0.365(16) 0.032(14) 0.111(14) 0.108(14)
C84 0.333(16) 0.346(15) 0.369(18) 0.028(15) 0.101(15) 0.108(14)
C85 0.320(15) 0.343(14) 0.360(17) 0.032(14) 0.115(15) 0.100(13)
C86 0.291(13) 0.314(13) 0.343(14) 0.031(12) 0.140(12) 0.092(11)
N19 0.273(15) 0.260(13) 0.321(16) 0.010(11) 0.177(12) 0.050(11)
C87 0.268(15) 0.281(13) 0.328(17) 0.006(13) 0.170(13) 0.052(12)
C88 0.274(15) 0.289(12) 0.334(16) 0.007(13) 0.160(13) 0.067(12)
C89 0.283(13) 0.290(12) 0.339(15) 0.015(12) 0.149(12) 0.077(11)
C90 0.285(15) 0.269(12) 0.338(17) -0.001(13) 0.159(13) 0.073(11)
C91 0.277(16) 0.253(12) 0.334(17) 0.000(13) 0.165(14) 0.063(12)
N20 0.330(16) 0.207(11) 0.393(14) -0.021(11) 0.206(14) 0.000(13)
C92 0.343(18) 0.217(12) 0.414(15) -0.025(12) 0.189(16) 0.000(13)
C93 0.340(16) 0.211(13) 0.418(15) -0.027(13) 0.203(15) -0.001(12)
C94 0.347(15) 0.210(11) 0.415(13) -0.043(11) 0.212(14) 0.003(11)
C95 0.343(17) 0.209(12) 0.401(14) -0.031(12) 0.206(15) 0.009(12)
C96 0.339(16) 0.196(13) 0.388(15) -0.022(14) 0.203(15) 0.010(12)
N21 0.372(16) 0.243(11) 0.447(14) -0.060(11) 0.222(15) -0.023(12)
C97 0.370(15) 0.230(11) 0.443(13) -0.054(12) 0.215(15) -0.002(12)
C98 0.391(18) 0.254(14) 0.477(16) -0.046(15) 0.194(17) -0.017(14)
C99 0.393(19) 0.267(14) 0.490(17) -0.046(14) 0.189(18) -0.020(14)
C100 0.403(18) 0.273(14) 0.486(16) -0.050(14) 0.189(17) -0.019(15)
C101 0.389(16) 0.259(12) 0.461(14) -0.067(13) 0.207(15) -0.026(12)
N22 0.389(18) 0.270(15) 0.429(17) -0.061(14) 0.228(17) -0.036(15)
C102 0.377(19) 0.259(14) 0.433(17) -0.063(14) 0.223(18) -0.056(14)
C103 0.375(18) 0.255(14) 0.437(17) -0.072(14) 0.219(17) -0.045(14)
C104 0.380(16) 0.268(13) 0.448(15) -0.068(13) 0.215(16) -0.043(13)
C105 0.387(19) 0.280(14) 0.449(17) -0.066(14) 0.212(18) -0.055(14)
C106 0.399(19) 0.273(15) 0.445(17) -0.066(15) 0.210(18) -0.047(16)
N23 0.450(19) 0.405(19) 0.296(16) -0.070(15) 0.204(15) -0.128(17)
C107 0.452(19) 0.402(19) 0.303(16) -0.077(16) 0.199(16) -0.132(17)
C108 0.466(18) 0.409(18) 0.301(17) -0.085(15) 0.189(16) -0.143(16)
C109 0.480(17) 0.426(17) 0.312(15) -0.068(14) 0.173(15) -0.143(15)
C110 0.472(18) 0.418(19) 0.313(16) -0.066(15) 0.187(16) -0.146(16)
C111 0.462(19) 0.412(19) 0.306(18) -0.067(15) 0.192(17) -0.138(16)
N24 0.482(18) 0.456(18) 0.310(15) -0.051(15) 0.143(15) -0.134(15)
C112 0.495(17) 0.445(17) 0.319(14) -0.049(14) 0.142(15) -0.141(15)
C113 0.510(19) 0.464(19) 0.329(17) -0.036(16) 0.123(17) -0.143(17)
C114 0.51(2) 0.48(2) 0.334(17) -0.042(17) 0.116(18) -0.138(17)
C115 0.502(19) 0.48(2) 0.327(16) -0.050(16) 0.118(17) -0.133(17)
C116 0.479(17) 0.464(18) 0.308(15) -0.049(14) 0.130(15) -0.124(14)
N25 0.416(19) 0.432(18) 0.265(17) -0.039(15) 0.163(16) -0.074(16)
C117 0.422(19) 0.44(2) 0.269(16) -0.031(16) 0.162(16) -0.091(16)
C118 0.436(19) 0.45(2) 0.275(15) -0.044(16) 0.150(15) -0.097(16)
C119 0.448(17) 0.457(18) 0.287(15) -0.039(14) 0.146(15) -0.104(14)
C120 0.438(19) 0.46(2) 0.278(15) -0.031(16) 0.151(16) -0.089(16)
C121 0.43(2) 0.44(2) 0.278(16) -0.040(16) 0.150(16) -0.075(17)
N26 0.44(2) 0.390(17) 0.313(18) -0.015(15) 0.206(16) 0.051(15)
C122 0.44(2) 0.394(18) 0.303(17) -0.008(15) 0.200(16) 0.061(15)
C123 0.45(2) 0.394(18) 0.303(16) -0.019(15) 0.202(16) 0.075(15)
C124 0.457(18) 0.391(16) 0.307(15) -0.030(13) 0.195(15) 0.073(13)
C125 0.45(2) 0.387(18) 0.305(16) -0.017(15) 0.210(16) 0.054(15)
C126 0.45(2) 0.397(18) 0.304(16) -0.011(15) 0.216(16) 0.051(15)
N27 0.459(18) 0.385(15) 0.313(15) -0.039(13) 0.192(14) 0.102(13)
C127 0.466(18) 0.402(15) 0.318(15) -0.050(13) 0.194(14) 0.096(13)
C128 0.48(2) 0.428(17) 0.329(16) -0.043(15) 0.196(16) 0.110(15)
C129 0.49(2) 0.431(17) 0.334(17) -0.038(16) 0.186(17) 0.116(16)
C130 0.476(19) 0.418(16) 0.326(17) -0.039(15) 0.189(16) 0.110(15)
C131 0.459(17) 0.381(14) 0.318(14) -0.043(13) 0.188(14) 0.103(13)
N28 0.396(19) 0.272(15) 0.315(16) -0.006(12) 0.178(15) 0.082(12)
C132 0.409(19) 0.308(15) 0.318(17) -0.021(14) 0.184(16) 0.089(13)
C133 0.421(18) 0.329(14) 0.311(17) -0.034(14) 0.188(16) 0.096(13)
C134 0.429(17) 0.337(14) 0.321(15) -0.032(12) 0.182(14) 0.098(12)
C135 0.412(18) 0.292(14) 0.327(17) -0.014(14) 0.179(16) 0.090(13)
C136 0.399(19) 0.261(14) 0.321(18) -0.004(14) 0.183(16) 0.081(13)
N29 0.418(15) 0.212(11) 0.310(15) 0.033(12) 0.207(14) 0.017(12)
C137 0.440(15) 0.213(14) 0.303(15) 0.032(12) 0.213(14) 0.024(14)
C138 0.445(15) 0.221(12) 0.294(15) 0.019(12) 0.209(14) 0.022(13)
C139 0.426(13) 0.227(12) 0.281(14) 0.003(11) 0.208(12) 0.015(11)
C140 0.412(15) 0.225(13) 0.287(14) 0.018(11) 0.211(13) 0.008(13)
C141 0.414(15) 0.226(12) 0.299(16) 0.024(12) 0.205(14) 0.013(12)
N30 0.417(19) 0.243(18) 0.275(17) 0.000 0.196(15) 0.000
C142 0.423(15) 0.247(14) 0.281(15) 0.002(10) 0.206(13) 0.005(10)
C143 0.433(18) 0.261(16) 0.291(18) 0.006(11) 0.212(15) -0.007(11)
C144 0.44(2) 0.26(2) 0.29(2) 0.000 0.209(19) 0.000
N31 0.293(16) 0.203(11) 0.302(15) -0.031(11) 0.088(12) -0.021(12)
C145 0.302(16) 0.205(13) 0.314(15) -0.032(12) 0.060(13) -0.013(13)
C146 0.301(16) 0.215(12) 0.305(16) -0.028(12) 0.058(13) 0.002(12)
C147 0.288(15) 0.223(12) 0.284(14) -0.012(11) 0.075(12) 0.001(11)
C148 0.278(15) 0.226(14) 0.283(15) -0.017(12) 0.087(12) -0.014(12)
C149 0.282(16) 0.219(12) 0.291(16) -0.019(12) 0.091(13) -0.020(12)
N32 0.29(2) 0.23(2) 0.274(18) 0.000 0.085(16) 0.000
C150 0.288(17) 0.244(15) 0.278(15) -0.007(10) 0.082(13) 0.005(10)
C151 0.29(2) 0.261(17) 0.287(18) -0.008(11) 0.080(16) -0.003(11)
C152 0.30(2) 0.25(2) 0.29(2) 0.000 0.08(2) 0.000
N33 0.296(17) 0.402(19) 0.392(18) -0.090(15) 0.131(16) 0.049(16)
C153 0.308(17) 0.406(19) 0.41(2) -0.082(17) 0.122(16) 0.055(17)
C154 0.307(18) 0.417(18) 0.432(19) -0.085(16) 0.115(16) 0.069(16)
C155 0.315(16) 0.434(17) 0.447(18) -0.094(14) 0.114(15) 0.062(15)
C156 0.316(17) 0.421(19) 0.429(19) -0.096(16) 0.118(16) 0.058(16)
C157 0.305(18) 0.409(19) 0.407(19) -0.096(16) 0.127(17) 0.053(16)
N34 0.307(15) 0.475(18) 0.472(19) -0.093(15) 0.130(14) 0.060(15)
C158 0.314(15) 0.458(17) 0.474(18) -0.099(14) 0.116(14) 0.057(15)
C159 0.312(18) 0.481(19) 0.49(2) -0.107(16) 0.118(16) 0.051(17)
C160 0.317(17) 0.49(2) 0.50(2) -0.103(18) 0.125(17) 0.054(17)
C161 0.313(17) 0.49(2) 0.50(2) -0.098(17) 0.131(16) 0.057(17)
C162 0.302(15) 0.481(18) 0.477(18) -0.085(14) 0.138(14) 0.052(15)
N35 0.278(18) 0.439(19) 0.42(2) -0.059(16) 0.171(16) 0.011(16)
C163 0.286(17) 0.45(2) 0.43(2) -0.064(17) 0.161(16) 0.023(17)
C164 0.289(16) 0.46(2) 0.44(2) -0.068(16) 0.155(16) 0.035(16)
C165 0.288(15) 0.469(18) 0.449(18) -0.076(14) 0.158(15) 0.035(15)
C166 0.283(16) 0.47(2) 0.44(2) -0.068(16) 0.160(16) 0.021(16)
C167 0.278(17) 0.45(2) 0.43(2) -0.063(16) 0.169(17) 0.019(17)
N36 0.294(18) 0.386(16) 0.359(18) 0.089(14) 0.145(15) 0.029(15)
C168 0.289(18) 0.396(17) 0.362(18) 0.097(15) 0.131(16) 0.019(16)
C169 0.298(16) 0.400(18) 0.367(18) 0.102(15) 0.117(15) 0.028(15)
C170 0.299(15) 0.393(15) 0.365(16) 0.104(13) 0.114(14) 0.044(14)
C171 0.308(17) 0.393(17) 0.365(18) 0.087(15) 0.107(15) 0.038(15)
C172 0.301(17) 0.396(18) 0.362(19) 0.085(15) 0.119(15) 0.033(15)
N37 0.307(15) 0.377(15) 0.362(15) 0.126(13) 0.108(14) 0.039(13)
C173 0.315(15) 0.396(15) 0.370(15) 0.122(13) 0.101(14) 0.049(13)
C174 0.330(17) 0.418(17) 0.379(18) 0.132(15) 0.091(15) 0.036(15)
C175 0.336(18) 0.420(17) 0.387(18) 0.139(15) 0.082(16) 0.024(16)
C176 0.331(18) 0.409(16) 0.382(17) 0.133(14) 0.090(16) 0.024(15)
C177 0.315(15) 0.373(14) 0.368(15) 0.128(12) 0.108(13) 0.037(13)
N38 0.301(16) 0.287(15) 0.348(17) 0.093(12) 0.168(14) 0.019(12)
C178 0.311(18) 0.321(15) 0.352(17) 0.109(13) 0.154(15) 0.017(14)
C179 0.312(17) 0.336(14) 0.353(17) 0.121(13) 0.138(15) 0.026(14)
C180 0.316(15) 0.340(13) 0.360(15) 0.120(12) 0.135(13) 0.029(13)
C181 0.314(17) 0.303(14) 0.356(16) 0.107(13) 0.153(15) 0.019(14)
C182 0.305(17) 0.277(14) 0.345(17) 0.098(13) 0.164(15) 0.019(14)
N39 0.418(15) 0.197(11) 0.346(16) 0.031(12) 0.238(13) 0.022(12)
C183 0.431(16) 0.208(12) 0.362(17) 0.031(12) 0.230(15) 0.030(12)
C184 0.437(15) 0.202(13) 0.365(16) 0.026(12) 0.230(14) 0.035(13)
C185 0.433(14) 0.205(11) 0.365(15) 0.037(11) 0.228(13) 0.038(12)
C186 0.422(15) 0.206(12) 0.363(16) 0.037(12) 0.226(14) 0.029(12)
C187 0.415(15) 0.194(13) 0.359(16) 0.041(12) 0.230(14) 0.024(14)
N40 0.453(15) 0.234(11) 0.379(16) 0.023(11) 0.224(13) 0.053(12)
C188 0.451(14) 0.221(11) 0.377(15) 0.036(11) 0.225(13) 0.043(12)
C189 0.475(17) 0.258(14) 0.399(17) 0.022(14) 0.225(14) 0.050(15)
C190 0.483(17) 0.276(14) 0.402(18) 0.028(14) 0.229(16) 0.050(14)
C191 0.484(17) 0.278(14) 0.406(18) 0.033(14) 0.216(15) 0.052(14)
C192 0.466(15) 0.253(12) 0.389(16) 0.032(12) 0.218(13) 0.063(13)
N41 0.455(18) 0.275(15) 0.358(17) 0.032(14) 0.217(14) 0.080(15)
C193 0.450(18) 0.268(14) 0.359(18) 0.020(13) 0.229(15) 0.094(14)
C194 0.451(17) 0.258(14) 0.363(17) 0.033(13) 0.227(14) 0.089(14)
C195 0.458(15) 0.264(12) 0.375(16) 0.023(12) 0.222(13) 0.083(13)
C196 0.458(17) 0.270(14) 0.370(18) 0.013(13) 0.224(15) 0.096(14)
C197 0.457(18) 0.268(15) 0.367(18) 0.017(14) 0.225(15) 0.093(15)
N42 0.333(17) 0.258(13) 0.282(15) 0.054(11) 0.172(13) 0.007(12)
C198 0.331(17) 0.275(13) 0.288(15) 0.055(11) 0.181(14) 0.011(13)
C199 0.330(17) 0.284(12) 0.300(14) 0.065(11) 0.183(14) -0.003(13)
C200 0.329(15) 0.294(12) 0.317(14) 0.057(10) 0.181(13) -0.012(12)
C201 0.334(17) 0.273(12) 0.306(15) 0.061(11) 0.178(14) 0.000(13)
C202 0.334(18) 0.253(12) 0.290(15) 0.054(11) 0.179(14) 0.012(13)
N43 0.328(15) 0.329(13) 0.331(14) 0.058(11) 0.185(12) -0.028(12)
C203 0.330(14) 0.320(13) 0.337(14) 0.059(11) 0.183(13) -0.032(12)
C204 0.340(17) 0.353(14) 0.371(16) 0.067(13) 0.170(15) -0.039(14)
C205 0.342(17) 0.360(15) 0.379(17) 0.078(14) 0.172(15) -0.042(15)
C206 0.338(16) 0.354(16) 0.364(16) 0.076(13) 0.181(14) -0.042(14)
C207 0.319(14) 0.337(13) 0.341(13) 0.064(11) 0.194(12) -0.039(12)
N44 0.292(16) 0.323(14) 0.315(14) 0.030(12) 0.182(13) -0.027(13)
C208 0.301(16) 0.328(15) 0.319(15) 0.043(12) 0.187(14) -0.022(14)
C209 0.301(15) 0.327(15) 0.324(15) 0.056(12) 0.191(13) -0.016(13)
C210 0.303(14) 0.329(13) 0.329(13) 0.058(11) 0.189(12) -0.024(12)
C211 0.299(16) 0.336(15) 0.325(15) 0.046(12) 0.180(13) -0.024(13)
C212 0.293(16) 0.331(16) 0.322(16) 0.035(13) 0.176(14) -0.028(13)
N45 0.247(15) 0.314(13) 0.322(14) -0.030(12) 0.155(13) -0.045(12)
C213 0.249(15) 0.322(15) 0.328(16) -0.043(12) 0.148(13) -0.053(13)
C214 0.255(14) 0.317(15) 0.331(15) -0.056(12) 0.147(13) -0.057(13)
C215 0.255(13) 0.324(13) 0.336(14) -0.053(11) 0.151(12) -0.066(12)
C216 0.254(14) 0.331(15) 0.334(16) -0.042(12) 0.145(13) -0.056(13)
C217 0.248(15) 0.325(15) 0.328(15) -0.032(13) 0.148(13) -0.053(13)
N46 0.277(13) 0.326(13) 0.337(15) -0.059(11) 0.133(12) -0.089(11)
C218 0.271(13) 0.339(13) 0.355(14) -0.053(11) 0.137(12) -0.094(11)
C219 0.297(15) 0.363(16) 0.379(16) -0.064(14) 0.137(14) -0.098(14)
C220 0.303(15) 0.374(16) 0.384(18) -0.067(14) 0.152(14) -0.098(14)
C221 0.302(16) 0.364(15) 0.368(16) -0.058(14) 0.149(14) -0.099(13)
C222 0.281(13) 0.321(13) 0.340(14) -0.053(11) 0.136(12) -0.098(11)
N47 0.277(15) 0.252(13) 0.289(15) -0.059(11) 0.113(14) -0.057(11)
C223 0.274(15) 0.268(13) 0.297(16) -0.063(12) 0.111(14) -0.062(12)
C224 0.269(15) 0.279(12) 0.306(15) -0.062(12) 0.120(13) -0.071(12)
C225 0.274(13) 0.289(12) 0.318(14) -0.059(11) 0.131(12) -0.078(11)
C226 0.276(15) 0.267(12) 0.308(16) -0.064(12) 0.125(13) -0.064(12)
C227 0.277(16) 0.247(12) 0.300(15) -0.065(12) 0.117(14) -0.049(12)
N48 0.340(17) 0.208(11) 0.365(17) -0.030(12) 0.153(14) -0.012(13)
C228 0.349(18) 0.220(12) 0.384(18) -0.033(13) 0.148(15) -0.006(13)
C229 0.356(17) 0.207(13) 0.386(17) -0.031(13) 0.143(14) 0.000(13)
C230 0.359(16) 0.211(11) 0.380(16) -0.036(11) 0.160(13) 0.001(12)
C231 0.347(17) 0.214(12) 0.368(17) -0.033(12) 0.171(14) -0.012(12)
C232 0.338(17) 0.210(13) 0.363(17) -0.035(13) 0.170(14) -0.016(13)
N49 0.387(17) 0.228(11) 0.400(17) -0.033(11) 0.157(14) 0.022(12)
C233 0.381(16) 0.220(11) 0.398(16) -0.039(12) 0.156(13) 0.007(12)
C234 0.399(18) 0.243(14) 0.426(18) -0.031(14) 0.138(15) 0.014(14)
C235 0.404(19) 0.255(14) 0.436(19) -0.034(14) 0.132(16) 0.015(14)
C236 0.411(18) 0.263(13) 0.436(18) -0.034(14) 0.141(16) 0.016(14)
C237 0.397(16) 0.248(12) 0.415(16) -0.036(12) 0.155(14) 0.026(12)
N50 0.392(19) 0.276(15) 0.391(18) -0.027(14) 0.177(16) 0.043(15)
C238 0.38(2) 0.265(14) 0.396(19) -0.025(14) 0.173(16) 0.056(14)
C239 0.381(18) 0.257(14) 0.399(19) -0.033(14) 0.168(15) 0.053(14)
C240 0.388(17) 0.257(12) 0.406(17) -0.030(12) 0.163(14) 0.043(13)
C241 0.388(19) 0.262(13) 0.405(19) -0.023(13) 0.166(16) 0.055(14)
C242 0.392(19) 0.264(15) 0.405(19) -0.023(15) 0.171(16) 0.055(15)
N51 0.463(19) 0.408(19) 0.382(18) 0.072(15) 0.287(15) 0.133(17)
C243 0.468(19) 0.404(19) 0.396(19) 0.057(16) 0.283(16) 0.140(17)
C244 0.466(19) 0.418(18) 0.407(19) 0.044(15) 0.297(16) 0.155(16)
C245 0.473(17) 0.437(17) 0.426(17) 0.062(14) 0.286(15) 0.146(15)
C246 0.474(19) 0.424(19) 0.415(19) 0.071(16) 0.276(16) 0.143(16)
C247 0.47(2) 0.415(19) 0.397(19) 0.073(16) 0.279(17) 0.138(16)
N52 0.463(17) 0.469(18) 0.450(18) 0.065(15) 0.297(15) 0.136(15)
C248 0.472(17) 0.462(17) 0.447(17) 0.071(14) 0.297(15) 0.141(15)
C249 0.478(18) 0.489(19) 0.46(2) 0.082(16) 0.302(17) 0.138(16)
C250 0.476(19) 0.50(2) 0.47(2) 0.081(17) 0.301(17) 0.134(17)
C251 0.469(19) 0.49(2) 0.474(19) 0.072(16) 0.302(16) 0.133(17)
C252 0.451(16) 0.475(17) 0.456(18) 0.063(14) 0.306(15) 0.127(14)
N53 0.416(19) 0.427(18) 0.42(2) 0.064(16) 0.290(17) 0.077(15)
C253 0.420(18) 0.43(2) 0.43(2) 0.057(16) 0.291(17) 0.092(16)
C254 0.426(19) 0.45(2) 0.433(19) 0.050(16) 0.295(16) 0.106(16)
C255 0.429(17) 0.458(18) 0.441(18) 0.062(14) 0.299(15) 0.109(14)
C256 0.421(18) 0.45(2) 0.434(19) 0.067(16) 0.300(16) 0.094(16)
C257 0.418(19) 0.43(2) 0.430(19) 0.062(16) 0.294(16) 0.088(16)
N54 0.413(19) 0.373(16) 0.362(18) -0.081(14) 0.244(16) -0.071(14)
C258 0.41(2) 0.383(17) 0.356(17) -0.083(14) 0.258(16) -0.080(15)
C259 0.426(19) 0.389(17) 0.356(17) -0.098(14) 0.254(15) -0.074(14)
C260 0.430(17) 0.392(15) 0.359(15) -0.108(13) 0.254(14) -0.072(13)
C261 0.43(2) 0.390(17) 0.359(17) -0.095(14) 0.245(16) -0.066(15)
C262 0.426(19) 0.383(17) 0.362(18) -0.079(15) 0.243(16) -0.075(15)
N55 0.434(18) 0.392(15) 0.361(15) -0.129(12) 0.252(14) -0.095(13)
C263 0.445(17) 0.407(15) 0.369(15) -0.134(13) 0.242(14) -0.080(13)
C264 0.462(19) 0.432(17) 0.380(17) -0.137(15) 0.233(16) -0.096(15)
C265 0.47(2) 0.434(17) 0.385(17) -0.134(15) 0.238(16) -0.105(16)
C266 0.465(19) 0.420(16) 0.377(17) -0.134(15) 0.242(16) -0.102(15)
C267 0.440(17) 0.385(14) 0.366(15) -0.137(13) 0.244(14) -0.089(13)
N56 0.376(18) 0.284(15) 0.380(17) -0.103(13) 0.224(16) -0.093(12)
C268 0.392(19) 0.322(15) 0.379(18) -0.106(14) 0.223(16) -0.093(14)
C269 0.403(18) 0.341(15) 0.369(18) -0.120(14) 0.231(16) -0.090(13)
C270 0.412(17) 0.343(14) 0.370(16) -0.124(12) 0.233(14) -0.093(12)
C271 0.400(19) 0.305(14) 0.381(17) -0.109(13) 0.215(16) -0.098(13)
C272 0.384(18) 0.276(14) 0.378(18) -0.105(13) 0.218(16) -0.094(13)
N57 0.299(16) 0.206(11) 0.299(15) -0.009(11) 0.104(12) -0.027(11)
C273 0.309(16) 0.209(13) 0.311(15) 0.002(13) 0.078(13) -0.026(13)
C274 0.302(16) 0.219(12) 0.305(16) 0.014(12) 0.074(13) -0.019(12)
C275 0.289(15) 0.225(11) 0.291(14) 0.005(11) 0.089(12) -0.010(11)
C276 0.289(15) 0.229(13) 0.284(15) -0.010(12) 0.097(12) -0.015(12)
C277 0.294(17) 0.221(12) 0.287(16) -0.010(12) 0.105(13) -0.015(12)
N58 0.275(18) 0.235(18) 0.280(18) 0.000 0.087(15) 0.000
C278 0.286(15) 0.242(13) 0.286(16) 0.005(10) 0.088(13) -0.003(10)
C279 0.299(18) 0.255(16) 0.291(19) -0.003(11) 0.082(15) -0.001(11)
C280 0.30(2) 0.26(2) 0.30(2) 0.000 0.081(19) 0.000
N59 0.315(16) 0.200(11) 0.420(14) 0.018(11) 0.214(14) 0.037(12)
C281 0.312(16) 0.206(13) 0.442(15) 0.026(14) 0.218(14) 0.029(12)
C282 0.302(16) 0.214(12) 0.446(15) 0.035(13) 0.217(14) 0.015(12)
C283 0.288(14) 0.226(12) 0.429(13) 0.021(11) 0.219(13) 0.005(11)
C284 0.294(15) 0.228(13) 0.414(14) 0.012(13) 0.217(13) 0.023(12)
C285 0.302(16) 0.218(12) 0.415(15) 0.013(12) 0.215(14) 0.033(12)
N60 0.283(18) 0.240(19) 0.424(18) 0.000 0.212(15) 0.000
C286 0.287(15) 0.250(14) 0.428(14) 0.011(10) 0.217(13) 0.004(10)
C287 0.294(18) 0.265(17) 0.436(18) 0.002(11) 0.216(15) 0.003(11)
C288 0.29(2) 0.26(2) 0.44(2) 0.000 0.216(19) 0.000
N61 0.361(17) 0.268(14) 0.386(17) -0.091(12) 0.223(16) -0.084(13)
C289 0.362(18) 0.306(15) 0.402(19) -0.088(13) 0.218(16) -0.097(14)
C290 0.356(18) 0.325(14) 0.413(18) -0.088(13) 0.229(15) -0.110(13)
C291 0.359(16) 0.329(13) 0.421(16) -0.088(12) 0.230(14) -0.120(12)
C292 0.367(17) 0.284(14) 0.410(18) -0.092(13) 0.215(15) -0.100(13)
C293 0.363(19) 0.258(13) 0.397(18) -0.087(12) 0.215(16) -0.091(13)
N62 0.352(15) 0.380(15) 0.444(17) -0.093(13) 0.253(14) -0.129(12)
C294 0.356(15) 0.376(14) 0.448(17) -0.088(12) 0.244(14) -0.138(13)
C295 0.372(18) 0.415(16) 0.472(19) -0.106(15) 0.238(16) -0.131(15)
C296 0.379(18) 0.425(17) 0.48(2) -0.109(16) 0.232(16) -0.132(15)
C297 0.375(17) 0.422(17) 0.474(19) -0.102(15) 0.228(16) -0.131(15)
C298 0.361(15) 0.396(15) 0.457(17) -0.082(12) 0.243(14) -0.134(13)
N63 0.357(18) 0.372(16) 0.434(19) -0.071(14) 0.246(16) -0.079(14)
C299 0.354(18) 0.382(17) 0.43(2) -0.077(15) 0.257(16) -0.084(15)
C300 0.353(17) 0.380(17) 0.439(19) -0.082(14) 0.258(15) -0.097(14)
C301 0.354(16) 0.381(15) 0.443(17) -0.077(12) 0.257(14) -0.109(13)
C302 0.351(17) 0.378(17) 0.451(19) -0.071(14) 0.249(16) -0.093(14)
C303 0.355(18) 0.380(17) 0.444(19) -0.074(15) 0.246(16) -0.080(15)
N64 0.43(2) 0.428(18) 0.408(18) 0.067(15) 0.292(17) 0.066(16)
C304 0.43(2) 0.433(19) 0.413(18) 0.080(16) 0.293(17) 0.064(17)
C305 0.435(19) 0.44(2) 0.420(18) 0.098(16) 0.299(16) 0.057(16)
C306 0.449(18) 0.456(18) 0.425(16) 0.101(14) 0.301(15) 0.072(14)
C307 0.44(2) 0.45(2) 0.418(18) 0.084(15) 0.299(16) 0.075(16)
C308 0.44(2) 0.44(2) 0.409(19) 0.074(16) 0.296(16) 0.070(16)
N65 0.460(18) 0.468(18) 0.462(16) 0.130(15) 0.309(15) 0.078(15)
C309 0.467(18) 0.472(17) 0.453(16) 0.121(14) 0.309(15) 0.074(14)
C310 0.49(2) 0.49(2) 0.467(18) 0.131(17) 0.305(17) 0.082(17)
C311 0.49(2) 0.49(2) 0.480(18) 0.128(17) 0.305(17) 0.090(17)
C312 0.47(2) 0.476(19) 0.479(18) 0.130(16) 0.315(17) 0.092(16)
C313 0.458(18) 0.456(17) 0.475(16) 0.133(14) 0.309(15) 0.085(14)
N66 0.394(19) 0.41(2) 0.470(19) 0.130(17) 0.299(15) 0.080(16)
C314 0.41(2) 0.406(19) 0.476(19) 0.134(17) 0.292(16) 0.073(17)
C315 0.414(19) 0.414(18) 0.474(19) 0.153(16) 0.306(16) 0.059(15)
C316 0.434(18) 0.434(17) 0.482(17) 0.140(15) 0.292(15) 0.076(14)
C317 0.43(2) 0.426(19) 0.486(19) 0.141(16) 0.277(16) 0.079(16)
C318 0.41(2) 0.420(19) 0.47(2) 0.136(17) 0.288(17) 0.080(16)
N67 0.374(18) 0.274(14) 0.369(17) 0.046(14) 0.171(15) -0.024(14)
C319 0.377(18) 0.274(14) 0.367(19) 0.053(14) 0.167(16) -0.024(14)
C320 0.376(18) 0.266(14) 0.366(17) 0.047(14) 0.166(15) -0.033(14)
C321 0.388(16) 0.274(12) 0.377(16) 0.045(13) 0.156(14) -0.031(13)
C322 0.390(18) 0.279(14) 0.373(18) 0.061(14) 0.158(16) -0.022(14)
C323 0.391(19) 0.272(15) 0.375(18) 0.060(15) 0.162(16) -0.025(15)
N68 0.381(16) 0.238(11) 0.382(16) 0.021(11) 0.147(14) -0.040(11)
C324 0.397(16) 0.260(12) 0.389(16) 0.026(12) 0.146(13) -0.041(12)
C325 0.420(18) 0.276(14) 0.407(18) 0.012(14) 0.125(16) -0.035(14)
C326 0.425(19) 0.270(14) 0.402(19) 0.011(14) 0.115(16) -0.029(14)
C327 0.416(18) 0.253(14) 0.401(18) 0.012(14) 0.122(15) -0.028(14)
C328 0.383(16) 0.226(11) 0.382(15) 0.006(12) 0.142(13) -0.041(12)
N69 0.348(17) 0.197(11) 0.343(16) -0.009(12) 0.152(13) -0.026(12)
C329 0.367(18) 0.206(12) 0.354(18) -0.006(12) 0.142(14) -0.032(13)
C330 0.372(17) 0.207(13) 0.357(17) -0.005(13) 0.137(14) -0.032(13)
C331 0.367(16) 0.208(11) 0.360(15) -0.001(11) 0.149(13) -0.040(12)
C332 0.355(17) 0.204(12) 0.352(17) -0.011(12) 0.155(14) -0.038(12)
C333 0.348(17) 0.196(13) 0.341(16) -0.016(13) 0.164(14) -0.032(13)
N70 0.284(15) 0.259(13) 0.285(14) -0.056(11) 0.116(14) -0.054(11)
C334 0.301(17) 0.277(13) 0.282(15) -0.048(12) 0.110(14) -0.064(12)
C335 0.308(16) 0.288(12) 0.280(15) -0.061(12) 0.123(13) -0.070(12)
C336 0.318(14) 0.295(12) 0.279(13) -0.077(11) 0.134(12) -0.064(11)
C337 0.306(16) 0.278(12) 0.283(15) -0.062(12) 0.127(13) -0.070(12)
C338 0.294(16) 0.256(12) 0.283(16) -0.053(12) 0.117(14) -0.070(12)
N71 0.339(15) 0.333(13) 0.287(13) -0.096(11) 0.138(12) -0.059(12)
C339 0.338(14) 0.324(13) 0.291(13) -0.094(11) 0.136(12) -0.060(11)
C340 0.360(17) 0.358(14) 0.314(15) -0.096(13) 0.147(14) -0.062(14)
C341 0.373(18) 0.366(16) 0.315(15) -0.100(14) 0.151(14) -0.069(14)
C342 0.371(17) 0.362(16) 0.310(15) -0.105(14) 0.140(14) -0.061(14)
C343 0.350(14) 0.345(13) 0.278(13) -0.103(11) 0.144(12) -0.058(12)
N72 0.310(15) 0.336(14) 0.261(15) -0.046(12) 0.149(13) -0.027(12)
C344 0.317(16) 0.338(16) 0.260(14) -0.052(13) 0.145(13) -0.044(13)
C345 0.322(15) 0.328(16) 0.258(14) -0.061(13) 0.150(13) -0.058(13)
C346 0.327(14) 0.334(14) 0.260(13) -0.071(11) 0.160(12) -0.058(11)
C347 0.322(16) 0.343(16) 0.262(14) -0.059(13) 0.151(13) -0.049(13)
C348 0.313(16) 0.340(16) 0.261(15) -0.057(13) 0.149(13) -0.033(13)
N73 0.310(15) 0.323(14) 0.301(16) -0.013(12) 0.185(13) 0.018(12)
C349 0.311(15) 0.326(15) 0.306(16) -0.020(13) 0.189(14) 0.037(12)
C350 0.320(16) 0.328(16) 0.308(15) -0.017(13) 0.190(13) 0.048(13)
C351 0.329(14) 0.334(14) 0.307(14) -0.024(12) 0.191(12) 0.054(11)
C352 0.322(15) 0.340(16) 0.306(15) -0.014(13) 0.184(14) 0.033(13)
C353 0.315(16) 0.331(16) 0.300(15) -0.015(13) 0.184(14) 0.027(13)
N74 0.342(15) 0.332(13) 0.332(14) -0.037(12) 0.187(13) 0.069(11)
C354 0.351(14) 0.345(13) 0.324(14) -0.045(12) 0.196(12) 0.070(11)
C355 0.377(17) 0.363(16) 0.345(16) -0.046(14) 0.181(14) 0.081(14)
C356 0.389(17) 0.363(16) 0.350(17) -0.040(15) 0.170(15) 0.086(14)
C357 0.378(16) 0.355(15) 0.351(17) -0.041(14) 0.171(15) 0.079(13)
C358 0.344(14) 0.323(13) 0.339(14) -0.036(12) 0.188(13) 0.071(11)
N75 0.293(16) 0.257(13) 0.342(16) 0.007(12) 0.179(14) 0.051(11)
C359 0.293(16) 0.265(13) 0.342(17) 0.011(13) 0.185(14) 0.060(12)
C360 0.302(15) 0.278(12) 0.339(17) -0.002(13) 0.190(14) 0.070(11)
C361 0.318(14) 0.289(12) 0.337(15) -0.012(12) 0.188(13) 0.068(11)
C362 0.312(16) 0.274(12) 0.348(17) -0.004(13) 0.180(14) 0.068(12)
C363 0.296(15) 0.254(12) 0.346(18) 0.006(13) 0.184(14) 0.062(11)
N76 0.359(17) 0.219(11) 0.403(14) 0.022(12) 0.235(14) 0.031(13)
C364 0.367(18) 0.225(13) 0.414(15) 0.033(12) 0.235(15) 0.031(13)
C365 0.365(17) 0.218(13) 0.420(15) 0.035(13) 0.238(14) 0.026(13)
C366 0.371(16) 0.216(11) 0.418(13) 0.036(12) 0.228(13) 0.034(12)
C367 0.367(17) 0.217(12) 0.404(15) 0.025(12) 0.230(14) 0.038(13)
C368 0.367(17) 0.211(14) 0.397(15) 0.018(14) 0.227(14) 0.042(13)
N77 0.386(17) 0.233(11) 0.444(15) 0.052(11) 0.222(13) 0.033(12)
C369 0.387(16) 0.229(11) 0.440(14) 0.045(12) 0.222(13) 0.036(12)
C370 0.408(18) 0.251(14) 0.466(16) 0.048(14) 0.222(15) 0.024(14)
C371 0.410(19) 0.264(14) 0.479(17) 0.047(14) 0.228(16) 0.024(14)
C372 0.415(18) 0.266(13) 0.479(16) 0.043(14) 0.217(15) 0.035(14)
C373 0.397(16) 0.250(12) 0.458(14) 0.059(12) 0.222(13) 0.033(12)
N78 0.378(18) 0.262(14) 0.456(18) 0.059(14) 0.221(14) 0.027(14)
C374 0.376(19) 0.256(14) 0.448(18) 0.074(14) 0.238(15) 0.011(14)
C375 0.376(18) 0.251(13) 0.446(17) 0.077(14) 0.242(14) 0.020(14)
C376 0.385(16) 0.257(12) 0.453(15) 0.068(13) 0.233(13) 0.022(12)
C377 0.386(19) 0.261(13) 0.460(17) 0.074(14) 0.228(15) 0.013(14)
C378 0.391(19) 0.261(15) 0.463(18) 0.068(15) 0.220(15) 0.016(15)
N79 0.382(19) 0.42(2) 0.306(16) 0.061(16) 0.134(16) -0.091(16)
C379 0.40(2) 0.42(2) 0.314(17) 0.074(16) 0.127(16) -0.084(17)
C380 0.419(19) 0.430(18) 0.313(17) 0.091(16) 0.118(16) -0.089(16)
C381 0.431(18) 0.454(17) 0.318(15) 0.079(15) 0.124(14) -0.093(14)
C382 0.413(19) 0.435(19) 0.322(17) 0.074(16) 0.127(16) -0.097(16)
C383 0.393(19) 0.423(19) 0.317(18) 0.067(16) 0.136(17) -0.097(16)
N80 0.454(19) 0.484(18) 0.302(15) 0.071(15) 0.141(14) -0.085(15)
C384 0.456(18) 0.479(17) 0.312(15) 0.071(14) 0.128(14) -0.096(14)
C385 0.47(2) 0.507(19) 0.313(17) 0.065(16) 0.127(16) -0.101(16)
C386 0.48(2) 0.52(2) 0.316(17) 0.066(17) 0.132(16) -0.099(17)
C387 0.48(2) 0.51(2) 0.312(16) 0.065(16) 0.134(16) -0.089(17)
C388 0.457(18) 0.491(18) 0.296(15) 0.064(14) 0.141(14) -0.075(14)
N81 0.40(2) 0.447(19) 0.272(17) 0.026(15) 0.154(16) -0.042(16)
C389 0.40(2) 0.45(2) 0.279(16) 0.038(16) 0.153(15) -0.050(17)
C390 0.42(2) 0.47(2) 0.280(15) 0.050(16) 0.149(16) -0.054(16)
C391 0.426(18) 0.479(18) 0.279(15) 0.051(14) 0.155(14) -0.063(14)
C392 0.42(2) 0.47(2) 0.274(15) 0.036(16) 0.151(15) -0.056(16)
C393 0.41(2) 0.45(2) 0.269(16) 0.035(16) 0.155(16) -0.049(16)
N82 0.348(18) 0.389(16) 0.295(17) 0.023(15) 0.135(15) 0.081(14)
C394 0.352(18) 0.395(17) 0.293(17) 0.009(16) 0.126(16) 0.093(15)
C395 0.355(18) 0.395(17) 0.306(16) 0.015(15) 0.116(15) 0.102(15)
C396 0.359(16) 0.392(15) 0.305(15) 0.029(13) 0.117(14) 0.105(13)
C397 0.358(18) 0.393(17) 0.311(16) 0.029(15) 0.109(15) 0.085(15)
C398 0.353(19) 0.394(18) 0.304(16) 0.027(15) 0.116(15) 0.082(16)
N83 0.369(16) 0.381(15) 0.324(15) 0.024(13) 0.110(14) 0.138(13)
C399 0.373(16) 0.399(15) 0.329(15) 0.036(13) 0.103(14) 0.128(13)
C400 0.383(18) 0.420(17) 0.349(17) 0.022(15) 0.094(16) 0.135(15)
C401 0.398(18) 0.416(17) 0.358(18) 0.010(16) 0.083(16) 0.137(15)
C402 0.391(18) 0.399(16) 0.350(18) 0.012(15) 0.089(16) 0.138(15)
C403 0.378(16) 0.367(14) 0.333(15) 0.027(13) 0.109(14) 0.136(13)
N84 0.366(18) 0.268(14) 0.315(16) 0.015(12) 0.172(14) 0.096(13)
C404 0.371(18) 0.305(15) 0.324(18) 0.020(14) 0.159(15) 0.107(13)
C405 0.372(18) 0.327(14) 0.331(17) 0.028(14) 0.141(15) 0.121(13)
C406 0.371(16) 0.327(13) 0.330(15) 0.026(13) 0.142(14) 0.128(12)
C407 0.370(17) 0.288(13) 0.326(17) 0.019(14) 0.163(15) 0.114(13)
C408 0.366(18) 0.264(13) 0.326(17) 0.013(14) 0.165(15) 0.098(13)
Pd1 0.343(5) 0.359(4) 0.234(3) 0.000 0.121(3) 0.000
Pd2 0.296(3) 0.2061(18) 0.367(3) -0.0139(17) 0.189(2) 0.0261(17)
Pd3 0.238(3) 0.313(3) 0.239(3) 0.000 0.112(2) 0.000
Pd4 0.365(3) 0.2057(18) 0.298(3) 0.0275(16) 0.189(2) -0.0129(17)
Pd5 0.230(3) 0.358(4) 0.345(4) 0.000 0.120(3) 0.000
Pd6 0.348(4) 0.323(3) 0.350(3) -0.069(2) 0.195(3) -0.070(2)
Pd7 0.344(5) 0.356(4) 0.342(4) 0.000 0.227(4) 0.000
Pd8 0.346(4) 0.324(3) 0.314(3) -0.003(2) 0.156(3) 0.067(2)
Pd9 0.228(3) 0.362(4) 0.341(4) 0.000 0.113(3) 0.000
Pd10 0.363(3) 0.2065(18) 0.291(2) 0.0410(16) 0.180(2) 0.0123(17)
Pd11 0.234(3) 0.314(3) 0.254(3) 0.000 0.125(3) 0.000
Pd12 0.293(3) 0.2046(18) 0.291(2) -0.0407(15) 0.111(2) -0.0264(16)
Pd13 0.338(4) 0.359(4) 0.232(3) 0.000 0.115(3) 0.000
Pd14 0.286(3) 0.2056(18) 0.367(3) 0.0123(17) 0.180(2) 0.0399(16)
Pd15 0.248(3) 0.313(3) 0.239(3) 0.000 0.124(3) 0.000
Pd16 0.288(3) 0.2049(18) 0.296(2) -0.0277(16) 0.109(2) -0.0410(16)
Pd17 0.339(4) 0.358(4) 0.345(4) 0.000 0.227(4) 0.000
Pd18 0.316(3) 0.325(3) 0.350(3) 0.070(2) 0.158(3) 0.000(2)

_geom_special_details            
; 
 All esds (except the esd in the dihedral angle between two l.s. planes) 
 are estimated using the full covariance matrix.  The cell esds are taken 
 into account individually in the estimation of esds in distances, angles 
 and torsion angles; correlations between esds in cell parameters are only 
 used when they are defined by crystal symmetry.  An approximate (isotropic) 
 treatment of cell esds is used for estimating esds involving l.s. planes. 
;

loop_
_geom_bond_atom_site_label_1
_geom_bond_atom_site_label_2
_geom_bond_distance
_geom_bond_site_symmetry_2
_geom_bond_publ_flag
N1 C1 1.3900 . ?
N1 C5 1.3900 . ?
N1 Pd4 1.968(12) . ?
C1 C2 1.3900 . ?
C2 C3 1.3900 . ?
C3 C4 1.3900 . ?
C3 C6 1.49(3) . ?
C4 C5 1.3900 . ?
N2 C6 1.33(3) 4_565 ?
N2 C6 1.33(3) . ?
C6 C7 1.44(3) . ?
C7 C8 1.38(3) . ?
C8 C7 1.38(3) 4_565 ?
N3 C9 1.3900 . ?
N3 C13 1.3900 . ?
N3 Pd2 1.986(12) . ?
C9 C10 1.3900 . ?
C10 C11 1.3900 . ?
C11 C12 1.3900 . ?
C11 C14 1.46(3) . ?
C12 C13 1.3900 . ?
N4 C14 1.35(3) . ?
N4 C14 1.35(3) 4_565 ?
C14 C15 1.45(4) . ?
C15 C16 1.36(3) . ?
C16 C15 1.36(3) 4_565 ?
N5 C17 1.3900 . ?
N5 C21 1.3900 . ?
N5 Pd4 1.988(15) . ?
C17 C18 1.3900 . ?
C18 C19 1.3900 . ?
C19 C20 1.3900 . ?
C19 C22 1.43(2) . ?
C20 C21 1.3900 . ?
N6 C22 1.3900 . ?
N6 C26 1.3900 . ?
C22 C23 1.3900 . ?
C23 C24 1.3900 . ?
C24 C25 1.3900 . ?
C25 C26 1.3900 . ?
C26 C29 1.40(2) . ?
N7 C27 1.3900 . ?
N7 C31 1.3900 . ?
N7 Pd5 2.057(15) . ?
C27 C28 1.3900 . ?
C28 C29 1.3900 . ?
C29 C30 1.3900 . ?
C30 C31 1.3900 . ?
N8 C32 1.3900 . ?
N8 C36 1.3900 . ?
N8 Pd5 2.001(16) . ?
C32 C33 1.3900 . ?
C33 C34 1.3900 . ?
C34 C35 1.3900 . ?
C34 C37 1.50(2) . ?
C35 C36 1.3900 . ?
N9 C37 1.3900 . ?
N9 C41 1.3900 . ?
C37 C38 1.3900 . ?
C38 C39 1.3900 . ?
C39 C40 1.3900 . ?
C40 C41 1.3900 . ?
C41 C44 1.49(2) . ?
N10 C42 1.3900 . ?
N10 C46 1.3900 . ?
N10 Pd6 2.001(16) . ?
C42 C43 1.3900 . ?
C43 C44 1.3900 . ?
C44 C45 1.3900 . ?
C45 C46 1.3900 . ?
N11 C47 1.3900 . ?
N11 C51 1.3900 . ?
N11 Pd6 2.018(15) . ?
C47 C48 1.3900 . ?
C48 C49 1.3900 . ?
C49 C50 1.3900 . ?
C49 C52 1.42(2) . ?
C50 C51 1.3900 . ?
N12 C52 1.3900 . ?
N12 C56 1.3900 . ?
C52 C53 1.3900 . ?
C53 C54 1.3900 . ?
C54 C55 1.3900 . ?
C55 C56 1.3900 . ?
C56 C59 1.459(18) . ?
N13 C57 1.3900 . ?
N13 C61 1.3900 . ?
N13 Pd4 2.007(12) . ?
C57 C58 1.3900 . ?
C58 C59 1.3900 . ?
C59 C60 1.3900 . ?
C60 C61 1.3900 . ?
N14 C62 1.3900 . ?
N14 C66 1.3900 . ?
N14 Pd4 2.005(14) . ?
C62 C63 1.3900 . ?
C63 C64 1.3900 . ?
C64 C65 1.3900 . ?
C64 C67 1.43(2) . ?
C65 C66 1.3900 . ?
N15 C67 1.3900 . ?
N15 C71 1.3900 . ?
C67 C68 1.3900 . ?
C68 C69 1.3900 . ?
C69 C70 1.3900 . ?
C70 C71 1.3900 . ?
C71 C74 1.449(17) . ?
N16 C72 1.3900 . ?
N16 C76 1.3900 . ?
N16 Pd3 1.996(12) . ?
C72 C73 1.3900 . ?
C73 C74 1.3900 . ?
C74 C75 1.3900 . ?
C75 C76 1.3900 . ?
N17 C77 1.3900 . ?
N17 C81 1.3900 . ?
N17 Pd3 2.004(12) . ?
C77 C78 1.3900 . ?
C78 C79 1.3900 . ?
C79 C80 1.3900 . ?
C79 C82 1.461(17) . ?
C80 C81 1.3900 . ?
N18 C82 1.3900 . ?
N18 C86 1.3900 . ?
C82 C83 1.3900 . ?
C83 C84 1.3900 . ?
C84 C85 1.3900 . ?
C85 C86 1.3900 . ?
C86 C89 1.41(2) . ?
N19 C87 1.3900 . ?
N19 C91 1.3900 . ?
N19 Pd2 2.004(14) . ?
C87 C88 1.3900 . ?
C88 C89 1.3900 . ?
C89 C90 1.3900 . ?
C90 C91 1.3900 . ?
N20 C92 1.3900 . ?
N20 C96 1.3900 . ?
N20 Pd2 1.986(12) . ?
C92 C93 1.3900 . ?
C93 C94 1.3900 . ?
C94 C95 1.3900 . ?
C94 C97 1.483(18) . ?
C95 C96 1.3900 . ?
N21 C97 1.3900 . ?
N21 C101 1.3900 . ?
C97 C98 1.3900 . ?
C98 C99 1.3900 . ?
C99 C100 1.3900 . ?
C100 C101 1.3900 . ?
C101 C104 1.43(2) . ?
N22 C102 1.3900 . ?
N22 C106 1.3900 . ?
N22 Pd6 2.002(16) . ?
C102 C103 1.3900 . ?
C103 C104 1.3900 . ?
C104 C105 1.3900 . ?
C105 C106 1.3900 . ?
N23 C107 1.3900 . ?
N23 C111 1.3900 . ?
N23 Pd6 2.003(15) . ?
C107 C108 1.3900 . ?
C108 C109 1.3900 . ?
C109 C110 1.3900 . ?
C109 C112 1.51(2) . ?
C110 C111 1.3900 . ?
N24 C112 1.3900 . ?
N24 C116 1.3900 . ?
C112 C113 1.3900 . ?
C113 C114 1.3900 . ?
C114 C115 1.3900 . ?
C115 C116 1.3900 . ?
C116 C119 1.45(2) . ?
N25 C117 1.3900 . ?
N25 C121 1.3900 . ?
N25 Pd1 1.983(17) . ?
C117 C118 1.3900 . ?
C118 C119 1.3900 . ?
C119 C120 1.3900 . ?
C120 C121 1.3900 . ?
N26 C122 1.3900 . ?
N26 C126 1.3900 . ?
N26 Pd1 2.030(16) . ?
C122 C123 1.3900 . ?
C123 C124 1.3900 . ?
C124 C125 1.3900 . ?
C124 C127 1.44(2) . ?
C125 C126 1.3900 . ?
N27 C127 1.3900 . ?
N27 C131 1.3900 . ?
C127 C128 1.3900 . ?
C128 C129 1.3900 . ?
C129 C130 1.3900 . ?
C130 C131 1.3900 . ?
C131 C134 1.46(2) . ?
N28 C132 1.3900 . ?
N28 C136 1.3900 . ?
N28 Pd2 1.974(15) . ?
C132 C133 1.3900 . ?
C133 C134 1.3900 . ?
C134 C135 1.3900 . ?
C135 C136 1.3900 . ?
N29 C137 1.3900 . ?
N29 C141 1.3900 . ?
N29 Pd10 1.979(12) . ?
C137 C138 1.3900 . ?
C138 C139 1.3900 . ?
C139 C140 1.3900 . ?
C139 C142 1.48(3) . ?
C140 C141 1.3900 . ?
N30 C142 1.376(17) 4_565 ?
N30 C142 1.376(17) . ?
C142 C143 1.394(18) . ?
C143 C144 1.372(17) . ?
C144 C143 1.372(17) 4_565 ?
N31 C145 1.3900 . ?
N31 C149 1.3900 . ?
N31 Pd12 1.982(11) . ?
C145 C146 1.3900 . ?
C146 C147 1.3900 . ?
C147 C148 1.3900 . ?
C147 C150 1.48(3) . ?
C148 C149 1.3900 . ?
N32 C150 1.30(3) . ?
N32 C150 1.30(3) 4_565 ?
C150 C151 1.42(3) . ?
C151 C152 1.38(3) . ?
C152 C151 1.38(3) 4_565 ?
N33 C153 1.3900 . ?
N33 C157 1.3900 . ?
N33 Pd8 2.023(16) . ?
C153 C154 1.3900 . ?
C154 C155 1.3900 . ?
C155 C156 1.3900 . ?
C155 C158 1.48(2) . ?
C156 C157 1.3900 . ?
N34 C158 1.3900 . ?
N34 C162 1.3900 . ?
C158 C159 1.3900 . ?
C159 C160 1.3900 . ?
C160 C161 1.3900 . ?
C161 C162 1.3900 . ?
C162 C165 1.49(2) . ?
N35 C163 1.3900 . ?
N35 C167 1.3900 . ?
N35 Pd9 1.979(16) . ?
C163 C164 1.3900 . ?
C164 C165 1.3900 . ?
C165 C166 1.3900 . ?
C166 C167 1.3900 . ?
N36 C168 1.3900 . ?
N36 C172 1.3900 . ?
N36 Pd9 2.033(15) . ?
C168 C169 1.3900 . ?
C169 C170 1.3900 . ?
C170 C171 1.3900 . ?
C170 C173 1.43(2) . ?
C171 C172 1.3900 . ?
N37 C173 1.3900 . ?
N37 C177 1.3900 . ?
C173 C174 1.3900 . ?
C174 C175 1.3900 . ?
C175 C176 1.3900 . ?
C176 C177 1.3900 . ?
C177 C180 1.45(2) . ?
N38 C178 1.3900 . ?
N38 C182 1.3900 . ?
N38 Pd10 1.967(15) . ?
C178 C179 1.3900 . ?
C179 C180 1.3900 . ?
C180 C181 1.3900 . ?
C181 C182 1.3900 . ?
N39 C183 1.3900 . ?
N39 C187 1.3900 . ?
N39 Pd10 2.003(12) . ?
C183 C184 1.3900 . ?
C184 C185 1.3900 . ?
C185 C186 1.3900 . ?
C185 C188 1.470(18) . ?
C186 C187 1.3900 . ?
N40 C188 1.3900 . ?
N40 C192 1.3900 . ?
C188 C189 1.3900 . ?
C189 C190 1.3900 . ?
C190 C191 1.3900 . ?
C191 C192 1.3900 . ?
C192 C195 1.41(2) . ?
N41 C193 1.3900 . ?
N41 C197 1.3900 . ?
N41 Pd8 2.013(16) . ?
C193 C194 1.3900 . ?
C194 C195 1.3900 . ?
C195 C196 1.3900 . ?
C196 C197 1.3900 . ?
N42 C198 1.3900 . ?
N42 C202 1.3900 . ?
N42 Pd10 2.008(14) . ?
C198 C199 1.3900 . ?
C199 C200 1.3900 . ?
C200 C201 1.3900 . ?
C200 C203 1.40(2) . ?
C201 C202 1.3900 . ?
N43 C203 1.3900 . ?
N43 C207 1.3900 . ?
C203 C204 1.3900 . ?
C204 C205 1.3900 . ?
C205 C206 1.3900 . ?
C206 C207 1.3900 . ?
C207 C210 1.457(17) . ?
N44 C208 1.3900 . ?
N44 C212 1.3900 . ?
N44 Pd11 2.001(12) . ?
C208 C209 1.3900 . ?
C209 C210 1.3900 . ?
C210 C211 1.3900 . ?
C211 C212 1.3900 . ?
N45 C213 1.3900 . ?
N45 C217 1.3900 . ?
N45 Pd11 2.000(12) . ?
C213 C214 1.3900 . ?
C214 C215 1.3900 . ?
C215 C216 1.3900 . ?
C215 C218 1.429(17) . ?
C216 C217 1.3900 . ?
N46 C218 1.3900 . ?
N46 C222 1.3900 . ?
C218 C219 1.3900 . ?
C219 C220 1.3900 . ?
C220 C221 1.3900 . ?
C221 C222 1.3900 . ?
C222 C225 1.45(2) . ?
N47 C223 1.3900 . ?
N47 C227 1.3900 . ?
N47 Pd12 2.002(14) . ?
C223 C224 1.3900 . ?
C224 C225 1.3900 . ?
C225 C226 1.3900 . ?
C226 C227 1.3900 . ?
N48 C228 1.3900 . ?
N48 C232 1.3900 . ?
N48 Pd12 1.982(13) . ?
C228 C229 1.3900 . ?
C229 C230 1.3900 . ?
C230 C231 1.3900 . ?
C230 C233 1.507(18) . ?
C231 C232 1.3900 . ?
N49 C233 1.3900 . ?
N49 C237 1.3900 . ?
C233 C234 1.3900 . ?
C234 C235 1.3900 . ?
C235 C236 1.3900 . ?
C236 C237 1.3900 . ?
C237 C240 1.41(2) . ?
N50 C238 1.3900 . ?
N50 C242 1.3900 . ?
N50 Pd8 2.016(17) . ?
C238 C239 1.3900 . ?
C239 C240 1.3900 . ?
C240 C241 1.3900 . ?
C241 C242 1.3900 . ?
N51 C243 1.3900 . ?
N51 C247 1.3900 . ?
N51 Pd8 2.026(16) . ?
C243 C244 1.3900 . ?
C244 C245 1.3900 . ?
C245 C246 1.3900 . ?
C245 C248 1.50(2) . ?
C246 C247 1.3900 . ?
N52 C248 1.3900 . ?
N52 C252 1.3900 . ?
C248 C249 1.3900 . ?
C249 C250 1.3900 . ?
C250 C251 1.3900 . ?
C251 C252 1.3900 . ?
C252 C255 1.46(2) . ?
N53 C253 1.3900 . ?
N53 C257 1.3900 . ?
N53 Pd7 1.990(17) . ?
C253 C254 1.3900 . ?
C254 C255 1.3900 . ?
C255 C256 1.3900 . ?
C256 C257 1.3900 . ?
N54 C258 1.3900 . ?
N54 C262 1.3900 . ?
N54 Pd7 2.007(15) . ?
C258 C259 1.3900 . ?
C259 C260 1.3900 . ?
C260 C261 1.3900 . ?
C260 C263 1.44(2) . ?
C261 C262 1.3900 . ?
N55 C263 1.3900 . ?
N55 C267 1.3900 . ?
C263 C264 1.3900 . ?
C264 C265 1.3900 . ?
C265 C266 1.3900 . ?
C266 C267 1.3900 . ?
C267 C270 1.45(2) . ?
N56 C268 1.3900 . ?
N56 C272 1.3900 . ?
N56 Pd12 1.972(15) . ?
C268 C269 1.3900 . ?
C269 C270 1.3900 . ?
C270 C271 1.3900 . ?
C271 C272 1.3900 . ?
N57 C273 1.3900 . ?
N57 C277 1.3900 . ?
N57 Pd16 1.982(11) . ?
C273 C274 1.3900 . ?
C274 C275 1.3900 . ?
C275 C276 1.3900 . ?
C275 C278 1.49(3) . ?
C276 C277 1.3900 . ?
N58 C278 1.378(17) 4_575 ?
N58 C278 1.378(17) . ?
C278 C279 1.401(17) . ?
C279 C280 1.395(17) . ?
C280 C279 1.396(17) 4_575 ?
N59 C281 1.3900 . ?
N59 C285 1.3900 . ?
N59 Pd14 1.986(12) . ?
C281 C282 1.3900 . ?
C282 C283 1.3900 . ?
C283 C284 1.3900 . ?
C283 C286 1.45(3) . ?
C284 C285 1.3900 . ?
N60 C286 1.371(17) . ?
N60 C286 1.371(17) 4_575 ?
C286 C287 1.394(18) . ?
C287 C288 1.383(17) . ?
C288 C287 1.382(17) 4_575 ?
N61 C289 1.3900 . ?
N61 C293 1.3900 . ?
N61 Pd16 1.986(15) . ?
C289 C290 1.3900 . ?
C290 C291 1.3900 . ?
C291 C292 1.3900 . ?
C291 C294 1.44(2) . ?
C292 C293 1.3900 . ?
N62 C294 1.3900 . ?
N62 C298 1.3900 . ?
C294 C295 1.3900 . ?
C295 C296 1.3900 . ?
C296 C297 1.3900 . ?
C297 C298 1.3900 . ?
C298 C301 1.41(2) . ?
N63 C299 1.3900 . ?
N63 C303 1.3900 . ?
N63 Pd17 2.012(15) . ?
C299 C300 1.3900 . ?
C300 C301 1.3900 . ?
C301 C302 1.3900 . ?
C302 C303 1.3900 . ?
N64 C304 1.3900 . ?
N64 C308 1.3900 . ?
N64 Pd17 1.981(17) . ?
C304 C305 1.3900 . ?
C305 C306 1.3900 . ?
C306 C307 1.3900 . ?
C306 C309 1.46(2) . ?
C307 C308 1.3900 . ?
N65 C309 1.3900 . ?
N65 C313 1.3900 . ?
C309 C310 1.3900 . ?
C310 C311 1.3900 . ?
C311 C312 1.3900 . ?
C312 C313 1.3900 . ?
C313 C316 1.53(2) . ?
N66 C314 1.3900 . ?
N66 C318 1.3900 . ?
N66 Pd18 2.012(16) . ?
C314 C315 1.3900 . ?
C315 C316 1.3900 . ?
C316 C317 1.3900 . ?
C317 C318 1.3900 . ?
N67 C319 1.3900 . ?
N67 C323 1.3900 . ?
N67 Pd18 2.024(16) . ?
C319 C320 1.3900 . ?
C320 C321 1.3900 . ?
C321 C322 1.3900 . ?
C321 C324 1.41(2) . ?
C322 C323 1.3900 . ?
N68 C324 1.3900 . ?
N68 C328 1.3900 . ?
C324 C325 1.3900 . ?
C325 C326 1.3900 . ?
C326 C327 1.3900 . ?
C327 C328 1.3900 . ?
C328 C331 1.479(18) . ?
N69 C329 1.3900 . ?
N69 C333 1.3900 . ?
N69 Pd16 1.992(12) . ?
C329 C330 1.3900 . ?
C330 C331 1.3900 . ?
C331 C332 1.3900 . ?
C332 C333 1.3900 . ?
N70 C334 1.3900 . ?
N70 C338 1.3900 . ?
N70 Pd16 2.019(14) . ?
C334 C335 1.3900 . ?
C335 C336 1.3900 . ?
C336 C337 1.3900 . ?
C336 C339 1.41(2) . ?
C337 C338 1.3900 . ?
N71 C339 1.3900 . ?
N71 C343 1.3900 . ?
C339 C340 1.3900 . ?
C340 C341 1.3900 . ?
C341 C342 1.3900 . ?
C342 C343 1.3900 . ?
C343 C346 1.471(17) . ?
N72 C344 1.3900 . ?
N72 C348 1.3900 . ?
N72 Pd15 1.991(13) . ?
C344 C345 1.3900 . ?
C345 C346 1.3900 . ?
C346 C347 1.3900 . ?
C347 C348 1.3900 . ?
N73 C349 1.3900 . ?
N73 C353 1.3900 . ?
N73 Pd15 1.988(13) . ?
C349 C350 1.3900 . ?
C350 C351 1.3900 . ?
C351 C352 1.3900 . ?
C351 C354 1.453(18) . ?
C352 C353 1.3900 . ?
N74 C354 1.3900 . ?
N74 C358 1.3900 . ?
C354 C355 1.3900 . ?
C355 C356 1.3900 . ?
C356 C357 1.3900 . ?
C357 C358 1.3900 . ?
C358 C361 1.41(2) . ?
N75 C359 1.3900 . ?
N75 C363 1.3900 . ?
N75 Pd14 2.020(14) . ?
C359 C360 1.3900 . ?
C360 C361 1.3900 . ?
C361 C362 1.3900 . ?
C362 C363 1.3900 . ?
N76 C364 1.3900 . ?
N76 C368 1.3900 . ?
N76 Pd14 2.000(12) . ?
C364 C365 1.3900 . ?
C365 C366 1.3900 . ?
C366 C367 1.3900 . ?
C366 C369 1.482(18) . ?
C367 C368 1.3900 . ?
N77 C369 1.3900 . ?
N77 C373 1.3900 . ?
C369 C370 1.3900 . ?
C370 C371 1.3900 . ?
C371 C372 1.3900 . ?
C372 C373 1.3900 . ?
C373 C376 1.44(2) . ?
N78 C374 1.3900 . ?
N78 C378 1.3900 . ?
N78 Pd18 2.010(16) . ?
C374 C375 1.3900 . ?
C375 C376 1.3900 . ?
C376 C377 1.3900 . ?
C377 C378 1.3900 . ?
N79 C379 1.3900 . ?
N79 C383 1.3900 . ?
N79 Pd18 2.032(16) . ?
C379 C380 1.3900 . ?
C380 C381 1.3900 . ?
C381 C382 1.3900 . ?
C381 C384 1.48(2) . ?
C382 C383 1.3900 . ?
N80 C384 1.3900 . ?
N80 C388 1.3900 . ?
C384 C385 1.3900 . ?
C385 C386 1.3900 . ?
C386 C387 1.3900 . ?
C387 C388 1.3900 . ?
C388 C391 1.47(2) . ?
N81 C389 1.3900 . ?
N81 C393 1.3900 . ?
N81 Pd13 1.992(16) . ?
C389 C390 1.3900 . ?
C390 C391 1.3900 . ?
C391 C392 1.3900 . ?
C392 C393 1.3900 . ?
N82 C394 1.3900 . ?
N82 C398 1.3900 . ?
N82 Pd13 2.025(15) . ?
C394 C395 1.3900 . ?
C395 C396 1.3900 . ?
C396 C397 1.3900 . ?
C396 C399 1.41(2) . ?
C397 C398 1.3900 . ?
N83 C399 1.3900 . ?
N83 C403 1.3900 . ?
C399 C400 1.3900 . ?
C400 C401 1.3900 . ?
C401 C402 1.3900 . ?
C402 C403 1.3900 . ?
C403 C406 1.50(2) . ?
N84 C404 1.3900 . ?
N84 C408 1.3900 . ?
N84 Pd14 1.948(15) . ?
C404 C405 1.3900 . ?
C405 C406 1.3900 . ?
C406 C407 1.3900 . ?
C407 C408 1.3900 . ?
Pd1 N25 1.983(17) 4_565 ?
Pd1 N26 2.030(16) 4_565 ?
Pd3 N16 1.996(12) 4_565 ?
Pd3 N17 2.004(12) 4_565 ?
Pd5 N8 2.001(16) 4_565 ?
Pd5 N7 2.057(15) 4_565 ?
Pd7 N53 1.990(17) 4_565 ?
Pd7 N54 2.006(15) 4_565 ?
Pd9 N35 1.979(16) 4_565 ?
Pd9 N36 2.033(15) 4_565 ?
Pd11 N45 2.000(12) 4_565 ?
Pd11 N44 2.001(12) 4_565 ?
Pd13 N81 1.992(16) 4_575 ?
Pd13 N82 2.025(15) 4_575 ?
Pd15 N73 1.988(13) 4_575 ?
Pd15 N72 1.991(13) 4_575 ?
Pd17 N64 1.981(17) 4_575 ?
Pd17 N63 2.012(15) 4_575 ?
B1 F1A 1.391(19) . ?
B1 F1D 1.391(19) 4_565 ?
B1 F1D 1.391(19) . ?
B1 F1C 1.396(19) 4_565 ?
B1 F1C 1.396(19) . ?
B1 F1B 1.398(19) . ?
B1 F1B 1.398(19) 4_565 ?
B2 F2D 1.384(19) . ?
B2 F2D 1.384(19) 4_565 ?
B2 F2B 1.398(19) 4_565 ?
B2 F2B 1.40(2) . ?
B2 F2A 1.40(2) . ?
B2 F2C 1.403(19) 4_565 ?
B2 F2C 1.403(19) . ?
B3 F3F 1.395(19) . ?
B3 F3A 1.395(18) . ?
B3 F3C 1.396(19) . ?
B3 F3D 1.399(19) . ?
B3 F3H 1.401(19) . ?
B3 F3B 1.403(19) . ?
B3 F3G 1.408(19) . ?
B4 F4B 1.357(18) . ?
B4 F4H 1.381(19) . ?
B4 F4F 1.380(18) . ?
B4 F4A 1.387(18) . ?
B4 F4C 1.388(19) . ?
B4 F4D 1.404(19) . ?
B4 F4G 1.411(19) . ?
B5 F5A 1.39(2) . ?
B5 F5C 1.39(2) 4_565 ?
B5 F5C 1.39(2) . ?
B5 F5B 1.41(2) 4_565 ?
B5 F5B 1.41(2) . ?
B5 F5D 1.409(19) 4_565 ?
B5 F5D 1.41(2) . ?
B6 F6C 1.385(19) . ?
B6 F6C 1.385(19) 4_565 ?
B6 F6B 1.384(19) . ?
B6 F6B 1.384(19) 4_565 ?
B6 F6A 1.39(2) . ?
B6 F6D 1.410(19) . ?
B6 F6D 1.410(19) 4_565 ?
B7 F7A 1.388(17) . ?
B7 F7B 1.396(19) . ?
B7 F7C 1.396(19) . ?
B7 F7G 1.398(19) . ?
B7 F7H 1.401(19) . ?
B7 F7F 1.404(19) . ?
B7 F7D 1.405(19) . ?
B8 F8H 1.312(18) . ?
B8 F8B 1.374(19) . ?
B8 F8F 1.398(19) . ?
B8 F8A 1.401(19) . ?
B8 F8G 1.403(19) . ?
B8 F8C 1.421(19) . ?
B8 F8D 1.429(19) . ?
B9 F9B 1.388(19) 4_565 ?
B9 F9B 1.388(19) . ?
B9 F9A 1.39(2) . ?
B9 F9D 1.397(19) . ?
B9 F9D 1.397(19) 4_565 ?
B9 F9C 1.407(19) . ?
B9 F9C 1.407(19) 4_565 ?
B10 F10B 1.39(2) . ?
B10 F10B 1.39(2) 4_565 ?
B10 F10A 1.40(2) . ?
B10 F10C 1.397(19) 4_565 ?
B10 F10C 1.397(19) . ?
B10 F10D 1.40(2) 4_565 ?
B10 F10D 1.40(2) . ?
B11 F11A 1.37(2) . ?
B11 F11B 1.382(19) . ?
B11 F11D 1.399(19) . ?
B11 F11C 1.40(2) . ?
B12 F12D 1.390(19) . ?
B12 F12C 1.392(19) . ?
B12 F12A 1.392(18) . ?
B12 F12H 1.396(19) . ?
B12 F12F 1.397(19) . ?
B12 F12G 1.40(2) . ?
B12 F12B 1.416(19) . ?
B13 F13A 1.39(2) . ?
B13 F13D 1.398(19) 4_565 ?
B13 F13D 1.398(19) . ?
B13 F13C 1.40(2) 4_565 ?
B13 F13C 1.40(2) . ?
B13 F13B 1.40(2) . ?
B13 F13B 1.40(2) 4_565 ?
B14 F14B 1.40(2) 4_565 ?
B14 F14B 1.40(2) . ?
B14 F14A 1.40(2) . ?
B14 F14D 1.399(19) 4_565 ?
B14 F14D 1.399(19) . ?
B14 F14C 1.40(2) . ?
B14 F14C 1.40(2) 4_565 ?
B15 F15A 1.369(19) . ?
B15 F15G 1.381(19) . ?
B15 F15D 1.384(19) . ?
B15 F15B 1.390(19) . ?
B15 F15F 1.392(19) . ?
B15 F15C 1.43(2) . ?
B15 F15H 1.43(2) . ?
B16 F16A 1.392(18) . ?
B16 F16F 1.399(19) . ?
B16 F16H 1.388(19) . ?
B16 F16B 1.394(19) . ?
B16 F16C 1.40(2) . ?
B16 F16D 1.410(19) . ?
B16 F16G 1.406(19) . ?
B17 F17A 1.39(2) . ?
B17 F17B 1.392(19) 4_565 ?
B17 F17B 1.393(19) . ?
B17 F17D 1.399(19) . ?
B17 F17D 1.399(19) 4_565 ?
B17 F17C 1.402(19) 4_565 ?
B17 F17C 1.402(19) . ?
B18 F18D 1.40(2) 4_565 ?
B18 F18D 1.40(2) . ?
B18 F18A 1.40(2) . ?
B18 F18B 1.398(19) . ?
B18 F18B 1.398(19) 4_565 ?
B18 F18C 1.40(2) 4_565 ?
B18 F18C 1.40(2) . ?
B19 F19D 1.392(19) . ?
B19 F19A 1.394(18) . ?
B19 F19H 1.398(19) . ?
B19 F19G 1.397(19) . ?
B19 F19F 1.399(19) . ?
B19 F19C 1.402(19) . ?
B19 F19B 1.403(19) . ?
B20 F20D 1.304(18) . ?
B20 F20G 1.369(19) . ?
B20 F20A 1.395(18) . ?
B20 F20C 1.397(19) . ?
B20 F20B 1.399(19) . ?
B20 F20F 1.422(19) . ?
B20 F20H 1.428(19) . ?
B21 F21A 1.39(2) . ?
B21 F21C 1.397(19) . ?
B21 F21C 1.397(19) 4_565 ?
B21 F21D 1.40(2) 4_565 ?
B21 F21D 1.40(2) . ?
B21 F21B 1.41(2) 4_565 ?
B21 F21B 1.41(2) . ?
B22 F22B 1.378(19) 4_565 ?
B22 F22B 1.378(19) . ?
B22 F22D 1.384(19) 4_565 ?
B22 F22D 1.384(19) . ?
B22 F22A 1.393(19) . ?
B22 F22C 1.410(19) . ?
B22 F22C 1.410(19) 4_565 ?
B23 F23A 1.388(18) . ?
B23 F23F 1.391(19) . ?
B23 F23D 1.392(19) . ?
B23 F23H 1.399(19) . ?
B23 F23C 1.398(19) . ?
B23 F23B 1.406(19) . ?
B23 F23G 1.405(19) . ?
B24 F24G 1.310(18) . ?
B24 F24D 1.376(19) . ?
B24 F24F 1.398(19) . ?
B24 F24H 1.403(19) . ?
B24 F24A 1.404(18) . ?
B24 F24C 1.424(19) . ?
B24 F24B 1.432(19) . ?
B25 F25C 1.387(19) 4_575 ?
B25 F25C 1.387(19) . ?
B25 F25A 1.390(19) . ?
B25 F25B 1.400(19) . ?
B25 F25B 1.400(19) 4_575 ?
B25 F25D 1.400(19) 4_575 ?
B25 F25D 1.401(19) . ?
B26 F26C 1.39(2) 4_575 ?
B26 F26C 1.39(2) . ?
B26 F26B 1.398(19) . ?
B26 F26B 1.399(19) 4_575 ?
B26 F26A 1.40(2) . ?
B26 F26D 1.40(2) 4_575 ?
B26 F26D 1.40(2) . ?
B27 F27B 1.391(19) . ?
B27 F27G 1.393(19) . ?
B27 F27H 1.393(19) . ?
B27 F27A 1.397(18) . ?
B27 F27D 1.402(19) . ?
B27 F27F 1.403(19) . ?
B27 F27C 1.404(19) . ?
B28 F28H 1.316(18) . ?
B28 F28C 1.374(19) . ?
B28 F28G 1.398(19) . ?
B28 F28F 1.399(19) . ?
B28 F28A 1.401(18) . ?
B28 F28B 1.421(19) . ?
B28 F28D 1.424(19) . ?
B29 F29A 1.39(2) . ?
B29 F29D 1.398(19) . ?
B29 F29D 1.398(19) 4_575 ?
B29 F29B 1.41(2) 4_575 ?
B29 F29B 1.41(2) . ?
B29 F29C 1.406(19) 4_575 ?
B29 F29C 1.406(19) . ?
B30 F30B 1.384(19) . ?
B30 F30B 1.384(19) 4_575 ?
B30 F30C 1.387(19) 4_575 ?
B30 F30C 1.387(19) . ?
B30 F30A 1.399(19) . ?
B30 F30D 1.411(19) . ?
B30 F30D 1.412(19) 4_575 ?
B31 F31B 1.393(19) . ?
B31 F31A 1.392(18) . ?
B31 F31H 1.394(19) . ?
B31 F31C 1.398(19) . ?
B31 F31F 1.398(19) . ?
B31 F31G 1.404(19) . ?
B31 F31D 1.406(19) . ?
B32 F32D 1.308(18) . ?
B32 F32G 1.372(19) . ?
B32 F32A 1.395(19) . ?
B32 F32C 1.396(19) . ?
B32 F32B 1.401(19) . ?
B32 F32F 1.422(19) . ?
B32 F32H 1.431(19) . ?
B33 F33A 1.39(2) . ?
B33 F33C 1.39(2) 4_575 ?
B33 F33C 1.39(2) . ?
B33 F33B 1.400(19) 4_575 ?
B33 F33B 1.400(19) . ?
B33 F33D 1.399(19) . ?
B33 F33D 1.399(19) 4_575 ?
B34 F34B 1.395(19) . ?
B34 F34B 1.395(19) 4_575 ?
B34 F34C 1.395(19) . ?
B34 F34C 1.395(19) 4_575 ?
B34 F34A 1.40(2) . ?
B34 F34D 1.41(2) 4_575 ?
B34 F34D 1.41(2) . ?
B35 F35A 1.371(18) . ?
B35 F35G 1.381(19) . ?
B35 F35C 1.386(19) . ?
B35 F35B 1.390(19) . ?
B35 F35H 1.395(19) . ?
B35 F35D 1.42(2) . ?
B35 F35F 1.43(2) . ?
B36 F36B 1.383(19) . ?
B36 F36A 1.387(18) . ?
B36 F36F 1.385(19) . ?
B36 F36G 1.394(19) . ?
B36 F36D 1.394(19) . ?
B36 F36C 1.410(19) . ?
B36 F36H 1.413(19) . ?
B51 F51B 1.383(19) . ?
B51 F51C 1.39(2) . ?
B51 F51A 1.39(2) . ?
B51 F51D 1.403(19) . ?
B52 F52A 1.37(2) . ?
B52 F52C 1.390(19) . ?
B52 F52B 1.391(19) . ?
B52 F52D 1.39(2) . ?
B53 F53B 1.385(19) . ?
B53 F53C 1.390(19) . ?
B53 F53A 1.39(2) . ?
B53 F53D 1.402(19) . ?
B54 F54B 1.383(19) . ?
B54 F54A 1.39(2) . ?
B54 F54C 1.392(19) . ?
B54 F54D 1.401(19) . ?
B55 F55A 1.38(2) . ?
B55 F55D 1.390(19) . ?
B55 F55C 1.392(19) . ?
B55 F55B 1.395(19) . ?
B56 F56B 1.380(19) . ?
B56 F56C 1.39(2) . ?
B56 F56A 1.39(2) . ?
B56 F56D 1.404(19) . ?
B57 F57B 1.381(19) . ?
B57 F57C 1.391(19) . ?
B57 F57A 1.40(2) . ?
B57 F57D 1.402(19) . ?
B58 F58B 1.388(19) . ?
B58 F58C 1.39(2) . ?
B58 F58A 1.40(2) . ?
B58 F58D 1.407(19) . ?
B59 F59A 1.39(2) . ?
B59 F59B 1.39(2) . ?
B59 F59C 1.39(2) . ?
B59 F59D 1.40(2) . ?
B60 F60B 1.39(2) . ?
B60 F60C 1.40(2) . ?
B60 F60A 1.40(2) . ?
B60 F60D 1.41(2) . ?
B61 F61B 1.39(2) . ?
B61 F61D 1.39(2) . ?
B61 F61A 1.39(2) . ?
B61 F61C 1.40(2) . ?
B62 F62C 1.39(2) . ?
B62 F62B 1.40(2) . ?
B62 F62A 1.40(2) . ?
B62 F62D 1.40(2) . ?
B63 F63B 1.39(2) . ?
B63 F63C 1.39(2) . ?
B63 F63A 1.39(2) . ?
B63 F63D 1.40(2) . ?
B64 F64D 1.39(2) . ?
B64 F64A 1.40(2) . ?
B64 F64B 1.40(2) . ?
B64 F64C 1.40(2) . ?
B65 F65C 1.39(2) . ?
B65 F65A 1.40(2) . ?
B65 F65B 1.40(2) . ?
B65 F65D 1.40(2) . ?

loop_
_geom_angle_atom_site_label_1
_geom_angle_atom_site_label_2
_geom_angle_atom_site_label_3
_geom_angle
_geom_angle_site_symmetry_1
_geom_angle_site_symmetry_3
_geom_angle_publ_flag
C1 N1 C5 120.0 . . ?
C1 N1 Pd4 116.8(12) . . ?
C5 N1 Pd4 123.2(12) . . ?
N1 C1 C2 120.0 . . ?
C1 C2 C3 120.0 . . ?
C2 C3 C4 120.0 . . ?
C2 C3 C6 119(2) . . ?
C4 C3 C6 121(2) . . ?
C3 C4 C5 120.0 . . ?
C4 C5 N1 120.0 . . ?
C6 N2 C6 123(4) 4_565 . ?
N2 C6 C7 116(3) . . ?
N2 C6 C3 117(3) . . ?
C7 C6 C3 124(3) . . ?
C8 C7 C6 126(3) . . ?
C7 C8 C7 110(4) 4_565 . ?
C9 N3 C13 120.0 . . ?
C9 N3 Pd2 117.3(12) . . ?
C13 N3 Pd2 122.7(12) . . ?
C10 C9 N3 120.0 . . ?
C9 C10 C11 120.0 . . ?
C12 C11 C10 120.0 . . ?
C12 C11 C14 122(2) . . ?
C10 C11 C14 118(2) . . ?
C11 C12 C13 120.0 . . ?
C12 C13 N3 120.0 . . ?
C14 N4 C14 121(4) . 4_565 ?
N4 C14 C15 117(3) . . ?
N4 C14 C11 117(3) . . ?
C15 C14 C11 125(3) . . ?
C16 C15 C14 125(4) . . ?
C15 C16 C15 112(5) 4_565 . ?
C17 N5 C21 120.0 . . ?
C17 N5 Pd4 121.0(17) . . ?
C21 N5 Pd4 119.0(17) . . ?
N5 C17 C18 120.0 . . ?
C19 C18 C17 120.0 . . ?
C18 C19 C20 120.0 . . ?
C18 C19 C22 114(3) . . ?
C20 C19 C22 126(3) . . ?
C19 C20 C21 120.0 . . ?
C20 C21 N5 120.0 . . ?
C22 N6 C26 120.0 . . ?
N6 C22 C23 120.0 . . ?
N6 C22 C19 119(3) . . ?
C23 C22 C19 121(3) . . ?
C24 C23 C22 120.0 . . ?
C23 C24 C25 120.0 . . ?
C26 C25 C24 120.0 . . ?
C25 C26 N6 120.0 . . ?
C25 C26 C29 130(3) . . ?
N6 C26 C29 110(3) . . ?
C27 N7 C31 120.0 . . ?
C27 N7 Pd5 116(2) . . ?
C31 N7 Pd5 124(2) . . ?
C28 C27 N7 120.0 . . ?
C29 C28 C27 120.0 . . ?
C28 C29 C30 120.0 . . ?
C28 C29 C26 123(3) . . ?
C30 C29 C26 117(3) . . ?
C31 C30 C29 120.0 . . ?
C30 C31 N7 120.0 . . ?
C32 N8 C36 120.0 . . ?
C32 N8 Pd5 118(2) . . ?
C36 N8 Pd5 121(2) . . ?
C33 C32 N8 120.0 . . ?
C32 C33 C34 120.0 . . ?
C33 C34 C35 120.0 . . ?
C33 C34 C37 123(3) . . ?
C35 C34 C37 117(3) . . ?
C36 C35 C34 120.0 . . ?
C35 C36 N8 120.0 . . ?
C37 N9 C41 120.0 . . ?
N9 C37 C38 120.0 . . ?
N9 C37 C34 114(4) . . ?
C38 C37 C34 126(4) . . ?
C37 C38 C39 120.0 . . ?
C38 C39 C40 120.0 . . ?
C41 C40 C39 120.0 . . ?
C40 C41 N9 120.0 . . ?
C40 C41 C44 129(3) . . ?
N9 C41 C44 111(3) . . ?
C42 N10 C46 120.0 . . ?
C42 N10 Pd6 116(2) . . ?
C46 N10 Pd6 123(2) . . ?
N10 C42 C43 120.0 . . ?
C44 C43 C42 120.0 . . ?
C43 C44 C45 120.0 . . ?
C43 C44 C41 127(3) . . ?
C45 C44 C41 112(3) . . ?
C46 C45 C44 120.0 . . ?
C45 C46 N10 120.0 . . ?
C47 N11 C51 120.0 . . ?
C47 N11 Pd6 122.5(16) . . ?
C51 N11 Pd6 117.5(16) . . ?
N11 C47 C48 120.0 . . ?
C49 C48 C47 120.0 . . ?
C50 C49 C48 120.0 . . ?
C50 C49 C52 123(2) . . ?
C48 C49 C52 117(2) . . ?
C49 C50 C51 120.0 . . ?
C50 C51 N11 120.0 . . ?
C52 N12 C56 120.0 . . ?
C53 C52 N12 120.0 . . ?
C53 C52 C49 121(3) . . ?
N12 C52 C49 119(3) . . ?
C54 C53 C52 120.0 . . ?
C55 C54 C53 120.0 . . ?
C54 C55 C56 120.0 . . ?
C55 C56 N12 120.0 . . ?
C55 C56 C59 126(2) . . ?
N12 C56 C59 114(2) . . ?
C57 N13 C61 120.0 . . ?
C57 N13 Pd4 120.1(13) . . ?
C61 N13 Pd4 119.7(13) . . ?
N13 C57 C58 120.0 . . ?
C59 C58 C57 120.0 . . ?
C58 C59 C60 120.0 . . ?
C58 C59 C56 118(2) . . ?
C60 C59 C56 122(2) . . ?
C61 C60 C59 120.0 . . ?
C60 C61 N13 120.0 . . ?
C62 N14 C66 120.0 . . ?
C62 N14 Pd4 118.1(13) . . ?
C66 N14 Pd4 121.0(13) . . ?
N14 C62 C63 120.0 . . ?
C64 C63 C62 120.0 . . ?
C63 C64 C65 120.0 . . ?
C63 C64 C67 118(2) . . ?
C65 C64 C67 122(2) . . ?
C64 C65 C66 120.0 . . ?
C65 C66 N14 120.0 . . ?
C67 N15 C71 120.0 . . ?
N15 C67 C68 120.0 . . ?
N15 C67 C64 114(2) . . ?
C68 C67 C64 126(2) . . ?
C69 C68 C67 120.0 . . ?
C70 C69 C68 120.0 . . ?
C69 C70 C71 120.0 . . ?
C70 C71 N15 120.0 . . ?
C70 C71 C74 122(2) . . ?
N15 C71 C74 118(2) . . ?
C72 N16 C76 120.0 . . ?
C72 N16 Pd3 119.7(15) . . ?
C76 N16 Pd3 120.1(14) . . ?
C73 C72 N16 120.0 . . ?
C72 C73 C74 120.0 . . ?
C75 C74 C73 120.0 . . ?
C75 C74 C71 123(2) . . ?
C73 C74 C71 117(2) . . ?
C74 C75 C76 120.0 . . ?
C75 C76 N16 120.0 . . ?
C77 N17 C81 120.0 . . ?
C77 N17 Pd3 119.8(15) . . ?
C81 N17 Pd3 119.9(14) . . ?
N17 C77 C78 120.0 . . ?
C79 C78 C77 120.0 . . ?
C80 C79 C78 120.0 . . ?
C80 C79 C82 123(2) . . ?
C78 C79 C82 117(2) . . ?
C79 C80 C81 120.0 . . ?
C80 C81 N17 120.0 . . ?
C82 N18 C86 120.0 . . ?
C83 C82 N18 120.0 . . ?
C83 C82 C79 122(2) . . ?
N18 C82 C79 118(2) . . ?
C84 C83 C82 120.0 . . ?
C85 C84 C83 120.0 . . ?
C84 C85 C86 120.0 . . ?
C85 C86 N18 120.0 . . ?
C85 C86 C89 126(2) . . ?
N18 C86 C89 114(2) . . ?
C87 N19 C91 120.0 . . ?
C87 N19 Pd2 118.1(14) . . ?
C91 N19 Pd2 120.9(14) . . ?
N19 C87 C88 120.0 . . ?
C89 C88 C87 120.0 . . ?
C88 C89 C90 120.0 . . ?
C88 C89 C86 119(2) . . ?
C90 C89 C86 121(2) . . ?
C91 C90 C89 120.0 . . ?
C90 C91 N19 120.0 . . ?
C92 N20 C96 120.0 . . ?
C92 N20 Pd2 120.0(14) . . ?
C96 N20 Pd2 119.7(13) . . ?
C93 C92 N20 120.0 . . ?
C92 C93 C94 120.0 . . ?
C95 C94 C93 120.0 . . ?
C95 C94 C97 124(2) . . ?
C93 C94 C97 116(2) . . ?
C94 C95 C96 120.0 . . ?
C95 C96 N20 120.0 . . ?
C97 N21 C101 120.0 . . ?
C98 C97 N21 120.0 . . ?
C98 C97 C94 122(2) . . ?
N21 C97 C94 118(2) . . ?
C97 C98 C99 120.0 . . ?
C100 C99 C98 120.0 . . ?
C99 C100 C101 120.0 . . ?
C100 C101 N21 120.0 . . ?
C100 C101 C104 125(3) . . ?
N21 C101 C104 115(3) . . ?
C102 N22 C106 120.0 . . ?
C102 N22 Pd6 122.1(17) . . ?
C106 N22 Pd6 117.8(17) . . ?
C103 C102 N22 120.0 . . ?
C102 C103 C104 120.0 . . ?
C105 C104 C103 120.0 . . ?
C105 C104 C101 120(2) . . ?
C103 C104 C101 120(2) . . ?
C104 C105 C106 120.0 . . ?
C105 C106 N22 120.0 . . ?
C107 N23 C111 120.0 . . ?
C107 N23 Pd6 117.6(19) . . ?
C111 N23 Pd6 122.4(19) . . ?
N23 C107 C108 120.0 . . ?
C109 C108 C107 120.0 . . ?
C110 C109 C108 120.0 . . ?
C110 C109 C112 114(3) . . ?
C108 C109 C112 126(3) . . ?
C109 C110 C111 120.0 . . ?
C110 C111 N23 120.0 . . ?
C112 N24 C116 120.0 . . ?
N24 C112 C113 120.0 . . ?
N24 C112 C109 111(3) . . ?
C113 C112 C109 129(3) . . ?
C114 C113 C112 120.0 . . ?
C113 C114 C115 120.0 . . ?
C116 C115 C114 120.0 . . ?
C115 C116 N24 120.0 . . ?
C115 C116 C119 124(4) . . ?
N24 C116 C119 116(4) . . ?
C117 N25 C121 120.0 . . ?
C117 N25 Pd1 116(2) . . ?
C121 N25 Pd1 122.2(19) . . ?
N25 C117 C118 120.0 . . ?
C119 C118 C117 120.0 . . ?
C118 C119 C120 120.0 . . ?
C118 C119 C116 122(3) . . ?
C120 C119 C116 117(3) . . ?
C121 C120 C119 120.0 . . ?
C120 C121 N25 120.0 . . ?
C122 N26 C126 120.0 . . ?
C122 N26 Pd1 117(2) . . ?
C126 N26 Pd1 123(2) . . ?
C123 C122 N26 120.0 . . ?
C122 C123 C124 120.0 . . ?
C125 C124 C123 120.0 . . ?
C125 C124 C127 115(3) . . ?
C123 C124 C127 125(3) . . ?
C126 C125 C124 120.0 . . ?
C125 C126 N26 120.0 . . ?
C127 N27 C131 120.0 . . ?
C128 C127 N27 120.0 . . ?
C128 C127 C124 132(3) . . ?
N27 C127 C124 108(3) . . ?
C127 C128 C129 120.0 . . ?
C130 C129 C128 120.0 . . ?
C131 C130 C129 120.0 . . ?
C130 C131 N27 120.0 . . ?
C130 C131 C134 123(3) . . ?
N27 C131 C134 117(3) . . ?
C132 N28 C136 120.0 . . ?
C132 N28 Pd2 120.1(17) . . ?
C136 N28 Pd2 119.8(17) . . ?
N28 C132 C133 120.0 . . ?
C134 C133 C132 120.0 . . ?
C133 C134 C135 120.0 . . ?
C133 C134 C131 117(3) . . ?
C135 C134 C131 123(3) . . ?
C136 C135 C134 120.0 . . ?
C135 C136 N28 120.0 . . ?
C137 N29 C141 120.0 . . ?
C137 N29 Pd10 116.3(12) . . ?
C141 N29 Pd10 123.7(12) . . ?
N29 C137 C138 120.0 . . ?
C137 C138 C139 120.0 . . ?
C140 C139 C138 120.0 . . ?
C140 C139 C142 120.8(18) . . ?
C138 C139 C142 119.2(18) . . ?
C139 C140 C141 120.0 . . ?
C140 C141 N29 120.0 . . ?
C142 N30 C142 118(4) 4_565 . ?
N30 C142 C143 117(3) . . ?
N30 C142 C139 114(2) . . ?
C143 C142 C139 129(2) . . ?
C144 C143 C142 131(3) . . ?
C143 C144 C143 105(4) 4_565 . ?
C145 N31 C149 120.0 . . ?
C145 N31 Pd12 116.3(12) . . ?
C149 N31 Pd12 123.7(12) . . ?
N31 C145 C146 120.0 . . ?
C147 C146 C145 120.0 . . ?
C148 C147 C146 120.0 . . ?
C148 C147 C150 124(2) . . ?
C146 C147 C150 116(2) . . ?
C147 C148 C149 120.0 . . ?
C148 C149 N31 120.0 . . ?
C150 N32 C150 122(5) . 4_565 ?
N32 C150 C151 117(3) . . ?
N32 C150 C147 119(3) . . ?
C151 C150 C147 124(3) . . ?
C152 C151 C150 130(3) . . ?
C151 C152 C151 104(4) . 4_565 ?
C153 N33 C157 120.0 . . ?
C153 N33 Pd8 117(2) . . ?
C157 N33 Pd8 123(2) . . ?
C154 C153 N33 120.0 . . ?
C155 C154 C153 120.0 . . ?
C154 C155 C156 120.0 . . ?
C154 C155 C158 128(3) . . ?
C156 C155 C158 112(3) . . ?
C155 C156 C157 120.0 . . ?
C156 C157 N33 120.0 . . ?
C158 N34 C162 120.0 . . ?
N34 C158 C159 120.0 . . ?
N34 C158 C155 110(3) . . ?
C159 C158 C155 130(3) . . ?
C160 C159 C158 120.0 . . ?
C161 C160 C159 120.0 . . ?
C160 C161 C162 120.0 . . ?
C161 C162 N34 120.0 . . ?
C161 C162 C165 124(4) . . ?
N34 C162 C165 116(4) . . ?
C163 N35 C167 120.0 . . ?
C163 N35 Pd9 117(2) . . ?
C167 N35 Pd9 122(2) . . ?
C164 C163 N35 120.0 . . ?
C163 C164 C165 120.0 . . ?
C166 C165 C164 120.0 . . ?
C166 C165 C162 119(3) . . ?
C164 C165 C162 121(3) . . ?
C167 C166 C165 120.0 . . ?
C166 C167 N35 120.0 . . ?
C168 N36 C172 120.0 . . ?
C168 N36 Pd9 116(2) . . ?
C172 N36 Pd9 124(2) . . ?
N36 C168 C169 120.0 . . ?
C170 C169 C168 120.0 . . ?
C171 C170 C169 120.0 . . ?
C171 C170 C173 116(3) . . ?
C169 C170 C173 124(3) . . ?
C170 C171 C172 120.0 . . ?
C171 C172 N36 120.0 . . ?
C173 N37 C177 120.0 . . ?
N37 C173 C174 120.0 . . ?
N37 C173 C170 109(3) . . ?
C174 C173 C170 131(3) . . ?
C173 C174 C175 120.0 . . ?
C176 C175 C174 120.0 . . ?
C175 C176 C177 120.0 . . ?
C176 C177 N37 120.0 . . ?
C176 C177 C180 122(3) . . ?
N37 C177 C180 118(3) . . ?
C178 N38 C182 120.0 . . ?
C178 N38 Pd10 121.3(16) . . ?
C182 N38 Pd10 118.7(16) . . ?
C179 C178 N38 120.0 . . ?
C178 C179 C180 120.0 . . ?
C181 C180 C179 120.0 . . ?
C181 C180 C177 125(2) . . ?
C179 C180 C177 115(2) . . ?
C180 C181 C182 120.0 . . ?
C181 C182 N38 120.0 . . ?
C183 N39 C187 120.0 . . ?
C183 N39 Pd10 120.3(13) . . ?
C187 N39 Pd10 119.6(13) . . ?
N39 C183 C184 120.0 . . ?
C185 C184 C183 120.0 . . ?
C186 C185 C184 120.0 . . ?
C186 C185 C188 122(2) . . ?
C184 C185 C188 118(2) . . ?
C185 C186 C187 120.0 . . ?
C186 C187 N39 120.0 . . ?
C188 N40 C192 120.0 . . ?
C189 C188 N40 120.0 . . ?
C189 C188 C185 124(2) . . ?
N40 C188 C185 115(2) . . ?
C188 C189 C190 120.0 . . ?
C189 C190 C191 120.0 . . ?
C192 C191 C190 120.0 . . ?
C191 C192 N40 120.0 . . ?
C191 C192 C195 124(2) . . ?
N40 C192 C195 116(2) . . ?
C193 N41 C197 120.0 . . ?
C193 N41 Pd8 123.2(16) . . ?
C197 N41 Pd8 116.8(16) . . ?
C194 C193 N41 120.0 . . ?
C193 C194 C195 120.0 . . ?
C196 C195 C194 120.0 . . ?
C196 C195 C192 121(2) . . ?
C194 C195 C192 119(2) . . ?
C197 C196 C195 120.0 . . ?
C196 C197 N41 120.0 . . ?
C198 N42 C202 120.0 . . ?
C198 N42 Pd10 117.9(14) . . ?
C202 N42 Pd10 121.2(14) . . ?
N42 C198 C199 120.0 . . ?
C200 C199 C198 120.0 . . ?
C199 C200 C201 120.0 . . ?
C199 C200 C203 119(2) . . ?
C201 C200 C203 121(2) . . ?
C202 C201 C200 120.0 . . ?
C201 C202 N42 120.0 . . ?
C203 N43 C207 120.0 . . ?
N43 C203 C204 120.0 . . ?
N43 C203 C200 114(2) . . ?
C204 C203 C200 126(2) . . ?
C203 C204 C205 120.0 . . ?
C206 C205 C204 120.0 . . ?
C205 C206 C207 120.0 . . ?
C206 C207 N43 120.0 . . ?
C206 C207 C210 122(2) . . ?
N43 C207 C210 118(2) . . ?
C208 N44 C212 120.0 . . ?
C208 N44 Pd11 118.5(15) . . ?
C212 N44 Pd11 121.0(15) . . ?
N44 C208 C209 120.0 . . ?
C210 C209 C208 120.0 . . ?
C209 C210 C211 120.0 . . ?
C209 C210 C207 118(2) . . ?
C211 C210 C207 122(2) . . ?
C212 C211 C210 120.0 . . ?
C211 C212 N44 120.0 . . ?
C213 N45 C217 120.0 . . ?
C213 N45 Pd11 119.1(14) . . ?
C217 N45 Pd11 120.5(14) . . ?
C214 C213 N45 120.0 . . ?
C215 C214 C213 120.0 . . ?
C216 C215 C214 120.0 . . ?
C216 C215 C218 122(2) . . ?
C214 C215 C218 118(2) . . ?
C215 C216 C217 120.0 . . ?
C216 C217 N45 120.0 . . ?
C218 N46 C222 120.0 . . ?
N46 C218 C219 120.0 . . ?
N46 C218 C215 117(2) . . ?
C219 C218 C215 123(2) . . ?
C218 C219 C220 120.0 . . ?
C221 C220 C219 120.0 . . ?
C220 C221 C222 120.0 . . ?
C221 C222 N46 120.0 . . ?
C221 C222 C225 125(2) . . ?
N46 C222 C225 115(2) . . ?
C223 N47 C227 120.0 . . ?
C223 N47 Pd12 119.5(14) . . ?
C227 N47 Pd12 119.7(14) . . ?
C224 C223 N47 120.0 . . ?
C223 C224 C225 120.0 . . ?
C226 C225 C224 120.0 . . ?
C226 C225 C222 122(2) . . ?
C224 C225 C222 118(2) . . ?
C225 C226 C227 120.0 . . ?
C226 C227 N47 120.0 . . ?
C228 N48 C232 120.0 . . ?
C228 N48 Pd12 119.7(14) . . ?
C232 N48 Pd12 120.0(14) . . ?
N48 C228 C229 120.0 . . ?
C228 C229 C230 120.0 . . ?
C231 C230 C229 120.0 . . ?
C231 C230 C233 122(2) . . ?
C229 C230 C233 118(2) . . ?
C230 C231 C232 120.0 . . ?
C231 C232 N48 120.0 . . ?
C233 N49 C237 120.0 . . ?
C234 C233 N49 120.0 . . ?
C234 C233 C230 124(2) . . ?
N49 C233 C230 116(2) . . ?
C235 C234 C233 120.0 . . ?
C234 C235 C236 120.0 . . ?
C235 C236 C237 120.0 . . ?
C236 C237 N49 120.0 . . ?
C236 C237 C240 126(3) . . ?
N49 C237 C240 114(3) . . ?
C238 N50 C242 120.0 . . ?
C238 N50 Pd8 121.7(17) . . ?
C242 N50 Pd8 118.3(17) . . ?
C239 C238 N50 120.0 . . ?
C238 C239 C240 120.0 . . ?
C239 C240 C241 120.0 . . ?
C239 C240 C237 121(2) . . ?
C241 C240 C237 119(3) . . ?
C242 C241 C240 120.0 . . ?
C241 C242 N50 120.0 . . ?
C243 N51 C247 120.0 . . ?
C243 N51 Pd8 120(2) . . ?
C247 N51 Pd8 120(2) . . ?
N51 C243 C244 120.0 . . ?
C243 C244 C245 120.0 . . ?
C244 C245 C246 120.0 . . ?
C244 C245 C248 125(3) . . ?
C246 C245 C248 115(3) . . ?
C247 C246 C245 120.0 . . ?
C246 C247 N51 120.0 . . ?
C248 N52 C252 120.0 . . ?
N52 C248 C249 120.0 . . ?
N52 C248 C245 110(3) . . ?
C249 C248 C245 130(3) . . ?
C248 C249 C250 120.0 . . ?
C251 C250 C249 120.0 . . ?
C252 C251 C250 120.0 . . ?
C251 C252 N52 120.0 . . ?
C251 C252 C255 122(3) . . ?
N52 C252 C255 117(3) . . ?
C253 N53 C257 120.0 . . ?
C253 N53 Pd7 116(2) . . ?
C257 N53 Pd7 123(2) . . ?
N53 C253 C254 120.0 . . ?
C255 C254 C253 120.0 . . ?
C254 C255 C256 120.0 . . ?
C254 C255 C252 120(3) . . ?
C256 C255 C252 119(3) . . ?
C257 C256 C255 120.0 . . ?
C256 C257 N53 120.0 . . ?
C258 N54 C262 120.0 . . ?
C258 N54 Pd7 119.4(19) . . ?
C262 N54 Pd7 120.5(19) . . ?
N54 C258 C259 120.0 . . ?
C260 C259 C258 120.0 . . ?
C261 C260 C259 120.0 . . ?
C261 C260 C263 118(3) . . ?
C259 C260 C263 122(3) . . ?
C260 C261 C262 120.0 . . ?
C261 C262 N54 120.0 . . ?
C263 N55 C267 120.0 . . ?
C264 C263 N55 120.0 . . ?
C264 C263 C260 131(3) . . ?
N55 C263 C260 109(3) . . ?
C263 C264 C265 120.0 . . ?
C266 C265 C264 120.0 . . ?
C265 C266 C267 120.0 . . ?
C266 C267 N55 120.0 . . ?
C266 C267 C270 120(3) . . ?
N55 C267 C270 120(3) . . ?
C268 N56 C272 120.0 . . ?
C268 N56 Pd12 120.7(17) . . ?
C272 N56 Pd12 119.2(17) . . ?
N56 C268 C269 120.0 . . ?
C270 C269 C268 120.0 . . ?
C271 C270 C269 120.0 . . ?
C271 C270 C267 126(3) . . ?
C269 C270 C267 114(3) . . ?
C272 C271 C270 120.0 . . ?
C271 C272 N56 120.0 . . ?
C273 N57 C277 120.0 . . ?
C273 N57 Pd16 116.3(12) . . ?
C277 N57 Pd16 123.7(12) . . ?
C274 C273 N57 120.0 . . ?
C273 C274 C275 120.0 . . ?
C276 C275 C274 120.0 . . ?
C276 C275 C278 119.6(17) . . ?
C274 C275 C278 120.4(17) . . ?
C277 C276 C275 120.0 . . ?
C276 C277 N57 120.0 . . ?
C278 N58 C278 116(3) 4_575 . ?
N58 C278 C279 121(3) . . ?
N58 C278 C275 113(2) . . ?
C279 C278 C275 125(2) . . ?
C280 C279 C278 123(3) . . ?
C279 C280 C279 114(4) . 4_575 ?
C281 N59 C285 120.0 . . ?
C281 N59 Pd14 117.1(12) . . ?
C285 N59 Pd14 122.8(12) . . ?
N59 C281 C282 120.0 . . ?
C283 C282 C281 120.0 . . ?
C282 C283 C284 120.0 . . ?
C282 C283 C286 118.8(18) . . ?
C284 C283 C286 121.2(18) . . ?
C283 C284 C285 120.0 . . ?
C284 C285 N59 120.0 . . ?
C286 N60 C286 122(4) . 4_575 ?
N60 C286 C287 116(3) . . ?
N60 C286 C283 116(2) . . ?
C287 C286 C283 127(2) . . ?
C288 C287 C286 128(3) . . ?
C287 C288 C287 109(4) 4_575 . ?
C289 N61 C293 120.0 . . ?
C289 N61 Pd16 120.7(17) . . ?
C293 N61 Pd16 119.2(17) . . ?
N61 C289 C290 120.0 . . ?
C291 C290 C289 120.0 . . ?
C290 C291 C292 120.0 . . ?
C290 C291 C294 115(3) . . ?
C292 C291 C294 125(3) . . ?
C293 C292 C291 120.0 . . ?
C292 C293 N61 120.0 . . ?
C294 N62 C298 120.0 . . ?
C295 C294 N62 120.0 . . ?
C295 C294 C291 123(3) . . ?
N62 C294 C291 117(3) . . ?
C294 C295 C296 120.0 . . ?
C297 C296 C295 120.0 . . ?
C298 C297 C296 120.0 . . ?
C297 C298 N62 120.0 . . ?
C297 C298 C301 127(3) . . ?
N62 C298 C301 113(3) . . ?
C299 N63 C303 120.0 . . ?
C299 N63 Pd17 119(2) . . ?
C303 N63 Pd17 121(2) . . ?
N63 C299 C300 120.0 . . ?
C299 C300 C301 120.0 . . ?
C302 C301 C300 120.0 . . ?
C302 C301 C298 120(3) . . ?
C300 C301 C298 119(3) . . ?
C301 C302 C303 120.0 . . ?
C302 C303 N63 120.0 . . ?
C304 N64 C308 120.0 . . ?
C304 N64 Pd17 116(2) . . ?
C308 N64 Pd17 123(2) . . ?
C305 C304 N64 120.0 . . ?
C304 C305 C306 120.0 . . ?
C307 C306 C305 120.0 . . ?
C307 C306 C309 115(3) . . ?
C305 C306 C309 125(3) . . ?
C308 C307 C306 120.0 . . ?
C307 C308 N64 120.0 . . ?
C309 N65 C313 120.0 . . ?
C310 C309 N65 120.0 . . ?
C310 C309 C306 127(3) . . ?
N65 C309 C306 113(3) . . ?
C311 C310 C309 120.0 . . ?
C312 C311 C310 120.0 . . ?
C311 C312 C313 120.0 . . ?
C312 C313 N65 120.0 . . ?
C312 C313 C316 128(3) . . ?
N65 C313 C316 112(3) . . ?
C314 N66 C318 120.0 . . ?
C314 N66 Pd18 119(2) . . ?
C318 N66 Pd18 120(2) . . ?
N66 C314 C315 120.0 . . ?
C316 C315 C314 120.0 . . ?
C317 C316 C315 120.0 . . ?
C317 C316 C313 114(3) . . ?
C315 C316 C313 126(3) . . ?
C318 C317 C316 120.0 . . ?
C317 C318 N66 120.0 . . ?
C319 N67 C323 120.0 . . ?
C319 N67 Pd18 122.3(16) . . ?
C323 N67 Pd18 117.6(16) . . ?
C320 C319 N67 120.0 . . ?
C319 C320 C321 120.0 . . ?
C322 C321 C320 120.0 . . ?
C322 C321 C324 123(2) . . ?
C320 C321 C324 117(2) . . ?
C321 C322 C323 120.0 . . ?
C322 C323 N67 120.0 . . ?
C324 N68 C328 120.0 . . ?
N68 C324 C325 120.0 . . ?
N68 C324 C321 120(3) . . ?
C325 C324 C321 120(3) . . ?
C326 C325 C324 120.0 . . ?
C325 C326 C327 120.0 . . ?
C328 C327 C326 120.0 . . ?
C327 C328 N68 120.0 . . ?
C327 C328 C331 126(2) . . ?
N68 C328 C331 113(2) . . ?
C329 N69 C333 120.0 . . ?
C329 N69 Pd16 120.2(14) . . ?
C333 N69 Pd16 119.5(13) . . ?
C330 C329 N69 120.0 . . ?
C329 C330 C331 120.0 . . ?
C332 C331 C330 120.0 . . ?
C332 C331 C328 122(2) . . ?
C330 C331 C328 118(2) . . ?
C331 C332 C333 120.0 . . ?
C332 C333 N69 120.0 . . ?
C334 N70 C338 120.0 . . ?
C334 N70 Pd16 120.7(14) . . ?
C338 N70 Pd16 118.3(14) . . ?
N70 C334 C335 120.0 . . ?
C336 C335 C334 120.0 . . ?
C335 C336 C337 120.0 . . ?
C335 C336 C339 117(2) . . ?
C337 C336 C339 123(2) . . ?
C336 C337 C338 120.0 . . ?
C337 C338 N70 120.0 . . ?
C339 N71 C343 120.0 . . ?
C340 C339 N71 120.0 . . ?
C340 C339 C336 127(2) . . ?
N71 C339 C336 113(2) . . ?
C339 C340 C341 120.0 . . ?
C342 C341 C340 120.0 . . ?
C343 C342 C341 120.0 . . ?
C342 C343 N71 120.0 . . ?
C342 C343 C346 121(2) . . ?
N71 C343 C346 119(2) . . ?
C344 N72 C348 120.0 . . ?
C344 N72 Pd15 118.4(14) . . ?
C348 N72 Pd15 121.1(14) . . ?
C345 C344 N72 120.0 . . ?
C346 C345 C344 120.0 . . ?
C345 C346 C347 120.0 . . ?
C345 C346 C343 117(2) . . ?
C347 C346 C343 123(2) . . ?
C348 C347 C346 120.0 . . ?
C347 C348 N72 120.0 . . ?
C349 N73 C353 120.0 . . ?
C349 N73 Pd15 118.6(15) . . ?
C353 N73 Pd15 121.1(15) . . ?
C350 C349 N73 120.0 . . ?
C349 C350 C351 120.0 . . ?
C352 C351 C350 120.0 . . ?
C352 C351 C354 124(2) . . ?
C350 C351 C354 116(2) . . ?
C351 C352 C353 120.0 . . ?
C352 C353 N73 120.0 . . ?
C354 N74 C358 120.0 . . ?
N74 C354 C355 120.0 . . ?
N74 C354 C351 120(2) . . ?
C355 C354 C351 120(2) . . ?
C356 C355 C354 120.0 . . ?
C355 C356 C357 120.0 . . ?
C358 C357 C356 120.0 . . ?
C357 C358 N74 120.0 . . ?
C357 C358 C361 127(2) . . ?
N74 C358 C361 113(2) . . ?
C359 N75 C363 120.0 . . ?
C359 N75 Pd14 118.6(15) . . ?
C363 N75 Pd14 120.5(15) . . ?
C360 C359 N75 120.0 . . ?
C359 C360 C361 120.0 . . ?
C360 C361 C362 120.0 . . ?
C360 C361 C358 119(2) . . ?
C362 C361 C358 121(2) . . ?
C363 C362 C361 120.0 . . ?
C362 C363 N75 120.0 . . ?
C364 N76 C368 120.0 . . ?
C364 N76 Pd14 119.8(14) . . ?
C368 N76 Pd14 120.1(14) . . ?
N76 C364 C365 120.0 . . ?
C366 C365 C364 120.0 . . ?
C367 C366 C365 120.0 . . ?
C367 C366 C369 121(2) . . ?
C365 C366 C369 119(2) . . ?
C368 C367 C366 120.0 . . ?
C367 C368 N76 120.0 . . ?
C369 N77 C373 120.0 . . ?
C370 C369 N77 120.0 . . ?
C370 C369 C366 125(2) . . ?
N77 C369 C366 115(2) . . ?
C369 C370 C371 120.0 . . ?
C372 C371 C370 120.0 . . ?
C371 C372 C373 120.0 . . ?
C372 C373 N77 120.0 . . ?
C372 C373 C376 123(3) . . ?
N77 C373 C376 117(3) . . ?
C374 N78 C378 120.0 . . ?
C374 N78 Pd18 123.4(17) . . ?
C378 N78 Pd18 116.5(17) . . ?
C375 C374 N78 120.0 . . ?
C376 C375 C374 120.0 . . ?
C377 C376 C375 120.0 . . ?
C377 C376 C373 122(2) . . ?
C375 C376 C373 118(2) . . ?
C376 C377 C378 120.0 . . ?
C377 C378 N78 120.0 . . ?
C379 N79 C383 120.0 . . ?
C379 N79 Pd18 118(2) . . ?
C383 N79 Pd18 122(2) . . ?
C380 C379 N79 120.0 . . ?
C379 C380 C381 120.0 . . ?
C380 C381 C382 120.0 . . ?
C380 C381 C384 126(3) . . ?
C382 C381 C384 114(3) . . ?
C383 C382 C381 120.0 . . ?
C382 C383 N79 120.0 . . ?
C384 N80 C388 120.0 . . ?
C385 C384 N80 120.0 . . ?
C385 C384 C381 127(3) . . ?
N80 C384 C381 113(3) . . ?
C386 C385 C384 120.0 . . ?
C387 C386 C385 120.0 . . ?
C386 C387 C388 120.0 . . ?
C387 C388 N80 120.0 . . ?
C387 C388 C391 127(3) . . ?
N80 C388 C391 113(3) . . ?
C389 N81 C393 120.0 . . ?
C389 N81 Pd13 116(2) . . ?
C393 N81 Pd13 123(2) . . ?
N81 C389 C390 120.0 . . ?
C391 C390 C389 120.0 . . ?
C390 C391 C392 120.0 . . ?
C390 C391 C388 123(3) . . ?
C392 C391 C388 116(3) . . ?
C391 C392 C393 120.0 . . ?
C392 C393 N81 120.0 . . ?
C394 N82 C398 120.0 . . ?
C394 N82 Pd13 117(2) . . ?
C398 N82 Pd13 123.2(19) . . ?
C395 C394 N82 120.0 . . ?
C394 C395 C396 120.0 . . ?
C397 C396 C395 120.0 . . ?
C397 C396 C399 115(3) . . ?
C395 C396 C399 124(3) . . ?
C396 C397 C398 120.0 . . ?
C397 C398 N82 120.0 . . ?
C399 N83 C403 120.0 . . ?
C400 C399 N83 120.0 . . ?
C400 C399 C396 131(3) . . ?
N83 C399 C396 108(3) . . ?
C399 C400 C401 120.0 . . ?
C402 C401 C400 120.0 . . ?
C401 C402 C403 120.0 . . ?
C402 C403 N83 120.0 . . ?
C402 C403 C406 121(3) . . ?
N83 C403 C406 119(3) . . ?
C404 N84 C408 120.0 . . ?
C404 N84 Pd14 123.2(16) . . ?
C408 N84 Pd14 116.8(16) . . ?
N84 C404 C405 120.0 . . ?
C406 C405 C404 120.0 . . ?
C405 C406 C407 120.0 . . ?
C405 C406 C403 114(2) . . ?
C407 C406 C403 126(2) . . ?
C406 C407 C408 120.0 . . ?
C407 C408 N84 120.0 . . ?
N25 Pd1 N25 87.9(13) 4_565 . ?
N25 Pd1 N26 91.5(8) 4_565 4_565 ?
N25 Pd1 N26 178.9(12) . 4_565 ?
N25 Pd1 N26 178.9(12) 4_565 . ?
N25 Pd1 N26 91.5(8) . . ?
N26 Pd1 N26 89.0(11) 4_565 . ?
N28 Pd2 N20 87.9(7) . . ?
N28 Pd2 N3 91.4(8) . . ?
N20 Pd2 N3 178.0(8) . . ?
N28 Pd2 N19 176.9(10) . . ?
N20 Pd2 N19 91.2(7) . . ?
N3 Pd2 N19 89.3(7) . . ?
N16 Pd3 N16 91.3(9) . 4_565 ?
N16 Pd3 N17 88.4(6) . . ?
N16 Pd3 N17 178.1(10) 4_565 . ?
N16 Pd3 N17 178.1(10) . 4_565 ?
N16 Pd3 N17 88.4(6) 4_565 4_565 ?
N17 Pd3 N17 91.8(8) . 4_565 ?
N1 Pd4 N5 90.0(7) . . ?
N1 Pd4 N14 89.8(7) . . ?
N5 Pd4 N14 176.6(10) . . ?
N1 Pd4 N13 177.2(8) . . ?
N5 Pd4 N13 87.9(7) . . ?
N14 Pd4 N13 92.3(7) . . ?
N8 Pd5 N8 88.2(12) 4_565 . ?
N8 Pd5 N7 178.4(12) 4_565 . ?
N8 Pd5 N7 90.9(8) . . ?
N8 Pd5 N7 90.9(8) 4_565 4_565 ?
N8 Pd5 N7 178.4(12) . 4_565 ?
N7 Pd5 N7 90.1(11) . 4_565 ?
N10 Pd6 N22 178.2(12) . . ?
N10 Pd6 N23 88.8(10) . . ?
N22 Pd6 N23 90.4(9) . . ?
N10 Pd6 N11 90.3(9) . . ?
N22 Pd6 N11 90.5(9) . . ?
N23 Pd6 N11 178.8(11) . . ?
N53 Pd7 N53 89.4(13) . 4_565 ?
N53 Pd7 N54 178.5(12) . 4_565 ?
N53 Pd7 N54 89.9(8) 4_565 4_565 ?
N53 Pd7 N54 89.9(9) . . ?
N53 Pd7 N54 178.5(12) 4_565 . ?
N54 Pd7 N54 90.9(11) 4_565 . ?
N50 Pd8 N41 89.8(9) . . ?
N50 Pd8 N33 178.4(12) . . ?
N41 Pd8 N33 91.0(9) . . ?
N50 Pd8 N51 91.1(9) . . ?
N41 Pd8 N51 178.7(10) . . ?
N33 Pd8 N51 88.1(10) . . ?
N35 Pd9 N35 88.0(12) . 4_565 ?
N35 Pd9 N36 92.1(8) . . ?
N35 Pd9 N36 179.3(15) 4_565 . ?
N35 Pd9 N36 179.3(15) . 4_565 ?
N35 Pd9 N36 92.1(8) 4_565 4_565 ?
N36 Pd9 N36 87.9(11) . 4_565 ?
N38 Pd10 N29 90.8(7) . . ?
N38 Pd10 N39 86.7(7) . . ?
N29 Pd10 N39 176.9(8) . . ?
N38 Pd10 N42 176.5(10) . . ?
N29 Pd10 N42 89.9(7) . . ?
N39 Pd10 N42 92.5(7) . . ?
N45 Pd11 N45 89.8(9) . 4_565 ?
N45 Pd11 N44 177.6(10) . 4_565 ?
N45 Pd11 N44 90.2(6) 4_565 4_565 ?
N45 Pd11 N44 90.1(6) . . ?
N45 Pd11 N44 177.6(10) 4_565 . ?
N44 Pd11 N44 89.8(9) 4_565 . ?
N56 Pd12 N31 90.6(8) . . ?
N56 Pd12 N48 87.3(8) . . ?
N31 Pd12 N48 177.4(8) . . ?
N56 Pd12 N47 175.9(10) . . ?
N31 Pd12 N47 90.4(7) . . ?
N48 Pd12 N47 91.6(7) . . ?
N81 Pd13 N81 88.5(12) 4_575 . ?
N81 Pd13 N82 179.6(14) 4_575 . ?
N81 Pd13 N82 91.2(8) . . ?
N81 Pd13 N82 91.2(8) 4_575 4_575 ?
N81 Pd13 N82 179.6(14) . 4_575 ?
N82 Pd13 N82 89.1(11) . 4_575 ?
N84 Pd14 N59 91.8(7) . . ?
N84 Pd14 N76 85.9(7) . . ?
N59 Pd14 N76 177.2(8) . . ?
N84 Pd14 N75 174.8(10) . . ?
N59 Pd14 N75 89.4(7) . . ?
N76 Pd14 N75 92.7(7) . . ?
N73 Pd15 N73 91.0(9) . 4_575 ?
N73 Pd15 N72 90.0(6) . . ?
N73 Pd15 N72 176.7(10) 4_575 . ?
N73 Pd15 N72 176.7(10) . 4_575 ?
N73 Pd15 N72 90.0(6) 4_575 4_575 ?
N72 Pd15 N72 88.8(9) . 4_575 ?
N61 Pd16 N57 90.0(7) . . ?
N61 Pd16 N69 87.4(7) . . ?
N57 Pd16 N69 176.8(8) . . ?
N61 Pd16 N70 175.4(10) . . ?
N57 Pd16 N70 90.8(7) . . ?
N69 Pd16 N70 91.6(7) . . ?
N64 Pd17 N64 90.1(12) . 4_575 ?
N64 Pd17 N63 178.3(13) . 4_575 ?
N64 Pd17 N63 90.2(8) 4_575 4_575 ?
N64 Pd17 N63 90.2(8) . . ?
N64 Pd17 N63 178.3(13) 4_575 . ?
N63 Pd17 N63 89.5(11) 4_575 . ?
N78 Pd18 N66 178.8(11) . . ?
N78 Pd18 N67 91.5(9) . . ?
N66 Pd18 N67 89.4(9) . . ?
N78 Pd18 N79 90.8(9) . . ?
N66 Pd18 N79 88.4(10) . . ?
N67 Pd18 N79 177.6(9) . . ?
F1A B1 F1D 109(3) . 4_565 ?
F1A B1 F1D 109(3) . . ?
F1D B1 F1D 60(6) 4_565 . ?
F1A B1 F1C 108(3) . 4_565 ?
F1D B1 F1C 109(3) 4_565 4_565 ?
F1D B1 F1C 143(4) . 4_565 ?
F1A B1 F1C 108(3) . . ?
F1D B1 F1C 143(4) 4_565 . ?
F1D B1 F1C 109(3) . . ?
F1C B1 F1C 56(5) 4_565 . ?
F1A B1 F1B 107(3) . . ?
F1D B1 F1B 55(4) 4_565 . ?
F1D B1 F1B 112(3) . . ?
F1C B1 F1B 57(4) 4_565 . ?
F1C B1 F1B 111(3) . . ?
F1A B1 F1B 107(3) . 4_565 ?
F1D B1 F1B 112(3) 4_565 4_565 ?
F1D B1 F1B 55(4) . 4_565 ?
F1C B1 F1B 111(3) 4_565 4_565 ?
F1C B1 F1B 57(4) . 4_565 ?
F1B B1 F1B 146(5) . 4_565 ?
F2D B2 F2D 53(5) . 4_565 ?
F2D B2 F2B 139(4) . 4_565 ?
F2D B2 F2B 109(3) 4_565 4_565 ?
F2D B2 F2B 109(3) . . ?
F2D B2 F2B 139(4) 4_565 . ?
F2B B2 F2B 57(6) 4_565 . ?
F2D B2 F2A 111(3) . . ?
F2D B2 F2A 111(3) 4_565 . ?
F2B B2 F2A 110(3) 4_565 . ?
F2B B2 F2A 110(3) . . ?
F2D B2 F2C 58(4) . 4_565 ?
F2D B2 F2C 109(3) 4_565 4_565 ?
F2B B2 F2C 110(3) 4_565 4_565 ?
F2B B2 F2C 56(5) . 4_565 ?
F2A B2 F2C 107(3) . 4_565 ?
F2D B2 F2C 109(3) . . ?
F2D B2 F2C 58(4) 4_565 . ?
F2B B2 F2C 56(5) 4_565 . ?
F2B B2 F2C 110(3) . . ?
F2A B2 F2C 107(3) . . ?
F2C B2 F2C 146(5) 4_565 . ?
F3F B3 F3A 110(3) . . ?
F3F B3 F3C 137(4) . . ?
F3A B3 F3C 112(3) . . ?
F3F B3 F3D 47(4) . . ?
F3A B3 F3D 106(3) . . ?
F3C B3 F3D 110(3) . . ?
F3F B3 F3H 108(3) . . ?
F3A B3 F3H 112(3) . . ?
F3C B3 F3H 45(4) . . ?
F3D B3 F3H 67(4) . . ?
F3F B3 F3B 65(4) . . ?
F3A B3 F3B 111(3) . . ?
F3C B3 F3B 108(3) . . ?
F3D B3 F3B 110(3) . . ?
F3H B3 F3B 135(4) . . ?
F3F B3 F3G 109(3) . . ?
F3A B3 F3G 109(3) . . ?
F3C B3 F3G 65(4) . . ?
F3D B3 F3G 143(4) . . ?
F3H B3 F3G 108(3) . . ?
F3B B3 F3G 47(4) . . ?
F4B B4 F4H 145(3) . . ?
F4B B4 F4F 33.8(12) . . ?
F4H B4 F4F 116(3) . . ?
F4B B4 F4A 89.0(16) . . ?
F4H B4 F4A 114(3) . . ?
F4F B4 F4A 90.6(16) . . ?
F4B B4 F4C 117(3) . . ?
F4H B4 F4C 80(4) . . ?
F4F B4 F4C 145(3) . . ?
F4A B4 F4C 111(3) . . ?
F4B B4 F4D 99(2) . . ?
F4H B4 F4D 47(4) . . ?
F4F B4 F4D 70(2) . . ?
F4A B4 F4D 122(3) . . ?
F4C B4 F4D 115(3) . . ?
F4B B4 F4G 72(2) . . ?
F4H B4 F4G 115(3) . . ?
F4F B4 F4G 101(2) . . ?
F4A B4 F4G 117(3) . . ?
F4C B4 F4G 46(4) . . ?
F4D B4 F4G 120(4) . . ?
F5A B5 F5C 110(3) . 4_565 ?
F5A B5 F5C 110(3) . . ?
F5C B5 F5C 65(7) 4_565 . ?
F5A B5 F5B 109(3) . 4_565 ?
F5C B5 F5B 113(3) 4_565 4_565 ?
F5C B5 F5B 139(4) . 4_565 ?
F5A B5 F5B 109(3) . . ?
F5C B5 F5B 139(4) 4_565 . ?
F5C B5 F5B 113(3) . . ?
F5B B5 F5B 39(7) 4_565 . ?
F5A B5 F5D 108(3) . 4_565 ?
F5C B5 F5D 108(3) 4_565 4_565 ?
F5C B5 F5D 45(7) . 4_565 ?
F5B B5 F5D 109(3) 4_565 4_565 ?
F5B B5 F5D 72(6) . 4_565 ?
F5A B5 F5D 108(3) . . ?
F5C B5 F5D 45(7) 4_565 . ?
F5C B5 F5D 108(3) . . ?
F5B B5 F5D 72(6) 4_565 . ?
F5B B5 F5D 109(3) . . ?
F5D B5 F5D 142(6) 4_565 . ?
F6C B6 F6C 48(5) . 4_565 ?
F6C B6 F6B 116(3) . . ?
F6C B6 F6B 144(3) 4_565 . ?
F6C B6 F6B 144(3) . 4_565 ?
F6C B6 F6B 116(3) 4_565 4_565 ?
F6B B6 F6B 53(4) . 4_565 ?
F6C B6 F6A 112(3) . . ?
F6C B6 F6A 112(3) 4_565 . ?
F6B B6 F6A 103(3) . . ?
F6B B6 F6A 103(3) 4_565 . ?
F6C B6 F6D 109(3) . . ?
F6C B6 F6D 62(4) 4_565 . ?
F6B B6 F6D 109(3) . . ?
F6B B6 F6D 57(3) 4_565 . ?
F6A B6 F6D 107(3) . . ?
F6C B6 F6D 62(4) . 4_565 ?
F6C B6 F6D 109(3) 4_565 4_565 ?
F6B B6 F6D 57(3) . 4_565 ?
F6B B6 F6D 109(3) 4_565 4_565 ?
F6A B6 F6D 107(3) . 4_565 ?
F6D B6 F6D 146(5) . 4_565 ?
F7A B7 F7B 111(3) . . ?
F7A B7 F7C 111(3) . . ?
F7B B7 F7C 109(3) . . ?
F7A B7 F7G 110(3) . . ?
F7B B7 F7G 138(4) . . ?
F7C B7 F7G 61(4) . . ?
F7A B7 F7H 112(3) . . ?
F7B B7 F7H 47(4) . . ?
F7C B7 F7H 136(4) . . ?
F7G B7 F7H 109(3) . . ?
F7A B7 F7F 110(3) . . ?
F7B B7 F7F 63(3) . . ?
F7C B7 F7F 51(4) . . ?
F7G B7 F7F 109(3) . . ?
F7H B7 F7F 107(3) . . ?
F7A B7 F7D 107(3) . . ?
F7B B7 F7D 109(3) . . ?
F7C B7 F7D 109(3) . . ?
F7G B7 F7D 51(4) . . ?
F7H B7 F7D 64(4) . . ?
F7F B7 F7D 143(4) . . ?
F8H B8 F8B 160(3) . . ?
F8H B8 F8F 113(3) . . ?
F8B B8 F8F 54(4) . . ?
F8H B8 F8A 84.5(15) . . ?
F8B B8 F8A 115(3) . . ?
F8F B8 F8A 116(3) . . ?
F8H B8 F8G 116(3) . . ?
F8B B8 F8G 66(4) . . ?
F8F B8 F8G 114(3) . . ?
F8A B8 F8G 110(3) . . ?
F8H B8 F8C 59(2) . . ?
F8B B8 F8C 117(3) . . ?
F8F B8 F8C 134(4) . . ?
F8A B8 F8C 108(2) . . ?
F8G B8 F8C 57(3) . . ?
F8H B8 F8D 52(2) . . ?
F8B B8 F8D 114(3) . . ?
F8F B8 F8D 61(3) . . ?
F8A B8 F8D 101(2) . . ?
F8G B8 F8D 145(4) . . ?
F8C B8 F8D 99(2) . . ?
F9B B9 F9B 52(5) 4_565 . ?
F9B B9 F9A 109(3) 4_565 . ?
F9B B9 F9A 109(3) . . ?
F9B B9 F9D 142(4) 4_565 . ?
F9B B9 F9D 111(3) . . ?
F9A B9 F9D 109(3) . . ?
F9B B9 F9D 111(3) 4_565 4_565 ?
F9B B9 F9D 142(4) . 4_565 ?
F9A B9 F9D 109(3) . 4_565 ?
F9D B9 F9D 58(5) . 4_565 ?
F9B B9 F9C 61(4) 4_565 . ?
F9B B9 F9C 111(3) . . ?
F9A B9 F9C 107(3) . . ?
F9D B9 F9C 110(3) . . ?
F9D B9 F9C 54(4) 4_565 . ?
F9B B9 F9C 111(3) 4_565 4_565 ?
F9B B9 F9C 61(4) . 4_565 ?
F9A B9 F9C 107(3) . 4_565 ?
F9D B9 F9C 54(4) . 4_565 ?
F9D B9 F9C 110(3) 4_565 4_565 ?
F9C B9 F9C 145(5) . 4_565 ?
F10B B10 F10B 49(5) . 4_565 ?
F10B B10 F10A 109(3) . . ?
F10B B10 F10A 109(3) 4_565 . ?
F10B B10 F10C 64(5) . 4_565 ?
F10B B10 F10C 109(3) 4_565 4_565 ?
F10A B10 F10C 110(3) . 4_565 ?
F10B B10 F10C 109(3) . . ?
F10B B10 F10C 64(5) 4_565 . ?
F10A B10 F10C 110(3) . . ?
F10C B10 F10C 139(6) 4_565 . ?
F10B B10 F10D 141(4) . 4_565 ?
F10B B10 F10D 108(3) 4_565 4_565 ?
F10A B10 F10D 108(3) . 4_565 ?
F10C B10 F10D 112(3) 4_565 4_565 ?
F10C B10 F10D 47(6) . 4_565 ?
F10B B10 F10D 108(3) . . ?
F10B B10 F10D 141(4) 4_565 . ?
F10A B10 F10D 108(3) . . ?
F10C B10 F10D 47(6) 4_565 . ?
F10C B10 F10D 112(3) . . ?
F10D B10 F10D 69(7) 4_565 . ?
F11A B11 F11B 104(3) . . ?
F11A B11 F11D 105(3) . . ?
F11B B11 F11D 117(3) . . ?
F11A B11 F11C 108(3) . . ?
F11B B11 F11C 110(3) . . ?
F11D B11 F11C 112(3) . . ?
F12D B12 F12C 113(3) . . ?
F12D B12 F12A 111(3) . . ?
F12C B12 F12A 110(3) . . ?
F12D B12 F12H 51(3) . . ?
F12C B12 F12H 138(4) . . ?
F12A B12 F12H 112(3) . . ?
F12D B12 F12F 139(4) . . ?
F12C B12 F12F 50(4) . . ?
F12A B12 F12F 110(3) . . ?
F12H B12 F12F 112(3) . . ?
F12D B12 F12G 58(3) . . ?
F12C B12 F12G 61(3) . . ?
F12A B12 F12G 106(3) . . ?
F12H B12 F12G 107(3) . . ?
F12F B12 F12G 109(3) . . ?
F12D B12 F12B 108(3) . . ?
F12C B12 F12B 107(3) . . ?
F12A B12 F12B 107(3) . . ?
F12H B12 F12B 59(3) . . ?
F12F B12 F12B 60(4) . . ?
F12G B12 F12B 147(4) . . ?
F13A B13 F13D 109(3) . 4_565 ?
F13A B13 F13D 109(3) . . ?
F13D B13 F13D 141(6) 4_565 . ?
F13A B13 F13C 108(3) . 4_565 ?
F13D B13 F13C 111(3) 4_565 4_565 ?
F13D B13 F13C 62(5) . 4_565 ?
F13A B13 F13C 108(3) . . ?
F13D B13 F13C 62(5) 4_565 . ?
F13D B13 F13C 111(3) . . ?
F13C B13 F13C 53(6) 4_565 . ?
F13A B13 F13B 108(3) . . ?
F13D B13 F13B 49(5) 4_565 . ?
F13D B13 F13B 112(3) . . ?
F13C B13 F13B 144(4) 4_565 . ?
F13C B13 F13B 109(3) . . ?
F13A B13 F13B 108(3) . 4_565 ?
F13D B13 F13B 112(3) 4_565 4_565 ?
F13D B13 F13B 49(5) . 4_565 ?
F13C B13 F13B 109(3) 4_565 4_565 ?
F13C B13 F13B 144(4) . 4_565 ?
F13B B13 F13B 66(6) . 4_565 ?
F14B B14 F14B 52(6) 4_565 . ?
F14B B14 F14A 110(3) 4_565 . ?
F14B B14 F14A 110(3) . . ?
F14B B14 F14D 109(3) 4_565 4_565 ?
F14B B14 F14D 60(5) . 4_565 ?
F14A B14 F14D 109(3) . 4_565 ?
F14B B14 F14D 60(5) 4_565 . ?
F14B B14 F14D 109(3) . . ?
F14A B14 F14D 109(3) . . ?
F14D B14 F14D 141(6) 4_565 . ?
F14B B14 F14C 141(4) 4_565 . ?
F14B B14 F14C 108(3) . . ?
F14A B14 F14C 109(3) . . ?
F14D B14 F14C 51(5) 4_565 . ?
F14D B14 F14C 111(3) . . ?
F14B B14 F14C 108(3) 4_565 4_565 ?
F14B B14 F14C 141(4) . 4_565 ?
F14A B14 F14C 109(3) . 4_565 ?
F14D B14 F14C 111(3) 4_565 4_565 ?
F14D B14 F14C 51(5) . 4_565 ?
F14C B14 F14C 64(6) . 4_565 ?
F15A B15 F15G 112(3) . . ?
F15A B15 F15D 110(3) . . ?
F15G B15 F15D 45(5) . . ?
F15A B15 F15B 111(3) . . ?
F15G B15 F15B 137(4) . . ?
F15D B15 F15B 118(3) . . ?
F15A B15 F15F 111(3) . . ?
F15G B15 F15F 116(3) . . ?
F15D B15 F15F 139(4) . . ?
F15B B15 F15F 44(5) . . ?
F15A B15 F15C 103(3) . . ?
F15G B15 F15C 62(5) . . ?
F15D B15 F15C 107(3) . . ?
F15B B15 F15C 108(3) . . ?
F15F B15 F15C 64(5) . . ?
F15A B15 F15H 101(3) . . ?
F15G B15 F15H 107(3) . . ?
F15D B15 F15H 62(5) . . ?
F15B B15 F15H 65(5) . . ?
F15F B15 F15H 108(3) . . ?
F15C B15 F15H 156(4) . . ?
F16A B16 F16F 106(2) . . ?
F16A B16 F16H 110(3) . . ?
F16F B16 F16H 113(3) . . ?
F16A B16 F16B 106(3) . . ?
F16F B16 F16B 59(3) . . ?
F16H B16 F16B 57(3) . . ?
F16A B16 F16C 112(3) . . ?
F16F B16 F16C 55(3) . . ?
F16H B16 F16C 139(4) . . ?
F16B B16 F16C 111(3) . . ?
F16A B16 F16D 110(3) . . ?
F16F B16 F16D 144(4) . . ?
F16H B16 F16D 54(3) . . ?
F16B B16 F16D 109(3) . . ?
F16C B16 F16D 109(3) . . ?
F16A B16 F16G 110(3) . . ?
F16F B16 F16G 110(3) . . ?
F16H B16 F16G 109(3) . . ?
F16B B16 F16G 144(4) . . ?
F16C B16 F16G 56(3) . . ?
F16D B16 F16G 58(3) . . ?
F17A B17 F17B 108(3) . 4_565 ?
F17A B17 F17B 108(3) . . ?
F17B B17 F17B 55(6) 4_565 . ?
F17A B17 F17D 109(3) . . ?
F17B B17 F17D 59(5) 4_565 . ?
F17B B17 F17D 111(3) . . ?
F17A B17 F17D 109(3) . 4_565 ?
F17B B17 F17D 111(3) 4_565 4_565 ?
F17B B17 F17D 59(5) . 4_565 ?
F17D B17 F17D 142(5) . 4_565 ?
F17A B17 F17C 108(3) . 4_565 ?
F17B B17 F17C 111(3) 4_565 4_565 ?
F17B B17 F17C 144(4) . 4_565 ?
F17D B17 F17C 55(5) . 4_565 ?
F17D B17 F17C 110(3) 4_565 4_565 ?
F17A B17 F17C 108(3) . . ?
F17B B17 F17C 144(4) 4_565 . ?
F17B B17 F17C 111(3) . . ?
F17D B17 F17C 110(3) . . ?
F17D B17 F17C 55(5) 4_565 . ?
F17C B17 F17C 58(5) 4_565 . ?
F18D B18 F18D 47(6) 4_565 . ?
F18D B18 F18A 110(3) 4_565 . ?
F18D B18 F18A 110(3) . . ?
F18D B18 F18B 66(5) 4_565 . ?
F18D B18 F18B 110(3) . . ?
F18A B18 F18B 109(3) . . ?
F18D B18 F18B 110(3) 4_565 4_565 ?
F18D B18 F18B 66(5) . 4_565 ?
F18A B18 F18B 109(3) . 4_565 ?
F18B B18 F18B 140(6) . 4_565 ?
F18D B18 F18C 108(3) 4_565 4_565 ?
F18D B18 F18C 140(4) . 4_565 ?
F18A B18 F18C 108(3) . 4_565 ?
F18B B18 F18C 45(6) . 4_565 ?
F18B B18 F18C 112(3) 4_565 4_565 ?
F18D B18 F18C 140(4) 4_565 . ?
F18D B18 F18C 108(3) . . ?
F18A B18 F18C 108(3) . . ?
F18B B18 F18C 112(3) . . ?
F18B B18 F18C 45(6) 4_565 . ?
F18C B18 F18C 70(7) 4_565 . ?
F19D B19 F19A 110(3) . . ?
F19D B19 F19H 45(4) . . ?
F19A B19 F19H 106(3) . . ?
F19D B19 F19G 136(4) . . ?
F19A B19 F19G 112(3) . . ?
F19H B19 F19G 110(3) . . ?
F19D B19 F19F 66(4) . . ?
F19A B19 F19F 111(3) . . ?
F19H B19 F19F 110(3) . . ?
F19G B19 F19F 108(3) . . ?
F19D B19 F19C 109(3) . . ?
F19A B19 F19C 111(3) . . ?
F19H B19 F19C 69(4) . . ?
F19G B19 F19C 44(4) . . ?
F19F B19 F19C 137(4) . . ?
F19D B19 F19B 110(3) . . ?
F19A B19 F19B 109(3) . . ?
F19H B19 F19B 143(4) . . ?
F19G B19 F19B 67(4) . . ?
F19F B19 F19B 46(4) . . ?
F19C B19 F19B 108(3) . . ?
F20D B20 F20G 153(3) . . ?
F20D B20 F20A 84.6(15) . . ?
F20G B20 F20A 118(3) . . ?
F20D B20 F20C 108(3) . . ?
F20G B20 F20C 49(4) . . ?
F20A B20 F20C 120(3) . . ?
F20D B20 F20B 117(3) . . ?
F20G B20 F20B 71(4) . . ?
F20A B20 F20B 110(3) . . ?
F20C B20 F20B 114(3) . . ?
F20D B20 F20F 63(2) . . ?
F20G B20 F20F 116(3) . . ?
F20A B20 F20F 110(2) . . ?
F20C B20 F20F 128(4) . . ?
F20B B20 F20F 54(4) . . ?
F20D B20 F20H 44.6(19) . . ?
F20G B20 F20H 114(3) . . ?
F20A B20 F20H 96.1(19) . . ?
F20C B20 F20H 65(3) . . ?
F20B B20 F20H 147(4) . . ?
F20F B20 F20H 99(2) . . ?
F21A B21 F21C 110(3) . . ?
F21A B21 F21C 110(3) . 4_565 ?
F21C B21 F21C 139(6) . 4_565 ?
F21A B21 F21D 106(3) . 4_565 ?
F21C B21 F21D 47(6) . 4_565 ?
F21C B21 F21D 112(3) 4_565 4_565 ?
F21A B21 F21D 106(3) . . ?
F21C B21 F21D 112(3) . . ?
F21C B21 F21D 47(6) 4_565 . ?
F21D B21 F21D 69(7) 4_565 . ?
F21A B21 F21B 109(3) . 4_565 ?
F21C B21 F21B 64(6) . 4_565 ?
F21C B21 F21B 111(3) 4_565 4_565 ?
F21D B21 F21B 109(3) 4_565 4_565 ?
F21D B21 F21B 144(4) . 4_565 ?
F21A B21 F21B 109(3) . . ?
F21C B21 F21B 111(3) . . ?
F21C B21 F21B 64(6) 4_565 . ?
F21D B21 F21B 144(4) 4_565 . ?
F21D B21 F21B 109(3) . . ?
F21B B21 F21B 51(6) 4_565 . ?
F22B B22 F22B 46(4) 4_565 . ?
F22B B22 F22D 115(3) 4_565 4_565 ?
F22B B22 F22D 142(3) . 4_565 ?
F22B B22 F22D 142(3) 4_565 . ?
F22B B22 F22D 115(3) . . ?
F22D B22 F22D 55(5) 4_565 . ?
F22B B22 F22A 106(3) 4_565 . ?
F22B B22 F22A 106(3) . . ?
F22D B22 F22A 112(3) 4_565 . ?
F22D B22 F22A 112(3) . . ?
F22B B22 F22C 64(3) 4_565 . ?
F22B B22 F22C 108(3) . . ?
F22D B22 F22C 56(4) 4_565 . ?
F22D B22 F22C 109(3) . . ?
F22A B22 F22C 107(3) . . ?
F22B B22 F22C 108(3) 4_565 4_565 ?
F22B B22 F22C 64(3) . 4_565 ?
F22D B22 F22C 109(3) 4_565 4_565 ?
F22D B22 F22C 56(4) . 4_565 ?
F22A B22 F22C 107(3) . 4_565 ?
F22C B22 F22C 145(5) . 4_565 ?
F23A B23 F23F 112(3) . . ?
F23A B23 F23D 112(3) . . ?
F23F B23 F23D 135(4) . . ?
F23A B23 F23H 106(3) . . ?
F23F B23 F23H 112(3) . . ?
F23D B23 F23H 46(4) . . ?
F23A B23 F23C 108(3) . . ?
F23F B23 F23C 61(4) . . ?
F23D B23 F23C 112(3) . . ?
F23H B23 F23C 145(4) . . ?
F23A B23 F23B 109(3) . . ?
F23F B23 F23B 48(4) . . ?
F23D B23 F23B 108(3) . . ?
F23H B23 F23B 67(4) . . ?
F23C B23 F23B 108(3) . . ?
F23A B23 F23G 108(3) . . ?
F23F B23 F23G 109(3) . . ?
F23D B23 F23G 64(4) . . ?
F23H B23 F23G 109(3) . . ?
F23C B23 F23G 52(4) . . ?
F23B B23 F23G 141(4) . . ?
F24G B24 F24D 152(3) . . ?
F24G B24 F24F 111(3) . . ?
F24D B24 F24F 49(4) . . ?
F24G B24 F24H 117(3) . . ?
F24D B24 F24H 67(4) . . ?
F24F B24 F24H 111(3) . . ?
F24G B24 F24A 83.9(15) . . ?
F24D B24 F24A 121(3) . . ?
F24F B24 F24A 119(3) . . ?
F24H B24 F24A 113(3) . . ?
F24G B24 F24C 62(2) . . ?
F24D B24 F24C 113(3) . . ?
F24F B24 F24C 129(4) . . ?
F24H B24 F24C 55(3) . . ?
F24A B24 F24C 111(2) . . ?
F24G B24 F24B 47(2) . . ?
F24D B24 F24B 113(3) . . ?
F24F B24 F24B 65(3) . . ?
F24H B24 F24B 145(4) . . ?
F24A B24 F24B 96.8(19) . . ?
F24C B24 F24B 98(2) . . ?
F25C B25 F25C 58(5) 4_575 . ?
F25C B25 F25A 109(3) 4_575 . ?
F25C B25 F25A 109(3) . . ?
F25C B25 F25B 144(4) 4_575 . ?
F25C B25 F25B 110(3) . . ?
F25A B25 F25B 107(3) . . ?
F25C B25 F25B 110(3) 4_575 4_575 ?
F25C B25 F25B 144(4) . 4_575 ?
F25A B25 F25B 107(3) . 4_575 ?
F25B B25 F25B 58(5) . 4_575 ?
F25C B25 F25D 112(3) 4_575 4_575 ?
F25C B25 F25D 56(4) . 4_575 ?
F25A B25 F25D 107(3) . 4_575 ?
F25B B25 F25D 56(4) . 4_575 ?
F25B B25 F25D 111(3) 4_575 4_575 ?
F25C B25 F25D 56(4) 4_575 . ?
F25C B25 F25D 112(3) . . ?
F25A B25 F25D 107(3) . . ?
F25B B25 F25D 111(3) . . ?
F25B B25 F25D 56(4) 4_575 . ?
F25D B25 F25D 145(5) 4_575 . ?
F26C B26 F26C 46(6) 4_575 . ?
F26C B26 F26B 67(5) 4_575 . ?
F26C B26 F26B 109(3) . . ?
F26C B26 F26B 109(3) 4_575 4_575 ?
F26C B26 F26B 67(5) . 4_575 ?
F26B B26 F26B 140(6) . 4_575 ?
F26C B26 F26A 110(3) 4_575 . ?
F26C B26 F26A 110(3) . . ?
F26B B26 F26A 109(3) . . ?
F26B B26 F26A 109(3) 4_575 . ?
F26C B26 F26D 108(3) 4_575 4_575 ?
F26C B26 F26D 139(4) . 4_575 ?
F26B B26 F26D 44(6) . 4_575 ?
F26B B26 F26D 111(3) 4_575 4_575 ?
F26A B26 F26D 110(3) . 4_575 ?
F26C B26 F26D 139(4) 4_575 . ?
F26C B26 F26D 108(3) . . ?
F26B B26 F26D 111(3) . . ?
F26B B26 F26D 44(6) 4_575 . ?
F26A B26 F26D 110(3) . . ?
F26D B26 F26D 70(7) 4_575 . ?
F27B B27 F27G 45(4) . . ?
F27B B27 F27H 137(4) . . ?
F27G B27 F27H 112(3) . . ?
F27B B27 F27A 111(3) . . ?
F27G B27 F27A 106(3) . . ?
F27H B27 F27A 112(3) . . ?
F27B B27 F27D 111(3) . . ?
F27G B27 F27D 143(4) . . ?
F27H B27 F27D 62(3) . . ?
F27A B27 F27D 110(3) . . ?
F27B B27 F27F 65(4) . . ?
F27G B27 F27F 109(3) . . ?
F27H B27 F27F 108(3) . . ?
F27A B27 F27F 110(3) . . ?
F27D B27 F27F 49(4) . . ?
F27B B27 F27C 108(3) . . ?
F27G B27 F27C 68(4) . . ?
F27H B27 F27C 47(4) . . ?
F27A B27 F27C 111(3) . . ?
F27D B27 F27C 107(3) . . ?
F27F B27 F27C 139(4) . . ?
F28H B28 F28C 148(3) . . ?
F28H B28 F28G 109(3) . . ?
F28C B28 F28G 44(4) . . ?
F28H B28 F28F 116(3) . . ?
F28C B28 F28F 75(4) . . ?
F28G B28 F28F 114(3) . . ?
F28H B28 F28A 86.4(15) . . ?
F28C B28 F28A 119(3) . . ?
F28G B28 F28A 119(3) . . ?
F28F B28 F28A 111(3) . . ?
F28H B28 F28B 66(2) . . ?
F28C B28 F28B 116(3) . . ?
F28G B28 F28B 129(4) . . ?
F28F B28 F28B 50(4) . . ?
F28A B28 F28B 111(3) . . ?
F28H B28 F28D 41.3(17) . . ?
F28C B28 F28D 112(3) . . ?
F28G B28 F28D 68(3) . . ?
F28F B28 F28D 143(4) . . ?
F28A B28 F28D 97.2(18) . . ?
F28B B28 F28D 99(2) . . ?
F29A B29 F29D 108(3) . . ?
F29A B29 F29D 108(3) . 4_575 ?
F29D B29 F29D 69(7) . 4_575 ?
F29A B29 F29B 109(3) . 4_575 ?
F29D B29 F29B 141(4) . 4_575 ?
F29D B29 F29B 113(3) 4_575 4_575 ?
F29A B29 F29B 109(3) . . ?
F29D B29 F29B 113(3) . . ?
F29D B29 F29B 141(4) 4_575 . ?
F29B B29 F29B 39(6) 4_575 . ?
F29A B29 F29C 108(3) . 4_575 ?
F29D B29 F29C 43(7) . 4_575 ?
F29D B29 F29C 110(3) 4_575 4_575 ?
F29B B29 F29C 110(3) 4_575 4_575 ?
F29B B29 F29C 73(6) . 4_575 ?
F29A B29 F29C 108(3) . . ?
F29D B29 F29C 110(3) . . ?
F29D B29 F29C 43(7) 4_575 . ?
F29B B29 F29C 73(6) 4_575 . ?
F29B B29 F29C 110(3) . . ?
F29C B29 F29C 140(6) 4_575 . ?
F30B B30 F30B 54(4) . 4_575 ?
F30B B30 F30C 143(3) . 4_575 ?
F30B B30 F30C 115(3) 4_575 4_575 ?
F30B B30 F30C 115(3) . . ?
F30B B30 F30C 143(3) 4_575 . ?
F30C B30 F30C 49(5) 4_575 . ?
F30B B30 F30A 105(3) . . ?
F30B B30 F30A 105(3) 4_575 . ?
F30C B30 F30A 112(3) 4_575 . ?
F30C B30 F30A 112(3) . . ?
F30B B30 F30D 109(3) . . ?
F30B B30 F30D 57(3) 4_575 . ?
F30C B30 F30D 62(4) 4_575 . ?
F30C B30 F30D 109(3) . . ?
F30A B30 F30D 107(2) . . ?
F30B B30 F30D 57(3) . 4_575 ?
F30B B30 F30D 108(3) 4_575 4_575 ?
F30C B30 F30D 109(3) 4_575 4_575 ?
F30C B30 F30D 62(4) . 4_575 ?
F30A B30 F30D 107(2) . 4_575 ?
F30D B30 F30D 145(5) . 4_575 ?
F31B B31 F31A 112(3) . . ?
F31B B31 F31H 135(4) . . ?
F31A B31 F31H 112(3) . . ?
F31B B31 F31C 110(3) . . ?
F31A B31 F31C 108(3) . . ?
F31H B31 F31C 50(4) . . ?
F31B B31 F31F 59(4) . . ?
F31A B31 F31F 108(3) . . ?
F31H B31 F31F 110(3) . . ?
F31C B31 F31F 144(4) . . ?
F31B B31 F31G 52(4) . . ?
F31A B31 F31G 108(3) . . ?
F31H B31 F31G 109(3) . . ?
F31C B31 F31G 62(4) . . ?
F31F B31 F31G 110(3) . . ?
F31B B31 F31D 110(3) . . ?
F31A B31 F31D 106(3) . . ?
F31H B31 F31D 61(4) . . ?
F31C B31 F31D 110(3) . . ?
F31F B31 F31D 54(4) . . ?
F31G B31 F31D 145(4) . . ?
F32D B32 F32G 150(3) . . ?
F32D B32 F32A 86.9(15) . . ?
F32G B32 F32A 117(3) . . ?
F32D B32 F32C 109(3) . . ?
F32G B32 F32C 45(4) . . ?
F32A B32 F32C 117(3) . . ?
F32D B32 F32B 116(3) . . ?
F32G B32 F32B 75(4) . . ?
F32A B32 F32B 110(3) . . ?
F32C B32 F32B 115(3) . . ?
F32D B32 F32F 65(2) . . ?
F32G B32 F32F 116(3) . . ?
F32A B32 F32F 113(3) . . ?
F32C B32 F32F 129(4) . . ?
F32B B32 F32F 51(4) . . ?
F32D B32 F32H 41.8(19) . . ?
F32G B32 F32H 113(3) . . ?
F32A B32 F32H 96.8(19) . . ?
F32C B32 F32H 68(3) . . ?
F32B B32 F32H 146(4) . . ?
F32F B32 F32H 99(2) . . ?
F33A B33 F33C 109(3) . 4_575 ?
F33A B33 F33C 109(3) . . ?
F33C B33 F33C 48(6) 4_575 . ?
F33A B33 F33B 108(3) . 4_575 ?
F33C B33 F33B 111(3) 4_575 4_575 ?
F33C B33 F33B 66(5) . 4_575 ?
F33A B33 F33B 108(3) . . ?
F33C B33 F33B 66(5) 4_575 . ?
F33C B33 F33B 111(3) . . ?
F33B B33 F33B 143(5) 4_575 . ?
F33A B33 F33D 108(3) . . ?
F33C B33 F33D 142(4) 4_575 . ?
F33C B33 F33D 111(3) . . ?
F33B B33 F33D 48(5) 4_575 . ?
F33B B33 F33D 110(3) . . ?
F33A B33 F33D 108(3) . 4_575 ?
F33C B33 F33D 111(3) 4_575 4_575 ?
F33C B33 F33D 142(4) . 4_575 ?
F33B B33 F33D 110(3) 4_575 4_575 ?
F33B B33 F33D 48(5) . 4_575 ?
F33D B33 F33D 65(6) . 4_575 ?
F34B B34 F34B 56(5) . 4_575 ?
F34B B34 F34C 109(3) . . ?
F34B B34 F34C 57(4) 4_575 . ?
F34B B34 F34C 57(4) . 4_575 ?
F34B B34 F34C 109(3) 4_575 4_575 ?
F34C B34 F34C 140(6) . 4_575 ?
F34B B34 F34A 110(3) . . ?
F34B B34 F34A 110(3) 4_575 . ?
F34C B34 F34A 110(3) . . ?
F34C B34 F34A 110(3) 4_575 . ?
F34B B34 F34D 142(4) . 4_575 ?
F34B B34 F34D 107(3) 4_575 4_575 ?
F34C B34 F34D 53(5) . 4_575 ?
F34C B34 F34D 112(3) 4_575 4_575 ?
F34A B34 F34D 108(3) . 4_575 ?
F34B B34 F34D 107(3) . . ?
F34B B34 F34D 142(4) 4_575 . ?
F34C B34 F34D 112(3) . . ?
F34C B34 F34D 53(5) 4_575 . ?
F34A B34 F34D 108(3) . . ?
F34D B34 F34D 63(6) 4_575 . ?
F35A B35 F35G 111(3) . . ?
F35A B35 F35C 111(3) . . ?
F35G B35 F35C 47(5) . . ?
F35A B35 F35B 112(3) . . ?
F35G B35 F35B 137(4) . . ?
F35C B35 F35B 116(3) . . ?
F35A B35 F35H 110(3) . . ?
F35G B35 F35H 116(3) . . ?
F35C B35 F35H 139(4) . . ?
F35B B35 F35H 44(5) . . ?
F35A B35 F35D 102(3) . . ?
F35G B35 F35D 60(5) . . ?
F35C B35 F35D 106(3) . . ?
F35B B35 F35D 109(3) . . ?
F35H B35 F35D 66(5) . . ?
F35A B35 F35F 103(3) . . ?
F35G B35 F35F 108(3) . . ?
F35C B35 F35F 62(5) . . ?
F35B B35 F35F 64(5) . . ?
F35H B35 F35F 108(3) . . ?
F35D B35 F35F 155(4) . . ?
F36B B36 F36A 110(3) . . ?
F36B B36 F36F 54(3) . . ?
F36A B36 F36F 110(3) . . ?
F36B B36 F36G 139(4) . . ?
F36A B36 F36G 110(3) . . ?
F36F B36 F36G 112(3) . . ?
F36B B36 F36D 111(3) . . ?
F36A B36 F36D 110(3) . . ?
F36F B36 F36D 140(4) . . ?
F36G B36 F36D 52(3) . . ?
F36B B36 F36C 111(3) . . ?
F36A B36 F36C 105(2) . . ?
F36F B36 F36C 58(3) . . ?
F36G B36 F36C 59(3) . . ?
F36D B36 F36C 109(3) . . ?
F36B B36 F36H 57(3) . . ?
F36A B36 F36H 106(3) . . ?
F36F B36 F36H 109(3) . . ?
F36G B36 F36H 110(3) . . ?
F36D B36 F36H 59(3) . . ?
F36C B36 F36H 148(3) . . ?
F51B B51 F51C 109(2) . . ?
F51B B51 F51A 108(2) . . ?
F51C B51 F51A 107(2) . . ?
F51B B51 F51D 115(3) . . ?
F51C B51 F51D 111(2) . . ?
F51A B51 F51D 108(2) . . ?
F52A B52 F52C 108(2) . . ?
F52A B52 F52B 106(2) . . ?
F52C B52 F52B 113(3) . . ?
F52A B52 F52D 106(2) . . ?
F52C B52 F52D 112(3) . . ?
F52B B52 F52D 110(3) . . ?
F53B B53 F53C 111(2) . . ?
F53B B53 F53A 106(2) . . ?
F53C B53 F53A 106(2) . . ?
F53B B53 F53D 115(3) . . ?
F53C B53 F53D 112(2) . . ?
F53A B53 F53D 106(2) . . ?
F54B B54 F54A 107(2) . . ?
F54B B54 F54C 110(2) . . ?
F54A B54 F54C 103(2) . . ?
F54B B54 F54D 117(3) . . ?
F54A B54 F54D 107(2) . . ?
F54C B54 F54D 111(2) . . ?
F55A B55 F55D 108(2) . . ?
F55A B55 F55C 107(2) . . ?
F55D B55 F55C 111(2) . . ?
F55A B55 F55B 106(2) . . ?
F55D B55 F55B 112(3) . . ?
F55C B55 F55B 112(3) . . ?
F56B B56 F56C 111(2) . . ?
F56B B56 F56A 106(2) . . ?
F56C B56 F56A 102(2) . . ?
F56B B56 F56D 118(3) . . ?
F56C B56 F56D 113(2) . . ?
F56A B56 F56D 106(2) . . ?
F57B B57 F57C 109(2) . . ?
F57B B57 F57A 107(2) . . ?
F57C B57 F57A 106(2) . . ?
F57B B57 F57D 117(3) . . ?
F57C B57 F57D 111(2) . . ?
F57A B57 F57D 107(2) . . ?
F58B B58 F58C 109(2) . . ?
F58B B58 F58A 106(2) . . ?
F58C B58 F58A 106(2) . . ?
F58B B58 F58D 117(3) . . ?
F58C B58 F58D 109(2) . . ?
F58A B58 F58D 109(2) . . ?
F59A B59 F59B 109(3) . . ?
F59A B59 F59C 109(3) . . ?
F59B B59 F59C 110(3) . . ?
F59A B59 F59D 108(3) . . ?
F59B B59 F59D 110(3) . . ?
F59C B59 F59D 111(3) . . ?
F60B B60 F60C 110(3) . . ?
F60B B60 F60A 111(3) . . ?
F60C B60 F60A 105(3) . . ?
F60B B60 F60D 106(3) . . ?
F60C B60 F60D 112(3) . . ?
F60A B60 F60D 112(3) . . ?
F61B B61 F61D 110(3) . . ?
F61B B61 F61A 111(3) . . ?
F61D B61 F61A 106(3) . . ?
F61B B61 F61C 107(3) . . ?
F61D B61 F61C 111(3) . . ?
F61A B61 F61C 112(3) . . ?
F62C B62 F62B 109(3) . . ?
F62C B62 F62A 111(3) . . ?
F62B B62 F62A 106(3) . . ?
F62C B62 F62D 107(3) . . ?
F62B B62 F62D 111(3) . . ?
F62A B62 F62D 112(3) . . ?
F63B B63 F63C 110(3) . . ?
F63B B63 F63A 106(3) . . ?
F63C B63 F63A 110(3) . . ?
F63B B63 F63D 111(3) . . ?
F63C B63 F63D 108(3) . . ?
F63A B63 F63D 112(3) . . ?
F64D B64 F64A 111(3) . . ?
F64D B64 F64B 111(3) . . ?
F64A B64 F64B 106(3) . . ?
F64D B64 F64C 107(3) . . ?
F64A B64 F64C 111(3) . . ?
F64B B64 F64C 112(3) . . ?
F65C B65 F65A 111(3) . . ?
F65C B65 F65B 110(3) . . ?
F65A B65 F65B 107(3) . . ?
F65C B65 F65D 108(3) . . ?
F65A B65 F65D 109(3) . . ?
F65B B65 F65D 112(3) . . ?

loop_
_geom_torsion_atom_site_label_1
_geom_torsion_atom_site_label_2
_geom_torsion_atom_site_label_3
_geom_torsion_atom_site_label_4
_geom_torsion
_geom_torsion_site_symmetry_1
_geom_torsion_site_symmetry_2
_geom_torsion_site_symmetry_3
_geom_torsion_site_symmetry_4
_geom_torsion_publ_flag
C5 N1 C1 C2 0.0 . . . . ?
Pd4 N1 C1 C2 -178.8(12) . . . . ?
N1 C1 C2 C3 0.0 . . . . ?
C1 C2 C3 C4 0.0 . . . . ?
C1 C2 C3 C6 177(2) . . . . ?
C2 C3 C4 C5 0.0 . . . . ?
C6 C3 C4 C5 -176(2) . . . . ?
C3 C4 C5 N1 0.0 . . . . ?
C1 N1 C5 C4 0.0 . . . . ?
Pd4 N1 C5 C4 178.7(13) . . . . ?
C6 N2 C6 C7 13(6) 4_565 . . . ?
C6 N2 C6 C3 179(2) 4_565 . . . ?
C2 C3 C6 N2 -7(4) . . . . ?
C4 C3 C6 N2 169(2) . . . . ?
C2 C3 C6 C7 157(2) . . . . ?
C4 C3 C6 C7 -26(4) . . . . ?
N2 C6 C7 C8 -2(6) . . . . ?
C3 C6 C7 C8 -167(3) . . . . ?
C6 C7 C8 C7 -7(6) . . . 4_565 ?
C13 N3 C9 C10 0.0 . . . . ?
Pd2 N3 C9 C10 177.5(12) . . . . ?
N3 C9 C10 C11 0.0 . . . . ?
C9 C10 C11 C12 0.0 . . . . ?
C9 C10 C11 C14 -179(2) . . . . ?
C10 C11 C12 C13 0.0 . . . . ?
C14 C11 C12 C13 179(2) . . . . ?
C11 C12 C13 N3 0.0 . . . . ?
C9 N3 C13 C12 0.0 . . . . ?
Pd2 N3 C13 C12 -177.3(13) . . . . ?
C14 N4 C14 C15 -5(6) 4_565 . . . ?
C14 N4 C14 C11 -177(2) 4_565 . . . ?
C12 C11 C14 N4 -166(2) . . . . ?
C10 C11 C14 N4 13(4) . . . . ?
C12 C11 C14 C15 22(4) . . . . ?
C10 C11 C14 C15 -159(3) . . . . ?
N4 C14 C15 C16 -7(6) . . . . ?
C11 C14 C15 C16 164(3) . . . . ?
C14 C15 C16 C15 17(7) . . . 4_565 ?
C21 N5 C17 C18 0.0 . . . . ?
Pd4 N5 C17 C18 179.6(13) . . . . ?
N5 C17 C18 C19 0.0 . . . . ?
C17 C18 C19 C20 0.0 . . . . ?
C17 C18 C19 C22 -174(2) . . . . ?
C18 C19 C20 C21 0.0 . . . . ?
C22 C19 C20 C21 173(2) . . . . ?
C19 C20 C21 N5 0.0 . . . . ?
C17 N5 C21 C20 0.0 . . . . ?
Pd4 N5 C21 C20 -179.6(13) . . . . ?
C26 N6 C22 C23 0.0 . . . . ?
C26 N6 C22 C19 -177(2) . . . . ?
C18 C19 C22 N6 -5(2) . . . . ?
C20 C19 C22 N6 -178.1(11) . . . . ?
C18 C19 C22 C23 178.2(11) . . . . ?
C20 C19 C22 C23 5(3) . . . . ?
N6 C22 C23 C24 0.0 . . . . ?
C19 C22 C23 C24 177(2) . . . . ?
C22 C23 C24 C25 0.0 . . . . ?
C23 C24 C25 C26 0.0 . . . . ?
C24 C25 C26 N6 0.0 . . . . ?
C24 C25 C26 C29 -174(2) . . . . ?
C22 N6 C26 C25 0.0 . . . . ?
C22 N6 C26 C29 175.4(19) . . . . ?
C31 N7 C27 C28 0.0 . . . . ?
Pd5 N7 C27 C28 -177.7(13) . . . . ?
N7 C27 C28 C29 0.0 . . . . ?
C27 C28 C29 C30 0.0 . . . . ?
C27 C28 C29 C26 170(2) . . . . ?
C25 C26 C29 C28 -177.9(13) . . . . ?
N6 C26 C29 C28 7(2) . . . . ?
C25 C26 C29 C30 -7(2) . . . . ?
N6 C26 C29 C30 177.8(12) . . . . ?
C28 C29 C30 C31 0.0 . . . . ?
C26 C29 C30 C31 -171(2) . . . . ?
C29 C30 C31 N7 0.0 . . . . ?
C27 N7 C31 C30 0.0 . . . . ?
Pd5 N7 C31 C30 177.6(14) . . . . ?
C36 N8 C32 C33 0.0 . . . . ?
Pd5 N8 C32 C33 -166.2(15) . . . . ?
N8 C32 C33 C34 0.0 . . . . ?
C32 C33 C34 C35 0.0 . . . . ?
C32 C33 C34 C37 175(2) . . . . ?
C33 C34 C35 C36 0.0 . . . . ?
C37 C34 C35 C36 -176(2) . . . . ?
C34 C35 C36 N8 0.0 . . . . ?
C32 N8 C36 C35 0.0 . . . . ?
Pd5 N8 C36 C35 165.7(15) . . . . ?
C41 N9 C37 C38 0.0 . . . . ?
C41 N9 C37 C34 175(2) . . . . ?
C33 C34 C37 N9 0(3) . . . . ?
C35 C34 C37 N9 175.9(15) . . . . ?
C33 C34 C37 C38 175.4(15) . . . . ?
C35 C34 C37 C38 -9(3) . . . . ?
N9 C37 C38 C39 0.0 . . . . ?
C34 C37 C38 C39 -175(3) . . . . ?
C37 C38 C39 C40 0.0 . . . . ?
C38 C39 C40 C41 0.0 . . . . ?
C39 C40 C41 N9 0.0 . . . . ?
C39 C40 C41 C44 -180(3) . . . . ?
C37 N9 C41 C40 0.0 . . . . ?
C37 N9 C41 C44 180(3) . . . . ?
C46 N10 C42 C43 0.0 . . . . ?
Pd6 N10 C42 C43 -173.6(16) . . . . ?
N10 C42 C43 C44 0.0 . . . . ?
C42 C43 C44 C45 0.0 . . . . ?
C42 C43 C44 C41 -171(3) . . . . ?
C40 C41 C44 C43 -176.8(16) . . . . ?
N9 C41 C44 C43 3(3) . . . . ?
C40 C41 C44 C45 12(3) . . . . ?
N9 C41 C44 C45 -168.1(14) . . . . ?
C43 C44 C45 C46 0.0 . . . . ?
C41 C44 C45 C46 172(2) . . . . ?
C44 C45 C46 N10 0.0 . . . . ?
C42 N10 C46 C45 0.0 . . . . ?
Pd6 N10 C46 C45 173.1(17) . . . . ?
C51 N11 C47 C48 0.0 . . . . ?
Pd6 N11 C47 C48 177.5(15) . . . . ?
N11 C47 C48 C49 0.0 . . . . ?
C47 C48 C49 C50 0.0 . . . . ?
C47 C48 C49 C52 179(2) . . . . ?
C48 C49 C50 C51 0.0 . . . . ?
C52 C49 C50 C51 -179(2) . . . . ?
C49 C50 C51 N11 0.0 . . . . ?
C47 N11 C51 C50 0.0 . . . . ?
Pd6 N11 C51 C50 -177.7(14) . . . . ?
C56 N12 C52 C53 0.0 . . . . ?
C56 N12 C52 C49 179(2) . . . . ?
C50 C49 C52 C53 -9(2) . . . . ?
C48 C49 C52 C53 172.3(11) . . . . ?
C50 C49 C52 N12 172.2(13) . . . . ?
C48 C49 C52 N12 -7(2) . . . . ?
N12 C52 C53 C54 0.0 . . . . ?
C49 C52 C53 C54 -179(2) . . . . ?
C52 C53 C54 C55 0.0 . . . . ?
C53 C54 C55 C56 0.0 . . . . ?
C54 C55 C56 N12 0.0 . . . . ?
C54 C55 C56 C59 -176(2) . . . . ?
C52 N12 C56 C55 0.0 . . . . ?
C52 N12 C56 C59 177(2) . . . . ?
C61 N13 C57 C58 0.0 . . . . ?
Pd4 N13 C57 C58 174.9(13) . . . . ?
N13 C57 C58 C59 0.0 . . . . ?
C57 C58 C59 C60 0.0 . . . . ?
C57 C58 C59 C56 -178.0(19) . . . . ?
C55 C56 C59 C58 -176.2(12) . . . . ?
N12 C56 C59 C58 7(2) . . . . ?
C55 C56 C59 C60 6(2) . . . . ?
N12 C56 C59 C60 -170.8(12) . . . . ?
C58 C59 C60 C61 0.0 . . . . ?
C56 C59 C60 C61 178(2) . . . . ?
C59 C60 C61 N13 0.0 . . . . ?
C57 N13 C61 C60 0.0 . . . . ?
Pd4 N13 C61 C60 -175.0(13) . . . . ?
C66 N14 C62 C63 0.0 . . . . ?
Pd4 N14 C62 C63 -169.6(10) . . . . ?
N14 C62 C63 C64 0.0 . . . . ?
C62 C63 C64 C65 0.0 . . . . ?
C62 C63 C64 C67 -174.7(18) . . . . ?
C63 C64 C65 C66 0.0 . . . . ?
C67 C64 C65 C66 174.5(18) . . . . ?
C64 C65 C66 N14 0.0 . . . . ?
C62 N14 C66 C65 0.0 . . . . ?
Pd4 N14 C66 C65 169.3(11) . . . . ?
C71 N15 C67 C68 0.0 . . . . ?
C71 N15 C67 C64 -175.1(19) . . . . ?
C63 C64 C67 N15 -27.4(18) . . . . ?
C65 C64 C67 N15 158.0(10) . . . . ?
C63 C64 C67 C68 157.8(11) . . . . ?
C65 C64 C67 C68 -17(2) . . . . ?
N15 C67 C68 C69 0.0 . . . . ?
C64 C67 C68 C69 175(2) . . . . ?
C67 C68 C69 C70 0.0 . . . . ?
C68 C69 C70 C71 0.0 . . . . ?
C69 C70 C71 N15 0.0 . . . . ?
C69 C70 C71 C74 179.7(18) . . . . ?
C67 N15 C71 C70 0.0 . . . . ?
C67 N15 C71 C74 -179.7(18) . . . . ?
C76 N16 C72 C73 0.0 . . . . ?
Pd3 N16 C72 C73 -174.3(11) . . . . ?
N16 C72 C73 C74 0.0 . . . . ?
C72 C73 C74 C75 0.0 . . . . ?
C72 C73 C74 C71 176.4(16) . . . . ?
C70 C71 C74 C75 18.9(19) . . . . ?
N15 C71 C74 C75 -161.4(12) . . . . ?
C70 C71 C74 C73 -157.3(11) . . . . ?
N15 C71 C74 C73 22.4(18) . . . . ?
C73 C74 C75 C76 0.0 . . . . ?
C71 C74 C75 C76 -176.1(17) . . . . ?
C74 C75 C76 N16 0.0 . . . . ?
C72 N16 C76 C75 0.0 . . . . ?
Pd3 N16 C76 C75 174.2(11) . . . . ?
C81 N17 C77 C78 0.0 . . . . ?
Pd3 N17 C77 C78 173.9(10) . . . . ?
N17 C77 C78 C79 0.0 . . . . ?
C77 C78 C79 C80 0.0 . . . . ?
C77 C78 C79 C82 -176.9(16) . . . . ?
C78 C79 C80 C81 0.0 . . . . ?
C82 C79 C80 C81 176.7(17) . . . . ?
C79 C80 C81 N17 0.0 . . . . ?
C77 N17 C81 C80 0.0 . . . . ?
Pd3 N17 C81 C80 -173.9(10) . . . . ?
C86 N18 C82 C83 0.0 . . . . ?
C86 N18 C82 C79 -179.6(18) . . . . ?
C80 C79 C82 C83 -19.0(19) . . . . ?
C78 C79 C82 C83 157.7(11) . . . . ?
C80 C79 C82 N18 160.6(12) . . . . ?
C78 C79 C82 N18 -22.6(18) . . . . ?
N18 C82 C83 C84 0.0 . . . . ?
C79 C82 C83 C84 179.6(19) . . . . ?
C82 C83 C84 C85 0.0 . . . . ?
C83 C84 C85 C86 0.0 . . . . ?
C84 C85 C86 N18 0.0 . . . . ?
C84 C85 C86 C89 -174(2) . . . . ?
C82 N18 C86 C85 0.0 . . . . ?
C82 N18 C86 C89 175(2) . . . . ?
C91 N19 C87 C88 0.0 . . . . ?
Pd2 N19 C87 C88 169.1(10) . . . . ?
N19 C87 C88 C89 0.0 . . . . ?
C87 C88 C89 C90 0.0 . . . . ?
C87 C88 C89 C86 173.7(18) . . . . ?
C85 C86 C89 C88 -157.8(11) . . . . ?
N18 C86 C89 C88 27.7(18) . . . . ?
C85 C86 C89 C90 16(2) . . . . ?
N18 C86 C89 C90 -158.7(10) . . . . ?
C88 C89 C90 C91 0.0 . . . . ?
C86 C89 C90 C91 -173.5(19) . . . . ?
C89 C90 C91 N19 0.0 . . . . ?
C87 N19 C91 C90 0.0 . . . . ?
Pd2 N19 C91 C90 -168.8(11) . . . . ?
C96 N20 C92 C93 0.0 . . . . ?
Pd2 N20 C92 C93 -173.5(12) . . . . ?
N20 C92 C93 C94 0.0 . . . . ?
C92 C93 C94 C95 0.0 . . . . ?
C92 C93 C94 C97 177.1(18) . . . . ?
C93 C94 C95 C96 0.0 . . . . ?
C97 C94 C95 C96 -177(2) . . . . ?
C94 C95 C96 N20 0.0 . . . . ?
C92 N20 C96 C95 0.0 . . . . ?
Pd2 N20 C96 C95 173.5(12) . . . . ?
C101 N21 C97 C98 0.0 . . . . ?
C101 N21 C97 C94 -178(2) . . . . ?
C95 C94 C97 C98 -7(2) . . . . ?
C93 C94 C97 C98 175.9(11) . . . . ?
C95 C94 C97 N21 170.5(13) . . . . ?
C93 C94 C97 N21 -7(2) . . . . ?
N21 C97 C98 C99 0.0 . . . . ?
C94 C97 C98 C99 177(2) . . . . ?
C97 C98 C99 C100 0.0 . . . . ?
C98 C99 C100 C101 0.0 . . . . ?
C99 C100 C101 N21 0.0 . . . . ?
C99 C100 C101 C104 179(2) . . . . ?
C97 N21 C101 C100 0.0 . . . . ?
C97 N21 C101 C104 -179(2) . . . . ?
C106 N22 C102 C103 0.0 . . . . ?
Pd6 N22 C102 C103 -176.5(15) . . . . ?
N22 C102 C103 C104 0.0 . . . . ?
C102 C103 C104 C105 0.0 . . . . ?
C102 C103 C104 C101 -178(2) . . . . ?
C100 C101 C104 C105 10(3) . . . . ?
N21 C101 C104 C105 -170.6(12) . . . . ?
C100 C101 C104 C103 -171.4(12) . . . . ?
N21 C101 C104 C103 8(2) . . . . ?
C103 C104 C105 C106 0.0 . . . . ?
C101 C104 C105 C106 178(2) . . . . ?
C104 C105 C106 N22 0.0 . . . . ?
C102 N22 C106 C105 0.0 . . . . ?
Pd6 N22 C106 C105 176.7(15) . . . . ?
C111 N23 C107 C108 0.0 . . . . ?
Pd6 N23 C107 C108 177.0(16) . . . . ?
N23 C107 C108 C109 0.0 . . . . ?
C107 C108 C109 C110 0.0 . . . . ?
C107 C108 C109 C112 -180(3) . . . . ?
C108 C109 C110 C111 0.0 . . . . ?
C112 C109 C110 C111 180(2) . . . . ?
C109 C110 C111 N23 0.0 . . . . ?
C107 N23 C111 C110 0.0 . . . . ?
Pd6 N23 C111 C110 -176.9(17) . . . . ?
C116 N24 C112 C113 0.0 . . . . ?
C116 N24 C112 C109 -173(3) . . . . ?
C110 C109 C112 N24 165.9(14) . . . . ?
C108 C109 C112 N24 -14(3) . . . . ?
C110 C109 C112 C113 -7(3) . . . . ?
C108 C109 C112 C113 173.3(16) . . . . ?
N24 C112 C113 C114 0.0 . . . . ?
C109 C112 C113 C114 172(3) . . . . ?
C112 C113 C114 C115 0.0 . . . . ?
C113 C114 C115 C116 0.0 . . . . ?
C114 C115 C116 N24 0.0 . . . . ?
C114 C115 C116 C119 174(3) . . . . ?
C112 N24 C116 C115 0.0 . . . . ?
C112 N24 C116 C119 -175(3) . . . . ?
C121 N25 C117 C118 0.0 . . . . ?
Pd1 N25 C117 C118 165.6(15) . . . . ?
N25 C117 C118 C119 0.0 . . . . ?
C117 C118 C119 C120 0.0 . . . . ?
C117 C118 C119 C116 -177(2) . . . . ?
C115 C116 C119 C118 -176.0(15) . . . . ?
N24 C116 C119 C118 -1(3) . . . . ?
C115 C116 C119 C120 7(3) . . . . ?
N24 C116 C119 C120 -178.1(15) . . . . ?
C118 C119 C120 C121 0.0 . . . . ?
C116 C119 C120 C121 177(2) . . . . ?
C119 C120 C121 N25 0.0 . . . . ?
C117 N25 C121 C120 0.0 . . . . ?
Pd1 N25 C121 C120 -164.7(16) . . . . ?
C126 N26 C122 C123 0.0 . . . . ?
Pd1 N26 C122 C123 178.2(14) . . . . ?
N26 C122 C123 C124 0.0 . . . . ?
C122 C123 C124 C125 0.0 . . . . ?
C122 C123 C124 C127 -174(2) . . . . ?
C123 C124 C125 C126 0.0 . . . . ?
C127 C124 C125 C126 174.7(19) . . . . ?
C124 C125 C126 N26 0.0 . . . . ?
C122 N26 C126 C125 0.0 . . . . ?
Pd1 N26 C126 C125 -178.1(14) . . . . ?
C131 N27 C127 C128 0.0 . . . . ?
C131 N27 C127 C124 -179.7(19) . . . . ?
C125 C124 C127 C128 5(2) . . . . ?
C123 C124 C127 C128 179.5(13) . . . . ?
C125 C124 C127 N27 -175.2(12) . . . . ?
C123 C124 C127 N27 -1(2) . . . . ?
N27 C127 C128 C129 0.0 . . . . ?
C124 C127 C128 C129 180(2) . . . . ?
C127 C128 C129 C130 0.0 . . . . ?
C128 C129 C130 C131 0.0 . . . . ?
C129 C130 C131 N27 0.0 . . . . ?
C129 C130 C131 C134 -176(2) . . . . ?
C127 N27 C131 C130 0.0 . . . . ?
C127 N27 C131 C134 176(2) . . . . ?
C136 N28 C132 C133 0.0 . . . . ?
Pd2 N28 C132 C133 -176.9(14) . . . . ?
N28 C132 C133 C134 0.0 . . . . ?
C132 C133 C134 C135 0.0 . . . . ?
C132 C133 C134 C131 176(2) . . . . ?
C130 C131 C134 C133 -179.7(12) . . . . ?
N27 C131 C134 C133 5(2) . . . . ?
C130 C131 C134 C135 -3(3) . . . . ?
N27 C131 C134 C135 -179.2(11) . . . . ?
C133 C134 C135 C136 0.0 . . . . ?
C131 C134 C135 C136 -176(2) . . . . ?
C134 C135 C136 N28 0.0 . . . . ?
C132 N28 C136 C135 0.0 . . . . ?
Pd2 N28 C136 C135 176.9(13) . . . . ?
C141 N29 C137 C138 0.0 . . . . ?
Pd10 N29 C137 C138 178.7(12) . . . . ?
N29 C137 C138 C139 0.0 . . . . ?
C137 C138 C139 C140 0.0 . . . . ?
C137 C138 C139 C142 178.9(19) . . . . ?
C138 C139 C140 C141 0.0 . . . . ?
C142 C139 C140 C141 -179(2) . . . . ?
C139 C140 C141 N29 0.0 . . . . ?
C137 N29 C141 C140 0.0 . . . . ?
Pd10 N29 C141 C140 -178.6(13) . . . . ?
C142 N30 C142 C143 -4(4) 4_565 . . . ?
C142 N30 C142 C139 -179.4(19) 4_565 . . . ?
C140 C139 C142 N30 -168(2) . . . . ?
C138 C139 C142 N30 14(3) . . . . ?
C140 C139 C142 C143 17(3) . . . . ?
C138 C139 C142 C143 -161.7(19) . . . . ?
N30 C142 C143 C144 -2(3) . . . . ?
C139 C142 C143 C144 173(3) . . . . ?
C142 C143 C144 C143 7(4) . . . 4_565 ?
C149 N31 C145 C146 0.0 . . . . ?
Pd12 N31 C145 C146 -178.9(12) . . . . ?
N31 C145 C146 C147 0.0 . . . . ?
C145 C146 C147 C148 0.0 . . . . ?
C145 C146 C147 C150 -180(2) . . . . ?
C146 C147 C148 C149 0.0 . . . . ?
C150 C147 C148 C149 180(2) . . . . ?
C147 C148 C149 N31 0.0 . . . . ?
C145 N31 C149 C148 0.0 . . . . ?
Pd12 N31 C149 C148 178.8(13) . . . . ?
C150 N32 C150 C151 6(6) 4_565 . . . ?
C150 N32 C150 C147 -180(2) 4_565 . . . ?
C148 C147 C150 N32 169(3) . . . . ?
C146 C147 C150 N32 -12(4) . . . . ?
C148 C147 C150 C151 -17(4) . . . . ?
C146 C147 C150 C151 163(2) . . . . ?
N32 C150 C151 C152 0(6) . . . . ?
C147 C150 C151 C152 -175(3) . . . . ?
C150 C151 C152 C151 -5(6) . . . 4_565 ?
C157 N33 C153 C154 0.0 . . . . ?
Pd8 N33 C153 C154 175.7(17) . . . . ?
N33 C153 C154 C155 0.0 . . . . ?
C153 C154 C155 C156 0.0 . . . . ?
C153 C154 C155 C158 175(3) . . . . ?
C154 C155 C156 C157 0.0 . . . . ?
C158 C155 C156 C157 -176(3) . . . . ?
C155 C156 C157 N33 0.0 . . . . ?
C153 N33 C157 C156 0.0 . . . . ?
Pd8 N33 C157 C156 -175.4(18) . . . . ?
C162 N34 C158 C159 0.0 . . . . ?
C162 N34 C158 C155 -176(3) . . . . ?
C154 C155 C158 N34 -5(3) . . . . ?
C156 C155 C158 N34 170.0(14) . . . . ?
C154 C155 C158 C159 179.0(17) . . . . ?
C156 C155 C158 C159 -6(3) . . . . ?
N34 C158 C159 C160 0.0 . . . . ?
C155 C158 C159 C160 175(3) . . . . ?
C158 C159 C160 C161 0.0 . . . . ?
C159 C160 C161 C162 0.0 . . . . ?
C160 C161 C162 N34 0.0 . . . . ?
C160 C161 C162 C165 177(3) . . . . ?
C158 N34 C162 C161 0.0 . . . . ?
C158 N34 C162 C165 -177(3) . . . . ?
C167 N35 C163 C164 0.0 . . . . ?
Pd9 N35 C163 C164 166.9(15) . . . . ?
N35 C163 C164 C165 0.0 . . . . ?
C163 C164 C165 C166 0.0 . . . . ?
C163 C164 C165 C162 -175(2) . . . . ?
C161 C162 C165 C166 5(3) . . . . ?
N34 C162 C165 C166 -177.8(15) . . . . ?
C161 C162 C165 C164 -179.9(15) . . . . ?
N34 C162 C165 C164 -3(3) . . . . ?
C164 C165 C166 C167 0.0 . . . . ?
C162 C165 C166 C167 175(2) . . . . ?
C165 C166 C167 N35 0.0 . . . . ?
C163 N35 C167 C166 0.0 . . . . ?
Pd9 N35 C167 C166 -166.2(15) . . . . ?
C172 N36 C168 C169 0.0 . . . . ?
Pd9 N36 C168 C169 179.9(13) . . . . ?
N36 C168 C169 C170 0.0 . . . . ?
C168 C169 C170 C171 0.0 . . . . ?
C168 C169 C170 C173 -170(2) . . . . ?
C169 C170 C171 C172 0.0 . . . . ?
C173 C170 C171 C172 170.9(19) . . . . ?
C170 C171 C172 N36 0.0 . . . . ?
C168 N36 C172 C171 0.0 . . . . ?
Pd9 N36 C172 C171 -179.9(14) . . . . ?
C177 N37 C173 C174 0.0 . . . . ?
C177 N37 C173 C170 -176.7(19) . . . . ?
C171 C170 C173 N37 -177.5(12) . . . . ?
C169 C170 C173 N37 -7(2) . . . . ?
C171 C170 C173 C174 6(2) . . . . ?
C169 C170 C173 C174 176.8(13) . . . . ?
N37 C173 C174 C175 0.0 . . . . ?
C170 C173 C174 C175 176(2) . . . . ?
C173 C174 C175 C176 0.0 . . . . ?
C174 C175 C176 C177 0.0 . . . . ?
C175 C176 C177 N37 0.0 . . . . ?
C175 C176 C177 C180 178(2) . . . . ?
C173 N37 C177 C176 0.0 . . . . ?
C173 N37 C177 C180 -178(2) . . . . ?
C182 N38 C178 C179 0.0 . . . . ?
Pd10 N38 C178 C179 -176.9(13) . . . . ?
N38 C178 C179 C180 0.0 . . . . ?
C178 C179 C180 C181 0.0 . . . . ?
C178 C179 C180 C177 179(2) . . . . ?
C176 C177 C180 C181 2(3) . . . . ?
N37 C177 C180 C181 -179.9(11) . . . . ?
C176 C177 C180 C179 -176.8(11) . . . . ?
N37 C177 C180 C179 1(2) . . . . ?
C179 C180 C181 C182 0.0 . . . . ?
C177 C180 C181 C182 -179(2) . . . . ?
C180 C181 C182 N38 0.0 . . . . ?
C178 N38 C182 C181 0.0 . . . . ?
Pd10 N38 C182 C181 177.0(13) . . . . ?
C187 N39 C183 C184 0.0 . . . . ?
Pd10 N39 C183 C184 -175.5(13) . . . . ?
N39 C183 C184 C185 0.0 . . . . ?
C183 C184 C185 C186 0.0 . . . . ?
C183 C184 C185 C188 177.9(19) . . . . ?
C184 C185 C186 C187 0.0 . . . . ?
C188 C185 C186 C187 -178(2) . . . . ?
C185 C186 C187 N39 0.0 . . . . ?
C183 N39 C187 C186 0.0 . . . . ?
Pd10 N39 C187 C186 175.5(13) . . . . ?
C192 N40 C188 C189 0.0 . . . . ?
C192 N40 C188 C185 -176(2) . . . . ?
C186 C185 C188 C189 -5(2) . . . . ?
C184 C185 C188 C189 176.9(11) . . . . ?
C186 C185 C188 N40 171.0(12) . . . . ?
C184 C185 C188 N40 -7(2) . . . . ?
N40 C188 C189 C190 0.0 . . . . ?
C185 C188 C189 C190 176(2) . . . . ?
C188 C189 C190 C191 0.0 . . . . ?
C189 C190 C191 C192 0.0 . . . . ?
C190 C191 C192 N40 0.0 . . . . ?
C190 C191 C192 C195 -179(2) . . . . ?
C188 N40 C192 C191 0.0 . . . . ?
C188 N40 C192 C195 179(2) . . . . ?
C197 N41 C193 C194 0.0 . . . . ?
Pd8 N41 C193 C194 -177.9(15) . . . . ?
N41 C193 C194 C195 0.0 . . . . ?
C193 C194 C195 C196 0.0 . . . . ?
C193 C194 C195 C192 179(2) . . . . ?
C191 C192 C195 C196 8(2) . . . . ?
N40 C192 C195 C196 -170.8(12) . . . . ?
C191 C192 C195 C194 -171.1(12) . . . . ?
N40 C192 C195 C194 10(2) . . . . ?
C194 C195 C196 C197 0.0 . . . . ?
C192 C195 C196 C197 -179(2) . . . . ?
C195 C196 C197 N41 0.0 . . . . ?
C193 N41 C197 C196 0.0 . . . . ?
Pd8 N41 C197 C196 178.0(15) . . . . ?
C202 N42 C198 C199 0.0 . . . . ?
Pd10 N42 C198 C199 169.3(11) . . . . ?
N42 C198 C199 C200 0.0 . . . . ?
C198 C199 C200 C201 0.0 . . . . ?
C198 C199 C200 C203 174.8(18) . . . . ?
C199 C200 C201 C202 0.0 . . . . ?
C203 C200 C201 C202 -174.6(19) . . . . ?
C200 C201 C202 N42 0.0 . . . . ?
C198 N42 C202 C201 0.0 . . . . ?
Pd10 N42 C202 C201 -169.0(11) . . . . ?
C207 N43 C203 C204 0.0 . . . . ?
C207 N43 C203 C200 176.4(19) . . . . ?
C199 C200 C203 N43 25.2(18) . . . . ?
C201 C200 C203 N43 -160.1(10) . . . . ?
C199 C200 C203 C204 -158.7(11) . . . . ?
C201 C200 C203 C204 16(2) . . . . ?
N43 C203 C204 C205 0.0 . . . . ?
C200 C203 C204 C205 -176(2) . . . . ?
C203 C204 C205 C206 0.0 . . . . ?
C204 C205 C206 C207 0.0 . . . . ?
C205 C206 C207 N43 0.0 . . . . ?
C205 C206 C207 C210 178.4(18) . . . . ?
C203 N43 C207 C206 0.0 . . . . ?
C203 N43 C207 C210 -178.4(17) . . . . ?
C212 N44 C208 C209 0.0 . . . . ?
Pd11 N44 C208 C209 171.8(11) . . . . ?
N44 C208 C209 C210 0.0 . . . . ?
C208 C209 C210 C211 0.0 . . . . ?
C208 C209 C210 C207 -177.7(16) . . . . ?
C206 C207 C210 C209 157.8(11) . . . . ?
N43 C207 C210 C209 -23.8(18) . . . . ?
C206 C207 C210 C211 -19.9(18) . . . . ?
N43 C207 C210 C211 158.6(12) . . . . ?
C209 C210 C211 C212 0.0 . . . . ?
C207 C210 C211 C212 177.6(17) . . . . ?
C210 C211 C212 N44 0.0 . . . . ?
C208 N44 C212 C211 0.0 . . . . ?
Pd11 N44 C212 C211 -171.6(11) . . . . ?
C217 N45 C213 C214 0.0 . . . . ?
Pd11 N45 C213 C214 -172.8(10) . . . . ?
N45 C213 C214 C215 0.0 . . . . ?
C213 C214 C215 C216 0.0 . . . . ?
C213 C214 C215 C218 175.0(16) . . . . ?
C214 C215 C216 C217 0.0 . . . . ?
C218 C215 C216 C217 -174.8(17) . . . . ?
C215 C216 C217 N45 0.0 . . . . ?
C213 N45 C217 C216 0.0 . . . . ?
Pd11 N45 C217 C216 172.7(11) . . . . ?
C222 N46 C218 C219 0.0 . . . . ?
C222 N46 C218 C215 176.9(17) . . . . ?
C216 C215 C218 N46 -159.6(11) . . . . ?
C214 C215 C218 N46 25.6(18) . . . . ?
C216 C215 C218 C219 17.2(19) . . . . ?
C214 C215 C218 C219 -157.7(11) . . . . ?
N46 C218 C219 C220 0.0 . . . . ?
C215 C218 C219 C220 -176.7(18) . . . . ?
C218 C219 C220 C221 0.0 . . . . ?
C219 C220 C221 C222 0.0 . . . . ?
C220 C221 C222 N46 0.0 . . . . ?
C220 C221 C222 C225 178(2) . . . . ?
C218 N46 C222 C221 0.0 . . . . ?
C218 N46 C222 C225 -178.0(19) . . . . ?
C227 N47 C223 C224 0.0 . . . . ?
Pd12 N47 C223 C224 -169.5(11) . . . . ?
N47 C223 C224 C225 0.0 . . . . ?
C223 C224 C225 C226 0.0 . . . . ?
C223 C224 C225 C222 -176.9(17) . . . . ?
C221 C222 C225 C226 -18(2) . . . . ?
N46 C222 C225 C226 159.5(10) . . . . ?
C221 C222 C225 C224 158.4(11) . . . . ?
N46 C222 C225 C224 -23.7(18) . . . . ?
C224 C225 C226 C227 0.0 . . . . ?
C222 C225 C226 C227 176.7(18) . . . . ?
C225 C226 C227 N47 0.0 . . . . ?
C223 N47 C227 C226 0.0 . . . . ?
Pd12 N47 C227 C226 169.5(11) . . . . ?
C232 N48 C228 C229 0.0 . . . . ?
Pd12 N48 C228 C229 173.3(13) . . . . ?
N48 C228 C229 C230 0.0 . . . . ?
C228 C229 C230 C231 0.0 . . . . ?
C228 C229 C230 C233 179.7(19) . . . . ?
C229 C230 C231 C232 0.0 . . . . ?
C233 C230 C231 C232 -180(2) . . . . ?
C230 C231 C232 N48 0.0 . . . . ?
C228 N48 C232 C231 0.0 . . . . ?
Pd12 N48 C232 C231 -173.3(13) . . . . ?
C237 N49 C233 C234 0.0 . . . . ?
C237 N49 C233 C230 176(2) . . . . ?
C231 C230 C233 C234 5(2) . . . . ?
C229 C230 C233 C234 -175.2(12) . . . . ?
C231 C230 C233 N49 -171.0(13) . . . . ?
C229 C230 C233 N49 9(2) . . . . ?
N49 C233 C234 C235 0.0 . . . . ?
C230 C233 C234 C235 -175(2) . . . . ?
C233 C234 C235 C236 0.0 . . . . ?
C234 C235 C236 C237 0.0 . . . . ?
C235 C236 C237 N49 0.0 . . . . ?
C235 C236 C237 C240 179(3) . . . . ?
C233 N49 C237 C236 0.0 . . . . ?
C233 N49 C237 C240 -179(2) . . . . ?
C242 N50 C238 C239 0.0 . . . . ?
Pd8 N50 C238 C239 179.3(15) . . . . ?
N50 C238 C239 C240 0.0 . . . . ?
C238 C239 C240 C241 0.0 . . . . ?
C238 C239 C240 C237 -176(2) . . . . ?
C236 C237 C240 C239 168.3(13) . . . . ?
N49 C237 C240 C239 -13(2) . . . . ?
C236 C237 C240 C241 -8(3) . . . . ?
N49 C237 C240 C241 171.0(12) . . . . ?
C239 C240 C241 C242 0.0 . . . . ?
C237 C240 C241 C242 176(2) . . . . ?
C240 C241 C242 N50 0.0 . . . . ?
C238 N50 C242 C241 0.0 . . . . ?
Pd8 N50 C242 C241 -179.3(15) . . . . ?
C247 N51 C243 C244 0.0 . . . . ?
Pd8 N51 C243 C244 -176.1(17) . . . . ?
N51 C243 C244 C245 0.0 . . . . ?
C243 C244 C245 C246 0.0 . . . . ?
C243 C244 C245 C248 -176(3) . . . . ?
C244 C245 C246 C247 0.0 . . . . ?
C248 C245 C246 C247 177(2) . . . . ?
C245 C246 C247 N51 0.0 . . . . ?
C243 N51 C247 C246 0.0 . . . . ?
Pd8 N51 C247 C246 176.1(17) . . . . ?
C252 N52 C248 C249 0.0 . . . . ?
C252 N52 C248 C245 174(2) . . . . ?
C244 C245 C248 N52 10(3) . . . . ?
C246 C245 C248 N52 -166.4(14) . . . . ?
C244 C245 C248 C249 -176.2(16) . . . . ?
C246 C245 C248 C249 7(3) . . . . ?
N52 C248 C249 C250 0.0 . . . . ?
C245 C248 C249 C250 -173(3) . . . . ?
C248 C249 C250 C251 0.0 . . . . ?
C249 C250 C251 C252 0.0 . . . . ?
C250 C251 C252 N52 0.0 . . . . ?
C250 C251 C252 C255 -169(3) . . . . ?
C248 N52 C252 C251 0.0 . . . . ?
C248 N52 C252 C255 170(2) . . . . ?
C257 N53 C253 C254 0.0 . . . . ?
Pd7 N53 C253 C254 -168.4(15) . . . . ?
N53 C253 C254 C255 0.0 . . . . ?
C253 C254 C255 C256 0.0 . . . . ?
C253 C254 C255 C252 170(2) . . . . ?
C251 C252 C255 C254 178.6(14) . . . . ?
N52 C252 C255 C254 9(3) . . . . ?
C251 C252 C255 C256 -11(3) . . . . ?
N52 C252 C255 C256 179.3(15) . . . . ?
C254 C255 C256 C257 0.0 . . . . ?
C252 C255 C256 C257 -170(2) . . . . ?
C255 C256 C257 N53 0.0 . . . . ?
C253 N53 C257 C256 0.0 . . . . ?
Pd7 N53 C257 C256 167.5(16) . . . . ?
C262 N54 C258 C259 0.0 . . . . ?
Pd7 N54 C258 C259 -176.6(13) . . . . ?
N54 C258 C259 C260 0.0 . . . . ?
C258 C259 C260 C261 0.0 . . . . ?
C258 C259 C260 C263 172(2) . . . . ?
C259 C260 C261 C262 0.0 . . . . ?
C263 C260 C261 C262 -172(2) . . . . ?
C260 C261 C262 N54 0.0 . . . . ?
C258 N54 C262 C261 0.0 . . . . ?
Pd7 N54 C262 C261 176.5(14) . . . . ?
C267 N55 C263 C264 0.0 . . . . ?
C267 N55 C263 C260 175.1(19) . . . . ?
C261 C260 C263 C264 -8(2) . . . . ?
C259 C260 C263 C264 179.3(13) . . . . ?
C261 C260 C263 N55 177.2(12) . . . . ?
C259 C260 C263 N55 5(2) . . . . ?
N55 C263 C264 C265 0.0 . . . . ?
C260 C263 C264 C265 -174(2) . . . . ?
C263 C264 C265 C266 0.0 . . . . ?
C264 C265 C266 C267 0.0 . . . . ?
C265 C266 C267 N55 0.0 . . . . ?
C265 C266 C267 C270 -177(2) . . . . ?
C263 N55 C267 C266 0.0 . . . . ?
C263 N55 C267 C270 177(2) . . . . ?
C272 N56 C268 C269 0.0 . . . . ?
Pd12 N56 C268 C269 176.2(14) . . . . ?
N56 C268 C269 C270 0.0 . . . . ?
C268 C269 C270 C271 0.0 . . . . ?
C268 C269 C270 C267 179(2) . . . . ?
C266 C267 C270 C271 -2(3) . . . . ?
N55 C267 C270 C271 -178.3(12) . . . . ?
C266 C267 C270 C269 179.1(11) . . . . ?
N55 C267 C270 C269 2(2) . . . . ?
C269 C270 C271 C272 0.0 . . . . ?
C267 C270 C271 C272 -179(2) . . . . ?
C270 C271 C272 N56 0.0 . . . . ?
C268 N56 C272 C271 0.0 . . . . ?
Pd12 N56 C272 C271 -176.2(14) . . . . ?
C277 N57 C273 C274 0.0 . . . . ?
Pd16 N57 C273 C274 179.6(12) . . . . ?
N57 C273 C274 C275 0.0 . . . . ?
C273 C274 C275 C276 0.0 . . . . ?
C273 C274 C275 C278 178.0(19) . . . . ?
C274 C275 C276 C277 0.0 . . . . ?
C278 C275 C276 C277 -178.0(19) . . . . ?
C275 C276 C277 N57 0.0 . . . . ?
C273 N57 C277 C276 0.0 . . . . ?
Pd16 N57 C277 C276 -179.6(13) . . . . ?
C278 N58 C278 C279 8(4) 4_575 . . . ?
C278 N58 C278 C275 179.0(17) 4_575 . . . ?
C276 C275 C278 N58 167.9(18) . . . . ?
C274 C275 C278 N58 -10(3) . . . . ?
C276 C275 C278 C279 -21(3) . . . . ?
C274 C275 C278 C279 160.6(17) . . . . ?
N58 C278 C279 C280 1(3) . . . . ?
C275 C278 C279 C280 -169(3) . . . . ?
C278 C279 C280 C279 -10(4) . . . 4_575 ?
C285 N59 C281 C282 0.0 . . . . ?
Pd14 N59 C281 C282 177.5(12) . . . . ?
N59 C281 C282 C283 0.0 . . . . ?
C281 C282 C283 C284 0.0 . . . . ?
C281 C282 C283 C286 -179.0(19) . . . . ?
C282 C283 C284 C285 0.0 . . . . ?
C286 C283 C284 C285 179(2) . . . . ?
C283 C284 C285 N59 0.0 . . . . ?
C281 N59 C285 C284 0.0 . . . . ?
Pd14 N59 C285 C284 -177.4(13) . . . . ?
C286 N60 C286 C287 -6(4) 4_575 . . . ?
C286 N60 C286 C283 -178(2) 4_575 . . . ?
C282 C283 C286 N60 12(3) . . . . ?
C284 C283 C286 N60 -167(2) . . . . ?
C282 C283 C286 C287 -159.3(19) . . . . ?
C284 C283 C286 C287 22(3) . . . . ?
N60 C286 C287 C288 -1(3) . . . . ?
C283 C286 C287 C288 169(3) . . . . ?
C286 C287 C288 C287 8(4) . . . 4_575 ?
C293 N61 C289 C290 0.0 . . . . ?
Pd16 N61 C289 C290 176.7(13) . . . . ?
N61 C289 C290 C291 0.0 . . . . ?
C289 C290 C291 C292 0.0 . . . . ?
C289 C290 C291 C294 -179(2) . . . . ?
C290 C291 C292 C293 0.0 . . . . ?
C294 C291 C292 C293 179(2) . . . . ?
C291 C292 C293 N61 0.0 . . . . ?
C289 N61 C293 C292 0.0 . . . . ?
Pd16 N61 C293 C292 -176.8(13) . . . . ?
C298 N62 C294 C295 0.0 . . . . ?
C298 N62 C294 C291 177(2) . . . . ?
C290 C291 C294 C295 176.8(12) . . . . ?
C292 C291 C294 C295 -2(3) . . . . ?
C290 C291 C294 N62 0(2) . . . . ?
C292 C291 C294 N62 -179.7(11) . . . . ?
N62 C294 C295 C296 0.0 . . . . ?
C291 C294 C295 C296 -177(2) . . . . ?
C294 C295 C296 C297 0.0 . . . . ?
C295 C296 C297 C298 0.0 . . . . ?
C296 C297 C298 N62 0.0 . . . . ?
C296 C297 C298 C301 -175(2) . . . . ?
C294 N62 C298 C297 0.0 . . . . ?
C294 N62 C298 C301 175.4(19) . . . . ?
C303 N63 C299 C300 0.0 . . . . ?
Pd17 N63 C299 C300 -177.9(13) . . . . ?
N63 C299 C300 C301 0.0 . . . . ?
C299 C300 C301 C302 0.0 . . . . ?
C299 C300 C301 C298 171(2) . . . . ?
C297 C298 C301 C302 -6(2) . . . . ?
N62 C298 C301 C302 178.7(13) . . . . ?
C297 C298 C301 C300 -177.8(12) . . . . ?
N62 C298 C301 C300 7(2) . . . . ?
C300 C301 C302 C303 0.0 . . . . ?
C298 C301 C302 C303 -171(2) . . . . ?
C301 C302 C303 N63 0.0 . . . . ?
C299 N63 C303 C302 0.0 . . . . ?
Pd17 N63 C303 C302 177.8(14) . . . . ?
C308 N64 C304 C305 0.0 . . . . ?
Pd17 N64 C304 C305 -169.5(15) . . . . ?
N64 C304 C305 C306 0.0 . . . . ?
C304 C305 C306 C307 0.0 . . . . ?
C304 C305 C306 C309 173(2) . . . . ?
C305 C306 C307 C308 0.0 . . . . ?
C309 C306 C307 C308 -174(2) . . . . ?
C306 C307 C308 N64 0.0 . . . . ?
C304 N64 C308 C307 0.0 . . . . ?
Pd17 N64 C308 C307 168.7(15) . . . . ?
C313 N65 C309 C310 0.0 . . . . ?
C313 N65 C309 C306 176(2) . . . . ?
C307 C306 C309 C310 -10(3) . . . . ?
C305 C306 C309 C310 176.6(15) . . . . ?
C307 C306 C309 N65 173.9(14) . . . . ?
C305 C306 C309 N65 1(3) . . . . ?
N65 C309 C310 C311 0.0 . . . . ?
C306 C309 C310 C311 -176(3) . . . . ?
C309 C310 C311 C312 0.0 . . . . ?
C310 C311 C312 C313 0.0 . . . . ?
C311 C312 C313 N65 0.0 . . . . ?
C311 C312 C313 C316 -178(3) . . . . ?
C309 N65 C313 C312 0.0 . . . . ?
C309 N65 C313 C316 178(3) . . . . ?
C318 N66 C314 C315 0.0 . . . . ?
Pd18 N66 C314 C315 -174.0(18) . . . . ?
N66 C314 C315 C316 0.0 . . . . ?
C314 C315 C316 C317 0.0 . . . . ?
C314 C315 C316 C313 -173(3) . . . . ?
C312 C313 C316 C317 10(3) . . . . ?
N65 C313 C316 C317 -168.7(14) . . . . ?
C312 C313 C316 C315 -177.1(16) . . . . ?
N65 C313 C316 C315 5(3) . . . . ?
C315 C316 C317 C318 0.0 . . . . ?
C313 C316 C317 C318 174(2) . . . . ?
C316 C317 C318 N66 0.0 . . . . ?
C314 N66 C318 C317 0.0 . . . . ?
Pd18 N66 C318 C317 173.9(18) . . . . ?
C323 N67 C319 C320 0.0 . . . . ?
Pd18 N67 C319 C320 175.0(15) . . . . ?
N67 C319 C320 C321 0.0 . . . . ?
C319 C320 C321 C322 0.0 . . . . ?
C319 C320 C321 C324 175(2) . . . . ?
C320 C321 C322 C323 0.0 . . . . ?
C324 C321 C322 C323 -174(2) . . . . ?
C321 C322 C323 N67 0.0 . . . . ?
C319 N67 C323 C322 0.0 . . . . ?
Pd18 N67 C323 C322 -175.2(14) . . . . ?
C328 N68 C324 C325 0.0 . . . . ?
C328 N68 C324 C321 174(2) . . . . ?
C322 C321 C324 N68 169.9(13) . . . . ?
C320 C321 C324 N68 -4(2) . . . . ?
C322 C321 C324 C325 -16(2) . . . . ?
C320 C321 C324 C325 169.3(12) . . . . ?
N68 C324 C325 C326 0.0 . . . . ?
C321 C324 C325 C326 -174(2) . . . . ?
C324 C325 C326 C327 0.0 . . . . ?
C325 C326 C327 C328 0.0 . . . . ?
C326 C327 C328 N68 0.0 . . . . ?
C326 C327 C328 C331 -175(2) . . . . ?
C324 N68 C328 C327 0.0 . . . . ?
C324 N68 C328 C331 175(2) . . . . ?
C333 N69 C329 C330 0.0 . . . . ?
Pd16 N69 C329 C330 174.1(13) . . . . ?
N69 C329 C330 C331 0.0 . . . . ?
C329 C330 C331 C332 0.0 . . . . ?
C329 C330 C331 C328 -180(2) . . . . ?
C327 C328 C331 C332 6(2) . . . . ?
N68 C328 C331 C332 -168.5(13) . . . . ?
C327 C328 C331 C330 -173.7(12) . . . . ?
N68 C328 C331 C330 11(2) . . . . ?
C330 C331 C332 C333 0.0 . . . . ?
C328 C331 C332 C333 180(2) . . . . ?
C331 C332 C333 N69 0.0 . . . . ?
C329 N69 C333 C332 0.0 . . . . ?
Pd16 N69 C333 C332 -174.2(13) . . . . ?
C338 N70 C334 C335 0.0 . . . . ?
Pd16 N70 C334 C335 -168.5(11) . . . . ?
N70 C334 C335 C336 0.0 . . . . ?
C334 C335 C336 C337 0.0 . . . . ?
C334 C335 C336 C339 -173.5(18) . . . . ?
C335 C336 C337 C338 0.0 . . . . ?
C339 C336 C337 C338 173.1(19) . . . . ?
C336 C337 C338 N70 0.0 . . . . ?
C334 N70 C338 C337 0.0 . . . . ?
Pd16 N70 C338 C337 168.7(11) . . . . ?
C343 N71 C339 C340 0.0 . . . . ?
C343 N71 C339 C336 -176.0(19) . . . . ?
C335 C336 C339 C340 157.6(11) . . . . ?
C337 C336 C339 C340 -16(2) . . . . ?
C335 C336 C339 N71 -26.7(17) . . . . ?
C337 C336 C339 N71 159.9(10) . . . . ?
N71 C339 C340 C341 0.0 . . . . ?
C336 C339 C340 C341 175(2) . . . . ?
C339 C340 C341 C342 0.0 . . . . ?
C340 C341 C342 C343 0.0 . . . . ?
C341 C342 C343 N71 0.0 . . . . ?
C341 C342 C343 C346 -176.0(18) . . . . ?
C339 N71 C343 C342 0.0 . . . . ?
C339 N71 C343 C346 176.1(17) . . . . ?
C348 N72 C344 C345 0.0 . . . . ?
Pd15 N72 C344 C345 -172.4(11) . . . . ?
N72 C344 C345 C346 0.0 . . . . ?
C344 C345 C346 C347 0.0 . . . . ?
C344 C345 C346 C343 174.3(16) . . . . ?
C342 C343 C346 C345 -157.7(10) . . . . ?
N71 C343 C346 C345 26.2(18) . . . . ?
C342 C343 C346 C347 16.4(19) . . . . ?
N71 C343 C346 C347 -159.7(12) . . . . ?
C345 C346 C347 C348 0.0 . . . . ?
C343 C346 C347 C348 -173.9(17) . . . . ?
C346 C347 C348 N72 0.0 . . . . ?
C344 N72 C348 C347 0.0 . . . . ?
Pd15 N72 C348 C347 172.2(11) . . . . ?
C353 N73 C349 C350 0.0 . . . . ?
Pd15 N73 C349 C350 173.3(11) . . . . ?
N73 C349 C350 C351 0.0 . . . . ?
C349 C350 C351 C352 0.0 . . . . ?
C349 C350 C351 C354 -177.3(16) . . . . ?
C350 C351 C352 C353 0.0 . . . . ?
C354 C351 C352 C353 177.0(18) . . . . ?
C351 C352 C353 N73 0.0 . . . . ?
C349 N73 C353 C352 0.0 . . . . ?
Pd15 N73 C353 C352 -173.1(11) . . . . ?
C358 N74 C354 C355 0.0 . . . . ?
C358 N74 C354 C351 -178.0(18) . . . . ?
C352 C351 C354 N74 158.7(12) . . . . ?
C350 C351 C354 N74 -24.2(19) . . . . ?
C352 C351 C354 C355 -19.3(19) . . . . ?
C350 C351 C354 C355 157.8(11) . . . . ?
N74 C354 C355 C356 0.0 . . . . ?
C351 C354 C355 C356 178.0(18) . . . . ?
C354 C355 C356 C357 0.0 . . . . ?
C355 C356 C357 C358 0.0 . . . . ?
C356 C357 C358 N74 0.0 . . . . ?
C356 C357 C358 C361 -177(2) . . . . ?
C354 N74 C358 C357 0.0 . . . . ?
C354 N74 C358 C361 177(2) . . . . ?
C363 N75 C359 C360 0.0 . . . . ?
Pd14 N75 C359 C360 169.0(11) . . . . ?
N75 C359 C360 C361 0.0 . . . . ?
C359 C360 C361 C362 0.0 . . . . ?
C359 C360 C361 C358 175.3(19) . . . . ?
C357 C358 C361 C360 -158.2(12) . . . . ?
N74 C358 C361 C360 24.8(19) . . . . ?
C357 C358 C361 C362 17(2) . . . . ?
N74 C358 C361 C362 -160.0(10) . . . . ?
C360 C361 C362 C363 0.0 . . . . ?
C358 C361 C362 C363 -175.2(19) . . . . ?
C361 C362 C363 N75 0.0 . . . . ?
C359 N75 C363 C362 0.0 . . . . ?
Pd14 N75 C363 C362 -168.8(11) . . . . ?
C368 N76 C364 C365 0.0 . . . . ?
Pd14 N76 C364 C365 -176.3(13) . . . . ?
N76 C364 C365 C366 0.0 . . . . ?
C364 C365 C366 C367 0.0 . . . . ?
C364 C365 C366 C369 176.6(19) . . . . ?
C365 C366 C367 C368 0.0 . . . . ?
C369 C366 C367 C368 -176.5(19) . . . . ?
C366 C367 C368 N76 0.0 . . . . ?
C364 N76 C368 C367 0.0 . . . . ?
Pd14 N76 C368 C367 176.3(13) . . . . ?
C373 N77 C369 C370 0.0 . . . . ?
C373 N77 C369 C366 -179(2) . . . . ?
C367 C366 C369 C370 -7(2) . . . . ?
C365 C366 C369 C370 176.4(11) . . . . ?
C367 C366 C369 N77 171.8(12) . . . . ?
C365 C366 C369 N77 -5(2) . . . . ?
N77 C369 C370 C371 0.0 . . . . ?
C366 C369 C370 C371 179(2) . . . . ?
C369 C370 C371 C372 0.0 . . . . ?
C370 C371 C372 C373 0.0 . . . . ?
C371 C372 C373 N77 0.0 . . . . ?
C371 C372 C373 C376 -176(2) . . . . ?
C369 N77 C373 C372 0.0 . . . . ?
C369 N77 C373 C376 176(2) . . . . ?
C378 N78 C374 C375 0.0 . . . . ?
Pd18 N78 C374 C375 -175.8(16) . . . . ?
N78 C374 C375 C376 0.0 . . . . ?
C374 C375 C376 C377 0.0 . . . . ?
C374 C375 C376 C373 180(2) . . . . ?
C372 C373 C376 C377 6(2) . . . . ?
N77 C373 C376 C377 -169.4(12) . . . . ?
C372 C373 C376 C375 -173.3(11) . . . . ?
N77 C373 C376 C375 11(2) . . . . ?
C375 C376 C377 C378 0.0 . . . . ?
C373 C376 C377 C378 -180(2) . . . . ?
C376 C377 C378 N78 0.0 . . . . ?
C374 N78 C378 C377 0.0 . . . . ?
Pd18 N78 C378 C377 176.1(15) . . . . ?
C383 N79 C379 C380 0.0 . . . . ?
Pd18 N79 C379 C380 176.0(17) . . . . ?
N79 C379 C380 C381 0.0 . . . . ?
C379 C380 C381 C382 0.0 . . . . ?
C379 C380 C381 C384 173(3) . . . . ?
C380 C381 C382 C383 0.0 . . . . ?
C384 C381 C382 C383 -174(3) . . . . ?
C381 C382 C383 N79 0.0 . . . . ?
C379 N79 C383 C382 0.0 . . . . ?
Pd18 N79 C383 C382 -175.8(18) . . . . ?
C388 N80 C384 C385 0.0 . . . . ?
C388 N80 C384 C381 -179(3) . . . . ?
C380 C381 C384 C385 176.1(16) . . . . ?
C382 C381 C384 C385 -11(3) . . . . ?
C380 C381 C384 N80 -5(3) . . . . ?
C382 C381 C384 N80 168.7(14) . . . . ?
N80 C384 C385 C386 0.0 . . . . ?
C381 C384 C385 C386 179(3) . . . . ?
C384 C385 C386 C387 0.0 . . . . ?
C385 C386 C387 C388 0.0 . . . . ?
C386 C387 C388 N80 0.0 . . . . ?
C386 C387 C388 C391 177(3) . . . . ?
C384 N80 C388 C387 0.0 . . . . ?
C384 N80 C388 C391 -177(2) . . . . ?
C393 N81 C389 C390 0.0 . . . . ?
Pd13 N81 C389 C390 167.7(14) . . . . ?
N81 C389 C390 C391 0.0 . . . . ?
C389 C390 C391 C392 0.0 . . . . ?
C389 C390 C391 C388 -175(2) . . . . ?
C387 C388 C391 C390 -177.8(15) . . . . ?
N80 C388 C391 C390 -1(3) . . . . ?
C387 C388 C391 C392 7(3) . . . . ?
N80 C388 C391 C392 -176.2(15) . . . . ?
C390 C391 C392 C393 0.0 . . . . ?
C388 C391 C392 C393 176(2) . . . . ?
C391 C392 C393 N81 0.0 . . . . ?
C389 N81 C393 C392 0.0 . . . . ?
Pd13 N81 C393 C392 -166.7(15) . . . . ?
C398 N82 C394 C395 0.0 . . . . ?
Pd13 N82 C394 C395 178.5(13) . . . . ?
N82 C394 C395 C396 0.0 . . . . ?
C394 C395 C396 C397 0.0 . . . . ?
C394 C395 C396 C399 -169(2) . . . . ?
C395 C396 C397 C398 0.0 . . . . ?
C399 C396 C397 C398 170(2) . . . . ?
C396 C397 C398 N82 0.0 . . . . ?
C394 N82 C398 C397 0.0 . . . . ?
Pd13 N82 C398 C397 -178.4(14) . . . . ?
C403 N83 C399 C400 0.0 . . . . ?
C403 N83 C399 C396 -174.7(19) . . . . ?
C397 C396 C399 C400 8(2) . . . . ?
C395 C396 C399 C400 177.4(13) . . . . ?
C397 C396 C399 N83 -178.5(12) . . . . ?
C395 C396 C399 N83 -9(2) . . . . ?
N83 C399 C400 C401 0.0 . . . . ?
C396 C399 C400 C401 173(2) . . . . ?
C399 C400 C401 C402 0.0 . . . . ?
C400 C401 C402 C403 0.0 . . . . ?
C401 C402 C403 N83 0.0 . . . . ?
C401 C402 C403 C406 178(2) . . . . ?
C399 N83 C403 C402 0.0 . . . . ?
C399 N83 C403 C406 -178(2) . . . . ?
C408 N84 C404 C405 0.0 . . . . ?
Pd14 N84 C404 C405 -177.4(13) . . . . ?
N84 C404 C405 C406 0.0 . . . . ?
C404 C405 C406 C407 0.0 . . . . ?
C404 C405 C406 C403 177(2) . . . . ?
C402 C403 C406 C405 -178.9(11) . . . . ?
N83 C403 C406 C405 -1(2) . . . . ?
C402 C403 C406 C407 -2(3) . . . . ?
N83 C403 C406 C407 175.8(12) . . . . ?
C405 C406 C407 C408 0.0 . . . . ?
C403 C406 C407 C408 -176(2) . . . . ?
C406 C407 C408 N84 0.0 . . . . ?
C404 N84 C408 C407 0.0 . . . . ?
Pd14 N84 C408 C407 177.5(13) . . . . ?
C117 N25 Pd1 N25 96.8(12) . . . 4_565 ?
C121 N25 Pd1 N25 -98.0(12) . . . 4_565 ?
C117 N25 Pd1 N26 38(66) . . . 4_565 ?
C121 N25 Pd1 N26 -156(100) . . . 4_565 ?
C117 N25 Pd1 N26 -82.3(14) . . . . ?
C121 N25 Pd1 N26 82.9(15) . . . . ?
C122 N26 Pd1 N25 30(67) . . . 4_565 ?
C126 N26 Pd1 N25 -152(66) . . . 4_565 ?
C122 N26 Pd1 N25 88.7(14) . . . . ?
C126 N26 Pd1 N25 -93.2(14) . . . . ?
C122 N26 Pd1 N26 -90.4(14) . . . 4_565 ?
C126 N26 Pd1 N26 87.8(14) . . . 4_565 ?
C132 N28 Pd2 N20 -89.7(11) . . . . ?
C136 N28 Pd2 N20 93.4(11) . . . . ?
C132 N28 Pd2 N3 88.4(11) . . . . ?
C136 N28 Pd2 N3 -88.5(11) . . . . ?
C132 N28 Pd2 N19 -16(13) . . . . ?
C136 N28 Pd2 N19 167(13) . . . . ?
C92 N20 Pd2 N28 84.5(12) . . . . ?
C96 N20 Pd2 N28 -89.0(11) . . . . ?
C92 N20 Pd2 N3 14(22) . . . . ?
C96 N20 Pd2 N3 -160(21) . . . . ?
C92 N20 Pd2 N19 -92.5(11) . . . . ?
C96 N20 Pd2 N19 94.0(11) . . . . ?
C9 N3 Pd2 N28 -92.3(11) . . . . ?
C13 N3 Pd2 N28 85.1(12) . . . . ?
C9 N3 Pd2 N20 -21(22) . . . . ?
C13 N3 Pd2 N20 156(21) . . . . ?
C9 N3 Pd2 N19 84.7(10) . . . . ?
C13 N3 Pd2 N19 -97.9(12) . . . . ?
C87 N19 Pd2 N28 16(13) . . . . ?
C91 N19 Pd2 N28 -175(100) . . . . ?
C87 N19 Pd2 N20 89.7(10) . . . . ?
C91 N19 Pd2 N20 -101.4(10) . . . . ?
C87 N19 Pd2 N3 -88.5(9) . . . . ?
C91 N19 Pd2 N3 80.5(10) . . . . ?
C72 N16 Pd3 N16 -92.1(10) . . . 4_565 ?
C76 N16 Pd3 N16 93.6(10) . . . 4_565 ?
C72 N16 Pd3 N17 89.7(11) . . . . ?
C76 N16 Pd3 N17 -84.5(10) . . . . ?
C72 N16 Pd3 N17 -174(100) . . . 4_565 ?
C76 N16 Pd3 N17 12(19) . . . 4_565 ?
C77 N17 Pd3 N16 -89.9(11) . . . . ?
C81 N17 Pd3 N16 84.0(10) . . . . ?
C77 N17 Pd3 N16 -172(100) . . . 4_565 ?
C81 N17 Pd3 N16 2(19) . . . 4_565 ?
C77 N17 Pd3 N17 92.0(10) . . . 4_565 ?
C81 N17 Pd3 N17 -94.1(10) . . . 4_565 ?
C1 N1 Pd4 N5 91.8(11) . . . . ?
C5 N1 Pd4 N5 -87.0(12) . . . . ?
C1 N1 Pd4 N14 -84.8(10) . . . . ?
C5 N1 Pd4 N14 96.4(12) . . . . ?
C1 N1 Pd4 N13 52(17) . . . . ?
C5 N1 Pd4 N13 -127(16) . . . . ?
C17 N5 Pd4 N1 -90.3(11) . . . . ?
C21 N5 Pd4 N1 89.3(11) . . . . ?
C17 N5 Pd4 N14 -5(13) . . . . ?
C21 N5 Pd4 N14 175(100) . . . . ?
C17 N5 Pd4 N13 87.9(11) . . . . ?
C21 N5 Pd4 N13 -92.5(11) . . . . ?
C62 N14 Pd4 N1 88.8(9) . . . . ?
C66 N14 Pd4 N1 -80.7(10) . . . . ?
C62 N14 Pd4 N5 3(12) . . . . ?
C66 N14 Pd4 N5 -166(12) . . . . ?
C62 N14 Pd4 N13 -89.3(9) . . . . ?
C66 N14 Pd4 N13 101.2(10) . . . . ?
C57 N13 Pd4 N1 -44(17) . . . . ?
C61 N13 Pd4 N1 131(17) . . . . ?
C57 N13 Pd4 N5 -84.0(12) . . . . ?
C61 N13 Pd4 N5 91.0(12) . . . . ?
C57 N13 Pd4 N14 92.6(11) . . . . ?
C61 N13 Pd4 N14 -92.4(11) . . . . ?
C32 N8 Pd5 N8 -95.5(13) . . . 4_565 ?
C36 N8 Pd5 N8 98.5(12) . . . 4_565 ?
C32 N8 Pd5 N7 83.3(15) . . . . ?
C36 N8 Pd5 N7 -82.8(15) . . . . ?
C32 N8 Pd5 N7 -43(44) . . . 4_565 ?
C36 N8 Pd5 N7 151(43) . . . 4_565 ?
C27 N7 Pd5 N8 -36(44) . . . 4_565 ?
C31 N7 Pd5 N8 146(43) . . . 4_565 ?
C27 N7 Pd5 N8 -88.9(14) . . . . ?
C31 N7 Pd5 N8 93.4(14) . . . . ?
C27 N7 Pd5 N7 89.8(14) . . . 4_565 ?
C31 N7 Pd5 N7 -87.9(14) . . . 4_565 ?
C42 N10 Pd6 N22 157(33) . . . . ?
C46 N10 Pd6 N22 -17(34) . . . . ?
C42 N10 Pd6 N23 93.2(14) . . . . ?
C46 N10 Pd6 N23 -80.1(15) . . . . ?
C42 N10 Pd6 N11 -87.6(13) . . . . ?
C46 N10 Pd6 N11 99.1(14) . . . . ?
C102 N22 Pd6 N10 -153(33) . . . . ?
C106 N22 Pd6 N10 31(34) . . . . ?
C102 N22 Pd6 N23 -89.0(14) . . . . ?
C106 N22 Pd6 N23 94.4(13) . . . . ?
C102 N22 Pd6 N11 91.8(13) . . . . ?
C106 N22 Pd6 N11 -84.7(12) . . . . ?
C107 N23 Pd6 N10 -93.0(15) . . . . ?
C111 N23 Pd6 N10 83.9(15) . . . . ?
C107 N23 Pd6 N22 88.6(14) . . . . ?
C111 N23 Pd6 N22 -94.4(15) . . . . ?
C107 N23 Pd6 N11 -134(54) . . . . ?
C111 N23 Pd6 N11 42(54) . . . . ?
C47 N11 Pd6 N10 87.4(14) . . . . ?
C51 N11 Pd6 N10 -94.9(13) . . . . ?
C47 N11 Pd6 N22 -94.2(14) . . . . ?
C51 N11 Pd6 N22 83.4(12) . . . . ?
C47 N11 Pd6 N23 129(53) . . . . ?
C51 N11 Pd6 N23 -53(54) . . . . ?
C253 N53 Pd7 N53 -97.1(12) . . . 4_565 ?
C257 N53 Pd7 N53 94.9(13) . . . 4_565 ?
C253 N53 Pd7 N54 -36(39) . . . 4_565 ?
C257 N53 Pd7 N54 156(38) . . . 4_565 ?
C253 N53 Pd7 N54 81.6(14) . . . . ?
C257 N53 Pd7 N54 -86.4(15) . . . . ?
C258 N54 Pd7 N53 -89.4(14) . . . . ?
C262 N54 Pd7 N53 94.1(14) . . . . ?
C258 N54 Pd7 N53 -29(39) . . . 4_565 ?
C262 N54 Pd7 N53 155(39) . . . 4_565 ?
C258 N54 Pd7 N54 89.3(14) . . . 4_565 ?
C262 N54 Pd7 N54 -87.3(14) . . . 4_565 ?
C238 N50 Pd8 N41 -92.0(13) . . . . ?
C242 N50 Pd8 N41 87.3(12) . . . . ?
C238 N50 Pd8 N33 148(39) . . . . ?
C242 N50 Pd8 N33 -32(40) . . . . ?
C238 N50 Pd8 N51 87.1(14) . . . . ?
C242 N50 Pd8 N51 -93.6(13) . . . . ?
C193 N41 Pd8 N50 92.6(14) . . . . ?
C197 N41 Pd8 N50 -85.3(12) . . . . ?
C193 N41 Pd8 N33 -88.8(14) . . . . ?
C197 N41 Pd8 N33 93.3(13) . . . . ?
C193 N41 Pd8 N51 -46(49) . . . . ?
C197 N41 Pd8 N51 136(49) . . . . ?
C153 N33 Pd8 N50 -154(39) . . . . ?
C157 N33 Pd8 N50 21(40) . . . . ?
C153 N33 Pd8 N41 86.2(14) . . . . ?
C157 N33 Pd8 N41 -98.2(15) . . . . ?
C153 N33 Pd8 N51 -92.9(14) . . . . ?
C157 N33 Pd8 N51 82.7(16) . . . . ?
C243 N51 Pd8 N50 -87.6(14) . . . . ?
C247 N51 Pd8 N50 96.3(14) . . . . ?
C243 N51 Pd8 N41 51(50) . . . . ?
C247 N51 Pd8 N41 -125(49) . . . . ?
C243 N51 Pd8 N33 93.8(15) . . . . ?
C247 N51 Pd8 N33 -82.3(15) . . . . ?
C163 N35 Pd9 N35 96.9(12) . . . 4_565 ?
C167 N35 Pd9 N35 -96.5(13) . . . 4_565 ?
C163 N35 Pd9 N36 -82.4(15) . . . . ?
C167 N35 Pd9 N36 84.2(15) . . . . ?
C163 N35 Pd9 N36 3(70) . . . 4_565 ?
C167 N35 Pd9 N36 170(100) . . . 4_565 ?
C168 N36 Pd9 N35 87.7(14) . . . . ?
C172 N36 Pd9 N35 -92.3(15) . . . . ?
C168 N36 Pd9 N35 -6(70) . . . 4_565 ?
C172 N36 Pd9 N35 174(100) . . . 4_565 ?
C168 N36 Pd9 N36 -91.5(13) . . . 4_565 ?
C172 N36 Pd9 N36 88.4(14) . . . 4_565 ?
C178 N38 Pd10 N29 88.6(11) . . . . ?
C182 N38 Pd10 N29 -88.3(11) . . . . ?
C178 N38 Pd10 N39 -89.7(11) . . . . ?
C182 N38 Pd10 N39 93.4(11) . . . . ?
C178 N38 Pd10 N42 -13(12) . . . . ?
C182 N38 Pd10 N42 170(11) . . . . ?
C137 N29 Pd10 N38 -90.9(11) . . . . ?
C141 N29 Pd10 N38 87.7(12) . . . . ?
C137 N29 Pd10 N39 -57(16) . . . . ?
C141 N29 Pd10 N39 122(16) . . . . ?
C137 N29 Pd10 N42 85.7(11) . . . . ?
C141 N29 Pd10 N42 -95.7(12) . . . . ?
C183 N39 Pd10 N38 84.5(12) . . . . ?
C187 N39 Pd10 N38 -90.9(12) . . . . ?
C183 N39 Pd10 N29 50(16) . . . . ?
C187 N39 Pd10 N29 -125(16) . . . . ?
C183 N39 Pd10 N42 -92.1(12) . . . . ?
C187 N39 Pd10 N42 92.5(11) . . . . ?
C198 N42 Pd10 N38 13(12) . . . . ?
C202 N42 Pd10 N38 -177(100) . . . . ?
C198 N42 Pd10 N29 -88.3(9) . . . . ?
C202 N42 Pd10 N29 80.9(10) . . . . ?
C198 N42 Pd10 N39 89.9(9) . . . . ?
C202 N42 Pd10 N39 -100.9(10) . . . . ?
C213 N45 Pd11 N45 -93.2(10) . . . 4_565 ?
C217 N45 Pd11 N45 94.1(10) . . . 4_565 ?
C213 N45 Pd11 N44 177(100) . . . 4_565 ?
C217 N45 Pd11 N44 4(15) . . . 4_565 ?
C213 N45 Pd11 N44 89.3(11) . . . . ?
C217 N45 Pd11 N44 -83.5(11) . . . . ?
C208 N44 Pd11 N45 -88.3(11) . . . . ?
C212 N44 Pd11 N45 83.5(10) . . . . ?
C208 N44 Pd11 N45 -178(100) . . . 4_565 ?
C212 N44 Pd11 N45 -6(15) . . . 4_565 ?
C208 N44 Pd11 N44 94.2(10) . . . 4_565 ?
C212 N44 Pd11 N44 -94.1(10) . . . 4_565 ?
C268 N56 Pd12 N31 -88.9(11) . . . . ?
C272 N56 Pd12 N31 87.3(11) . . . . ?
C268 N56 Pd12 N48 89.6(11) . . . . ?
C272 N56 Pd12 N48 -94.2(11) . . . . ?
C268 N56 Pd12 N47 15(10) . . . . ?
C272 N56 Pd12 N47 -169(9) . . . . ?
C145 N31 Pd12 N56 91.1(11) . . . . ?
C149 N31 Pd12 N56 -87.8(13) . . . . ?
C145 N31 Pd12 N48 56(19) . . . . ?
C149 N31 Pd12 N48 -123(19) . . . . ?
C145 N31 Pd12 N47 -84.9(11) . . . . ?
C149 N31 Pd12 N47 96.3(12) . . . . ?
C228 N48 Pd12 N56 -83.3(12) . . . . ?
C232 N48 Pd12 N56 90.1(12) . . . . ?
C228 N48 Pd12 N31 -48(19) . . . . ?
C232 N48 Pd12 N31 125(19) . . . . ?
C228 N48 Pd12 N47 92.8(12) . . . . ?
C232 N48 Pd12 N47 -93.9(11) . . . . ?
C223 N47 Pd12 N56 -15(10) . . . . ?
C227 N47 Pd12 N56 175(58) . . . . ?
C223 N47 Pd12 N31 88.8(9) . . . . ?
C227 N47 Pd12 N31 -80.8(9) . . . . ?
C223 N47 Pd12 N48 -89.6(10) . . . . ?
C227 N47 Pd12 N48 100.9(10) . . . . ?
C389 N81 Pd13 N81 97.1(12) . . . 4_575 ?
C393 N81 Pd13 N81 -95.7(13) . . . 4_575 ?
C389 N81 Pd13 N82 -82.6(14) . . . . ?
C393 N81 Pd13 N82 84.6(15) . . . . ?
C389 N81 Pd13 N82 58(100) . . . 4_575 ?
C393 N81 Pd13 N82 -135(100) . . . 4_575 ?
C394 N82 Pd13 N81 49(100) . . . 4_575 ?
C398 N82 Pd13 N81 -132(100) . . . 4_575 ?
C394 N82 Pd13 N81 88.8(14) . . . . ?
C398 N82 Pd13 N81 -92.7(14) . . . . ?
C394 N82 Pd13 N82 -90.9(14) . . . 4_575 ?
C398 N82 Pd13 N82 87.5(14) . . . 4_575 ?
C404 N84 Pd14 N59 90.9(11) . . . . ?
C408 N84 Pd14 N59 -86.5(10) . . . . ?
C404 N84 Pd14 N76 -87.5(11) . . . . ?
C408 N84 Pd14 N76 95.1(11) . . . . ?
C404 N84 Pd14 N75 -12(8) . . . . ?
C408 N84 Pd14 N75 170(7) . . . . ?
C281 N59 Pd14 N84 -90.0(11) . . . . ?
C285 N59 Pd14 N84 87.4(12) . . . . ?
C281 N59 Pd14 N76 -55(18) . . . . ?
C285 N59 Pd14 N76 122(18) . . . . ?
C281 N59 Pd14 N75 84.9(11) . . . . ?
C285 N59 Pd14 N75 -97.6(12) . . . . ?
C364 N76 Pd14 N84 85.0(12) . . . . ?
C368 N76 Pd14 N84 -91.3(12) . . . . ?
C364 N76 Pd14 N59 50(18) . . . . ?
C368 N76 Pd14 N59 -126(18) . . . . ?
C364 N76 Pd14 N75 -90.0(12) . . . . ?
C368 N76 Pd14 N75 93.7(11) . . . . ?
C359 N75 Pd14 N84 15(8) . . . . ?
C363 N75 Pd14 N84 -176(59) . . . . ?
C359 N75 Pd14 N59 -88.1(9) . . . . ?
C363 N75 Pd14 N59 80.8(10) . . . . ?
C359 N75 Pd14 N76 90.1(10) . . . . ?
C363 N75 Pd14 N76 -101.0(10) . . . . ?
C349 N73 Pd15 N73 93.6(10) . . . 4_575 ?
C353 N73 Pd15 N73 -93.2(10) . . . 4_575 ?
C349 N73 Pd15 N72 -89.5(11) . . . . ?
C353 N73 Pd15 N72 83.7(10) . . . . ?
C349 N73 Pd15 N72 -158(12) . . . 4_575 ?
C353 N73 Pd15 N72 15(12) . . . 4_575 ?
C344 N72 Pd15 N73 89.7(11) . . . . ?
C348 N72 Pd15 N73 -82.6(11) . . . . ?
C344 N72 Pd15 N73 -162(12) . . . 4_575 ?
C348 N72 Pd15 N73 25(12) . . . 4_575 ?
C344 N72 Pd15 N72 -93.4(10) . . . 4_575 ?
C348 N72 Pd15 N72 94.3(10) . . . 4_575 ?
C289 N61 Pd16 N57 -88.0(11) . . . . ?
C293 N61 Pd16 N57 88.8(11) . . . . ?
C289 N61 Pd16 N69 90.1(11) . . . . ?
C293 N61 Pd16 N69 -93.1(11) . . . . ?
C289 N61 Pd16 N70 13(9) . . . . ?
C293 N61 Pd16 N70 -171(8) . . . . ?
C273 N57 Pd16 N61 92.5(11) . . . . ?
C277 N57 Pd16 N61 -88.0(12) . . . . ?
C273 N57 Pd16 N69 56(15) . . . . ?
C277 N57 Pd16 N69 -124(15) . . . . ?
C273 N57 Pd16 N70 -83.0(10) . . . . ?
C277 N57 Pd16 N70 96.6(12) . . . . ?
C329 N69 Pd16 N61 -84.1(12) . . . . ?
C333 N69 Pd16 N61 90.0(12) . . . . ?
C329 N69 Pd16 N57 -48(15) . . . . ?
C333 N69 Pd16 N57 127(15) . . . . ?
C329 N69 Pd16 N70 91.4(12) . . . . ?
C333 N69 Pd16 N70 -94.5(11) . . . . ?
C334 N70 Pd16 N61 -13(9) . . . . ?
C338 N70 Pd16 N61 179(100) . . . . ?
C334 N70 Pd16 N57 88.0(10) . . . . ?
C338 N70 Pd16 N57 -80.6(9) . . . . ?
C334 N70 Pd16 N69 -89.9(10) . . . . ?
C338 N70 Pd16 N69 101.5(10) . . . . ?
C304 N64 Pd17 N64 -93.7(13) . . . 4_575 ?
C308 N64 Pd17 N64 97.2(13) . . . 4_575 ?
C304 N64 Pd17 N63 6(36) . . . 4_575 ?
C308 N64 Pd17 N63 -163(35) . . . 4_575 ?
C304 N64 Pd17 N63 84.7(14) . . . . ?
C308 N64 Pd17 N63 -84.4(15) . . . . ?
C299 N63 Pd17 N64 -89.6(14) . . . . ?
C303 N63 Pd17 N64 92.6(14) . . . . ?
C299 N63 Pd17 N64 10(36) . . . 4_575 ?
C303 N63 Pd17 N64 -168(100) . . . 4_575 ?
C299 N63 Pd17 N63 88.8(14) . . . 4_575 ?
C303 N63 Pd17 N63 -89.0(14) . . . 4_575 ?
C374 N78 Pd18 N66 -44(55) . . . . ?
C378 N78 Pd18 N66 140(55) . . . . ?
C374 N78 Pd18 N67 92.2(14) . . . . ?
C378 N78 Pd18 N67 -83.7(12) . . . . ?
C374 N78 Pd18 N79 -88.6(14) . . . . ?
C378 N78 Pd18 N79 95.5(13) . . . . ?
C314 N66 Pd18 N78 48(55) . . . . ?
C318 N66 Pd18 N78 -126(55) . . . . ?
C314 N66 Pd18 N67 -88.3(14) . . . . ?
C318 N66 Pd18 N67 97.7(15) . . . . ?
C314 N66 Pd18 N79 92.5(15) . . . . ?
C318 N66 Pd18 N79 -81.5(15) . . . . ?
C319 N67 Pd18 N78 -90.7(13) . . . . ?
C323 N67 Pd18 N78 84.4(12) . . . . ?
C319 N67 Pd18 N66 88.5(14) . . . . ?
C323 N67 Pd18 N66 -96.5(13) . . . . ?
C319 N67 Pd18 N79 108(27) . . . . ?
C323 N67 Pd18 N79 -77(27) . . . . ?
C379 N79 Pd18 N78 86.8(14) . . . . ?
C383 N79 Pd18 N78 -97.3(15) . . . . ?
C379 N79 Pd18 N66 -92.3(15) . . . . ?
C383 N79 Pd18 N66 83.5(16) . . . . ?
C379 N79 Pd18 N67 -112(27) . . . . ?
C383 N79 Pd18 N67 64(28) . . . . ?

_diffrn_measured_fraction_theta_max 0.966
_diffrn_reflns_theta_full        15.56
_diffrn_measured_fraction_theta_full 0.966
_refine_diff_density_max         1.038
_refine_diff_density_min         -0.444
_refine_diff_density_rms         0.116
