####################################################################### 
# 
# This file contains crystal structure data downloaded from the 
# Cambridge Structural Database (CSD) hosted by the Cambridge 
# Crystallographic Data Centre (CCDC).
# 
# Full information about CCDC data access policies and citation 
# guidelines are available at http://www.ccdc.cam.ac.uk/access/V1 
# 
# Audit and citation data items may have been added by the CCDC. 
# Please retain this information to preserve the provenance of 
# this file and to allow appropriate attribution of the data. 
# 
#######################################################################

data_p-1_sqd
_audit_block_doi                 10.5517/cc139xq1
_database_code_depnum_ccdc_archive 'CCDC 1022433'
loop_
_citation_id
_citation_doi
_citation_year
1 10.1002/anie.201409216 2015
_audit_update_record             
;
2014-09-02 deposited with the CCDC.	2019-03-04 downloaded from the CCDC.
;

_audit_creation_method           SHELXL-97
_chemical_name_systematic        
; 
 ? 
;
_chemical_name_common            'M12L24 spherical complex'
_chemical_melting_point          ?
_chemical_formula_moiety         '(C336 H264 N120), Pd12, 24(B F4), O40.80'
_chemical_formula_sum            'C336 H264 B24 F96 N120 O48.80 Pd12'
_chemical_formula_weight         10123.71

loop_
_atom_type_symbol
_atom_type_description
_atom_type_scat_dispersion_real
_atom_type_scat_dispersion_imag
_atom_type_scat_source
C C 0.0068 0.0032 'International Tables Vol C Tables 4.2.6.8 and 6.1.1.4'
H H 0.0000 0.0000 'International Tables Vol C Tables 4.2.6.8 and 6.1.1.4'
B B 0.0034 0.0014 'International Tables Vol C Tables 4.2.6.8 and 6.1.1.4'
N N 0.0124 0.0065 'International Tables Vol C Tables 4.2.6.8 and 6.1.1.4'
O O 0.0208 0.0118 'International Tables Vol C Tables 4.2.6.8 and 6.1.1.4'
F F 0.0322 0.0197 'International Tables Vol C Tables 4.2.6.8 and 6.1.1.4'
Pd Pd -0.4095 1.7310 'International Tables Vol C Tables 4.2.6.8 and 6.1.1.4'

_symmetry_cell_setting           Triclinic
_symmetry_space_group_name_H-M   'P -1'
_symmetry_space_group_name_Hall  '-P 1'

loop_
_symmetry_equiv_pos_as_xyz
'x, y, z'
'-x, -y, -z'

_cell_length_a                   37.976(8)
_cell_length_b                   37.978(8)
_cell_length_c                   37.982(8)
_cell_angle_alpha                78.98(3)
_cell_angle_beta                 78.97(3)
_cell_angle_gamma                78.97(3)
_cell_volume                     52092(18)
_cell_formula_units_Z            2
_cell_measurement_temperature    296(2)
_cell_measurement_reflns_used    89153
_cell_measurement_theta_min      ?
_cell_measurement_theta_max      ?

_exptl_crystal_description       block
_exptl_crystal_colour            colorless
_exptl_crystal_size_max          0.20
_exptl_crystal_size_mid          0.20
_exptl_crystal_size_min          0.20
_exptl_crystal_density_meas      ?
_exptl_crystal_density_diffrn    0.645
_exptl_crystal_density_method    'not measured'
_exptl_crystal_F_000             10093
_exptl_absorpt_coefficient_mu    0.555
_exptl_absorpt_correction_type   empirical
_exptl_absorpt_correction_T_min  0.8970
_exptl_absorpt_correction_T_max  0.8970
_exptl_absorpt_process_details   'HKL2000 DENZO SCALEPACK'

_exptl_special_details           
; 
 ? 
;

_diffrn_ambient_temperature      296(2)
_diffrn_radiation_wavelength     0.96000
_diffrn_radiation_type           synchrotron
_diffrn_radiation_source         'KEK PF BL1A beamline'
_diffrn_radiation_monochromator  graphite
_diffrn_measurement_device_type  'Si 111'
_diffrn_measurement_method       'oscillation method, \w scans'
_diffrn_measurement_details      
;
two data sets were merged:
(i) 1.00 degrees, 2.0 sec, detector distance 90.9 mm
(ii) 2.00 degrees, 1.0 sec, detector distance 212 mm
;
_diffrn_detector_area_resol_mean ?
_diffrn_standards_number         ?
_diffrn_standards_interval_count ?
_diffrn_standards_interval_time  ?
_diffrn_standards_decay_%        ?
_diffrn_reflns_number            244309
_diffrn_reflns_av_R_equivalents  0.0588
_diffrn_reflns_av_sigmaI/netI    0.0518
_diffrn_reflns_limit_h_min       -39
_diffrn_reflns_limit_h_max       36
_diffrn_reflns_limit_k_min       -39
_diffrn_reflns_limit_k_max       37
_diffrn_reflns_limit_l_min       -39
_diffrn_reflns_limit_l_max       39
_diffrn_reflns_theta_min         0.75
_diffrn_reflns_theta_max         30.35
_reflns_number_total             110339
_reflns_number_gt                67679
_reflns_threshold_expression     >2\s(I)

_computing_data_collection       'KEK ugui'
_computing_cell_refinement       HKL2000
_computing_data_reduction        HKL2000
_computing_structure_solution    superflip
_computing_structure_refinement  'SHELXL-97 (Sheldrick, 1997)'
_computing_molecular_graphics    'Yadokari-XG 2009 (Wakita Nemoto et al., 2009)'
_computing_publication_material  'Yadokari-XG 2009 (Wakita Nemoto et al., 2009)'

_refine_special_details          SQUEEZE

_refine_ls_structure_factor_coef Fsqd
_refine_ls_matrix_type           full
_refine_ls_weighting_scheme      calc
_refine_ls_weighting_details     
'calc w=1/[\s^2^(Fo^2^)+(0.2000P)^2^] where P=(Fo^2^+2Fc^2^)/3'
_atom_sites_solution_primary     iterative
_atom_sites_solution_secondary   difmap
_atom_sites_solution_hydrogens   geom
_refine_ls_hydrogen_treatment    constr
_refine_ls_extinction_method     none
_refine_ls_extinction_coef       ?
_refine_ls_number_reflns         110339
_refine_ls_number_parameters     6891
_refine_ls_number_restraints     7664
_refine_ls_R_factor_all          0.1098
_refine_ls_R_factor_gt           0.0955
_refine_ls_wR_factor_ref         0.2918
_refine_ls_wR_factor_gt          0.2715
_refine_ls_goodness_of_fit_ref   1.038
_refine_ls_restrained_S_all      1.106
_refine_ls_shift/su_max          0.012
_refine_ls_shift/su_mean         0.000

loop_
_atom_site_label
_atom_site_type_symbol
_atom_site_fract_x
_atom_site_fract_y
_atom_site_fract_z
_atom_site_U_iso_or_equiv
_atom_site_adp_type
_atom_site_occupancy
_atom_site_symmetry_multiplicity
_atom_site_calc_flag
_atom_site_refinement_flags
_atom_site_disorder_assembly
_atom_site_disorder_group
N1A N -0.30054(19) 1.08773(15) 0.72607(18) 0.1576(18) Uani 1 1 d U A .
C1A C -0.2719(3) 1.0626(3) 0.7237(2) 0.183(3) Uani 1 1 d U . .
H1 H -0.2561 1.0634 0.7017 0.219 Uiso 1 1 calc R . .
C2A C -0.2631(3) 1.0346(3) 0.7521(3) 0.216(4) Uani 1 1 d U A .
H2 H -0.2410 1.0191 0.7504 0.259 Uiso 1 1 calc R . .
C3A C -0.2892(3) 1.0314(2) 0.7824(3) 0.199(3) Uani 1 1 d DU . .
C4A C -0.3211(3) 1.0580(3) 0.7848(3) 0.208(4) Uani 1 1 d U A .
H3 H -0.3387 1.0567 0.8055 0.250 Uiso 1 1 calc R . .
C5A C -0.3251(2) 1.0845(2) 0.7571(3) 0.181(3) Uani 1 1 d U . .
H4 H -0.3459 1.1019 0.7589 0.217 Uiso 1 1 calc R A .
N2A N -0.2603(13) 0.9769(11) 0.8044(7) 0.216(12) Uani 0.26(2) 1 d PGU A 1
C6A C -0.2874(12) 1.0048(10) 0.8151(8) 0.239(11) Uani 0.26(2) 1 d PGDU A 1
N3A N -0.3002(11) 1.0056(8) 0.8518(10) 0.261(13) Uani 0.26(2) 1 d PGDU A 1
C7A C -0.2860(13) 0.9785(10) 0.8778(7) 0.258(14) Uani 0.26(2) 1 d PGDU A 1
N4A N -0.2589(11) 0.9506(9) 0.8671(10) 0.252(13) Uani 0.26(2) 1 d PGDU A 1
C8A C -0.2460(10) 0.9498(8) 0.8304(12) 0.237(11) Uani 0.26(2) 1 d PGDU A 1
C9A C -0.3004(17) 0.9806(16) 0.9142(11) 0.29(3) Uani 0.26(2) 1 d PDU A 1
H5 H -0.3223 0.9701 0.9207 0.435 Uiso 0.26(2) 1 calc PR A 1
H6 H -0.3059 1.0057 0.9175 0.435 Uiso 0.26(2) 1 calc PR A 1
H7 H -0.2830 0.9677 0.9293 0.435 Uiso 0.26(2) 1 calc PR A 1
N52A N -0.2552(3) 0.9732(4) 0.8074(3) 0.192(4) Uani 0.74(2) 1 d PGU A 2
C56A C -0.2857(4) 1.0001(3) 0.8094(3) 0.243(6) Uani 0.74(2) 1 d PGDU A 2
N53A N -0.3134(4) 0.9973(4) 0.8391(5) 0.289(9) Uani 0.74(2) 1 d PGDU A 2
C57A C -0.3106(5) 0.9677(4) 0.8668(4) 0.290(10) Uani 0.74(2) 1 d PGDU A 2
N54A N -0.2801(5) 0.9408(3) 0.8649(3) 0.272(8) Uani 0.74(2) 1 d PGDU A 2
C58A C -0.2524(3) 0.9435(3) 0.8352(4) 0.224(6) Uani 0.74(2) 1 d PGDU A 2
C59A C -0.3389(8) 0.9636(6) 0.8977(7) 0.39(2) Uani 0.74(2) 1 d PDU A 2
H8 H -0.3565 0.9855 0.8973 0.579 Uiso 0.74(2) 1 calc PR A 2
H9 H -0.3286 0.9591 0.9197 0.579 Uiso 0.74(2) 1 calc PR A 2
H10 H -0.3505 0.9435 0.8968 0.579 Uiso 0.74(2) 1 calc PR A 2
N5A N -0.1654(2) 0.8572(2) 0.81750(19) 0.172(2) Uani 1 1 d U A .
C10A C -0.1685(2) 0.8874(3) 0.7936(3) 0.181(3) Uani 1 1 d U . .
H11 H -0.1506 0.8890 0.7731 0.217 Uiso 1 1 calc R . .
C11A C -0.1965(3) 0.9176(3) 0.7966(2) 0.189(3) Uani 1 1 d U A .
H12 H -0.1981 0.9374 0.7781 0.226 Uiso 1 1 calc R . .
C12A C -0.2216(3) 0.9161(3) 0.8288(3) 0.202(3) Uani 1 1 d DU . .
C13A C -0.2186(3) 0.8845(3) 0.8541(3) 0.238(5) Uani 1 1 d U A .
H13 H -0.2351 0.8823 0.8755 0.286 Uiso 1 1 calc R . .
C14A C -0.1900(3) 0.8558(3) 0.8467(3) 0.219(4) Uani 1 1 d U . .
H14 H -0.1886 0.8346 0.8637 0.263 Uiso 1 1 calc R A .
N1B N -0.3155(2) 0.88892(17) 0.54564(15) 0.1607(18) Uani 1 1 d U B .
C1B C -0.2997(2) 0.9146(3) 0.5545(3) 0.207(4) Uani 1 1 d U . .
H15 H -0.2746 0.9127 0.5503 0.249 Uiso 1 1 calc R . .
C2B C -0.3215(3) 0.9441(3) 0.5702(3) 0.207(4) Uani 1 1 d U B .
H16 H -0.3108 0.9611 0.5774 0.248 Uiso 1 1 calc R . .
C3B C -0.3579(2) 0.9472(2) 0.5746(3) 0.182(3) Uani 1 1 d DU . .
C4B C -0.3721(2) 0.9228(2) 0.5649(2) 0.176(3) Uani 1 1 d U B .
H17 H -0.3973 0.9247 0.5685 0.211 Uiso 1 1 calc R . .
C5B C -0.3511(3) 0.8943(2) 0.5496(2) 0.171(3) Uani 1 1 d U . .
H18 H -0.3625 0.8783 0.5417 0.205 Uiso 1 1 calc R B .
N2B N -0.3632(3) 0.9960(5) 0.6045(5) 0.197(6) Uani 0.65(2) 1 d PGU B 1
C6B C -0.3817(4) 0.9745(4) 0.5913(5) 0.222(6) Uani 0.65(2) 1 d PGDU B 1
N3B N -0.4194(4) 0.9813(4) 0.5957(6) 0.248(7) Uani 0.65(2) 1 d PGDU B 1
C7B C -0.4386(3) 1.0098(5) 0.6132(7) 0.268(8) Uani 0.65(2) 1 d PGDU B 1
N4B N -0.4201(4) 1.0313(4) 0.6265(6) 0.237(7) Uani 0.65(2) 1 d PGDU B 1
C8B C -0.3824(4) 1.0245(4) 0.6221(5) 0.212(6) Uani 0.65(2) 1 d PGDU B 1
C9B C -0.4777(5) 1.0157(9) 0.6116(11) 0.365(19) Uani 0.65(2) 1 d PDU B 1
H19 H -0.4832 0.9966 0.6014 0.547 Uiso 0.65(2) 1 calc PR B 1
H20 H -0.4842 1.0387 0.5968 0.547 Uiso 0.65(2) 1 calc PR B 1
H21 H -0.4912 1.0159 0.6357 0.547 Uiso 0.65(2) 1 calc PR B 1
N52B N -0.3633(6) 1.0039(8) 0.6058(10) 0.185(7) Uani 0.35(2) 1 d PGU B 2
C56B C -0.3753(7) 0.9815(6) 0.5872(10) 0.206(8) Uani 0.35(2) 1 d PGDU B 2
N53B N -0.4088(8) 0.9918(8) 0.5754(9) 0.248(10) Uani 0.35(2) 1 d PGDU B 2
C57B C -0.4303(7) 1.0244(8) 0.5822(10) 0.251(10) Uani 0.35(2) 1 d PGDU B 2
N54B N -0.4184(7) 1.0469(7) 0.6009(10) 0.250(10) Uani 0.35(2) 1 d PGDU B 2
C58B C -0.3849(7) 1.0366(8) 0.6126(9) 0.224(10) Uani 0.35(2) 1 d PGDU B 2
C59B C -0.4675(13) 1.0473(18) 0.5736(16) 0.35(3) Uani 0.35(2) 1 d PDU B 2
H22 H -0.4729 1.0683 0.5856 0.530 Uiso 0.35(2) 1 calc PR B 2
H23 H -0.4864 1.0328 0.5821 0.530 Uiso 0.35(2) 1 calc PR B 2
H24 H -0.4659 1.0550 0.5478 0.530 Uiso 0.35(2) 1 calc PR B 2
N5B N -0.3330(2) 1.09514(18) 0.66304(18) 0.172(2) Uani 1 1 d U A .
C10B C -0.3129(3) 1.0691(3) 0.6449(3) 0.210(4) Uani 1 1 d U . .
H25 H -0.2877 1.0655 0.6422 0.252 Uiso 1 1 calc R . .
C11B C -0.3304(3) 1.0474(3) 0.6301(3) 0.223(4) Uani 1 1 d U B .
H26 H -0.3166 1.0302 0.6164 0.268 Uiso 1 1 calc R . .
C12B C -0.3666(3) 1.0511(3) 0.6353(3) 0.198(3) Uani 1 1 d DU . .
C13B C -0.3871(3) 1.0768(3) 0.6537(3) 0.221(4) Uani 1 1 d U B .
H27 H -0.4124 1.0802 0.6572 0.265 Uiso 1 1 calc R . .
C14B C -0.3683(3) 1.0979(3) 0.6673(3) 0.199(3) Uani 1 1 d U . .
H28 H -0.3821 1.1155 0.6804 0.239 Uiso 1 1 calc R B .
N1C N -0.27768(18) 0.82144(17) 0.57623(15) 0.1564(17) Uani 1 1 d U B .
C1C C -0.2497(2) 0.8262(3) 0.5894(2) 0.184(3) Uani 1 1 d U . .
H29 H -0.2333 0.8405 0.5750 0.221 Uiso 1 1 calc R . .
C2C C -0.2440(2) 0.8098(3) 0.6258(2) 0.190(3) Uani 1 1 d U . .
H30 H -0.2234 0.8118 0.6347 0.228 Uiso 1 1 calc R . .
C3C C -0.2706(2) 0.7908(2) 0.6472(2) 0.165(2) Uani 1 1 d U . .
C4C C -0.3006(2) 0.7881(2) 0.6321(2) 0.160(2) Uani 1 1 d U . .
H31 H -0.3193 0.7766 0.6461 0.192 Uiso 1 1 calc R . .
C5C C -0.3020(2) 0.8026(2) 0.5970(2) 0.161(2) Uani 1 1 d U . .
H32 H -0.3213 0.7991 0.5869 0.193 Uiso 1 1 calc R . .
N2C N -0.23991(17) 0.78181(17) 0.69973(18) 0.1604(18) Uani 1 1 d U . .
C6C C -0.2677(2) 0.7748(2) 0.6847(2) 0.155(2) Uani 1 1 d U . .
N3C N -0.29147(16) 0.75381(18) 0.70364(19) 0.1599(18) Uani 1 1 d U . .
C7C C -0.2867(2) 0.7403(2) 0.7375(3) 0.167(2) Uani 1 1 d U . .
N4C N -0.26195(18) 0.74718(17) 0.75409(16) 0.1579(18) Uani 1 1 d U . .
C8C C -0.2390(2) 0.7674(2) 0.7332(2) 0.151(2) Uani 1 1 d U . .
C9C C -0.3148(2) 0.7179(2) 0.7602(2) 0.197(3) Uani 1 1 d U . .
H33 H -0.3317 0.7154 0.7454 0.295 Uiso 1 1 calc R . .
H34 H -0.3276 0.7298 0.7801 0.295 Uiso 1 1 calc R . .
H35 H -0.3028 0.6942 0.7694 0.295 Uiso 1 1 calc R . .
N5C N -0.16050(16) 0.79714(17) 0.78450(17) 0.1583(17) Uani 1 1 d U A .
C10C C -0.1621(2) 0.8080(2) 0.7484(2) 0.178(3) Uani 1 1 d U . .
H36 H -0.1462 0.8233 0.7349 0.213 Uiso 1 1 calc R . .
C11C C -0.1854(2) 0.7978(2) 0.7313(2) 0.173(3) Uani 1 1 d U . .
H37 H -0.1843 0.8044 0.7063 0.207 Uiso 1 1 calc R . .
C12C C -0.2109(2) 0.7773(2) 0.7510(2) 0.157(2) Uani 1 1 d U . .
C13C C -0.2097(2) 0.7662(2) 0.7876(2) 0.160(2) Uani 1 1 d U . .
H38 H -0.2256 0.7511 0.8014 0.191 Uiso 1 1 calc R . .
C14C C -0.1855(2) 0.7772(2) 0.8037(2) 0.165(2) Uani 1 1 d U . .
H39 H -0.1862 0.7707 0.8287 0.198 Uiso 1 1 calc R . .
N1D N -0.08762(16) 0.77400(18) 0.80059(19) 0.1641(18) Uani 1 1 d U A .
C1D C -0.0613(3) 0.7754(3) 0.7690(2) 0.187(3) Uani 1 1 d U . .
H40 H -0.0627 0.7964 0.7517 0.225 Uiso 1 1 calc R . .
C2D C -0.0338(3) 0.7474(3) 0.7626(3) 0.198(3) Uani 1 1 d U C .
H41 H -0.0170 0.7487 0.7412 0.237 Uiso 1 1 calc R . .
C3D C -0.0321(2) 0.7168(3) 0.7893(3) 0.187(3) Uani 1 1 d DU . .
C4D C -0.0571(3) 0.7147(3) 0.8204(3) 0.206(4) Uani 1 1 d U C .
H42 H -0.0550 0.6943 0.8382 0.247 Uiso 1 1 calc R . .
C5D C -0.0843(3) 0.7421(3) 0.8250(2) 0.182(3) Uani 1 1 d U . .
H43 H -0.1019 0.7396 0.8457 0.219 Uiso 1 1 calc R C .
N2D N 0.0286(5) 0.6939(4) 0.7570(5) 0.188(6) Uani 0.62(3) 1 d PGU C 1
C6D C 0.0020(5) 0.6928(5) 0.7878(6) 0.214(9) Uani 0.62(3) 1 d PGDU C 1
N3D N 0.0049(5) 0.6638(7) 0.8161(6) 0.265(10) Uani 0.62(3) 1 d PGDU C 1
C7D C 0.0345(6) 0.6359(6) 0.8138(6) 0.280(11) Uani 0.62(3) 1 d PGDU C 1
N4D N 0.0611(5) 0.6370(5) 0.7830(6) 0.264(10) Uani 0.62(3) 1 d PGDU C 1
C8D C 0.0582(4) 0.6660(5) 0.7547(5) 0.209(7) Uani 0.62(3) 1 d PGDU C 1
C9D C 0.0383(9) 0.6030(10) 0.8453(10) 0.35(2) Uani 0.62(3) 1 d PDU C 1
H44 H 0.0184 0.6063 0.8647 0.526 Uiso 0.62(3) 1 calc PR C 1
H45 H 0.0608 0.6015 0.8539 0.526 Uiso 0.62(3) 1 calc PR C 1
H46 H 0.0382 0.5810 0.8364 0.526 Uiso 0.62(3) 1 calc PR C 1
N52D N 0.0221(9) 0.6928(7) 0.7524(10) 0.204(10) Uani 0.38(3) 1 d PGU C 2
C56D C -0.0057(7) 0.6858(7) 0.7811(10) 0.181(8) Uani 0.38(3) 1 d PGDU C 2
N53D N -0.0048(7) 0.6513(8) 0.8017(9) 0.242(11) Uani 0.38(3) 1 d PGDU C 2
C57D C 0.0239(8) 0.6238(6) 0.7937(11) 0.260(13) Uani 0.38(3) 1 d PGDU C 2
N54D N 0.0517(7) 0.6308(8) 0.7650(10) 0.238(12) Uani 0.38(3) 1 d PGDU C 2
C58D C 0.0508(7) 0.6653(9) 0.7443(9) 0.217(11) Uani 0.38(3) 1 d PGDU C 2
C59D C 0.0233(14) 0.5904(9) 0.8195(15) 0.32(3) Uani 0.38(3) 1 d PDU C 2
H47 H 0.0013 0.5925 0.8369 0.480 Uiso 0.38(3) 1 calc PR C 2
H48 H 0.0439 0.5861 0.8319 0.480 Uiso 0.38(3) 1 calc PR C 2
H49 H 0.0243 0.5706 0.8069 0.480 Uiso 0.38(3) 1 calc PR C 2
N5D N 0.1435(2) 0.68178(19) 0.66497(19) 0.174(2) Uani 1 1 d U C .
C10D C 0.1118(3) 0.7063(3) 0.6688(2) 0.191(3) Uani 1 1 d U . .
H50 H 0.1101 0.7272 0.6514 0.230 Uiso 1 1 calc R . .
C11D C 0.0822(3) 0.7028(3) 0.6962(3) 0.191(3) Uani 1 1 d U C .
H51 H 0.0619 0.7208 0.6972 0.229 Uiso 1 1 calc R . .
C12D C 0.0839(3) 0.6719(3) 0.7216(3) 0.205(3) Uani 1 1 d DU . .
C13D C 0.1167(4) 0.6466(3) 0.7191(3) 0.244(5) Uani 1 1 d U C .
H52 H 0.1197 0.6261 0.7368 0.293 Uiso 1 1 calc R . .
C14D C 0.1441(3) 0.6527(3) 0.6904(3) 0.215(4) Uani 1 1 d U . .
H53 H 0.1646 0.6349 0.6887 0.258 Uiso 1 1 calc R C .
N1E N 0.11110(17) 0.95468(15) 0.81531(18) 0.1566(17) Uani 1 1 d U D .
C1E C 0.0865(3) 0.9443(3) 0.8002(2) 0.194(3) Uani 1 1 d U . .
H54 H 0.0895 0.9468 0.7750 0.233 Uiso 1 1 calc R . .
C2E C 0.0570(3) 0.9303(3) 0.8205(3) 0.214(4) Uani 1 1 d U D .
H55 H 0.0401 0.9237 0.8092 0.256 Uiso 1 1 calc R . .
C3E C 0.0526(2) 0.9259(3) 0.8581(2) 0.182(3) Uani 1 1 d DU . .
C4E C 0.0767(3) 0.9355(2) 0.8741(2) 0.180(3) Uani 1 1 d U D .
H56 H 0.0742 0.9328 0.8992 0.216 Uiso 1 1 calc R . .
C5E C 0.1070(2) 0.9505(2) 0.8507(3) 0.167(2) Uani 1 1 d U . .
H57 H 0.1243 0.9573 0.8613 0.201 Uiso 1 1 calc R D .
N2E N 0.0069(8) 0.8973(10) 0.8645(7) 0.217(10) Uani 0.330(18) 1 d PGU D 1
C6E C 0.0188(6) 0.9219(10) 0.8806(7) 0.222(9) Uani 0.330(18) 1 d PGDU D 1
N3E N -0.0010(8) 0.9326(10) 0.9126(8) 0.292(12) Uani 0.330(18) 1 d PGDU D 1
C7E C -0.0327(8) 0.9188(11) 0.9285(7) 0.280(12) Uani 0.330(18) 1 d PGDU D 1
N4E N -0.0446(6) 0.8942(10) 0.9124(9) 0.239(9) Uani 0.330(18) 1 d PGDU D 1
C8E C -0.0248(8) 0.8834(9) 0.8805(8) 0.204(8) Uani 0.330(18) 1 d PGDU D 1
C9E C -0.0464(12) 0.9328(16) 0.9616(12) 0.32(2) Uani 0.330(18) 1 d PDU D 1
H58 H -0.0308 0.9486 0.9649 0.473 Uiso 0.330(18) 1 calc PR D 1
H59 H -0.0471 0.9130 0.9816 0.473 Uiso 0.330(18) 1 calc PR D 1
H60 H -0.0704 0.9461 0.9606 0.473 Uiso 0.330(18) 1 calc PR D 1
N52E N -0.0005(4) 0.8941(5) 0.8629(3) 0.188(4) Uani 0.670(18) 1 d PGU D 2
C56E C 0.0235(3) 0.9076(4) 0.8783(3) 0.196(5) Uani 0.670(18) 1 d PGDU D 2
N53E N 0.0197(4) 0.9045(5) 0.9158(3) 0.238(6) Uani 0.670(18) 1 d PGDU D 2
C57E C -0.0081(5) 0.8879(6) 0.9380(2) 0.282(9) Uani 0.670(18) 1 d PGDU D 2
N54E N -0.0321(4) 0.8744(5) 0.9226(4) 0.259(7) Uani 0.670(18) 1 d PGDU D 2
C58E C -0.0283(3) 0.8775(5) 0.8851(4) 0.220(7) Uani 0.670(18) 1 d PGDU D 2
C59E C -0.0182(9) 0.8861(11) 0.9782(5) 0.385(19) Uani 0.670(18) 1 d PDU D 2
H61 H -0.0377 0.8723 0.9869 0.577 Uiso 0.670(18) 1 calc PR D 2
H62 H -0.0258 0.9103 0.9838 0.577 Uiso 0.670(18) 1 calc PR D 2
H63 H 0.0025 0.8746 0.9896 0.577 Uiso 0.670(18) 1 calc PR D 2
N5E N -0.09455(17) 0.83662(18) 0.8327(2) 0.1659(19) Uani 1 1 d U A .
C10E C -0.0692(3) 0.8551(3) 0.8135(3) 0.206(4) Uani 1 1 d U . .
H64 H -0.0659 0.8579 0.7883 0.247 Uiso 1 1 calc R . .
C11E C -0.0475(3) 0.8705(3) 0.8295(3) 0.210(4) Uani 1 1 d U D .
H65 H -0.0309 0.8844 0.8150 0.251 Uiso 1 1 calc R . .
C12E C -0.0502(3) 0.8655(3) 0.8655(3) 0.199(3) Uani 1 1 d DU . .
C13E C -0.0770(3) 0.8461(3) 0.8861(3) 0.224(4) Uani 1 1 d U D .
H66 H -0.0809 0.8431 0.9113 0.269 Uiso 1 1 calc R . .
C14E C -0.0974(3) 0.8316(3) 0.8684(3) 0.201(3) Uani 1 1 d U . .
H67 H -0.1143 0.8176 0.8822 0.241 Uiso 1 1 calc R D .
N1F N 0.20239(18) 0.71560(18) 0.66079(15) 0.1609(18) Uani 1 1 d U C .
C1F C 0.1920(2) 0.7518(2) 0.6615(2) 0.173(3) Uani 1 1 d U . .
H68 H 0.1773 0.7654 0.6452 0.207 Uiso 1 1 calc R . .
C2F C 0.2027(2) 0.7687(2) 0.6855(2) 0.171(3) Uani 1 1 d U . .
H69 H 0.1960 0.7937 0.6847 0.206 Uiso 1 1 calc R . .
C3F C 0.2227(2) 0.7494(2) 0.7101(2) 0.156(2) Uani 1 1 d U . .
C4F C 0.23409(19) 0.7123(2) 0.70976(19) 0.149(2) Uani 1 1 d U . .
H70 H 0.2486 0.6987 0.7262 0.179 Uiso 1 1 calc R . .
C5F C 0.2240(2) 0.6966(2) 0.6856(2) 0.161(2) Uani 1 1 d U . .
H71 H 0.2318 0.6718 0.6856 0.193 Uiso 1 1 calc R . .
N2F N 0.21874(17) 0.80065(18) 0.73964(16) 0.1564(17) Uani 1 1 d U . .
C6F C 0.2322(2) 0.7669(2) 0.73841(19) 0.149(2) Uani 1 1 d U . .
N3F N 0.25303(17) 0.74563(17) 0.76112(17) 0.1592(18) Uani 1 1 d U . .
C7F C 0.2598(2) 0.7625(2) 0.7873(2) 0.160(2) Uani 1 1 d U . .
N4F N 0.24627(17) 0.79680(19) 0.79094(16) 0.1592(18) Uani 1 1 d U . .
C8F C 0.2259(2) 0.8148(2) 0.7665(2) 0.151(2) Uani 1 1 d U . .
C9F C 0.2819(3) 0.7393(2) 0.8145(2) 0.195(3) Uani 1 1 d U . .
H72 H 0.2891 0.7152 0.8085 0.293 Uiso 1 1 calc R . .
H73 H 0.2675 0.7381 0.8384 0.293 Uiso 1 1 calc R . .
H74 H 0.3031 0.7497 0.8142 0.293 Uiso 1 1 calc R . .
N5F N 0.17804(18) 0.92381(15) 0.77752(17) 0.1577(18) Uani 1 1 d U D .
C10F C 0.1731(3) 0.9103(2) 0.7501(2) 0.190(3) Uani 1 1 d U . .
H75 H 0.1575 0.9237 0.7345 0.228 Uiso 1 1 calc R . .
C11F C 0.1916(3) 0.8749(2) 0.7440(2) 0.198(3) Uani 1 1 d U . .
H76 H 0.1918 0.8668 0.7223 0.238 Uiso 1 1 calc R . .
C12F C 0.2093(2) 0.8530(2) 0.7708(2) 0.166(2) Uani 1 1 d U . .
C13F C 0.2125(2) 0.8675(2) 0.80053(19) 0.161(2) Uani 1 1 d U . .
H77 H 0.2249 0.8536 0.8186 0.194 Uiso 1 1 calc R . .
C14F C 0.1967(2) 0.9032(2) 0.80281(19) 0.155(2) Uani 1 1 d U . .
H78 H 0.1992 0.9132 0.8225 0.186 Uiso 1 1 calc R . .
N1G N 0.16311(18) 0.6671(2) 0.59503(17) 0.169(2) Uani 1 1 d U C .
C1G C 0.1435(3) 0.6869(2) 0.5692(3) 0.199(3) Uani 1 1 d U . .
H79 H 0.1385 0.7121 0.5669 0.238 Uiso 1 1 calc R . .
C2G C 0.1313(3) 0.6700(3) 0.5474(3) 0.216(4) Uani 1 1 d U E .
H80 H 0.1199 0.6842 0.5288 0.259 Uiso 1 1 calc R . .
C3G C 0.1345(3) 0.6342(3) 0.5507(3) 0.206(4) Uani 1 1 d DU . .
C4G C 0.1533(3) 0.6141(3) 0.5759(3) 0.226(4) Uani 1 1 d U E .
H81 H 0.1568 0.5889 0.5787 0.271 Uiso 1 1 calc R . .
C5G C 0.1675(3) 0.6313(3) 0.5978(3) 0.203(3) Uani 1 1 d U . .
H82 H 0.1807 0.6171 0.6152 0.243 Uiso 1 1 calc R E .
N2G N 0.1042(5) 0.6381(2) 0.4970(4) 0.209(6) Uani 0.671(17) 1 d PGU E 1
C6G C 0.1220(5) 0.6184(3) 0.5251(4) 0.230(6) Uani 0.671(17) 1 d PGDU E 1
N3G N 0.1265(5) 0.5807(3) 0.5313(4) 0.248(7) Uani 0.671(17) 1 d PGDU E 1
C7G C 0.1131(6) 0.5626(2) 0.5093(4) 0.276(8) Uani 0.671(17) 1 d PGDU E 1
N4G N 0.0954(5) 0.5824(3) 0.4812(3) 0.231(6) Uani 0.671(17) 1 d PGDU E 1
C8G C 0.0909(4) 0.6201(3) 0.4751(3) 0.203(6) Uani 0.671(17) 1 d PGDU E 1
C9G C 0.1157(10) 0.5219(4) 0.5156(8) 0.41(2) Uani 0.671(17) 1 d PDU E 1
H83 H 0.1297 0.5115 0.5347 0.612 Uiso 0.671(17) 1 calc PR E 1
H84 H 0.1274 0.5128 0.4937 0.612 Uiso 0.671(17) 1 calc PR E 1
H85 H 0.0918 0.5156 0.5223 0.612 Uiso 0.671(17) 1 calc PR E 1
N52G N 0.1075(10) 0.6354(6) 0.5018(8) 0.201(8) Uani 0.329(17) 1 d PGU E 2
C56G C 0.1157(9) 0.6127(8) 0.5335(8) 0.233(10) Uani 0.329(17) 1 d PGDU E 2
N53G N 0.1003(11) 0.5812(7) 0.5456(7) 0.279(12) Uani 0.329(17) 1 d PGDU E 2
C57G C 0.0767(11) 0.5725(7) 0.5260(8) 0.281(12) Uani 0.329(17) 1 d PGDU E 2
N54G N 0.0684(9) 0.5952(8) 0.4944(8) 0.263(10) Uani 0.329(17) 1 d PGDU E 2
C58G C 0.0838(10) 0.6266(6) 0.4823(6) 0.215(8) Uani 0.329(17) 1 d PGDU E 2
C59G C 0.0654(17) 0.5384(12) 0.5489(13) 0.39(3) Uani 0.329(17) 1 d PDU E 2
H90 H 0.0729 0.5351 0.5722 0.579 Uiso 0.329(17) 1 calc PR E 2
H91 H 0.0765 0.5179 0.5370 0.579 Uiso 0.329(17) 1 calc PR E 2
H92 H 0.0394 0.5403 0.5521 0.579 Uiso 0.329(17) 1 calc PR E 2
N5G N 0.04560(15) 0.68500(19) 0.38908(16) 0.1594(17) Uani 1 1 d U E .
C10G C 0.0560(3) 0.6996(3) 0.4147(3) 0.204(3) Uani 1 1 d U . .
H86 H 0.0533 0.7248 0.4122 0.245 Uiso 1 1 calc R . .
C11G C 0.0702(3) 0.6791(3) 0.4440(3) 0.211(4) Uani 1 1 d U E .
H87 H 0.0769 0.6901 0.4610 0.253 Uiso 1 1 calc R . .
C12G C 0.0741(3) 0.6428(3) 0.4474(2) 0.193(3) Uani 1 1 d DU . .
C13G C 0.0637(2) 0.6270(2) 0.4230(3) 0.178(3) Uani 1 1 d U E .
H88 H 0.0656 0.6019 0.4260 0.213 Uiso 1 1 calc R . .
C14G C 0.0504(2) 0.6480(2) 0.3941(2) 0.168(2) Uani 1 1 d U . .
H89 H 0.0443 0.6367 0.3769 0.202 Uiso 1 1 calc R E .
N1H N 0.31756(19) 0.8351(2) 0.3567(2) 0.176(2) Uani 1 1 d U . .
C1H C 0.2945(3) 0.8306(3) 0.3889(3) 0.194(3) Uani 1 1 d U . .
H93 H 0.2742 0.8485 0.3918 0.233 Uiso 1 1 calc R . .
C2H C 0.2978(3) 0.8027(3) 0.4175(3) 0.192(3) Uani 1 1 d U F .
H94 H 0.2799 0.8010 0.4380 0.231 Uiso 1 1 calc R . .
C3H C 0.3289(3) 0.7771(3) 0.4146(3) 0.191(3) Uani 1 1 d DU . .
C4H C 0.3529(3) 0.7818(4) 0.3844(3) 0.225(4) Uani 1 1 d U F .
H95 H 0.3748 0.7659 0.3823 0.270 Uiso 1 1 calc R . .
C5H C 0.3465(3) 0.8094(3) 0.3563(3) 0.213(4) Uani 1 1 d U . .
H96 H 0.3637 0.8101 0.3354 0.255 Uiso 1 1 calc R F .
N2H N 0.3068(4) 0.7420(5) 0.4757(6) 0.186(6) Uani 0.57(3) 1 d PGU F 1
C6H C 0.3341(5) 0.7511(5) 0.4472(5) 0.206(7) Uani 0.57(3) 1 d PGDU F 1
N3H N 0.3683(4) 0.7299(7) 0.4448(5) 0.238(9) Uani 0.57(3) 1 d PGDU F 1
C7H C 0.3753(4) 0.6995(7) 0.4710(5) 0.268(10) Uani 0.57(3) 1 d PGDU F 1
N4H N 0.3480(6) 0.6904(5) 0.4995(5) 0.286(9) Uani 0.57(3) 1 d PGDU F 1
C8H C 0.3137(5) 0.7117(6) 0.5019(5) 0.244(8) Uani 0.57(3) 1 d PGDU F 1
C9H C 0.4093(8) 0.6726(11) 0.4718(10) 0.36(2) Uani 0.57(3) 1 d PDU F 1
H97 H 0.4265 0.6788 0.4504 0.544 Uiso 0.57(3) 1 calc PR F 1
H98 H 0.4040 0.6488 0.4724 0.544 Uiso 0.57(3) 1 calc PR F 1
H99 H 0.4194 0.6730 0.4930 0.544 Uiso 0.57(3) 1 calc PR F 1
N52H N 0.3068(7) 0.7473(6) 0.4705(8) 0.210(9) Uani 0.43(3) 1 d PGU F 2
C56H C 0.3290(8) 0.7426(6) 0.4376(7) 0.229(9) Uani 0.43(3) 1 d PGDU F 2
N53H N 0.3548(9) 0.7115(8) 0.4351(6) 0.266(11) Uani 0.43(3) 1 d PGDU F 2
C57H C 0.3583(9) 0.6850(6) 0.4656(7) 0.275(13) Uani 0.43(3) 1 d PGDU F 2
N54H N 0.3361(9) 0.6897(7) 0.4985(6) 0.303(12) Uani 0.43(3) 1 d PGDU F 2
C58H C 0.3103(7) 0.7208(8) 0.5010(7) 0.221(9) Uani 0.43(3) 1 d PGDU F 2
C59H C 0.3868(10) 0.6529(10) 0.4546(11) 0.29(2) Uani 0.43(3) 1 d PDU F 2
H100 H 0.4022 0.6609 0.4325 0.438 Uiso 0.43(3) 1 calc PR F 2
H101 H 0.3748 0.6342 0.4508 0.438 Uiso 0.43(3) 1 calc PR F 2
H102 H 0.4012 0.6435 0.4735 0.438 Uiso 0.43(3) 1 calc PR F 2
N5H N 0.22613(19) 0.7002(2) 0.58758(15) 0.1580(18) Uani 1 1 d U C .
C10H C 0.2248(3) 0.7300(2) 0.5620(3) 0.186(3) Uani 1 1 d U . .
H103 H 0.2038 0.7472 0.5637 0.224 Uiso 1 1 calc R . .
C11H C 0.2517(3) 0.7366(3) 0.5342(2) 0.195(3) Uani 1 1 d U F .
H104 H 0.2498 0.7580 0.5175 0.234 Uiso 1 1 calc R . .
C12H C 0.2830(3) 0.7099(3) 0.5316(2) 0.189(3) Uani 1 1 d DU . .
C13H C 0.2863(3) 0.6808(3) 0.5573(3) 0.204(4) Uani 1 1 d U F .
H105 H 0.3079 0.6644 0.5566 0.245 Uiso 1 1 calc R . .
C14H C 0.2579(3) 0.6749(2) 0.5848(3) 0.188(3) Uani 1 1 d U . .
H106 H 0.2598 0.6537 0.6018 0.226 Uiso 1 1 calc R F .
N1I N 0.07567(15) 0.72224(16) 0.32172(16) 0.1556(17) Uani 1 1 d U E .
C1I C 0.0894(2) 0.7507(2) 0.3253(3) 0.193(3) Uani 1 1 d U . .
H107 H 0.0749 0.7681 0.3385 0.232 Uiso 1 1 calc R . .
C2I C 0.1255(2) 0.7555(2) 0.3096(3) 0.194(3) Uani 1 1 d U . .
H108 H 0.1346 0.7758 0.3121 0.233 Uiso 1 1 calc R . .
C3I C 0.1473(2) 0.7293(2) 0.2903(2) 0.160(2) Uani 1 1 d U . .
C4I C 0.1324(2) 0.6998(2) 0.2875(2) 0.165(2) Uani 1 1 d U . .
H109 H 0.1462 0.6815 0.2751 0.198 Uiso 1 1 calc R . .
C5I C 0.0976(2) 0.69764(18) 0.3029(2) 0.155(2) Uani 1 1 d U . .
H110 H 0.0881 0.6776 0.3003 0.186 Uiso 1 1 calc R . .
N2I N 0.19959(18) 0.75988(16) 0.28222(17) 0.1612(18) Uani 1 1 d U . .
C6I C 0.1849(2) 0.7336(2) 0.2742(2) 0.157(2) Uani 1 1 d U . .
N3I N 0.2033(2) 0.70909(17) 0.25370(18) 0.1691(19) Uani 1 1 d U . .
C7I C 0.2379(2) 0.7127(2) 0.2402(2) 0.156(2) Uani 1 1 d U . .
N4I N 0.25445(16) 0.73845(18) 0.24665(16) 0.1596(18) Uani 1 1 d U . .
C8I C 0.2331(2) 0.76099(19) 0.2678(2) 0.149(2) Uani 1 1 d U . .
C9I C 0.2603(2) 0.6855(2) 0.2180(2) 0.189(3) Uani 1 1 d U . .
H111 H 0.2843 0.6915 0.2100 0.283 Uiso 1 1 calc R . .
H112 H 0.2493 0.6857 0.1972 0.283 Uiso 1 1 calc R . .
H113 H 0.2619 0.6617 0.2324 0.283 Uiso 1 1 calc R . .
N5I N 0.28436(18) 0.83990(16) 0.29690(17) 0.1593(18) Uani 1 1 d U . .
C10I C 0.2480(2) 0.8398(2) 0.3067(2) 0.181(3) Uani 1 1 d U . .
H114 H 0.2341 0.8573 0.3199 0.217 Uiso 1 1 calc R . .
C11I C 0.2307(2) 0.8143(2) 0.2974(2) 0.171(3) Uani 1 1 d U . .
H115 H 0.2060 0.8142 0.3052 0.205 Uiso 1 1 calc R . .
C12I C 0.2508(2) 0.7895(2) 0.2769(2) 0.155(2) Uani 1 1 d U . .
C13I C 0.2876(2) 0.7908(2) 0.26578(19) 0.152(2) Uani 1 1 d U . .
H116 H 0.3013 0.7748 0.2508 0.183 Uiso 1 1 calc R . .
C14I C 0.3040(2) 0.8150(2) 0.27631(19) 0.157(2) Uani 1 1 d U . .
H117 H 0.3289 0.8146 0.2694 0.189 Uiso 1 1 calc R . .
N1J N -0.02589(16) 0.70890(18) 0.37134(18) 0.1616(18) Uani 1 1 d U E .
C1J C -0.0448(2) 0.7310(2) 0.3929(2) 0.178(3) Uani 1 1 d U . .
H118 H -0.0343 0.7497 0.3972 0.214 Uiso 1 1 calc R . .
C2J C -0.0797(3) 0.7276(3) 0.4093(3) 0.202(3) Uani 1 1 d U . .
H119 H -0.0928 0.7443 0.4239 0.242 Uiso 1 1 calc R . .
C3J C -0.0947(2) 0.7005(3) 0.4046(3) 0.196(3) Uani 1 1 d U . .
C4J C -0.0758(2) 0.6767(3) 0.3837(3) 0.209(4) Uani 1 1 d U . .
H120 H -0.0857 0.6573 0.3801 0.250 Uiso 1 1 calc R . .
C5J C -0.0408(3) 0.6818(3) 0.3676(3) 0.196(3) Uani 1 1 d U . .
H121 H -0.0272 0.6651 0.3533 0.235 Uiso 1 1 calc R . .
N2J N -0.15195(17) 0.72387(15) 0.43934(19) 0.201(3) Uani 1 1 d GU . .
C6J C -0.13027(14) 0.69643(19) 0.42185(19) 0.213(4) Uani 1 1 d GU . .
N3J N -0.14362(19) 0.66486(18) 0.4216(2) 0.275(5) Uani 1 1 d GU . .
C7J C -0.1787(2) 0.66074(19) 0.4389(3) 0.342(7) Uani 1 1 d GU . .
N4J N -0.20034(16) 0.6882(2) 0.4564(3) 0.296(5) Uani 1 1 d GU . .
C8J C -0.18698(16) 0.71974(18) 0.4566(2) 0.228(4) Uani 1 1 d GU . .
C9J C -0.1925(5) 0.6272(4) 0.4384(6) 0.447(13) Uani 1 1 d U . .
H122 H -0.2172 0.6288 0.4507 0.671 Uiso 1 1 calc R . .
H123 H -0.1778 0.6068 0.4506 0.671 Uiso 1 1 calc R . .
H124 H -0.1915 0.6241 0.4137 0.671 Uiso 1 1 calc R . .
N5J N -0.25210(19) 0.80369(18) 0.50490(15) 0.1616(18) Uani 1 1 d U B .
C10J C -0.2175(3) 0.8047(3) 0.4923(3) 0.187(3) Uani 1 1 d U . .
H125 H -0.2082 0.8250 0.4944 0.225 Uiso 1 1 calc R . .
C11J C -0.1944(3) 0.7780(3) 0.4765(3) 0.198(3) Uani 1 1 d U . .
H126 H -0.1700 0.7795 0.4683 0.238 Uiso 1 1 calc R . .
C12J C -0.2094(3) 0.7485(3) 0.4735(3) 0.197(3) Uani 1 1 d U . .
C13J C -0.2452(2) 0.7458(3) 0.4874(3) 0.200(3) Uani 1 1 d U . .
H127 H -0.2550 0.7252 0.4874 0.240 Uiso 1 1 calc R . .
C14J C -0.2656(2) 0.7754(3) 0.5014(2) 0.188(3) Uani 1 1 d U . .
H128 H -0.2904 0.7755 0.5088 0.226 Uiso 1 1 calc R . .
N1K N -0.19617(19) 1.00452(15) 0.24743(17) 0.1548(17) Uani 1 1 d U . .
C1K C -0.1953(3) 0.9929(3) 0.2829(3) 0.189(3) Uani 1 1 d U . .
H129 H -0.1760 0.9966 0.2928 0.227 Uiso 1 1 calc R . .
C2K C -0.2218(3) 0.9759(3) 0.3050(2) 0.199(3) Uani 1 1 d U . .
H130 H -0.2192 0.9658 0.3289 0.239 Uiso 1 1 calc R . .
C3K C -0.2523(3) 0.9736(2) 0.2918(2) 0.176(3) Uani 1 1 d U . .
C4K C -0.2541(3) 0.9873(3) 0.2547(2) 0.199(3) Uani 1 1 d U . .
H131 H -0.2742 0.9863 0.2446 0.238 Uiso 1 1 calc R . .
C5K C -0.2253(3) 1.0018(3) 0.2347(2) 0.190(3) Uani 1 1 d U . .
H132 H -0.2262 1.0105 0.2102 0.228 Uiso 1 1 calc R . .
N2K N -0.27594(14) 0.93951(17) 0.34838(16) 0.185(2) Uani 1 1 d GU . .
C6K C -0.27991(17) 0.95638(19) 0.31319(15) 0.210(4) Uani 1 1 d GU . .
N3K N -0.3115(2) 0.9562(2) 0.29991(16) 0.275(5) Uani 1 1 d GU . .
C7K C -0.33918(18) 0.9392(3) 0.3218(2) 0.308(7) Uani 1 1 d GU . .
N4K N -0.33521(18) 0.9223(2) 0.3570(2) 0.287(5) Uani 1 1 d GU . .
C8K C -0.30359(19) 0.9225(2) 0.37028(13) 0.217(4) Uani 1 1 d GU . .
C9K C -0.3713(4) 0.9371(6) 0.3063(5) 0.456(14) Uani 1 1 d U . .
H133 H -0.3874 0.9238 0.3242 0.684 Uiso 1 1 calc R . .
H134 H -0.3637 0.9249 0.2855 0.684 Uiso 1 1 calc R . .
H135 H -0.3836 0.9612 0.2991 0.684 Uiso 1 1 calc R . .
N5K N -0.2910(2) 0.87098(18) 0.47454(15) 0.1642(19) Uani 1 1 d U B .
C10K C -0.2678(3) 0.8929(3) 0.4543(2) 0.196(3) Uani 1 1 d U . .
H136 H -0.2484 0.8964 0.4642 0.235 Uiso 1 1 calc R . .
C11K C -0.2717(3) 0.9099(3) 0.4205(2) 0.190(3) Uani 1 1 d U . .
H137 H -0.2556 0.9252 0.4078 0.228 Uiso 1 1 calc R . .
C12K C -0.2990(3) 0.9046(3) 0.4051(2) 0.191(3) Uani 1 1 d U . .
C13K C -0.3217(3) 0.8817(3) 0.4254(3) 0.210(4) Uani 1 1 d U . .
H138 H -0.3403 0.8767 0.4153 0.251 Uiso 1 1 calc R . .
C14K C -0.3179(3) 0.8666(3) 0.4592(2) 0.187(3) Uani 1 1 d U . .
H139 H -0.3347 0.8523 0.4725 0.224 Uiso 1 1 calc R . .
N1L N 0.00443(16) 0.74780(18) 0.30369(18) 0.1600(18) Uani 1 1 d U E .
C1L C -0.0074(3) 0.7828(3) 0.3043(3) 0.190(3) Uani 1 1 d U . .
H140 H -0.0049 0.7926 0.3242 0.228 Uiso 1 1 calc R . .
C2L C -0.0230(3) 0.8050(2) 0.2770(3) 0.192(3) Uani 1 1 d U . .
H141 H -0.0317 0.8294 0.2784 0.231 Uiso 1 1 calc R . .
C3L C -0.0257(2) 0.7906(3) 0.2477(3) 0.179(3) Uani 1 1 d U . .
C4L C -0.0133(3) 0.7549(3) 0.2464(3) 0.210(4) Uani 1 1 d U . .
H142 H -0.0150 0.7446 0.2266 0.252 Uiso 1 1 calc R . .
C5L C 0.0020(2) 0.7344(2) 0.2754(3) 0.182(3) Uani 1 1 d U . .
H143 H 0.0110 0.7099 0.2747 0.219 Uiso 1 1 calc R . .
N2L N -0.06009(18) 0.84821(16) 0.22382(14) 0.188(2) Uani 1 1 d GU . .
C6L C -0.04203(19) 0.81350(16) 0.21934(17) 0.204(3) Uani 1 1 d GU . .
N3L N -0.0426(2) 0.79993(16) 0.1880(2) 0.290(5) Uani 1 1 d GU . .
C7L C -0.0613(3) 0.8211(2) 0.16114(18) 0.333(7) Uani 1 1 d GU . .
N4L N -0.0793(2) 0.8558(2) 0.16563(18) 0.285(5) Uani 1 1 d GU . .
C8L C -0.0787(2) 0.86935(13) 0.19696(19) 0.215(4) Uani 1 1 d GU . .
C9L C -0.0583(6) 0.8070(4) 0.1265(4) 0.417(13) Uani 1 1 d U . .
H144 H -0.0446 0.7829 0.1284 0.626 Uiso 1 1 calc R . .
H145 H -0.0463 0.8226 0.1069 0.626 Uiso 1 1 calc R . .
H146 H -0.0822 0.8064 0.1220 0.626 Uiso 1 1 calc R . .
N5L N -0.12866(18) 0.97451(15) 0.20887(18) 0.1610(18) Uani 1 1 d U . .
C10L C -0.1073(3) 0.9549(2) 0.2320(2) 0.186(3) Uani 1 1 d U . .
H147 H -0.1039 0.9650 0.2513 0.223 Uiso 1 1 calc R . .
C11L C -0.0900(3) 0.9198(3) 0.2280(3) 0.202(3) Uani 1 1 d U . .
H148 H -0.0752 0.9068 0.2445 0.242 Uiso 1 1 calc R . .
C12L C -0.0945(3) 0.9050(2) 0.2012(3) 0.200(3) Uani 1 1 d U . .
C13L C -0.1168(3) 0.9249(3) 0.1778(3) 0.214(4) Uani 1 1 d U . .
H149 H -0.1204 0.9150 0.1585 0.257 Uiso 1 1 calc R . .
C14L C -0.1344(3) 0.9600(2) 0.1826(2) 0.186(3) Uani 1 1 d U . .
H150 H -0.1502 0.9730 0.1670 0.223 Uiso 1 1 calc R . .
N1M N 0.21862(16) 0.72728(14) 0.12704(14) 0.1391(14) Uani 1 1 d U . .
C1M C 0.2547(2) 0.7247(2) 0.1186(2) 0.164(2) Uani 1 1 d U . .
H151 H 0.2675 0.7072 0.1048 0.197 Uiso 1 1 calc R . .
C2M C 0.27346(18) 0.74714(19) 0.1296(2) 0.154(2) Uani 1 1 d U . .
H152 H 0.2986 0.7447 0.1234 0.185 Uiso 1 1 calc R . .
C3M C 0.2549(2) 0.77291(17) 0.14943(19) 0.1434(19) Uani 1 1 d U . .
C4M C 0.2178(2) 0.7757(2) 0.1581(2) 0.162(2) Uani 1 1 d U . .
H153 H 0.2045 0.7934 0.1714 0.195 Uiso 1 1 calc R . .
C5M C 0.2001(2) 0.7523(2) 0.1469(2) 0.156(2) Uani 1 1 d U . .
H154 H 0.1750 0.7540 0.1533 0.187 Uiso 1 1 calc R . .
N2M N 0.31055(17) 0.79297(15) 0.15264(16) 0.1511(16) Uani 1 1 d U . .
C6M C 0.2755(2) 0.79784(19) 0.16086(19) 0.1471(19) Uani 1 1 d U . .
N3M N 0.25493(16) 0.82438(17) 0.17871(17) 0.1598(18) Uani 1 1 d U . .
C7M C 0.2741(2) 0.8466(2) 0.1861(2) 0.162(2) Uani 1 1 d U . .
N4M N 0.30994(19) 0.84453(16) 0.17864(17) 0.1609(18) Uani 1 1 d U . .
C8M C 0.3273(2) 0.8174(2) 0.16167(19) 0.149(2) Uani 1 1 d U . .
C9M C 0.2526(3) 0.8797(2) 0.2032(3) 0.217(4) Uani 1 1 d U . .
H155 H 0.2271 0.8781 0.2078 0.325 Uiso 1 1 calc R . .
H156 H 0.2566 0.9017 0.1868 0.325 Uiso 1 1 calc R . .
H157 H 0.2605 0.8798 0.2257 0.325 Uiso 1 1 calc R . .
N5M N 0.44131(14) 0.80658(16) 0.13053(15) 0.1454(15) Uani 1 1 d U J .
C10M C 0.4220(2) 0.78336(19) 0.1239(2) 0.166(2) Uani 1 1 d U . .
H158 H 0.4343 0.7644 0.1118 0.199 Uiso 1 1 calc R . .
C11M C 0.3858(2) 0.7859(2) 0.1336(2) 0.174(3) Uani 1 1 d U . .
H159 H 0.3734 0.7696 0.1277 0.209 Uiso 1 1 calc R . .
C12M C 0.3679(2) 0.81248(19) 0.1521(2) 0.148(2) Uani 1 1 d U . .
C13M C 0.3864(2) 0.8358(2) 0.1594(2) 0.165(2) Uani 1 1 d U . .
H160 H 0.3741 0.8546 0.1718 0.198 Uiso 1 1 calc R . .
C14M C 0.4233(2) 0.8327(2) 0.1490(2) 0.165(2) Uani 1 1 d U . .
H161 H 0.4359 0.8489 0.1549 0.198 Uiso 1 1 calc R . .
N1N N 0.27175(14) 0.44045(14) 0.30440(15) 0.1404(15) Uani 1 1 d U G .
C1N C 0.2762(2) 0.4666(2) 0.2759(2) 0.173(3) Uani 1 1 d U . .
H162 H 0.2965 0.4627 0.2581 0.207 Uiso 1 1 calc R . .
C2N C 0.2545(2) 0.4971(2) 0.2712(2) 0.184(3) Uani 1 1 d U . .
H163 H 0.2590 0.5136 0.2499 0.220 Uiso 1 1 calc R . .
C3N C 0.2240(2) 0.50600(19) 0.29738(19) 0.153(2) Uani 1 1 d U . .
C4N C 0.2198(2) 0.4807(2) 0.3267(2) 0.186(3) Uani 1 1 d U . .
H164 H 0.2005 0.4851 0.3452 0.223 Uiso 1 1 calc R . .
C5N C 0.2440(2) 0.4473(2) 0.3307(2) 0.181(3) Uani 1 1 d U . .
H165 H 0.2404 0.4302 0.3516 0.217 Uiso 1 1 calc R . .
N2N N 0.20331(16) 0.56193(16) 0.26047(15) 0.1546(17) Uani 1 1 d U . .
C6N C 0.1983(2) 0.5411(2) 0.2921(2) 0.162(2) Uani 1 1 d U . .
N3N N 0.1739(2) 0.54904(19) 0.32132(18) 0.204(3) Uani 1 1 d U . .
C7N C 0.1515(3) 0.5799(3) 0.3145(3) 0.219(4) Uani 1 1 d U . .
N4N N 0.15269(19) 0.60344(18) 0.2839(2) 0.181(2) Uani 1 1 d U . .
C8N C 0.1791(2) 0.5929(2) 0.2572(2) 0.161(2) Uani 1 1 d U . .
C9N C 0.1215(4) 0.5890(3) 0.3462(3) 0.323(9) Uani 1 1 d U . .
H166 H 0.1074 0.6123 0.3392 0.484 Uiso 1 1 calc R . .
H167 H 0.1323 0.5898 0.3668 0.484 Uiso 1 1 calc R . .
H168 H 0.1061 0.5708 0.3523 0.484 Uiso 1 1 calc R . .
N5N N 0.18695(16) 0.66325(14) 0.15607(15) 0.1397(15) Uani 1 1 d U . .
C10N C 0.2154(2) 0.6357(2) 0.1637(2) 0.156(2) Uani 1 1 d U . .
H169 H 0.2363 0.6332 0.1465 0.187 Uiso 1 1 calc R . .
C11N C 0.21339(19) 0.61184(18) 0.1962(2) 0.150(2) Uani 1 1 d U . .
H170 H 0.2325 0.5931 0.2007 0.180 Uiso 1 1 calc R . .
C12N C 0.1820(2) 0.61650(18) 0.22237(18) 0.1449(19) Uani 1 1 d U . .
C13N C 0.1536(2) 0.6444(2) 0.2130(2) 0.153(2) Uani 1 1 d U . .
H171 H 0.1320 0.6475 0.2292 0.183 Uiso 1 1 calc R . .
C14N C 0.1574(2) 0.66683(18) 0.18066(19) 0.144(2) Uani 1 1 d U . .
H172 H 0.1384 0.6855 0.1756 0.173 Uiso 1 1 calc R . .
N1O N 0.16485(17) 0.66362(14) 0.08939(15) 0.1434(15) Uani 1 1 d U . .
C1O C 0.1836(2) 0.6343(2) 0.0754(2) 0.161(2) Uani 1 1 d U . .
H173 H 0.2088 0.6298 0.0735 0.193 Uiso 1 1 calc R . .
C2O C 0.1666(2) 0.6106(2) 0.0637(2) 0.168(2) Uani 1 1 d U . .
H174 H 0.1801 0.5907 0.0536 0.202 Uiso 1 1 calc R . .
C3O C 0.1292(2) 0.6169(2) 0.0671(2) 0.169(2) Uani 1 1 d U . .
C4O C 0.1118(2) 0.6475(3) 0.0819(3) 0.191(3) Uani 1 1 d U . .
H175 H 0.0867 0.6531 0.0843 0.229 Uiso 1 1 calc R . .
C5O C 0.1297(2) 0.6692(2) 0.0931(2) 0.173(3) Uani 1 1 d U . .
H176 H 0.1166 0.6888 0.1037 0.207 Uiso 1 1 calc R . .
N2O N 0.12996(11) 0.56080(16) 0.04777(17) 0.180(2) Uani 1 1 d GU . .
C6O C 0.11072(16) 0.59375(14) 0.05667(19) 0.194(3) Uani 1 1 d GU . .
N3O N 0.07325(16) 0.60129(16) 0.0580(2) 0.257(4) Uani 1 1 d GU . .
C7O C 0.05501(11) 0.5759(2) 0.0504(3) 0.304(6) Uani 1 1 d GU . .
N4O N 0.07425(15) 0.54292(18) 0.0415(3) 0.281(5) Uani 1 1 d GU . .
C8O C 0.11173(15) 0.53538(14) 0.0402(2) 0.205(3) Uani 1 1 d GU . .
C9O C 0.0163(3) 0.5850(4) 0.0539(6) 0.373(11) Uani 1 1 d U . .
H177 H 0.0067 0.5662 0.0470 0.559 Uiso 1 1 calc R . .
H178 H 0.0099 0.6076 0.0385 0.559 Uiso 1 1 calc R . .
H179 H 0.0062 0.5874 0.0787 0.559 Uiso 1 1 calc R . .
N5O N 0.16899(18) 0.43610(16) 0.01500(15) 0.1562(17) Uani 1 1 d U . .
C10O C 0.1864(2) 0.4628(2) 0.0193(2) 0.174(3) Uani 1 1 d U . .
H180 H 0.2116 0.4585 0.0172 0.209 Uiso 1 1 calc R . .
C11O C 0.1674(2) 0.4961(2) 0.0268(2) 0.184(3) Uani 1 1 d U . .
H181 H 0.1800 0.5142 0.0287 0.221 Uiso 1 1 calc R . .
C12O C 0.1301(2) 0.5025(2) 0.0314(3) 0.173(3) Uani 1 1 d U . .
C13O C 0.1126(2) 0.4757(3) 0.0280(3) 0.199(3) Uani 1 1 d U . .
H182 H 0.0874 0.4792 0.0311 0.239 Uiso 1 1 calc R . .
C14O C 0.1332(2) 0.4425(3) 0.0195(3) 0.190(3) Uani 1 1 d U . .
H183 H 0.1210 0.4243 0.0171 0.228 Uiso 1 1 calc R . .
N1P N 0.19337(15) 0.36981(15) 0.05859(14) 0.1414(15) Uani 1 1 d U . .
C1P C 0.2165(2) 0.3768(2) 0.0775(2) 0.170(3) Uani 1 1 d U . .
H184 H 0.2351 0.3894 0.0653 0.204 Uiso 1 1 calc R . .
C2P C 0.2139(2) 0.3663(2) 0.1140(2) 0.175(3) Uani 1 1 d U . .
H185 H 0.2307 0.3719 0.1261 0.210 Uiso 1 1 calc R . .
C3P C 0.18720(19) 0.3478(2) 0.13312(19) 0.1464(19) Uani 1 1 d U . .
C4P C 0.1644(2) 0.3397(2) 0.1143(2) 0.174(3) Uani 1 1 d U . .
H186 H 0.1462 0.3264 0.1262 0.209 Uiso 1 1 calc R . .
C5P C 0.1679(2) 0.3512(2) 0.0764(2) 0.168(2) Uani 1 1 d U . .
H187 H 0.1516 0.3455 0.0637 0.202 Uiso 1 1 calc R . .
N2P N 0.20706(15) 0.34776(16) 0.18972(16) 0.1506(16) Uani 1 1 d U . .
C6P C 0.18304(19) 0.33815(19) 0.17330(19) 0.1428(19) Uani 1 1 d U . .
N3P N 0.15595(16) 0.32083(18) 0.19027(19) 0.1625(18) Uani 1 1 d U . .
C7P C 0.15324(19) 0.3126(2) 0.2267(2) 0.157(2) Uani 1 1 d U . .
N4P N 0.17588(17) 0.32160(18) 0.24603(16) 0.1623(18) Uani 1 1 d U . .
C8P C 0.20183(19) 0.3390(2) 0.2248(2) 0.1467(19) Uani 1 1 d U . .
C9P C 0.1229(2) 0.2939(3) 0.2475(2) 0.195(3) Uani 1 1 d U . .
H188 H 0.1089 0.2891 0.2309 0.292 Uiso 1 1 calc R . .
H189 H 0.1077 0.3091 0.2637 0.292 Uiso 1 1 calc R . .
H190 H 0.1326 0.2714 0.2612 0.292 Uiso 1 1 calc R . .
N5P N 0.27234(14) 0.37328(15) 0.28157(15) 0.1418(15) Uani 1 1 d U G .
C10P C 0.2751(2) 0.3814(2) 0.2446(2) 0.166(2) Uani 1 1 d U . .
H191 H 0.2927 0.3950 0.2315 0.200 Uiso 1 1 calc R . .
C11P C 0.2533(2) 0.3705(2) 0.22679(19) 0.157(2) Uani 1 1 d U . .
H192 H 0.2557 0.3766 0.2016 0.188 Uiso 1 1 calc R . .
C12P C 0.22725(19) 0.35051(19) 0.2453(2) 0.1464(19) Uani 1 1 d U . .
C13P C 0.22500(19) 0.3411(2) 0.2819(2) 0.155(2) Uani 1 1 d U . .
H193 H 0.2085 0.3263 0.2949 0.186 Uiso 1 1 calc R . .
C14P C 0.2477(2) 0.3538(2) 0.2996(2) 0.157(2) Uani 1 1 d U . .
H194 H 0.2454 0.3484 0.3248 0.188 Uiso 1 1 calc R . .
N1Q N 0.33643(15) 0.41057(15) 0.33498(15) 0.1415(15) Uani 1 1 d U G .
C1Q C 0.3647(2) 0.4244(2) 0.31694(19) 0.160(2) Uani 1 1 d U . .
H195 H 0.3685 0.4272 0.2917 0.192 Uiso 1 1 calc R . .
C2Q C 0.3897(2) 0.4352(2) 0.3341(2) 0.173(3) Uani 1 1 d U G .
H196 H 0.4102 0.4442 0.3207 0.207 Uiso 1 1 calc R . .
C3Q C 0.3826(2) 0.4321(2) 0.3705(2) 0.171(3) Uani 1 1 d DU . .
C4Q C 0.3519(2) 0.4183(3) 0.3882(2) 0.185(3) Uani 1 1 d U G .
H197 H 0.3463 0.4168 0.4133 0.222 Uiso 1 1 calc R . .
C5Q C 0.3302(2) 0.4072(2) 0.3710(2) 0.174(3) Uani 1 1 d U . .
H198 H 0.3104 0.3968 0.3842 0.209 Uiso 1 1 calc R G .
N2Q N 0.4357(5) 0.4533(6) 0.3705(3) 0.167(6) Uani 0.57(2) 1 d PGU G 1
C6Q C 0.4051(4) 0.4408(6) 0.3916(5) 0.202(8) Uani 0.57(2) 1 d PGDU G 1
N3Q N 0.4021(4) 0.4340(6) 0.4293(4) 0.215(6) Uani 0.57(2) 1 d PGDU G 1
C7Q C 0.4298(5) 0.4397(7) 0.4457(3) 0.227(8) Uani 0.57(2) 1 d PGDU G 1
N4Q N 0.4605(4) 0.4522(7) 0.4246(5) 0.209(7) Uani 0.57(2) 1 d PGDU G 1
C8Q C 0.4634(4) 0.4590(5) 0.3869(4) 0.186(5) Uani 0.57(2) 1 d PGDU G 1
C9Q C 0.4210(8) 0.4341(11) 0.4881(5) 0.271(14) Uani 0.57(2) 1 d PDU G 1
H199 H 0.3979 0.4259 0.4959 0.406 Uiso 0.57(2) 1 calc PR G 1
H200 H 0.4201 0.4566 0.4963 0.406 Uiso 0.57(2) 1 calc PR G 1
H201 H 0.4396 0.4161 0.4980 0.406 Uiso 0.57(2) 1 calc PR G 1
N52Q N 0.4446(7) 0.4496(8) 0.3722(5) 0.164(7) Uani 0.43(2) 1 d PGU G 2
C56Q C 0.4090(6) 0.4450(7) 0.3868(6) 0.176(7) Uani 0.43(2) 1 d PGDU G 2
N53Q N 0.3941(4) 0.4531(8) 0.4213(7) 0.216(8) Uani 0.43(2) 1 d PGDU G 2
C57Q C 0.4148(6) 0.4658(9) 0.4411(5) 0.222(9) Uani 0.43(2) 1 d PGDU G 2
N54Q N 0.4504(6) 0.4705(8) 0.4266(6) 0.203(7) Uani 0.43(2) 1 d PGDU G 2
C58Q C 0.4653(4) 0.4624(7) 0.3921(6) 0.191(7) Uani 0.43(2) 1 d PGDU G 2
C59Q C 0.4055(8) 0.4719(14) 0.4774(7) 0.261(16) Uani 0.43(2) 1 d PDU G 2
H202 H 0.4254 0.4796 0.4844 0.391 Uiso 0.43(2) 1 calc PR G 2
H203 H 0.4003 0.4497 0.4930 0.391 Uiso 0.43(2) 1 calc PR G 2
H204 H 0.3845 0.4904 0.4797 0.391 Uiso 0.43(2) 1 calc PR G 2
N5Q N 0.56395(16) 0.48500(15) 0.33117(16) 0.1500(16) Uani 1 1 d U G .
C10Q C 0.5378(2) 0.4809(2) 0.3143(2) 0.176(3) Uani 1 1 d U . .
H205 H 0.5421 0.4835 0.2891 0.211 Uiso 1 1 calc R . .
C11Q C 0.5045(2) 0.4728(2) 0.3326(2) 0.174(3) Uani 1 1 d U G .
H206 H 0.4868 0.4698 0.3199 0.209 Uiso 1 1 calc R . .
C12Q C 0.4980(2) 0.4692(3) 0.3693(2) 0.174(3) Uani 1 1 d DU . .
C13Q C 0.5246(3) 0.4733(3) 0.3866(2) 0.184(3) Uani 1 1 d U G .
H207 H 0.5206 0.4703 0.4118 0.221 Uiso 1 1 calc R . .
C14Q C 0.5573(3) 0.4818(3) 0.3678(2) 0.185(3) Uani 1 1 d U . .
H208 H 0.5749 0.4854 0.3803 0.222 Uiso 1 1 calc R G .
N1R N 0.55979(15) 0.19524(15) 0.22874(13) 0.1389(15) Uani 1 1 d U H .
C1R C 0.5342(2) 0.2251(2) 0.2230(2) 0.170(3) Uani 1 1 d U . .
H209 H 0.5385 0.2432 0.2032 0.204 Uiso 1 1 calc R . .
C2R C 0.5020(2) 0.2284(2) 0.2466(2) 0.175(3) Uani 1 1 d U . .
H210 H 0.4851 0.2493 0.2423 0.210 Uiso 1 1 calc R . .
C3R C 0.49343(19) 0.20276(19) 0.2760(2) 0.146(2) Uani 1 1 d U . .
C4R C 0.5196(2) 0.1728(2) 0.2801(2) 0.178(3) Uani 1 1 d U . .
H211 H 0.5153 0.1539 0.2992 0.214 Uiso 1 1 calc R . .
C5R C 0.5524(2) 0.1698(2) 0.2564(2) 0.172(3) Uani 1 1 d U . .
H212 H 0.5696 0.1491 0.2603 0.206 Uiso 1 1 calc R . .
N2R N 0.43810(17) 0.24000(15) 0.29651(16) 0.1553(17) Uani 1 1 d U . .
C6R C 0.4592(2) 0.2078(2) 0.3013(2) 0.167(2) Uani 1 1 d U . .
N3R N 0.4522(2) 0.17884(18) 0.3260(2) 0.197(3) Uani 1 1 d U . .
C7R C 0.4199(3) 0.1846(3) 0.3492(3) 0.231(5) Uani 1 1 d U . .
N4R N 0.39713(19) 0.2158(2) 0.3474(2) 0.191(2) Uani 1 1 d U . .
C8R C 0.4068(2) 0.2432(2) 0.3210(2) 0.160(2) Uani 1 1 d U . .
C9R C 0.4089(3) 0.1534(3) 0.3769(4) 0.300(8) Uani 1 1 d U . .
H213 H 0.3863 0.1613 0.3915 0.450 Uiso 1 1 calc R . .
H214 H 0.4273 0.1447 0.3921 0.450 Uiso 1 1 calc R . .
H215 H 0.4062 0.1343 0.3648 0.450 Uiso 1 1 calc R . .
N5R N 0.33742(14) 0.34364(14) 0.31179(15) 0.1369(14) Uani 1 1 d U G .
C10R C 0.3644(2) 0.33585(19) 0.28539(19) 0.146(2) Uani 1 1 d U . .
H216 H 0.3674 0.3531 0.2646 0.175 Uiso 1 1 calc R . .
C11R C 0.38744(19) 0.3046(2) 0.28700(18) 0.150(2) Uani 1 1 d U . .
H217 H 0.4061 0.3004 0.2677 0.180 Uiso 1 1 calc R . .
C12R C 0.38344(17) 0.27813(18) 0.3177(2) 0.1395(18) Uani 1 1 d U . .
C13R C 0.3555(2) 0.2868(2) 0.3460(2) 0.155(2) Uani 1 1 d U . .
H218 H 0.3520 0.2702 0.3674 0.186 Uiso 1 1 calc R . .
C14R C 0.3339(2) 0.3187(2) 0.3424(2) 0.149(2) Uani 1 1 d U . .
H219 H 0.3156 0.3241 0.3616 0.179 Uiso 1 1 calc R . .
N1S N 0.58964(15) 0.16494(16) 0.16374(13) 0.1382(14) Uani 1 1 d U H .
C1S C 0.5755(2) 0.1830(2) 0.1354(2) 0.176(3) Uani 1 1 d U . .
H220 H 0.5732 0.2083 0.1312 0.211 Uiso 1 1 calc R . .
C2S C 0.5639(2) 0.1662(2) 0.1117(2) 0.176(3) Uani 1 1 d U H .
H221 H 0.5537 0.1798 0.0919 0.211 Uiso 1 1 calc R . .
C3S C 0.5677(3) 0.1288(2) 0.1179(2) 0.176(3) Uani 1 1 d DU . .
C4S C 0.5804(3) 0.1118(2) 0.1483(2) 0.184(3) Uani 1 1 d U H .
H222 H 0.5810 0.0868 0.1546 0.221 Uiso 1 1 calc R . .
C5S C 0.5923(2) 0.1293(2) 0.1702(2) 0.164(2) Uani 1 1 d U . .
H223 H 0.6025 0.1162 0.1900 0.197 Uiso 1 1 calc R H .
N2S N 0.5485(9) 0.1273(5) 0.0653(8) 0.171(7) Uani 0.32(2) 1 d PGU H 1
C6S C 0.5622(10) 0.1049(8) 0.0947(7) 0.200(9) Uani 0.32(2) 1 d PGDU H 1
N3S N 0.5733(11) 0.0680(7) 0.0941(7) 0.246(11) Uani 0.32(2) 1 d PGDU H 1
C7S C 0.5707(12) 0.0533(5) 0.0640(8) 0.224(10) Uani 0.32(2) 1 d PGDU H 1
N4S N 0.5570(11) 0.0757(7) 0.0345(6) 0.202(9) Uani 0.32(2) 1 d PGDU H 1
C8S C 0.5459(9) 0.1126(6) 0.0352(6) 0.194(8) Uani 0.32(2) 1 d PGDU H 1
C9S C 0.5765(18) 0.0185(13) 0.059(2) 0.34(2) Uani 0.32(2) 1 d PDU H 1
H224 H 0.5696 0.0171 0.0365 0.513 Uiso 0.32(2) 1 calc PR H 1
H225 H 0.5622 0.0048 0.0787 0.513 Uiso 0.32(2) 1 calc PR H 1
H226 H 0.6018 0.0087 0.0588 0.513 Uiso 0.32(2) 1 calc PR H 1
N52S N 0.5473(5) 0.1296(3) 0.0589(4) 0.187(5) Uani 0.68(2) 1 d PGU H 2
C56S C 0.5567(5) 0.1119(3) 0.0922(3) 0.195(5) Uani 0.68(2) 1 d PGDU H 2
N53S N 0.5554(6) 0.0750(3) 0.1027(3) 0.219(6) Uani 0.68(2) 1 d PGDU H 2
C57S C 0.5447(7) 0.0558(3) 0.0800(4) 0.250(8) Uani 0.68(2) 1 d PGDU H 2
N54S N 0.5352(6) 0.0735(4) 0.0467(4) 0.218(6) Uani 0.68(2) 1 d PGDU H 2
C58S C 0.5366(5) 0.1104(4) 0.0362(3) 0.188(5) Uani 0.68(2) 1 d PGDU H 2
C59S C 0.5460(9) 0.0169(4) 0.0877(6) 0.282(13) Uani 0.68(2) 1 d PDU H 2
H227 H 0.5490 0.0083 0.1125 0.423 Uiso 0.68(2) 1 calc PR H 2
H228 H 0.5661 0.0056 0.0720 0.423 Uiso 0.68(2) 1 calc PR H 2
H229 H 0.5238 0.0110 0.0836 0.423 Uiso 0.68(2) 1 calc PR H 2
N5S N 0.51507(15) 0.16914(16) -0.06398(15) 0.1470(16) Uani 1 1 d U . .
C10S C 0.5191(2) 0.1862(2) -0.0375(2) 0.172(3) Uani 1 1 d U . .
H230 H 0.5166 0.2114 -0.0414 0.207 Uiso 1 1 calc R . .
C11S C 0.5269(2) 0.1671(2) -0.0046(2) 0.178(3) Uani 1 1 d U H .
H231 H 0.5290 0.1796 0.0134 0.213 Uiso 1 1 calc R . .
C12S C 0.5315(3) 0.1308(2) 0.0019(2) 0.175(3) Uani 1 1 d DU . .
C13S C 0.5258(3) 0.1140(2) -0.0235(3) 0.195(3) Uani 1 1 d U H .
H232 H 0.5266 0.0890 -0.0189 0.234 Uiso 1 1 calc R . .
C14S C 0.5187(3) 0.1330(3) -0.0563(3) 0.190(3) Uani 1 1 d U . .
H233 H 0.5162 0.1202 -0.0741 0.228 Uiso 1 1 calc R H .
N1T N 0.65643(15) 0.18764(15) 0.16306(13) 0.1358(14) Uani 1 1 d U H .
C1T C 0.6639(2) 0.21463(19) 0.1360(2) 0.149(2) Uani 1 1 d U . .
H234 H 0.6465 0.2353 0.1326 0.179 Uiso 1 1 calc R . .
C2T C 0.6967(2) 0.21271(19) 0.11290(18) 0.153(2) Uani 1 1 d U . .
H235 H 0.7016 0.2322 0.0948 0.183 Uiso 1 1 calc R . .
C3T C 0.7220(2) 0.1820(2) 0.11683(19) 0.149(2) Uani 1 1 d U . .
C4T C 0.7144(2) 0.15357(19) 0.14402(19) 0.154(2) Uani 1 1 d U . .
H236 H 0.7309 0.1321 0.1471 0.185 Uiso 1 1 calc R . .
C5T C 0.6805(2) 0.1585(2) 0.16695(18) 0.150(2) Uani 1 1 d U . .
H237 H 0.6751 0.1398 0.1859 0.180 Uiso 1 1 calc R . .
N2T N 0.76067(17) 0.20383(17) 0.06168(16) 0.1578(18) Uani 1 1 d U . .
C6T C 0.7569(2) 0.1792(2) 0.0934(2) 0.155(2) Uani 1 1 d U . .
N3T N 0.7836(2) 0.1525(2) 0.10263(19) 0.195(3) Uani 1 1 d U . .
C7T C 0.8153(3) 0.1506(3) 0.0786(3) 0.225(4) Uani 1 1 d U . .
N4T N 0.8220(2) 0.1740(2) 0.04827(19) 0.207(3) Uani 1 1 d U . .
C8T C 0.7919(3) 0.1992(2) 0.0409(2) 0.166(2) Uani 1 1 d U . .
C9T C 0.8460(3) 0.1190(4) 0.0877(3) 0.370(11) Uani 1 1 d U . .
H238 H 0.8382 0.1048 0.1107 0.555 Uiso 1 1 calc R . .
H239 H 0.8672 0.1286 0.0890 0.555 Uiso 1 1 calc R . .
H240 H 0.8515 0.1039 0.0691 0.555 Uiso 1 1 calc R . .
N5T N 0.80411(17) 0.27227(14) -0.06003(14) 0.1429(15) Uani 1 1 d U . .
C10T C 0.7750(2) 0.2764(2) -0.0335(2) 0.161(2) Uani 1 1 d U . .
H241 H 0.7567 0.2962 -0.0373 0.194 Uiso 1 1 calc R . .
C11T C 0.7712(2) 0.2532(2) -0.0020(2) 0.179(3) Uani 1 1 d U . .
H242 H 0.7501 0.2573 0.0148 0.214 Uiso 1 1 calc R . .
C12T C 0.7968(2) 0.2241(2) 0.0062(2) 0.159(2) Uani 1 1 d U . .
C13T C 0.8279(2) 0.2189(2) -0.0190(2) 0.173(3) Uani 1 1 d U . .
H243 H 0.8470 0.2002 -0.0143 0.208 Uiso 1 1 calc R . .
C14T C 0.8298(2) 0.2436(2) -0.0529(2) 0.177(3) Uani 1 1 d U . .
H244 H 0.8499 0.2394 -0.0707 0.212 Uiso 1 1 calc R . .
N1U N 0.62633(15) 0.21826(15) 0.22749(13) 0.1377(14) Uani 1 1 d U H .
C1U C 0.6187(2) 0.2547(2) 0.22402(19) 0.159(2) Uani 1 1 d U . .
H245 H 0.6060 0.2677 0.2057 0.190 Uiso 1 1 calc R . .
C2U C 0.6294(2) 0.27325(19) 0.2471(2) 0.163(2) Uani 1 1 d U . .
H246 H 0.6228 0.2984 0.2449 0.195 Uiso 1 1 calc R . .
C3U C 0.6496(2) 0.2548(2) 0.27302(18) 0.148(2) Uani 1 1 d U . .
C4U C 0.6590(2) 0.2175(2) 0.27505(18) 0.154(2) Uani 1 1 d U . .
H247 H 0.6731 0.2040 0.2920 0.185 Uiso 1 1 calc R . .
C5U C 0.6471(2) 0.20065(19) 0.2518(2) 0.151(2) Uani 1 1 d U . .
H248 H 0.6538 0.1756 0.2530 0.181 Uiso 1 1 calc R . .
N2U N 0.65230(16) 0.31058(16) 0.29329(14) 0.1506(17) Uani 1 1 d U . .
C6U C 0.6609(2) 0.2749(2) 0.2983(2) 0.156(2) Uani 1 1 d U . .
N3U N 0.67826(19) 0.25420(16) 0.32457(17) 0.1643(19) Uani 1 1 d U . .
C7U C 0.6870(2) 0.2738(2) 0.34676(19) 0.168(2) Uani 1 1 d U . .
N4U N 0.67880(18) 0.30998(18) 0.34380(15) 0.1626(18) Uani 1 1 d U . .
C8U C 0.6614(2) 0.3279(2) 0.31648(19) 0.1457(19) Uani 1 1 d U . .
C9U C 0.7055(3) 0.2528(2) 0.3774(2) 0.207(4) Uani 1 1 d U . .
H249 H 0.7092 0.2273 0.3761 0.311 Uiso 1 1 calc R . .
H250 H 0.6907 0.2572 0.4001 0.311 Uiso 1 1 calc R . .
H251 H 0.7286 0.2604 0.3758 0.311 Uiso 1 1 calc R . .
N5U N 0.63028(16) 0.44137(14) 0.30680(15) 0.1460(16) Uani 1 1 d U G .
C10U C 0.6232(2) 0.4218(2) 0.28385(19) 0.168(2) Uani 1 1 d U . .
H252 H 0.6098 0.4337 0.2657 0.201 Uiso 1 1 calc R . .
C11U C 0.6345(2) 0.3859(2) 0.2861(2) 0.171(3) Uani 1 1 d U . .
H253 H 0.6296 0.3740 0.2688 0.206 Uiso 1 1 calc R . .
C12U C 0.6528(2) 0.3666(2) 0.31236(19) 0.149(2) Uani 1 1 d U . .
C13U C 0.6598(2) 0.3860(2) 0.3353(2) 0.177(3) Uani 1 1 d U . .
H254 H 0.6717 0.3740 0.3545 0.212 Uiso 1 1 calc R . .
C14U C 0.6497(2) 0.4240(2) 0.3313(2) 0.161(2) Uani 1 1 d U . .
H255 H 0.6570 0.4368 0.3464 0.193 Uiso 1 1 calc R . .
N1V N 0.66061(16) 0.50598(14) 0.27595(15) 0.1442(15) Uani 1 1 d U G .
C1V C 0.6667(2) 0.5123(2) 0.2398(2) 0.173(3) Uani 1 1 d U . .
H256 H 0.6487 0.5097 0.2275 0.208 Uiso 1 1 calc R . .
C2V C 0.6989(3) 0.5227(2) 0.2195(2) 0.183(3) Uani 1 1 d U I .
H257 H 0.7026 0.5260 0.1943 0.219 Uiso 1 1 calc R . .
C3V C 0.7239(2) 0.5278(2) 0.2368(2) 0.171(2) Uani 1 1 d DU . .
C4V C 0.7194(3) 0.5190(3) 0.2741(2) 0.198(3) Uani 1 1 d U I .
H258 H 0.7383 0.5189 0.2865 0.237 Uiso 1 1 calc R . .
C5V C 0.6867(3) 0.5103(3) 0.2926(2) 0.184(3) Uani 1 1 d U . .
H259 H 0.6826 0.5074 0.3179 0.221 Uiso 1 1 calc R I .
N2V N 0.7655(7) 0.5490(8) 0.1761(6) 0.179(8) Uani 0.39(2) 1 d PGU I 1
C6V C 0.7555(5) 0.5426(8) 0.2137(6) 0.188(8) Uani 0.39(2) 1 d PGDU I 1
N3V N 0.7737(7) 0.5556(9) 0.2357(4) 0.202(8) Uani 0.39(2) 1 d PGDU I 1
C7V C 0.8019(8) 0.5750(9) 0.2202(6) 0.230(10) Uani 0.39(2) 1 d PGDU I 1
N4V N 0.8119(7) 0.5814(9) 0.1827(6) 0.219(9) Uani 0.39(2) 1 d PGDU I 1
C8V C 0.7937(7) 0.5684(8) 0.1606(4) 0.196(8) Uani 0.39(2) 1 d PGDU I 1
C9V C 0.8246(15) 0.5857(15) 0.2393(11) 0.31(2) Uani 0.39(2) 1 d PDU I 1
H260 H 0.8425 0.5977 0.2225 0.467 Uiso 0.39(2) 1 calc PR I 1
H261 H 0.8363 0.5648 0.2536 0.467 Uiso 0.39(2) 1 calc PR I 1
H262 H 0.8105 0.6022 0.2550 0.467 Uiso 0.39(2) 1 calc PR I 1
N52V N 0.7588(4) 0.5491(5) 0.1836(4) 0.177(5) Uani 0.61(2) 1 d PGU I 2
C56V C 0.7576(4) 0.5390(5) 0.2209(4) 0.195(6) Uani 0.61(2) 1 d PGDU I 2
N53V N 0.7875(5) 0.5400(6) 0.2366(3) 0.225(7) Uani 0.61(2) 1 d PGDU I 2
C57V C 0.8186(4) 0.5510(7) 0.2150(4) 0.220(7) Uani 0.61(2) 1 d PGDU I 2
N54V N 0.8198(4) 0.5610(6) 0.1777(4) 0.219(7) Uani 0.61(2) 1 d PGDU I 2
C58V C 0.7899(4) 0.5601(5) 0.1620(3) 0.191(6) Uani 0.61(2) 1 d PGDU I 2
C59V C 0.8461(5) 0.5530(10) 0.2343(6) 0.280(14) Uani 0.61(2) 1 d PDU I 2
H263 H 0.8388 0.5445 0.2596 0.420 Uiso 0.61(2) 1 calc PR I 2
H264 H 0.8500 0.5777 0.2310 0.420 Uiso 0.61(2) 1 calc PR I 2
H265 H 0.8682 0.5381 0.2254 0.420 Uiso 0.61(2) 1 calc PR I 2
N5V N 0.80018(17) 0.59370(16) 0.04882(15) 0.1530(17) Uani 1 1 d U . .
C10V C 0.7719(2) 0.5797(2) 0.0677(2) 0.163(2) Uani 1 1 d U . .
H266 H 0.7536 0.5774 0.0556 0.195 Uiso 1 1 calc R . .
C11V C 0.7685(2) 0.5684(3) 0.1039(2) 0.188(3) Uani 1 1 d U I .
H267 H 0.7487 0.5575 0.1162 0.225 Uiso 1 1 calc R . .
C12V C 0.7944(3) 0.5734(3) 0.1221(2) 0.183(3) Uani 1 1 d DU . .
C13V C 0.8233(2) 0.5877(3) 0.1043(2) 0.204(4) Uani 1 1 d U I .
H268 H 0.8416 0.5904 0.1162 0.244 Uiso 1 1 calc R . .
C14V C 0.8249(2) 0.5983(3) 0.0675(3) 0.194(3) Uani 1 1 d U . .
H269 H 0.8444 0.6095 0.0548 0.233 Uiso 1 1 calc R I .
N1W N 0.59447(16) 0.54848(16) 0.29977(17) 0.1529(17) Uani 1 1 d U G .
C1W C 0.5795(2) 0.5674(2) 0.2722(2) 0.165(2) Uani 1 1 d U . .
H270 H 0.5763 0.5552 0.2543 0.198 Uiso 1 1 calc R . .
C2W C 0.5685(2) 0.6037(3) 0.2688(2) 0.185(3) Uani 1 1 d U J .
H271 H 0.5579 0.6160 0.2487 0.222 Uiso 1 1 calc R . .
C3W C 0.5728(3) 0.6226(2) 0.2946(2) 0.187(3) Uani 1 1 d DU . .
C4W C 0.5868(3) 0.6043(2) 0.3228(2) 0.199(4) Uani 1 1 d U J .
H272 H 0.5887 0.6159 0.3416 0.239 Uiso 1 1 calc R . .
C5W C 0.5984(3) 0.5679(3) 0.3243(2) 0.205(3) Uani 1 1 d U . .
H273 H 0.6099 0.5557 0.3437 0.247 Uiso 1 1 calc R J .
N2W N 0.5431(10) 0.6857(9) 0.2654(11) 0.194(10) Uani 0.231(12) 1 d PGU J 1
C6W C 0.5632(11) 0.6633(5) 0.2904(11) 0.194(10) Uani 0.231(12) 1 d PGDU J 1
N3W N 0.5878(10) 0.6770(8) 0.3046(8) 0.225(11) Uani 0.231(12) 1 d PGDU J 1
C7W C 0.5923(10) 0.7132(9) 0.2939(10) 0.259(12) Uani 0.231(12) 1 d PGDU J 1
N4W N 0.5722(11) 0.7356(6) 0.2689(9) 0.242(12) Uani 0.231(12) 1 d PGDU J 1
C8W C 0.5476(10) 0.7219(9) 0.2546(8) 0.205(10) Uani 0.231(12) 1 d PGDU J 1
C9W C 0.6158(19) 0.7392(16) 0.299(2) 0.40(3) Uani 0.231(12) 1 d PDU J 1
H274 H 0.6077 0.7632 0.2870 0.593 Uiso 0.231(12) 1 calc PR J 1
H275 H 0.6407 0.7313 0.2893 0.593 Uiso 0.231(12) 1 calc PR J 1
H276 H 0.6140 0.7397 0.3247 0.593 Uiso 0.231(12) 1 calc PR J 1
N52W N 0.5505(3) 0.6796(2) 0.2594(3) 0.176(4) Uani 0.769(12) 1 d PGU J 2
C56W C 0.5631(3) 0.66056(16) 0.2908(3) 0.211(5) Uani 0.769(12) 1 d PGDU J 2
N53W N 0.5651(4) 0.6790(3) 0.3185(2) 0.240(6) Uani 0.769(12) 1 d PGDU J 2
C57W C 0.5544(4) 0.7164(3) 0.3148(2) 0.262(7) Uani 0.769(12) 1 d PGDU J 2
N54W N 0.5418(4) 0.73548(16) 0.2833(2) 0.232(5) Uani 0.769(12) 1 d PGDU J 2
C58W C 0.5399(3) 0.7171(2) 0.2556(2) 0.188(4) Uani 0.769(12) 1 d PGDU J 2
C59W C 0.5566(6) 0.7340(4) 0.3451(4) 0.344(14) Uani 0.769(12) 1 d PDU J 2
H277 H 0.5649 0.7159 0.3644 0.516 Uiso 0.769(12) 1 calc PR J 2
H278 H 0.5330 0.7466 0.3537 0.516 Uiso 0.769(12) 1 calc PR J 2
H279 H 0.5734 0.7510 0.3372 0.516 Uiso 0.769(12) 1 calc PR J 2
N5W N 0.50585(14) 0.77539(15) 0.16089(15) 0.1456(15) Uani 1 1 d U J .
C10W C 0.5138(2) 0.7385(2) 0.1668(2) 0.172(3) Uani 1 1 d U . .
H280 H 0.5116 0.7262 0.1485 0.206 Uiso 1 1 calc R . .
C11W C 0.5244(2) 0.7188(2) 0.1970(2) 0.179(3) Uani 1 1 d U J .
H281 H 0.5294 0.6936 0.1996 0.215 Uiso 1 1 calc R . .
C12W C 0.5278(3) 0.7365(2) 0.2243(2) 0.181(3) Uani 1 1 d DU . .
C13W C 0.5187(3) 0.7747(2) 0.2195(3) 0.203(4) Uani 1 1 d U J .
H282 H 0.5187 0.7874 0.2382 0.244 Uiso 1 1 calc R . .
C14W C 0.5100(3) 0.7924(2) 0.1869(2) 0.183(3) Uani 1 1 d U . .
H283 H 0.5068 0.8176 0.1826 0.219 Uiso 1 1 calc R J .
N1X N 0.54884(15) 0.80020(17) 0.09421(16) 0.1490(16) Uani 1 1 d U J .
C1X C 0.5674(2) 0.7718(2) 0.0784(2) 0.165(2) Uani 1 1 d U . .
H284 H 0.5551 0.7544 0.0744 0.198 Uiso 1 1 calc R . .
C2X C 0.6041(2) 0.7684(2) 0.0683(3) 0.185(3) Uani 1 1 d U K .
H285 H 0.6167 0.7482 0.0581 0.222 Uiso 1 1 calc R . .
C3X C 0.6224(2) 0.7939(3) 0.0730(3) 0.188(3) Uani 1 1 d DU . .
C4X C 0.6036(3) 0.8232(2) 0.0871(3) 0.206(4) Uani 1 1 d U K .
H286 H 0.6151 0.8421 0.0892 0.247 Uiso 1 1 calc R . .
C5X C 0.5662(3) 0.8242(2) 0.0985(3) 0.198(3) Uani 1 1 d U . .
H287 H 0.5533 0.8435 0.1099 0.237 Uiso 1 1 calc R K .
N2X N 0.6782(4) 0.7622(5) 0.0477(6) 0.182(7) Uani 0.58(2) 1 d PGU K 1
C6X C 0.6606(3) 0.7918(5) 0.0643(6) 0.192(6) Uani 0.58(2) 1 d PGDU K 1
N3X N 0.6807(4) 0.8143(5) 0.0740(6) 0.221(7) Uani 0.58(2) 1 d PGDU K 1
C7X C 0.7185(4) 0.8072(5) 0.0673(7) 0.239(8) Uani 0.58(2) 1 d PGDU K 1
N4X N 0.7361(3) 0.7776(5) 0.0507(6) 0.221(7) Uani 0.58(2) 1 d PGDU K 1
C8X C 0.7160(4) 0.7551(4) 0.0409(5) 0.196(6) Uani 0.58(2) 1 d PGDU K 1
C9X C 0.7351(7) 0.8386(8) 0.0724(12) 0.309(16) Uani 0.58(2) 1 d PDU K 1
H288 H 0.7167 0.8554 0.0845 0.463 Uiso 0.58(2) 1 calc PR K 1
H289 H 0.7451 0.8508 0.0492 0.463 Uiso 0.58(2) 1 calc PR K 1
H290 H 0.7540 0.8297 0.0869 0.463 Uiso 0.58(2) 1 calc PR K 1
N52X N 0.6834(7) 0.7593(6) 0.0495(8) 0.169(7) Uani 0.42(2) 1 d PGU K 2
C56X C 0.6607(4) 0.7913(7) 0.0565(8) 0.205(9) Uani 0.42(2) 1 d PGDU K 2
N53X N 0.6751(6) 0.8233(5) 0.0519(9) 0.222(9) Uani 0.42(2) 1 d PGDU K 2
C57X C 0.7121(6) 0.8231(5) 0.0403(10) 0.266(11) Uani 0.42(2) 1 d PGDU K 2
N54X N 0.7348(4) 0.7910(6) 0.0333(9) 0.241(9) Uani 0.42(2) 1 d PGDU K 2
C58X C 0.7205(6) 0.7591(5) 0.0379(8) 0.206(9) Uani 0.42(2) 1 d PGDU K 2
C59X C 0.7316(11) 0.8526(10) 0.0306(17) 0.33(2) Uani 0.42(2) 1 d PDU K 2
H291 H 0.7569 0.8438 0.0230 0.497 Uiso 0.42(2) 1 calc PR K 2
H292 H 0.7291 0.8647 0.0511 0.497 Uiso 0.42(2) 1 calc PR K 2
H293 H 0.7222 0.8694 0.0110 0.497 Uiso 0.42(2) 1 calc PR K 2
N5X N 0.77523(16) 0.66097(16) 0.00620(14) 0.1452(15) Uani 1 1 d U . .
C10X C 0.7394(2) 0.6669(2) 0.0120(2) 0.171(2) Uani 1 1 d U . .
H294 H 0.7272 0.6491 0.0086 0.205 Uiso 1 1 calc R . .
C11X C 0.7193(2) 0.6984(2) 0.0231(2) 0.182(3) Uani 1 1 d U K .
H295 H 0.6941 0.7018 0.0274 0.218 Uiso 1 1 calc R . .
C12X C 0.7374(2) 0.7240(2) 0.0273(2) 0.176(3) Uani 1 1 d DU . .
C13X C 0.7744(2) 0.7195(3) 0.0194(3) 0.208(4) Uani 1 1 d U K .
H296 H 0.7869 0.7380 0.0206 0.249 Uiso 1 1 calc R . .
C14X C 0.7924(2) 0.6875(3) 0.0099(2) 0.181(3) Uani 1 1 d U . .
H297 H 0.8176 0.6837 0.0057 0.217 Uiso 1 1 calc R K .
Pd1 Pd 0.153503(16) 0.974733(14) 0.784125(14) 0.15051(19) Uani 1 1 d . . .
Pd2 Pd 0.183378(17) 0.691168(16) 0.627133(15) 0.1566(2) Uani 1 1 d . . .
Pd3 Pd -0.127315(16) 0.816651(17) 0.808918(15) 0.1566(2) Uani 1 1 d . . .
Pd4 Pd -0.308978(16) 1.127127(15) 0.683401(16) 0.1567(2) Uani 1 1 d . . .
Pd5 Pd -0.284198(15) 0.846522(16) 0.525254(14) 0.15112(19) Uani 1 1 d . . .
Pd6 Pd 0.025225(14) 0.715830(15) 0.346511(16) 0.15039(19) Uani 1 1 d . . .
Pd7 Pd 0.196577(14) 0.387611(15) 0.004844(13) 0.14178(17) Uani 1 1 d . . .
Pd8 Pd 0.191572(13) 0.695700(12) 0.107921(13) 0.13435(16) Uani 1 1 d . . .
Pd9 Pd 0.304379(13) 0.392110(13) 0.308396(13) 0.13407(16) Uani 1 1 d . . .
Pd10 Pd 0.607865(14) 0.191607(13) 0.195621(12) 0.13426(16) Uani 1 1 d . . .
Pd11 Pd 0.612461(15) 0.495216(14) 0.303336(13) 0.14135(17) Uani 1 1 d . . .
Pd12 Pd 0.495234(14) 0.803393(13) 0.112385(14) 0.14176(17) Uani 1 1 d . . .
B11 B 0.1019(3) 0.9825(3) 0.6856(2) 0.149(3) Uani 1 1 d DU . .
F11 F 0.1174(2) 0.98095(19) 0.71765(18) 0.261(3) Uani 1 1 d DU L .
F12 F 0.1255(9) 0.9590(9) 0.6651(8) 0.54(2) Uani 0.50 1 d PDU L 1
F13 F 0.0695(7) 0.9698(10) 0.6952(10) 0.51(2) Uani 0.50 1 d PDU L 1
F14 F 0.0989(11) 1.0185(6) 0.6677(9) 0.502(17) Uani 0.50 1 d PDU L 1
F16 F 0.0979(11) 0.9469(6) 0.6881(12) 0.53(2) Uani 0.50 1 d PDU L 2
F17 F 0.0689(6) 1.0032(9) 0.6939(9) 0.440(15) Uani 0.50 1 d PDU L 2
F18 F 0.1281(6) 0.9950(10) 0.6592(7) 0.52(2) Uani 0.50 1 d PDU L 2
B21 B 0.2148(5) 0.9671(5) 0.8712(5) 0.353(5) Uani 1 1 d DU . .
F21 F 0.1893(8) 0.9622(8) 0.8528(10) 0.326(6) Uani 0.50 1 d PDU M 1
F22 F 0.2202(6) 1.0044(5) 0.8522(7) 0.399(7) Uani 0.50 1 d PDU M 1
F23 F 0.1875(4) 0.9803(5) 0.8949(4) 0.339(5) Uani 0.50 1 d PDU M 1
F24 F 0.2453(6) 0.9462(6) 0.8849(7) 0.393(6) Uani 0.50 1 d PDU M 1
F25 F 0.1853(7) 0.9716(8) 0.8552(10) 0.322(5) Uani 0.50 1 d PDU M 2
F26 F 0.2284(7) 0.9932(6) 0.8809(7) 0.401(7) Uani 0.50 1 d PDU M 2
F27 F 0.2029(7) 0.9491(6) 0.9073(5) 0.391(6) Uani 0.50 1 d PDU M 2
F28 F 0.2423(5) 0.9428(5) 0.8496(5) 0.377(6) Uani 0.50 1 d PDU M 2
B31 B 0.1180(3) 0.7969(2) 0.5840(3) 0.151(3) Uani 1 1 d DU . .
F31 F 0.1373(5) 0.7609(3) 0.5968(4) 0.199(6) Uani 0.50 1 d PDU N 1
F32 F 0.1412(6) 0.8207(6) 0.5745(8) 0.461(16) Uani 0.50 1 d PDU N 1
F33 F 0.1003(12) 0.7909(10) 0.5575(10) 0.55(2) Uani 0.50 1 d PDU N 1
F34 F 0.0931(9) 0.8034(9) 0.6144(7) 0.469(18) Uani 0.50 1 d PDU N 1
F35 F 0.1447(6) 0.7722(6) 0.5960(7) 0.332(14) Uani 0.50 1 d PDU N 2
F36 F 0.1115(10) 0.8288(7) 0.5984(11) 0.510(19) Uani 0.50 1 d PDU N 2
F37 F 0.1244(9) 0.8062(11) 0.5453(5) 0.507(17) Uani 0.50 1 d PDU N 2
F38 F 0.0872(7) 0.7797(9) 0.5914(11) 0.481(19) Uani 0.50 1 d PDU N 2
B41 B 0.2530(6) 0.5861(4) 0.6446(6) 0.456(14) Uani 1 1 d DU . .
F41 F 0.2297(3) 0.6149(2) 0.6572(2) 0.316(4) Uani 1 1 d DU . .
F42 F 0.2859(6) 0.5924(5) 0.6225(6) 0.71(2) Uani 1 1 d DU . .
F43 F 0.2599(4) 0.5618(4) 0.6730(4) 0.437(7) Uani 1 1 d DU . .
F44 F 0.2373(5) 0.5754(4) 0.6182(7) 0.711(18) Uani 1 1 d DU . .
B51 B -0.0833(3) 0.8806(3) 0.7029(2) 0.149(3) Uani 1 1 d DU . .
F51 F -0.0984(5) 0.8583(5) 0.7365(3) 0.239(9) Uani 0.50 1 d PDU O 1
F52 F -0.0461(5) 0.8739(11) 0.7057(10) 0.54(2) Uani 0.50 1 d PDU O 1
F53 F -0.0913(10) 0.8746(11) 0.6719(7) 0.50(2) Uani 0.50 1 d PDU O 1
F54 F -0.0958(9) 0.9163(6) 0.7113(9) 0.503(18) Uani 0.50 1 d PDU O 1
F55 F -0.0942(9) 0.8592(7) 0.7357(6) 0.346(15) Uani 0.50 1 d PDU O 2
F56 F -0.0665(9) 0.8569(7) 0.6786(8) 0.51(2) Uani 0.50 1 d PDU O 2
F57 F -0.1146(7) 0.8962(9) 0.6879(9) 0.473(17) Uani 0.50 1 d PDU O 2
F58 F -0.0637(8) 0.9035(7) 0.7114(9) 0.54(2) Uani 0.50 1 d PDU O 2
B61 B -0.1461(6) 0.7491(6) 0.9144(4) 0.412(14) Uani 1 1 d DU . .
F61 F -0.1575(2) 0.7713(3) 0.8849(2) 0.313(4) Uani 1 1 d DU . .
F62 F -0.1731(3) 0.7394(4) 0.9379(4) 0.441(7) Uani 1 1 d DU . .
F63 F -0.1227(6) 0.7183(6) 0.9036(5) 0.633(17) Uani 1 1 d DU . .
F64 F -0.1242(7) 0.7669(6) 0.9281(5) 0.598(14) Uani 1 1 d DU . .
B71 B -0.20312(19) 1.0831(2) 0.6198(2) 0.140(3) Uani 1 1 d DU . .
F71 F -0.23651(17) 1.09646(18) 0.6401(2) 0.268(3) Uani 1 1 d DU P .
F72 F -0.1751(7) 1.0787(9) 0.6387(8) 0.493(19) Uani 0.50 1 d PDU P 1
F73 F -0.2053(8) 1.0544(7) 0.6046(10) 0.52(2) Uani 0.50 1 d PDU P 1
F74 F -0.2004(9) 1.1128(7) 0.5910(8) 0.492(19) Uani 0.50 1 d PDU P 1
F76 F -0.1769(8) 1.1044(9) 0.6153(10) 0.479(18) Uani 0.50 1 d PDU P 2
F77 F -0.1912(11) 1.0486(7) 0.6345(10) 0.54(2) Uani 0.50 1 d PDU P 2
F78 F -0.2154(8) 1.0822(9) 0.5880(6) 0.487(19) Uani 0.50 1 d PDU P 2
B81 B -0.4146(4) 1.1487(5) 0.7489(5) 0.298(5) Uani 1 1 d DU . .
F81 F -0.4216(6) 1.1725(6) 0.7147(5) 0.355(7) Uani 0.50 1 d PDU Q 1
F82 F -0.4457(4) 1.1638(5) 0.7675(6) 0.303(7) Uani 0.50 1 d PDU Q 1
F83 F -0.3827(5) 1.1595(7) 0.7428(6) 0.286(7) Uani 0.50 1 d PDU Q 1
F84 F -0.4146(6) 1.1131(5) 0.7436(7) 0.345(8) Uani 0.50 1 d PDU Q 1
F85 F -0.3855(5) 1.1557(7) 0.7233(5) 0.257(6) Uani 0.50 1 d PDU Q 2
F86 F -0.4281(6) 1.1815(5) 0.7590(7) 0.337(8) Uani 0.50 1 d PDU Q 2
F87 F -0.4061(3) 1.1254(4) 0.7815(4) 0.282(6) Uani 0.50 1 d PDU Q 2
F88 F -0.4382(6) 1.1351(7) 0.7327(6) 0.342(7) Uani 0.50 1 d PDU Q 2
B91 B -0.1839(4) 0.8799(5) 0.4976(5) 0.306(4) Uani 1 1 d DU . .
F91 F -0.1823(5) 0.8962(5) 0.5241(5) 0.260(5) Uani 0.50 1 d PDU R 1
F92 F -0.2202(4) 0.8857(7) 0.5151(6) 0.268(5) Uani 0.50 1 d PDU R 1
F93 F -0.1623(6) 0.8991(6) 0.4677(6) 0.370(6) Uani 0.50 1 d PDU R 1
F94 F -0.1777(7) 0.8412(5) 0.5013(7) 0.433(10) Uani 0.50 1 d PDU R 1
F95 F -0.1901(5) 0.9082(5) 0.5126(5) 0.247(4) Uani 0.50 1 d PDU R 2
F96 F -0.2153(5) 0.8754(7) 0.5240(6) 0.267(5) Uani 0.50 1 d PDU R 2
F97 F -0.1934(6) 0.8785(7) 0.4629(5) 0.399(8) Uani 0.50 1 d PDU R 2
F98 F -0.1505(5) 0.8692(6) 0.5083(6) 0.363(7) Uani 0.50 1 d PDU R 2
B101 B -0.3780(4) 0.7914(5) 0.5300(5) 0.306(5) Uani 1 1 d DU . .
F101 F -0.3577(9) 0.8152(8) 0.5277(10) 0.304(7) Uani 0.50 1 d PDU S 1
F102 F -0.3826(7) 0.7778(8) 0.5014(6) 0.408(7) Uani 0.50 1 d PDU S 1
F103 F -0.4121(5) 0.7945(8) 0.5534(7) 0.396(7) Uani 0.50 1 d PDU S 1
F104 F -0.3551(5) 0.7622(5) 0.5529(6) 0.378(7) Uani 0.50 1 d PDU S 1
F105 F -0.3517(8) 0.8090(8) 0.5355(9) 0.285(6) Uani 0.50 1 d PDU S 2
F106 F -0.3898(7) 0.7609(6) 0.5499(6) 0.383(7) Uani 0.50 1 d PDU S 2
F107 F -0.4005(5) 0.8199(6) 0.5148(6) 0.384(7) Uani 0.50 1 d PDU S 2
F108 F -0.3567(6) 0.7806(7) 0.4949(6) 0.398(7) Uani 0.50 1 d PDU S 2
B111 B 0.0423(4) 0.8017(5) 0.3942(5) 0.303(5) Uani 1 1 d DU . .
F111 F 0.0190(7) 0.7854(5) 0.3788(8) 0.265(5) Uani 0.50 1 d PDU T 1
F112 F 0.0115(5) 0.8095(5) 0.4134(5) 0.272(5) Uani 0.50 1 d PDU T 1
F113 F 0.0715(6) 0.7806(7) 0.4116(7) 0.421(8) Uani 0.50 1 d PDU T 1
F114 F 0.0421(7) 0.8390(5) 0.3767(6) 0.391(7) Uani 0.50 1 d PDU T 1
F115 F 0.0233(7) 0.7755(6) 0.3871(8) 0.276(5) Uani 0.50 1 d PDU T 2
F116 F 0.0120(4) 0.8187(4) 0.3937(4) 0.247(4) Uani 0.50 1 d PDU T 2
F117 F 0.0520(6) 0.8142(6) 0.4223(5) 0.362(7) Uani 0.50 1 d PDU T 2
F118 F 0.0712(6) 0.8081(8) 0.3635(7) 0.447(9) Uani 0.50 1 d PDU T 2
B121 B 0.0308(5) 0.6222(5) 0.2928(5) 0.303(5) Uani 1 1 d DU . .
F121 F 0.0387(7) 0.6454(8) 0.3108(9) 0.272(6) Uani 0.50 1 d PDU U 1
F122 F 0.0518(6) 0.6046(7) 0.2672(6) 0.369(6) Uani 0.50 1 d PDU U 1
F123 F 0.0161(6) 0.5980(5) 0.3219(5) 0.369(6) Uani 0.50 1 d PDU U 1
F124 F -0.0025(6) 0.6444(6) 0.2853(6) 0.383(7) Uani 0.50 1 d PDU U 1
F125 F 0.0257(7) 0.6474(8) 0.3143(8) 0.270(6) Uani 0.50 1 d PDU U 2
F126 F 0.0528(5) 0.6438(5) 0.2640(5) 0.362(7) Uani 0.50 1 d PDU U 2
F127 F 0.0528(7) 0.5912(6) 0.3033(7) 0.386(7) Uani 0.50 1 d PDU U 2
F128 F 0.0041(5) 0.6163(7) 0.2797(7) 0.394(7) Uani 0.50 1 d PDU U 2
B131 B 0.2907(4) 0.4311(4) -0.0235(3) 0.244(4) Uani 1 1 d DU . .
F131 F 0.2647(6) 0.4194(8) 0.0050(7) 0.202(4) Uani 0.33 1 d PDU V 1
F132 F 0.3084(6) 0.4607(5) -0.0272(7) 0.272(5) Uani 0.33 1 d PDU V 1
F133 F 0.2975(7) 0.4048(7) -0.0478(6) 0.306(6) Uani 0.33 1 d PDU V 1
F134 F 0.3102(6) 0.4161(7) 0.0047(6) 0.217(4) Uani 0.33 1 d PDU V 1
F135 F 0.2700(6) 0.4099(8) 0.0052(6) 0.201(4) Uani 0.33 1 d PDU V 2
F136 F 0.2678(6) 0.4401(8) -0.0502(6) 0.300(6) Uani 0.33 1 d PDU V 2
F137 F 0.3285(5) 0.4130(7) -0.0330(7) 0.281(6) Uani 0.33 1 d PDU V 2
F138 F 0.2988(7) 0.4379(7) 0.0061(6) 0.214(4) Uani 0.33 1 d PDU V 2
F13A F 0.2631(6) 0.4107(7) -0.0135(7) 0.276(6) Uani 0.33 1 d PDU V 3
F13B F 0.2671(7) 0.4679(6) -0.0236(7) 0.322(7) Uani 0.33 1 d PDU V 3
F13C F 0.3096(7) 0.4395(8) -0.0592(5) 0.312(6) Uani 0.33 1 d PDU V 3
F13D F 0.3013(5) 0.4252(5) 0.0048(5) 0.171(4) Uani 0.33 1 d PDU V 3
B141 B 0.09334(19) 0.3462(2) 0.0065(3) 0.142(3) Uani 1 1 d DU . .
F141 F 0.1280(3) 0.3609(4) 0.0024(4) 0.175(4) Uani 0.50 1 d PDU W 1
F142 F 0.0753(10) 0.3562(10) 0.0393(7) 0.55(2) Uani 0.50 1 d PDU W 1
F143 F 0.0817(8) 0.3635(10) -0.0258(6) 0.458(18) Uani 0.50 1 d PDU W 1
F144 F 0.1036(7) 0.3108(5) 0.0035(10) 0.437(15) Uani 0.50 1 d PDU W 1
F145 F 0.1189(6) 0.3622(8) 0.0137(8) 0.345(15) Uani 0.50 1 d PDU W 2
F146 F 0.0821(10) 0.3167(9) 0.0301(11) 0.56(2) Uani 0.50 1 d PDU W 2
F147 F 0.0629(6) 0.3676(9) -0.0058(9) 0.454(18) Uani 0.50 1 d PDU W 2
F148 F 0.1124(8) 0.3338(8) -0.0262(6) 0.466(17) Uani 0.50 1 d PDU W 2
B151 B 0.2731(3) 0.6137(3) 0.0770(4) 0.224(4) Uani 1 1 d DU . .
F151 F 0.2601(12) 0.6500(6) 0.0802(14) 0.183(4) Uani 0.25 1 d PDU X 1
F152 F 0.2821(9) 0.5899(7) 0.1119(6) 0.273(7) Uani 0.25 1 d PDU Y 1
F153 F 0.3045(7) 0.6272(9) 0.0666(11) 0.186(4) Uani 0.25 1 d PDU X 1
F154 F 0.2662(7) 0.5890(7) 0.0563(8) 0.266(6) Uani 0.25 1 d PDU X 1
F155 F 0.2689(7) 0.6460(6) 0.0923(7) 0.184(4) Uani 0.25 1 d PDU X 2
F156 F 0.2916(8) 0.5800(6) 0.0930(9) 0.271(7) Uani 0.25 1 d PDU X 2
F157 F 0.2972(7) 0.6321(8) 0.0559(7) 0.185(4) Uani 0.25 1 d PDU X 2
F158 F 0.2353(5) 0.6140(8) 0.0754(9) 0.281(7) Uani 0.25 1 d PDU Z 2
F15A F 0.2624(10) 0.6517(5) 0.0783(12) 0.156(5) Uani 0.25 1 d PDU X 3
F15B F 0.2543(7) 0.5856(6) 0.0963(8) 0.269(7) Uani 0.25 1 d PDU X 3
F15C F 0.3050(5) 0.6235(7) 0.0812(7) 0.177(6) Uani 0.25 1 d PDU X 3
F15D F 0.2867(7) 0.6133(8) 0.0380(5) 0.250(6) Uani 0.25 1 d PDU A 3
F15E F 0.2490(7) 0.6260(9) 0.0502(7) 0.285(7) Uani 0.25 1 d PDU B 4
F15F F 0.2514(6) 0.6094(8) 0.1127(5) 0.258(6) Uani 0.25 1 d PDU X 4
F15G F 0.2970(6) 0.6352(7) 0.0704(9) 0.150(5) Uani 0.25 1 d PDU X 4
F15H F 0.2950(8) 0.5802(6) 0.0675(9) 0.274(7) Uani 0.25 1 d PDU X 4
B161 B 0.08847(19) 0.7673(2) 0.1471(3) 0.138(3) Uani 1 1 d DU . .
F161 F 0.1179(3) 0.7400(3) 0.1327(4) 0.175(4) Uani 0.50 1 d PDU C 1
F162 F 0.0567(6) 0.7639(9) 0.1367(10) 0.51(2) Uani 0.50 1 d PDU C 1
F163 F 0.0897(9) 0.7630(8) 0.1840(6) 0.475(17) Uani 0.50 1 d PDU C 1
F164 F 0.1018(9) 0.7983(7) 0.1263(11) 0.56(2) Uani 0.50 1 d PDU C 1
F165 F 0.1228(5) 0.7491(7) 0.1425(8) 0.334(14) Uani 0.50 1 d PDU C 2
F166 F 0.0810(11) 0.7717(12) 0.1110(7) 0.54(2) Uani 0.50 1 d PDU C 2
F167 F 0.0676(10) 0.7397(9) 0.1671(14) 0.59(2) Uani 0.50 1 d PDU C 2
F168 F 0.0799(11) 0.7987(8) 0.1603(12) 0.57(2) Uani 0.50 1 d PDU C 2
B171 B 0.3717(2) 0.4304(2) 0.20109(17) 0.129(3) Uani 1 1 d DU . .
F171 F 0.3502(4) 0.4168(5) 0.2372(3) 0.211(8) Uani 0.50 1 d PDU D 1
F172 F 0.3476(8) 0.4557(8) 0.1823(7) 0.456(16) Uani 0.50 1 d PDU D 1
F173 F 0.3750(9) 0.4014(6) 0.1847(7) 0.462(18) Uani 0.50 1 d PDU D 1
F174 F 0.3971(8) 0.4448(10) 0.2102(9) 0.51(2) Uani 0.50 1 d PDU D 1
F175 F 0.3495(5) 0.4204(6) 0.2314(5) 0.289(12) Uani 0.50 1 d PDU D 2
F176 F 0.3706(8) 0.4672(5) 0.1974(9) 0.424(15) Uani 0.50 1 d PDU D 2
F177 F 0.3600(8) 0.4223(8) 0.1719(6) 0.480(19) Uani 0.50 1 d PDU D 2
F178 F 0.4058(6) 0.4107(8) 0.2059(9) 0.471(15) Uani 0.50 1 d PDU D 2
B181 B 0.2339(2) 0.3514(3) 0.41117(19) 0.137(3) Uani 1 1 d DU . .
F181 F 0.2576(5) 0.3683(6) 0.3806(3) 0.186(6) Uani 0.50 1 d PDU E 1
F182 F 0.2323(9) 0.3707(8) 0.4378(7) 0.459(18) Uani 0.50 1 d PDU E 1
F183 F 0.2518(9) 0.3148(6) 0.4170(9) 0.488(17) Uani 0.50 1 d PDU E 1
F184 F 0.1997(7) 0.3536(12) 0.4008(10) 0.54(2) Uani 0.50 1 d PDU E 1
F185 F 0.2611(8) 0.3578(9) 0.3815(7) 0.320(15) Uani 0.50 1 d PDU E 2
F186 F 0.2536(8) 0.3478(9) 0.4407(7) 0.479(18) Uani 0.50 1 d PDU E 2
F187 F 0.2266(7) 0.3175(6) 0.4116(11) 0.487(18) Uani 0.50 1 d PDU E 2
F188 F 0.2117(9) 0.3852(6) 0.4121(8) 0.487(18) Uani 0.50 1 d PDU E 2
B191 B 0.5706(3) 0.29870(18) 0.1283(2) 0.130(3) Uani 1 1 d DU . .
F191 F 0.5783(7) 0.2672(5) 0.1492(6) 0.301(13) Uani 0.50 1 d PDU F 1
F192 F 0.6006(6) 0.3155(7) 0.1214(8) 0.470(18) Uani 0.50 1 d PDU F 1
F193 F 0.5602(11) 0.2911(10) 0.0976(8) 0.54(2) Uani 0.50 1 d PDU F 1
F194 F 0.5417(7) 0.3237(7) 0.1430(8) 0.468(17) Uani 0.50 1 d PDU F 1
F195 F 0.5840(5) 0.2637(3) 0.1497(4) 0.197(8) Uani 0.50 1 d PDU F 2
F196 F 0.5357(6) 0.2952(7) 0.1284(10) 0.460(18) Uani 0.50 1 d PDU F 2
F197 F 0.5793(10) 0.3277(7) 0.1379(8) 0.51(2) Uani 0.50 1 d PDU F 2
F198 F 0.5934(9) 0.2905(9) 0.0956(7) 0.493(17) Uani 0.50 1 d PDU F 2
B201 B 0.6464(3) 0.08863(19) 0.2668(2) 0.142(3) Uani 1 1 d DU . .
F201 F 0.6343(7) 0.1207(5) 0.2448(5) 0.200(6) Uani 0.50 1 d PDU G 1
F202 F 0.6843(5) 0.0819(6) 0.2593(8) 0.437(15) Uani 0.50 1 d PDU G 1
F203 F 0.6377(11) 0.0940(10) 0.3036(6) 0.56(2) Uani 0.50 1 d PDU G 1
F204 F 0.6289(9) 0.0603(8) 0.2625(11) 0.51(2) Uani 0.50 1 d PDU G 1
F205 F 0.6360(10) 0.1133(6) 0.2351(6) 0.291(14) Uani 0.50 1 d PDU G 2
F206 F 0.6577(10) 0.0543(6) 0.2527(9) 0.450(16) Uani 0.50 1 d PDU G 2
F207 F 0.6715(8) 0.1061(7) 0.2728(9) 0.53(2) Uani 0.50 1 d PDU G 2
F208 F 0.6108(6) 0.0881(13) 0.2850(11) 0.59(2) Uani 0.50 1 d PDU G 2
B211 B 0.5639(5) 0.5225(4) 0.2106(4) 0.266(4) Uani 1 1 d DU . .
F211 F 0.5346(5) 0.5269(6) 0.1923(5) 0.354(6) Uani 0.50 1 d PDU H 1
F212 F 0.5797(5) 0.4948(5) 0.2360(5) 0.228(4) Uani 0.50 1 d PDU H 1
F213 F 0.5700(6) 0.5552(5) 0.2213(6) 0.380(8) Uani 0.50 1 d PDU H 1
F214 F 0.5810(5) 0.4968(4) 0.1947(5) 0.206(4) Uani 0.50 1 d PDU H 1
F215 F 0.5685(5) 0.4917(5) 0.1988(5) 0.216(4) Uani 0.50 1 d PDU H 2
F216 F 0.5272(5) 0.5249(7) 0.2317(6) 0.408(8) Uani 0.50 1 d PDU H 2
F217 F 0.5705(6) 0.5463(6) 0.1779(5) 0.372(7) Uani 0.50 1 d PDU H 2
F218 F 0.5899(5) 0.5008(6) 0.2299(5) 0.231(4) Uani 0.50 1 d PDU H 2
B221 B 0.6533(3) 0.4931(3) 0.4068(2) 0.143(3) Uani 1 1 d DU . .
F221 F 0.6497(7) 0.4899(9) 0.3723(6) 0.357(15) Uani 0.50 1 d PDU I 1
F222 F 0.6244(8) 0.4776(12) 0.4299(9) 0.58(2) Uani 0.50 1 d PDU I 1
F223 F 0.6879(5) 0.4793(10) 0.4123(8) 0.52(2) Uani 0.50 1 d PDU I 1
F224 F 0.6436(10) 0.5295(6) 0.4136(9) 0.51(2) Uani 0.50 1 d PDU I 1
F225 F 0.6351(4) 0.4961(4) 0.3752(3) 0.167(4) Uani 0.50 1 d PDU I 2
F226 F 0.6309(9) 0.5165(7) 0.4298(7) 0.475(18) Uani 0.50 1 d PDU I 2
F227 F 0.6575(10) 0.4577(6) 0.4231(8) 0.518(18) Uani 0.50 1 d PDU I 2
F228 F 0.6841(7) 0.5078(9) 0.3929(6) 0.472(17) Uani 0.50 1 d PDU I 2
B231 B 0.4976(3) 0.69777(18) 0.0732(3) 0.136(3) Uani 1 1 d DU . .
F231 F 0.5040(7) 0.7296(5) 0.0795(7) 0.363(15) Uani 0.50 1 d PDU J 1
F232 F 0.4641(6) 0.6911(7) 0.0891(9) 0.467(17) Uani 0.50 1 d PDU J 1
F233 F 0.5090(8) 0.6964(9) 0.0358(5) 0.481(16) Uani 0.50 1 d PDU J 1
F234 F 0.5229(9) 0.6696(8) 0.0907(11) 0.543(19) Uani 0.50 1 d PDU J 1
F235 F 0.4941(4) 0.7334(3) 0.0876(4) 0.176(5) Uani 0.50 1 d PDU J 2
F236 F 0.4845(7) 0.6744(6) 0.1028(6) 0.443(15) Uani 0.50 1 d PDU J 2
F237 F 0.4738(8) 0.7034(9) 0.0491(7) 0.54(2) Uani 0.50 1 d PDU J 2
F238 F 0.5335(6) 0.6938(10) 0.0565(10) 0.520(19) Uani 0.50 1 d PDU J 2
B241 B 0.4761(4) 0.9122(3) 0.1336(4) 0.267(4) Uani 1 1 d DU . .
F241 F 0.4494(7) 0.9380(6) 0.1514(7) 0.319(7) Uani 0.33 1 d PDU K 1
F242 F 0.4819(10) 0.9311(7) 0.0955(5) 0.345(8) Uani 0.33 1 d PDU K 1
F243 F 0.5039(6) 0.9107(7) 0.1516(7) 0.234(5) Uani 0.33 1 d PDU K 1
F244 F 0.4894(10) 0.8749(5) 0.1423(10) 0.233(5) Uani 0.33 1 d PDU K 1
F245 F 0.4957(4) 0.9036(3) 0.1558(4) 0.168(4) Uani 0.33 1 d PDU K 2
F246 F 0.4364(5) 0.9084(8) 0.1442(8) 0.340(8) Uani 0.33 1 d PDU K 2
F247 F 0.4668(9) 0.9515(5) 0.1232(8) 0.339(7) Uani 0.33 1 d PDU K 2
F248 F 0.4886(7) 0.8856(6) 0.1125(6) 0.279(7) Uani 0.33 1 d PDU K 2
F24A F 0.4819(7) 0.9076(6) 0.1684(5) 0.247(6) Uani 0.33 1 d PDU K 3
F24B F 0.4464(7) 0.9230(8) 0.1155(8) 0.332(7) Uani 0.33 1 d PDU K 3
F24C F 0.5100(6) 0.9278(6) 0.1263(7) 0.266(6) Uani 0.33 1 d PDU K 3
F24D F 0.4964(7) 0.8739(4) 0.1383(6) 0.178(4) Uani 0.33 1 d PDU K 3
O1 O 0.2827(6) 0.8628(6) 0.6968(7) 0.511(11) Uiso 1 1 d . . .
O2 O -0.1818(5) 0.7216(5) 0.6337(5) 0.464(8) Uiso 1 1 d . . .
O3 O 0.3148(7) 0.5699(7) 0.1952(7) 0.616(14) Uiso 1 1 d . . .
O4 O 0.4350(7) 0.3018(7) 0.1901(7) 0.540(14) Uiso 0.80 1 d P . .
O5 O 0.3186(7) 0.3631(8) 0.1253(8) 0.592(14) Uiso 0.90 1 d P . .
O6 O 0.2549(9) 0.5904(11) 0.7700(10) 0.605(19) Uiso 0.80 1 d P . .
O7 O 0.1067(10) 0.5574(10) 0.1690(10) 0.538(18) Uiso 0.60 1 d P . .
O8 O -0.1727(7) 0.9944(7) 0.7250(7) 0.587(13) Uiso 1 1 d . . .
O9 O 0.8378(10) 0.3078(10) 0.1911(10) 0.543(18) Uiso 0.60 1 d P . .
O10 O 0.6597(9) 0.5894(9) 0.1403(9) 0.461(16) Uiso 0.50 1 d P . .
O11 O 0.4081(9) 0.7285(9) 0.2346(10) 0.526(17) Uiso 0.60 1 d P . .
O12 O 0.1353(5) 0.8230(5) 0.2216(5) 0.476(9) Uiso 1 1 d . . .
O13 O 0.6996(8) 0.3036(7) 0.0567(8) 0.521(14) Uiso 0.90 1 d P . .
O14 O -0.2678(8) 0.7415(8) 0.9160(8) 0.561(15) Uiso 0.80 1 d P . .
O15 O 0.3133(13) 0.2788(14) 0.5673(13) 0.59(3) Uiso 0.50 1 d P . .
O16 O 0.2323(9) 0.8304(9) 0.4920(9) 0.676(19) Uiso 1 1 d . . .
O17 O -0.2193(8) 0.9959(8) 0.3971(8) 0.620(16) Uiso 0.90 1 d P . .
O18 O -0.1499(7) 0.8247(7) 0.6307(7) 0.562(13) Uiso 0.90 1 d P . .
O19 O 0.3234(14) 0.6595(15) 0.3071(14) 0.53(3) Uiso 0.40 1 d P . .
O20 O 0.2396(8) 0.5477(8) 0.0160(8) 0.559(14) Uiso 0.80 1 d P . .
O21 O 0.6230(7) 0.7017(7) -0.0065(7) 0.525(13) Uiso 0.80 1 d P . .
O22 O 0.7339(12) 0.3269(12) 0.0986(13) 0.55(3) Uiso 0.60 1 d P . .
O23 O 0.6470(12) 0.6844(12) 0.1144(12) 0.54(2) Uiso 0.50 1 d P . .
O24 O -0.0104(9) 0.7697(9) 0.6601(9) 0.547(16) Uiso 0.70 1 d P . .
O25 O 0.3136(7) 0.3059(7) 0.4802(8) 0.571(14) Uiso 0.90 1 d P . .
O26 O 0.5491(16) 0.3022(17) 0.0324(17) 0.68(3) Uiso 0.50 1 d P . .
O27 O 0.6914(13) 0.5113(13) 0.1244(13) 0.57(2) Uiso 0.50 1 d P . .
O28 O -0.2593(9) 1.0156(9) 0.5431(9) 0.610(17) Uiso 0.80 1 d P . .
O29 O 0.6799(10) 0.6257(10) 0.2613(10) 0.492(19) Uiso 0.50 1 d P . .
O30 O 0.6449(14) 0.7317(14) 0.1689(14) 0.51(2) Uiso 0.40 1 d P . .
O31 O -0.299(2) 0.691(3) 0.872(2) 0.56(4) Uiso 0.30 1 d P . .
O32 O 0.6732(9) 0.3067(8) 0.1017(9) 0.558(15) Uiso 0.80 1 d P . .
O33 O 0.6454(11) 0.3990(12) 0.1862(10) 0.59(2) Uiso 0.70 1 d P . .
O34 O -0.1489(12) 0.7191(12) 0.2821(12) 0.67(2) Uiso 0.70 1 d P . .
O35 O -0.2567(13) 0.8344(13) 0.3645(13) 0.50(2) Uiso 0.40 1 d P . .
O36 O 0.1768(7) 0.8700(7) 0.6499(7) 0.547(12) Uiso 0.90 1 d P . .
O37 O -0.2979(10) 1.0623(10) 0.5173(9) 0.576(17) Uiso 0.70 1 d P . .
O38 O 0.1173(9) 0.8207(9) 0.8276(9) 0.574(17) Uiso 0.70 1 d P . .
O39 O 0.8514(14) 0.4554(14) 0.1838(14) 0.52(3) Uiso 0.40 1 d P . .
O40 O 0.6396(13) 0.1292(14) 0.0103(14) 0.51(2) Uiso 0.40 1 d P . .
O41 O -0.1389(17) 0.7370(18) 0.3368(18) 0.71(4) Uiso 0.50 1 d P . .
O42 O -0.0105(9) 0.9049(9) 0.2877(9) 0.554(16) Uiso 0.70 1 d P . .
O43 O 0.436(2) 0.334(2) 0.388(2) 0.66(4) Uiso 0.40 1 d P . .
O44 O 0.6999(6) 0.0164(6) 0.1860(6) 0.517(11) Uiso 0.90 1 d P . .
O45 O 0.0818(8) 1.0280(8) 0.9310(8) 0.631(16) Uiso 0.90 1 d P . .
O46 O 0.0565(10) 0.4102(10) 0.1027(10) 0.552(19) Uiso 0.60 1 d P . .
O47 O 0.2369(12) 0.8194(12) 0.0668(12) 0.54(2) Uiso 0.50 1 d P . .
O48 O -0.4284(17) 0.9323(17) 0.4832(17) 0.60(3) Uiso 0.40 1 d P . .
O49 O 0.5087(8) 0.2329(8) 0.0553(8) 0.603(15) Uiso 0.90 1 d P . .
O50 O 0.3100(9) 0.3443(8) 0.4299(8) 0.648(16) Uiso 1 1 d . . .
O51 O -0.1613(11) 0.7422(11) 0.5753(12) 0.58(2) Uiso 0.60 1 d P . .
O52 O 0.3206(12) 0.7007(12) 0.3378(12) 0.68(2) Uiso 0.70 1 d P . .
O53 O 0.6206(7) 0.4043(8) 0.4241(7) 0.615(14) Uiso 1 1 d . . .
O54 O 0.173(2) 0.692(2) 0.363(2) 0.61(5) Uiso 0.30 1 d P . .
O55 O 0.7450(9) 0.6547(9) 0.1243(9) 0.560(17) Uiso 0.70 1 d P . .
O56 O -0.2539(10) 0.9766(10) 0.6040(10) 0.68(2) Uiso 0.80 1 d P . .
O57 O 0.7478(11) 0.3700(12) 0.1960(13) 0.58(2) Uiso 0.60 1 d P . .
O58 O -0.1906(16) 0.7791(17) 0.2835(16) 0.67(3) Uiso 0.50 1 d P . .
O59 O 0.2748(9) 0.8714(9) 0.6589(10) 0.604(19) Uiso 0.80 1 d P . .
O60 O -0.2006(10) 0.9636(10) 0.6962(10) 0.61(2) Uiso 0.70 1 d P . .
O61 O 0.0844(11) 0.7566(11) 0.4883(11) 0.66(2) Uiso 0.70 1 d P . .
O62 O 0.6295(8) 0.3693(9) 0.1812(8) 0.595(17) Uiso 0.90 1 d P . .
O63 O 0.3622(7) 0.6793(7) 0.1369(7) 0.542(14) Uiso 0.80 1 d P . .
O64 O 0.0903(10) 0.4520(10) -0.0659(10) 0.527(18) Uiso 0.60 1 d P . .
O65 O -0.0602(18) 0.9442(19) 0.5651(18) 0.63(4) Uiso 0.40 1 d P . .
O66 O 0.4046(12) 0.5255(13) 0.0728(12) 0.56(2) Uiso 0.50 1 d P . .
O67 O 0.2364(8) 0.8492(9) 0.5225(9) 0.597(16) Uiso 0.90 1 d P . .
O68 O -0.2873(11) 0.7327(13) 0.8725(11) 0.57(2) Uiso 0.60 1 d P . .
O69 O 0.135(3) 0.857(3) 0.301(3) 0.70(6) Uiso 0.30 1 d P . .
O70 O 0.2614(18) 0.629(2) 0.757(2) 0.67(4) Uiso 0.50 1 d P . .
O71 O -0.126(3) 0.900(3) 0.435(3) 0.64(5) Uiso 0.30 1 d P . .
O72 O 0.7204(19) 0.3145(17) 0.080(2) 0.66(4) Uiso 0.60 1 d P . .

loop_
_atom_site_aniso_label
_atom_site_aniso_U_11
_atom_site_aniso_U_22
_atom_site_aniso_U_33
_atom_site_aniso_U_23
_atom_site_aniso_U_13
_atom_site_aniso_U_12
N1A 0.165(5) 0.125(4) 0.173(5) -0.020(3) -0.013(4) -0.017(4)
C1A 0.188(7) 0.155(6) 0.180(7) -0.009(6) 0.015(6) -0.029(6)
C2A 0.236(9) 0.169(7) 0.203(8) -0.028(7) 0.052(8) -0.028(7)
C3A 0.228(9) 0.155(6) 0.189(7) -0.017(6) 0.020(7) -0.033(6)
C4A 0.202(8) 0.174(7) 0.205(8) -0.025(7) 0.050(7) -0.014(7)
C5A 0.182(7) 0.145(6) 0.190(7) -0.022(6) 0.020(6) -0.018(5)
N2A 0.252(19) 0.174(18) 0.184(18) -0.009(17) 0.023(17) -0.024(18)
C6A 0.273(18) 0.189(17) 0.202(17) -0.013(16) 0.043(17) -0.007(17)
N3A 0.31(2) 0.200(18) 0.194(18) -0.025(16) 0.072(17) 0.023(18)
C7A 0.27(2) 0.22(2) 0.20(2) 0.009(19) 0.07(2) 0.03(2)
N4A 0.27(2) 0.209(19) 0.198(18) 0.003(17) 0.09(2) -0.015(19)
C8A 0.258(18) 0.198(17) 0.197(17) 0.002(17) 0.048(16) -0.016(17)
C9A 0.25(5) 0.32(5) 0.19(3) 0.06(3) 0.03(3) 0.08(4)
N52A 0.220(9) 0.169(8) 0.168(8) -0.016(7) -0.001(7) -0.025(7)
C56A 0.274(12) 0.183(10) 0.200(10) -0.020(9) 0.068(10) 0.022(10)
N53A 0.336(15) 0.207(11) 0.233(13) 0.011(10) 0.102(12) -0.014(11)
C57A 0.287(17) 0.233(14) 0.244(14) 0.027(12) 0.075(14) 0.038(13)
N54A 0.273(14) 0.232(11) 0.228(10) 0.020(9) 0.085(10) -0.021(11)
C58A 0.251(12) 0.177(10) 0.197(11) 0.006(9) 0.041(10) -0.031(9)
C59A 0.35(3) 0.31(2) 0.32(2) 0.091(19) 0.16(3) 0.05(2)
N5A 0.191(6) 0.195(6) 0.133(4) 0.016(4) -0.021(4) -0.087(5)
C10A 0.153(6) 0.183(7) 0.188(7) -0.020(6) 0.003(5) -0.024(6)
C11A 0.192(8) 0.185(7) 0.173(7) 0.005(6) 0.010(6) -0.064(6)
C12A 0.215(8) 0.174(7) 0.200(8) -0.034(6) 0.014(7) -0.029(6)
C13A 0.247(11) 0.205(9) 0.194(8) 0.065(7) 0.024(7) -0.024(8)
C14A 0.203(9) 0.190(8) 0.216(9) 0.034(7) -0.019(8) 0.009(7)
N1B 0.168(5) 0.179(5) 0.145(4) -0.049(4) 0.003(4) -0.057(4)
C1B 0.169(6) 0.240(9) 0.245(9) -0.114(8) 0.004(6) -0.071(7)
C2B 0.175(7) 0.207(8) 0.270(10) -0.113(7) -0.017(7) -0.054(6)
C3B 0.156(6) 0.182(7) 0.230(8) -0.097(6) -0.004(6) -0.042(6)
C4B 0.170(6) 0.161(6) 0.208(7) -0.056(6) -0.009(5) -0.051(5)
C5B 0.185(7) 0.165(6) 0.177(6) -0.035(5) -0.011(6) -0.072(6)
N2B 0.176(10) 0.188(12) 0.247(11) -0.099(9) -0.013(9) -0.036(9)
C6B 0.157(11) 0.229(13) 0.304(14) -0.088(12) -0.015(11) -0.068(10)
N3B 0.172(9) 0.261(13) 0.335(16) -0.137(13) 0.012(11) -0.056(9)
C7B 0.190(13) 0.269(17) 0.37(2) -0.167(16) 0.030(14) -0.048(12)
N4B 0.188(10) 0.209(12) 0.331(17) -0.142(12) 0.025(11) -0.041(9)
C8B 0.174(11) 0.182(12) 0.284(14) -0.094(11) 0.001(11) -0.022(10)
C9B 0.138(11) 0.39(3) 0.62(5) -0.29(3) -0.05(2) 0.011(18)
N52B 0.164(14) 0.156(13) 0.275(16) -0.099(12) -0.027(13) -0.070(11)
C56B 0.158(14) 0.203(15) 0.300(17) -0.111(14) -0.034(14) -0.064(13)
N53B 0.188(18) 0.237(18) 0.34(2) -0.136(17) -0.003(18) -0.047(15)
C57B 0.167(16) 0.25(2) 0.37(2) -0.15(2) -0.001(19) -0.048(16)
N54B 0.179(15) 0.251(19) 0.34(2) -0.132(18) -0.011(18) -0.030(15)
C58B 0.170(15) 0.197(16) 0.299(17) -0.103(15) 0.001(15) 0.012(14)
C59B 0.25(4) 0.47(6) 0.41(5) -0.18(5) -0.15(4) -0.03(4)
N5B 0.173(5) 0.162(5) 0.191(5) -0.073(4) 0.009(4) -0.041(4)
C10B 0.183(7) 0.205(8) 0.266(10) -0.125(8) -0.008(7) -0.037(6)
C11B 0.208(9) 0.228(9) 0.256(10) -0.130(8) -0.001(8) -0.033(8)
C12B 0.153(6) 0.207(8) 0.268(9) -0.133(7) -0.014(6) -0.035(6)
C13B 0.177(7) 0.232(9) 0.285(11) -0.132(9) -0.009(7) -0.048(7)
C14B 0.190(8) 0.192(7) 0.226(8) -0.096(6) 0.012(7) -0.039(7)
N1C 0.156(4) 0.190(5) 0.134(4) -0.028(4) -0.016(4) -0.060(4)
C1C 0.176(7) 0.239(8) 0.140(6) -0.003(5) -0.012(5) -0.076(6)
C2C 0.180(6) 0.238(8) 0.164(7) -0.018(6) -0.010(5) -0.094(6)
C3C 0.180(6) 0.193(6) 0.128(5) -0.025(5) -0.010(5) -0.062(5)
C4C 0.147(5) 0.186(6) 0.150(6) -0.009(5) -0.023(4) -0.056(5)
C5C 0.166(6) 0.190(6) 0.136(5) -0.021(5) -0.018(5) -0.067(5)
N2C 0.162(5) 0.181(5) 0.143(4) -0.018(4) -0.015(4) -0.055(4)
C6C 0.148(5) 0.165(6) 0.155(6) -0.021(5) -0.019(5) -0.043(5)
N3C 0.152(4) 0.179(5) 0.152(5) -0.016(4) -0.019(4) -0.051(4)
C7C 0.169(6) 0.170(6) 0.160(6) -0.020(5) -0.005(5) -0.051(5)
N4C 0.160(4) 0.161(5) 0.159(5) -0.004(4) -0.036(4) -0.053(4)
C8C 0.159(6) 0.150(5) 0.148(6) -0.011(4) -0.022(5) -0.047(5)
C9C 0.204(7) 0.213(8) 0.187(7) 0.008(6) -0.027(6) -0.113(7)
N5C 0.153(4) 0.177(5) 0.149(4) -0.015(4) -0.029(3) -0.043(4)
C10C 0.183(7) 0.206(7) 0.149(6) 0.005(5) -0.032(5) -0.072(6)
C11C 0.173(6) 0.216(7) 0.137(5) -0.001(5) -0.019(5) -0.086(6)
C12C 0.162(6) 0.161(5) 0.151(6) -0.013(4) -0.025(5) -0.050(5)
C13C 0.167(6) 0.174(6) 0.142(5) -0.011(4) -0.026(4) -0.050(5)
C14C 0.178(6) 0.178(6) 0.142(5) 0.014(4) -0.025(5) -0.077(5)
N1D 0.149(4) 0.169(5) 0.173(5) -0.021(4) -0.026(4) -0.028(4)
C1D 0.167(7) 0.212(8) 0.170(7) -0.001(6) -0.002(6) -0.053(6)
C2D 0.187(8) 0.193(8) 0.176(7) 0.007(6) -0.001(6) -0.003(6)
C3D 0.161(7) 0.188(7) 0.189(7) 0.007(6) -0.006(6) -0.028(6)
C4D 0.183(8) 0.199(8) 0.191(8) 0.028(6) -0.005(7) -0.005(7)
C5D 0.181(8) 0.177(7) 0.171(7) 0.012(6) -0.002(5) -0.052(6)
N2D 0.181(11) 0.176(10) 0.182(10) 0.001(8) -0.018(9) -0.014(9)
C6D 0.187(12) 0.192(12) 0.223(15) 0.035(11) 0.009(12) -0.042(11)
N3D 0.230(14) 0.214(15) 0.274(16) 0.046(13) 0.036(13) -0.010(11)
C7D 0.227(16) 0.240(17) 0.284(19) 0.051(16) 0.049(15) -0.003(14)
N4D 0.254(14) 0.209(13) 0.256(17) 0.052(12) -0.006(13) 0.019(11)
C8D 0.191(12) 0.205(12) 0.193(12) 0.027(11) -0.034(10) 0.005(11)
C9D 0.32(3) 0.34(3) 0.28(3) 0.10(3) 0.01(2) 0.05(2)
N52D 0.193(16) 0.178(15) 0.224(17) -0.001(15) -0.006(15) -0.046(13)
C56D 0.180(14) 0.166(14) 0.190(15) 0.000(13) -0.008(13) -0.058(13)
N53D 0.205(15) 0.197(17) 0.267(19) 0.025(15) 0.040(15) -0.033(14)
C57D 0.24(2) 0.201(18) 0.28(2) -0.009(18) 0.058(19) 0.000(17)
N54D 0.219(17) 0.197(15) 0.25(2) 0.014(17) 0.020(16) -0.014(15)
C58D 0.184(16) 0.197(16) 0.226(18) 0.028(16) -0.016(16) -0.002(15)
C59D 0.33(4) 0.15(2) 0.33(5) 0.08(3) 0.09(4) 0.06(2)
N5D 0.205(6) 0.143(4) 0.179(5) -0.034(4) -0.071(5) 0.007(5)
C10D 0.217(9) 0.187(8) 0.156(6) 0.000(6) -0.025(6) -0.030(7)
C11D 0.192(8) 0.175(7) 0.181(7) 0.002(6) -0.033(6) 0.002(6)
C12D 0.196(8) 0.179(7) 0.204(8) 0.006(7) 0.011(7) -0.021(7)
C13D 0.245(11) 0.169(7) 0.250(11) 0.025(7) 0.006(9) 0.033(8)
C14D 0.186(8) 0.197(8) 0.209(9) 0.017(7) -0.007(7) 0.024(7)
N1E 0.184(5) 0.155(4) 0.144(5) -0.014(3) -0.040(4) -0.055(4)
C1E 0.231(9) 0.211(8) 0.163(6) -0.002(6) -0.051(7) -0.099(7)
C2E 0.226(8) 0.298(11) 0.150(7) -0.018(7) -0.044(6) -0.126(8)
C3E 0.182(7) 0.219(8) 0.154(6) -0.010(5) -0.024(5) -0.077(6)
C4E 0.210(7) 0.201(7) 0.155(6) -0.028(5) -0.053(6) -0.073(6)
C5E 0.182(7) 0.170(6) 0.164(7) -0.016(5) -0.049(5) -0.053(5)
N2E 0.220(16) 0.271(18) 0.165(16) -0.010(16) -0.003(15) -0.101(15)
C6E 0.233(16) 0.290(18) 0.160(15) -0.058(15) 0.006(15) -0.101(15)
N3E 0.30(2) 0.37(3) 0.23(2) -0.04(2) -0.020(19) -0.15(2)
C7E 0.25(2) 0.42(3) 0.21(2) -0.04(2) -0.006(19) -0.19(2)
N4E 0.229(17) 0.36(2) 0.172(17) -0.035(17) -0.048(14) -0.147(17)
C8E 0.211(15) 0.289(16) 0.153(14) -0.024(14) -0.032(13) -0.147(14)
C9E 0.30(4) 0.49(6) 0.22(4) -0.19(4) 0.09(3) -0.21(4)
N52E 0.188(8) 0.253(10) 0.160(8) -0.030(8) -0.049(7) -0.113(8)
C56E 0.226(12) 0.247(13) 0.143(9) -0.037(9) -0.024(9) -0.106(10)
N53E 0.270(13) 0.315(16) 0.164(9) -0.016(10) -0.038(9) -0.153(12)
C57E 0.267(17) 0.43(2) 0.185(13) -0.005(14) -0.044(12) -0.195(16)
N54E 0.266(13) 0.371(17) 0.164(10) 0.016(11) -0.035(9) -0.172(13)
C58E 0.224(11) 0.286(14) 0.154(11) -0.001(10) 0.002(10) -0.117(11)
C59E 0.43(3) 0.65(5) 0.132(11) -0.06(2) 0.003(16) -0.29(4)
N5E 0.168(5) 0.180(5) 0.156(5) 0.000(4) -0.029(4) -0.066(4)
C10E 0.231(8) 0.250(9) 0.163(7) 0.000(6) -0.045(6) -0.125(8)
C11E 0.221(8) 0.266(10) 0.157(7) 0.007(7) -0.029(6) -0.118(8)
C12E 0.196(7) 0.270(9) 0.161(7) -0.019(6) -0.034(6) -0.121(7)
C13E 0.245(9) 0.273(11) 0.179(7) -0.004(7) -0.037(7) -0.129(9)
C14E 0.211(8) 0.230(9) 0.185(8) 0.001(7) -0.046(6) -0.113(7)
N1F 0.192(5) 0.156(5) 0.135(4) -0.039(3) -0.030(4) -0.009(4)
C1F 0.201(7) 0.156(6) 0.160(6) -0.034(5) -0.053(5) 0.006(5)
C2F 0.224(8) 0.149(5) 0.151(5) -0.036(5) -0.074(5) 0.003(5)
C3F 0.173(6) 0.151(6) 0.145(5) -0.035(4) -0.026(5) -0.021(5)
C4F 0.171(5) 0.146(5) 0.138(5) -0.029(4) -0.046(4) -0.014(4)
C5F 0.169(6) 0.164(6) 0.145(5) -0.029(5) -0.042(5) 0.006(5)
N2F 0.184(5) 0.145(4) 0.143(4) -0.024(3) -0.040(4) -0.019(4)
C6F 0.175(6) 0.139(5) 0.134(5) -0.023(4) -0.031(4) -0.015(5)
N3F 0.175(5) 0.160(4) 0.145(4) -0.034(4) -0.028(4) -0.022(4)
C7F 0.164(6) 0.162(6) 0.153(6) -0.017(5) -0.031(5) -0.023(5)
N4F 0.167(5) 0.159(5) 0.154(5) -0.030(4) -0.038(4) -0.015(4)
C8F 0.169(6) 0.146(5) 0.142(5) -0.021(4) -0.038(4) -0.025(5)
C9F 0.226(8) 0.180(7) 0.185(7) -0.033(5) -0.082(6) 0.010(6)
N5F 0.208(5) 0.141(4) 0.136(4) -0.025(3) -0.041(4) -0.041(4)
C10F 0.262(9) 0.144(6) 0.173(7) -0.029(5) -0.078(6) -0.006(6)
C11F 0.303(11) 0.158(6) 0.147(6) -0.012(5) -0.093(6) -0.026(7)
C12F 0.201(7) 0.137(5) 0.162(6) -0.015(5) -0.036(5) -0.039(5)
C13F 0.211(7) 0.149(6) 0.137(5) -0.027(4) -0.062(5) -0.024(5)
C14F 0.195(6) 0.143(5) 0.137(5) -0.017(4) -0.048(5) -0.033(5)
N1G 0.191(6) 0.159(5) 0.162(5) -0.030(4) -0.055(4) -0.006(4)
C1G 0.239(9) 0.167(6) 0.213(8) -0.041(6) -0.114(7) -0.005(6)
C2G 0.283(11) 0.169(8) 0.221(9) -0.036(7) -0.124(8) -0.009(7)
C3G 0.291(10) 0.154(7) 0.201(8) -0.034(6) -0.132(7) -0.003(7)
C4G 0.317(12) 0.168(7) 0.220(9) -0.042(7) -0.119(9) -0.020(8)
C5G 0.254(10) 0.170(7) 0.201(8) -0.029(6) -0.103(7) -0.008(7)
N2G 0.290(12) 0.163(10) 0.186(10) -0.021(9) -0.091(10) -0.018(10)
C6G 0.338(15) 0.150(10) 0.205(12) 0.009(10) -0.108(12) -0.018(11)
N3G 0.374(18) 0.175(9) 0.232(11) -0.030(9) -0.158(12) -0.029(11)
C7G 0.42(2) 0.175(11) 0.284(16) -0.026(11) -0.202(15) -0.032(13)
N4G 0.318(15) 0.154(8) 0.252(12) -0.046(8) -0.144(11) -0.001(9)
C8G 0.299(14) 0.135(9) 0.200(11) -0.053(8) -0.079(10) -0.030(9)
C9G 0.76(5) 0.138(11) 0.44(3) 0.029(15) -0.39(4) -0.11(2)
N52G 0.305(17) 0.157(15) 0.184(15) -0.059(13) -0.100(14) -0.053(15)
C56G 0.336(18) 0.144(15) 0.227(17) 0.003(15) -0.116(16) -0.021(16)
N53G 0.40(2) 0.192(17) 0.26(2) 0.021(16) -0.137(19) -0.059(19)
C57G 0.42(3) 0.19(2) 0.25(2) 0.018(18) -0.17(2) -0.04(2)
N54G 0.36(2) 0.186(18) 0.263(19) -0.028(16) -0.118(18) -0.042(18)
C58G 0.316(17) 0.156(14) 0.217(16) -0.041(14) -0.119(15) -0.059(15)
C59G 0.55(6) 0.33(5) 0.36(5) 0.08(4) -0.31(5) -0.19(5)
N5G 0.157(4) 0.166(5) 0.166(5) -0.048(4) -0.026(3) -0.028(4)
C10G 0.247(9) 0.170(7) 0.227(9) -0.059(7) -0.095(7) -0.028(6)
C11G 0.287(10) 0.159(7) 0.223(9) -0.060(6) -0.126(8) -0.008(7)
C12G 0.269(9) 0.153(6) 0.177(7) -0.036(5) -0.094(6) -0.012(6)
C13G 0.214(8) 0.149(6) 0.186(7) -0.035(6) -0.070(6) -0.022(5)
C14G 0.187(7) 0.147(6) 0.182(7) -0.060(5) -0.034(5) -0.018(5)
N1H 0.154(5) 0.187(6) 0.195(6) -0.090(5) 0.028(4) -0.043(5)
C1H 0.209(8) 0.160(7) 0.198(8) -0.029(6) -0.021(7) -0.006(6)
C2H 0.179(7) 0.206(8) 0.170(7) -0.030(6) 0.002(6) -0.005(7)
C3H 0.177(7) 0.185(7) 0.178(7) -0.007(6) -0.004(6) 0.003(6)
C4H 0.163(7) 0.275(12) 0.198(9) -0.039(8) 0.017(7) 0.016(7)
C5H 0.181(8) 0.227(9) 0.177(8) 0.006(7) 0.024(6) 0.006(7)
N2H 0.194(11) 0.191(11) 0.154(11) -0.031(10) 0.004(10) -0.015(10)
C6H 0.202(13) 0.230(13) 0.160(11) -0.023(11) 0.008(11) -0.012(12)
N3H 0.180(12) 0.286(18) 0.205(12) 0.009(12) -0.001(10) -0.007(12)
C7H 0.184(16) 0.304(19) 0.244(16) 0.045(15) 0.006(14) 0.008(15)
N4H 0.189(13) 0.313(15) 0.257(14) 0.043(13) 0.011(12) 0.062(12)
C8H 0.230(14) 0.228(15) 0.196(13) 0.024(12) 0.020(13) 0.045(13)
C9H 0.159(19) 0.44(4) 0.37(4) 0.03(3) 0.06(2) 0.06(2)
N52H 0.207(15) 0.211(15) 0.167(14) 0.007(13) -0.007(13) 0.013(14)
C56H 0.210(15) 0.225(15) 0.208(16) -0.027(14) 0.023(13) 0.005(14)
N53H 0.225(17) 0.260(18) 0.242(16) -0.010(14) 0.037(14) 0.035(15)
C57H 0.201(19) 0.285(19) 0.243(18) 0.019(17) 0.041(17) 0.061(17)
N54H 0.232(19) 0.292(17) 0.255(16) 0.034(16) 0.082(15) 0.077(15)
C58H 0.218(15) 0.194(14) 0.186(14) 0.019(13) 0.011(14) 0.033(13)
C59H 0.18(3) 0.27(3) 0.31(3) 0.06(3) 0.04(2) 0.07(2)
N5H 0.181(5) 0.164(5) 0.133(4) -0.026(4) -0.023(4) -0.036(4)
C10H 0.209(8) 0.172(7) 0.157(6) -0.007(6) -0.024(6) -0.003(6)
C11H 0.204(8) 0.181(7) 0.159(6) 0.002(5) 0.006(6) 0.002(7)
C12H 0.202(8) 0.190(7) 0.151(6) -0.025(6) -0.009(6) 0.006(7)
C13H 0.201(8) 0.190(8) 0.177(7) 0.002(6) -0.006(7) 0.024(6)
C14H 0.219(9) 0.163(6) 0.162(7) -0.011(5) -0.024(6) -0.004(7)
N1I 0.156(4) 0.136(4) 0.186(5) -0.051(4) -0.021(4) -0.035(4)
C1I 0.159(6) 0.178(7) 0.252(9) -0.086(6) 0.001(6) -0.033(5)
C2I 0.175(7) 0.155(6) 0.265(9) -0.090(6) -0.008(6) -0.031(5)
C3I 0.162(6) 0.151(5) 0.174(6) -0.050(5) -0.006(5) -0.037(5)
C4I 0.165(6) 0.145(5) 0.188(6) -0.057(5) 0.009(5) -0.039(5)
C5I 0.160(6) 0.125(4) 0.186(6) -0.043(4) -0.022(5) -0.028(4)
N2I 0.156(5) 0.145(4) 0.190(5) -0.054(4) -0.017(4) -0.026(4)
C6I 0.154(6) 0.144(5) 0.175(6) -0.054(5) -0.013(5) -0.016(5)
N3I 0.186(5) 0.155(5) 0.174(5) -0.045(4) -0.011(4) -0.045(4)
C7I 0.163(6) 0.155(6) 0.149(5) -0.035(4) -0.005(5) -0.032(5)
N4I 0.173(5) 0.156(4) 0.153(4) -0.042(4) 0.005(4) -0.048(4)
C8I 0.141(5) 0.147(5) 0.162(5) -0.043(4) -0.007(4) -0.028(4)
C9I 0.190(7) 0.172(6) 0.205(7) -0.071(6) 0.012(6) -0.034(5)
N5I 0.163(5) 0.145(4) 0.176(5) -0.040(4) -0.004(4) -0.048(4)
C10I 0.171(7) 0.169(6) 0.204(7) -0.053(5) 0.006(6) -0.047(5)
C11I 0.146(5) 0.160(6) 0.216(7) -0.070(5) 0.001(5) -0.037(5)
C12I 0.171(6) 0.147(5) 0.157(5) -0.049(4) -0.007(5) -0.043(5)
C13I 0.153(5) 0.151(5) 0.154(5) -0.046(4) 0.001(4) -0.033(4)
C14I 0.166(5) 0.149(5) 0.158(5) -0.054(4) 0.015(4) -0.041(5)
N1J 0.148(4) 0.158(5) 0.183(5) -0.060(4) -0.008(4) -0.022(4)
C1J 0.167(6) 0.184(7) 0.189(7) -0.065(6) -0.002(5) -0.031(5)
C2J 0.173(7) 0.210(8) 0.230(9) -0.093(7) 0.021(6) -0.046(6)
C3J 0.158(6) 0.192(7) 0.248(9) -0.096(7) 0.034(6) -0.058(6)
C4J 0.155(6) 0.217(8) 0.270(10) -0.118(8) 0.021(6) -0.047(6)
C5J 0.175(7) 0.177(7) 0.250(9) -0.099(7) -0.003(6) -0.032(6)
N2J 0.175(5) 0.185(6) 0.245(7) -0.076(5) 0.031(5) -0.056(5)
C6J 0.201(8) 0.188(8) 0.261(10) -0.087(7) 0.007(7) -0.055(7)
N3J 0.217(7) 0.229(8) 0.387(12) -0.147(8) 0.075(8) -0.083(6)
C7J 0.270(12) 0.290(13) 0.478(18) -0.199(13) 0.135(12) -0.130(11)
N4J 0.230(8) 0.245(9) 0.414(13) -0.165(9) 0.106(8) -0.088(7)
C8J 0.180(8) 0.213(9) 0.300(11) -0.074(9) 0.014(8) -0.073(7)
C9J 0.39(2) 0.320(17) 0.67(3) -0.28(2) 0.20(2) -0.217(15)
N5J 0.171(5) 0.175(5) 0.143(4) -0.043(4) 0.014(4) -0.061(4)
C10J 0.170(7) 0.197(7) 0.206(8) -0.076(6) 0.016(6) -0.058(6)
C11J 0.181(7) 0.212(8) 0.212(8) -0.073(7) 0.025(6) -0.076(7)
C12J 0.180(7) 0.199(8) 0.211(8) -0.086(6) 0.041(6) -0.046(6)
C13J 0.164(7) 0.197(8) 0.231(9) -0.057(7) 0.035(6) -0.056(6)
C14J 0.168(6) 0.193(7) 0.206(8) -0.064(6) 0.031(5) -0.064(6)
N1K 0.187(5) 0.141(4) 0.136(4) 0.000(3) -0.035(4) -0.039(4)
C1K 0.207(8) 0.206(8) 0.160(7) 0.002(6) -0.032(6) -0.074(6)
C2K 0.207(8) 0.241(9) 0.156(6) 0.014(6) -0.057(6) -0.070(8)
C3K 0.179(7) 0.188(7) 0.154(6) 0.011(5) -0.023(5) -0.054(6)
C4K 0.204(8) 0.230(9) 0.162(7) 0.027(6) -0.050(6) -0.070(7)
C5K 0.195(8) 0.214(8) 0.157(6) 0.025(6) -0.037(6) -0.071(7)
N2K 0.183(5) 0.210(6) 0.158(5) 0.008(4) -0.036(4) -0.054(5)
C6K 0.227(9) 0.243(9) 0.163(7) 0.026(6) -0.055(7) -0.085(8)
N3K 0.246(9) 0.349(11) 0.233(8) 0.100(8) -0.094(7) -0.146(8)
C7K 0.296(13) 0.404(16) 0.227(11) 0.111(11) -0.093(10) -0.170(12)
N4K 0.246(9) 0.382(13) 0.232(9) 0.093(8) -0.077(7) -0.151(9)
C8K 0.206(8) 0.275(10) 0.183(8) 0.014(7) -0.039(7) -0.113(8)
C9K 0.286(15) 0.67(3) 0.44(2) 0.15(2) -0.202(16) -0.26(2)
N5K 0.179(5) 0.188(5) 0.133(4) -0.023(4) -0.008(4) -0.064(4)
C10K 0.211(8) 0.246(9) 0.151(6) -0.007(6) -0.030(6) -0.112(7)
C11K 0.206(8) 0.234(8) 0.141(6) 0.009(6) -0.024(5) -0.101(7)
C12K 0.199(7) 0.252(9) 0.132(5) 0.010(6) -0.034(5) -0.092(7)
C13K 0.229(9) 0.256(10) 0.165(7) 0.010(7) -0.042(6) -0.126(8)
C14K 0.190(7) 0.238(9) 0.141(6) 0.007(6) -0.022(5) -0.098(7)
N1L 0.170(5) 0.148(5) 0.169(5) -0.055(4) -0.028(4) -0.011(4)
C1L 0.211(8) 0.169(7) 0.200(8) -0.060(6) -0.072(6) 0.014(6)
C2L 0.221(8) 0.155(6) 0.215(8) -0.058(6) -0.082(7) 0.010(6)
C3L 0.185(7) 0.166(7) 0.183(7) -0.030(6) -0.051(5) 0.006(6)
C4L 0.250(10) 0.163(7) 0.225(9) -0.080(7) -0.065(8) 0.025(7)
C5L 0.211(8) 0.161(6) 0.176(7) -0.050(6) -0.050(6) 0.010(6)
N2L 0.228(7) 0.154(5) 0.184(6) -0.046(4) -0.060(5) 0.006(5)
C6L 0.241(9) 0.184(8) 0.189(8) -0.067(6) -0.063(7) 0.023(7)
N3L 0.407(13) 0.224(8) 0.231(8) -0.092(7) -0.131(9) 0.103(8)
C7L 0.480(19) 0.240(12) 0.270(13) -0.087(11) -0.152(13) 0.098(12)
N4L 0.401(13) 0.228(8) 0.230(8) -0.089(7) -0.152(8) 0.092(8)
C8L 0.275(10) 0.173(7) 0.204(8) -0.050(7) -0.084(8) 0.011(7)
C9L 0.67(3) 0.344(18) 0.256(13) -0.151(13) -0.255(18) 0.149(19)
N5L 0.200(6) 0.134(4) 0.153(5) -0.015(4) -0.050(4) -0.023(4)
C10L 0.235(9) 0.151(6) 0.181(7) -0.034(5) -0.065(6) -0.012(6)
C11L 0.259(10) 0.164(7) 0.194(8) -0.037(6) -0.095(7) 0.004(7)
C12L 0.273(10) 0.149(6) 0.189(7) -0.052(6) -0.082(7) 0.003(6)
C13L 0.280(11) 0.165(7) 0.212(8) -0.037(6) -0.121(8) 0.016(7)
C14L 0.237(9) 0.152(6) 0.178(7) -0.030(5) -0.078(6) -0.001(6)
N1M 0.140(4) 0.136(4) 0.141(4) -0.028(3) -0.002(3) -0.038(3)
C1M 0.156(6) 0.155(5) 0.187(6) -0.061(5) -0.005(5) -0.030(5)
C2M 0.136(4) 0.146(5) 0.187(6) -0.054(5) 0.002(4) -0.040(4)
C3M 0.151(5) 0.123(4) 0.159(5) -0.035(4) -0.016(4) -0.026(4)
C4M 0.146(6) 0.151(5) 0.194(6) -0.048(5) -0.012(5) -0.030(5)
C5M 0.155(5) 0.142(5) 0.177(6) -0.045(5) -0.013(5) -0.031(5)
N2M 0.145(4) 0.129(4) 0.180(5) -0.035(3) -0.019(4) -0.020(4)
C6M 0.150(5) 0.131(5) 0.159(5) -0.030(4) -0.017(4) -0.021(4)
N3M 0.154(4) 0.141(4) 0.191(5) -0.048(4) -0.024(4) -0.023(4)
C7M 0.154(6) 0.132(5) 0.201(7) -0.045(5) -0.029(5) -0.012(5)
N4M 0.165(5) 0.132(4) 0.187(5) -0.042(4) -0.022(4) -0.018(4)
C8M 0.162(6) 0.124(4) 0.164(5) -0.033(4) -0.022(4) -0.020(5)
C9M 0.222(8) 0.190(7) 0.249(9) -0.112(7) 0.029(7) -0.052(6)
N5M 0.147(4) 0.143(4) 0.156(4) -0.044(3) -0.026(3) -0.025(3)
C10M 0.161(6) 0.133(5) 0.216(7) -0.063(5) -0.021(5) -0.029(5)
C11M 0.149(6) 0.149(5) 0.234(8) -0.071(5) -0.004(5) -0.035(5)
C12M 0.147(5) 0.134(5) 0.178(6) -0.047(4) -0.029(4) -0.033(4)
C13M 0.171(6) 0.167(6) 0.171(6) -0.068(5) -0.023(5) -0.024(5)
C14M 0.142(5) 0.165(6) 0.202(7) -0.076(5) -0.012(5) -0.031(5)
N1N 0.137(4) 0.142(4) 0.131(4) -0.014(3) -0.011(3) -0.013(3)
C1N 0.171(6) 0.139(5) 0.165(6) 0.015(5) 0.008(5) 0.007(5)
C2N 0.208(8) 0.157(6) 0.146(5) 0.004(5) 0.028(5) -0.016(6)
C3N 0.160(5) 0.137(5) 0.137(5) -0.001(4) 0.002(4) -0.008(4)
C4N 0.193(7) 0.169(6) 0.148(6) -0.006(5) 0.034(5) 0.004(6)
C5N 0.180(7) 0.177(7) 0.147(5) -0.003(5) 0.012(5) 0.004(6)
N2N 0.172(5) 0.135(4) 0.136(4) -0.008(3) -0.003(3) -0.010(4)
C6N 0.168(6) 0.148(5) 0.145(5) -0.015(5) 0.006(5) -0.002(5)
N3N 0.238(7) 0.163(5) 0.152(5) -0.004(4) 0.039(5) 0.023(5)
C7N 0.246(10) 0.180(8) 0.172(7) -0.020(6) 0.051(7) 0.015(7)
N4N 0.196(6) 0.160(5) 0.153(5) -0.019(4) 0.016(4) 0.007(4)
C8N 0.191(7) 0.138(5) 0.146(6) -0.030(4) -0.009(5) -0.017(5)
C9N 0.388(17) 0.263(11) 0.175(8) 0.004(7) 0.082(9) 0.130(11)
N5N 0.143(4) 0.116(3) 0.159(4) -0.026(3) -0.017(4) -0.023(3)
C10N 0.168(6) 0.139(5) 0.153(6) -0.024(4) 0.003(4) -0.036(5)
C11N 0.147(5) 0.128(4) 0.161(6) -0.013(4) -0.007(4) -0.012(4)
C12N 0.163(6) 0.130(4) 0.135(5) -0.018(4) -0.009(4) -0.025(4)
C13N 0.148(5) 0.140(5) 0.162(6) -0.044(5) -0.002(4) -0.009(5)
C14N 0.148(5) 0.134(5) 0.131(5) -0.014(4) 0.009(4) -0.013(4)
N1O 0.148(4) 0.127(4) 0.161(4) -0.031(3) -0.018(3) -0.037(3)
C1O 0.141(5) 0.151(5) 0.198(7) -0.056(5) -0.007(5) -0.032(5)
C2O 0.140(5) 0.156(6) 0.215(7) -0.065(5) -0.004(5) -0.027(5)
C3O 0.157(6) 0.147(5) 0.220(7) -0.060(5) -0.045(5) -0.020(5)
C4O 0.137(5) 0.179(7) 0.264(9) -0.072(7) -0.021(6) -0.021(5)
C5O 0.152(6) 0.154(6) 0.231(8) -0.060(5) -0.040(6) -0.032(5)
N2O 0.157(4) 0.169(5) 0.237(6) -0.077(5) -0.035(4) -0.032(4)
C6O 0.138(6) 0.185(7) 0.274(9) -0.083(7) -0.032(6) -0.017(6)
N3O 0.193(7) 0.219(7) 0.401(12) -0.149(8) -0.080(8) -0.008(6)
C7O 0.205(10) 0.225(10) 0.543(18) -0.193(12) -0.121(12) 0.008(9)
N4O 0.187(7) 0.230(8) 0.474(14) -0.168(9) -0.082(8) -0.014(6)
C8O 0.132(6) 0.215(9) 0.291(10) -0.080(8) -0.046(6) -0.035(6)
C9O 0.160(8) 0.326(16) 0.70(3) -0.252(19) -0.121(14) 0.025(10)
N5O 0.159(5) 0.163(5) 0.159(4) -0.046(3) -0.015(4) -0.045(4)
C10O 0.142(5) 0.169(6) 0.223(8) -0.058(6) -0.014(5) -0.044(5)
C11O 0.164(7) 0.164(6) 0.241(8) -0.071(6) -0.027(6) -0.033(5)
C12O 0.129(5) 0.149(6) 0.256(8) -0.073(5) -0.037(5) -0.014(5)
C13O 0.139(5) 0.175(7) 0.305(11) -0.081(7) -0.031(6) -0.040(5)
C14O 0.147(6) 0.185(7) 0.264(9) -0.083(7) -0.024(6) -0.051(6)
N1P 0.143(4) 0.163(4) 0.124(3) -0.032(3) -0.003(3) -0.048(3)
C1P 0.160(5) 0.238(8) 0.128(5) -0.034(5) -0.010(4) -0.080(5)
C2P 0.158(5) 0.238(8) 0.152(6) -0.040(5) -0.021(5) -0.085(6)
C3P 0.145(5) 0.168(5) 0.138(5) -0.029(4) -0.027(4) -0.044(4)
C4P 0.191(6) 0.202(7) 0.149(6) -0.022(5) -0.010(5) -0.104(6)
C5P 0.196(7) 0.193(7) 0.133(5) -0.022(5) -0.022(5) -0.085(6)
N2P 0.148(4) 0.184(5) 0.126(4) -0.024(3) -0.012(3) -0.054(4)
C6P 0.129(4) 0.161(5) 0.138(5) -0.028(4) -0.007(4) -0.031(4)
N3P 0.144(4) 0.193(5) 0.150(5) -0.030(4) -0.007(4) -0.041(4)
C7P 0.135(5) 0.179(6) 0.157(6) -0.029(5) -0.017(5) -0.028(5)
N4P 0.150(4) 0.193(5) 0.145(4) -0.017(4) -0.013(4) -0.051(4)
C8P 0.144(5) 0.163(5) 0.136(5) -0.022(4) -0.019(4) -0.038(4)
C9P 0.177(6) 0.234(9) 0.175(7) -0.011(6) 0.001(5) -0.089(6)
N5P 0.139(4) 0.153(4) 0.135(4) -0.015(3) -0.023(3) -0.035(3)
C10P 0.180(6) 0.196(7) 0.125(5) 0.000(4) -0.014(4) -0.073(5)
C11P 0.161(5) 0.193(6) 0.127(4) -0.009(4) -0.032(4) -0.063(5)
C12P 0.146(5) 0.160(5) 0.132(5) -0.012(4) -0.006(4) -0.049(4)
C13P 0.150(5) 0.171(6) 0.145(6) -0.019(4) -0.018(4) -0.040(4)
C14P 0.151(5) 0.183(6) 0.140(5) -0.010(4) -0.015(4) -0.059(5)
N1Q 0.137(4) 0.162(4) 0.128(4) -0.014(3) -0.020(3) -0.041(3)
C1Q 0.158(5) 0.201(7) 0.127(5) -0.012(4) -0.023(4) -0.061(5)
C2Q 0.165(6) 0.219(7) 0.136(6) -0.019(5) -0.006(4) -0.061(5)
C3Q 0.168(6) 0.234(8) 0.128(5) -0.036(5) -0.027(5) -0.067(6)
C4Q 0.180(7) 0.250(9) 0.127(5) -0.025(5) -0.005(5) -0.061(7)
C5Q 0.183(6) 0.236(8) 0.128(5) -0.045(5) -0.020(5) -0.083(6)
N2Q 0.147(10) 0.221(12) 0.154(10) -0.042(9) -0.046(8) -0.046(9)
C6Q 0.208(13) 0.258(14) 0.131(11) -0.011(11) 0.010(11) -0.070(12)
N3Q 0.227(12) 0.311(17) 0.125(8) -0.036(11) -0.009(8) -0.109(11)
C7Q 0.195(14) 0.36(2) 0.162(12) -0.069(14) -0.029(10) -0.109(15)
N4Q 0.188(11) 0.330(18) 0.134(9) -0.078(11) -0.004(8) -0.085(12)
C8Q 0.193(12) 0.262(13) 0.134(10) -0.062(9) -0.043(9) -0.066(11)
C9Q 0.24(2) 0.45(4) 0.139(13) -0.008(19) -0.022(12) -0.16(3)
N52Q 0.149(12) 0.221(14) 0.124(11) -0.016(11) -0.019(9) -0.054(11)
C56Q 0.166(12) 0.249(14) 0.143(12) -0.045(12) -0.014(11) -0.099(11)
N53Q 0.211(14) 0.31(2) 0.155(15) -0.056(14) -0.003(11) -0.111(14)
C57Q 0.192(16) 0.33(2) 0.167(14) -0.062(16) -0.012(13) -0.087(17)
N54Q 0.195(13) 0.304(18) 0.139(10) -0.099(12) -0.010(10) -0.063(13)
C58Q 0.195(14) 0.263(15) 0.129(13) -0.048(12) -0.037(12) -0.046(13)
C59Q 0.22(2) 0.50(5) 0.111(15) -0.11(2) 0.020(14) -0.13(3)
N5Q 0.165(4) 0.151(4) 0.145(4) -0.018(3) -0.036(4) -0.046(3)
C10Q 0.184(7) 0.211(7) 0.145(5) -0.004(5) -0.040(5) -0.071(6)
C11Q 0.169(6) 0.225(8) 0.143(6) -0.027(5) -0.032(5) -0.063(6)
C12Q 0.176(6) 0.239(8) 0.128(5) -0.043(5) -0.013(5) -0.085(6)
C13Q 0.189(7) 0.249(9) 0.128(5) -0.024(5) -0.030(5) -0.071(7)
C14Q 0.199(7) 0.250(9) 0.128(6) -0.036(5) -0.024(5) -0.087(7)
N1R 0.153(4) 0.136(4) 0.117(3) -0.015(3) -0.002(3) -0.023(3)
C1R 0.157(6) 0.158(6) 0.157(6) 0.000(4) 0.012(5) 0.007(5)
C2R 0.162(6) 0.149(6) 0.194(7) -0.006(5) -0.008(5) -0.017(5)
C3R 0.140(5) 0.125(4) 0.155(5) -0.005(4) -0.004(4) -0.012(4)
C4R 0.162(6) 0.164(6) 0.172(6) 0.015(5) 0.021(5) -0.029(5)
C5R 0.184(7) 0.148(5) 0.150(5) -0.002(5) 0.004(5) 0.001(5)
N2R 0.154(4) 0.125(4) 0.168(5) -0.011(3) -0.008(4) -0.007(3)
C6R 0.173(6) 0.145(6) 0.159(6) -0.004(5) 0.028(5) -0.043(5)
N3R 0.184(6) 0.158(5) 0.201(6) 0.003(5) 0.032(5) -0.008(4)
C7R 0.218(9) 0.163(7) 0.231(9) 0.039(6) 0.050(8) 0.008(7)
N4R 0.181(5) 0.156(5) 0.194(6) 0.005(4) 0.029(4) -0.017(4)
C8R 0.154(6) 0.150(6) 0.167(6) -0.011(5) 0.002(5) -0.042(5)
C9R 0.271(12) 0.172(8) 0.340(14) 0.056(9) 0.130(11) -0.022(7)
N5R 0.145(4) 0.142(4) 0.125(3) -0.018(3) -0.009(3) -0.040(3)
C10R 0.154(5) 0.135(5) 0.135(5) -0.016(4) -0.003(4) -0.015(4)
C11R 0.148(5) 0.160(6) 0.132(5) -0.012(4) 0.004(4) -0.035(5)
C12R 0.121(4) 0.131(4) 0.160(5) -0.021(4) -0.017(4) -0.014(4)
C13R 0.145(5) 0.160(6) 0.151(5) -0.019(4) 0.010(4) -0.042(5)
C14R 0.147(5) 0.140(5) 0.151(5) -0.021(4) -0.015(4) -0.012(4)
N1S 0.170(4) 0.133(4) 0.117(3) -0.022(3) -0.033(3) -0.026(3)
C1S 0.250(8) 0.144(5) 0.148(6) -0.037(5) -0.053(6) -0.032(5)
C2S 0.229(8) 0.142(6) 0.164(6) -0.013(5) -0.061(5) -0.028(5)
C3S 0.256(8) 0.139(6) 0.146(5) -0.022(5) -0.059(5) -0.040(5)
C4S 0.260(9) 0.132(5) 0.165(6) -0.001(5) -0.062(6) -0.039(5)
C5S 0.224(7) 0.136(6) 0.147(5) -0.031(4) -0.044(5) -0.041(5)
N2S 0.259(15) 0.140(14) 0.164(14) -0.059(12) -0.072(13) -0.079(13)
C6S 0.301(17) 0.137(15) 0.186(15) -0.039(14) -0.075(15) -0.045(15)
N3S 0.35(2) 0.158(15) 0.243(18) -0.005(15) -0.100(16) -0.033(16)
C7S 0.37(2) 0.149(15) 0.182(18) -0.023(15) -0.103(18) -0.052(18)
N4S 0.33(2) 0.127(13) 0.166(14) 0.004(12) -0.095(15) -0.046(15)
C8S 0.283(17) 0.143(14) 0.183(15) -0.025(14) -0.081(14) -0.059(14)
C9S 0.50(6) 0.16(3) 0.37(5) -0.05(4) -0.15(4) 0.02(4)
N52S 0.264(11) 0.151(9) 0.146(8) -0.004(7) -0.058(8) -0.028(9)
C56S 0.289(12) 0.128(8) 0.179(10) -0.007(8) -0.091(9) -0.031(9)
N53S 0.360(17) 0.144(8) 0.192(9) -0.022(7) -0.114(10) -0.070(9)
C57S 0.41(2) 0.177(11) 0.198(13) -0.031(10) -0.100(14) -0.085(13)
N54S 0.356(17) 0.150(8) 0.179(9) -0.008(7) -0.082(10) -0.096(10)
C58S 0.265(13) 0.140(9) 0.186(10) -0.031(8) -0.064(9) -0.061(8)
C59S 0.53(4) 0.121(9) 0.237(18) 0.020(11) -0.16(2) -0.111(16)
N5S 0.162(4) 0.134(4) 0.153(4) -0.032(3) -0.037(3) -0.023(3)
C10S 0.232(8) 0.137(5) 0.163(6) -0.046(5) -0.063(6) -0.015(5)
C11S 0.245(8) 0.146(6) 0.156(6) -0.031(5) -0.053(6) -0.039(5)
C12S 0.273(9) 0.126(5) 0.151(6) -0.031(4) -0.070(5) -0.045(5)
C13S 0.297(10) 0.126(5) 0.177(7) -0.032(5) -0.068(7) -0.030(6)
C14S 0.267(9) 0.152(7) 0.171(7) -0.049(6) -0.048(6) -0.045(6)
N1T 0.159(4) 0.123(3) 0.120(3) -0.006(3) -0.025(3) -0.020(3)
C1T 0.166(6) 0.136(5) 0.141(5) -0.025(4) -0.013(4) -0.024(4)
C2T 0.175(6) 0.134(5) 0.129(5) -0.008(4) -0.005(4) -0.007(5)
C3T 0.158(6) 0.158(6) 0.128(5) -0.028(4) -0.007(4) -0.029(5)
C4T 0.179(6) 0.143(5) 0.135(5) 0.007(4) -0.037(5) -0.031(5)
C5T 0.143(5) 0.160(6) 0.132(5) -0.009(4) -0.001(4) -0.025(5)
N2T 0.150(4) 0.177(5) 0.134(4) -0.014(4) -0.005(4) -0.024(4)
C6T 0.153(6) 0.162(5) 0.140(5) -0.007(4) -0.036(5) -0.006(5)
N3T 0.163(5) 0.222(7) 0.163(5) 0.023(5) -0.015(4) -0.005(5)
C7T 0.196(9) 0.220(9) 0.202(9) 0.032(7) 0.005(7) 0.001(7)
N4T 0.175(6) 0.228(7) 0.158(5) 0.035(5) 0.015(4) 0.003(5)
C8T 0.163(6) 0.161(6) 0.144(5) 0.011(5) -0.014(5) -0.004(5)
C9T 0.170(8) 0.433(18) 0.314(14) 0.182(13) 0.011(8) 0.135(11)
N5T 0.160(4) 0.122(3) 0.135(4) -0.005(3) -0.007(3) -0.027(3)
C10T 0.148(5) 0.153(5) 0.146(5) 0.014(4) 0.007(4) 0.000(4)
C11T 0.163(6) 0.174(6) 0.162(6) -0.007(5) 0.022(5) -0.006(5)
C12T 0.162(6) 0.150(5) 0.141(5) -0.012(4) 0.005(5) -0.009(5)
C13T 0.156(6) 0.189(6) 0.146(5) 0.008(5) -0.007(5) -0.010(5)
C14T 0.174(7) 0.171(6) 0.163(6) -0.016(5) 0.015(5) -0.027(6)
N1U 0.161(4) 0.130(4) 0.121(3) -0.023(3) -0.025(3) -0.017(3)
C1U 0.193(6) 0.140(5) 0.147(5) -0.031(4) -0.044(5) -0.013(5)
C2U 0.204(7) 0.130(5) 0.153(5) -0.029(4) -0.038(5) -0.009(5)
C3U 0.169(6) 0.147(5) 0.134(5) -0.024(4) -0.039(4) -0.024(4)
C4U 0.190(6) 0.136(5) 0.137(5) -0.014(4) -0.043(4) -0.016(5)
C5U 0.183(6) 0.132(4) 0.142(5) -0.033(4) -0.031(5) -0.018(4)
N2U 0.191(5) 0.132(4) 0.130(4) -0.022(3) -0.038(3) -0.016(4)
C6U 0.175(6) 0.161(6) 0.133(5) -0.029(5) -0.016(4) -0.036(5)
N3U 0.218(6) 0.140(4) 0.135(4) -0.012(4) -0.042(4) -0.026(4)
C7U 0.236(8) 0.149(6) 0.128(5) -0.014(4) -0.048(5) -0.042(5)
N4U 0.209(6) 0.155(5) 0.128(4) -0.020(3) -0.032(4) -0.035(4)
C8U 0.178(6) 0.143(5) 0.123(4) -0.022(4) -0.032(4) -0.034(4)
C9U 0.267(10) 0.174(7) 0.198(8) -0.002(6) -0.113(7) -0.030(7)
N5U 0.186(5) 0.133(4) 0.125(4) -0.009(3) -0.032(3) -0.045(3)
C10U 0.228(8) 0.152(6) 0.139(5) -0.020(4) -0.056(5) -0.043(5)
C11U 0.235(8) 0.142(6) 0.155(6) -0.034(5) -0.066(5) -0.031(5)
C12U 0.195(6) 0.141(5) 0.125(4) -0.030(4) -0.039(4) -0.036(5)
C13U 0.206(7) 0.173(7) 0.168(6) -0.019(5) -0.081(5) -0.029(6)
C14U 0.202(7) 0.135(5) 0.158(6) -0.022(4) -0.062(5) -0.022(5)
N1V 0.172(5) 0.146(4) 0.115(4) -0.008(3) -0.021(3) -0.044(3)
C1V 0.191(7) 0.201(7) 0.145(6) -0.028(5) -0.024(5) -0.077(6)
C2V 0.196(7) 0.231(8) 0.141(5) -0.021(5) -0.029(5) -0.091(6)
C3V 0.165(6) 0.192(7) 0.158(6) 0.012(5) -0.040(5) -0.059(5)
C4V 0.221(8) 0.265(9) 0.126(5) 0.012(6) -0.052(5) -0.104(7)
C5V 0.205(8) 0.232(8) 0.126(5) 0.011(5) -0.039(6) -0.088(7)
N2V 0.202(16) 0.233(15) 0.092(9) 0.008(10) -0.031(11) -0.035(14)
C6V 0.172(14) 0.258(15) 0.118(12) 0.030(13) -0.010(11) -0.069(14)
N3V 0.139(14) 0.33(2) 0.148(12) 0.005(13) -0.062(10) -0.065(15)
C7V 0.189(17) 0.34(2) 0.187(16) 0.009(18) -0.057(15) -0.114(17)
N4V 0.206(14) 0.30(2) 0.178(13) -0.003(14) -0.059(12) -0.102(14)
C8V 0.187(14) 0.243(16) 0.169(15) -0.010(13) -0.018(13) -0.098(13)
C9V 0.30(4) 0.47(5) 0.24(3) -0.08(3) -0.13(3) -0.15(4)
N52V 0.171(8) 0.217(10) 0.151(12) -0.005(9) -0.010(8) -0.095(8)
C56V 0.190(12) 0.250(13) 0.143(10) 0.010(10) -0.037(10) -0.060(11)
N53V 0.158(11) 0.339(17) 0.176(9) 0.024(10) -0.063(8) -0.065(12)
C57V 0.181(13) 0.32(2) 0.170(11) 0.001(13) -0.037(11) -0.096(13)
N54V 0.198(11) 0.301(18) 0.176(10) 0.009(11) -0.046(9) -0.114(11)
C58V 0.171(10) 0.261(13) 0.149(11) 0.009(10) -0.027(9) -0.093(10)
C59V 0.151(13) 0.48(4) 0.210(16) 0.00(2) -0.063(13) -0.085(19)
N5V 0.153(4) 0.174(5) 0.141(4) -0.027(3) -0.020(4) -0.053(4)
C10V 0.167(6) 0.185(6) 0.142(6) -0.006(5) -0.015(5) -0.074(5)
C11V 0.181(6) 0.253(9) 0.150(6) -0.009(6) -0.028(5) -0.105(6)
C12V 0.185(7) 0.218(8) 0.145(6) -0.007(5) -0.014(5) -0.066(6)
C13V 0.176(6) 0.307(11) 0.144(6) -0.005(6) -0.010(5) -0.124(7)
C14V 0.163(6) 0.257(9) 0.161(7) -0.012(6) -0.007(5) -0.073(6)
N1W 0.181(5) 0.151(4) 0.137(4) -0.019(4) -0.044(4) -0.037(4)
C1W 0.217(7) 0.135(5) 0.155(6) -0.014(4) -0.069(5) -0.028(5)
C2W 0.229(8) 0.181(7) 0.156(6) -0.030(6) -0.075(6) -0.015(6)
C3W 0.267(9) 0.138(5) 0.168(6) -0.024(5) -0.077(6) -0.017(6)
C4W 0.312(11) 0.141(6) 0.159(6) -0.017(5) -0.106(7) -0.013(6)
C5W 0.297(11) 0.165(7) 0.157(6) -0.013(6) -0.069(7) -0.022(7)
N2W 0.261(18) 0.165(17) 0.162(16) -0.049(15) -0.055(16) -0.006(17)
C6W 0.288(18) 0.136(16) 0.175(17) -0.057(16) -0.089(17) 0.006(16)
N3W 0.32(2) 0.160(17) 0.212(19) -0.064(16) -0.100(18) 0.019(18)
C7W 0.38(3) 0.20(2) 0.23(2) -0.09(2) -0.14(2) 0.00(2)
N4W 0.33(3) 0.19(2) 0.23(2) -0.053(18) -0.13(2) 0.02(2)
C8W 0.280(18) 0.161(17) 0.175(17) -0.040(16) -0.082(16) 0.020(17)
C9W 0.57(8) 0.23(5) 0.46(7) -0.08(5) -0.15(6) -0.17(5)
N52W 0.231(8) 0.139(6) 0.160(7) -0.046(5) -0.054(7) 0.008(6)
C56W 0.294(12) 0.171(10) 0.187(10) -0.046(9) -0.102(9) -0.001(9)
N53W 0.372(15) 0.166(7) 0.192(9) -0.063(6) -0.120(9) 0.040(8)
C57W 0.400(19) 0.191(10) 0.225(12) -0.086(10) -0.160(12) 0.039(12)
N54W 0.368(15) 0.163(7) 0.170(8) -0.073(6) -0.078(9) 0.022(8)
C58W 0.267(11) 0.136(8) 0.172(9) -0.039(7) -0.071(8) -0.004(8)
C59W 0.61(4) 0.217(13) 0.240(15) -0.124(12) -0.20(2) 0.056(17)
N5W 0.155(4) 0.127(4) 0.156(4) -0.029(3) -0.033(3) -0.013(3)
C10W 0.211(7) 0.147(6) 0.166(6) -0.030(5) -0.059(5) -0.015(5)
C11W 0.249(8) 0.133(5) 0.172(6) -0.040(5) -0.068(6) -0.020(5)
C12W 0.240(8) 0.151(6) 0.146(5) -0.035(5) -0.043(5) 0.007(5)
C13W 0.294(10) 0.131(5) 0.193(8) -0.048(5) -0.091(7) 0.018(6)
C14W 0.259(9) 0.125(5) 0.168(6) -0.041(5) -0.069(6) 0.010(5)
N1X 0.152(4) 0.136(4) 0.170(4) -0.044(3) -0.022(3) -0.032(4)
C1X 0.151(6) 0.148(5) 0.206(7) -0.063(5) -0.018(5) -0.023(5)
C2X 0.162(6) 0.156(6) 0.249(9) -0.097(6) 0.005(6) -0.029(5)
C3X 0.158(6) 0.178(7) 0.232(8) -0.073(6) 0.007(6) -0.036(6)
C4X 0.167(7) 0.165(6) 0.303(11) -0.110(7) -0.006(7) -0.029(6)
C5X 0.172(7) 0.156(6) 0.255(9) -0.067(6) 0.014(7) -0.019(6)
N2X 0.138(9) 0.178(12) 0.231(12) -0.045(11) -0.006(10) -0.042(10)
C6X 0.175(12) 0.159(11) 0.259(13) -0.080(10) -0.011(11) -0.044(10)
N3X 0.180(10) 0.200(11) 0.311(17) -0.128(11) 0.001(11) -0.051(9)
C7X 0.178(12) 0.203(14) 0.36(2) -0.116(14) 0.013(14) -0.069(11)
N4X 0.184(10) 0.142(11) 0.338(18) -0.089(11) 0.044(10) -0.065(8)
C8X 0.159(11) 0.175(11) 0.258(13) -0.057(11) 0.024(11) -0.070(10)
C9X 0.207(15) 0.27(3) 0.52(4) -0.23(3) -0.02(3) -0.088(17)
N52X 0.154(14) 0.151(12) 0.222(14) -0.090(11) -0.011(12) -0.030(12)
C56X 0.169(14) 0.164(14) 0.280(16) -0.072(14) 0.015(14) -0.036(13)
N53X 0.144(11) 0.213(15) 0.31(2) -0.100(15) 0.025(14) -0.041(11)
C57X 0.208(17) 0.224(19) 0.35(2) -0.088(18) 0.023(19) -0.030(16)
N54X 0.204(13) 0.166(15) 0.35(2) -0.045(15) 0.033(14) -0.096(11)
C58X 0.184(14) 0.165(14) 0.265(16) -0.068(14) 0.028(14) -0.048(13)
C59X 0.25(3) 0.21(3) 0.55(5) -0.17(4) 0.06(4) -0.12(2)
N5X 0.137(4) 0.158(4) 0.143(4) -0.037(3) -0.002(3) -0.039(4)
C10X 0.158(6) 0.169(6) 0.191(7) -0.047(5) -0.012(5) -0.036(5)
C11X 0.147(5) 0.175(6) 0.241(8) -0.088(6) -0.010(5) -0.034(5)
C12X 0.170(6) 0.144(5) 0.213(7) -0.059(5) 0.026(5) -0.046(5)
C13X 0.135(6) 0.189(7) 0.302(11) -0.092(7) 0.029(6) -0.047(5)
C14X 0.141(5) 0.177(7) 0.223(8) -0.063(6) 0.025(5) -0.044(5)
Pd1 0.1819(5) 0.1300(3) 0.1440(4) -0.0083(3) -0.0379(3) -0.0380(3)
Pd2 0.1781(5) 0.1553(4) 0.1388(4) -0.0305(3) -0.0383(3) -0.0127(4)
Pd3 0.1531(4) 0.1673(4) 0.1517(4) -0.0064(3) -0.0233(3) -0.0519(4)
Pd4 0.1663(4) 0.1420(4) 0.1640(4) -0.0454(3) 0.0010(3) -0.0370(3)
Pd5 0.1577(4) 0.1714(4) 0.1288(3) -0.0326(3) -0.0012(3) -0.0509(3)
Pd6 0.1424(4) 0.1446(4) 0.1689(4) -0.0442(3) -0.0254(3) -0.0153(3)
Pd7 0.1438(4) 0.1540(4) 0.1337(3) -0.0343(3) -0.0064(3) -0.0436(3)
Pd8 0.1417(4) 0.1211(3) 0.1379(3) -0.0198(2) -0.0084(3) -0.0305(3)
Pd9 0.1307(3) 0.1404(3) 0.1286(3) -0.0153(3) -0.0177(2) -0.0250(3)
Pd10 0.1514(4) 0.1317(3) 0.1171(3) -0.0250(2) -0.0122(3) -0.0207(3)
Pd11 0.1651(4) 0.1358(3) 0.1293(3) -0.0139(3) -0.0303(3) -0.0399(3)
Pd12 0.1478(4) 0.1323(3) 0.1509(4) -0.0370(3) -0.0273(3) -0.0192(3)
B11 0.191(8) 0.176(7) 0.107(5) -0.013(5) -0.089(5) -0.043(6)
F11 0.302(7) 0.262(6) 0.239(6) -0.010(5) -0.109(5) -0.062(5)
F12 0.48(4) 0.58(4) 0.51(4) 0.16(3) -0.18(3) -0.11(3)
F13 0.58(4) 0.43(4) 0.44(3) -0.05(3) -0.08(3) 0.12(3)
F14 0.39(3) 0.62(4) 0.51(4) -0.18(3) -0.06(3) -0.03(3)
F16 0.37(3) 0.62(4) 0.50(4) 0.00(4) -0.06(3) 0.04(3)
F17 0.57(4) 0.45(3) 0.39(3) -0.09(3) -0.16(3) -0.18(3)
F18 0.53(4) 0.44(3) 0.54(4) -0.01(3) -0.28(3) 0.14(3)
B21 0.406(10) 0.313(9) 0.397(10) 0.020(8) -0.257(8) -0.082(8)
F21 0.376(11) 0.272(12) 0.382(11) 0.012(9) -0.221(9) -0.085(9)
F22 0.442(13) 0.356(12) 0.430(13) 0.009(11) -0.231(11) -0.055(11)
F23 0.388(11) 0.301(10) 0.385(11) 0.046(8) -0.276(9) -0.087(9)
F24 0.439(12) 0.350(10) 0.434(12) 0.021(10) -0.243(10) -0.086(10)
F25 0.378(10) 0.271(11) 0.379(10) 0.015(8) -0.237(9) -0.092(8)
F26 0.447(13) 0.356(12) 0.426(13) 0.011(11) -0.222(12) -0.048(11)
F27 0.424(12) 0.346(11) 0.437(12) 0.019(9) -0.223(10) -0.072(10)
F28 0.440(12) 0.339(11) 0.411(12) 0.028(10) -0.274(10) -0.084(10)
B31 0.152(7) 0.103(5) 0.179(7) 0.004(5) -0.080(6) 0.056(5)
F31 0.241(14) 0.133(6) 0.219(11) -0.007(6) -0.093(10) 0.012(8)
F32 0.42(3) 0.57(4) 0.36(3) -0.18(3) -0.12(2) 0.15(3)
F33 0.51(4) 0.39(3) 0.67(5) 0.03(4) 0.04(4) -0.11(3)
F34 0.53(4) 0.32(3) 0.51(4) 0.04(3) -0.17(3) 0.01(3)
F35 0.34(2) 0.40(3) 0.30(2) -0.142(19) 0.078(17) -0.20(2)
F36 0.40(3) 0.56(4) 0.50(4) -0.04(3) 0.05(3) -0.08(3)
F37 0.36(3) 0.48(4) 0.71(4) -0.08(4) -0.11(3) -0.13(3)
F38 0.62(4) 0.39(3) 0.38(3) -0.05(3) -0.08(3) 0.05(3)
B41 0.52(3) 0.103(8) 0.84(4) -0.034(17) -0.46(3) 0.027(15)
F41 0.371(11) 0.245(7) 0.315(8) -0.052(6) -0.080(8) 0.022(7)
F42 0.99(5) 0.358(19) 0.90(4) -0.01(2) -0.63(4) -0.04(3)
F43 0.443(15) 0.336(12) 0.500(18) 0.089(12) -0.131(13) -0.087(11)
F44 0.58(2) 0.319(15) 1.35(5) 0.00(2) -0.60(3) -0.040(15)
B51 0.182(8) 0.161(7) 0.087(4) 0.041(4) 0.015(4) -0.081(6)
F51 0.246(14) 0.299(17) 0.154(9) 0.095(11) -0.022(9) -0.143(13)
F52 0.68(5) 0.38(3) 0.44(4) 0.00(3) -0.01(4) 0.01(4)
F53 0.34(3) 0.42(4) 0.65(4) 0.00(3) -0.02(3) 0.03(3)
F54 0.38(3) 0.68(4) 0.43(3) 0.03(3) -0.15(3) -0.07(3)
F55 0.35(3) 0.33(3) 0.38(3) -0.16(2) -0.05(2) -0.02(2)
F56 0.35(3) 0.49(4) 0.62(4) 0.18(3) -0.20(3) -0.09(3)
F57 0.50(4) 0.43(3) 0.46(3) -0.13(3) 0.04(3) -0.08(3)
F58 0.50(4) 0.48(3) 0.43(3) 0.07(3) -0.04(3) 0.23(3)
B61 0.71(4) 0.48(3) 0.096(8) 0.024(14) 0.002(16) -0.36(3)
F61 0.319(8) 0.370(10) 0.221(7) 0.038(6) -0.043(6) -0.072(8)
F62 0.421(14) 0.485(17) 0.344(12) -0.047(12) 0.112(11) -0.089(13)
F63 0.79(4) 0.88(4) 0.308(16) -0.05(2) 0.030(19) -0.50(3)
F64 0.91(4) 0.59(3) 0.400(18) -0.006(17) -0.16(2) -0.40(3)
B71 0.096(4) 0.152(6) 0.156(6) -0.072(5) 0.040(4) 0.007(4)
F71 0.224(5) 0.243(6) 0.301(7) -0.048(5) 0.024(5) -0.012(5)
F72 0.57(4) 0.32(3) 0.53(4) 0.05(3) 0.06(3) -0.17(3)
F73 0.28(2) 0.62(4) 0.54(4) 0.15(3) -0.08(2) 0.03(3)
F74 0.38(3) 0.46(3) 0.60(4) -0.22(3) 0.03(3) 0.06(3)
F76 0.57(4) 0.43(3) 0.37(3) -0.07(3) -0.07(3) 0.09(3)
F77 0.45(4) 0.64(4) 0.46(4) -0.06(4) 0.01(3) -0.09(4)
F78 0.39(3) 0.28(2) 0.66(4) 0.04(3) 0.08(3) -0.03(2)
B81 0.228(9) 0.351(11) 0.321(11) -0.076(10) -0.031(9) -0.051(9)
F81 0.297(12) 0.392(14) 0.362(14) -0.052(13) -0.009(12) -0.071(12)
F82 0.239(13) 0.318(15) 0.336(14) -0.068(13) 0.006(11) -0.042(11)
F83 0.223(10) 0.309(12) 0.328(16) -0.047(14) -0.041(12) -0.056(9)
F84 0.261(13) 0.397(17) 0.354(15) -0.053(14) -0.025(12) -0.027(13)
F85 0.197(9) 0.308(11) 0.277(13) -0.092(11) -0.014(10) -0.044(8)
F86 0.271(14) 0.365(16) 0.366(15) -0.052(14) -0.026(13) -0.059(13)
F87 0.193(9) 0.349(14) 0.296(13) -0.115(12) 0.029(10) -0.025(10)
F88 0.287(13) 0.397(15) 0.353(14) -0.064(13) -0.045(12) -0.081(12)
B91 0.246(6) 0.357(10) 0.325(9) -0.031(8) -0.023(6) -0.122(7)
F91 0.203(6) 0.322(9) 0.288(9) -0.052(7) -0.025(6) -0.135(7)
F92 0.219(6) 0.325(10) 0.285(9) -0.049(8) -0.017(6) -0.128(7)
F93 0.309(10) 0.405(12) 0.386(12) -0.015(11) -0.023(10) -0.116(10)
F94 0.370(17) 0.430(19) 0.445(19) 0.047(18) -0.005(16) -0.108(17)
F95 0.199(6) 0.318(10) 0.275(9) -0.067(8) -0.033(6) -0.152(6)
F96 0.216(6) 0.327(10) 0.284(9) -0.054(8) -0.022(6) -0.124(7)
F97 0.335(14) 0.449(16) 0.410(15) -0.026(14) -0.059(13) -0.097(13)
F98 0.295(12) 0.404(15) 0.392(14) -0.017(13) -0.041(12) -0.126(13)
B101 0.274(10) 0.376(11) 0.361(11) -0.132(9) -0.023(8) -0.237(9)
F101 0.308(12) 0.333(12) 0.283(13) -0.091(11) 0.011(10) -0.097(11)
F102 0.341(13) 0.465(14) 0.446(14) -0.078(12) 0.007(12) -0.195(13)
F103 0.371(13) 0.431(15) 0.422(13) -0.121(13) 0.003(11) -0.165(12)
F104 0.346(14) 0.441(15) 0.410(14) -0.138(13) 0.015(12) -0.224(12)
F105 0.284(11) 0.327(12) 0.284(13) -0.101(10) -0.008(9) -0.135(10)
F106 0.351(13) 0.436(14) 0.413(13) -0.124(12) -0.002(12) -0.194(12)
F107 0.353(13) 0.437(14) 0.414(13) -0.134(12) 0.023(11) -0.209(12)
F108 0.324(14) 0.463(15) 0.454(15) -0.079(13) -0.030(13) -0.207(13)
B111 0.337(8) 0.266(8) 0.326(10) -0.120(8) -0.038(7) -0.042(7)
F111 0.302(7) 0.230(8) 0.303(10) -0.135(8) -0.046(7) -0.053(6)
F112 0.307(7) 0.229(8) 0.321(11) -0.141(8) -0.051(8) -0.043(6)
F113 0.451(16) 0.366(15) 0.402(15) -0.049(14) -0.035(14) -0.004(14)
F114 0.413(14) 0.329(13) 0.405(14) -0.120(13) -0.012(12) 0.011(12)
F115 0.307(8) 0.247(9) 0.305(10) -0.123(8) -0.037(7) -0.055(7)
F116 0.297(7) 0.207(7) 0.283(9) -0.170(8) -0.030(7) -0.043(6)
F117 0.425(13) 0.310(12) 0.359(13) -0.115(11) -0.054(12) -0.025(12)
F118 0.427(16) 0.424(16) 0.423(16) -0.070(15) 0.015(15) 0.016(14)
B121 0.317(11) 0.315(10) 0.346(10) -0.228(8) -0.094(9) -0.004(9)
F121 0.241(14) 0.300(10) 0.307(11) -0.144(9) -0.066(11) -0.011(10)
F122 0.368(12) 0.387(13) 0.399(13) -0.192(12) -0.112(12) -0.001(11)
F123 0.360(13) 0.375(12) 0.416(14) -0.209(11) -0.104(12) 0.021(11)
F124 0.410(14) 0.351(14) 0.411(14) -0.190(12) -0.045(13) -0.013(13)
F125 0.251(14) 0.300(10) 0.304(10) -0.162(8) -0.062(11) -0.029(10)
F126 0.362(13) 0.368(13) 0.410(14) -0.230(12) -0.116(12) 0.032(12)
F127 0.381(13) 0.403(13) 0.404(14) -0.178(12) -0.086(13) -0.003(11)
F128 0.407(13) 0.359(13) 0.423(13) -0.186(12) -0.038(12) 0.016(12)
B131 0.203(6) 0.262(8) 0.270(7) -0.057(6) -0.004(5) -0.065(6)
F131 0.169(6) 0.233(9) 0.231(7) -0.071(7) -0.020(6) -0.081(6)
F132 0.233(9) 0.291(11) 0.296(10) -0.051(10) -0.006(9) -0.083(9)
F133 0.269(10) 0.309(12) 0.325(11) -0.039(11) -0.004(10) -0.064(10)
F134 0.182(7) 0.245(9) 0.242(7) -0.066(7) -0.008(6) -0.076(7)
F135 0.167(6) 0.237(9) 0.230(7) -0.070(6) -0.024(5) -0.080(6)
F136 0.247(10) 0.317(12) 0.322(11) -0.044(10) -0.020(10) -0.047(10)
F137 0.227(10) 0.306(11) 0.295(10) -0.017(10) -0.027(9) -0.051(10)
F138 0.171(6) 0.243(9) 0.244(7) -0.056(7) -0.016(6) -0.076(6)
F13A 0.221(9) 0.282(11) 0.304(11) -0.029(10) 0.022(10) -0.073(9)
F13B 0.280(12) 0.323(14) 0.335(13) -0.048(12) 0.001(12) -0.031(12)
F13C 0.260(10) 0.318(12) 0.326(11) -0.027(11) 0.015(10) -0.055(10)
F13D 0.115(6) 0.219(9) 0.228(7) -0.069(7) -0.040(5) -0.101(6)
B141 0.082(4) 0.149(6) 0.219(9) -0.029(6) -0.036(5) -0.067(5)
F141 0.143(7) 0.225(10) 0.188(8) -0.065(7) -0.001(6) -0.100(7)
F142 0.48(4) 0.39(3) 0.72(5) 0.06(4) -0.13(4) -0.03(3)
F143 0.34(3) 0.39(3) 0.56(4) -0.08(3) 0.14(3) -0.06(2)
F144 0.28(2) 0.60(4) 0.41(3) -0.02(3) -0.02(2) -0.12(3)
F145 0.30(2) 0.34(2) 0.31(3) -0.025(19) 0.042(19) 0.034(19)
F146 0.40(4) 0.58(4) 0.64(5) -0.06(4) -0.08(3) 0.07(3)
F147 0.47(4) 0.38(3) 0.44(3) -0.03(3) 0.12(3) -0.09(3)
F148 0.35(3) 0.40(3) 0.58(4) 0.13(3) -0.14(3) -0.06(2)
B151 0.190(6) 0.231(6) 0.218(7) -0.041(6) -0.020(6) 0.042(5)
F151 0.158(7) 0.192(7) 0.187(8) -0.055(7) -0.021(7) 0.022(6)
F152 0.227(12) 0.288(12) 0.259(13) -0.053(11) -0.023(11) 0.066(11)
F153 0.158(7) 0.197(7) 0.184(9) -0.053(7) -0.017(7) 0.031(6)
F154 0.225(11) 0.272(11) 0.245(11) -0.044(10) -0.007(10) 0.071(10)
F155 0.155(6) 0.195(6) 0.190(8) -0.059(6) -0.023(6) 0.021(6)
F156 0.218(11) 0.284(12) 0.256(13) -0.051(12) -0.010(12) 0.075(11)
F157 0.152(6) 0.194(6) 0.192(8) -0.058(6) -0.017(6) 0.026(6)
F158 0.224(11) 0.293(11) 0.264(12) -0.016(11) -0.009(11) 0.052(10)
F15A 0.135(8) 0.166(8) 0.165(9) -0.054(7) -0.019(7) 0.005(7)
F15B 0.210(10) 0.283(11) 0.260(11) -0.028(10) -0.015(10) 0.056(10)
F15C 0.137(9) 0.168(9) 0.183(11) -0.051(9) 0.040(8) 0.040(8)
F15D 0.207(10) 0.254(10) 0.244(11) -0.037(9) -0.013(10) 0.049(9)
F15E 0.240(12) 0.288(12) 0.258(13) -0.003(12) -0.010(11) 0.056(11)
F15F 0.210(10) 0.274(11) 0.247(11) -0.039(10) -0.026(10) 0.055(10)
F15G 0.105(7) 0.173(8) 0.155(9) -0.050(8) -0.004(7) 0.024(7)
F15H 0.226(11) 0.280(11) 0.257(13) -0.045(11) -0.009(12) 0.073(11)
B161 0.085(4) 0.123(5) 0.184(7) -0.043(5) 0.009(5) 0.027(4)
F161 0.134(5) 0.161(7) 0.228(11) -0.078(7) -0.012(6) 0.012(6)
F162 0.57(4) 0.37(3) 0.46(4) -0.05(3) 0.18(3) -0.03(3)
F163 0.40(3) 0.29(2) 0.72(4) -0.16(3) -0.05(3) 0.01(2)
F164 0.43(4) 0.61(4) 0.61(4) -0.26(4) 0.02(3) 0.03(3)
F165 0.47(3) 0.30(2) 0.27(2) -0.059(16) -0.03(2) -0.17(2)
F166 0.45(4) 0.51(4) 0.62(4) -0.19(4) 0.14(3) -0.10(3)
F167 0.57(4) 0.45(4) 0.68(5) -0.08(4) -0.03(4) -0.01(3)
F168 0.45(3) 0.59(4) 0.59(4) -0.02(4) 0.02(3) -0.06(4)
B171 0.142(6) 0.153(6) 0.069(3) 0.009(4) 0.046(3) -0.060(5)
F171 0.211(12) 0.273(17) 0.124(7) 0.002(8) 0.060(8) -0.100(11)
F172 0.45(4) 0.49(3) 0.45(3) -0.23(3) 0.07(3) -0.14(3)
F173 0.32(3) 0.51(4) 0.43(3) 0.18(3) -0.09(2) 0.01(3)
F174 0.64(4) 0.42(3) 0.34(3) -0.04(3) 0.04(3) 0.09(3)
F175 0.31(2) 0.211(16) 0.40(3) -0.043(17) -0.202(19) -0.019(15)
F176 0.30(2) 0.61(4) 0.36(3) -0.08(3) -0.04(2) -0.08(3)
F177 0.36(3) 0.33(3) 0.58(4) 0.13(3) 0.07(3) 0.03(2)
F178 0.62(4) 0.43(3) 0.38(3) -0.11(3) -0.01(3) -0.15(3)
B181 0.135(6) 0.166(7) 0.089(4) 0.002(4) 0.041(4) -0.054(5)
F181 0.169(10) 0.222(12) 0.134(7) 0.015(7) 0.013(7) -0.031(8)
F182 0.33(3) 0.41(3) 0.54(4) 0.08(3) -0.05(3) 0.00(2)
F183 0.41(4) 0.68(4) 0.38(3) -0.13(3) -0.04(3) -0.09(3)
F184 0.56(4) 0.46(4) 0.56(4) -0.02(3) 0.01(3) -0.09(4)
F185 0.29(3) 0.29(3) 0.38(3) 0.02(2) -0.08(2) -0.09(2)
F186 0.45(4) 0.38(3) 0.58(4) -0.20(3) 0.06(3) -0.03(3)
F187 0.24(2) 0.69(4) 0.52(3) -0.02(3) -0.10(2) -0.06(3)
F188 0.53(4) 0.59(4) 0.31(2) 0.05(3) 0.03(3) -0.20(3)
B191 0.164(7) 0.070(3) 0.138(6) 0.033(3) -0.048(5) -0.002(4)
F191 0.230(18) 0.43(3) 0.29(2) -0.18(2) 0.009(15) -0.077(19)
F192 0.52(4) 0.49(3) 0.30(3) -0.10(2) -0.11(3) 0.23(3)
F193 0.40(3) 0.42(3) 0.65(4) 0.07(3) 0.06(4) -0.03(3)
F194 0.50(3) 0.47(3) 0.40(3) 0.11(3) -0.04(3) -0.21(3)
F195 0.257(18) 0.127(7) 0.189(11) 0.033(8) -0.082(10) 0.003(8)
F196 0.63(4) 0.247(19) 0.40(3) 0.03(2) -0.02(3) 0.04(3)
F197 0.43(3) 0.66(4) 0.29(2) 0.05(3) 0.05(3) 0.10(3)
F198 0.48(4) 0.40(3) 0.60(4) 0.01(3) -0.17(3) -0.07(3)
B201 0.190(8) 0.082(4) 0.128(5) 0.036(4) -0.042(5) 0.002(4)
F201 0.264(13) 0.156(9) 0.175(11) -0.045(8) -0.053(10) 0.017(8)
F202 0.71(4) 0.198(15) 0.40(3) -0.046(17) -0.07(3) -0.07(2)
F203 0.48(4) 0.51(4) 0.60(4) 0.08(4) -0.14(3) 0.00(3)
F204 0.41(4) 0.59(4) 0.40(3) -0.03(3) -0.04(3) 0.12(3)
F205 0.43(3) 0.23(2) 0.199(16) -0.009(15) -0.059(17) -0.020(19)
F206 0.38(3) 0.49(3) 0.43(3) 0.04(3) -0.14(3) -0.01(3)
F207 0.66(4) 0.43(3) 0.33(3) 0.02(3) -0.04(3) 0.20(3)
F208 0.53(4) 0.55(4) 0.57(4) 0.09(4) -0.18(3) 0.09(4)
B211 0.301(8) 0.308(7) 0.202(6) -0.005(6) -0.070(6) -0.088(7)
F211 0.375(12) 0.423(12) 0.253(10) 0.008(10) -0.071(11) -0.081(11)
F212 0.272(9) 0.265(7) 0.171(6) -0.013(5) -0.080(6) -0.083(7)
F213 0.418(17) 0.384(17) 0.356(16) -0.079(15) -0.049(15) -0.103(15)
F214 0.270(9) 0.252(6) 0.142(5) -0.034(5) -0.095(6) -0.091(6)
F215 0.271(9) 0.264(7) 0.150(5) -0.025(5) -0.087(6) -0.086(7)
F216 0.401(15) 0.455(15) 0.320(14) 0.019(14) -0.024(14) -0.070(14)
F217 0.389(15) 0.439(15) 0.256(12) 0.035(12) -0.062(12) -0.071(13)
F218 0.272(9) 0.268(7) 0.172(6) -0.006(5) -0.074(6) -0.080(7)
B221 0.171(7) 0.207(8) 0.078(4) -0.034(5) -0.069(4) -0.039(6)
F221 0.218(18) 0.34(3) 0.46(3) 0.02(2) -0.035(19) -0.036(17)
F222 0.51(4) 0.69(5) 0.45(3) 0.02(4) -0.17(3) 0.07(4)
F223 0.66(4) 0.53(4) 0.32(3) -0.04(3) 0.13(3) -0.23(3)
F224 0.36(3) 0.67(4) 0.41(4) 0.24(3) -0.07(3) -0.17(3)
F225 0.184(10) 0.205(8) 0.130(5) -0.043(5) -0.063(6) -0.023(7)
F226 0.39(3) 0.54(4) 0.42(3) 0.19(3) -0.03(2) -0.18(3)
F227 0.37(3) 0.73(5) 0.43(3) -0.16(3) 0.02(3) -0.06(3)
F228 0.75(5) 0.47(4) 0.23(2) -0.13(2) -0.14(3) -0.05(3)
B231 0.178(7) 0.077(4) 0.180(7) -0.076(4) -0.026(5) -0.031(4)
F231 0.28(2) 0.49(3) 0.237(17) -0.021(19) -0.036(16) 0.10(2)
F232 0.61(4) 0.27(2) 0.51(4) -0.10(2) -0.21(3) 0.11(3)
F233 0.32(2) 0.42(3) 0.71(4) -0.10(3) -0.18(3) 0.03(3)
F234 0.54(4) 0.48(4) 0.59(4) -0.09(3) 0.01(4) -0.14(3)
F235 0.190(8) 0.146(6) 0.219(10) -0.103(7) -0.004(7) -0.049(6)
F236 0.37(3) 0.45(3) 0.55(3) -0.30(2) -0.20(3) 0.16(2)
F237 0.49(4) 0.37(3) 0.61(4) -0.04(3) 0.17(3) -0.06(3)
F238 0.63(4) 0.42(3) 0.49(4) -0.04(3) -0.18(3) 0.01(4)
B241 0.339(9) 0.208(6) 0.234(8) -0.045(7) 0.043(7) -0.076(7)
F241 0.382(13) 0.253(11) 0.283(12) -0.037(11) 0.066(11) -0.082(10)
F242 0.410(15) 0.294(13) 0.295(14) -0.059(12) 0.055(13) -0.068(13)
F243 0.317(10) 0.178(7) 0.195(8) -0.046(7) 0.028(8) -0.069(7)
F244 0.315(9) 0.180(7) 0.195(8) -0.046(7) 0.025(8) -0.069(7)
F245 0.275(10) 0.117(6) 0.152(7) -0.096(5) 0.013(7) -0.100(6)
F246 0.389(15) 0.295(13) 0.297(13) -0.027(13) 0.070(13) -0.102(13)
F247 0.407(14) 0.267(12) 0.311(13) -0.051(12) 0.053(12) -0.078(12)
F248 0.346(13) 0.216(11) 0.246(12) -0.046(11) 0.042(12) -0.050(10)
F24A 0.312(11) 0.179(9) 0.239(11) -0.035(9) 0.029(10) -0.085(9)
F24B 0.388(13) 0.283(11) 0.292(13) -0.031(11) 0.049(12) -0.090(11)
F24C 0.336(13) 0.232(11) 0.226(12) -0.059(10) 0.002(11) -0.059(11)
F24D 0.263(10) 0.147(7) 0.148(8) -0.060(6) -0.010(8) -0.077(7)

_geom_special_details            
; 
 All esds (except the esd in the dihedral angle between two l.s. planes) 
 are estimated using the full covariance matrix.  The cell esds are taken 
 into account individually in the estimation of esds in distances, angles 
 and torsion angles; correlations between esds in cell parameters are only 
 used when they are defined by crystal symmetry.  An approximate (isotropic) 
 treatment of cell esds is used for estimating esds involving l.s. planes. 
;

loop_
_geom_bond_atom_site_label_1
_geom_bond_atom_site_label_2
_geom_bond_distance
_geom_bond_site_symmetry_2
_geom_bond_publ_flag
N1A C1A 1.303(9) . ?
N1A C5A 1.357(9) . ?
N1A Pd4 2.014(6) . ?
C1A C2A 1.404(12) . ?
C2A C3A 1.368(11) . ?
C3A C56A 1.418(11) . ?
C3A C4A 1.420(12) . ?
C3A C6A 1.448(19) . ?
C4A C5A 1.320(11) . ?
N2A C6A 1.3900 . ?
N2A C8A 1.3900 . ?
C6A N3A 1.3900 . ?
N3A C7A 1.3900 . ?
C7A N4A 1.3900 . ?
C7A C9A 1.40(5) . ?
N4A C8A 1.3900 . ?
C8A C12A 1.435(19) . ?
N52A C56A 1.3900 . ?
N52A C58A 1.3900 . ?
C56A N53A 1.3900 . ?
N53A C57A 1.3900 . ?
C57A N54A 1.3900 . ?
C57A C59A 1.437(17) . ?
N54A C58A 1.3900 . ?
C58A C12A 1.428(12) . ?
N5A C14A 1.308(11) . ?
N5A C10A 1.322(10) . ?
N5A Pd3 1.930(8) . ?
C10A C11A 1.411(11) . ?
C11A C12A 1.399(11) . ?
C12A C13A 1.386(12) . ?
C13A C14A 1.410(13) . ?
N1B C5B 1.312(9) . ?
N1B C1B 1.359(9) . ?
N1B Pd5 1.999(6) . ?
C1B C2B 1.418(11) . ?
C2B C3B 1.344(10) . ?
C3B C4B 1.297(10) . ?
C3B C6B 1.401(11) . ?
C3B C56B 1.466(16) . ?
C4B C5B 1.370(10) . ?
N2B C6B 1.3900 . ?
N2B C8B 1.3900 . ?
C6B N3B 1.3900 . ?
N3B C7B 1.3900 . ?
C7B N4B 1.3900 . ?
C7B C9B 1.47(2) . ?
N4B C8B 1.3900 . ?
C8B C12B 1.475(12) . ?
N52B C56B 1.3900 . ?
N52B C58B 1.3900 . ?
C56B N53B 1.3900 . ?
N53B C57B 1.3900 . ?
C57B N54B 1.3900 . ?
C57B C59B 1.57(5) . ?
N54B C58B 1.3900 . ?
C58B C12B 1.444(17) . ?
N5B C14B 1.308(10) . ?
N5B C10B 1.344(9) . ?
N5B Pd4 1.988(6) . ?
C10B C11B 1.403(11) . ?
C11B C12B 1.334(11) . ?
C12B C13B 1.345(11) . ?
C13B C14B 1.393(11) . ?
N1C C1C 1.312(9) . ?
N1C C5C 1.323(8) . ?
N1C Pd5 2.026(6) . ?
C1C C2C 1.444(11) . ?
C2C C3C 1.393(10) . ?
C3C C4C 1.397(9) . ?
C3C C6C 1.453(10) . ?
C4C C5C 1.349(9) . ?
N2C C8C 1.289(8) . ?
N2C C6C 1.381(8) . ?
C6C N3C 1.333(8) . ?
N3C C7C 1.324(9) . ?
C7C N4C 1.316(9) . ?
C7C C9C 1.524(10) . ?
N4C C8C 1.318(8) . ?
C8C C12C 1.503(10) . ?
N5C C14C 1.342(8) . ?
N5C C10C 1.365(9) . ?
N5C Pd3 2.016(6) . ?
C10C C11C 1.345(9) . ?
C11C C12C 1.373(9) . ?
C12C C13C 1.383(9) . ?
C13C C14C 1.364(9) . ?
N1D C5D 1.380(10) . ?
N1D C1D 1.407(10) . ?
N1D Pd3 2.019(6) . ?
C1D C2D 1.362(11) . ?
C2D C3D 1.390(11) . ?
C3D C4D 1.366(11) . ?
C3D C6D 1.431(14) . ?
C3D C56D 1.435(17) . ?
C4D C5D 1.331(11) . ?
N2D C6D 1.3900 . ?
N2D C8D 1.3900 . ?
C6D N3D 1.3900 . ?
N3D C7D 1.3900 . ?
C7D N4D 1.3900 . ?
C7D C9D 1.56(3) . ?
N4D C8D 1.3900 . ?
C8D C12D 1.445(14) . ?
N52D C56D 1.3900 . ?
N52D C58D 1.3900 . ?
C56D N53D 1.3900 . ?
N53D C57D 1.3900 . ?
C57D N54D 1.3900 . ?
C57D C59D 1.45(4) . ?
N54D C58D 1.3900 . ?
C58D C12D 1.416(17) . ?
N5D C14D 1.322(11) . ?
N5D C10D 1.376(11) . ?
N5D Pd2 1.914(8) . ?
C10D C11D 1.385(11) . ?
C11D C12D 1.371(11) . ?
C12D C13D 1.420(12) . ?
C13D C14D 1.370(13) . ?
N1E C5E 1.304(9) . ?
N1E C1E 1.338(9) . ?
N1E Pd1 1.993(6) . ?
C1E C2E 1.369(11) . ?
C2E C3E 1.390(11) . ?
C3E C4E 1.326(10) . ?
C3E C6E 1.418(17) . ?
C3E C56E 1.435(11) . ?
C4E C5E 1.453(11) . ?
N2E C6E 1.3900 . ?
N2E C8E 1.3900 . ?
C6E N3E 1.3900 . ?
N3E C7E 1.3900 . ?
C7E N4E 1.3900 . ?
C7E C9E 1.42(4) . ?
N4E C8E 1.3900 . ?
C8E C12E 1.527(17) . ?
N52E C56E 1.3900 . ?
N52E C58E 1.3900 . ?
C56E N53E 1.3900 . ?
N53E C57E 1.3900 . ?
C57E N54E 1.3900 . ?
C57E C59E 1.491(19) . ?
N54E C58E 1.3900 . ?
C58E C12E 1.402(10) . ?
N5E C14E 1.320(10) . ?
N5E C10E 1.322(10) . ?
N5E Pd3 1.998(6) . ?
C10E C11E 1.377(11) . ?
C11E C12E 1.330(11) . ?
C12E C13E 1.399(11) . ?
C13E C14E 1.360(11) . ?
N1F C1F 1.359(9) . ?
N1F C5F 1.375(8) . ?
N1F Pd2 2.020(6) . ?
C1F C2F 1.368(9) . ?
C2F C3F 1.336(9) . ?
C3F C4F 1.393(9) . ?
C3F C6F 1.499(9) . ?
C4F C5F 1.334(9) . ?
N2F C6F 1.292(8) . ?
N2F C8F 1.333(8) . ?
C6F N3F 1.330(8) . ?
N3F C7F 1.366(9) . ?
C7F N4F 1.329(9) . ?
C7F C9F 1.502(10) . ?
N4F C8F 1.327(8) . ?
C8F C12F 1.492(10) . ?
N5F C10F 1.302(8) . ?
N5F C14F 1.342(8) . ?
N5F Pd1 2.019(6) . ?
C10F C11F 1.436(11) . ?
C11F C12F 1.380(10) . ?
C12F C13F 1.381(9) . ?
C13F C14F 1.386(9) . ?
N1G C5G 1.323(10) . ?
N1G C1G 1.366(9) . ?
N1G Pd2 1.992(6) . ?
C1G C2G 1.330(10) . ?
C2G C3G 1.326(11) . ?
C3G C4G 1.334(11) . ?
C3G C6G 1.426(11) . ?
C3G C56G 1.487(17) . ?
C4G C5G 1.390(11) . ?
N2G C6G 1.3900 . ?
N2G C8G 1.3900 . ?
C6G N3G 1.3900 . ?
N3G C7G 1.3900 . ?
C7G N4G 1.3900 . ?
C7G C9G 1.505(17) . ?
N4G C8G 1.3900 . ?
C8G C12G 1.397(10) . ?
N52G C56G 1.3900 . ?
N52G C58G 1.3900 . ?
C56G N53G 1.3900 . ?
N53G C57G 1.3900 . ?
C57G N54G 1.3900 . ?
C57G C59G 1.50(2) . ?
N54G C58G 1.3900 . ?
C58G C12G 1.432(17) . ?
N5G C10G 1.358(9) . ?
N5G C14G 1.364(9) . ?
N5G Pd6 1.998(6) . ?
C10G C11G 1.368(11) . ?
C11G C12G 1.344(11) . ?
C12G C13G 1.349(10) . ?
C13G C14G 1.345(10) . ?
N1H C5H 1.323(11) . ?
N1H C1H 1.364(11) . ?
N1H Pd4 1.913(8) 2_576 ?
C1H C2H 1.372(11) . ?
C2H C3H 1.379(11) . ?
C3H C4H 1.328(12) . ?
C3H C56H 1.428(16) . ?
C3H C6H 1.448(14) . ?
C4H C5H 1.366(13) . ?
N2H C6H 1.3900 . ?
N2H C8H 1.3900 . ?
C6H N3H 1.3900 . ?
N3H C7H 1.3900 . ?
C7H N4H 1.3900 . ?
C7H C9H 1.49(3) . ?
N4H C8H 1.3900 . ?
C8H C12H 1.463(14) . ?
N52H C56H 1.3900 . ?
N52H C58H 1.3900 . ?
C56H N53H 1.3900 . ?
N53H C57H 1.3900 . ?
C57H N54H 1.3900 . ?
C57H C59H 1.53(3) . ?
N54H C58H 1.3900 . ?
C58H C12H 1.457(16) . ?
N5H C10H 1.343(9) . ?
N5H C14H 1.392(10) . ?
N5H Pd2 2.023(6) . ?
C10H C11H 1.346(11) . ?
C11H C12H 1.407(11) . ?
C12H C13H 1.331(11) . ?
C13H C14H 1.370(12) . ?
N1I C1I 1.327(9) . ?
N1I C5I 1.345(8) . ?
N1I Pd6 2.004(6) . ?
C1I C2I 1.419(11) . ?
C2I C3I 1.393(10) . ?
C3I C4I 1.376(9) . ?
C3I C6I 1.471(10) . ?
C4I C5I 1.350(9) . ?
N2I C8I 1.292(8) . ?
N2I C6I 1.338(8) . ?
C6I N3I 1.335(8) . ?
N3I C7I 1.337(9) . ?
C7I N4I 1.342(9) . ?
C7I C9I 1.492(9) . ?
N4I C8I 1.336(8) . ?
C8I C12I 1.501(9) . ?
N5I C14I 1.361(8) . ?
N5I C10I 1.361(9) . ?
N5I Pd4 2.019(6) 2_576 ?
C10I C11I 1.397(10) . ?
C11I C12I 1.363(9) . ?
C12I C13I 1.385(9) . ?
C13I C14I 1.361(9) . ?
N1J C1J 1.302(9) . ?
N1J C5J 1.307(9) . ?
N1J Pd6 2.031(6) . ?
C1J C2J 1.373(11) . ?
C2J C3J 1.323(11) . ?
C3J C4J 1.330(10) . ?
C3J C6J 1.406(9) . ?
C4J C5J 1.387(11) . ?
N2J C6J 1.3900 . ?
N2J C8J 1.3900 . ?
C6J N3J 1.3900 . ?
N3J C7J 1.3900 . ?
C7J N4J 1.3900 . ?
C7J C9J 1.472(12) . ?
N4J C8J 1.3900 . ?
C8J C12J 1.424(9) . ?
N5J C14J 1.312(9) . ?
N5J C10J 1.315(9) . ?
N5J Pd5 2.023(6) . ?
C10J C11J 1.358(11) . ?
C11J C12J 1.386(11) . ?
C12J C13J 1.374(11) . ?
C13J C14J 1.372(11) . ?
N1K C5K 1.319(9) . ?
N1K C1K 1.340(9) . ?
N1K Pd1 2.017(6) 2_576 ?
C1K C2K 1.360(11) . ?
C2K C3K 1.369(11) . ?
C3K C6K 1.386(9) . ?
C3K C4K 1.416(11) . ?
C4K C5K 1.352(11) . ?
N2K C6K 1.3900 . ?
N2K C8K 1.3900 . ?
C6K N3K 1.3900 . ?
N3K C7K 1.3900 . ?
C7K N4K 1.3900 . ?
C7K C9K 1.473(12) . ?
N4K C8K 1.3900 . ?
C8K C12K 1.392(9) . ?
N5K C14K 1.318(9) . ?
N5K C10K 1.357(9) . ?
N5K Pd5 2.014(6) . ?
C10K C11K 1.342(10) . ?
C11K C12K 1.347(10) . ?
C12K C13K 1.368(11) . ?
C13K C14K 1.324(11) . ?
N1L C5L 1.298(9) . ?
N1L C1L 1.322(9) . ?
N1L Pd6 2.028(6) . ?
C1L C2L 1.360(11) . ?
C2L C3L 1.360(10) . ?
C3L C4L 1.354(11) . ?
C3L C6L 1.413(9) . ?
C4L C5L 1.379(11) . ?
N2L C6L 1.3900 . ?
N2L C8L 1.3900 . ?
C6L N3L 1.3900 . ?
N3L C7L 1.3900 . ?
C7L N4L 1.3900 . ?
C7L C9L 1.489(11) . ?
N4L C8L 1.3900 . ?
C8L C12L 1.399(9) . ?
N5L C14L 1.298(9) . ?
N5L C10L 1.332(9) . ?
N5L Pd1 2.020(6) 2_576 ?
C10L C11L 1.394(11) . ?
C11L C12L 1.305(10) . ?
C12L C13L 1.363(11) . ?
C13L C14L 1.403(11) . ?
N1M C1M 1.335(8) . ?
N1M C5M 1.336(8) . ?
N1M Pd8 2.027(5) . ?
C1M C2M 1.375(9) . ?
C2M C3M 1.357(8) . ?
C3M C4M 1.373(9) . ?
C3M C6M 1.508(9) . ?
C4M C5M 1.377(9) . ?
N2M C6M 1.292(8) . ?
N2M C8M 1.347(8) . ?
C6M N3M 1.358(8) . ?
N3M C7M 1.316(9) . ?
C7M N4M 1.325(9) . ?
C7M C9M 1.544(10) . ?
N4M C8M 1.321(8) . ?
C8M C12M 1.497(9) . ?
N5M C14M 1.328(8) . ?
N5M C10M 1.335(8) . ?
N5M Pd12 2.020(5) . ?
C10M C11M 1.345(9) . ?
C11M C12M 1.341(9) . ?
C12M C13M 1.330(9) . ?
C13M C14M 1.372(9) . ?
N1N C5N 1.330(8) . ?
N1N C1N 1.331(8) . ?
N1N Pd9 2.006(5) . ?
C1N C2N 1.291(9) . ?
C2N C3N 1.409(9) . ?
C3N C4N 1.329(9) . ?
C3N C6N 1.496(9) . ?
C4N C5N 1.418(10) . ?
N2N C6N 1.309(8) . ?
N2N C8N 1.347(8) . ?
C6N N3N 1.345(9) . ?
N3N C7N 1.323(11) . ?
C7N N4N 1.324(10) . ?
C7N C9N 1.534(11) . ?
N4N C8N 1.344(9) . ?
C8N C12N 1.448(9) . ?
N5N C14N 1.320(7) . ?
N5N C10N 1.383(8) . ?
N5N Pd8 1.998(6) . ?
C10N C11N 1.385(9) . ?
C11N C12N 1.405(9) . ?
C12N C13N 1.406(9) . ?
C13N C14N 1.353(9) . ?
N1O C5O 1.296(8) . ?
N1O C1O 1.345(8) . ?
N1O Pd8 2.021(5) . ?
C1O C2O 1.383(9) . ?
C2O C3O 1.381(9) . ?
C3O C6O 1.378(8) . ?
C3O C4O 1.382(10) . ?
C4O C5O 1.332(10) . ?
N2O C6O 1.3900 . ?
N2O C8O 1.3900 . ?
C6O N3O 1.3900 . ?
N3O C7O 1.3900 . ?
C7O N4O 1.3900 . ?
C7O C9O 1.432(11) . ?
N4O C8O 1.3900 . ?
C8O C12O 1.377(8) . ?
N5O C14O 1.316(9) . ?
N5O C10O 1.361(8) . ?
N5O Pd7 2.004(6) . ?
C10O C11O 1.381(10) . ?
C11O C12O 1.376(10) . ?
C12O C13O 1.352(10) . ?
C13O C14O 1.410(11) . ?
N1P C5P 1.313(8) . ?
N1P C1P 1.328(8) . ?
N1P Pd7 2.012(5) . ?
C1P C2P 1.357(9) . ?
C2P C3P 1.358(9) . ?
C3P C4P 1.332(9) . ?
C3P C6P 1.485(9) . ?
C4P C5P 1.411(9) . ?
N2P C8P 1.296(8) . ?
N2P C6P 1.336(8) . ?
C6P N3P 1.323(8) . ?
N3P C7P 1.347(9) . ?
C7P N4P 1.358(8) . ?
C7P C9P 1.484(10) . ?
N4P C8P 1.341(8) . ?
C8P C12P 1.521(9) . ?
N5P C14P 1.310(8) . ?
N5P C10P 1.368(8) . ?
N5P Pd9 2.029(5) . ?
C10P C11P 1.328(9) . ?
C11P C12P 1.367(9) . ?
C12P C13P 1.355(9) . ?
C13P C14P 1.394(9) . ?
N1Q C1Q 1.301(8) . ?
N1Q C5Q 1.329(8) . ?
N1Q Pd9 2.015(5) . ?
C1Q C2Q 1.408(9) . ?
C2Q C3Q 1.346(9) . ?
C3Q C4Q 1.372(10) . ?
C3Q C6Q 1.396(12) . ?
C3Q C56Q 1.471(15) . ?
C4Q C5Q 1.317(10) . ?
N2Q C6Q 1.3900 . ?
N2Q C8Q 1.3900 . ?
C6Q N3Q 1.3900 . ?
N3Q C7Q 1.3900 . ?
C7Q N4Q 1.3900 . ?
C7Q C9Q 1.56(2) . ?
N4Q C8Q 1.3900 . ?
C8Q C12Q 1.443(13) . ?
N52Q C56Q 1.3900 . ?
N52Q C58Q 1.3900 . ?
C56Q N53Q 1.3900 . ?
N53Q C57Q 1.3900 . ?
C57Q N54Q 1.3900 . ?
C57Q C59Q 1.41(2) . ?
N54Q C58Q 1.3900 . ?
C58Q C12Q 1.409(14) . ?
N5Q C10Q 1.327(8) . ?
N5Q C14Q 1.352(8) . ?
N5Q Pd11 2.008(6) . ?
C10Q C11Q 1.381(10) . ?
C11Q C12Q 1.354(9) . ?
C12Q C13Q 1.354(10) . ?
C13Q C14Q 1.371(10) . ?
N1R C5R 1.312(8) . ?
N1R C1R 1.358(8) . ?
N1R Pd10 2.007(5) . ?
C1R C2R 1.368(10) . ?
C2R C3R 1.368(9) . ?
C3R C4R 1.367(9) . ?
C3R C6R 1.467(9) . ?
C4R C5R 1.389(10) . ?
N2R C6R 1.329(9) . ?
N2R C8R 1.363(8) . ?
C6R N3R 1.335(9) . ?
N3R C7R 1.375(10) . ?
C7R N4R 1.326(10) . ?
C7R C9R 1.489(11) . ?
N4R C8R 1.350(9) . ?
C8R C12R 1.448(9) . ?
N5R C10R 1.322(7) . ?
N5R C14R 1.354(8) . ?
N5R Pd9 2.017(5) . ?
C10R C11R 1.333(9) . ?
C11R C12R 1.391(9) . ?
C12R C13R 1.400(9) . ?
C13R C14R 1.325(9) . ?
N1S C1S 1.310(8) . ?
N1S C5S 1.315(8) . ?
N1S Pd10 2.007(5) . ?
C1S C2S 1.377(9) . ?
C2S C3S 1.382(9) . ?
C3S C4S 1.340(10) . ?
C3S C56S 1.425(10) . ?
C3S C6S 1.442(16) . ?
C4S C5S 1.344(9) . ?
N2S C6S 1.3900 . ?
N2S C8S 1.3900 . ?
C6S N3S 1.3900 . ?
N3S C7S 1.3900 . ?
C7S C9S 1.34(5) . ?
C7S N4S 1.3900 . ?
N4S C8S 1.3900 . ?
C8S C12S 1.471(17) . ?
N52S C56S 1.3900 . ?
N52S C58S 1.3900 . ?
C56S N53S 1.3900 . ?
N53S C57S 1.3900 . ?
C57S N54S 1.3900 . ?
C57S C59S 1.443(16) . ?
N54S C58S 1.3900 . ?
C58S C12S 1.410(10) . ?
N5S C14S 1.334(9) . ?
N5S C10S 1.343(8) . ?
N5S Pd12 2.002(5) 2_665 ?
C10S C11S 1.372(10) . ?
C11S C12S 1.334(9) . ?
C12S C13S 1.326(9) . ?
C13S C14S 1.362(11) . ?
N1T C5T 1.299(8) . ?
N1T C1T 1.337(8) . ?
N1T Pd10 2.011(6) . ?
C1T C2T 1.378(9) . ?
C2T C3T 1.366(9) . ?
C3T C4T 1.377(9) . ?
C3T C6T 1.444(10) . ?
C4T C5T 1.412(9) . ?
N2T C8T 1.295(9) . ?
N2T C6T 1.378(9) . ?
C6T N3T 1.338(9) . ?
N3T C7T 1.363(11) . ?
C7T N4T 1.329(11) . ?
C7T C9T 1.542(13) . ?
N4T C8T 1.379(9) . ?
C8T C12T 1.471(10) . ?
N5T C14T 1.339(9) . ?
N5T C10T 1.353(8) . ?
N5T Pd8 1.983(5) 2_665 ?
C10T C11T 1.346(9) . ?
C11T C12T 1.356(10) . ?
C12T C13T 1.379(9) . ?
C13T C14T 1.437(10) . ?
N1U C5U 1.326(8) . ?
N1U C1U 1.345(8) . ?
N1U Pd10 2.012(5) . ?
C1U C2U 1.381(9) . ?
C2U C3U 1.369(9) . ?
C3U C4U 1.386(9) . ?
C3U C6U 1.499(9) . ?
C4U C5U 1.369(9) . ?
N2U C6U 1.319(9) . ?
N2U C8U 1.325(8) . ?
C6U N3U 1.341(9) . ?
N3U C7U 1.347(8) . ?
C7U N4U 1.337(9) . ?
C7U C9U 1.494(10) . ?
N4U C8U 1.341(8) . ?
C8U C12U 1.425(9) . ?
N5U C14U 1.298(8) . ?
N5U C10U 1.340(8) . ?
N5U Pd11 2.015(5) . ?
C10U C11U 1.341(9) . ?
C11U C12U 1.346(9) . ?
C12U C13U 1.333(9) . ?
C13U C14U 1.407(10) . ?
N1V C5V 1.323(9) . ?
N1V C1V 1.329(8) . ?
N1V Pd11 1.997(6) . ?
C1V C2V 1.399(10) . ?
C2V C3V 1.311(9) . ?
C3V C4V 1.377(10) . ?
C3V C56V 1.415(11) . ?
C3V C6V 1.482(16) . ?
C4V C5V 1.373(11) . ?
N2V C6V 1.3900 . ?
N2V C8V 1.3900 . ?
C6V N3V 1.3900 . ?
N3V C7V 1.3900 . ?
C7V C9V 1.38(3) . ?
C7V N4V 1.3900 . ?
N4V C8V 1.3900 . ?
C8V C12V 1.436(16) . ?
N52V C56V 1.3900 . ?
N52V C58V 1.3900 . ?
C56V N53V 1.3900 . ?
N53V C57V 1.3900 . ?
C57V N54V 1.3900 . ?
C57V C59V 1.40(2) . ?
N54V C58V 1.3900 . ?
C58V C12V 1.490(13) . ?
N5V C10V 1.314(8) . ?
N5V C14V 1.334(9) . ?
N5V Pd7 2.015(6) 2_665 ?
C10V C11V 1.347(9) . ?
C11V C12V 1.366(10) . ?
C12V C13V 1.325(10) . ?
C13V C14V 1.372(11) . ?
N1W C1W 1.310(8) . ?
N1W C5W 1.341(9) . ?
N1W Pd11 1.995(6) . ?
C1W C2W 1.353(10) . ?
C2W C3W 1.369(10) . ?
C3W C4W 1.307(10) . ?
C3W C56W 1.406(9) . ?
C3W C6W 1.503(18) . ?
C4W C5W 1.359(11) . ?
N2W C6W 1.3900 . ?
N2W C8W 1.3900 . ?
C6W N3W 1.3900 . ?
N3W C7W 1.3900 . ?
C7W N4W 1.3900 . ?
C7W C9W 1.51(2) . ?
N4W C8W 1.3900 . ?
C8W C12W 1.458(18) . ?
N52W C56W 1.3900 . ?
N52W C58W 1.3900 . ?
C56W N53W 1.3900 . ?
N53W C57W 1.3900 . ?
C57W N54W 1.3900 . ?
C57W C59W 1.460(12) . ?
N54W C58W 1.3900 . ?
C58W C12W 1.385(9) . ?
N5W C14W 1.326(8) . ?
N5W C10W 1.359(8) . ?
N5W Pd12 2.015(5) . ?
C10W C11W 1.332(10) . ?
C11W C12W 1.377(9) . ?
C12W C13W 1.408(10) . ?
C13W C14W 1.361(10) . ?
N1X C5X 1.274(10) . ?
N1X C1X 1.347(8) . ?
N1X Pd12 2.009(6) . ?
C1X C2X 1.358(10) . ?
C2X C3X 1.350(10) . ?
C3X C4X 1.346(10) . ?
C3X C6X 1.417(13) . ?
C3X C56X 1.465(16) . ?
C4X C5X 1.398(11) . ?
N2X C6X 1.3900 . ?
N2X C8X 1.3900 . ?
C6X N3X 1.3900 . ?
N3X C7X 1.3900 . ?
C7X N4X 1.3900 . ?
C7X C9X 1.51(2) . ?
N4X C8X 1.3900 . ?
C8X C12X 1.424(12) . ?
N52X C56X 1.3900 . ?
N52X C58X 1.3900 . ?
C56X N53X 1.3900 . ?
N53X C57X 1.3900 . ?
C57X N54X 1.3900 . ?
C57X C59X 1.41(3) . ?
N54X C58X 1.3900 . ?
C58X C12X 1.461(14) . ?
N5X C10X 1.318(8) . ?
N5X C14X 1.340(9) . ?
N5X Pd7 2.024(6) 2_665 ?
C10X C11X 1.382(10) . ?
C11X C12X 1.341(10) . ?
C12X C13X 1.363(10) . ?
C13X C14X 1.355(10) . ?
Pd1 N1K 2.017(6) 2_576 ?
Pd1 N5L 2.020(6) 2_576 ?
Pd4 N1H 1.913(8) 2_576 ?
Pd4 N5I 2.019(6) 2_576 ?
Pd7 N5V 2.015(6) 2_665 ?
Pd7 N5X 2.023(6) 2_665 ?
Pd8 N5T 1.983(5) 2_665 ?
Pd12 N5S 2.002(5) 2_665 ?
B11 F18 1.358(18) . ?
B11 F17 1.361(17) . ?
B11 F13 1.367(18) . ?
B11 F16 1.371(18) . ?
B11 F12 1.377(18) . ?
B11 F14 1.400(18) . ?
B11 F11 1.437(8) . ?
B21 F23 1.325(18) . ?
B21 F25 1.341(18) . ?
B21 F26 1.340(17) . ?
B21 F21 1.354(18) . ?
B21 F24 1.400(16) . ?
B21 F27 1.440(18) . ?
B21 F22 1.495(17) . ?
B21 F28 1.486(17) . ?
B31 F35 1.327(17) . ?
B31 F32 1.334(18) . ?
B31 F34 1.376(18) . ?
B31 F36 1.384(18) . ?
B31 F33 1.386(18) . ?
B31 F38 1.402(18) . ?
B31 F37 1.429(18) . ?
B31 F31 1.462(11) . ?
B41 F43 1.311(16) . ?
B41 F41 1.368(16) . ?
B41 F42 1.397(19) . ?
B41 F44 1.414(18) . ?
B51 F53 1.339(18) . ?
B51 F58 1.363(18) . ?
B51 F55 1.391(17) . ?
B51 F56 1.394(18) . ?
B51 F57 1.396(18) . ?
B51 F52 1.406(18) . ?
B51 F54 1.424(18) . ?
B51 F51 1.473(10) . ?
B61 F62 1.285(16) . ?
B61 F61 1.355(15) . ?
B61 F64 1.393(17) . ?
B61 F63 1.405(19) . ?
B71 F73 1.349(18) . ?
B71 F77 1.352(18) . ?
B71 F72 1.362(18) . ?
B71 F76 1.365(18) . ?
B71 F78 1.382(18) . ?
B71 F71 1.410(8) . ?
B71 F74 1.416(18) . ?
B81 F83 1.321(17) . ?
B81 F82 1.342(16) . ?
B81 F86 1.353(17) . ?
B81 F85 1.357(17) . ?
B81 F88 1.397(17) . ?
B81 F84 1.402(17) . ?
B81 F87 1.431(16) . ?
B81 F81 1.473(17) . ?
B91 F95 1.275(17) . ?
B91 F91 1.295(17) . ?
B91 F98 1.372(16) . ?
B91 F92 1.406(17) . ?
B91 F96 1.417(17) . ?
B91 F93 1.431(16) . ?
B91 F94 1.429(17) . ?
B91 F97 1.444(16) . ?
F91 F92 1.67(3) . ?
F93 O71 1.67(10) . ?
F95 F96 1.66(3) . ?
B101 F101 1.279(17) . ?
B101 F102 1.343(17) . ?
B101 F107 1.354(18) . ?
B101 F106 1.358(16) . ?
B101 F105 1.371(16) . ?
B101 F103 1.422(17) . ?
B101 F108 1.507(17) . ?
B101 F104 1.514(18) . ?
B111 F116 1.212(17) . ?
B111 F112 1.271(17) . ?
B111 F117 1.381(16) . ?
B111 F115 1.425(17) . ?
B111 F113 1.429(16) . ?
B111 F111 1.434(17) . ?
B111 F114 1.447(17) . ?
B111 F118 1.458(17) . ?
F111 F112 1.69(3) . ?
F115 F116 1.67(3) . ?
B121 F128 1.283(17) . ?
B121 F121 1.322(17) . ?
B121 F122 1.332(15) . ?
B121 F125 1.339(17) . ?
B121 F127 1.347(17) . ?
B121 F123 1.396(18) . ?
B121 F124 1.426(17) . ?
B121 F126 1.464(18) . ?
B131 F13D 1.187(17) . ?
B131 F138 1.305(17) . ?
B131 F13A 1.372(16) . ?
B131 F131 1.384(17) . ?
B131 F134 1.388(18) . ?
B131 F132 1.389(15) . ?
B131 F136 1.413(16) . ?
B131 F13C 1.415(16) . ?
B131 F135 1.425(17) . ?
B131 F133 1.442(16) . ?
B131 F137 1.479(16) . ?
B131 F13B 1.510(17) . ?
F131 F134 1.70(3) . ?
F135 F138 1.68(3) . ?
B141 F145 1.336(17) . ?
B141 F144 1.348(17) . ?
B141 F146 1.375(18) . ?
B141 F142 1.386(18) . ?
B141 F147 1.385(18) . ?
B141 F143 1.389(18) . ?
B141 F148 1.428(18) . ?
B141 F141 1.496(10) . ?
B151 F15G 1.292(17) . ?
B151 F157 1.309(17) . ?
B151 F153 1.346(18) . ?
B151 F15C 1.378(18) . ?
B151 F151 1.394(17) . ?
B151 F15B 1.408(16) . ?
B151 F154 1.424(17) . ?
B151 F156 1.421(16) . ?
B151 F155 1.424(17) . ?
B151 F15A 1.431(17) . ?
B151 F15F 1.443(16) . ?
B151 F15H 1.447(16) . ?
F151 F153 1.77(4) . ?
F155 F157 1.68(3) . ?
B161 F168 1.339(18) . ?
B161 F165 1.352(17) . ?
B161 F162 1.374(18) . ?
B161 F163 1.389(18) . ?
B161 F164 1.408(18) . ?
B161 F166 1.424(18) . ?
B161 F167 1.446(18) . ?
B161 F161 1.470(11) . ?
B171 F175 1.327(16) . ?
B171 F174 1.327(18) . ?
B171 F173 1.340(18) . ?
B171 F176 1.371(17) . ?
B171 F177 1.373(18) . ?
B171 F172 1.385(18) . ?
B171 F178 1.392(18) . ?
B171 F171 1.508(10) . ?
B181 F182 1.346(18) . ?
B181 F187 1.362(18) . ?
B181 F185 1.395(17) . ?
B181 F188 1.396(18) . ?
B181 F184 1.409(18) . ?
B181 F183 1.423(18) . ?
B181 F186 1.435(18) . ?
B181 F181 1.451(13) . ?
B191 F191 1.321(17) . ?
B191 F197 1.339(18) . ?
B191 F196 1.354(18) . ?
B191 F192 1.369(18) . ?
B191 F193 1.394(18) . ?
B191 F194 1.410(18) . ?
B191 F198 1.421(18) . ?
B191 F195 1.475(10) . ?
B201 F207 1.336(18) . ?
B201 F201 1.390(14) . ?
B201 F202 1.396(17) . ?
B201 F208 1.396(18) . ?
B201 F204 1.416(18) . ?
B201 F203 1.418(18) . ?
B201 F205 1.448(17) . ?
B201 F206 1.460(18) . ?
B211 F214 1.252(17) . ?
B211 F215 1.300(17) . ?
B211 F211 1.388(15) . ?
B211 F218 1.388(16) . ?
B211 F217 1.403(15) . ?
B211 F212 1.409(16) . ?
B211 F213 1.451(15) . ?
B211 F216 1.463(16) . ?
F212 F214 1.55(3) . ?
F215 F218 1.68(3) . ?
B221 F223 1.358(18) . ?
B221 F227 1.363(18) . ?
B221 F228 1.366(18) . ?
B221 F221 1.372(17) . ?
B221 F226 1.412(18) . ?
B221 F222 1.414(18) . ?
B221 F224 1.419(18) . ?
B221 F225 1.470(10) . ?
B231 F232 1.350(18) . ?
B231 F231 1.351(17) . ?
B231 F237 1.367(18) . ?
B231 F236 1.369(17) . ?
B231 F238 1.381(18) . ?
B231 F233 1.409(18) . ?
B231 F234 1.446(18) . ?
B231 F235 1.528(9) . ?
B241 F245 1.191(16) . ?
B241 F243 1.351(18) . ?
B241 F24A 1.357(17) . ?
B241 F248 1.366(15) . ?
B241 F24B 1.386(17) . ?
B241 F244 1.407(17) . ?
B241 F241 1.434(16) . ?
B241 F247 1.464(16) . ?
B241 F24C 1.476(17) . ?
B241 F242 1.483(17) . ?
B241 F24D 1.505(17) . ?
B241 F246 1.511(17) . ?
F243 F244 1.68(3) . ?
O1 O59 1.49(3) . ?
O6 O70 1.49(7) . ?
O13 O72 1.45(8) . ?
O13 O32 1.82(4) . ?
O16 O67 1.51(4) . ?
O22 O72 1.17(8) . ?
O31 O68 1.71(8) . ?
O33 O62 1.43(4) . ?
O57 O70 1.74(7) 2_666 ?
O70 O57 1.74(7) 2_666 ?

loop_
_geom_angle_atom_site_label_1
_geom_angle_atom_site_label_2
_geom_angle_atom_site_label_3
_geom_angle
_geom_angle_site_symmetry_1
_geom_angle_site_symmetry_3
_geom_angle_publ_flag
C1A N1A C5A 117.2(7) . . ?
C1A N1A Pd4 120.3(6) . . ?
C5A N1A Pd4 122.4(6) . . ?
N1A C1A C2A 124.6(8) . . ?
C3A C2A C1A 116.1(9) . . ?
C2A C3A C56A 119.8(10) . . ?
C2A C3A C4A 119.4(9) . . ?
C56A C3A C4A 120.5(10) . . ?
C2A C3A C6A 127.4(18) . . ?
C56A C3A C6A 12(2) . . ?
C4A C3A C6A 113.1(16) . . ?
C5A C4A C3A 118.6(8) . . ?
C4A C5A N1A 123.7(8) . . ?
C6A N2A C8A 120.0 . . ?
N2A C6A N3A 120.0 . . ?
N2A C6A C3A 104(3) . . ?
N3A C6A C3A 134(3) . . ?
C7A N3A C6A 120.0 . . ?
N3A C7A N4A 120.0 . . ?
N3A C7A C9A 117(3) . . ?
N4A C7A C9A 123(3) . . ?
C8A N4A C7A 120.0 . . ?
N4A C8A N2A 120.0 . . ?
N4A C8A C12A 106(3) . . ?
N2A C8A C12A 134(3) . . ?
C56A N52A C58A 120.0 . . ?
N53A C56A N52A 120.0 . . ?
N53A C56A C3A 117.9(10) . . ?
N52A C56A C3A 122.0(10) . . ?
C56A N53A C57A 120.0 . . ?
N53A C57A N54A 120.0 . . ?
N53A C57A C59A 121.7(11) . . ?
N54A C57A C59A 118.3(11) . . ?
C57A N54A C58A 120.0 . . ?
N54A C58A N52A 120.0 . . ?
N54A C58A C12A 124.6(10) . . ?
N52A C58A C12A 115.1(10) . . ?
C14A N5A C10A 116.4(9) . . ?
C14A N5A Pd3 121.9(6) . . ?
C10A N5A Pd3 121.7(6) . . ?
N5A C10A C11A 125.6(8) . . ?
C12A C11A C10A 116.7(8) . . ?
C13A C12A C11A 118.0(9) . . ?
C13A C12A C58A 118.3(10) . . ?
C11A C12A C58A 123.4(11) . . ?
C13A C12A C8A 130.5(18) . . ?
C11A C12A C8A 111.5(17) . . ?
C58A C12A C8A 15(2) . . ?
C12A C13A C14A 119.1(9) . . ?
N5A C14A C13A 124.0(9) . . ?
C5B N1B C1B 117.2(7) . . ?
C5B N1B Pd5 123.1(6) . . ?
C1B N1B Pd5 119.6(6) . . ?
N1B C1B C2B 120.2(8) . . ?
C3B C2B C1B 119.0(8) . . ?
C4B C3B C2B 119.2(8) . . ?
C4B C3B C6B 117.5(10) . . ?
C2B C3B C6B 123.2(10) . . ?
C4B C3B C56B 130.1(14) . . ?
C2B C3B C56B 110.5(13) . . ?
C6B C3B C56B 15.3(16) . . ?
C3B C4B C5B 121.9(8) . . ?
N1B C5B C4B 122.2(7) . . ?
C6B N2B C8B 120.0 . . ?
N3B C6B N2B 120.0 . . ?
N3B C6B C3B 128.1(11) . . ?
N2B C6B C3B 111.9(12) . . ?
C6B N3B C7B 120.0 . . ?
N3B C7B N4B 120.0 . . ?
N3B C7B C9B 112.6(13) . . ?
N4B C7B C9B 127.0(13) . . ?
C8B N4B C7B 120.0 . . ?
N4B C8B N2B 120.0 . . ?
N4B C8B C12B 113.6(11) . . ?
N2B C8B C12B 126.2(11) . . ?
C56B N52B C58B 120.0 . . ?
N53B C56B N52B 120.0 . . ?
N53B C56B C3B 108(2) . . ?
N52B C56B C3B 132(2) . . ?
C56B N53B C57B 120.0 . . ?
N53B C57B N54B 120.0 . . ?
N53B C57B C59B 138(3) . . ?
N54B C57B C59B 102(3) . . ?
C58B N54B C57B 120.0 . . ?
N54B C58B N52B 120.0 . . ?
N54B C58B C12B 134(2) . . ?
N52B C58B C12B 106(2) . . ?
C14B N5B C10B 117.5(7) . . ?
C14B N5B Pd4 122.1(6) . . ?
C10B N5B Pd4 120.4(6) . . ?
N5B C10B C11B 119.4(9) . . ?
C12B C11B C10B 120.8(8) . . ?
C11B C12B C13B 120.7(8) . . ?
C11B C12B C58B 120.8(14) . . ?
C13B C12B C58B 115.6(14) . . ?
C11B C12B C8B 116.8(10) . . ?
C13B C12B C8B 122.4(10) . . ?
C58B C12B C8B 21.0(17) . . ?
C12B C13B C14B 116.0(9) . . ?
N5B C14B C13B 125.5(8) . . ?
C1C N1C C5C 119.9(7) . . ?
C1C N1C Pd5 118.4(6) . . ?
C5C N1C Pd5 121.6(5) . . ?
N1C C1C C2C 121.2(7) . . ?
C3C C2C C1C 117.3(8) . . ?
C2C C3C C4C 118.7(7) . . ?
C2C C3C C6C 120.8(8) . . ?
C4C C3C C6C 120.5(7) . . ?
C5C C4C C3C 119.0(7) . . ?
N1C C5C C4C 123.8(7) . . ?
C8C N2C C6C 115.8(6) . . ?
N3C C6C N2C 121.6(7) . . ?
N3C C6C C3C 120.0(7) . . ?
N2C C6C C3C 118.5(7) . . ?
C7C N3C C6C 115.9(7) . . ?
N4C C7C N3C 125.8(7) . . ?
N4C C7C C9C 117.4(8) . . ?
N3C C7C C9C 116.5(8) . . ?
C7C N4C C8C 114.4(7) . . ?
N2C C8C N4C 126.4(7) . . ?
N2C C8C C12C 116.5(7) . . ?
N4C C8C C12C 116.9(7) . . ?
C14C N5C C10C 116.8(6) . . ?
C14C N5C Pd3 121.6(5) . . ?
C10C N5C Pd3 120.9(5) . . ?
C11C C10C N5C 123.3(7) . . ?
C10C C11C C12C 119.7(7) . . ?
C11C C12C C13C 117.6(7) . . ?
C11C C12C C8C 121.1(7) . . ?
C13C C12C C8C 121.3(7) . . ?
C14C C13C C12C 120.5(7) . . ?
N5C C14C C13C 121.9(7) . . ?
C5D N1D C1D 115.9(7) . . ?
C5D N1D Pd3 123.0(6) . . ?
C1D N1D Pd3 121.1(6) . . ?
C2D C1D N1D 122.9(9) . . ?
C1D C2D C3D 117.0(9) . . ?
C4D C3D C2D 121.4(9) . . ?
C4D C3D C6D 120.1(12) . . ?
C2D C3D C6D 116.1(11) . . ?
C4D C3D C56D 120.9(15) . . ?
C2D C3D C56D 117.2(16) . . ?
C6D C3D C56D 22(2) . . ?
C5D C4D C3D 119.8(9) . . ?
C4D C5D N1D 122.8(8) . . ?
C6D N2D C8D 120.0 . . ?
N2D C6D N3D 120.0 . . ?
N2D C6D C3D 122.7(13) . . ?
N3D C6D C3D 116.4(13) . . ?
C7D N3D C6D 120.0 . . ?
N4D C7D N3D 120.0 . . ?
N4D C7D C9D 119.0(16) . . ?
N3D C7D C9D 121.0(16) . . ?
C7D N4D C8D 120.0 . . ?
N4D C8D N2D 120.0 . . ?
N4D C8D C12D 126.8(12) . . ?
N2D C8D C12D 113.1(12) . . ?
C56D N52D C58D 120.0 . . ?
N52D C56D N53D 120.0 . . ?
N52D C56D C3D 115(2) . . ?
N53D C56D C3D 124(2) . . ?
C57D N53D C56D 120.0 . . ?
N53D C57D N54D 120.0 . . ?
N53D C57D C59D 114(2) . . ?
N54D C57D C59D 126(3) . . ?
C58D N54D C57D 120.0 . . ?
N54D C58D N52D 120.0 . . ?
N54D C58D C12D 115(2) . . ?
N52D C58D C12D 123(2) . . ?
C14D N5D C10D 114.0(9) . . ?
C14D N5D Pd2 124.3(7) . . ?
C10D N5D Pd2 121.7(6) . . ?
N5D C10D C11D 126.0(9) . . ?
C12D C11D C10D 117.9(9) . . ?
C11D C12D C58D 116.5(16) . . ?
C11D C12D C13D 117.3(9) . . ?
C58D C12D C13D 125.3(16) . . ?
C11D C12D C8D 125.2(11) . . ?
C58D C12D C8D 21(2) . . ?
C13D C12D C8D 116.3(11) . . ?
C14D C13D C12D 119.6(9) . . ?
N5D C14D C13D 125.1(9) . . ?
C5E N1E C1E 118.5(7) . . ?
C5E N1E Pd1 121.3(6) . . ?
C1E N1E Pd1 120.2(6) . . ?
N1E C1E C2E 122.3(8) . . ?
C1E C2E C3E 119.2(8) . . ?
C4E C3E C2E 120.1(8) . . ?
C4E C3E C6E 114.8(14) . . ?
C2E C3E C6E 122.5(15) . . ?
C4E C3E C56E 122.4(9) . . ?
C2E C3E C56E 117.2(9) . . ?
C6E C3E C56E 22.4(17) . . ?
C3E C4E C5E 117.3(8) . . ?
N1E C5E C4E 122.5(7) . . ?
C6E N2E C8E 120.0 . . ?
N3E C6E N2E 120.0 . . ?
N3E C6E C3E 138(2) . . ?
N2E C6E C3E 101(2) . . ?
C6E N3E C7E 120.0 . . ?
N3E C7E N4E 120.0 . . ?
N3E C7E C9E 108(3) . . ?
N4E C7E C9E 132(3) . . ?
C8E N4E C7E 120.0 . . ?
N4E C8E N2E 120.0 . . ?
N4E C8E C12E 105(2) . . ?
N2E C8E C12E 132(2) . . ?
C56E N52E C58E 120.0 . . ?
N52E C56E N53E 120.0 . . ?
N52E C56E C3E 124.8(9) . . ?
N53E C56E C3E 115.1(9) . . ?
C57E N53E C56E 120.0 . . ?
N54E C57E N53E 120.0 . . ?
N54E C57E C59E 113.4(13) . . ?
N53E C57E C59E 126.2(13) . . ?
C57E N54E C58E 120.0 . . ?
N54E C58E N52E 120.0 . . ?
N54E C58E C12E 126.9(10) . . ?
N52E C58E C12E 113.1(10) . . ?
C14E N5E C10E 117.4(7) . . ?
C14E N5E Pd3 120.9(6) . . ?
C10E N5E Pd3 121.7(6) . . ?
N5E C10E C11E 122.3(8) . . ?
C12E C11E C10E 120.4(8) . . ?
C11E C12E C13E 117.6(8) . . ?
C11E C12E C58E 126.2(10) . . ?
C13E C12E C58E 116.2(10) . . ?
C11E C12E C8E 116.3(15) . . ?
C13E C12E C8E 126.0(16) . . ?
C58E C12E C8E 10.5(17) . . ?
C14E C13E C12E 118.6(9) . . ?
N5E C14E C13E 123.4(9) . . ?
C1F N1F C5F 116.9(6) . . ?
C1F N1F Pd2 120.5(5) . . ?
C5F N1F Pd2 122.5(5) . . ?
N1F C1F C2F 121.8(7) . . ?
C3F C2F C1F 120.1(7) . . ?
C2F C3F C4F 119.3(7) . . ?
C2F C3F C6F 120.9(7) . . ?
C4F C3F C6F 119.8(7) . . ?
C5F C4F C3F 119.4(7) . . ?
C4F C5F N1F 122.4(7) . . ?
C6F N2F C8F 116.6(6) . . ?
N2F C6F N3F 125.6(7) . . ?
N2F C6F C3F 117.9(7) . . ?
N3F C6F C3F 116.4(7) . . ?
C6F N3F C7F 114.2(6) . . ?
N4F C7F N3F 124.0(7) . . ?
N4F C7F C9F 119.5(8) . . ?
N3F C7F C9F 116.3(8) . . ?
C8F N4F C7F 115.5(6) . . ?
N4F C8F N2F 124.2(7) . . ?
N4F C8F C12F 116.5(7) . . ?
N2F C8F C12F 119.3(7) . . ?
C10F N5F C14F 120.6(6) . . ?
C10F N5F Pd1 119.3(5) . . ?
C14F N5F Pd1 119.9(5) . . ?
N5F C10F C11F 120.2(7) . . ?
C12F C11F C10F 118.6(7) . . ?
C13F C12F C11F 119.0(7) . . ?
C13F C12F C8F 121.3(7) . . ?
C11F C12F C8F 119.6(8) . . ?
C12F C13F C14F 118.5(7) . . ?
N5F C14F C13F 122.3(6) . . ?
C5G N1G C1G 116.6(7) . . ?
C5G N1G Pd2 122.0(6) . . ?
C1G N1G Pd2 121.4(6) . . ?
C2G C1G N1G 119.9(8) . . ?
C3G C2G C1G 124.1(9) . . ?
C2G C3G C4G 117.2(8) . . ?
C2G C3G C6G 120.3(9) . . ?
C4G C3G C6G 122.0(10) . . ?
C2G C3G C56G 128.7(14) . . ?
C4G C3G C56G 113.5(14) . . ?
C6G C3G C56G 16.1(17) . . ?
C3G C4G C5G 119.3(9) . . ?
N1G C5G C4G 122.7(8) . . ?
C6G N2G C8G 120.0 . . ?
N2G C6G N3G 120.0 . . ?
N2G C6G C3G 124.4(10) . . ?
N3G C6G C3G 115.4(10) . . ?
C6G N3G C7G 120.0 . . ?
N4G C7G N3G 120.0 . . ?
N4G C7G C9G 117.5(10) . . ?
N3G C7G C9G 122.5(10) . . ?
C7G N4G C8G 120.0 . . ?
N4G C8G N2G 120.0 . . ?
N4G C8G C12G 125.2(9) . . ?
N2G C8G C12G 114.8(9) . . ?
C56G N52G C58G 120.0 . . ?
N52G C56G N53G 120.0 . . ?
N52G C56G C3G 105(2) . . ?
N53G C56G C3G 134(2) . . ?
C57G N53G C56G 120.0 . . ?
N53G C57G N54G 120.0 . . ?
N53G C57G C59G 103(2) . . ?
N54G C57G C59G 137(2) . . ?
C57G N54G C58G 120.0 . . ?
N54G C58G N52G 120.0 . . ?
N54G C58G C12G 109(2) . . ?
N52G C58G C12G 131(2) . . ?
C10G N5G C14G 115.6(7) . . ?
C10G N5G Pd6 122.1(6) . . ?
C14G N5G Pd6 122.3(6) . . ?
N5G C10G C11G 123.3(8) . . ?
C12G C11G C10G 118.2(8) . . ?
C11G C12G C13G 120.6(8) . . ?
C11G C12G C8G 121.3(9) . . ?
C13G C12G C8G 118.0(9) . . ?
C11G C12G C58G 109.5(13) . . ?
C13G C12G C58G 128.9(14) . . ?
C8G C12G C58G 17.2(16) . . ?
C14G C13G C12G 119.6(8) . . ?
C13G C14G N5G 122.7(7) . . ?
C5H N1H C1H 111.2(8) . . ?
C5H N1H Pd4 124.0(6) . 2_576 ?
C1H N1H Pd4 124.8(6) . 2_576 ?
N1H C1H C2H 127.5(9) . . ?
C1H C2H C3H 117.0(9) . . ?
C4H C3H C2H 117.0(9) . . ?
C4H C3H C56H 121.6(14) . . ?
C2H C3H C56H 118.7(14) . . ?
C4H C3H C6H 126.8(12) . . ?
C2H C3H C6H 115.5(11) . . ?
C56H C3H C6H 24.5(17) . . ?
C3H C4H C5H 122.1(10) . . ?
N1H C5H C4H 125.1(9) . . ?
C6H N2H C8H 120.0 . . ?
N3H C6H N2H 120.0 . . ?
N3H C6H C3H 113.3(14) . . ?
N2H C6H C3H 125.5(13) . . ?
C7H N3H C6H 120.0 . . ?
N3H C7H N4H 120.0 . . ?
N3H C7H C9H 127.4(18) . . ?
N4H C7H C9H 112.5(18) . . ?
C8H N4H C7H 120.0 . . ?
N4H C8H N2H 120.0 . . ?
N4H C8H C12H 128.8(15) . . ?
N2H C8H C12H 110.7(15) . . ?
C56H N52H C58H 120.0 . . ?
N53H C56H N52H 120.0 . . ?
N53H C56H C3H 127.7(18) . . ?
N52H C56H C3H 108.9(19) . . ?
C56H N53H C57H 120.0 . . ?
N53H C57H N54H 120.0 . . ?
N53H C57H C59H 109(2) . . ?
N54H C57H C59H 131(2) . . ?
C58H N54H C57H 120.0 . . ?
N54H C58H N52H 120.0 . . ?
N54H C58H C12H 104.3(19) . . ?
N52H C58H C12H 130(2) . . ?
C10H N5H C14H 116.9(7) . . ?
C10H N5H Pd2 121.9(7) . . ?
C14H N5H Pd2 121.2(6) . . ?
N5H C10H C11H 124.4(9) . . ?
C10H C11H C12H 117.2(8) . . ?
C13H C12H C11H 120.5(9) . . ?
C13H C12H C58H 127.6(15) . . ?
C11H C12H C58H 111.6(14) . . ?
C13H C12H C8H 115.3(12) . . ?
C11H C12H C8H 124.2(12) . . ?
C58H C12H C8H 13.5(17) . . ?
C12H C13H C14H 120.2(9) . . ?
C13H C14H N5H 120.7(8) . . ?
C1I N1I C5I 117.3(6) . . ?
C1I N1I Pd6 119.8(5) . . ?
C5I N1I Pd6 122.8(5) . . ?
N1I C1I C2I 121.6(7) . . ?
C3I C2I C1I 119.2(7) . . ?
C4I C3I C2I 117.8(7) . . ?
C4I C3I C6I 122.5(7) . . ?
C2I C3I C6I 119.7(7) . . ?
C5I C4I C3I 119.2(7) . . ?
N1I C5I C4I 124.9(7) . . ?
C8I N2I C6I 115.6(6) . . ?
N3I C6I N2I 123.6(7) . . ?
N3I C6I C3I 116.6(7) . . ?
N2I C6I C3I 119.7(7) . . ?
C6I N3I C7I 116.0(7) . . ?
N3I C7I N4I 124.0(7) . . ?
N3I C7I C9I 118.7(8) . . ?
N4I C7I C9I 117.2(8) . . ?
C8I N4I C7I 114.0(6) . . ?
N2I C8I N4I 126.9(7) . . ?
N2I C8I C12I 117.2(7) . . ?
N4I C8I C12I 115.9(7) . . ?
C14I N5I C10I 118.3(6) . . ?
C14I N5I Pd4 121.0(5) . 2_576 ?
C10I N5I Pd4 120.4(5) . 2_576 ?
N5I C10I C11I 122.1(7) . . ?
C12I C11I C10I 118.9(7) . . ?
C11I C12I C13I 118.5(7) . . ?
C11I C12I C8I 119.6(7) . . ?
C13I C12I C8I 121.8(7) . . ?
C14I C13I C12I 121.5(6) . . ?
C13I C14I N5I 120.6(7) . . ?
C1J N1J C5J 117.1(7) . . ?
C1J N1J Pd6 120.5(6) . . ?
C5J N1J Pd6 122.3(6) . . ?
N1J C1J C2J 121.8(8) . . ?
C3J C2J C1J 120.2(8) . . ?
C2J C3J C4J 119.6(8) . . ?
C2J C3J C6J 120.5(8) . . ?
C4J C3J C6J 119.9(9) . . ?
C3J C4J C5J 117.4(8) . . ?
N1J C5J C4J 123.7(8) . . ?
C6J N2J C8J 120.0 . . ?
N2J C6J N3J 120.0 . . ?
N2J C6J C3J 120.0(6) . . ?
N3J C6J C3J 120.0(6) . . ?
C7J N3J C6J 120.0 . . ?
N3J C7J N4J 120.0 . . ?
N3J C7J C9J 119.4(8) . . ?
N4J C7J C9J 120.6(8) . . ?
C8J N4J C7J 120.0 . . ?
N4J C8J N2J 120.0 . . ?
N4J C8J C12J 120.3(6) . . ?
N2J C8J C12J 119.6(6) . . ?
C14J N5J C10J 118.1(7) . . ?
C14J N5J Pd5 121.3(6) . . ?
C10J N5J Pd5 120.4(6) . . ?
N5J C10J C11J 124.5(8) . . ?
C10J C11J C12J 116.0(8) . . ?
C13J C12J C11J 121.3(8) . . ?
C13J C12J C8J 119.6(9) . . ?
C11J C12J C8J 119.1(9) . . ?
C14J C13J C12J 116.2(9) . . ?
N5J C14J C13J 123.8(8) . . ?
C5K N1K C1K 117.8(7) . . ?
C5K N1K Pd1 122.8(6) . 2_576 ?
C1K N1K Pd1 119.4(6) . 2_576 ?
N1K C1K C2K 122.2(8) . . ?
C1K C2K C3K 119.6(8) . . ?
C2K C3K C6K 121.7(8) . . ?
C2K C3K C4K 118.3(8) . . ?
C6K C3K C4K 119.9(8) . . ?
C5K C4K C3K 117.2(8) . . ?
N1K C5K C4K 124.6(8) . . ?
C6K N2K C8K 120.0 . . ?
C3K C6K N3K 120.7(6) . . ?
C3K C6K N2K 119.3(6) . . ?
N3K C6K N2K 120.0 . . ?
C6K N3K C7K 120.0 . . ?
N3K C7K N4K 120.0 . . ?
N3K C7K C9K 119.0(8) . . ?
N4K C7K C9K 120.8(8) . . ?
C8K N4K C7K 120.0 . . ?
N4K C8K N2K 120.0 . . ?
N4K C8K C12K 120.2(6) . . ?
N2K C8K C12K 119.8(6) . . ?
C14K N5K C10K 116.5(7) . . ?
C14K N5K Pd5 122.4(6) . . ?
C10K N5K Pd5 121.1(6) . . ?
C11K C10K N5K 122.7(8) . . ?
C10K C11K C12K 120.0(8) . . ?
C11K C12K C13K 116.8(8) . . ?
C11K C12K C8K 120.4(8) . . ?
C13K C12K C8K 122.8(9) . . ?
C14K C13K C12K 121.5(8) . . ?
N5K C14K C13K 122.5(8) . . ?
C5L N1L C1L 118.7(7) . . ?
C5L N1L Pd6 121.0(6) . . ?
C1L N1L Pd6 120.3(6) . . ?
N1L C1L C2L 122.6(8) . . ?
C3L C2L C1L 118.1(8) . . ?
C4L C3L C2L 120.1(9) . . ?
C4L C3L C6L 121.5(9) . . ?
C2L C3L C6L 118.4(8) . . ?
C3L C4L C5L 117.7(9) . . ?
N1L C5L C4L 122.8(8) . . ?
C6L N2L C8L 120.0 . . ?
N2L C6L N3L 120.0 . . ?
N2L C6L C3L 120.5(6) . . ?
N3L C6L C3L 119.2(6) . . ?
C7L N3L C6L 120.0 . . ?
N4L C7L N3L 120.0 . . ?
N4L C7L C9L 121.4(7) . . ?
N3L C7L C9L 118.3(7) . . ?
C8L N4L C7L 120.0 . . ?
N4L C8L N2L 120.0 . . ?
N4L C8L C12L 121.3(6) . . ?
N2L C8L C12L 118.6(6) . . ?
C14L N5L C10L 119.1(7) . . ?
C14L N5L Pd1 120.4(6) . 2_576 ?
C10L N5L Pd1 120.4(6) . 2_576 ?
N5L C10L C11L 121.6(8) . . ?
C12L C11L C10L 120.4(8) . . ?
C11L C12L C13L 117.9(8) . . ?
C11L C12L C8L 122.0(9) . . ?
C13L C12L C8L 119.9(8) . . ?
C12L C13L C14L 120.9(8) . . ?
N5L C14L C13L 119.9(8) . . ?
C1M N1M C5M 119.2(6) . . ?
C1M N1M Pd8 120.9(5) . . ?
C5M N1M Pd8 119.9(5) . . ?
N1M C1M C2M 122.0(6) . . ?
C3M C2M C1M 119.2(7) . . ?
C2M C3M C4M 118.8(6) . . ?
C2M C3M C6M 119.0(7) . . ?
C4M C3M C6M 122.2(7) . . ?
C3M C4M C5M 120.0(7) . . ?
N1M C5M C4M 120.7(7) . . ?
C6M N2M C8M 116.0(6) . . ?
N2M C6M N3M 125.5(7) . . ?
N2M C6M C3M 118.8(7) . . ?
N3M C6M C3M 115.7(7) . . ?
C7M N3M C6M 113.1(6) . . ?
N3M C7M N4M 126.5(7) . . ?
N3M C7M C9M 116.5(8) . . ?
N4M C7M C9M 116.9(7) . . ?
C8M N4M C7M 115.3(6) . . ?
N4M C8M N2M 123.5(7) . . ?
N4M C8M C12M 119.5(7) . . ?
N2M C8M C12M 116.9(6) . . ?
C14M N5M C10M 117.1(6) . . ?
C14M N5M Pd12 121.0(5) . . ?
C10M N5M Pd12 122.0(5) . . ?
N5M C10M C11M 123.6(7) . . ?
C12M C11M C10M 118.8(7) . . ?
C13M C12M C11M 119.0(7) . . ?
C13M C12M C8M 120.6(7) . . ?
C11M C12M C8M 120.3(7) . . ?
C12M C13M C14M 120.9(7) . . ?
N5M C14M C13M 120.6(7) . . ?
C5N N1N C1N 117.2(6) . . ?
C5N N1N Pd9 120.1(5) . . ?
C1N N1N Pd9 122.8(5) . . ?
C2N C1N N1N 124.6(7) . . ?
C1N C2N C3N 121.5(7) . . ?
C4N C3N C2N 114.6(7) . . ?
C4N C3N C6N 123.3(7) . . ?
C2N C3N C6N 122.1(7) . . ?
C3N C4N C5N 122.3(7) . . ?
N1N C5N C4N 119.7(7) . . ?
C6N N2N C8N 114.3(6) . . ?
N2N C6N N3N 126.5(7) . . ?
N2N C6N C3N 117.1(7) . . ?
N3N C6N C3N 116.2(7) . . ?
C7N N3N C6N 113.0(7) . . ?
N3N C7N N4N 127.2(7) . . ?
N3N C7N C9N 115.2(9) . . ?
N4N C7N C9N 117.6(9) . . ?
C7N N4N C8N 113.7(7) . . ?
N4N C8N N2N 125.0(7) . . ?
N4N C8N C12N 117.7(7) . . ?
N2N C8N C12N 117.4(7) . . ?
C14N N5N C10N 118.8(6) . . ?
C14N N5N Pd8 122.1(5) . . ?
C10N N5N Pd8 119.1(5) . . ?
N5N C10N C11N 121.7(7) . . ?
C10N C11N C12N 118.7(7) . . ?
C11N C12N C13N 117.3(7) . . ?
C11N C12N C8N 120.6(7) . . ?
C13N C12N C8N 122.1(7) . . ?
C14N C13N C12N 120.9(7) . . ?
N5N C14N C13N 122.5(7) . . ?
C5O N1O C1O 119.0(6) . . ?
C5O N1O Pd8 121.3(5) . . ?
C1O N1O Pd8 119.5(5) . . ?
N1O C1O C2O 122.0(7) . . ?
C3O C2O C1O 118.8(7) . . ?
C6O C3O C2O 121.3(7) . . ?
C6O C3O C4O 123.0(8) . . ?
C2O C3O C4O 115.7(7) . . ?
C5O C4O C3O 122.8(8) . . ?
N1O C5O C4O 121.6(7) . . ?
C6O N2O C8O 120.0 . . ?
C3O C6O N3O 121.4(5) . . ?
C3O C6O N2O 118.4(5) . . ?
N3O C6O N2O 120.0 . . ?
C6O N3O C7O 120.0 . . ?
N4O C7O N3O 120.0 . . ?
N4O C7O C9O 123.4(7) . . ?
N3O C7O C9O 116.5(7) . . ?
C8O N4O C7O 120.0 . . ?
C12O C8O N4O 118.7(5) . . ?
C12O C8O N2O 121.3(5) . . ?
N4O C8O N2O 120.0 . . ?
C14O N5O C10O 117.7(7) . . ?
C14O N5O Pd7 120.9(6) . . ?
C10O N5O Pd7 121.3(5) . . ?
N5O C10O C11O 121.4(7) . . ?
C12O C11O C10O 120.2(7) . . ?
C13O C12O C11O 118.6(7) . . ?
C13O C12O C8O 122.3(7) . . ?
C11O C12O C8O 119.1(7) . . ?
C12O C13O C14O 119.1(7) . . ?
N5O C14O C13O 123.0(7) . . ?
C5P N1P C1P 117.4(6) . . ?
C5P N1P Pd7 121.1(5) . . ?
C1P N1P Pd7 121.5(5) . . ?
N1P C1P C2P 122.4(7) . . ?
C1P C2P C3P 121.2(7) . . ?
C4P C3P C2P 117.0(7) . . ?
C4P C3P C6P 121.8(7) . . ?
C2P C3P C6P 121.2(7) . . ?
C3P C4P C5P 120.2(7) . . ?
N1P C5P C4P 121.7(7) . . ?
C8P N2P C6P 114.5(6) . . ?
N3P C6P N2P 124.7(6) . . ?
N3P C6P C3P 118.0(7) . . ?
N2P C6P C3P 117.3(7) . . ?
C6P N3P C7P 116.0(6) . . ?
N3P C7P N4P 123.9(7) . . ?
N3P C7P C9P 118.7(7) . . ?
N4P C7P C9P 117.3(8) . . ?
C8P N4P C7P 112.6(6) . . ?
N2P C8P N4P 128.3(6) . . ?
N2P C8P C12P 117.2(7) . . ?
N4P C8P C12P 114.5(7) . . ?
C14P N5P C10P 118.5(6) . . ?
C14P N5P Pd9 120.3(5) . . ?
C10P N5P Pd9 121.2(5) . . ?
C11P C10P N5P 121.8(7) . . ?
C10P C11P C12P 120.3(7) . . ?
C13P C12P C11P 118.7(7) . . ?
C13P C12P C8P 121.5(7) . . ?
C11P C12P C8P 119.8(7) . . ?
C12P C13P C14P 119.3(7) . . ?
N5P C14P C13P 121.3(7) . . ?
C1Q N1Q C5Q 119.2(6) . . ?
C1Q N1Q Pd9 119.9(5) . . ?
C5Q N1Q Pd9 120.9(5) . . ?
N1Q C1Q C2Q 122.7(7) . . ?
C3Q C2Q C1Q 117.3(7) . . ?
C2Q C3Q C4Q 117.7(7) . . ?
C2Q C3Q C6Q 124.4(11) . . ?
C4Q C3Q C6Q 117.9(10) . . ?
C2Q C3Q C56Q 114.8(12) . . ?
C4Q C3Q C56Q 127.4(13) . . ?
C6Q C3Q C56Q 10.0(16) . . ?
C5Q C4Q C3Q 122.6(7) . . ?
C4Q C5Q N1Q 120.4(7) . . ?
C6Q N2Q C8Q 120.0 . . ?
N2Q C6Q N3Q 120.0 . . ?
N2Q C6Q C3Q 111.9(13) . . ?
N3Q C6Q C3Q 127.5(13) . . ?
C7Q N3Q C6Q 120.0 . . ?
N3Q C7Q N4Q 120.0 . . ?
N3Q C7Q C9Q 113.8(13) . . ?
N4Q C7Q C9Q 126.0(13) . . ?
C8Q N4Q C7Q 120.0 . . ?
N4Q C8Q N2Q 120.0 . . ?
N4Q C8Q C12Q 112.4(13) . . ?
N2Q C8Q C12Q 127.4(13) . . ?
C56Q N52Q C58Q 120.0 . . ?
N52Q C56Q N53Q 120.0 . . ?
N52Q C56Q C3Q 128.8(18) . . ?
N53Q C56Q C3Q 111.2(18) . . ?
C57Q N53Q C56Q 120.0 . . ?
N53Q C57Q N54Q 120.0 . . ?
N53Q C57Q C59Q 128(2) . . ?
N54Q C57Q C59Q 112(2) . . ?
C58Q N54Q C57Q 120.0 . . ?
N54Q C58Q N52Q 120.0 . . ?
N54Q C58Q C12Q 131.3(17) . . ?
N52Q C58Q C12Q 108.0(17) . . ?
C10Q N5Q C14Q 118.3(7) . . ?
C10Q N5Q Pd11 121.3(5) . . ?
C14Q N5Q Pd11 120.4(5) . . ?
N5Q C10Q C11Q 123.1(7) . . ?
C12Q C11Q C10Q 118.6(7) . . ?
C13Q C12Q C11Q 118.6(7) . . ?
C13Q C12Q C58Q 115.2(12) . . ?
C11Q C12Q C58Q 126.3(12) . . ?
C13Q C12Q C8Q 125.3(10) . . ?
C11Q C12Q C8Q 116.1(9) . . ?
C58Q C12Q C8Q 11.2(15) . . ?
C12Q C13Q C14Q 121.7(7) . . ?
N5Q C14Q C13Q 119.8(7) . . ?
C5R N1R C1R 118.5(6) . . ?
C5R N1R Pd10 121.9(5) . . ?
C1R N1R Pd10 119.6(5) . . ?
N1R C1R C2R 119.7(7) . . ?
C1R C2R C3R 123.7(7) . . ?
C4R C3R C2R 114.5(7) . . ?
C4R C3R C6R 123.3(7) . . ?
C2R C3R C6R 122.1(7) . . ?
C3R C4R C5R 121.5(7) . . ?
N1R C5R C4R 122.1(7) . . ?
C6R N2R C8R 114.3(6) . . ?
N2R C6R N3R 127.3(7) . . ?
N2R C6R C3R 116.9(7) . . ?
N3R C6R C3R 115.7(7) . . ?
C6R N3R C7R 114.1(7) . . ?
N4R C7R N3R 123.6(8) . . ?
N4R C7R C9R 118.1(9) . . ?
N3R C7R C9R 118.2(8) . . ?
C7R N4R C8R 117.1(7) . . ?
N4R C8R N2R 123.5(7) . . ?
N4R C8R C12R 120.1(7) . . ?
N2R C8R C12R 116.4(7) . . ?
C10R N5R C14R 117.6(6) . . ?
C10R N5R Pd9 121.7(5) . . ?
C14R N5R Pd9 120.6(5) . . ?
N5R C10R C11R 123.5(7) . . ?
C10R C11R C12R 119.6(6) . . ?
C11R C12R C13R 116.8(7) . . ?
C11R C12R C8R 122.7(7) . . ?
C13R C12R C8R 120.4(7) . . ?
C14R C13R C12R 119.8(7) . . ?
C13R C14R N5R 122.6(7) . . ?
C1S N1S C5S 118.8(6) . . ?
C1S N1S Pd10 119.8(5) . . ?
C5S N1S Pd10 121.4(5) . . ?
N1S C1S C2S 122.7(7) . . ?
C1S C2S C3S 118.4(7) . . ?
C4S C3S C2S 116.3(7) . . ?
C4S C3S C56S 126.2(9) . . ?
C2S C3S C56S 117.4(8) . . ?
C4S C3S C6S 114.7(13) . . ?
C2S C3S C6S 128.8(13) . . ?
C56S C3S C6S 12.7(16) . . ?
C3S C4S C5S 122.7(7) . . ?
N1S C5S C4S 120.8(7) . . ?
C6S N2S C8S 120.0 . . ?
N3S C6S N2S 120.0 . . ?
N3S C6S C3S 132.6(19) . . ?
N2S C6S C3S 106.3(19) . . ?
C6S N3S C7S 120.0 . . ?
C9S C7S N4S 110(3) . . ?
C9S C7S N3S 130(3) . . ?
N4S C7S N3S 120.0 . . ?
C7S N4S C8S 120.0 . . ?
N4S C8S N2S 120.0 . . ?
N4S C8S C12S 110.9(17) . . ?
N2S C8S C12S 129.0(18) . . ?
C56S N52S C58S 120.0 . . ?
N53S C56S N52S 120.0 . . ?
N53S C56S C3S 114.9(9) . . ?
N52S C56S C3S 125.1(9) . . ?
C56S N53S C57S 120.0 . . ?
N53S C57S N54S 120.0 . . ?
N53S C57S C59S 122.8(10) . . ?
N54S C57S C59S 117.0(10) . . ?
C58S N54S C57S 120.0 . . ?
N54S C58S N52S 120.0 . . ?
N54S C58S C12S 125.9(10) . . ?
N52S C58S C12S 113.8(10) . . ?
C14S N5S C10S 116.3(6) . . ?
C14S N5S Pd12 122.1(5) . 2_665 ?
C10S N5S Pd12 121.6(5) . 2_665 ?
N5S C10S C11S 121.2(7) . . ?
C12S C11S C10S 121.3(7) . . ?
C13S C12S C11S 117.5(7) . . ?
C13S C12S C58S 118.9(9) . . ?
C11S C12S C58S 122.9(9) . . ?
C13S C12S C8S 125.0(12) . . ?
C11S C12S C8S 117.2(11) . . ?
C58S C12S C8S 14.7(17) . . ?
C12S C13S C14S 120.9(8) . . ?
N5S C14S C13S 122.6(7) . . ?
C5T N1T C1T 118.7(6) . . ?
C5T N1T Pd10 121.0(5) . . ?
C1T N1T Pd10 120.2(5) . . ?
N1T C1T C2T 121.8(7) . . ?
C3T C2T C1T 119.6(7) . . ?
C2T C3T C4T 119.4(7) . . ?
C2T C3T C6T 121.0(7) . . ?
C4T C3T C6T 119.6(8) . . ?
C3T C4T C5T 116.9(7) . . ?
N1T C5T C4T 123.5(7) . . ?
C8T N2T C6T 115.6(7) . . ?
N3T C6T N2T 122.8(7) . . ?
N3T C6T C3T 119.2(7) . . ?
N2T C6T C3T 118.0(7) . . ?
C6T N3T C7T 116.1(8) . . ?
N4T C7T N3T 125.3(9) . . ?
N4T C7T C9T 117.5(10) . . ?
N3T C7T C9T 117.2(9) . . ?
C7T N4T C8T 112.9(7) . . ?
N2T C8T N4T 126.9(7) . . ?
N2T C8T C12T 117.5(8) . . ?
N4T C8T C12T 115.6(8) . . ?
C14T N5T C10T 115.8(6) . . ?
C14T N5T Pd8 120.7(5) . 2_665 ?
C10T N5T Pd8 123.4(5) . 2_665 ?
C11T C10T N5T 123.1(7) . . ?
C10T C11T C12T 122.5(7) . . ?
C11T C12T C13T 117.7(7) . . ?
C11T C12T C8T 121.3(7) . . ?
C13T C12T C8T 121.0(8) . . ?
C12T C13T C14T 117.3(8) . . ?
N5T C14T C13T 123.5(7) . . ?
C5U N1U C1U 118.1(6) . . ?
C5U N1U Pd10 121.3(5) . . ?
C1U N1U Pd10 120.6(5) . . ?
N1U C1U C2U 121.3(6) . . ?
C3U C2U C1U 120.2(7) . . ?
C2U C3U C4U 117.9(6) . . ?
C2U C3U C6U 120.3(7) . . ?
C4U C3U C6U 121.9(7) . . ?
C5U C4U C3U 119.0(6) . . ?
N1U C5U C4U 123.3(6) . . ?
C6U N2U C8U 117.2(6) . . ?
N2U C6U N3U 126.4(7) . . ?
N2U C6U C3U 117.7(7) . . ?
N3U C6U C3U 115.9(7) . . ?
C6U N3U C7U 112.9(6) . . ?
N4U C7U N3U 124.3(7) . . ?
N4U C7U C9U 119.2(7) . . ?
N3U C7U C9U 116.4(8) . . ?
C7U N4U C8U 117.7(6) . . ?
N2U C8U N4U 121.4(7) . . ?
N2U C8U C12U 119.7(7) . . ?
N4U C8U C12U 118.9(7) . . ?
C14U N5U C10U 116.8(6) . . ?
C14U N5U Pd11 121.2(5) . . ?
C10U N5U Pd11 122.0(5) . . ?
C11U C10U N5U 122.6(7) . . ?
C10U C11U C12U 122.4(7) . . ?
C13U C12U C11U 114.9(7) . . ?
C13U C12U C8U 123.5(7) . . ?
C11U C12U C8U 121.5(7) . . ?
C12U C13U C14U 122.1(7) . . ?
N5U C14U C13U 120.9(7) . . ?
C5V N1V C1V 116.9(7) . . ?
C5V N1V Pd11 121.8(5) . . ?
C1V N1V Pd11 121.0(5) . . ?
N1V C1V C2V 123.1(7) . . ?
C3V C2V C1V 118.8(8) . . ?
C2V C3V C4V 119.3(8) . . ?
C2V C3V C56V 126.7(11) . . ?
C4V C3V C56V 113.8(10) . . ?
C2V C3V C6V 115.9(11) . . ?
C4V C3V C6V 124.9(12) . . ?
C56V C3V C6V 11.6(14) . . ?
C5V C4V C3V 119.0(8) . . ?
N1V C5V C4V 122.4(7) . . ?
C6V N2V C8V 120.0 . . ?
N2V C6V N3V 120.0 . . ?
N2V C6V C3V 131.1(17) . . ?
N3V C6V C3V 108.3(18) . . ?
C7V N3V C6V 120.0 . . ?
C9V C7V N3V 125(2) . . ?
C9V C7V N4V 114(2) . . ?
N3V C7V N4V 120.0 . . ?
C8V N4V C7V 120.0 . . ?
N4V C8V N2V 120.0 . . ?
N4V C8V C12V 133.9(18) . . ?
N2V C8V C12V 105.8(18) . . ?
C56V N52V C58V 120.0 . . ?
N52V C56V N53V 120.0 . . ?
N52V C56V C3V 109.6(12) . . ?
N53V C56V C3V 130.4(12) . . ?
C57V N53V C56V 120.0 . . ?
N53V C57V N54V 120.0 . . ?
N53V C57V C59V 114.5(14) . . ?
N54V C57V C59V 125.4(14) . . ?
C58V N54V C57V 120.0 . . ?
N54V C58V N52V 120.0 . . ?
N54V C58V C12V 114.0(11) . . ?
N52V C58V C12V 126.0(11) . . ?
C10V N5V C14V 116.7(7) . . ?
C10V N5V Pd7 121.7(5) . 2_665 ?
C14V N5V Pd7 121.3(6) . 2_665 ?
N5V C10V C11V 122.7(7) . . ?
C10V C11V C12V 118.9(7) . . ?
C13V C12V C11V 120.6(8) . . ?
C13V C12V C8V 110.8(13) . . ?
C11V C12V C8V 128.3(13) . . ?
C13V C12V C58V 122.0(10) . . ?
C11V C12V C58V 117.3(9) . . ?
C8V C12V C58V 14.1(15) . . ?
C12V C13V C14V 117.0(8) . . ?
N5V C14V C13V 124.0(8) . . ?
C1W N1W C5W 115.0(7) . . ?
C1W N1W Pd11 122.3(5) . . ?
C5W N1W Pd11 122.7(5) . . ?
N1W C1W C2W 122.9(7) . . ?
C1W C2W C3W 120.3(7) . . ?
C4W C3W C2W 118.1(8) . . ?
C4W C3W C56W 120.5(9) . . ?
C2W C3W C56W 121.5(9) . . ?
C4W C3W C6W 120.1(18) . . ?
C2W C3W C6W 121.8(17) . . ?
C56W C3W C6W 1.1(19) . . ?
C3W C4W C5W 119.1(8) . . ?
N1W C5W C4W 124.6(8) . . ?
C6W N2W C8W 120.0 . . ?
N2W C6W N3W 120.0 . . ?
N2W C6W C3W 127(3) . . ?
N3W C6W C3W 110(3) . . ?
C7W N3W C6W 120.0 . . ?
N3W C7W N4W 120.0 . . ?
N3W C7W C9W 140(4) . . ?
N4W C7W C9W 100(4) . . ?
C7W N4W C8W 120.0 . . ?
N4W C8W N2W 120.0 . . ?
N4W C8W C12W 132(3) . . ?
N2W C8W C12W 107(3) . . ?
C56W N52W C58W 120.0 . . ?
N53W C56W N52W 120.0 . . ?
N53W C56W C3W 120.7(8) . . ?
N52W C56W C3W 119.3(8) . . ?
C57W N53W C56W 120.0 . . ?
N54W C57W N53W 120.0 . . ?
N54W C57W C59W 122.8(9) . . ?
N53W C57W C59W 117.2(9) . . ?
C58W N54W C57W 120.0 . . ?
C12W C58W N54W 119.2(7) . . ?
C12W C58W N52W 120.8(7) . . ?
N54W C58W N52W 120.0 . . ?
C14W N5W C10W 116.9(6) . . ?
C14W N5W Pd12 120.9(5) . . ?
C10W N5W Pd12 121.7(5) . . ?
C11W C10W N5W 124.2(7) . . ?
C10W C11W C12W 118.7(7) . . ?
C11W C12W C58W 120.4(8) . . ?
C11W C12W C13W 118.5(7) . . ?
C58W C12W C13W 121.1(8) . . ?
C11W C12W C8W 127.2(15) . . ?
C58W C12W C8W 14(2) . . ?
C13W C12W C8W 112.7(15) . . ?
C14W C13W C12W 118.1(7) . . ?
N5W C14W C13W 123.2(7) . . ?
C5X N1X C1X 118.6(7) . . ?
C5X N1X Pd12 120.8(6) . . ?
C1X N1X Pd12 120.6(5) . . ?
N1X C1X C2X 120.6(7) . . ?
C3X C2X C1X 120.5(7) . . ?
C4X C3X C2X 118.9(8) . . ?
C4X C3X C6X 117.0(11) . . ?
C2X C3X C6X 124.1(11) . . ?
C4X C3X C56X 122.8(13) . . ?
C2X C3X C56X 117.4(12) . . ?
C6X C3X C56X 11.8(17) . . ?
C3X C4X C5X 117.6(8) . . ?
N1X C5X C4X 123.5(8) . . ?
C6X N2X C8X 120.0 . . ?
N2X C6X N3X 120.0 . . ?
N2X C6X C3X 114.3(13) . . ?
N3X C6X C3X 125.4(13) . . ?
C7X N3X C6X 120.0 . . ?
N3X C7X N4X 120.0 . . ?
N3X C7X C9X 111.8(14) . . ?
N4X C7X C9X 127.0(14) . . ?
C7X N4X C8X 120.0 . . ?
N4X C8X N2X 120.0 . . ?
N4X C8X C12X 114.1(12) . . ?
N2X C8X C12X 125.7(12) . . ?
C56X N52X C58X 120.0 . . ?
N52X C56X N53X 120.0 . . ?
N52X C56X C3X 124.6(17) . . ?
N53X C56X C3X 114.9(17) . . ?
C57X N53X C56X 120.0 . . ?
N53X C57X N54X 120.0 . . ?
N53X C57X C59X 129(2) . . ?
N54X C57X C59X 110(2) . . ?
C58X N54X C57X 120.0 . . ?
N54X C58X N52X 120.0 . . ?
N54X C58X C12X 129.7(16) . . ?
N52X C58X C12X 109.6(17) . . ?
C10X N5X C14X 117.8(6) . . ?
C10X N5X Pd7 121.1(5) . 2_665 ?
C14X N5X Pd7 121.0(5) . 2_665 ?
N5X C10X C11X 122.6(7) . . ?
C12X C11X C10X 118.0(7) . . ?
C11X C12X C13X 120.7(7) . . ?
C11X C12X C8X 116.5(10) . . ?
C13X C12X C8X 122.7(10) . . ?
C11X C12X C58X 125.0(13) . . ?
C13X C12X C58X 114.1(12) . . ?
C8X C12X C58X 9.7(14) . . ?
C14X C13X C12X 118.1(8) . . ?
N5X C14X C13X 122.7(7) . . ?
N1E Pd1 N1K 179.5(3) . 2_576 ?
N1E Pd1 N5F 89.7(2) . . ?
N1K Pd1 N5F 90.8(2) 2_576 . ?
N1E Pd1 N5L 89.8(3) . 2_576 ?
N1K Pd1 N5L 89.7(2) 2_576 2_576 ?
N5F Pd1 N5L 179.5(3) . 2_576 ?
N5D Pd2 N1G 89.5(3) . . ?
N5D Pd2 N1F 88.7(3) . . ?
N1G Pd2 N1F 178.2(3) . . ?
N5D Pd2 N5H 178.9(3) . . ?
N1G Pd2 N5H 90.6(3) . . ?
N1F Pd2 N5H 91.2(2) . . ?
N5A Pd3 N5E 90.6(3) . . ?
N5A Pd3 N5C 88.9(3) . . ?
N5E Pd3 N5C 179.2(3) . . ?
N5A Pd3 N1D 179.3(3) . . ?
N5E Pd3 N1D 89.2(3) . . ?
N5C Pd3 N1D 91.3(2) . . ?
N1H Pd4 N5B 89.8(3) 2_576 . ?
N1H Pd4 N1A 179.2(3) 2_576 . ?
N5B Pd4 N1A 90.4(3) . . ?
N1H Pd4 N5I 89.3(3) 2_576 2_576 ?
N5B Pd4 N5I 178.9(3) . 2_576 ?
N1A Pd4 N5I 90.6(2) . 2_576 ?
N1B Pd5 N5K 90.5(3) . . ?
N1B Pd5 N5J 179.4(3) . . ?
N5K Pd5 N5J 89.9(3) . . ?
N1B Pd5 N1C 89.8(2) . . ?
N5K Pd5 N1C 179.3(3) . . ?
N5J Pd5 N1C 89.9(2) . . ?
N5G Pd6 N1I 89.7(2) . . ?
N5G Pd6 N1L 179.1(3) . . ?
N1I Pd6 N1L 90.4(2) . . ?
N5G Pd6 N1J 90.4(3) . . ?
N1I Pd6 N1J 179.4(3) . . ?
N1L Pd6 N1J 89.6(3) . . ?
N5O Pd7 N1P 89.8(2) . . ?
N5O Pd7 N5V 89.3(2) . 2_665 ?
N1P Pd7 N5V 179.0(2) . 2_665 ?
N5O Pd7 N5X 179.1(3) . 2_665 ?
N1P Pd7 N5X 91.0(2) . 2_665 ?
N5V Pd7 N5X 89.8(2) 2_665 2_665 ?
N5T Pd8 N5N 179.6(2) 2_665 . ?
N5T Pd8 N1O 90.7(2) 2_665 . ?
N5N Pd8 N1O 88.9(2) . . ?
N5T Pd8 N1M 90.0(2) 2_665 . ?
N5N Pd8 N1M 90.4(2) . . ?
N1O Pd8 N1M 179.2(2) . . ?
N1N Pd9 N1Q 90.8(2) . . ?
N1N Pd9 N5R 179.3(2) . . ?
N1Q Pd9 N5R 89.4(2) . . ?
N1N Pd9 N5P 89.5(2) . . ?
N1Q Pd9 N5P 179.7(2) . . ?
N5R Pd9 N5P 90.3(2) . . ?
N1R Pd10 N1S 91.2(2) . . ?
N1R Pd10 N1T 179.2(2) . . ?
N1S Pd10 N1T 89.3(2) . . ?
N1R Pd10 N1U 89.0(2) . . ?
N1S Pd10 N1U 179.8(2) . . ?
N1T Pd10 N1U 90.5(2) . . ?
N1W Pd11 N1V 89.3(2) . . ?
N1W Pd11 N5Q 90.0(2) . . ?
N1V Pd11 N5Q 179.2(2) . . ?
N1W Pd11 N5U 179.5(3) . . ?
N1V Pd11 N5U 91.0(2) . . ?
N5Q Pd11 N5U 89.7(2) . . ?
N5S Pd12 N1X 90.0(2) 2_665 . ?
N5S Pd12 N5W 179.5(3) 2_665 . ?
N1X Pd12 N5W 89.8(2) . . ?
N5S Pd12 N5M 89.9(2) 2_665 . ?
N1X Pd12 N5M 179.8(3) . . ?
N5W Pd12 N5M 90.3(2) . . ?
F18 B11 F17 121.8(18) . . ?
F18 B11 F13 149(2) . . ?
F17 B11 F13 55.0(15) . . ?
F18 B11 F16 117(2) . . ?
F17 B11 F16 110.2(18) . . ?
F13 B11 F16 55.2(15) . . ?
F18 B11 F12 59.7(18) . . ?
F17 B11 F12 152(2) . . ?
F13 B11 F12 107.9(19) . . ?
F16 B11 F12 57.8(18) . . ?
F18 B11 F14 56.9(15) . . ?
F17 B11 F14 65.2(16) . . ?
F13 B11 F14 113.6(18) . . ?
F16 B11 F14 151(2) . . ?
F12 B11 F14 112.0(18) . . ?
F18 B11 F11 101.1(15) . . ?
F17 B11 F11 100.9(14) . . ?
F13 B11 F11 109.5(16) . . ?
F16 B11 F11 101.3(16) . . ?
F12 B11 F11 106.3(16) . . ?
F14 B11 F11 107.2(15) . . ?
F23 B21 F25 75.2(19) . . ?
F23 B21 F26 78.1(17) . . ?
F25 B21 F26 127(2) . . ?
F23 B21 F21 87(2) . . ?
F25 B21 F21 16(2) . . ?
F26 B21 F21 142(2) . . ?
F23 B21 F24 117.3(18) . . ?
F25 B21 F24 153(2) . . ?
F26 B21 F24 80.1(14) . . ?
F21 B21 F24 137(2) . . ?
F23 B21 F27 54.1(12) . . ?
F25 B21 F27 103(2) . . ?
F26 B21 F27 97.2(16) . . ?
F21 B21 F27 102(2) . . ?
F24 B21 F27 71.8(15) . . ?
F23 B21 F22 91.8(17) . . ?
F25 B21 F22 87.3(19) . . ?
F26 B21 F22 48.3(12) . . ?
F21 B21 F22 98.1(19) . . ?
F24 B21 F22 114.4(16) . . ?
F27 B21 F22 138.7(19) . . ?
F23 B21 F28 164(2) . . ?
F25 B21 F28 103.3(19) . . ?
F26 B21 F28 113.7(18) . . ?
F21 B21 F28 89.0(19) . . ?
F24 B21 F28 57.9(12) . . ?
F27 B21 F28 112.3(17) . . ?
F22 B21 F28 103.8(19) . . ?
F35 B31 F32 88.6(18) . . ?
F35 B31 F34 105.5(19) . . ?
F32 B31 F34 112.6(19) . . ?
F35 B31 F36 115(2) . . ?
F32 B31 F36 58.7(15) . . ?
F34 B31 F36 55.6(16) . . ?
F35 B31 F33 121(2) . . ?
F32 B31 F33 118.2(19) . . ?
F34 B31 F33 109(2) . . ?
F36 B31 F33 124(2) . . ?
F35 B31 F38 106.0(18) . . ?
F32 B31 F38 165.3(18) . . ?
F34 B31 F38 62.4(18) . . ?
F36 B31 F38 111.8(18) . . ?
F33 B31 F38 55.9(17) . . ?
F35 B31 F37 111.9(18) . . ?
F32 B31 F37 71.0(16) . . ?
F34 B31 F37 143(2) . . ?
F36 B31 F37 107.8(18) . . ?
F33 B31 F37 48.4(16) . . ?
F38 B31 F37 104.2(17) . . ?
F35 B31 F31 21.8(16) . . ?
F32 B31 F31 109.7(15) . . ?
F34 B31 F31 101.2(14) . . ?
F36 B31 F31 130(2) . . ?
F33 B31 F31 104.1(17) . . ?
F38 B31 F31 85.0(17) . . ?
F37 B31 F31 112.7(19) . . ?
F43 B41 F41 107.1(17) . . ?
F43 B41 F42 108.8(18) . . ?
F41 B41 F42 118.7(18) . . ?
F43 B41 F44 117.5(16) . . ?
F41 B41 F44 107.5(17) . . ?
F42 B41 F44 97.4(17) . . ?
F53 B51 F58 135(2) . . ?
F53 B51 F55 120(2) . . ?
F58 B51 F55 104.9(17) . . ?
F53 B51 F56 47.0(14) . . ?
F58 B51 F56 119.3(18) . . ?
F55 B51 F56 106.6(17) . . ?
F53 B51 F57 53.7(15) . . ?
F58 B51 F57 117.6(17) . . ?
F55 B51 F57 107.0(18) . . ?
F56 B51 F57 100.5(16) . . ?
F53 B51 F52 115.6(19) . . ?
F58 B51 F52 52.6(15) . . ?
F55 B51 F52 95.7(19) . . ?
F56 B51 F52 73.8(18) . . ?
F57 B51 F52 157(2) . . ?
F53 B51 F54 115.9(18) . . ?
F58 B51 F54 52.0(13) . . ?
F55 B51 F54 101.8(18) . . ?
F56 B51 F54 151.6(19) . . ?
F57 B51 F54 69.8(16) . . ?
F52 B51 F54 104.5(18) . . ?
F53 B51 F51 116.2(18) . . ?
F58 B51 F51 109.1(18) . . ?
F55 B51 F51 6(2) . . ?
F56 B51 F51 106.9(18) . . ?
F57 B51 F51 101.4(19) . . ?
F52 B51 F51 101.2(16) . . ?
F54 B51 F51 101.3(16) . . ?
F62 B61 F61 111.3(18) . . ?
F62 B61 F64 113.5(15) . . ?
F61 B61 F64 107.9(16) . . ?
F62 B61 F63 110.0(18) . . ?
F61 B61 F63 109.7(15) . . ?
F64 B61 F63 104.2(19) . . ?
F73 B71 F77 58.1(18) . . ?
F73 B71 F72 115.7(17) . . ?
F77 B71 F72 64.2(19) . . ?
F73 B71 F76 133(2) . . ?
F77 B71 F76 111.1(19) . . ?
F72 B71 F76 51.8(14) . . ?
F73 B71 F78 50.2(13) . . ?
F77 B71 F78 108.3(19) . . ?
F72 B71 F78 150(2) . . ?
F76 B71 F78 113.8(18) . . ?
F73 B71 F71 112.4(16) . . ?
F77 B71 F71 110.1(17) . . ?
F72 B71 F71 111.7(16) . . ?
F76 B71 F71 114.2(16) . . ?
F78 B71 F71 98.6(15) . . ?
F73 B71 F74 106.3(18) . . ?
F77 B71 F74 150.2(19) . . ?
F72 B71 F74 110.0(18) . . ?
F76 B71 F74 58.4(17) . . ?
F78 B71 F74 60.8(17) . . ?
F71 B71 F74 99.3(13) . . ?
F83 B81 F82 127(2) . . ?
F83 B81 F86 85.6(18) . . ?
F82 B81 F86 43.8(11) . . ?
F83 B81 F85 35.2(12) . . ?
F82 B81 F85 144(2) . . ?
F86 B81 F85 102.7(18) . . ?
F83 B81 F88 142.9(19) . . ?
F82 B81 F88 83.2(16) . . ?
F86 B81 F88 114.1(19) . . ?
F85 B81 F88 107.8(17) . . ?
F83 B81 F84 116.3(18) . . ?
F82 B81 F84 114.3(16) . . ?
F86 B81 F84 157.9(18) . . ?
F85 B81 F84 97.5(18) . . ?
F88 B81 F84 49.8(12) . . ?
F83 B81 F87 90.8(16) . . ?
F82 B81 F87 90.0(15) . . ?
F86 B81 F87 104.9(17) . . ?
F85 B81 F87 115.1(17) . . ?
F88 B81 F87 112.0(16) . . ?
F84 B81 F87 73.8(14) . . ?
F83 B81 F81 86.7(16) . . ?
F82 B81 F81 92.4(16) . . ?
F86 B81 F81 76.0(16) . . ?
F85 B81 F81 62.1(13) . . ?
F88 B81 F81 69.7(14) . . ?
F84 B81 F81 106.3(18) . . ?
F87 B81 F81 177.2(16) . . ?
F95 B91 F91 28.8(16) . . ?
F95 B91 F98 92.2(16) . . ?
F91 B91 F98 70.3(15) . . ?
F95 B91 F92 69.4(14) . . ?
F91 B91 F92 76.5(16) . . ?
F98 B91 F92 136(2) . . ?
F95 B91 F96 75.9(15) . . ?
F91 B91 F96 72.5(15) . . ?
F98 B91 F96 118.5(18) . . ?
F92 B91 F96 20.3(19) . . ?
F95 B91 F93 88.0(17) . . ?
F91 B91 F93 102.0(17) . . ?
F98 B91 F93 80.3(14) . . ?
F92 B91 F93 135(2) . . ?
F96 B91 F93 155(2) . . ?
F95 B91 F94 149(2) . . ?
F91 B91 F94 121(2) . . ?
F98 B91 F94 75.0(16) . . ?
F92 B91 F94 99.9(17) . . ?
F96 B91 F94 85.2(17) . . ?
F93 B91 F94 116.9(16) . . ?
F95 B91 F97 125(2) . . ?
F91 B91 F97 154(2) . . ?
F98 B91 F97 127.4(17) . . ?
F92 B91 F97 94.5(18) . . ?
F96 B91 F97 106.9(17) . . ?
F93 B91 F97 67.1(13) . . ?
F94 B91 F97 84.2(17) . . ?
B91 F91 F92 54.7(11) . . ?
B91 F92 F91 48.8(10) . . ?
B91 F93 O71 151(4) . . ?
B91 F95 F96 55.9(11) . . ?
B91 F96 F95 48.2(9) . . ?
F101 B101 F102 124(2) . . ?
F101 B101 F107 83(2) . . ?
F102 B101 F107 80.6(17) . . ?
F101 B101 F106 146(2) . . ?
F102 B101 F106 84.7(15) . . ?
F107 B101 F106 123.1(17) . . ?
F101 B101 F105 18(3) . . ?
F102 B101 F105 132(2) . . ?
F107 B101 F105 100.1(19) . . ?
F106 B101 F105 129(2) . . ?
F101 B101 F103 119(2) . . ?
F102 B101 F103 106.8(15) . . ?
F107 B101 F103 71.7(16) . . ?
F106 B101 F103 60.7(13) . . ?
F105 B101 F103 119(2) . . ?
F101 B101 F108 89(2) . . ?
F102 B101 F108 40.0(11) . . ?
F107 B101 F108 96.4(17) . . ?
F106 B101 F108 106.3(16) . . ?
F105 B101 F108 93.6(19) . . ?
F103 B101 F108 146.8(15) . . ?
F101 B101 F104 94.1(18) . . ?
F102 B101 F104 108.3(19) . . ?
F107 B101 F104 170.4(19) . . ?
F106 B101 F104 56.0(12) . . ?
F105 B101 F104 76.7(16) . . ?
F103 B101 F104 101.6(17) . . ?
F108 B101 F104 92.9(17) . . ?
F116 B111 F112 35.6(14) . . ?
F116 B111 F117 100.4(16) . . ?
F112 B111 F117 78.7(15) . . ?
F116 B111 F115 78.1(15) . . ?
F112 B111 F115 79.2(17) . . ?
F117 B111 F115 142(2) . . ?
F116 B111 F113 154(2) . . ?
F112 B111 F113 119(2) . . ?
F117 B111 F113 61.4(13) . . ?
F115 B111 F113 105(2) . . ?
F116 B111 F111 65.5(13) . . ?
F112 B111 F111 77.2(15) . . ?
F117 B111 F111 153(2) . . ?
F115 B111 F111 19(2) . . ?
F113 B111 F111 122.2(19) . . ?
F116 B111 F114 66.9(15) . . ?
F112 B111 F114 91.9(17) . . ?
F117 B111 F114 83.2(15) . . ?
F115 B111 F114 128(2) . . ?
F113 B111 F114 123.6(18) . . ?
F111 B111 F114 109.3(18) . . ?
F116 B111 F118 120(2) . . ?
F112 B111 F118 154(2) . . ?
F117 B111 F118 105.0(17) . . ?
F115 B111 F118 108.2(19) . . ?
F113 B111 F118 83.5(16) . . ?
F111 B111 F118 102(2) . . ?
F114 B111 F118 64.0(14) . . ?
B111 F111 F112 47.1(9) . . ?
B111 F112 F111 55.7(11) . . ?
B111 F115 F116 45.3(9) . . ?
B111 F116 F115 56.7(11) . . ?
F128 B121 F121 140(2) . . ?
F128 B121 F122 85.5(14) . . ?
F121 B121 F122 130(2) . . ?
F128 B121 F125 120.3(19) . . ?
F121 B121 F125 20.8(19) . . ?
F122 B121 F125 150(2) . . ?
F128 B121 F127 112.2(18) . . ?
F121 B121 F127 103(2) . . ?
F122 B121 F127 61.7(14) . . ?
F125 B121 F127 115(2) . . ?
F128 B121 F123 80.3(17) . . ?
F121 B121 F123 100(2) . . ?
F122 B121 F123 111.4(18) . . ?
F125 B121 F123 90(2) . . ?
F127 B121 F123 63.2(15) . . ?
F128 B121 F124 47.6(12) . . ?
F121 B121 F124 93.4(17) . . ?
F122 B121 F124 119.6(17) . . ?
F125 B121 F124 76.3(16) . . ?
F127 B121 F124 156(2) . . ?
F123 B121 F124 97.5(17) . . ?
F128 B121 F126 108.1(19) . . ?
F121 B121 F126 78.6(19) . . ?
F122 B121 F126 63.6(14) . . ?
F125 B121 F126 91.4(18) . . ?
F127 B121 F126 106.6(18) . . ?
F123 B121 F126 169.2(19) . . ?
F124 B121 F126 93.3(18) . . ?
F13D B131 F138 21.8(18) . . ?
F13D B131 F13A 97.6(16) . . ?
F138 B131 F13A 107.7(18) . . ?
F13D B131 F131 67.9(16) . . ?
F138 B131 F131 72.8(18) . . ?
F13A B131 F131 35.9(16) . . ?
F13D B131 F134 17.1(19) . . ?
F138 B131 F134 37.2(15) . . ?
F13A B131 F134 98.6(18) . . ?
F131 B131 F134 75.9(17) . . ?
F13D B131 F132 79.8(15) . . ?
F138 B131 F132 63.4(14) . . ?
F13A B131 F132 158.4(18) . . ?
F131 B131 F132 127.5(18) . . ?
F134 B131 F132 85.3(15) . . ?
F13D B131 F136 162.6(18) . . ?
F138 B131 F136 148(2) . . ?
F13A B131 F136 70.9(15) . . ?
F131 B131 F136 96.4(19) . . ?
F134 B131 F136 168.9(19) . . ?
F132 B131 F136 105.8(18) . . ?
F13D B131 F13C 129.9(17) . . ?
F138 B131 F13C 126.1(19) . . ?
F13A B131 F13C 125.8(18) . . ?
F131 B131 F13C 161(2) . . ?
F134 B131 F13C 119.5(17) . . ?
F132 B131 F13C 68.1(14) . . ?
F136 B131 F13C 66.7(14) . . ?
F13D B131 F135 65.0(15) . . ?
F138 B131 F135 75.6(16) . . ?
F13A B131 F135 32.9(16) . . ?
F131 B131 F135 15(2) . . ?
F134 B131 F135 68.6(17) . . ?
F132 B131 F135 136.8(19) . . ?
F136 B131 F135 102.0(16) . . ?
F13C B131 F135 155(2) . . ?
F13D B131 F133 123(2) . . ?
F138 B131 F133 144(2) . . ?
F13A B131 F133 73.0(15) . . ?
F131 B131 F133 106.0(17) . . ?
F134 B131 F133 107.0(17) . . ?
F132 B131 F133 126.3(15) . . ?
F136 B131 F133 67.1(15) . . ?
F13C B131 F133 60.4(13) . . ?
F135 B131 F133 94.7(19) . . ?
F13D B131 F137 77.7(16) . . ?
F138 B131 F137 89.6(16) . . ?
F13A B131 F137 119.7(19) . . ?
F131 B131 F137 127.3(19) . . ?
F134 B131 F137 62.3(13) . . ?
F132 B131 F137 81.0(14) . . ?
F136 B131 F137 119.2(16) . . ?
F13C B131 F137 60.6(13) . . ?
F135 B131 F137 112.9(17) . . ?
F133 B131 F137 62.0(13) . . ?
F13D B131 F13B 103.9(18) . . ?
F138 B131 F13B 83.4(18) . . ?
F13A B131 F13B 97.1(16) . . ?
F131 B131 F13B 85.1(17) . . ?
F134 B131 F13B 120.5(19) . . ?
F132 B131 F13B 63.3(13) . . ?
F136 B131 F13B 65.8(15) . . ?
F13C B131 F13B 95.0(15) . . ?
F135 B131 F13B 100.5(18) . . ?
F133 B131 F13B 132.5(18) . . ?
F137 B131 F13B 142.9(16) . . ?
B131 F131 F134 52.2(11) . . ?
B131 F134 F131 52.0(11) . . ?
B131 F135 F138 49.0(10) . . ?
B131 F138 F135 55.4(11) . . ?
F145 B141 F144 115.0(19) . . ?
F145 B141 F146 120(2) . . ?
F144 B141 F146 52.3(17) . . ?
F145 B141 F142 82(2) . . ?
F144 B141 F142 120.2(19) . . ?
F146 B141 F142 69(2) . . ?
F145 B141 F147 119.0(19) . . ?
F144 B141 F147 124(2) . . ?
F146 B141 F147 107.6(18) . . ?
F142 B141 F147 81.8(19) . . ?
F145 B141 F143 111(2) . . ?
F144 B141 F143 106.7(19) . . ?
F146 B141 F143 129(2) . . ?
F142 B141 F143 120.3(18) . . ?
F147 B141 F143 40.1(13) . . ?
F145 B141 F148 98.7(15) . . ?
F144 B141 F148 56.6(14) . . ?
F146 B141 F148 108(2) . . ?
F142 B141 F148 176.8(19) . . ?
F147 B141 F148 100.5(16) . . ?
F143 B141 F148 62.5(15) . . ?
F145 B141 F141 19.4(14) . . ?
F144 B141 F141 105.1(14) . . ?
F146 B141 F141 128.8(19) . . ?
F142 B141 F141 101.3(17) . . ?
F147 B141 F141 121.0(18) . . ?
F143 B141 F141 99.7(15) . . ?
F148 B141 F141 79.4(15) . . ?
F15G B151 F157 26.0(17) . . ?
F15G B151 F153 17(2) . . ?
F157 B151 F153 23(2) . . ?
F15G B151 F15C 26.5(17) . . ?
F157 B151 F15C 45.3(17) . . ?
F153 B151 F15C 23(2) . . ?
F15G B151 F151 63(2) . . ?
F157 B151 F151 74(3) . . ?
F153 B151 F151 81(2) . . ?
F15C B151 F151 82(3) . . ?
F15G B151 F15B 157(2) . . ?
F157 B151 F15B 163.7(19) . . ?
F153 B151 F15B 149(2) . . ?
F15C B151 F15B 131.1(18) . . ?
F151 B151 F15B 122(2) . . ?
F15G B151 F154 131(2) . . ?
F157 B151 F154 106.2(19) . . ?
F153 B151 F154 118(2) . . ?
F15C B151 F154 131.7(17) . . ?
F151 B151 F154 135(2) . . ?
F15B B151 F154 63.5(15) . . ?
F15G B151 F156 104(2) . . ?
F157 B151 F156 108.6(18) . . ?
F153 B151 F156 91(2) . . ?
F15C B151 F156 78.6(18) . . ?
F151 B151 F156 146(3) . . ?
F15B B151 F156 58.2(16) . . ?
F154 B151 F156 77.9(18) . . ?
F15G B151 F155 55.6(16) . . ?
F157 B151 F155 76.0(17) . . ?
F153 B151 F155 72(2) . . ?
F15C B151 F155 64.7(16) . . ?
F151 B151 F155 25(3) . . ?
F15B B151 F155 118.4(18) . . ?
F154 B151 F155 159.1(17) . . ?
F156 B151 F155 121.7(19) . . ?
F15G B151 F15A 59.1(19) . . ?
F157 B151 F15A 70(2) . . ?
F153 B151 F15A 76(3) . . ?
F15C B151 F15A 78.1(16) . . ?
F151 B151 F15A 5(3) . . ?
F15B B151 F15A 126.6(19) . . ?
F154 B151 F15A 136(2) . . ?
F156 B151 F15A 146(3) . . ?
F155 B151 F15A 25(2) . . ?
F15G B151 F15F 118.3(19) . . ?
F157 B151 F15F 144(2) . . ?
F153 B151 F15F 128(2) . . ?
F15C B151 F15F 106.3(18) . . ?
F151 B151 F15F 80(2) . . ?
F15B B151 F15F 48.5(15) . . ?
F154 B151 F15F 110.1(19) . . ?
F156 B151 F15F 79.7(16) . . ?
F155 B151 F15F 70.1(16) . . ?
F15A B151 F15F 84(2) . . ?
F15G B151 F15H 101.8(17) . . ?
F157 B151 F15H 90(2) . . ?
F153 B151 F15H 84(2) . . ?
F15C B151 F15H 87(2) . . ?
F151 B151 F15H 164(3) . . ?
F15B B151 F15H 73.9(17) . . ?
F154 B151 F15H 50.0(14) . . ?
F156 B151 F15H 38.7(14) . . ?
F155 B151 F15H 150(2) . . ?
F15A B151 F15H 159(2) . . ?
F15F B151 F15H 113.8(16) . . ?
B151 F151 F153 48.5(11) . . ?
B151 F153 F151 50.9(12) . . ?
B151 F155 F157 48.9(10) . . ?
B151 F157 F155 55.1(11) . . ?
F168 B161 F165 122(2) . . ?
F168 B161 F162 103(2) . . ?
F165 B161 F162 133.9(18) . . ?
F168 B161 F163 66.8(19) . . ?
F165 B161 F163 88.4(19) . . ?
F162 B161 F163 118.2(18) . . ?
F168 B161 F164 61.0(19) . . ?
F165 B161 F164 88.2(19) . . ?
F162 B161 F164 110(2) . . ?
F163 B161 F164 114.5(19) . . ?
F168 B161 F166 112(2) . . ?
F165 B161 F166 99.6(16) . . ?
F162 B161 F166 52.6(16) . . ?
F163 B161 F166 171(2) . . ?
F164 B161 F166 71(2) . . ?
F168 B161 F167 114(2) . . ?
F165 B161 F167 103.2(18) . . ?
F162 B161 F167 60(2) . . ?
F163 B161 F167 70(2) . . ?
F164 B161 F167 168(2) . . ?
F166 B161 F167 104(2) . . ?
F168 B161 F161 146.2(19) . . ?
F165 B161 F161 25.2(13) . . ?
F162 B161 F161 108.8(15) . . ?
F163 B161 F161 105.7(13) . . ?
F164 B161 F161 97.3(15) . . ?
F166 B161 F161 80.7(17) . . ?
F167 B161 F161 92.0(18) . . ?
F175 B171 F174 107.6(18) . . ?
F175 B171 F173 99.9(17) . . ?
F174 B171 F173 129.6(19) . . ?
F175 B171 F176 107.4(16) . . ?
F174 B171 F176 57.3(15) . . ?
F173 B171 F176 147.7(17) . . ?
F175 B171 F177 109.5(16) . . ?
F174 B171 F177 142.9(19) . . ?
F173 B171 F177 42.7(11) . . ?
F176 B171 F177 109.9(16) . . ?
F175 B171 F172 100.3(16) . . ?
F174 B171 F172 113.2(18) . . ?
F173 B171 F172 102.1(15) . . ?
F176 B171 F172 56.7(14) . . ?
F177 B171 F172 59.6(14) . . ?
F175 B171 F178 105.5(16) . . ?
F174 B171 F178 57.4(16) . . ?
F173 B171 F178 75.0(16) . . ?
F176 B171 F178 112.7(16) . . ?
F177 B171 F178 111.6(16) . . ?
F172 B171 F178 154.1(19) . . ?
F175 B171 F171 6.3(15) . . ?
F174 B171 F171 103.6(16) . . ?
F173 B171 F171 99.3(15) . . ?
F176 B171 F171 109.7(16) . . ?
F177 B171 F171 113.4(16) . . ?
F172 B171 F171 106.5(15) . . ?
F178 B171 F171 99.3(17) . . ?
F182 B181 F187 132(2) . . ?
F182 B181 F185 115(2) . . ?
F187 B181 F185 106.5(19) . . ?
F182 B181 F188 58.3(16) . . ?
F187 B181 F188 132.7(19) . . ?
F185 B181 F188 104.1(16) . . ?
F182 B181 F184 112.6(19) . . ?
F187 B181 F184 69.5(17) . . ?
F185 B181 F184 113(2) . . ?
F188 B181 F184 65.7(19) . . ?
F182 B181 F183 115.8(18) . . ?
F187 B181 F183 41.9(15) . . ?
F185 B181 F183 88(2) . . ?
F188 B181 F183 168.2(18) . . ?
F184 B181 F183 111.3(19) . . ?
F182 B181 F186 45.3(13) . . ?
F187 B181 F186 105.4(18) . . ?
F185 B181 F186 100.6(17) . . ?
F188 B181 F186 103.3(17) . . ?
F184 B181 F186 146(2) . . ?
F183 B181 F186 72.7(16) . . ?
F182 B181 F181 104.6(17) . . ?
F187 B181 F181 120(2) . . ?
F185 B181 F181 16(2) . . ?
F188 B181 F181 88.6(16) . . ?
F184 B181 F181 108.5(17) . . ?
F183 B181 F181 103.1(16) . . ?
F186 B181 F181 102.5(19) . . ?
F191 B191 F197 116(2) . . ?
F191 B191 F196 94.9(18) . . ?
F197 B191 F196 122.3(18) . . ?
F191 B191 F192 107.5(17) . . ?
F197 B191 F192 44.1(13) . . ?
F196 B191 F192 157.3(16) . . ?
F191 B191 F193 106.6(18) . . ?
F197 B191 F193 136(2) . . ?
F196 B191 F193 59.3(17) . . ?
F192 B191 F193 115.0(18) . . ?
F191 B191 F194 116.4(16) . . ?
F197 B191 F194 62.9(16) . . ?
F196 B191 F194 59.9(16) . . ?
F192 B191 F194 105.5(15) . . ?
F193 B191 F194 106.1(18) . . ?
F191 B191 F198 98.6(19) . . ?
F197 B191 F198 109.8(18) . . ?
F196 B191 F198 111.6(19) . . ?
F192 B191 F198 68.9(16) . . ?
F193 B191 F198 52.6(16) . . ?
F194 B191 F198 144.0(19) . . ?
F191 B191 F195 7.1(18) . . ?
F197 B191 F195 114.1(17) . . ?
F196 B191 F195 101.5(14) . . ?
F192 B191 F195 101.1(15) . . ?
F193 B191 F195 107.5(18) . . ?
F194 B191 F195 122.1(16) . . ?
F198 B191 F195 93.4(15) . . ?
F207 B201 F201 86.3(18) . . ?
F207 B201 F202 48.4(14) . . ?
F201 B201 F202 108.1(15) . . ?
F207 B201 F208 129(2) . . ?
F201 B201 F208 89(2) . . ?
F202 B201 F208 161.2(19) . . ?
F207 B201 F204 161.1(19) . . ?
F201 B201 F204 110.0(19) . . ?
F202 B201 F204 115.1(16) . . ?
F208 B201 F204 63(2) . . ?
F207 B201 F203 73(2) . . ?
F201 B201 F203 108.9(17) . . ?
F202 B201 F203 105.5(18) . . ?
F208 B201 F203 61(2) . . ?
F204 B201 F203 109(2) . . ?
F207 B201 F205 97.5(17) . . ?
F201 B201 F205 19.9(17) . . ?
F202 B201 F205 104(2) . . ?
F208 B201 F205 94.9(18) . . ?
F204 B201 F205 96(2) . . ?
F203 B201 F205 128.0(19) . . ?
F207 B201 F206 119.5(18) . . ?
F201 B201 F206 121.4(18) . . ?
F202 B201 F206 71.3(14) . . ?
F208 B201 F206 106(2) . . ?
F204 B201 F206 44.1(15) . . ?
F203 B201 F206 128(2) . . ?
F205 B201 F206 101.5(16) . . ?
F214 B211 F215 23.9(16) . . ?
F214 B211 F211 92.8(15) . . ?
F215 B211 F211 77.6(14) . . ?
F214 B211 F218 68.1(14) . . ?
F215 B211 F218 77.1(15) . . ?
F211 B211 F218 151.6(19) . . ?
F214 B211 F217 88.6(17) . . ?
F215 B211 F217 100.8(17) . . ?
F211 B211 F217 71.2(12) . . ?
F218 B211 F217 126.4(18) . . ?
F214 B211 F212 70.9(14) . . ?
F215 B211 F212 71.4(15) . . ?
F211 B211 F212 135.2(17) . . ?
F218 B211 F212 19.9(16) . . ?
F217 B211 F212 145.3(18) . . ?
F214 B211 F213 139.9(19) . . ?
F215 B211 F213 163.5(19) . . ?
F211 B211 F213 115.1(15) . . ?
F218 B211 F213 92.3(17) . . ?
F217 B211 F213 75.2(14) . . ?
F212 B211 F213 102.6(15) . . ?
F214 B211 F216 127.1(19) . . ?
F215 B211 F216 103.3(17) . . ?
F211 B211 F216 61.5(12) . . ?
F218 B211 F216 112.7(16) . . ?
F217 B211 F216 119.6(15) . . ?
F212 B211 F216 95.0(16) . . ?
F213 B211 F216 92.4(16) . . ?
B211 F212 F214 49.8(9) . . ?
B211 F214 F212 59.3(11) . . ?
B211 F215 F218 53.8(10) . . ?
B211 F218 F215 49.1(9) . . ?
F223 B221 F227 66.5(17) . . ?
F223 B221 F228 51.7(16) . . ?
F227 B221 F228 117.2(19) . . ?
F223 B221 F221 109.3(17) . . ?
F227 B221 F221 101(2) . . ?
F228 B221 F221 89.6(16) . . ?
F223 B221 F226 120(2) . . ?
F227 B221 F226 112.5(16) . . ?
F228 B221 F226 107.2(16) . . ?
F221 B221 F226 128(2) . . ?
F223 B221 F222 118.5(18) . . ?
F227 B221 F222 57.7(17) . . ?
F228 B221 F222 165.0(18) . . ?
F221 B221 F222 105.2(19) . . ?
F226 B221 F222 66(2) . . ?
F223 B221 F224 110.9(19) . . ?
F227 B221 F224 144(2) . . ?
F228 B221 F224 76.3(18) . . ?
F221 B221 F224 112.5(17) . . ?
F226 B221 F224 34.9(13) . . ?
F222 B221 F224 100.1(18) . . ?
F223 B221 F225 131.5(16) . . ?
F227 B221 F225 108.0(17) . . ?
F228 B221 F225 104.4(13) . . ?
F221 B221 F225 22.2(14) . . ?
F226 B221 F225 106.8(17) . . ?
F222 B221 F225 90.6(17) . . ?
F224 B221 F225 99.7(18) . . ?
F232 B231 F231 111.8(15) . . ?
F232 B231 F237 66.9(16) . . ?
F231 B231 F237 111.0(18) . . ?
F232 B231 F236 45.6(13) . . ?
F231 B231 F236 116.7(17) . . ?
F237 B231 F236 106.7(16) . . ?
F232 B231 F238 163(2) . . ?
F231 B231 F238 84.4(19) . . ?
F237 B231 F238 112.8(18) . . ?
F236 B231 F238 123.7(18) . . ?
F232 B231 F233 119.8(18) . . ?
F231 B231 F233 107.6(17) . . ?
F237 B231 F233 57.3(14) . . ?
F236 B231 F233 135.5(18) . . ?
F238 B231 F233 55.7(16) . . ?
F232 B231 F234 106.1(17) . . ?
F231 B231 F234 106.4(17) . . ?
F237 B231 F234 142(2) . . ?
F236 B231 F234 61.1(15) . . ?
F238 B231 F234 63.0(18) . . ?
F233 B231 F234 104.1(17) . . ?
F232 B231 F235 95.0(15) . . ?
F231 B231 F235 16.9(14) . . ?
F237 B231 F235 107.1(16) . . ?
F236 B231 F235 103.9(13) . . ?
F238 B231 F235 100.9(16) . . ?
F233 B231 F235 120.2(17) . . ?
F234 B231 F235 111.0(17) . . ?
F245 B241 F243 18.5(16) . . ?
F245 B241 F24A 28.9(14) . . ?
F243 B241 F24A 41.6(14) . . ?
F245 B241 F248 101.2(15) . . ?
F243 B241 F248 103.2(19) . . ?
F24A B241 F248 122.0(17) . . ?
F245 B241 F24B 165(2) . . ?
F243 B241 F24B 166(2) . . ?
F24A B241 F24B 136.4(19) . . ?
F248 B241 F24B 88.9(18) . . ?
F245 B241 F244 62.9(18) . . ?
F243 B241 F244 75.0(17) . . ?
F24A B241 F244 75.1(19) . . ?
F248 B241 F244 48.1(17) . . ?
F24B B241 F244 119(2) . . ?
F245 B241 F241 98.4(17) . . ?
F243 B241 F241 99.7(18) . . ?
F24A B241 F241 72.8(15) . . ?
F248 B241 F241 156(2) . . ?
F24B B241 F241 69.5(16) . . ?
F244 B241 F241 135(2) . . ?
F245 B241 F247 113.6(17) . . ?
F243 B241 F247 100(2) . . ?
F24A B241 F247 104.6(18) . . ?
F248 B241 F247 130.2(18) . . ?
F24B B241 F247 65.7(16) . . ?
F244 B241 F247 173(2) . . ?
F241 B241 F247 50.0(12) . . ?
F245 B241 F24C 62.3(15) . . ?
F243 B241 F24C 44.0(12) . . ?
F24A B241 F24C 82.3(14) . . ?
F248 B241 F24C 96.2(16) . . ?
F24B B241 F24C 127.7(18) . . ?
F244 B241 F24C 101(2) . . ?
F241 B241 F24C 104.7(17) . . ?
F247 B241 F24C 71.9(16) . . ?
F245 B241 F242 131(2) . . ?
F243 B241 F242 113.8(19) . . ?
F24A B241 F242 150(2) . . ?
F248 B241 F242 73.7(15) . . ?
F24B B241 F242 61.6(16) . . ?
F244 B241 F242 120.6(19) . . ?
F241 B241 F242 102.7(15) . . ?
F247 B241 F242 56.6(13) . . ?
F24C B241 F242 70.2(15) . . ?
F245 B241 F24D 61.7(11) . . ?
F243 B241 F24D 71.0(17) . . ?
F24A B241 F24D 78.6(14) . . ?
F248 B241 F24D 43.4(14) . . ?
F24B B241 F24D 123.4(17) . . ?
F244 B241 F24D 10(2) . . ?
F241 B241 F24D 144.0(19) . . ?
F247 B241 F24D 163(2) . . ?
F24C B241 F24D 92.4(14) . . ?
F242 B241 F24D 112.9(17) . . ?
F245 B241 F246 119.9(18) . . ?
F243 B241 F246 136(2) . . ?
F24A B241 F246 94.1(18) . . ?
F248 B241 F246 101.4(17) . . ?
F24B B241 F246 46.7(13) . . ?
F244 B241 F246 96(2) . . ?
F241 B241 F246 56.8(14) . . ?
F247 B241 F246 91.3(16) . . ?
F24C B241 F246 161.1(16) . . ?
F242 B241 F246 108.3(19) . . ?
F24D B241 F246 105.1(18) . . ?
B241 F243 F244 54.0(11) . . ?
B241 F244 F243 51.0(11) . . ?
O72 O13 O32 69(3) . . ?
O6 O70 O57 83(4) . 2_666 ?
O22 O72 O13 172(7) . . ?

loop_
_geom_torsion_atom_site_label_1
_geom_torsion_atom_site_label_2
_geom_torsion_atom_site_label_3
_geom_torsion_atom_site_label_4
_geom_torsion
_geom_torsion_site_symmetry_1
_geom_torsion_site_symmetry_2
_geom_torsion_site_symmetry_3
_geom_torsion_site_symmetry_4
_geom_torsion_publ_flag
C5A N1A C1A C2A -6.1(14) . . . . ?
Pd4 N1A C1A C2A 178.4(8) . . . . ?
N1A C1A C2A C3A 8.5(15) . . . . ?
C1A C2A C3A C56A 168.2(12) . . . . ?
C1A C2A C3A C4A -6.0(16) . . . . ?
C1A C2A C3A C6A 179(3) . . . . ?
C2A C3A C4A C5A 2.0(16) . . . . ?
C56A C3A C4A C5A -172.1(13) . . . . ?
C6A C3A C4A C5A 178(3) . . . . ?
C3A C4A C5A N1A 0.5(16) . . . . ?
C1A N1A C5A C4A 1.4(14) . . . . ?
Pd4 N1A C5A C4A 176.8(8) . . . . ?
C8A N2A C6A N3A 0.0 . . . . ?
C8A N2A C6A C3A 167(4) . . . . ?
C2A C3A C6A N2A -20(4) . . . . ?
C56A C3A C6A N2A 34(11) . . . . ?
C4A C3A C6A N2A 165.2(17) . . . . ?
C2A C3A C6A N3A 145(3) . . . . ?
C56A C3A C6A N3A -162(15) . . . . ?
C4A C3A C6A N3A -30(5) . . . . ?
N2A C6A N3A C7A 0.0 . . . . ?
C3A C6A N3A C7A -163(5) . . . . ?
C6A N3A C7A N4A 0.0 . . . . ?
C6A N3A C7A C9A -179(3) . . . . ?
N3A C7A N4A C8A 0.0 . . . . ?
C9A C7A N4A C8A 179(3) . . . . ?
C7A N4A C8A N2A 0.0 . . . . ?
C7A N4A C8A C12A -174(3) . . . . ?
C6A N2A C8A N4A 0.0 . . . . ?
C6A N2A C8A C12A 172(4) . . . . ?
C58A N52A C56A N53A 0.0 . . . . ?
C58A N52A C56A C3A 177.7(16) . . . . ?
C2A C3A C56A N53A -177.8(11) . . . . ?
C4A C3A C56A N53A -3.7(17) . . . . ?
C6A C3A C56A N53A 50(12) . . . . ?
C2A C3A C56A N52A 4.5(18) . . . . ?
C4A C3A C56A N52A 178.6(10) . . . . ?
C6A C3A C56A N52A -128(13) . . . . ?
N52A C56A N53A C57A 0.0 . . . . ?
C3A C56A N53A C57A -177.8(15) . . . . ?
C56A N53A C57A N54A 0.0 . . . . ?
C56A N53A C57A C59A -179.0(18) . . . . ?
N53A C57A N54A C58A 0.0 . . . . ?
C59A C57A N54A C58A 179.0(17) . . . . ?
C57A N54A C58A N52A 0.0 . . . . ?
C57A N54A C58A C12A -174.0(14) . . . . ?
C56A N52A C58A N54A 0.0 . . . . ?
C56A N52A C58A C12A 174.6(13) . . . . ?
C14A N5A C10A C11A -2.1(14) . . . . ?
Pd3 N5A C10A C11A 176.2(7) . . . . ?
N5A C10A C11A C12A 4.7(15) . . . . ?
C10A C11A C12A C13A -4.0(15) . . . . ?
C10A C11A C12A C58A -176.9(11) . . . . ?
C10A C11A C12A C8A 173(3) . . . . ?
N54A C58A C12A C13A -0.9(18) . . . . ?
N52A C58A C12A C13A -175.2(11) . . . . ?
N54A C58A C12A C11A 172.0(11) . . . . ?
N52A C58A C12A C11A -2.3(16) . . . . ?
N54A C58A C12A C8A -149(10) . . . . ?
N52A C58A C12A C8A 37(10) . . . . ?
N4A C8A C12A C13A 20(4) . . . . ?
N2A C8A C12A C13A -153(3) . . . . ?
N4A C8A C12A C11A -156.5(18) . . . . ?
N2A C8A C12A C11A 31(4) . . . . ?
N4A C8A C12A C58A 58(9) . . . . ?
N2A C8A C12A C58A -115(11) . . . . ?
C11A C12A C13A C14A 1.4(18) . . . . ?
C58A C12A C13A C14A 174.7(13) . . . . ?
C8A C12A C13A C14A -175(3) . . . . ?
C10A N5A C14A C13A -1.0(16) . . . . ?
Pd3 N5A C14A C13A -179.3(9) . . . . ?
C12A C13A C14A N5A 1(2) . . . . ?
C5B N1B C1B C2B 5.2(14) . . . . ?
Pd5 N1B C1B C2B -177.7(8) . . . . ?
N1B C1B C2B C3B -3.0(16) . . . . ?
C1B C2B C3B C4B 1.1(17) . . . . ?
C1B C2B C3B C6B 177.1(14) . . . . ?
C1B C2B C3B C56B -173.4(18) . . . . ?
C2B C3B C4B C5B -1.5(16) . . . . ?
C6B C3B C4B C5B -177.7(12) . . . . ?
C56B C3B C4B C5B 172(2) . . . . ?
C1B N1B C5B C4B -5.6(13) . . . . ?
Pd5 N1B C5B C4B 177.4(6) . . . . ?
C3B C4B C5B N1B 3.9(14) . . . . ?
C8B N2B C6B N3B 0.0 . . . . ?
C8B N2B C6B C3B -179.8(15) . . . . ?
C4B C3B C6B N3B -7(2) . . . . ?
C2B C3B C6B N3B 176.5(12) . . . . ?
C56B C3B C6B N3B 141(9) . . . . ?
C4B C3B C6B N2B 172.3(9) . . . . ?
C2B C3B C6B N2B -3.8(17) . . . . ?
C56B C3B C6B N2B -40(7) . . . . ?
N2B C6B N3B C7B 0.0 . . . . ?
C3B C6B N3B C7B 179.7(18) . . . . ?
C6B N3B C7B N4B 0.0 . . . . ?
C6B N3B C7B C9B 173.3(17) . . . . ?
N3B C7B N4B C8B 0.0 . . . . ?
C9B C7B N4B C8B -172(2) . . . . ?
C7B N4B C8B N2B 0.0 . . . . ?
C7B N4B C8B C12B 176.1(13) . . . . ?
C6B N2B C8B N4B 0.0 . . . . ?
C6B N2B C8B C12B -175.6(15) . . . . ?
C58B N52B C56B N53B 0.0 . . . . ?
C58B N52B C56B C3B 176(3) . . . . ?
C4B C3B C56B N53B -21(3) . . . . ?
C2B C3B C56B N53B 152.4(14) . . . . ?
C6B C3B C56B N53B -59(7) . . . . ?
C4B C3B C56B N52B 162.1(16) . . . . ?
C2B C3B C56B N52B -24(3) . . . . ?
C6B C3B C56B N52B 124(9) . . . . ?
N52B C56B N53B C57B 0.0 . . . . ?
C3B C56B N53B C57B -177(2) . . . . ?
C56B N53B C57B N54B 0.0 . . . . ?
C56B N53B C57B C59B 177(3) . . . . ?
N53B C57B N54B C58B 0.0 . . . . ?
C59B C57B N54B C58B -178(2) . . . . ?
C57B N54B C58B N52B 0.0 . . . . ?
C57B N54B C58B C12B -172(3) . . . . ?
C56B N52B C58B N54B 0.0 . . . . ?
C56B N52B C58B C12B 174(2) . . . . ?
C14B N5B C10B C11B 2.8(15) . . . . ?
Pd4 N5B C10B C11B -178.6(8) . . . . ?
N5B C10B C11B C12B -3.4(18) . . . . ?
C10B C11B C12B C13B 3(2) . . . . ?
C10B C11B C12B C58B 162.8(18) . . . . ?
C10B C11B C12B C8B -173.6(12) . . . . ?
N54B C58B C12B C11B -150(2) . . . . ?
N52B C58B C12B C11B 37(2) . . . . ?
N54B C58B C12B C13B 11(3) . . . . ?
N52B C58B C12B C13B -161.6(13) . . . . ?
N54B C58B C12B C8B 126(6) . . . . ?
N52B C58B C12B C8B -47(4) . . . . ?
N4B C8B C12B C11B -176.2(12) . . . . ?
N2B C8B C12B C11B -0.4(19) . . . . ?
N4B C8B C12B C13B 7.5(17) . . . . ?
N2B C8B C12B C13B -176.6(12) . . . . ?
N4B C8B C12B C58B -70(4) . . . . ?
N2B C8B C12B C58B 106(5) . . . . ?
C11B C12B C13B C14B -1.6(18) . . . . ?
C58B C12B C13B C14B -162.7(18) . . . . ?
C8B C12B C13B C14B 174.5(13) . . . . ?
C10B N5B C14B C13B -1.8(16) . . . . ?
Pd4 N5B C14B C13B 179.6(9) . . . . ?
C12B C13B C14B N5B 1.2(18) . . . . ?
C5C N1C C1C C2C 3.0(13) . . . . ?
Pd5 N1C C1C C2C 178.6(7) . . . . ?
N1C C1C C2C C3C -4.2(14) . . . . ?
C1C C2C C3C C4C 1.1(13) . . . . ?
C1C C2C C3C C6C -177.2(8) . . . . ?
C2C C3C C4C C5C 3.1(12) . . . . ?
C6C C3C C4C C5C -178.6(7) . . . . ?
C1C N1C C5C C4C 1.5(13) . . . . ?
Pd5 N1C C5C C4C -173.9(6) . . . . ?
C3C C4C C5C N1C -4.7(13) . . . . ?
C8C N2C C6C N3C -1.5(11) . . . . ?
C8C N2C C6C C3C 178.9(7) . . . . ?
C2C C3C C6C N3C -173.6(8) . . . . ?
C4C C3C C6C N3C 8.1(12) . . . . ?
C2C C3C C6C N2C 6.0(12) . . . . ?
C4C C3C C6C N2C -172.3(7) . . . . ?
N2C C6C N3C C7C 0.2(11) . . . . ?
C3C C6C N3C C7C 179.8(7) . . . . ?
C6C N3C C7C N4C 3.1(12) . . . . ?
C6C N3C C7C C9C 176.9(7) . . . . ?
N3C C7C N4C C8C -4.6(12) . . . . ?
C9C C7C N4C C8C -178.4(7) . . . . ?
C6C N2C C8C N4C -0.3(12) . . . . ?
C6C N2C C8C C12C -175.0(6) . . . . ?
C7C N4C C8C N2C 3.1(12) . . . . ?
C7C N4C C8C C12C 177.8(7) . . . . ?
C14C N5C C10C C11C -4.6(13) . . . . ?
Pd3 N5C C10C C11C -175.5(7) . . . . ?
N5C C10C C11C C12C 4.7(14) . . . . ?
C10C C11C C12C C13C -4.2(13) . . . . ?
C10C C11C C12C C8C 175.9(8) . . . . ?
N2C C8C C12C C11C -6.1(11) . . . . ?
N4C C8C C12C C11C 178.7(7) . . . . ?
N2C C8C C12C C13C 174.0(7) . . . . ?
N4C C8C C12C C13C -1.2(11) . . . . ?
C11C C12C C13C C14C 4.1(12) . . . . ?
C8C C12C C13C C14C -176.1(7) . . . . ?
C10C N5C C14C C13C 4.4(12) . . . . ?
Pd3 N5C C14C C13C 175.1(6) . . . . ?
C12C C13C C14C N5C -4.3(13) . . . . ?
C5D N1D C1D C2D -0.6(13) . . . . ?
Pd3 N1D C1D C2D 179.2(7) . . . . ?
N1D C1D C2D C3D -1.4(15) . . . . ?
C1D C2D C3D C4D 0.9(16) . . . . ?
C1D C2D C3D C6D -161.8(15) . . . . ?
C1D C2D C3D C56D 173.3(19) . . . . ?
C2D C3D C4D C5D 1.7(17) . . . . ?
C6D C3D C4D C5D 163.8(16) . . . . ?
C56D C3D C4D C5D -170(2) . . . . ?
C3D C4D C5D N1D -3.9(16) . . . . ?
C1D N1D C5D C4D 3.4(13) . . . . ?
Pd3 N1D C5D C4D -176.4(8) . . . . ?
C8D N2D C6D N3D 0.0 . . . . ?
C8D N2D C6D C3D -168.6(19) . . . . ?
C4D C3D C6D N2D -179.3(12) . . . . ?
C2D C3D C6D N2D -16(2) . . . . ?
C56D C3D C6D N2D 82(5) . . . . ?
C4D C3D C6D N3D 11.8(18) . . . . ?
C2D C3D C6D N3D 174.8(11) . . . . ?
C56D C3D C6D N3D -87(5) . . . . ?
N2D C6D N3D C7D 0.0 . . . . ?
C3D C6D N3D C7D 169.3(18) . . . . ?
C6D N3D C7D N4D 0.0 . . . . ?
C6D N3D C7D C9D -179.9(18) . . . . ?
N3D C7D N4D C8D 0.0 . . . . ?
C9D C7D N4D C8D 179.9(18) . . . . ?
C7D N4D C8D N2D 0.0 . . . . ?
C7D N4D C8D C12D 178(2) . . . . ?
C6D N2D C8D N4D 0.0 . . . . ?
C6D N2D C8D C12D -178.1(17) . . . . ?
C58D N52D C56D N53D 0.0 . . . . ?
C58D N52D C56D C3D 174(3) . . . . ?
C4D C3D C56D N52D -169.0(14) . . . . ?
C2D C3D C56D N52D 19(2) . . . . ?
C6D C3D C56D N52D -74(5) . . . . ?
C4D C3D C56D N53D 5(3) . . . . ?
C2D C3D C56D N53D -167.8(18) . . . . ?
C6D C3D C56D N53D 99(6) . . . . ?
N52D C56D N53D C57D 0.0 . . . . ?
C3D C56D N53D C57D -173(3) . . . . ?
C56D N53D C57D N54D 0.0 . . . . ?
C56D N53D C57D C59D 174(2) . . . . ?
N53D C57D N54D C58D 0.0 . . . . ?
C59D C57D N54D C58D -173(3) . . . . ?
C57D N54D C58D N52D 0.0 . . . . ?
C57D N54D C58D C12D 166(3) . . . . ?
C56D N52D C58D N54D 0.0 . . . . ?
C56D N52D C58D C12D -165(3) . . . . ?
C14D N5D C10D C11D 0.3(14) . . . . ?
Pd2 N5D C10D C11D -176.8(8) . . . . ?
N5D C10D C11D C12D -1.3(16) . . . . ?
C10D C11D C12D C58D -167(2) . . . . ?
C10D C11D C12D C13D 3.3(16) . . . . ?
C10D C11D C12D C8D 170.4(16) . . . . ?
N54D C58D C12D C11D 168.4(16) . . . . ?
N52D C58D C12D C11D -26(3) . . . . ?
N54D C58D C12D C13D -1(3) . . . . ?
N52D C58D C12D C13D 164.7(16) . . . . ?
N54D C58D C12D C8D -72(5) . . . . ?
N52D C58D C12D C8D 93(6) . . . . ?
N4D C8D C12D C11D -172.0(12) . . . . ?
N2D C8D C12D C11D 6(2) . . . . ?
N4D C8D C12D C58D 116(6) . . . . ?
N2D C8D C12D C58D -66(5) . . . . ?
N4D C8D C12D C13D -5(2) . . . . ?
N2D C8D C12D C13D 173.3(11) . . . . ?
C11D C12D C13D C14D -4.5(19) . . . . ?
C58D C12D C13D C14D 164(2) . . . . ?
C8D C12D C13D C14D -172.8(16) . . . . ?
C10D N5D C14D C13D -1.7(17) . . . . ?
Pd2 N5D C14D C13D 175.4(10) . . . . ?
C12D C13D C14D N5D 4(2) . . . . ?
C5E N1E C1E C2E 1.3(14) . . . . ?
Pd1 N1E C1E C2E 179.7(8) . . . . ?
N1E C1E C2E C3E -1.1(17) . . . . ?
C1E C2E C3E C4E 0.4(17) . . . . ?
C1E C2E C3E C6E 161(2) . . . . ?
C1E C2E C3E C56E -173.7(11) . . . . ?
C2E C3E C4E C5E 0.0(14) . . . . ?
C6E C3E C4E C5E -162.1(18) . . . . ?
C56E C3E C4E C5E 173.8(10) . . . . ?
C1E N1E C5E C4E -0.8(12) . . . . ?
Pd1 N1E C5E C4E -179.2(6) . . . . ?
C3E C4E C5E N1E 0.2(13) . . . . ?
C8E N2E C6E N3E 0.0 . . . . ?
C8E N2E C6E C3E 175(2) . . . . ?
C4E C3E C6E N3E 19(4) . . . . ?
C2E C3E C6E N3E -143(2) . . . . ?
C56E C3E C6E N3E 135(6) . . . . ?
C4E C3E C6E N2E -154.0(14) . . . . ?
C2E C3E C6E N2E 44(2) . . . . ?
C56E C3E C6E N2E -39(3) . . . . ?
N2E C6E N3E C7E 0.0 . . . . ?
C3E C6E N3E C7E -172(4) . . . . ?
C6E N3E C7E N4E 0.0 . . . . ?
C6E N3E C7E C9E 177(2) . . . . ?
N3E C7E N4E C8E 0.0 . . . . ?
C9E C7E N4E C8E -176(3) . . . . ?
C7E N4E C8E N2E 0.0 . . . . ?
C7E N4E C8E C12E -165(2) . . . . ?
C6E N2E C8E N4E 0.0 . . . . ?
C6E N2E C8E C12E 160(3) . . . . ?
C58E N52E C56E N53E 0.0 . . . . ?
C58E N52E C56E C3E -178.6(13) . . . . ?
C4E C3E C56E N52E -174.0(10) . . . . ?
C2E C3E C56E N52E -0.1(16) . . . . ?
C6E C3E C56E N52E 110(4) . . . . ?
C4E C3E C56E N53E 7.3(15) . . . . ?
C2E C3E C56E N53E -178.7(10) . . . . ?
C6E C3E C56E N53E -69(4) . . . . ?
N52E C56E N53E C57E 0.0 . . . . ?
C3E C56E N53E C57E 178.7(12) . . . . ?
C56E N53E C57E N54E 0.0 . . . . ?
C56E N53E C57E C59E -172.9(19) . . . . ?
N53E C57E N54E C58E 0.0 . . . . ?
C59E C57E N54E C58E 173.8(16) . . . . ?
C57E N54E C58E N52E 0.0 . . . . ?
C57E N54E C58E C12E -179.6(16) . . . . ?
C56E N52E C58E N54E 0.0 . . . . ?
C56E N52E C58E C12E 179.7(14) . . . . ?
C14E N5E C10E C11E -3.2(15) . . . . ?
Pd3 N5E C10E C11E 177.0(8) . . . . ?
N5E C10E C11E C12E 3.6(18) . . . . ?
C10E C11E C12E C13E -3.7(18) . . . . ?
C10E C11E C12E C58E 175.5(13) . . . . ?
C10E C11E C12E C8E 179.6(17) . . . . ?
N54E C58E C12E C11E 175.8(12) . . . . ?
N52E C58E C12E C11E -3.8(18) . . . . ?
N54E C58E C12E C13E -5.0(19) . . . . ?
N52E C58E C12E C13E 175.4(9) . . . . ?
N54E C58E C12E C8E 155(11) . . . . ?
N52E C58E C12E C8E -24(10) . . . . ?
N4E C8E C12E C11E 144.6(16) . . . . ?
N2E C8E C12E C11E -18(3) . . . . ?
N4E C8E C12E C13E -32(2) . . . . ?
N2E C8E C12E C13E 165.9(16) . . . . ?
N4E C8E C12E C58E -54(10) . . . . ?
N2E C8E C12E C58E 144(12) . . . . ?
C11E C12E C13E C14E 3.7(17) . . . . ?
C58E C12E C13E C14E -175.5(13) . . . . ?
C8E C12E C13E C14E -179.9(19) . . . . ?
C10E N5E C14E C13E 3.4(16) . . . . ?
Pd3 N5E C14E C13E -176.8(9) . . . . ?
C12E C13E C14E N5E -3.7(18) . . . . ?
C5F N1F C1F C2F 0.5(12) . . . . ?
Pd2 N1F C1F C2F 176.0(6) . . . . ?
N1F C1F C2F C3F -2.6(13) . . . . ?
C1F C2F C3F C4F 3.3(13) . . . . ?
C1F C2F C3F C6F -175.3(7) . . . . ?
C2F C3F C4F C5F -1.9(12) . . . . ?
C6F C3F C4F C5F 176.7(7) . . . . ?
C3F C4F C5F N1F -0.2(12) . . . . ?
C1F N1F C5F C4F 0.9(11) . . . . ?
Pd2 N1F C5F C4F -174.5(6) . . . . ?
C8F N2F C6F N3F -1.4(11) . . . . ?
C8F N2F C6F C3F 175.9(6) . . . . ?
C2F C3F C6F N2F 4.0(11) . . . . ?
C4F C3F C6F N2F -174.5(7) . . . . ?
C2F C3F C6F N3F -178.4(7) . . . . ?
C4F C3F C6F N3F 3.0(11) . . . . ?
N2F C6F N3F C7F -0.2(11) . . . . ?
C3F C6F N3F C7F -177.6(6) . . . . ?
C6F N3F C7F N4F 1.9(11) . . . . ?
C6F N3F C7F C9F 177.6(7) . . . . ?
N3F C7F N4F C8F -1.7(11) . . . . ?
C9F C7F N4F C8F -177.3(7) . . . . ?
C7F N4F C8F N2F -0.1(11) . . . . ?
C7F N4F C8F C12F 177.9(7) . . . . ?
C6F N2F C8F N4F 1.6(11) . . . . ?
C6F N2F C8F C12F -176.4(7) . . . . ?
C14F N5F C10F C11F -8.5(13) . . . . ?
Pd1 N5F C10F C11F 177.0(7) . . . . ?
N5F C10F C11F C12F 11.6(15) . . . . ?
C10F C11F C12F C13F -8.2(14) . . . . ?
C10F C11F C12F C8F 174.4(8) . . . . ?
N4F C8F C12F C13F -5.6(11) . . . . ?
N2F C8F C12F C13F 172.6(7) . . . . ?
N4F C8F C12F C11F 171.7(8) . . . . ?
N2F C8F C12F C11F -10.1(12) . . . . ?
C11F C12F C13F C14F 2.1(12) . . . . ?
C8F C12F C13F C14F 179.5(7) . . . . ?
C10F N5F C14F C13F 2.1(12) . . . . ?
Pd1 N5F C14F C13F 176.6(6) . . . . ?
C12F C13F C14F N5F 1.2(12) . . . . ?
C5G N1G C1G C2G -3.1(15) . . . . ?
Pd2 N1G C1G C2G 177.8(8) . . . . ?
N1G C1G C2G C3G 5.6(19) . . . . ?
C1G C2G C3G C4G -5(2) . . . . ?
C1G C2G C3G C6G -177.4(13) . . . . ?
C1G C2G C3G C56G 166(2) . . . . ?
C2G C3G C4G C5G 1.7(19) . . . . ?
C6G C3G C4G C5G 174.3(13) . . . . ?
C56G C3G C4G C5G -170.3(18) . . . . ?
C1G N1G C5G C4G 0.3(16) . . . . ?
Pd2 N1G C5G C4G 179.4(8) . . . . ?
C3G C4G C5G N1G 0.4(19) . . . . ?
C8G N2G C6G N3G 0.0 . . . . ?
C8G N2G C6G C3G -175.6(15) . . . . ?
C2G C3G C6G N2G -3.7(19) . . . . ?
C4G C3G C6G N2G -176.1(11) . . . . ?
C56G C3G C6G N2G 122(6) . . . . ?
C2G C3G C6G N3G -179.5(12) . . . . ?
C4G C3G C6G N3G 8.1(19) . . . . ?
C56G C3G C6G N3G -54(6) . . . . ?
N2G C6G N3G C7G 0.0 . . . . ?
C3G C6G N3G C7G 176.0(14) . . . . ?
C6G N3G C7G N4G 0.0 . . . . ?
C6G N3G C7G C9G -177.4(18) . . . . ?
N3G C7G N4G C8G 0.0 . . . . ?
C9G C7G N4G C8G 177.5(17) . . . . ?
C7G N4G C8G N2G 0.0 . . . . ?
C7G N4G C8G C12G 178.8(14) . . . . ?
C6G N2G C8G N4G 0.0 . . . . ?
C6G N2G C8G C12G -179.0(13) . . . . ?
C58G N52G C56G N53G 0.0 . . . . ?
C58G N52G C56G C3G -168(2) . . . . ?
C2G C3G C56G N52G 26(3) . . . . ?
C4G C3G C56G N52G -162.7(13) . . . . ?
C6G C3G C56G N52G -37(6) . . . . ?
C2G C3G C56G N53G -139(2) . . . . ?
C4G C3G C56G N53G 32(3) . . . . ?
C6G C3G C56G N53G 157(8) . . . . ?
N52G C56G N53G C57G 0.0 . . . . ?
C3G C56G N53G C57G 164(3) . . . . ?
C56G N53G C57G N54G 0.0 . . . . ?
C56G N53G C57G C59G -178(2) . . . . ?
N53G C57G N54G C58G 0.0 . . . . ?
C59G C57G N54G C58G 176(3) . . . . ?
C57G N54G C58G N52G 0.0 . . . . ?
C57G N54G C58G C12G 174(2) . . . . ?
C56G N52G C58G N54G 0.0 . . . . ?
C56G N52G C58G C12G -172(3) . . . . ?
C14G N5G C10G C11G -0.4(14) . . . . ?
Pd6 N5G C10G C11G -179.6(8) . . . . ?
N5G C10G C11G C12G 0.2(18) . . . . ?
C10G C11G C12G C13G -1.3(18) . . . . ?
C10G C11G C12G C8G 175.2(12) . . . . ?
C10G C11G C12G C58G -170.9(19) . . . . ?
N4G C8G C12G C11G 178.3(12) . . . . ?
N2G C8G C12G C11G -2.8(15) . . . . ?
N4G C8G C12G C13G -5.1(18) . . . . ?
N2G C8G C12G C13G 173.8(9) . . . . ?
N4G C8G C12G C58G 128(6) . . . . ?
N2G C8G C12G C58G -53(6) . . . . ?
N54G C58G C12G C11G 146.4(14) . . . . ?
N52G C58G C12G C11G -41(3) . . . . ?
N54G C58G C12G C13G -22(3) . . . . ?
N52G C58G C12G C13G 150.7(18) . . . . ?
N54G C58G C12G C8G -78(5) . . . . ?
N52G C58G C12G C8G 95(6) . . . . ?
C11G C12G C13G C14G 2.5(16) . . . . ?
C8G C12G C13G C14G -174.1(11) . . . . ?
C58G C12G C13G C14G 170(2) . . . . ?
C12G C13G C14G N5G -2.8(14) . . . . ?
C10G N5G C14G C13G 1.7(12) . . . . ?
Pd6 N5G C14G C13G -179.1(7) . . . . ?
C5H N1H C1H C2H -3.7(14) . . . . ?
Pd4 N1H C1H C2H 174.7(8) 2_576 . . . ?
N1H C1H C2H C3H 4.0(16) . . . . ?
C1H C2H C3H C4H 0.1(15) . . . . ?
C1H C2H C3H C56H -161.4(19) . . . . ?
C1H C2H C3H C6H 171.2(12) . . . . ?
C2H C3H C4H C5H -3.9(18) . . . . ?
C56H C3H C4H C5H 157(2) . . . . ?
C6H C3H C4H C5H -173.8(15) . . . . ?
C1H N1H C5H C4H -0.4(16) . . . . ?
Pd4 N1H C5H C4H -178.8(10) 2_576 . . . ?
C3H C4H C5H N1H 4(2) . . . . ?
C8H N2H C6H N3H 0.0 . . . . ?
C8H N2H C6H C3H 166.7(19) . . . . ?
C4H C3H C6H N3H 0.1(18) . . . . ?
C2H C3H C6H N3H -170.0(11) . . . . ?
C56H C3H C6H N3H 86(4) . . . . ?
C4H C3H C6H N2H -167.4(16) . . . . ?
C2H C3H C6H N2H 22(2) . . . . ?
C56H C3H C6H N2H -81(4) . . . . ?
N2H C6H N3H C7H 0.0 . . . . ?
C3H C6H N3H C7H -168.3(17) . . . . ?
C6H N3H C7H N4H 0.0 . . . . ?
C6H N3H C7H C9H 176(2) . . . . ?
N3H C7H N4H C8H 0.0 . . . . ?
C9H C7H N4H C8H -176.9(19) . . . . ?
C7H N4H C8H N2H 0.0 . . . . ?
C7H N4H C8H C12H -171(3) . . . . ?
C6H N2H C8H N4H 0.0 . . . . ?
C6H N2H C8H C12H 173(2) . . . . ?
C58H N52H C56H N53H 0.0 . . . . ?
C58H N52H C56H C3H -161(2) . . . . ?
C4H C3H C56H N53H 8(3) . . . . ?
C2H C3H C56H N53H 168.7(14) . . . . ?
C6H C3H C56H N53H -102(4) . . . . ?
C4H C3H C56H N52H 167.0(14) . . . . ?
C2H C3H C56H N52H -32(2) . . . . ?
C6H C3H C56H N52H 57(3) . . . . ?
N52H C56H N53H C57H 0.0 . . . . ?
C3H C56H N53H C57H 157(3) . . . . ?
C56H N53H C57H N54H 0.0 . . . . ?
C56H N53H C57H C59H 176.4(19) . . . . ?
N53H C57H N54H C58H 0.0 . . . . ?
C59H C57H N54H C58H -175(2) . . . . ?
C57H N54H C58H N52H 0.0 . . . . ?
C57H N54H C58H C12H 155(2) . . . . ?
C56H N52H C58H N54H 0.0 . . . . ?
C56H N52H C58H C12H -148(3) . . . . ?
C14H N5H C10H C11H 0.4(13) . . . . ?
Pd2 N5H C10H C11H -177.0(8) . . . . ?
N5H C10H C11H C12H 1.5(15) . . . . ?
C10H C11H C12H C13H -4.7(16) . . . . ?
C10H C11H C12H C58H -178.6(18) . . . . ?
C10H C11H C12H C8H 175.8(16) . . . . ?
N54H C58H C12H C13H 16(2) . . . . ?
N52H C58H C12H C13H 168.4(16) . . . . ?
N54H C58H C12H C11H -170.2(12) . . . . ?
N52H C58H C12H C11H -18(3) . . . . ?
N54H C58H C12H C8H -10(10) . . . . ?
N52H C58H C12H C8H 142(12) . . . . ?
N4H C8H C12H C13H -11(2) . . . . ?
N2H C8H C12H C13H 176.9(10) . . . . ?
N4H C8H C12H C11H 168.3(13) . . . . ?
N2H C8H C12H C11H -4(2) . . . . ?
N4H C8H C12H C58H 146(12) . . . . ?
N2H C8H C12H C58H -26(10) . . . . ?
C11H C12H C13H C14H 5.9(17) . . . . ?
C58H C12H C13H C14H 179(2) . . . . ?
C8H C12H C13H C14H -174.5(15) . . . . ?
C12H C13H C14H N5H -3.9(16) . . . . ?
C10H N5H C14H C13H 0.7(13) . . . . ?
Pd2 N5H C14H C13H 178.2(7) . . . . ?
C5I N1I C1I C2I 0.8(13) . . . . ?
Pd6 N1I C1I C2I 177.1(7) . . . . ?
N1I C1I C2I C3I -0.9(15) . . . . ?
C1I C2I C3I C4I 0.0(14) . . . . ?
C1I C2I C3I C6I -179.4(8) . . . . ?
C2I C3I C4I C5I 0.9(12) . . . . ?
C6I C3I C4I C5I -179.8(8) . . . . ?
C1I N1I C5I C4I 0.1(12) . . . . ?
Pd6 N1I C5I C4I -176.1(6) . . . . ?
C3I C4I C5I N1I -1.0(13) . . . . ?
C8I N2I C6I N3I 2.2(11) . . . . ?
C8I N2I C6I C3I 177.8(7) . . . . ?
C4I C3I C6I N3I 5.7(12) . . . . ?
C2I C3I C6I N3I -175.0(8) . . . . ?
C4I C3I C6I N2I -170.2(7) . . . . ?
C2I C3I C6I N2I 9.1(12) . . . . ?
N2I C6I N3I C7I -2.1(12) . . . . ?
C3I C6I N3I C7I -177.8(7) . . . . ?
C6I N3I C7I N4I 1.3(12) . . . . ?
C6I N3I C7I C9I 178.2(7) . . . . ?
N3I C7I N4I C8I -0.6(11) . . . . ?
C9I C7I N4I C8I -177.6(7) . . . . ?
C6I N2I C8I N4I -1.4(12) . . . . ?
C6I N2I C8I C12I -178.6(6) . . . . ?
C7I N4I C8I N2I 0.7(12) . . . . ?
C7I N4I C8I C12I 177.9(6) . . . . ?
C14I N5I C10I C11I 2.5(12) . . . . ?
Pd4 N5I C10I C11I -171.7(6) 2_576 . . . ?
N5I C10I C11I C12I -2.4(13) . . . . ?
C10I C11I C12I C13I -0.5(12) . . . . ?
C10I C11I C12I C8I 177.8(7) . . . . ?
N2I C8I C12I C11I -4.5(11) . . . . ?
N4I C8I C12I C11I 178.0(7) . . . . ?
N2I C8I C12I C13I 173.7(7) . . . . ?
N4I C8I C12I C13I -3.8(11) . . . . ?
C11I C12I C13I C14I 3.1(12) . . . . ?
C8I C12I C13I C14I -175.1(7) . . . . ?
C12I C13I C14I N5I -3.0(12) . . . . ?
C10I N5I C14I C13I 0.1(11) . . . . ?
Pd4 N5I C14I C13I 174.3(5) 2_576 . . . ?
C5J N1J C1J C2J -3.7(14) . . . . ?
Pd6 N1J C1J C2J 178.4(7) . . . . ?
N1J C1J C2J C3J 2.2(16) . . . . ?
C1J C2J C3J C4J 0.0(17) . . . . ?
C1J C2J C3J C6J 178.9(9) . . . . ?
C2J C3J C4J C5J -0.6(17) . . . . ?
C6J C3J C4J C5J -179.5(10) . . . . ?
C1J N1J C5J C4J 3.1(15) . . . . ?
Pd6 N1J C5J C4J -179.0(8) . . . . ?
C3J C4J C5J N1J -1.0(17) . . . . ?
C8J N2J C6J N3J 0.0 . . . . ?
C8J N2J C6J C3J -179.6(9) . . . . ?
C2J C3J C6J N2J 10.3(14) . . . . ?
C4J C3J C6J N2J -170.9(9) . . . . ?
C2J C3J C6J N3J -169.3(9) . . . . ?
C4J C3J C6J N3J 9.5(14) . . . . ?
N2J C6J N3J C7J 0.0 . . . . ?
C3J C6J N3J C7J 179.6(9) . . . . ?
C6J N3J C7J N4J 0.0 . . . . ?
C6J N3J C7J C9J 179.9(14) . . . . ?
N3J C7J N4J C8J 0.0 . . . . ?
C9J C7J N4J C8J -179.9(15) . . . . ?
C7J N4J C8J N2J 0.0 . . . . ?
C7J N4J C8J C12J 178.0(9) . . . . ?
C6J N2J C8J N4J 0.0 . . . . ?
C6J N2J C8J C12J -178.0(9) . . . . ?
C14J N5J C10J C11J -1.4(15) . . . . ?
Pd5 N5J C10J C11J -176.5(8) . . . . ?
N5J C10J C11J C12J 0.9(16) . . . . ?
C10J C11J C12J C13J -3.2(16) . . . . ?
C10J C11J C12J C8J 178.9(9) . . . . ?
N4J C8J C12J C13J -4.4(13) . . . . ?
N2J C8J C12J C13J 173.6(8) . . . . ?
N4J C8J C12J C11J 173.5(8) . . . . ?
N2J C8J C12J C11J -8.5(13) . . . . ?
C11J C12J C13J C14J 5.7(16) . . . . ?
C8J C12J C13J C14J -176.5(9) . . . . ?
C10J N5J C14J C13J 4.2(14) . . . . ?
Pd5 N5J C14J C13J 179.3(8) . . . . ?
C12J C13J C14J N5J -6.3(16) . . . . ?
C5K N1K C1K C2K 5.7(14) . . . . ?
Pd1 N1K C1K C2K -174.3(8) 2_576 . . . ?
N1K C1K C2K C3K -6.8(16) . . . . ?
C1K C2K C3K C6K 179.8(9) . . . . ?
C1K C2K C3K C4K 3.7(15) . . . . ?
C2K C3K C4K C5K 0.0(15) . . . . ?
C6K C3K C4K C5K -176.1(9) . . . . ?
C1K N1K C5K C4K -1.7(15) . . . . ?
Pd1 N1K C5K C4K 178.3(8) 2_576 . . . ?
C3K C4K C5K N1K -1.0(16) . . . . ?
C2K C3K C6K N3K 176.2(8) . . . . ?
C4K C3K C6K N3K -7.8(11) . . . . ?
C2K C3K C6K N2K -3.1(12) . . . . ?
C4K C3K C6K N2K 172.9(7) . . . . ?
C8K N2K C6K C3K 179.3(8) . . . . ?
C8K N2K C6K N3K 0.0 . . . . ?
C3K C6K N3K C7K -179.3(8) . . . . ?
N2K C6K N3K C7K 0.0 . . . . ?
C6K N3K C7K N4K 0.0 . . . . ?
C6K N3K C7K C9K -175.7(14) . . . . ?
N3K C7K N4K C8K 0.0 . . . . ?
C9K C7K N4K C8K 175.6(14) . . . . ?
C7K N4K C8K N2K 0.0 . . . . ?
C7K N4K C8K C12K -177.9(9) . . . . ?
C6K N2K C8K N4K 0.0 . . . . ?
C6K N2K C8K C12K 177.9(8) . . . . ?
C14K N5K C10K C11K 0.9(14) . . . . ?
Pd5 N5K C10K C11K -179.4(8) . . . . ?
N5K C10K C11K C12K -1.9(16) . . . . ?
C10K C11K C12K C13K 0.2(16) . . . . ?
C10K C11K C12K C8K 179.1(9) . . . . ?
N4K C8K C12K C11K -168.3(8) . . . . ?
N2K C8K C12K C11K 13.8(13) . . . . ?
N4K C8K C12K C13K 10.6(13) . . . . ?
N2K C8K C12K C13K -167.4(9) . . . . ?
C11K C12K C13K C14K 2.4(17) . . . . ?
C8K C12K C13K C14K -176.5(10) . . . . ?
C10K N5K C14K C13K 1.8(15) . . . . ?
Pd5 N5K C14K C13K -177.9(8) . . . . ?
C12K C13K C14K N5K -3.6(18) . . . . ?
C5L N1L C1L C2L 2.2(14) . . . . ?
Pd6 N1L C1L C2L -177.0(8) . . . . ?
N1L C1L C2L C3L -1.6(16) . . . . ?
C1L C2L C3L C4L 0.7(15) . . . . ?
C1L C2L C3L C6L 179.7(9) . . . . ?
C2L C3L C4L C5L -0.4(16) . . . . ?
C6L C3L C4L C5L -179.4(9) . . . . ?
C1L N1L C5L C4L -1.9(14) . . . . ?
Pd6 N1L C5L C4L 177.3(8) . . . . ?
C3L C4L C5L N1L 1.0(16) . . . . ?
C8L N2L C6L N3L 0.0 . . . . ?
C8L N2L C6L C3L -174.4(8) . . . . ?
C4L C3L C6L N2L 169.0(8) . . . . ?
C2L C3L C6L N2L -10.1(12) . . . . ?
C4L C3L C6L N3L -5.5(12) . . . . ?
C2L C3L C6L N3L 175.4(7) . . . . ?
N2L C6L N3L C7L 0.0 . . . . ?
C3L C6L N3L C7L 174.5(8) . . . . ?
C6L N3L C7L N4L 0.0 . . . . ?
C6L N3L C7L C9L 174.3(13) . . . . ?
N3L C7L N4L C8L 0.0 . . . . ?
C9L C7L N4L C8L -174.1(14) . . . . ?
C7L N4L C8L N2L 0.0 . . . . ?
C7L N4L C8L C12L 175.6(9) . . . . ?
C6L N2L C8L N4L 0.0 . . . . ?
C6L N2L C8L C12L -175.8(9) . . . . ?
C14L N5L C10L C11L 2.3(14) . . . . ?
Pd1 N5L C10L C11L 179.6(7) 2_576 . . . ?
N5L C10L C11L C12L -0.3(16) . . . . ?
C10L C11L C12L C13L -0.7(17) . . . . ?
C10L C11L C12L C8L -177.6(10) . . . . ?
N4L C8L C12L C11L -170.5(9) . . . . ?
N2L C8L C12L C11L 5.2(15) . . . . ?
N4L C8L C12L C13L 12.7(14) . . . . ?
N2L C8L C12L C13L -171.6(9) . . . . ?
C11L C12L C13L C14L -0.2(18) . . . . ?
C8L C12L C13L C14L 176.8(10) . . . . ?
C10L N5L C14L C13L -3.2(14) . . . . ?
Pd1 N5L C14L C13L 179.5(8) 2_576 . . . ?
C12L C13L C14L N5L 2.2(17) . . . . ?
C5M N1M C1M C2M -0.3(11) . . . . ?
Pd8 N1M C1M C2M 176.4(6) . . . . ?
N1M C1M C2M C3M -0.4(12) . . . . ?
C1M C2M C3M C4M 0.2(11) . . . . ?
C1M C2M C3M C6M -179.0(7) . . . . ?
C2M C3M C4M C5M 0.7(12) . . . . ?
C6M C3M C4M C5M 179.9(7) . . . . ?
C1M N1M C5M C4M 1.2(11) . . . . ?
Pd8 N1M C5M C4M -175.6(5) . . . . ?
C3M C4M C5M N1M -1.4(12) . . . . ?
C8M N2M C6M N3M -2.5(11) . . . . ?
C8M N2M C6M C3M 176.2(6) . . . . ?
C2M C3M C6M N2M -2.8(10) . . . . ?
C4M C3M C6M N2M 178.1(7) . . . . ?
C2M C3M C6M N3M 176.1(7) . . . . ?
C4M C3M C6M N3M -3.1(10) . . . . ?
N2M C6M N3M C7M 2.6(11) . . . . ?
C3M C6M N3M C7M -176.1(6) . . . . ?
C6M N3M C7M N4M -1.8(12) . . . . ?
C6M N3M C7M C9M 174.5(7) . . . . ?
N3M C7M N4M C8M 1.0(13) . . . . ?
C9M C7M N4M C8M -175.3(7) . . . . ?
C7M N4M C8M N2M -0.7(11) . . . . ?
C7M N4M C8M C12M -179.8(7) . . . . ?
C6M N2M C8M N4M 1.5(11) . . . . ?
C6M N2M C8M C12M -179.4(6) . . . . ?
C14M N5M C10M C11M 2.5(12) . . . . ?
Pd12 N5M C10M C11M -175.9(7) . . . . ?
N5M C10M C11M C12M -2.2(14) . . . . ?
C10M C11M C12M C13M 1.4(13) . . . . ?
C10M C11M C12M C8M 176.8(7) . . . . ?
N4M C8M C12M C13M -2.2(11) . . . . ?
N2M C8M C12M C13M 178.7(7) . . . . ?
N4M C8M C12M C11M -177.4(7) . . . . ?
N2M C8M C12M C11M 3.4(11) . . . . ?
C11M C12M C13M C14M -1.2(13) . . . . ?
C8M C12M C13M C14M -176.5(7) . . . . ?
C10M N5M C14M C13M -2.2(12) . . . . ?
Pd12 N5M C14M C13M 176.3(6) . . . . ?
C12M C13M C14M N5M 1.6(13) . . . . ?
C5N N1N C1N C2N -4.1(14) . . . . ?
Pd9 N1N C1N C2N 175.1(7) . . . . ?
N1N C1N C2N C3N 2.7(16) . . . . ?
C1N C2N C3N C4N 0.0(14) . . . . ?
C1N C2N C3N C6N -179.4(8) . . . . ?
C2N C3N C4N C5N -1.2(14) . . . . ?
C6N C3N C4N C5N 178.3(8) . . . . ?
C1N N1N C5N C4N 2.7(12) . . . . ?
Pd9 N1N C5N C4N -176.5(6) . . . . ?
C3N C4N C5N N1N -0.2(15) . . . . ?
C8N N2N C6N N3N -5.7(13) . . . . ?
C8N N2N C6N C3N 179.3(7) . . . . ?
C4N C3N C6N N2N -173.2(8) . . . . ?
C2N C3N C6N N2N 6.2(12) . . . . ?
C4N C3N C6N N3N 11.3(13) . . . . ?
C2N C3N C6N N3N -169.3(9) . . . . ?
N2N C6N N3N C7N 6.8(15) . . . . ?
C3N C6N N3N C7N -178.2(9) . . . . ?
C6N N3N C7N N4N -5.3(18) . . . . ?
C6N N3N C7N C9N 176.1(11) . . . . ?
N3N C7N N4N C8N 3.1(18) . . . . ?
C9N C7N N4N C8N -178.4(11) . . . . ?
C7N N4N C8N N2N -1.7(14) . . . . ?
C7N N4N C8N C12N 178.4(9) . . . . ?
C6N N2N C8N N4N 2.9(12) . . . . ?
C6N N2N C8N C12N -177.1(7) . . . . ?
C14N N5N C10N C11N 0.3(10) . . . . ?
Pd8 N5N C10N C11N -178.5(5) . . . . ?
N5N C10N C11N C12N -1.6(11) . . . . ?
C10N C11N C12N C13N 2.8(10) . . . . ?
C10N C11N C12N C8N -178.1(7) . . . . ?
N4N C8N C12N C11N 165.1(7) . . . . ?
N2N C8N C12N C11N -14.8(11) . . . . ?
N4N C8N C12N C13N -15.9(11) . . . . ?
N2N C8N C12N C13N 164.1(7) . . . . ?
C11N C12N C13N C14N -3.0(10) . . . . ?
C8N C12N C13N C14N 178.0(7) . . . . ?
C10N N5N C14N C13N -0.5(10) . . . . ?
Pd8 N5N C14N C13N 178.3(5) . . . . ?
C12N C13N C14N N5N 1.9(11) . . . . ?
C5O N1O C1O C2O 2.2(12) . . . . ?
Pd8 N1O C1O C2O 177.3(6) . . . . ?
N1O C1O C2O C3O -1.2(13) . . . . ?
C1O C2O C3O C6O -178.4(8) . . . . ?
C1O C2O C3O C4O 0.7(13) . . . . ?
C6O C3O C4O C5O 177.8(9) . . . . ?
C2O C3O C4O C5O -1.3(15) . . . . ?
C1O N1O C5O C4O -2.8(13) . . . . ?
Pd8 N1O C5O C4O -177.8(7) . . . . ?
C3O C4O C5O N1O 2.4(15) . . . . ?
C2O C3O C6O N3O -176.0(7) . . . . ?
C4O C3O C6O N3O 5.0(12) . . . . ?
C2O C3O C6O N2O 9.7(11) . . . . ?
C4O C3O C6O N2O -169.4(8) . . . . ?
C8O N2O C6O C3O 174.4(7) . . . . ?
C8O N2O C6O N3O 0.0 . . . . ?
C3O C6O N3O C7O -174.3(8) . . . . ?
N2O C6O N3O C7O 0.0 . . . . ?
C6O N3O C7O N4O 0.0 . . . . ?
C6O N3O C7O C9O 177.3(12) . . . . ?
N3O C7O N4O C8O 0.0 . . . . ?
C9O C7O N4O C8O -177.1(13) . . . . ?
C7O N4O C8O C12O 179.8(8) . . . . ?
C7O N4O C8O N2O 0.0 . . . . ?
C6O N2O C8O C12O -179.8(8) . . . . ?
C6O N2O C8O N4O 0.0 . . . . ?
C14O N5O C10O C11O -2.5(13) . . . . ?
Pd7 N5O C10O C11O -179.2(7) . . . . ?
N5O C10O C11O C12O 2.5(14) . . . . ?
C10O C11O C12O C13O -0.9(15) . . . . ?
C10O C11O C12O C8O 177.6(9) . . . . ?
N4O C8O C12O C13O -7.5(12) . . . . ?
N2O C8O C12O C13O 172.3(8) . . . . ?
N4O C8O C12O C11O 174.1(7) . . . . ?
N2O C8O C12O C11O -6.1(12) . . . . ?
C11O C12O C13O C14O -0.5(15) . . . . ?
C8O C12O C13O C14O -178.9(9) . . . . ?
C10O N5O C14O C13O 1.1(14) . . . . ?
Pd7 N5O C14O C13O 177.7(8) . . . . ?
C12O C13O C14O N5O 0.4(16) . . . . ?
C5P N1P C1P C2P -1.6(12) . . . . ?
Pd7 N1P C1P C2P 177.3(6) . . . . ?
N1P C1P C2P C3P 0.2(14) . . . . ?
C1P C2P C3P C4P 1.7(13) . . . . ?
C1P C2P C3P C6P -176.5(7) . . . . ?
C2P C3P C4P C5P -2.0(12) . . . . ?
C6P C3P C4P C5P 176.1(7) . . . . ?
C1P N1P C5P C4P 1.3(12) . . . . ?
Pd7 N1P C5P C4P -177.7(6) . . . . ?
C3P C4P C5P N1P 0.6(13) . . . . ?
C8P N2P C6P N3P -0.6(10) . . . . ?
C8P N2P C6P C3P 179.3(6) . . . . ?
C4P C3P C6P N3P 0.4(11) . . . . ?
C2P C3P C6P N3P 178.5(7) . . . . ?
C4P C3P C6P N2P -179.4(7) . . . . ?
C2P C3P C6P N2P -1.4(11) . . . . ?
N2P C6P N3P C7P -0.2(11) . . . . ?
C3P C6P N3P C7P 180.0(6) . . . . ?
C6P N3P C7P N4P 1.2(11) . . . . ?
C6P N3P C7P C9P 178.6(7) . . . . ?
N3P C7P N4P C8P -1.3(11) . . . . ?
C9P C7P N4P C8P -178.7(7) . . . . ?
C6P N2P C8P N4P 0.4(11) . . . . ?
C6P N2P C8P C12P -177.5(6) . . . . ?
C7P N4P C8P N2P 0.5(11) . . . . ?
C7P N4P C8P C12P 178.5(6) . . . . ?
C14P N5P C10P C11P 0.8(12) . . . . ?
Pd9 N5P C10P C11P -177.2(6) . . . . ?
N5P C10P C11P C12P -0.2(13) . . . . ?
C10P C11P C12P C13P -2.1(12) . . . . ?
C10P C11P C12P C8P 178.5(7) . . . . ?
N2P C8P C12P C13P -176.9(7) . . . . ?
N4P C8P C12P C13P 4.9(10) . . . . ?
N2P C8P C12P C11P 2.6(10) . . . . ?
N4P C8P C12P C11P -175.7(7) . . . . ?
C11P C12P C13P C14P 3.7(11) . . . . ?
C8P C12P C13P C14P -176.9(7) . . . . ?
C10P N5P C14P C13P 0.9(11) . . . . ?
Pd9 N5P C14P C13P 178.9(6) . . . . ?
C12P C13P C14P N5P -3.2(11) . . . . ?
C5Q N1Q C1Q C2Q 1.5(12) . . . . ?
Pd9 N1Q C1Q C2Q -175.1(6) . . . . ?
N1Q C1Q C2Q C3Q -2.5(13) . . . . ?
C1Q C2Q C3Q C4Q 0.7(13) . . . . ?
C1Q C2Q C3Q C6Q 178.2(13) . . . . ?
C1Q C2Q C3Q C56Q -178.2(13) . . . . ?
C2Q C3Q C4Q C5Q 2.2(15) . . . . ?
C6Q C3Q C4Q C5Q -175.5(13) . . . . ?
C56Q C3Q C4Q C5Q -179.2(15) . . . . ?
C3Q C4Q C5Q N1Q -3.4(15) . . . . ?
C1Q N1Q C5Q C4Q 1.5(12) . . . . ?
Pd9 N1Q C5Q C4Q 178.0(7) . . . . ?
C8Q N2Q C6Q N3Q 0.0 . . . . ?
C8Q N2Q C6Q C3Q -172.1(16) . . . . ?
C2Q C3Q C6Q N2Q 0.4(17) . . . . ?
C4Q C3Q C6Q N2Q 177.9(9) . . . . ?
C56Q C3Q C6Q N2Q -19(10) . . . . ?
C2Q C3Q C6Q N3Q -171.0(12) . . . . ?
C4Q C3Q C6Q N3Q 7(2) . . . . ?
C56Q C3Q C6Q N3Q 170(12) . . . . ?
N2Q C6Q N3Q C7Q 0.0 . . . . ?
C3Q C6Q N3Q C7Q 170.8(19) . . . . ?
C6Q N3Q C7Q N4Q 0.0 . . . . ?
C6Q N3Q C7Q C9Q 175.1(15) . . . . ?
N3Q C7Q N4Q C8Q 0.0 . . . . ?
C9Q C7Q N4Q C8Q -174.4(17) . . . . ?
C7Q N4Q C8Q N2Q 0.0 . . . . ?
C7Q N4Q C8Q C12Q -175.8(14) . . . . ?
C6Q N2Q C8Q N4Q 0.0 . . . . ?
C6Q N2Q C8Q C12Q 175.1(17) . . . . ?
C58Q N52Q C56Q N53Q 0.0 . . . . ?
C58Q N52Q C56Q C3Q 180(2) . . . . ?
C2Q C3Q C56Q N52Q -21(2) . . . . ?
C4Q C3Q C56Q N52Q 160.5(14) . . . . ?
C6Q C3Q C56Q N52Q 142(11) . . . . ?
C2Q C3Q C56Q N53Q 158.8(12) . . . . ?
C4Q C3Q C56Q N53Q -20(2) . . . . ?
C6Q C3Q C56Q N53Q -39(10) . . . . ?
N52Q C56Q N53Q C57Q 0.0 . . . . ?
C3Q C56Q N53Q C57Q -179.7(19) . . . . ?
C56Q N53Q C57Q N54Q 0.0 . . . . ?
C56Q N53Q C57Q C59Q -173(2) . . . . ?
N53Q C57Q N54Q C58Q 0.0 . . . . ?
C59Q C57Q N54Q C58Q 174.1(19) . . . . ?
C57Q N54Q C58Q N52Q 0.0 . . . . ?
C57Q N54Q C58Q C12Q 170(3) . . . . ?
C56Q N52Q C58Q N54Q 0.0 . . . . ?
C56Q N52Q C58Q C12Q -172(2) . . . . ?
C14Q N5Q C10Q C11Q -1.4(13) . . . . ?
Pd11 N5Q C10Q C11Q 178.0(7) . . . . ?
N5Q C10Q C11Q C12Q 0.7(14) . . . . ?
C10Q C11Q C12Q C13Q -0.8(14) . . . . ?
C10Q C11Q C12Q C58Q 177.5(16) . . . . ?
C10Q C11Q C12Q C8Q -177.1(12) . . . . ?
N54Q C58Q C12Q C13Q 24(3) . . . . ?
N52Q C58Q C12Q C13Q -164.8(11) . . . . ?
N54Q C58Q C12Q C11Q -154.0(17) . . . . ?
N52Q C58Q C12Q C11Q 16.9(19) . . . . ?
N54Q C58Q C12Q C8Q -180(100) . . . . ?
N52Q C58Q C12Q C8Q -9(9) . . . . ?
N4Q C8Q C12Q C13Q -2.3(17) . . . . ?
N2Q C8Q C12Q C13Q -177.8(11) . . . . ?
N4Q C8Q C12Q C11Q 173.6(11) . . . . ?
N2Q C8Q C12Q C11Q -1.8(18) . . . . ?
N4Q C8Q C12Q C58Q -30(9) . . . . ?
N2Q C8Q C12Q C58Q 155(10) . . . . ?
C11Q C12Q C13Q C14Q 1.7(15) . . . . ?
C58Q C12Q C13Q C14Q -176.8(14) . . . . ?
C8Q C12Q C13Q C14Q 177.6(13) . . . . ?
C10Q N5Q C14Q C13Q 2.2(13) . . . . ?
Pd11 N5Q C14Q C13Q -177.2(7) . . . . ?
C12Q C13Q C14Q N5Q -2.4(15) . . . . ?
C5R N1R C1R C2R 1.9(12) . . . . ?
Pd10 N1R C1R C2R -176.9(6) . . . . ?
N1R C1R C2R C3R -1.1(14) . . . . ?
C1R C2R C3R C4R -0.7(13) . . . . ?
C1R C2R C3R C6R 178.0(8) . . . . ?
C2R C3R C4R C5R 1.6(13) . . . . ?
C6R C3R C4R C5R -177.0(8) . . . . ?
C1R N1R C5R C4R -0.9(12) . . . . ?
Pd10 N1R C5R C4R 177.9(6) . . . . ?
C3R C4R C5R N1R -0.9(14) . . . . ?
C8R N2R C6R N3R 2.8(13) . . . . ?
C8R N2R C6R C3R -179.5(7) . . . . ?
C4R C3R C6R N2R 172.3(8) . . . . ?
C2R C3R C6R N2R -6.2(12) . . . . ?
C4R C3R C6R N3R -9.7(13) . . . . ?
C2R C3R C6R N3R 171.8(8) . . . . ?
N2R C6R N3R C7R -2.1(15) . . . . ?
C3R C6R N3R C7R -179.9(9) . . . . ?
C6R N3R C7R N4R 0.6(18) . . . . ?
C6R N3R C7R C9R 177.6(11) . . . . ?
N3R C7R N4R C8R 0.0(18) . . . . ?
C9R C7R N4R C8R -177.0(11) . . . . ?
C7R N4R C8R N2R 0.7(14) . . . . ?
C7R N4R C8R C12R -179.3(9) . . . . ?
C6R N2R C8R N4R -1.9(12) . . . . ?
C6R N2R C8R C12R 178.1(7) . . . . ?
C14R N5R C10R C11R 1.8(10) . . . . ?
Pd9 N5R C10R C11R 178.1(5) . . . . ?
N5R C10R C11R C12R 0.4(11) . . . . ?
C10R C11R C12R C13R -2.0(10) . . . . ?
C10R C11R C12R C8R 178.3(7) . . . . ?
N4R C8R C12R C11R -165.4(8) . . . . ?
N2R C8R C12R C11R 14.5(11) . . . . ?
N4R C8R C12R C13R 14.9(11) . . . . ?
N2R C8R C12R C13R -165.2(7) . . . . ?
C11R C12R C13R C14R 1.4(10) . . . . ?
C8R C12R C13R C14R -178.9(7) . . . . ?
C12R C13R C14R N5R 0.7(11) . . . . ?
C10R N5R C14R C13R -2.3(10) . . . . ?
Pd9 N5R C14R C13R -178.6(5) . . . . ?
C5S N1S C1S C2S -1.3(12) . . . . ?
Pd10 N1S C1S C2S 177.3(7) . . . . ?
N1S C1S C2S C3S -0.6(14) . . . . ?
C1S C2S C3S C4S 4.4(14) . . . . ?
C1S C2S C3S C56S -177.7(11) . . . . ?
C1S C2S C3S C6S -171(2) . . . . ?
C2S C3S C4S C5S -6.4(15) . . . . ?
C56S C3S C4S C5S 175.9(12) . . . . ?
C6S C3S C4S C5S 169.7(19) . . . . ?
C1S N1S C5S C4S -0.6(12) . . . . ?
Pd10 N1S C5S C4S -179.1(6) . . . . ?
C3S C4S C5S N1S 4.7(14) . . . . ?
C8S N2S C6S N3S 0.0 . . . . ?
C8S N2S C6S C3S 169(3) . . . . ?
C4S C3S C6S N3S -14(3) . . . . ?
C2S C3S C6S N3S 162(2) . . . . ?
C56S C3S C6S N3S -170(11) . . . . ?
C4S C3S C6S N2S 178.9(13) . . . . ?
C2S C3S C6S N2S -6(3) . . . . ?
C56S C3S C6S N2S 22(8) . . . . ?
N2S C6S N3S C7S 0.0 . . . . ?
C3S C6S N3S C7S -166(3) . . . . ?
C6S N3S C7S C9S -173(3) . . . . ?
C6S N3S C7S N4S 0.0 . . . . ?
C9S C7S N4S C8S 174(2) . . . . ?
N3S C7S N4S C8S 0.0 . . . . ?
C7S N4S C8S N2S 0.0 . . . . ?
C7S N4S C8S C12S -179(2) . . . . ?
C6S N2S C8S N4S 0.0 . . . . ?
C6S N2S C8S C12S 178(3) . . . . ?
C58S N52S C56S N53S 0.0 . . . . ?
C58S N52S C56S C3S -179.2(15) . . . . ?
C4S C3S C56S N53S 8.0(17) . . . . ?
C2S C3S C56S N53S -169.7(10) . . . . ?
C6S C3S C56S N53S 35(9) . . . . ?
C4S C3S C56S N52S -172.8(10) . . . . ?
C2S C3S C56S N52S 9.6(16) . . . . ?
C6S C3S C56S N52S -146(10) . . . . ?
N52S C56S N53S C57S 0.0 . . . . ?
C3S C56S N53S C57S 179.3(13) . . . . ?
C56S N53S C57S N54S 0.0 . . . . ?
C56S N53S C57S C59S 173.9(17) . . . . ?
N53S C57S N54S C58S 0.0 . . . . ?
C59S C57S N54S C58S -174.2(16) . . . . ?
C57S N54S C58S N52S 0.0 . . . . ?
C57S N54S C58S C12S 172.9(14) . . . . ?
C56S N52S C58S N54S 0.0 . . . . ?
C56S N52S C58S C12S -173.8(13) . . . . ?
C14S N5S C10S C11S 0.6(12) . . . . ?
Pd12 N5S C10S C11S -178.7(7) 2_665 . . . ?
N5S C10S C11S C12S 1.5(14) . . . . ?
C10S C11S C12S C13S -4.7(15) . . . . ?
C10S C11S C12S C58S -174.7(11) . . . . ?
C10S C11S C12S C8S 169.6(18) . . . . ?
N54S C58S C12S C13S -1.8(17) . . . . ?
N52S C58S C12S C13S 171.6(9) . . . . ?
N54S C58S C12S C11S 168.1(11) . . . . ?
N52S C58S C12S C11S -18.5(16) . . . . ?
N54S C58S C12S C8S -121(7) . . . . ?
N52S C58S C12S C8S 53(6) . . . . ?
N4S C8S C12S C13S 7(2) . . . . ?
N2S C8S C12S C13S -170.9(18) . . . . ?
N4S C8S C12S C11S -166.5(14) . . . . ?
N2S C8S C12S C11S 15(3) . . . . ?
N4S C8S C12S C58S 77(6) . . . . ?
N2S C8S C12S C58S -101(7) . . . . ?
C11S C12S C13S C14S 5.8(16) . . . . ?
C58S C12S C13S C14S 176.2(12) . . . . ?
C8S C12S C13S C14S -168.1(19) . . . . ?
C10S N5S C14S C13S 0.5(14) . . . . ?
Pd12 N5S C14S C13S 179.8(8) 2_665 . . . ?
C12S C13S C14S N5S -3.8(16) . . . . ?
C5T N1T C1T C2T -2.0(10) . . . . ?
Pd10 N1T C1T C2T -179.4(5) . . . . ?
N1T C1T C2T C3T 2.3(11) . . . . ?
C1T C2T C3T C4T -0.6(11) . . . . ?
C1T C2T C3T C6T -179.4(7) . . . . ?
C2T C3T C4T C5T -1.2(10) . . . . ?
C6T C3T C4T C5T 177.6(6) . . . . ?
C1T N1T C5T C4T 0.0(10) . . . . ?
Pd10 N1T C5T C4T 177.4(5) . . . . ?
C3T C4T C5T N1T 1.6(11) . . . . ?
C8T N2T C6T N3T 0.8(11) . . . . ?
C8T N2T C6T C3T -177.3(7) . . . . ?
C2T C3T C6T N3T 165.8(7) . . . . ?
C4T C3T C6T N3T -13.0(11) . . . . ?
C2T C3T C6T N2T -16.0(10) . . . . ?
C4T C3T C6T N2T 165.2(7) . . . . ?
N2T C6T N3T C7T -0.4(13) . . . . ?
C3T C6T N3T C7T 177.6(9) . . . . ?
C6T N3T C7T N4T 3.5(18) . . . . ?
C6T N3T C7T C9T -177.1(11) . . . . ?
N3T C7T N4T C8T -6.3(17) . . . . ?
C9T C7T N4T C8T 174.4(11) . . . . ?
C6T N2T C8T N4T -4.3(13) . . . . ?
C6T N2T C8T C12T 178.0(7) . . . . ?
C7T N4T C8T N2T 6.9(15) . . . . ?
C7T N4T C8T C12T -175.4(9) . . . . ?
C14T N5T C10T C11T -1.0(12) . . . . ?
Pd8 N5T C10T C11T 175.6(7) 2_665 . . . ?
N5T C10T C11T C12T 1.7(14) . . . . ?
C10T C11T C12T C13T 0.7(14) . . . . ?
C10T C11T C12T C8T 179.9(8) . . . . ?
N2T C8T C12T C11T 7.2(13) . . . . ?
N4T C8T C12T C11T -170.8(8) . . . . ?
N2T C8T C12T C13T -173.6(8) . . . . ?
N4T C8T C12T C13T 8.4(12) . . . . ?
C11T C12T C13T C14T -3.4(12) . . . . ?
C8T C12T C13T C14T 177.4(8) . . . . ?
C10T N5T C14T C13T -2.0(12) . . . . ?
Pd8 N5T C14T C13T -178.7(6) 2_665 . . . ?
C12T C13T C14T N5T 4.2(13) . . . . ?
C5U N1U C1U C2U -5.6(11) . . . . ?
Pd10 N1U C1U C2U 176.2(6) . . . . ?
N1U C1U C2U C3U 3.2(12) . . . . ?
C1U C2U C3U C4U 0.4(11) . . . . ?
C1U C2U C3U C6U -179.4(7) . . . . ?
C2U C3U C4U C5U -1.4(11) . . . . ?
C6U C3U C4U C5U 178.4(7) . . . . ?
C1U N1U C5U C4U 4.6(11) . . . . ?
Pd10 N1U C5U C4U -177.2(5) . . . . ?
C3U C4U C5U N1U -1.1(11) . . . . ?
C8U N2U C6U N3U -0.4(11) . . . . ?
C8U N2U C6U C3U 177.9(6) . . . . ?
C2U C3U C6U N2U -3.5(11) . . . . ?
C4U C3U C6U N2U 176.8(7) . . . . ?
C2U C3U C6U N3U 175.1(7) . . . . ?
C4U C3U C6U N3U -4.7(11) . . . . ?
N2U C6U N3U C7U -0.4(11) . . . . ?
C3U C6U N3U C7U -178.7(6) . . . . ?
C6U N3U C7U N4U 1.3(12) . . . . ?
C6U N3U C7U C9U 178.4(7) . . . . ?
N3U C7U N4U C8U -1.4(12) . . . . ?
C9U C7U N4U C8U -178.5(8) . . . . ?
C6U N2U C8U N4U 0.3(10) . . . . ?
C6U N2U C8U C12U 179.9(7) . . . . ?
C7U N4U C8U N2U 0.5(11) . . . . ?
C7U N4U C8U C12U -179.1(7) . . . . ?
C14U N5U C10U C11U 1.5(12) . . . . ?
Pd11 N5U C10U C11U -179.3(7) . . . . ?
N5U C10U C11U C12U 2.5(14) . . . . ?
C10U C11U C12U C13U -2.1(13) . . . . ?
C10U C11U C12U C8U 173.5(8) . . . . ?
N2U C8U C12U C13U 177.4(8) . . . . ?
N4U C8U C12U C13U -3.0(12) . . . . ?
N2U C8U C12U C11U 2.2(12) . . . . ?
N4U C8U C12U C11U -178.2(7) . . . . ?
C11U C12U C13U C14U -2.0(13) . . . . ?
C8U C12U C13U C14U -177.4(8) . . . . ?
C10U N5U C14U C13U -5.5(11) . . . . ?
Pd11 N5U C14U C13U 175.3(6) . . . . ?
C12U C13U C14U N5U 6.0(13) . . . . ?
C5V N1V C1V C2V 0.7(12) . . . . ?
Pd11 N1V C1V C2V 174.9(7) . . . . ?
N1V C1V C2V C3V -2.5(14) . . . . ?
C1V C2V C3V C4V 6.9(15) . . . . ?
C1V C2V C3V C56V -178.5(13) . . . . ?
C1V C2V C3V C6V -173.5(15) . . . . ?
C2V C3V C4V C5V -9.7(15) . . . . ?
C56V C3V C4V C5V 175.1(12) . . . . ?
C6V C3V C4V C5V 170.8(16) . . . . ?
C1V N1V C5V C4V -3.6(13) . . . . ?
Pd11 N1V C5V C4V -177.7(7) . . . . ?
C3V C4V C5V N1V 8.1(16) . . . . ?
C8V N2V C6V N3V 0.0 . . . . ?
C8V N2V C6V C3V 170(3) . . . . ?
C2V C3V C6V N2V -7(3) . . . . ?
C4V C3V C6V N2V 172.2(15) . . . . ?
C56V C3V C6V N2V 152(11) . . . . ?
C2V C3V C6V N3V 163.8(13) . . . . ?
C4V C3V C6V N3V -17(2) . . . . ?
C56V C3V C6V N3V -36(9) . . . . ?
N2V C6V N3V C7V 0.0 . . . . ?
C3V C6V N3V C7V -172(2) . . . . ?
C6V N3V C7V C9V -173(2) . . . . ?
C6V N3V C7V N4V 0.0 . . . . ?
C9V C7V N4V C8V 173(2) . . . . ?
N3V C7V N4V C8V 0.0 . . . . ?
C7V N4V C8V N2V 0.0 . . . . ?
C7V N4V C8V C12V 172(3) . . . . ?
C6V N2V C8V N4V 0.0 . . . . ?
C6V N2V C8V C12V -174(2) . . . . ?
C58V N52V C56V N53V 0.0 . . . . ?
C58V N52V C56V C3V -177.9(15) . . . . ?
C2V C3V C56V N52V 8.2(16) . . . . ?
C4V C3V C56V N52V -177.0(9) . . . . ?
C6V C3V C56V N52V -15(9) . . . . ?
C2V C3V C56V N53V -169.4(12) . . . . ?
C4V C3V C56V N53V 5.4(19) . . . . ?
C6V C3V C56V N53V 168(10) . . . . ?
N52V C56V N53V C57V 0.0 . . . . ?
C3V C56V N53V C57V 177.5(18) . . . . ?
C56V N53V C57V N54V 0.0 . . . . ?
C56V N53V C57V C59V 176.2(16) . . . . ?
N53V C57V N54V C58V 0.0 . . . . ?
C59V C57V N54V C58V -175.8(18) . . . . ?
C57V N54V C58V N52V 0.0 . . . . ?
C57V N54V C58V C12V 176.9(14) . . . . ?
C56V N52V C58V N54V 0.0 . . . . ?
C56V N52V C58V C12V -176.5(16) . . . . ?
C14V N5V C10V C11V -3.7(13) . . . . ?
Pd7 N5V C10V C11V -177.1(7) 2_665 . . . ?
N5V C10V C11V C12V 3.4(15) . . . . ?
C10V C11V C12V C13V -2.6(16) . . . . ?
C10V C11V C12V C8V 170.3(18) . . . . ?
C10V C11V C12V C58V -179.1(11) . . . . ?
N4V C8V C12V C13V 15(3) . . . . ?
N2V C8V C12V C13V -172.3(12) . . . . ?
N4V C8V C12V C11V -158.7(19) . . . . ?
N2V C8V C12V C11V 14(2) . . . . ?
N4V C8V C12V C58V 159(9) . . . . ?
N2V C8V C12V C58V -28(6) . . . . ?
N54V C58V C12V C13V -5.5(16) . . . . ?
N52V C58V C12V C13V 171.2(11) . . . . ?
N54V C58V C12V C11V 170.9(11) . . . . ?
N52V C58V C12V C11V -12.4(18) . . . . ?
N54V C58V C12V C8V -45(7) . . . . ?
N52V C58V C12V C8V 131(8) . . . . ?
C11V C12V C13V C14V 2.4(16) . . . . ?
C8V C12V C13V C14V -171.7(16) . . . . ?
C58V C12V C13V C14V 178.7(12) . . . . ?
C10V N5V C14V C13V 3.6(14) . . . . ?
Pd7 N5V C14V C13V 177.0(8) 2_665 . . . ?
C12V C13V C14V N5V -3.0(17) . . . . ?
C5W N1W C1W C2W -0.6(13) . . . . ?
Pd11 N1W C1W C2W -177.4(7) . . . . ?
N1W C1W C2W C3W 0.2(15) . . . . ?
C1W C2W C3W C4W -2.0(16) . . . . ?
C1W C2W C3W C56W 176.9(10) . . . . ?
C1W C2W C3W C6W 175.7(19) . . . . ?
C2W C3W C4W C5W 4.0(17) . . . . ?
C56W C3W C4W C5W -175.0(11) . . . . ?
C6W C3W C4W C5W -174(2) . . . . ?
C1W N1W C5W C4W 2.8(15) . . . . ?
Pd11 N1W C5W C4W 179.6(9) . . . . ?
C3W C4W C5W N1W -4.7(18) . . . . ?
C8W N2W C6W N3W 0.0 . . . . ?
C8W N2W C6W C3W -155(3) . . . . ?
C4W C3W C6W N2W -168.9(17) . . . . ?
C2W C3W C6W N2W 13(3) . . . . ?
C56W C3W C6W N2W -61(99) . . . . ?
C4W C3W C6W N3W 34(3) . . . . ?
C2W C3W C6W N3W -144.0(19) . . . . ?
C56W C3W C6W N3W 142(100) . . . . ?
N2W C6W N3W C7W 0.0 . . . . ?
C3W C6W N3W C7W 159(3) . . . . ?
C6W N3W C7W N4W 0.0 . . . . ?
C6W N3W C7W C9W -175(3) . . . . ?
N3W C7W N4W C8W 0.0 . . . . ?
C9W C7W N4W C8W 177(2) . . . . ?
C7W N4W C8W N2W 0.0 . . . . ?
C7W N4W C8W C12W -168(3) . . . . ?
C6W N2W C8W N4W 0.0 . . . . ?
C6W N2W C8W C12W 171(3) . . . . ?
C58W N52W C56W N53W 0.0 . . . . ?
C58W N52W C56W C3W 178.1(11) . . . . ?
C4W C3W C56W N53W -6.1(15) . . . . ?
C2W C3W C56W N53W 175.0(9) . . . . ?
C6W C3W C56W N53W -78(99) . . . . ?
C4W C3W C56W N52W 175.8(9) . . . . ?
C2W C3W C56W N52W -3.1(14) . . . . ?
C6W C3W C56W N52W 103(99) . . . . ?
N52W C56W N53W C57W 0.0 . . . . ?
C3W C56W N53W C57W -178.1(11) . . . . ?
C56W N53W C57W N54W 0.0 . . . . ?
C56W N53W C57W C59W 179.1(14) . . . . ?
N53W C57W N54W C58W 0.0 . . . . ?
C59W C57W N54W C58W -179.0(15) . . . . ?
C57W N54W C58W C12W -179.0(10) . . . . ?
C57W N54W C58W N52W 0.0 . . . . ?
C56W N52W C58W C12W 179.0(10) . . . . ?
C56W N52W C58W N54W 0.0 . . . . ?
C14W N5W C10W C11W 1.8(13) . . . . ?
Pd12 N5W C10W C11W 173.3(7) . . . . ?
N5W C10W C11W C12W -0.2(15) . . . . ?
C10W C11W C12W C58W -177.9(10) . . . . ?
C10W C11W C12W C13W 2.0(14) . . . . ?
C10W C11W C12W C8W -163(2) . . . . ?
N54W C58W C12W C11W -177.7(9) . . . . ?
N52W C58W C12W C11W 3.3(13) . . . . ?
N54W C58W C12W C13W 2.4(14) . . . . ?
N52W C58W C12W C13W -176.7(9) . . . . ?
N54W C58W C12W C8W 60(6) . . . . ?
N52W C58W C12W C8W -119(6) . . . . ?
N4W C8W C12W C11W 133(2) . . . . ?
N2W C8W C12W C11W -37(3) . . . . ?
N4W C8W C12W C58W -161(8) . . . . ?
N2W C8W C12W C58W 30(5) . . . . ?
N4W C8W C12W C13W -33(3) . . . . ?
N2W C8W C12W C13W 158.0(14) . . . . ?
C11W C12W C13W C14W -5.4(15) . . . . ?
C58W C12W C13W C14W 174.5(10) . . . . ?
C8W C12W C13W C14W 161(2) . . . . ?
C10W N5W C14W C13W -5.5(13) . . . . ?
Pd12 N5W C14W C13W -177.1(8) . . . . ?
C12W C13W C14W N5W 7.4(16) . . . . ?
C5X N1X C1X C2X 1.9(13) . . . . ?
Pd12 N1X C1X C2X -175.6(7) . . . . ?
N1X C1X C2X C3X -2.0(15) . . . . ?
C1X C2X C3X C4X -1.3(16) . . . . ?
C1X C2X C3X C6X 177.9(13) . . . . ?
C1X C2X C3X C56X -170.8(15) . . . . ?
C2X C3X C4X C5X 4.3(16) . . . . ?
C6X C3X C4X C5X -174.9(13) . . . . ?
C56X C3X C4X C5X 173.3(16) . . . . ?
C1X N1X C5X C4X 1.3(15) . . . . ?
Pd12 N1X C5X C4X 178.8(8) . . . . ?
C3X C4X C5X N1X -4.5(17) . . . . ?
C8X N2X C6X N3X 0.0 . . . . ?
C8X N2X C6X C3X -173.9(15) . . . . ?
C4X C3X C6X N2X -176.2(10) . . . . ?
C2X C3X C6X N2X 4.6(18) . . . . ?
C56X C3X C6X N2X -54(8) . . . . ?
C4X C3X C6X N3X 10(2) . . . . ?
C2X C3X C6X N3X -168.9(12) . . . . ?
C56X C3X C6X N3X 133(9) . . . . ?
N2X C6X N3X C7X 0.0 . . . . ?
C3X C6X N3X C7X 173.2(17) . . . . ?
C6X N3X C7X N4X 0.0 . . . . ?
C6X N3X C7X C9X 168.0(16) . . . . ?
N3X C7X N4X C8X 0.0 . . . . ?
C9X C7X N4X C8X -166.1(18) . . . . ?
C7X N4X C8X N2X 0.0 . . . . ?
C7X N4X C8X C12X -174.7(15) . . . . ?
C6X N2X C8X N4X 0.0 . . . . ?
C6X N2X C8X C12X 174.0(17) . . . . ?
C58X N52X C56X N53X 0.0 . . . . ?
C58X N52X C56X C3X -172(2) . . . . ?
C4X C3X C56X N52X 163.9(15) . . . . ?
C2X C3X C56X N52X -27(2) . . . . ?
C6X C3X C56X N52X 100(9) . . . . ?
C4X C3X C56X N53X -9(2) . . . . ?
C2X C3X C56X N53X 160.5(14) . . . . ?
C6X C3X C56X N53X -72(8) . . . . ?
N52X C56X N53X C57X 0.0 . . . . ?
C3X C56X N53X C57X 173(2) . . . . ?
C56X N53X C57X N54X 0.0 . . . . ?
C56X N53X C57X C59X 173(3) . . . . ?
N53X C57X N54X C58X 0.0 . . . . ?
C59X C57X N54X C58X -174(2) . . . . ?
C57X N54X C58X N52X 0.0 . . . . ?
C57X N54X C58X C12X 170(3) . . . . ?
C56X N52X C58X N54X 0.0 . . . . ?
C56X N52X C58X C12X -171(2) . . . . ?
C14X N5X C10X C11X -2.7(12) . . . . ?
Pd7 N5X C10X C11X 173.6(7) 2_665 . . . ?
N5X C10X C11X C12X 1.1(14) . . . . ?
C10X C11X C12X C13X 2.7(15) . . . . ?
C10X C11X C12X C8X -176.0(12) . . . . ?
C10X C11X C12X C58X 178.6(16) . . . . ?
N4X C8X C12X C11X 169.4(11) . . . . ?
N2X C8X C12X C11X -4.9(17) . . . . ?
N4X C8X C12X C13X -9.2(18) . . . . ?
N2X C8X C12X C13X 176.5(10) . . . . ?
N4X C8X C12X C58X -38(11) . . . . ?
N2X C8X C12X C58X 148(12) . . . . ?
N54X C58X C12X C11X -159.5(18) . . . . ?
N52X C58X C12X C11X 11(2) . . . . ?
N54X C58X C12X C13X 17(3) . . . . ?
N52X C58X C12X C13X -172.9(12) . . . . ?
N54X C58X C12X C8X 170(13) . . . . ?
N52X C58X C12X C8X -19(11) . . . . ?
C11X C12X C13X C14X -4.8(16) . . . . ?
C8X C12X C13X C14X 173.8(13) . . . . ?
C58X C12X C13X C14X 178.9(15) . . . . ?
C10X N5X C14X C13X 0.4(13) . . . . ?
Pd7 N5X C14X C13X -175.9(8) 2_665 . . . ?
C12X C13X C14X N5X 3.2(16) . . . . ?
C5E N1E Pd1 N1K -87(32) . . . 2_576 ?
C1E N1E Pd1 N1K 94(32) . . . 2_576 ?
C5E N1E Pd1 N5F 100.0(6) . . . . ?
C1E N1E Pd1 N5F -78.3(7) . . . . ?
C5E N1E Pd1 N5L -79.8(6) . . . 2_576 ?
C1E N1E Pd1 N5L 101.9(7) . . . 2_576 ?
C10F N5F Pd1 N1E 91.2(7) . . . . ?
C14F N5F Pd1 N1E -83.3(6) . . . . ?
C10F N5F Pd1 N1K -88.7(7) . . . 2_576 ?
C14F N5F Pd1 N1K 96.7(6) . . . 2_576 ?
C10F N5F Pd1 N5L 110(39) . . . 2_576 ?
C14F N5F Pd1 N5L -64(40) . . . 2_576 ?
C14D N5D Pd2 N1G 92.5(8) . . . . ?
C10D N5D Pd2 N1G -90.6(7) . . . . ?
C14D N5D Pd2 N1F -87.9(8) . . . . ?
C10D N5D Pd2 N1F 88.9(7) . . . . ?
C14D N5D Pd2 N5H -4(14) . . . . ?
C10D N5D Pd2 N5H 173(100) . . . . ?
C5G N1G Pd2 N5D -79.5(8) . . . . ?
C1G N1G Pd2 N5D 99.6(7) . . . . ?
C5G N1G Pd2 N1F -92(9) . . . . ?
C1G N1G Pd2 N1F 87(9) . . . . ?
C5G N1G Pd2 N5H 99.4(8) . . . . ?
C1G N1G Pd2 N5H -81.6(7) . . . . ?
C1F N1F Pd2 N5D -89.9(6) . . . . ?
C5F N1F Pd2 N5D 85.3(6) . . . . ?
C1F N1F Pd2 N1G -77(9) . . . . ?
C5F N1F Pd2 N1G 98(9) . . . . ?
C1F N1F Pd2 N5H 91.2(6) . . . . ?
C5F N1F Pd2 N5H -93.6(6) . . . . ?
C10H N5H Pd2 N5D -177(100) . . . . ?
C14H N5H Pd2 N5D 6(14) . . . . ?
C10H N5H Pd2 N1G 87.4(6) . . . . ?
C14H N5H Pd2 N1G -89.9(6) . . . . ?
C10H N5H Pd2 N1F -92.3(6) . . . . ?
C14H N5H Pd2 N1F 90.4(6) . . . . ?
C14A N5A Pd3 N5E -92.0(8) . . . . ?
C10A N5A Pd3 N5E 89.7(7) . . . . ?
C14A N5A Pd3 N5C 88.5(8) . . . . ?
C10A N5A Pd3 N5C -89.7(7) . . . . ?
C14A N5A Pd3 N1D -16(23) . . . . ?
C10A N5A Pd3 N1D 165(100) . . . . ?
C14E N5E Pd3 N5A 80.8(7) . . . . ?
C10E N5E Pd3 N5A -99.4(8) . . . . ?
C14E N5E Pd3 N5C 131(23) . . . . ?
C10E N5E Pd3 N5C -49(24) . . . . ?
C14E N5E Pd3 N1D -98.5(8) . . . . ?
C10E N5E Pd3 N1D 81.3(8) . . . . ?
C14C N5C Pd3 N5A -83.4(6) . . . . ?
C10C N5C Pd3 N5A 87.0(6) . . . . ?
C14C N5C Pd3 N5E -134(23) . . . . ?
C10C N5C Pd3 N5E 36(24) . . . . ?
C14C N5C Pd3 N1D 96.0(6) . . . . ?
C10C N5C Pd3 N1D -93.7(6) . . . . ?
C5D N1D Pd3 N5A 16(23) . . . . ?
C1D N1D Pd3 N5A -164(100) . . . . ?
C5D N1D Pd3 N5E 91.2(7) . . . . ?
C1D N1D Pd3 N5E -88.5(6) . . . . ?
C5D N1D Pd3 N5C -89.4(7) . . . . ?
C1D N1D Pd3 N5C 90.9(6) . . . . ?
C14B N5B Pd4 N1H -80.2(8) . . . 2_576 ?
C10B N5B Pd4 N1H 101.2(8) . . . 2_576 ?
C14B N5B Pd4 N1A 99.0(8) . . . . ?
C10B N5B Pd4 N1A -79.6(8) . . . . ?
C14B N5B Pd4 N5I -109(15) . . . 2_576 ?
C10B N5B Pd4 N5I 73(16) . . . 2_576 ?
C1A N1A Pd4 N1H -174(100) . . . 2_576 ?
C5A N1A Pd4 N1H 10(22) . . . 2_576 ?
C1A N1A Pd4 N5B 85.5(7) . . . . ?
C5A N1A Pd4 N5B -89.6(7) . . . . ?
C1A N1A Pd4 N5I -94.0(7) . . . 2_576 ?
C5A N1A Pd4 N5I 90.9(6) . . . 2_576 ?
C5B N1B Pd5 N5K 78.1(7) . . . . ?
C1B N1B Pd5 N5K -98.9(7) . . . . ?
C5B N1B Pd5 N5J -158(35) . . . . ?
C1B N1B Pd5 N5J 25(31) . . . . ?
C5B N1B Pd5 N1C -101.2(7) . . . . ?
C1B N1B Pd5 N1C 81.8(7) . . . . ?
C14K N5K Pd5 N1B -89.9(7) . . . . ?
C10K N5K Pd5 N1B 90.4(7) . . . . ?
C14K N5K Pd5 N5J 90.6(7) . . . . ?
C10K N5K Pd5 N5J -89.1(7) . . . . ?
C14K N5K Pd5 N1C 22(28) . . . . ?
C10K N5K Pd5 N1C -158(33) . . . . ?
C14J N5J Pd5 N1B 144(35) . . . . ?
C10J N5J Pd5 N1B -41(31) . . . . ?
C14J N5J Pd5 N5K -92.1(7) . . . . ?
C10J N5J Pd5 N5K 82.9(7) . . . . ?
C14J N5J Pd5 N1C 87.3(7) . . . . ?
C10J N5J Pd5 N1C -97.7(7) . . . . ?
C1C N1C Pd5 N1B -91.9(7) . . . . ?
C5C N1C Pd5 N1B 83.6(6) . . . . ?
C1C N1C Pd5 N5K 156(33) . . . . ?
C5C N1C Pd5 N5K -28(27) . . . . ?
C1C N1C Pd5 N5J 87.6(7) . . . . ?
C5C N1C Pd5 N5J -96.9(6) . . . . ?
C10G N5G Pd6 N1I 79.5(7) . . . . ?
C14G N5G Pd6 N1I -99.7(6) . . . . ?
C10G N5G Pd6 N1L -15(17) . . . . ?
C14G N5G Pd6 N1L 166(100) . . . . ?
C10G N5G Pd6 N1J -101.1(7) . . . . ?
C14G N5G Pd6 N1J 79.7(6) . . . . ?
C1I N1I Pd6 N5G -93.1(7) . . . . ?
C5I N1I Pd6 N5G 83.1(6) . . . . ?
C1I N1I Pd6 N1L 86.1(7) . . . . ?
C5I N1I Pd6 N1L -97.8(6) . . . . ?
C1I N1I Pd6 N1J 171(100) . . . . ?
C5I N1I Pd6 N1J -13(33) . . . . ?
C5L N1L Pd6 N5G 179(100) . . . . ?
C1L N1L Pd6 N5G -2(17) . . . . ?
C5L N1L Pd6 N1I 85.0(7) . . . . ?
C1L N1L Pd6 N1I -95.9(7) . . . . ?
C5L N1L Pd6 N1J -94.4(7) . . . . ?
C1L N1L Pd6 N1J 84.7(7) . . . . ?
C1J N1J Pd6 N5G 88.7(7) . . . . ?
C5J N1J Pd6 N5G -89.1(7) . . . . ?
C1J N1J Pd6 N1I -175(100) . . . . ?
C5J N1J Pd6 N1I 7(33) . . . . ?
C1J N1J Pd6 N1L -90.4(7) . . . . ?
C5J N1J Pd6 N1L 91.8(7) . . . . ?
C14O N5O Pd7 N1P -88.6(7) . . . . ?
C10O N5O Pd7 N1P 87.9(6) . . . . ?
C14O N5O Pd7 N5V 92.0(7) . . . 2_665 ?
C10O N5O Pd7 N5V -91.5(6) . . . 2_665 ?
C14O N5O Pd7 N5X 115(17) . . . 2_665 ?
C10O N5O Pd7 N5X -68(18) . . . 2_665 ?
C5P N1P Pd7 N5O 96.3(6) . . . . ?
C1P N1P Pd7 N5O -82.5(6) . . . . ?
C5P N1P Pd7 N5V 129(15) . . . 2_665 ?
C1P N1P Pd7 N5V -50(15) . . . 2_665 ?
C5P N1P Pd7 N5X -84.0(6) . . . 2_665 ?
C1P N1P Pd7 N5X 97.1(6) . . . 2_665 ?
C14N N5N Pd8 N5T -69(53) . . . 2_665 ?
C10N N5N Pd8 N5T 109(54) . . . 2_665 ?
C14N N5N Pd8 N1O -83.4(5) . . . . ?
C10N N5N Pd8 N1O 95.3(5) . . . . ?
C14N N5N Pd8 N1M 96.9(5) . . . . ?
C10N N5N Pd8 N1M -84.3(5) . . . . ?
C5O N1O Pd8 N5T -91.9(6) . . . 2_665 ?
C1O N1O Pd8 N5T 93.1(6) . . . 2_665 ?
C5O N1O Pd8 N5N 88.0(6) . . . . ?
C1O N1O Pd8 N5N -87.1(6) . . . . ?
C5O N1O Pd8 N1M 114(19) . . . . ?
C1O N1O Pd8 N1M -61(19) . . . . ?
C1M N1M Pd8 N5T -77.9(6) . . . 2_665 ?
C5M N1M Pd8 N5T 98.8(5) . . . 2_665 ?
C1M N1M Pd8 N5N 102.2(6) . . . . ?
C5M N1M Pd8 N5N -81.1(5) . . . . ?
C1M N1M Pd8 N1O 76(19) . . . . ?
C5M N1M Pd8 N1O -107(19) . . . . ?
C5N N1N Pd9 N1Q -88.6(6) . . . . ?
C1N N1N Pd9 N1Q 92.2(6) . . . . ?
C5N N1N Pd9 N5R 165(100) . . . . ?
C1N N1N Pd9 N5R -14(20) . . . . ?
C5N N1N Pd9 N5P 91.5(6) . . . . ?
C1N N1N Pd9 N5P -87.7(6) . . . . ?
C1Q N1Q Pd9 N1N -93.0(6) . . . . ?
C5Q N1Q Pd9 N1N 90.5(6) . . . . ?
C1Q N1Q Pd9 N5R 86.4(6) . . . . ?
C5Q N1Q Pd9 N5R -90.1(6) . . . . ?
C1Q N1Q Pd9 N5P 70(56) . . . . ?
C5Q N1Q Pd9 N5P -107(58) . . . . ?
C10R N5R Pd9 N1N 12(20) . . . . ?
C14R N5R Pd9 N1N -171(100) . . . . ?
C10R N5R Pd9 N1Q -93.7(5) . . . . ?
C14R N5R Pd9 N1Q 82.5(5) . . . . ?
C10R N5R Pd9 N5P 86.2(5) . . . . ?
C14R N5R Pd9 N5P -97.6(5) . . . . ?
C14P N5P Pd9 N1N -98.6(5) . . . . ?
C10P N5P Pd9 N1N 79.4(6) . . . . ?
C14P N5P Pd9 N1Q 99(58) . . . . ?
C10P N5P Pd9 N1Q -83(56) . . . . ?
C14P N5P Pd9 N5R 82.0(5) . . . . ?
C10P N5P Pd9 N5R -100.0(6) . . . . ?
C5R N1R Pd10 N1S 88.5(6) . . . . ?
C1R N1R Pd10 N1S -92.7(6) . . . . ?
C5R N1R Pd10 N1T -38(15) . . . . ?
C1R N1R Pd10 N1T 140(15) . . . . ?
C5R N1R Pd10 N1U -91.4(6) . . . . ?
C1R N1R Pd10 N1U 87.3(6) . . . . ?
C1S N1S Pd10 N1R 93.0(6) . . . . ?
C5S N1S Pd10 N1R -88.4(6) . . . . ?
C1S N1S Pd10 N1T -87.7(6) . . . . ?
C5S N1S Pd10 N1T 90.9(6) . . . . ?
C1S N1S Pd10 N1U -107(72) . . . . ?
C5S N1S Pd10 N1U 71(70) . . . . ?
C5T N1T Pd10 N1R 44(15) . . . . ?
C1T N1T Pd10 N1R -139(15) . . . . ?
C5T N1T Pd10 N1S -83.3(5) . . . . ?
C1T N1T Pd10 N1S 94.0(5) . . . . ?
C5T N1T Pd10 N1U 96.6(5) . . . . ?
C1T N1T Pd10 N1U -86.1(5) . . . . ?
C5U N1U Pd10 N1R 100.3(5) . . . . ?
C1U N1U Pd10 N1R -81.5(5) . . . . ?
C5U N1U Pd10 N1S -59(70) . . . . ?
C1U N1U Pd10 N1S 119(72) . . . . ?
C5U N1U Pd10 N1T -79.0(5) . . . . ?
C1U N1U Pd10 N1T 99.2(5) . . . . ?
C1W N1W Pd11 N1V 88.6(6) . . . . ?
C5W N1W Pd11 N1V -87.9(7) . . . . ?
C1W N1W Pd11 N5Q -91.8(6) . . . . ?
C5W N1W Pd11 N5Q 91.7(7) . . . . ?
C1W N1W Pd11 N5U -42(42) . . . . ?
C5W N1W Pd11 N5U 141(44) . . . . ?
C5V N1V Pd11 N1W 88.7(6) . . . . ?
C1V N1V Pd11 N1W -85.2(6) . . . . ?
C5V N1V Pd11 N5Q 57(21) . . . . ?
C1V N1V Pd11 N5Q -117(21) . . . . ?
C5V N1V Pd11 N5U -91.6(6) . . . . ?
C1V N1V Pd11 N5U 94.5(6) . . . . ?
C10Q N5Q Pd11 N1W 91.2(6) . . . . ?
C14Q N5Q Pd11 N1W -89.4(6) . . . . ?
C10Q N5Q Pd11 N1V 123(21) . . . . ?
C14Q N5Q Pd11 N1V -58(21) . . . . ?
C10Q N5Q Pd11 N5U -88.4(6) . . . . ?
C14Q N5Q Pd11 N5U 91.0(6) . . . . ?
C14U N5U Pd11 N1W -148(44) . . . . ?
C10U N5U Pd11 N1W 33(42) . . . . ?
C14U N5U Pd11 N1V 81.1(6) . . . . ?
C10U N5U Pd11 N1V -98.1(6) . . . . ?
C14U N5U Pd11 N5Q -98.5(6) . . . . ?
C10U N5U Pd11 N5Q 82.3(6) . . . . ?
C5X N1X Pd12 N5S 92.0(7) . . . 2_665 ?
C1X N1X Pd12 N5S -90.5(6) . . . 2_665 ?
C5X N1X Pd12 N5W -88.4(7) . . . . ?
C1X N1X Pd12 N5W 89.0(6) . . . . ?
C5X N1X Pd12 N5M 132(100) . . . . ?
C1X N1X Pd12 N5M -50(100) . . . . ?
C14W N5W Pd12 N5S 147(38) . . . 2_665 ?
C10W N5W Pd12 N5S -25(33) . . . 2_665 ?
C14W N5W Pd12 N1X 88.5(6) . . . . ?
C10W N5W Pd12 N1X -82.7(6) . . . . ?
C14W N5W Pd12 N5M -91.6(6) . . . . ?
C10W N5W Pd12 N5M 97.2(6) . . . . ?
C14M N5M Pd12 N5S -95.6(6) . . . 2_665 ?
C10M N5M Pd12 N5S 82.7(6) . . . 2_665 ?
C14M N5M Pd12 N1X -136(100) . . . . ?
C10M N5M Pd12 N1X 42(100) . . . . ?
C14M N5M Pd12 N5W 84.8(6) . . . . ?
C10M N5M Pd12 N5W -96.8(6) . . . . ?
F95 B91 F91 F92 72(3) . . . . ?
F98 B91 F91 F92 -151(2) . . . . ?
F96 B91 F91 F92 -20.6(19) . . . . ?
F93 B91 F91 F92 134(2) . . . . ?
F94 B91 F91 F92 -94(2) . . . . ?
F97 B91 F91 F92 72(4) . . . . ?
F95 B91 F92 F91 -29.3(16) . . . . ?
F98 B91 F92 F91 42(2) . . . . ?
F96 B91 F92 F91 76(6) . . . . ?
F93 B91 F92 F91 -93(3) . . . . ?
F94 B91 F92 F91 120(2) . . . . ?
F97 B91 F92 F91 -155(2) . . . . ?
F95 B91 F93 O71 143(8) . . . . ?
F91 B91 F93 O71 117(8) . . . . ?
F98 B91 F93 O71 50(8) . . . . ?
F92 B91 F93 O71 -160(8) . . . . ?
F96 B91 F93 O71 -169(7) . . . . ?
F94 B91 F93 O71 -18(8) . . . . ?
F97 B91 F93 O71 -88(8) . . . . ?
F91 B91 F95 F96 -79(3) . . . . ?
F98 B91 F95 F96 -118.8(18) . . . . ?
F92 B91 F95 F96 20(2) . . . . ?
F93 B91 F95 F96 161(2) . . . . ?
F94 B91 F95 F96 -55(3) . . . . ?
F97 B91 F95 F96 101(2) . . . . ?
F91 B91 F96 F95 29.8(16) . . . . ?
F98 B91 F96 F95 85(2) . . . . ?
F92 B91 F96 F95 -69(6) . . . . ?
F93 B91 F96 F95 -51(4) . . . . ?
F94 B91 F96 F95 155(2) . . . . ?
F97 B91 F96 F95 -123(2) . . . . ?
F116 B111 F111 F112 -35.7(15) . . . . ?
F117 B111 F111 F112 27(4) . . . . ?
F115 B111 F111 F112 94(7) . . . . ?
F113 B111 F111 F112 116(2) . . . . ?
F114 B111 F111 F112 -87.6(19) . . . . ?
F118 B111 F111 F112 -154(2) . . . . ?
F116 B111 F112 F111 66(2) . . . . ?
F117 B111 F112 F111 -168(2) . . . . ?
F115 B111 F112 F111 -19(2) . . . . ?
F113 B111 F112 F111 -120(2) . . . . ?
F114 B111 F112 F111 109.3(18) . . . . ?
F118 B111 F112 F111 91(4) . . . . ?
F112 B111 F115 F116 36.4(14) . . . . ?
F117 B111 F115 F116 92(3) . . . . ?
F113 B111 F115 F116 154(2) . . . . ?
F111 B111 F115 F116 -46(7) . . . . ?
F114 B111 F115 F116 -48(2) . . . . ?
F118 B111 F115 F116 -118(2) . . . . ?
F112 B111 F116 F115 -88(3) . . . . ?
F117 B111 F116 F115 -141(2) . . . . ?
F113 B111 F116 F115 -99(4) . . . . ?
F111 B111 F116 F115 15(2) . . . . ?
F114 B111 F116 F115 141(2) . . . . ?
F118 B111 F116 F115 104(2) . . . . ?
F13D B131 F131 F134 -16(2) . . . . ?
F138 B131 F131 F134 -38.5(15) . . . . ?
F13A B131 F131 F134 128(4) . . . . ?
F132 B131 F131 F134 -72(2) . . . . ?
F136 B131 F131 F134 172(2) . . . . ?
F13C B131 F131 F134 146(6) . . . . ?
F135 B131 F131 F134 60(8) . . . . ?
F133 B131 F131 F134 103.9(19) . . . . ?
F137 B131 F131 F134 37(2) . . . . ?
F13B B131 F131 F134 -123.1(19) . . . . ?
F13D B131 F134 F131 60(5) . . . . ?
F138 B131 F134 F131 80(3) . . . . ?
F13A B131 F134 F131 -28.0(18) . . . . ?
F132 B131 F134 F131 130.6(18) . . . . ?
F136 B131 F134 F131 -47(10) . . . . ?
F13C B131 F134 F131 -168(2) . . . . ?
F135 B131 F134 F131 -14(2) . . . . ?
F133 B131 F134 F131 -102.7(18) . . . . ?
F137 B131 F134 F131 -147(2) . . . . ?
F13B B131 F134 F131 75.6(19) . . . . ?
F13D B131 F135 F138 20(2) . . . . ?
F13A B131 F135 F138 -167(4) . . . . ?
F131 B131 F135 F138 -77(9) . . . . ?
F134 B131 F135 F138 38.5(15) . . . . ?
F132 B131 F135 F138 -18(3) . . . . ?
F136 B131 F135 F138 -148(2) . . . . ?
F13C B131 F135 F138 153(4) . . . . ?
F133 B131 F135 F138 145(2) . . . . ?
F137 B131 F135 F138 83.3(19) . . . . ?
F13B B131 F135 F138 -80.3(19) . . . . ?
F13D B131 F138 F135 -58(4) . . . . ?
F13A B131 F138 F135 7(2) . . . . ?
F131 B131 F138 F135 16(2) . . . . ?
F134 B131 F138 F135 -73(3) . . . . ?
F132 B131 F138 F135 166(2) . . . . ?
F136 B131 F138 F135 89(4) . . . . ?
F13C B131 F138 F135 -166(2) . . . . ?
F133 B131 F138 F135 -78(3) . . . . ?
F137 B131 F138 F135 -113.8(17) . . . . ?
F13B B131 F138 F135 102.7(19) . . . . ?
F15G B151 F151 F153 3(4) . . . . ?
F157 B151 F151 F153 -22(2) . . . . ?
F15C B151 F151 F153 24(2) . . . . ?
F15B B151 F151 F153 157(3) . . . . ?
F154 B151 F151 F153 -120(3) . . . . ?
F156 B151 F151 F153 78(4) . . . . ?
F155 B151 F151 F153 68(6) . . . . ?
F15A B151 F151 F153 -19(49) . . . . ?
F15F B151 F151 F153 132(2) . . . . ?
F15H B151 F151 F153 -19(10) . . . . ?
F15G B151 F153 F151 -9(11) . . . . ?
F157 B151 F153 F151 72(7) . . . . ?
F15C B151 F153 F151 -91(6) . . . . ?
F15B B151 F153 F151 -140(5) . . . . ?
F154 B151 F153 F151 136(3) . . . . ?
F156 B151 F153 F151 -147(3) . . . . ?
F155 B151 F153 F151 -24(3) . . . . ?
F15A B151 F153 F151 2(4) . . . . ?
F15F B151 F153 F151 -69(3) . . . . ?
F15H B151 F153 F151 175(3) . . . . ?
F15G B151 F155 F157 18(2) . . . . ?
F153 B151 F155 F157 23(2) . . . . ?
F15C B151 F155 F157 46.8(18) . . . . ?
F151 B151 F155 F157 -83(6) . . . . ?
F15B B151 F155 F157 172(2) . . . . ?
F154 B151 F155 F157 -99(5) . . . . ?
F156 B151 F155 F157 103(2) . . . . ?
F15A B151 F155 F157 -72(5) . . . . ?
F15F B151 F155 F157 167(2) . . . . ?
F15H B151 F155 F157 64(4) . . . . ?
F15G B151 F157 F155 -35(5) . . . . ?
F153 B151 F157 F155 -78(6) . . . . ?
F15C B151 F157 F155 -68(2) . . . . ?
F151 B151 F157 F155 25(3) . . . . ?
F15B B151 F157 F155 -153(7) . . . . ?
F154 B151 F157 F155 158.4(18) . . . . ?
F156 B151 F157 F155 -119(2) . . . . ?
F15A B151 F157 F155 25(2) . . . . ?
F15F B151 F157 F155 -21(3) . . . . ?
F15H B151 F157 F155 -153.6(19) . . . . ?
F215 B211 F212 F214 25.2(16) . . . . ?
F211 B211 F212 F214 74(3) . . . . ?
F218 B211 F212 F214 -78(5) . . . . ?
F217 B211 F212 F214 -57(3) . . . . ?
F213 B211 F212 F214 -139(2) . . . . ?
F216 B211 F212 F214 128(2) . . . . ?
F215 B211 F214 F212 -87(4) . . . . ?
F211 B211 F214 F212 -137.3(18) . . . . ?
F218 B211 F214 F212 21.0(17) . . . . ?
F217 B211 F214 F212 151.6(18) . . . . ?
F213 B211 F214 F212 87(3) . . . . ?
F216 B211 F214 F212 -82(2) . . . . ?
F214 B211 F215 F218 65(4) . . . . ?
F211 B211 F215 F218 -167.0(18) . . . . ?
F217 B211 F215 F218 125.2(18) . . . . ?
F212 B211 F215 F218 -19.8(16) . . . . ?
F213 B211 F215 F218 51(6) . . . . ?
F216 B211 F215 F218 -110.7(17) . . . . ?
F214 B211 F218 F215 -23.2(17) . . . . ?
F211 B211 F218 F215 28(4) . . . . ?
F217 B211 F218 F215 -94(2) . . . . ?
F212 B211 F218 F215 71(6) . . . . ?
F213 B211 F218 F215 -167(2) . . . . ?
F216 B211 F218 F215 99.2(19) . . . . ?
F245 B241 F243 F244 47(5) . . . . ?
F24A B241 F243 F244 84(3) . . . . ?
F248 B241 F243 F244 -39.4(19) . . . . ?
F24B B241 F243 F244 175(9) . . . . ?
F241 B241 F243 F244 134(2) . . . . ?
F247 B241 F243 F244 -175(2) . . . . ?
F24C B241 F243 F244 -125(3) . . . . ?
F242 B241 F243 F244 -117(2) . . . . ?
F24D B241 F243 F244 -10(2) . . . . ?
F246 B241 F243 F244 83(3) . . . . ?
F245 B241 F244 F243 -15(2) . . . . ?
F24A B241 F244 F243 -43.1(14) . . . . ?
F248 B241 F244 F243 124(3) . . . . ?
F24B B241 F244 F243 -178(2) . . . . ?
F241 B241 F244 F243 -89(3) . . . . ?
F247 B241 F244 F243 45(18) . . . . ?
F24C B241 F244 F243 35.6(15) . . . . ?
F242 B241 F244 F243 109(2) . . . . ?
F24D B241 F244 F243 66(13) . . . . ?
F246 B241 F244 F243 -136(2) . . . . ?
O32 O13 O72 O22 -62(57) . . . . ?

_diffrn_measured_fraction_theta_max 0.867
_diffrn_reflns_theta_full        30.35
_diffrn_measured_fraction_theta_full 0.867
_refine_diff_density_max         0.581
_refine_diff_density_min         -0.673
_refine_diff_density_rms         0.068

loop_
_platon_squeeze_void_nr
_platon_squeeze_void_average_x
_platon_squeeze_void_average_y
_platon_squeeze_void_average_z
_platon_squeeze_void_volume
_platon_squeeze_void_count_electrons
_platon_squeeze_void_content
1 0.002 0.004 -0.009 31951 8096 ' '
_platon_squeeze_void_probe_radius 1.20
_platon_squeeze_details          ?

