####################################################################### 
# 
# This file contains crystal structure data downloaded from the 
# Cambridge Structural Database (CSD) hosted by the Cambridge 
# Crystallographic Data Centre (CCDC).
# 
# Full information about CCDC data access policies and citation 
# guidelines are available at http://www.ccdc.cam.ac.uk/access/V1 
# 
# Audit and citation data items may have been added by the CCDC. 
# Please retain this information to preserve the provenance of 
# this file and to allow appropriate attribution of the data. 
# 
#######################################################################

data_p-1
_audit_block_doi                 10.5517/cc139zhw
_database_code_depnum_ccdc_archive 'CCDC 1022488'
loop_
_citation_id
_citation_doi
_citation_year
1 10.1002/anie.201409216 2015
_audit_update_record             
;
2014-09-02 deposited with the CCDC.	2019-03-04 downloaded from the CCDC.
;

_audit_creation_method           SHELXL-97
_chemical_name_systematic        
; 
 ? 
;
_chemical_name_common            'M12L24 spherical complex'
_chemical_melting_point          ?
_chemical_formula_moiety         '(C336 H264 N120), Pd12, 24(B F4), O50.30'
_chemical_formula_sum            'C336 H264 B24 F96 N120 O50.30 Pd12'
_chemical_formula_weight         10147.71

loop_
_atom_type_symbol
_atom_type_description
_atom_type_scat_dispersion_real
_atom_type_scat_dispersion_imag
_atom_type_scat_source
C C 0.0068 0.0032 'International Tables Vol C Tables 4.2.6.8 and 6.1.1.4'
H H 0.0000 0.0000 'International Tables Vol C Tables 4.2.6.8 and 6.1.1.4'
B B 0.0034 0.0014 'International Tables Vol C Tables 4.2.6.8 and 6.1.1.4'
N N 0.0124 0.0065 'International Tables Vol C Tables 4.2.6.8 and 6.1.1.4'
O O 0.0208 0.0118 'International Tables Vol C Tables 4.2.6.8 and 6.1.1.4'
F F 0.0322 0.0197 'International Tables Vol C Tables 4.2.6.8 and 6.1.1.4'
Pd Pd -0.4095 1.7310 'International Tables Vol C Tables 4.2.6.8 and 6.1.1.4'

_symmetry_cell_setting           Triclinic
_symmetry_space_group_name_H-M   'P -1'
_symmetry_space_group_name_Hall  '-P 1'

loop_
_symmetry_equiv_pos_as_xyz
'x, y, z'
'-x, -y, -z'

_cell_length_a                   37.976(8)
_cell_length_b                   37.978(8)
_cell_length_c                   37.982(8)
_cell_angle_alpha                78.98(3)
_cell_angle_beta                 78.97(3)
_cell_angle_gamma                78.97(3)
_cell_volume                     52092(18)
_cell_formula_units_Z            2
_cell_measurement_temperature    296(2)
_cell_measurement_reflns_used    89153
_cell_measurement_theta_min      ?
_cell_measurement_theta_max      ?

_exptl_crystal_description       block
_exptl_crystal_colour            colorless
_exptl_crystal_size_max          0.20
_exptl_crystal_size_mid          0.20
_exptl_crystal_size_min          0.20
_exptl_crystal_density_meas      ?
_exptl_crystal_density_diffrn    0.647
_exptl_crystal_density_method    'not measured'
_exptl_crystal_F_000             10117
_exptl_absorpt_coefficient_mu    0.556
_exptl_absorpt_correction_type   empirical
_exptl_absorpt_correction_T_min  0.8970
_exptl_absorpt_correction_T_max  0.8970
_exptl_absorpt_process_details   'HKL2000 DENZO SCALEPACK'


_exptl_special_details           
; 
 ? 
;

_diffrn_ambient_temperature      296(2)
_diffrn_radiation_wavelength     0.96000
_diffrn_radiation_type           synchrotron
_diffrn_radiation_source         'KEK PF BL1A beamline'
_diffrn_radiation_monochromator  graphite
_diffrn_measurement_device_type  'Si 111'
_diffrn_measurement_method       'oscillation method, \w scans'
_diffrn_measurement_details      
;
two data sets were merged:
(i) 1.00 degrees, 2.0 sec, detector distance 90.9 mm
(ii) 2.00 degrees, 1.0 sec, detector distance 212 mm
;
_diffrn_detector_area_resol_mean ?
_diffrn_standards_number         ?
_diffrn_standards_interval_count ?
_diffrn_standards_interval_time  ?
_diffrn_standards_decay_%        ?
_diffrn_reflns_number            244309
_diffrn_reflns_av_R_equivalents  0.0639
_diffrn_reflns_av_sigmaI/netI    0.0546
_diffrn_reflns_limit_h_min       -39
_diffrn_reflns_limit_h_max       36
_diffrn_reflns_limit_k_min       -39
_diffrn_reflns_limit_k_max       37
_diffrn_reflns_limit_l_min       -39
_diffrn_reflns_limit_l_max       39
_diffrn_reflns_theta_min         0.75
_diffrn_reflns_theta_max         30.35
_reflns_number_total             110339
_reflns_number_gt                70602
_reflns_threshold_expression     >2\s(I)

_computing_data_collection       'KEK ugui'
_computing_cell_refinement       HKL2000
_computing_data_reduction        HKL2000
_computing_structure_solution    superflip
_computing_structure_refinement  'SHELXL-97 (Sheldrick, 1997)'
_computing_molecular_graphics    'Yadokari-XG 2009 (Wakita Nemoto et al., 2009)'
_computing_publication_material  'Yadokari-XG 2009 (Wakita Nemoto et al., 2009)'

_refine_special_details          
; 
 Refinement of F^2^ against ALL reflections.  The weighted R-factor wR and 
 goodness of fit S are based on F^2^, conventional R-factors R are based 
 on F, with F set to zero for negative F^2^. The threshold expression of 
 F^2^ > 2sigma(F^2^) is used only for calculating R-factors(gt) etc. and is 
 not relevant to the choice of reflections for refinement.  R-factors based 
 on F^2^ are statistically about twice as large as those based on F, and R- 
 factors based on ALL data will be even larger. 
;

_refine_ls_structure_factor_coef Fsqd
_refine_ls_matrix_type           full
_refine_ls_weighting_scheme      calc
_refine_ls_weighting_details     
'calc w=1/[\s^2^(Fo^2^)+(0.2000P)^2^] where P=(Fo^2^+2Fc^2^)/3'
_atom_sites_solution_primary     iterative
_atom_sites_solution_secondary   difmap
_atom_sites_solution_hydrogens   geom
_refine_ls_hydrogen_treatment    constr
_refine_ls_extinction_method     none
_refine_ls_extinction_coef       ?
_refine_ls_number_reflns         110339
_refine_ls_number_parameters     6893
_refine_ls_number_restraints     7616
_refine_ls_R_factor_all          0.1523
_refine_ls_R_factor_gt           0.1321
_refine_ls_wR_factor_ref         0.3767
_refine_ls_wR_factor_gt          0.3581
_refine_ls_goodness_of_fit_ref   1.395
_refine_ls_restrained_S_all      1.452
_refine_ls_shift/su_max          0.002
_refine_ls_shift/su_mean         0.000

loop_
_atom_site_label
_atom_site_type_symbol
_atom_site_fract_x
_atom_site_fract_y
_atom_site_fract_z
_atom_site_U_iso_or_equiv
_atom_site_adp_type
_atom_site_occupancy
_atom_site_symmetry_multiplicity
_atom_site_calc_flag
_atom_site_refinement_flags
_atom_site_disorder_assembly
_atom_site_disorder_group
N1A N -0.3001(3) 1.0876(2) 0.7264(2) 0.166(2) Uani 1 1 d U A .
C1A C -0.2707(3) 1.0617(3) 0.7245(4) 0.189(4) Uani 1 1 d U . .
H1 H -0.2542 1.0626 0.7029 0.227 Uiso 1 1 calc R . .
C2A C -0.2633(4) 1.0344(3) 0.7517(4) 0.209(5) Uani 1 1 d U A .
H2 H -0.2414 1.0184 0.7501 0.251 Uiso 1 1 calc R . .
C3A C -0.2896(4) 1.0313(3) 0.7820(3) 0.198(4) Uani 1 1 d DU . .
C4A C -0.3207(4) 1.0579(4) 0.7848(4) 0.204(4) Uani 1 1 d U A .
H3 H -0.3382 1.0566 0.8056 0.245 Uiso 1 1 calc R . .
C5A C -0.3247(3) 1.0848(3) 0.7574(4) 0.184(4) Uani 1 1 d U . .
H4 H -0.3453 1.1025 0.7595 0.220 Uiso 1 1 calc R A .
N2A N -0.2530(12) 0.9798(12) 0.8043(9) 0.215(11) Uani 0.30(3) 1 d PGU A 1
C6A C -0.2750(12) 1.0111(9) 0.8145(8) 0.230(12) Uani 0.30(3) 1 d PGDU A 1
N3A N -0.2912(13) 1.0114(9) 0.8505(9) 0.262(14) Uani 0.30(3) 1 d PGDU A 1
C7A C -0.2853(13) 0.9805(12) 0.8763(7) 0.254(14) Uani 0.30(3) 1 d PGDU A 1
N4A N -0.2633(13) 0.9492(10) 0.8661(12) 0.249(14) Uani 0.30(3) 1 d PGDU A 1
C8A C -0.2472(13) 0.9489(9) 0.8301(14) 0.228(11) Uani 0.30(3) 1 d PGDU A 1
C9A C -0.300(2) 0.9786(17) 0.9125(15) 0.30(3) Uani 0.30(3) 1 d PDU A 1
H5 H -0.3214 0.9677 0.9172 0.446 Uiso 0.30(3) 1 calc PR A 1
H6 H -0.3057 1.0026 0.9187 0.446 Uiso 0.30(3) 1 calc PR A 1
H7 H -0.2823 0.9641 0.9268 0.446 Uiso 0.30(3) 1 calc PR A 1
N52A N -0.2567(4) 0.9718(4) 0.8074(4) 0.191(5) Uani 0.70(3) 1 d PGU A 2
C56A C -0.2868(4) 0.9991(4) 0.8104(4) 0.202(7) Uani 0.70(3) 1 d PGDU A 2
N53A N -0.3131(5) 0.9970(4) 0.8413(5) 0.256(10) Uani 0.70(3) 1 d PGDU A 2
C57A C -0.3094(6) 0.9677(5) 0.8692(5) 0.281(12) Uani 0.70(3) 1 d PGDU A 2
N54A N -0.2793(6) 0.9404(5) 0.8662(5) 0.270(10) Uani 0.70(3) 1 d PGDU A 2
C58A C -0.2530(5) 0.9425(4) 0.8353(6) 0.228(8) Uani 0.70(3) 1 d PGDU A 2
C59A C -0.3383(9) 0.9644(8) 0.9005(7) 0.36(2) Uani 0.70(3) 1 d PDU A 2
H8 H -0.3556 0.9865 0.8997 0.544 Uiso 0.70(3) 1 calc PR A 2
H9 H -0.3281 0.9601 0.9225 0.544 Uiso 0.70(3) 1 calc PR A 2
H10 H -0.3503 0.9445 0.9000 0.544 Uiso 0.70(3) 1 calc PR A 2
N5A N -0.1654(2) 0.8574(3) 0.8174(2) 0.173(3) Uani 1 1 d U A .
C10A C -0.1688(3) 0.8880(4) 0.7938(3) 0.181(3) Uani 1 1 d U . .
H11 H -0.1511 0.8899 0.7733 0.217 Uiso 1 1 calc R . .
C11A C -0.1967(4) 0.9179(3) 0.7970(3) 0.188(4) Uani 1 1 d U A .
H12 H -0.1987 0.9381 0.7788 0.226 Uiso 1 1 calc R . .
C12A C -0.2210(3) 0.9152(3) 0.8292(4) 0.205(4) Uani 1 1 d DU . .
C13A C -0.2181(4) 0.8849(4) 0.8551(3) 0.217(5) Uani 1 1 d U A .
H13 H -0.2342 0.8834 0.8769 0.261 Uiso 1 1 calc R . .
C14A C -0.1909(4) 0.8569(4) 0.8480(4) 0.209(5) Uani 1 1 d U . .
H14 H -0.1896 0.8359 0.8653 0.251 Uiso 1 1 calc R A .
N1B N -0.3157(2) 0.8893(2) 0.5451(2) 0.158(2) Uani 1 1 d U B .
C1B C -0.3007(3) 0.9152(4) 0.5543(3) 0.202(4) Uani 1 1 d U . .
H15 H -0.2756 0.9135 0.5498 0.242 Uiso 1 1 calc R . .
C2B C -0.3211(4) 0.9438(4) 0.5699(4) 0.209(4) Uani 1 1 d U B .
H16 H -0.3098 0.9605 0.5769 0.251 Uiso 1 1 calc R . .
C3B C -0.3577(3) 0.9473(3) 0.5750(3) 0.184(4) Uani 1 1 d DU . .
C4B C -0.3723(3) 0.9224(3) 0.5653(3) 0.183(4) Uani 1 1 d U B .
H17 H -0.3975 0.9240 0.5692 0.219 Uiso 1 1 calc R . .
C5B C -0.3509(4) 0.8942(3) 0.5493(3) 0.172(3) Uani 1 1 d U . .
H18 H -0.3621 0.8782 0.5412 0.206 Uiso 1 1 calc R B .
N2B N -0.3632(3) 0.9965(6) 0.6043(6) 0.197(6) Uani 0.64(2) 1 d PGU B 1
C6B C -0.3817(4) 0.9752(5) 0.5907(6) 0.218(7) Uani 0.64(2) 1 d PGDU B 1
N3B N -0.4194(5) 0.9817(5) 0.5955(7) 0.235(7) Uani 0.64(2) 1 d PGDU B 1
C7B C -0.4387(3) 1.0095(6) 0.6140(8) 0.264(10) Uani 0.64(2) 1 d PGDU B 1
N4B N -0.4202(4) 1.0308(5) 0.6276(7) 0.240(8) Uani 0.64(2) 1 d PGDU B 1
C8B C -0.3824(4) 1.0243(5) 0.6227(6) 0.218(7) Uani 0.64(2) 1 d PGDU B 1
C9B C -0.4777(6) 1.0172(10) 0.6102(12) 0.320(18) Uani 0.64(2) 1 d PDU B 1
H19 H -0.4834 0.9981 0.6000 0.480 Uiso 0.64(2) 1 calc PR B 1
H20 H -0.4825 1.0399 0.5944 0.480 Uiso 0.64(2) 1 calc PR B 1
H21 H -0.4923 1.0184 0.6336 0.480 Uiso 0.64(2) 1 calc PR B 1
N52B N -0.3645(6) 1.0035(9) 0.6079(11) 0.192(8) Uani 0.36(2) 1 d PGU B 2
C56B C -0.3756(8) 0.9813(7) 0.5883(11) 0.207(8) Uani 0.36(2) 1 d PGDU B 2
N53B N -0.4083(10) 0.9919(9) 0.5750(10) 0.243(11) Uani 0.36(2) 1 d PGDU B 2
C57B C -0.4299(8) 1.0247(9) 0.5813(12) 0.247(11) Uani 0.36(2) 1 d PGDU B 2
N54B N -0.4189(8) 1.0469(7) 0.6009(12) 0.252(12) Uani 0.36(2) 1 d PGDU B 2
C58B C -0.3862(8) 1.0362(8) 0.6142(10) 0.235(11) Uani 0.36(2) 1 d PGDU B 2
C59B C -0.4718(16) 1.051(2) 0.574(2) 0.35(5) Uani 0.36(2) 1 d PD B 2
H22 H -0.4762 1.0720 0.5859 0.532 Uiso 0.36(2) 1 calc PR B 2
H23 H -0.4909 1.0372 0.5824 0.532 Uiso 0.36(2) 1 calc PR B 2
H24 H -0.4711 1.0597 0.5479 0.532 Uiso 0.36(2) 1 calc PR B 2
N5B N -0.3331(3) 1.0949(2) 0.6631(2) 0.174(3) Uani 1 1 d U A .
C10B C -0.3133(3) 1.0703(4) 0.6435(4) 0.217(5) Uani 1 1 d U . .
H25 H -0.2880 1.0677 0.6390 0.260 Uiso 1 1 calc R . .
C11B C -0.3318(4) 1.0480(4) 0.6295(4) 0.220(5) Uani 1 1 d U B .
H26 H -0.3182 1.0310 0.6154 0.263 Uiso 1 1 calc R . .
C12B C -0.3664(3) 1.0506(3) 0.6356(4) 0.197(4) Uani 1 1 d DU . .
C13B C -0.3862(4) 1.0754(4) 0.6533(4) 0.220(5) Uani 1 1 d U B .
H27 H -0.4114 1.0783 0.6568 0.264 Uiso 1 1 calc R . .
C14B C -0.3680(4) 1.0981(3) 0.6674(4) 0.208(5) Uani 1 1 d U . .
H28 H -0.3820 1.1160 0.6801 0.249 Uiso 1 1 calc R B .
N1C N -0.2771(2) 0.8211(2) 0.57563(19) 0.153(2) Uani 1 1 d U B .
C1C C -0.2499(3) 0.8260(4) 0.5892(3) 0.190(4) Uani 1 1 d U . .
H29 H -0.2335 0.8402 0.5749 0.228 Uiso 1 1 calc R . .
C2C C -0.2443(3) 0.8099(3) 0.6258(3) 0.185(4) Uani 1 1 d U . .
H30 H -0.2237 0.8120 0.6346 0.222 Uiso 1 1 calc R . .
C3C C -0.2710(3) 0.7911(3) 0.6472(3) 0.162(3) Uani 1 1 d U . .
C4C C -0.3003(3) 0.7880(3) 0.6329(3) 0.164(3) Uani 1 1 d U . .
H31 H -0.3187 0.7762 0.6472 0.197 Uiso 1 1 calc R . .
C5C C -0.3025(3) 0.8028(3) 0.5967(3) 0.161(3) Uani 1 1 d U . .
H32 H -0.3221 0.7999 0.5868 0.193 Uiso 1 1 calc R . .
N2C N -0.2406(2) 0.7820(2) 0.6997(2) 0.165(2) Uani 1 1 d U . .
C6C C -0.2675(3) 0.7748(3) 0.6851(3) 0.154(3) Uani 1 1 d U . .
N3C N -0.2908(2) 0.7538(2) 0.7037(2) 0.160(2) Uani 1 1 d U . .
C7C C -0.2870(3) 0.7401(3) 0.7379(3) 0.164(3) Uani 1 1 d U . .
N4C N -0.2618(2) 0.7471(2) 0.7539(2) 0.160(2) Uani 1 1 d U . .
C8C C -0.2393(3) 0.7680(3) 0.7337(3) 0.151(3) Uani 1 1 d U . .
C9C C -0.3145(3) 0.7176(3) 0.7605(3) 0.192(4) Uani 1 1 d U . .
H33 H -0.3314 0.7150 0.7458 0.288 Uiso 1 1 calc R . .
H34 H -0.3272 0.7294 0.7805 0.288 Uiso 1 1 calc R . .
H35 H -0.3022 0.6940 0.7696 0.288 Uiso 1 1 calc R . .
N5C N -0.1604(2) 0.7971(2) 0.7849(2) 0.160(2) Uani 1 1 d U A .
C10C C -0.1620(3) 0.8078(3) 0.7481(3) 0.178(3) Uani 1 1 d U . .
H36 H -0.1458 0.8225 0.7342 0.214 Uiso 1 1 calc R . .
C11C C -0.1858(3) 0.7979(3) 0.7318(3) 0.170(3) Uani 1 1 d U . .
H37 H -0.1856 0.8057 0.7071 0.204 Uiso 1 1 calc R . .
C12C C -0.2101(3) 0.7767(3) 0.7507(3) 0.156(3) Uani 1 1 d U . .
C13C C -0.2094(3) 0.7657(3) 0.7873(3) 0.162(3) Uani 1 1 d U . .
H38 H -0.2255 0.7507 0.8010 0.194 Uiso 1 1 calc R . .
C14C C -0.1848(3) 0.7768(3) 0.8041(3) 0.162(3) Uani 1 1 d U . .
H39 H -0.1854 0.7700 0.8291 0.195 Uiso 1 1 calc R . .
N1D N -0.0876(2) 0.7744(3) 0.8003(3) 0.168(2) Uani 1 1 d U A .
C1D C -0.0611(3) 0.7760(4) 0.7696(3) 0.189(4) Uani 1 1 d U . .
H40 H -0.0621 0.7972 0.7526 0.227 Uiso 1 1 calc R . .
C2D C -0.0337(3) 0.7479(4) 0.7631(3) 0.195(4) Uani 1 1 d U C .
H41 H -0.0169 0.7493 0.7417 0.234 Uiso 1 1 calc R . .
C3D C -0.0316(3) 0.7179(3) 0.7891(4) 0.193(4) Uani 1 1 d DU . .
C4D C -0.0570(4) 0.7157(4) 0.8195(4) 0.209(5) Uani 1 1 d U C .
H42 H -0.0551 0.6950 0.8372 0.251 Uiso 1 1 calc R . .
C5D C -0.0852(3) 0.7431(4) 0.8246(3) 0.185(4) Uani 1 1 d U . .
H43 H -0.1030 0.7404 0.8450 0.223 Uiso 1 1 calc R C .
N2D N 0.0262(6) 0.6929(5) 0.7560(5) 0.198(6) Uani 0.65(2) 1 d PGU C 1
C6D C 0.0001(5) 0.6899(5) 0.7871(5) 0.208(8) Uani 0.65(2) 1 d PGDU C 1
N3D N 0.0048(5) 0.6605(6) 0.8148(5) 0.251(10) Uani 0.65(2) 1 d PGDU C 1
C7D C 0.0357(6) 0.6342(5) 0.8115(6) 0.280(13) Uani 0.65(2) 1 d PGDU C 1
N4D N 0.0618(5) 0.6372(6) 0.7804(6) 0.268(11) Uani 0.65(2) 1 d PGDU C 1
C8D C 0.0571(6) 0.6666(7) 0.7527(5) 0.226(8) Uani 0.65(2) 1 d PGDU C 1
C9D C 0.0348(8) 0.6027(9) 0.8404(9) 0.32(2) Uani 0.65(2) 1 d PDU C 1
H44 H 0.0143 0.6076 0.8590 0.480 Uiso 0.65(2) 1 calc PR C 1
H45 H 0.0567 0.5980 0.8506 0.480 Uiso 0.65(2) 1 calc PR C 1
H46 H 0.0326 0.5819 0.8306 0.480 Uiso 0.65(2) 1 calc PR C 1
N52D N 0.0277(13) 0.6936(8) 0.7560(11) 0.206(11) Uani 0.35(2) 1 d PGU C 2
C56D C -0.0053(10) 0.6875(8) 0.7774(10) 0.219(10) Uani 0.35(2) 1 d PGDU C 2
N53D N -0.0099(7) 0.6525(11) 0.7944(11) 0.254(13) Uani 0.35(2) 1 d PGDU C 2
C57D C 0.0184(11) 0.6237(7) 0.7902(11) 0.258(14) Uani 0.35(2) 1 d PGDU C 2
N54D N 0.0514(9) 0.6298(9) 0.7688(10) 0.239(13) Uani 0.35(2) 1 d PGDU C 2
C58D C 0.0560(9) 0.6648(12) 0.7518(10) 0.226(10) Uani 0.35(2) 1 d PGDU C 2
C59D C 0.0182(15) 0.5869(10) 0.8079(18) 0.28(2) Uani 0.35(2) 1 d PDU C 2
H47 H -0.0029 0.5857 0.8263 0.427 Uiso 0.35(2) 1 calc PR C 2
H48 H 0.0397 0.5784 0.8188 0.427 Uiso 0.35(2) 1 calc PR C 2
H49 H 0.0176 0.5719 0.7904 0.427 Uiso 0.35(2) 1 calc PR C 2
N5D N 0.1435(3) 0.6823(2) 0.6651(2) 0.174(3) Uani 1 1 d U C .
C10D C 0.1115(4) 0.7059(4) 0.6688(3) 0.191(4) Uani 1 1 d U . .
H50 H 0.1091 0.7264 0.6510 0.229 Uiso 1 1 calc R . .
C11D C 0.0822(3) 0.7023(3) 0.6966(4) 0.188(4) Uani 1 1 d U C .
H51 H 0.0617 0.7202 0.6980 0.225 Uiso 1 1 calc R . .
C12D C 0.0845(3) 0.6718(4) 0.7218(3) 0.200(4) Uani 1 1 d DU . .
C13D C 0.1161(4) 0.6466(4) 0.7191(4) 0.229(6) Uani 1 1 d U C .
H52 H 0.1182 0.6255 0.7362 0.274 Uiso 1 1 calc R . .
C14D C 0.1445(4) 0.6526(4) 0.6914(4) 0.209(5) Uani 1 1 d U . .
H53 H 0.1656 0.6354 0.6907 0.251 Uiso 1 1 calc R C .
N1E N 0.1113(2) 0.9545(2) 0.8154(2) 0.157(2) Uani 1 1 d U D .
C1E C 0.0853(4) 0.9455(3) 0.8008(3) 0.198(4) Uani 1 1 d U . .
H54 H 0.0872 0.9497 0.7756 0.237 Uiso 1 1 calc R . .
C2E C 0.0567(4) 0.9309(4) 0.8206(3) 0.213(5) Uani 1 1 d U D .
H55 H 0.0399 0.9242 0.8092 0.255 Uiso 1 1 calc R . .
C3E C 0.0527(3) 0.9260(3) 0.8576(3) 0.187(4) Uani 1 1 d DU . .
C4E C 0.0771(3) 0.9355(3) 0.8732(3) 0.175(3) Uani 1 1 d U D .
H56 H 0.0747 0.9323 0.8984 0.210 Uiso 1 1 calc R . .
C5E C 0.1065(3) 0.9504(3) 0.8515(3) 0.162(3) Uani 1 1 d U . .
H57 H 0.1231 0.9576 0.8627 0.195 Uiso 1 1 calc R D .
N2E N 0.0066(10) 0.8949(12) 0.8668(8) 0.221(11) Uani 0.323(18) 1 d PGU D 1
C6E C 0.0197(7) 0.9195(12) 0.8817(9) 0.231(10) Uani 0.323(18) 1 d PGDU D 1
N3E N -0.0003(9) 0.9330(10) 0.9124(9) 0.284(14) Uani 0.323(18) 1 d PGDU D 1
C7E C -0.0334(9) 0.9218(12) 0.9280(8) 0.262(12) Uani 0.323(18) 1 d PGDU D 1
N4E N -0.0465(7) 0.8972(12) 0.9131(10) 0.243(11) Uani 0.323(18) 1 d PGDU D 1
C8E C -0.0265(10) 0.8838(11) 0.8824(10) 0.200(9) Uani 0.323(18) 1 d PGDU D 1
C9E C -0.0507(16) 0.9383(19) 0.9602(15) 0.31(3) Uani 0.323(18) 1 d PDU D 1
H58 H -0.0358 0.9544 0.9644 0.471 Uiso 0.323(18) 1 calc PR D 1
H59 H -0.0535 0.9196 0.9810 0.471 Uiso 0.323(18) 1 calc PR D 1
H60 H -0.0741 0.9518 0.9564 0.471 Uiso 0.323(18) 1 calc PR D 1
N52E N -0.0005(4) 0.8949(6) 0.8627(3) 0.191(5) Uani 0.677(18) 1 d PGU D 2
C56E C 0.0229(3) 0.9089(5) 0.8784(3) 0.206(6) Uani 0.677(18) 1 d PGDU D 2
N53E N 0.0188(4) 0.9054(6) 0.9160(3) 0.243(7) Uani 0.677(18) 1 d PGDU D 2
C57E C -0.0085(5) 0.8880(6) 0.9378(3) 0.270(9) Uani 0.677(18) 1 d PGDU D 2
N54E N -0.0319(4) 0.8740(5) 0.9221(4) 0.239(7) Uani 0.677(18) 1 d PGDU D 2
C58E C -0.0279(4) 0.8775(5) 0.8845(4) 0.217(7) Uani 0.677(18) 1 d PGDU D 2
C59E C -0.0214(9) 0.8888(12) 0.9780(6) 0.350(19) Uani 0.677(18) 1 d PDU D 2
H61 H -0.0409 0.8749 0.9865 0.525 Uiso 0.677(18) 1 calc PR D 2
H62 H -0.0299 0.9135 0.9818 0.525 Uiso 0.677(18) 1 calc PR D 2
H63 H -0.0017 0.8785 0.9912 0.525 Uiso 0.677(18) 1 calc PR D 2
N5E N -0.0950(2) 0.8368(2) 0.8335(3) 0.169(3) Uani 1 1 d U A .
C10E C -0.0704(4) 0.8561(4) 0.8138(3) 0.206(4) Uani 1 1 d U . .
H64 H -0.0678 0.8599 0.7886 0.248 Uiso 1 1 calc R . .
C11E C -0.0487(4) 0.8706(4) 0.8307(4) 0.213(5) Uani 1 1 d U D .
H65 H -0.0322 0.8847 0.8163 0.256 Uiso 1 1 calc R . .
C12E C -0.0503(3) 0.8653(4) 0.8661(3) 0.197(4) Uani 1 1 d DU . .
C13E C -0.0768(4) 0.8460(4) 0.8861(3) 0.228(5) Uani 1 1 d U D .
H66 H -0.0796 0.8420 0.9113 0.274 Uiso 1 1 calc R . .
C14E C -0.0991(3) 0.8327(4) 0.8692(4) 0.201(4) Uani 1 1 d U . .
H67 H -0.1174 0.8206 0.8832 0.242 Uiso 1 1 calc R D .
N1F N 0.2020(2) 0.7156(2) 0.6605(2) 0.161(2) Uani 1 1 d U C .
C1F C 0.1928(3) 0.7519(3) 0.6611(3) 0.178(3) Uani 1 1 d U . .
H68 H 0.1792 0.7659 0.6439 0.214 Uiso 1 1 calc R . .
C2F C 0.2023(3) 0.7688(3) 0.6852(3) 0.175(3) Uani 1 1 d U . .
H69 H 0.1952 0.7937 0.6847 0.209 Uiso 1 1 calc R . .
C3F C 0.2226(3) 0.7487(3) 0.7103(3) 0.157(3) Uani 1 1 d U . .
C4F C 0.2342(3) 0.7127(3) 0.7099(3) 0.154(3) Uani 1 1 d U . .
H70 H 0.2492 0.6993 0.7261 0.185 Uiso 1 1 calc R . .
C5F C 0.2236(3) 0.6963(3) 0.6850(3) 0.161(3) Uani 1 1 d U . .
H71 H 0.2313 0.6715 0.6849 0.193 Uiso 1 1 calc R . .
N2F N 0.2184(2) 0.8005(2) 0.7400(2) 0.160(2) Uani 1 1 d U . .
C6F C 0.2321(3) 0.7668(3) 0.7393(3) 0.150(3) Uani 1 1 d U . .
N3F N 0.2524(2) 0.7458(2) 0.7614(2) 0.158(2) Uani 1 1 d U . .
C7F C 0.2594(3) 0.7624(3) 0.7872(3) 0.162(3) Uani 1 1 d U . .
N4F N 0.2461(2) 0.7970(2) 0.7913(2) 0.161(2) Uani 1 1 d U . .
C8F C 0.2254(3) 0.8150(3) 0.7670(3) 0.153(3) Uani 1 1 d U . .
C9F C 0.2812(3) 0.7387(3) 0.8150(3) 0.199(4) Uani 1 1 d U . .
H72 H 0.2883 0.7147 0.8088 0.299 Uiso 1 1 calc R . .
H73 H 0.2666 0.7375 0.8386 0.299 Uiso 1 1 calc R . .
H74 H 0.3024 0.7489 0.8150 0.299 Uiso 1 1 calc R . .
N5F N 0.1781(2) 0.92417(19) 0.7775(2) 0.156(2) Uani 1 1 d U D .
C10F C 0.1736(4) 0.9102(3) 0.7510(3) 0.191(4) Uani 1 1 d U . .
H75 H 0.1581 0.9237 0.7353 0.230 Uiso 1 1 calc R . .
C11F C 0.1915(4) 0.8743(3) 0.7444(3) 0.191(4) Uani 1 1 d U . .
H76 H 0.1908 0.8663 0.7229 0.229 Uiso 1 1 calc R . .
C12F C 0.2094(3) 0.8527(3) 0.7707(3) 0.159(3) Uani 1 1 d U . .
C13F C 0.2123(3) 0.8679(3) 0.7999(2) 0.161(3) Uani 1 1 d U . .
H77 H 0.2247 0.8540 0.8180 0.193 Uiso 1 1 calc R . .
C14F C 0.1970(3) 0.9035(3) 0.8028(3) 0.157(3) Uani 1 1 d U . .
H78 H 0.1997 0.9134 0.8225 0.189 Uiso 1 1 calc R . .
N1G N 0.1632(2) 0.6667(3) 0.5952(2) 0.173(3) Uani 1 1 d U C .
C1G C 0.1436(4) 0.6861(3) 0.5697(3) 0.205(5) Uani 1 1 d U . .
H79 H 0.1387 0.7113 0.5677 0.246 Uiso 1 1 calc R . .
C2G C 0.1311(4) 0.6698(4) 0.5474(4) 0.214(5) Uani 1 1 d U E .
H80 H 0.1191 0.6842 0.5292 0.257 Uiso 1 1 calc R . .
C3G C 0.1352(4) 0.6337(3) 0.5502(3) 0.197(4) Uani 1 1 d DU . .
C4G C 0.1542(4) 0.6139(3) 0.5757(4) 0.213(5) Uani 1 1 d U E .
H81 H 0.1583 0.5887 0.5781 0.256 Uiso 1 1 calc R . .
C5G C 0.1679(4) 0.6307(4) 0.5985(3) 0.200(4) Uani 1 1 d U . .
H82 H 0.1805 0.6165 0.6163 0.240 Uiso 1 1 calc R E .
N2G N 0.1025(5) 0.6377(3) 0.4978(5) 0.191(6) Uani 0.671(16) 1 d PGU E 1
C6G C 0.1213(5) 0.6181(4) 0.5252(4) 0.218(7) Uani 0.671(16) 1 d PGDU E 1
N3G N 0.1264(5) 0.5804(3) 0.5311(4) 0.244(7) Uani 0.671(16) 1 d PGDU E 1
C7G C 0.1127(6) 0.5621(3) 0.5096(5) 0.258(9) Uani 0.671(16) 1 d PGDU E 1
N4G N 0.0939(5) 0.5817(4) 0.4822(4) 0.240(7) Uani 0.671(16) 1 d PGDU E 1
C8G C 0.0888(5) 0.6195(4) 0.4763(4) 0.216(7) Uani 0.671(16) 1 d PGDU E 1
C9G C 0.1160(11) 0.5231(5) 0.5149(9) 0.36(2) Uani 0.671(16) 1 d PDU E 1
H83 H 0.1299 0.5127 0.5340 0.542 Uiso 0.671(16) 1 calc PR E 1
H84 H 0.1280 0.5145 0.4928 0.542 Uiso 0.671(16) 1 calc PR E 1
H85 H 0.0923 0.5163 0.5214 0.542 Uiso 0.671(16) 1 calc PR E 1
N52G N 0.1114(11) 0.6332(7) 0.5014(9) 0.198(9) Uani 0.329(16) 1 d PGU E 2
C56G C 0.1147(10) 0.6124(8) 0.5353(8) 0.231(11) Uani 0.329(16) 1 d PGDU E 2
N53G N 0.0966(11) 0.5828(8) 0.5475(7) 0.271(13) Uani 0.329(16) 1 d PGDU E 2
C57G C 0.0752(10) 0.5739(8) 0.5257(10) 0.254(11) Uani 0.329(16) 1 d PGDU E 2
N54G N 0.0718(9) 0.5947(9) 0.4918(9) 0.254(11) Uani 0.329(16) 1 d PGDU E 2
C58G C 0.0900(11) 0.6243(8) 0.4797(7) 0.200(8) Uani 0.329(16) 1 d PGDU E 2
C59G C 0.0629(16) 0.5428(14) 0.5532(13) 0.34(3) Uani 0.329(16) 1 d PDU E 2
H90 H 0.0718 0.5420 0.5754 0.505 Uiso 0.329(16) 1 calc PR E 2
H91 H 0.0722 0.5204 0.5440 0.505 Uiso 0.329(16) 1 calc PR E 2
H92 H 0.0368 0.5461 0.5578 0.505 Uiso 0.329(16) 1 calc PR E 2
N5G N 0.0453(2) 0.6849(2) 0.3889(2) 0.160(2) Uani 1 1 d U E .
C10G C 0.0551(4) 0.7000(3) 0.4143(4) 0.202(4) Uani 1 1 d U . .
H86 H 0.0515 0.7252 0.4123 0.243 Uiso 1 1 calc R . .
C11G C 0.0705(4) 0.6791(3) 0.4433(4) 0.211(5) Uani 1 1 d U E .
H87 H 0.0778 0.6901 0.4599 0.253 Uiso 1 1 calc R . .
C12G C 0.0747(4) 0.6429(3) 0.4470(3) 0.192(4) Uani 1 1 d DU . .
C13G C 0.0638(3) 0.6278(3) 0.4226(3) 0.181(4) Uani 1 1 d U E .
H88 H 0.0660 0.6026 0.4256 0.218 Uiso 1 1 calc R . .
C14G C 0.0498(3) 0.6480(3) 0.3939(3) 0.168(3) Uani 1 1 d U . .
H89 H 0.0430 0.6366 0.3772 0.202 Uiso 1 1 calc R E .
N1H N 0.3177(3) 0.8351(2) 0.3570(3) 0.179(3) Uani 1 1 d U . .
C1H C 0.2941(4) 0.8303(3) 0.3896(4) 0.191(4) Uani 1 1 d U . .
H93 H 0.2732 0.8475 0.3923 0.229 Uiso 1 1 calc R . .
C2H C 0.2983(3) 0.8032(4) 0.4178(3) 0.186(4) Uani 1 1 d U F .
H94 H 0.2807 0.8017 0.4385 0.223 Uiso 1 1 calc R . .
C3H C 0.3289(4) 0.7781(3) 0.4152(3) 0.189(4) Uani 1 1 d DU . .
C4H C 0.3528(3) 0.7812(4) 0.3853(4) 0.209(5) Uani 1 1 d U F .
H95 H 0.3738 0.7641 0.3832 0.250 Uiso 1 1 calc R . .
C5H C 0.3474(4) 0.8090(4) 0.3574(4) 0.214(5) Uani 1 1 d U . .
H96 H 0.3655 0.8101 0.3370 0.257 Uiso 1 1 calc R F .
N2H N 0.3079(5) 0.7446(6) 0.4764(7) 0.196(7) Uani 0.62(3) 1 d PGU F 1
C6H C 0.3347(6) 0.7505(5) 0.4464(5) 0.206(8) Uani 0.62(3) 1 d PGDU F 1
N3H N 0.3684(5) 0.7283(7) 0.4447(5) 0.235(9) Uani 0.62(3) 1 d PGDU F 1
C7H C 0.3753(5) 0.7001(7) 0.4730(6) 0.250(11) Uani 0.62(3) 1 d PGDU F 1
N4H N 0.3485(7) 0.6941(7) 0.5030(6) 0.269(11) Uani 0.62(3) 1 d PGDU F 1
C8H C 0.3148(6) 0.7163(8) 0.5047(6) 0.226(9) Uani 0.62(3) 1 d PGDU F 1
C9H C 0.4091(10) 0.6730(12) 0.4744(10) 0.35(2) Uani 0.62(3) 1 d PDU F 1
H97 H 0.4266 0.6788 0.4531 0.525 Uiso 0.62(3) 1 calc PR F 1
H98 H 0.4037 0.6492 0.4751 0.525 Uiso 0.62(3) 1 calc PR F 1
H99 H 0.4190 0.6735 0.4957 0.525 Uiso 0.62(3) 1 calc PR F 1
N52H N 0.3063(9) 0.7446(9) 0.4699(11) 0.192(10) Uani 0.38(3) 1 d PGU F 2
C56H C 0.3298(10) 0.7427(7) 0.4371(9) 0.210(11) Uani 0.38(3) 1 d PGDU F 2
N53H N 0.3562(10) 0.7123(9) 0.4332(8) 0.244(13) Uani 0.38(3) 1 d PGDU F 2
C57H C 0.3592(11) 0.6837(8) 0.4620(10) 0.252(14) Uani 0.38(3) 1 d PGDU F 2
N54H N 0.3357(11) 0.6856(10) 0.4948(9) 0.239(13) Uani 0.38(3) 1 d PGDU F 2
C58H C 0.3093(10) 0.7161(12) 0.4987(9) 0.203(10) Uani 0.38(3) 1 d PGDU F 2
C59H C 0.3859(13) 0.6532(13) 0.4548(14) 0.28(3) Uani 0.38(3) 1 d PDU F 2
H100 H 0.4022 0.6598 0.4329 0.422 Uiso 0.38(3) 1 calc PR F 2
H101 H 0.3743 0.6338 0.4521 0.422 Uiso 0.38(3) 1 calc PR F 2
H102 H 0.3994 0.6455 0.4747 0.422 Uiso 0.38(3) 1 calc PR F 2
N5H N 0.2258(3) 0.7002(3) 0.5880(2) 0.164(2) Uani 1 1 d U C .
C10H C 0.2240(3) 0.7304(3) 0.5621(3) 0.183(4) Uani 1 1 d U . .
H103 H 0.2030 0.7476 0.5636 0.219 Uiso 1 1 calc R . .
C11H C 0.2513(4) 0.7364(3) 0.5346(3) 0.191(4) Uani 1 1 d U F .
H104 H 0.2494 0.7577 0.5179 0.229 Uiso 1 1 calc R . .
C12H C 0.2827(3) 0.7099(4) 0.5314(3) 0.189(4) Uani 1 1 d DU . .
C13H C 0.2856(4) 0.6811(4) 0.5572(4) 0.205(5) Uani 1 1 d U F .
H105 H 0.3072 0.6647 0.5565 0.246 Uiso 1 1 calc R . .
C14H C 0.2575(4) 0.6748(3) 0.5846(3) 0.190(4) Uani 1 1 d U . .
H106 H 0.2596 0.6534 0.6013 0.228 Uiso 1 1 calc R F .
N1I N 0.0757(2) 0.7222(2) 0.3217(2) 0.157(2) Uani 1 1 d U E .
C1I C 0.0895(3) 0.7508(3) 0.3247(4) 0.199(4) Uani 1 1 d U . .
H107 H 0.0748 0.7684 0.3373 0.239 Uiso 1 1 calc R . .
C2I C 0.1257(3) 0.7557(3) 0.3093(4) 0.191(4) Uani 1 1 d U . .
H108 H 0.1349 0.7759 0.3122 0.229 Uiso 1 1 calc R . .
C3I C 0.1469(3) 0.7297(3) 0.2901(3) 0.160(3) Uani 1 1 d U . .
C4I C 0.1327(3) 0.7006(3) 0.2875(3) 0.165(3) Uani 1 1 d U . .
H109 H 0.1468 0.6822 0.2755 0.198 Uiso 1 1 calc R . .
C5I C 0.0968(3) 0.6980(3) 0.3027(3) 0.158(3) Uani 1 1 d U . .
H110 H 0.0871 0.6784 0.2994 0.189 Uiso 1 1 calc R . .
N2I N 0.1996(2) 0.7596(2) 0.2821(2) 0.161(2) Uani 1 1 d U . .
C6I C 0.1849(3) 0.7333(3) 0.2745(3) 0.155(3) Uani 1 1 d U . .
N3I N 0.2029(3) 0.7089(2) 0.2540(2) 0.167(2) Uani 1 1 d U . .
C7I C 0.2377(3) 0.7124(3) 0.2403(3) 0.163(3) Uani 1 1 d U . .
N4I N 0.2543(2) 0.7387(2) 0.2470(2) 0.167(2) Uani 1 1 d U . .
C8I C 0.2324(3) 0.7614(2) 0.2677(3) 0.151(3) Uani 1 1 d U . .
C9I C 0.2604(3) 0.6847(3) 0.2186(3) 0.198(4) Uani 1 1 d U . .
H111 H 0.2844 0.6908 0.2106 0.297 Uiso 1 1 calc R . .
H112 H 0.2495 0.6845 0.1979 0.297 Uiso 1 1 calc R . .
H113 H 0.2618 0.6612 0.2334 0.297 Uiso 1 1 calc R . .
N5I N 0.2847(2) 0.8397(2) 0.2978(2) 0.161(2) Uani 1 1 d U . .
C10I C 0.2481(3) 0.8397(3) 0.3068(3) 0.185(4) Uani 1 1 d U . .
H114 H 0.2340 0.8572 0.3198 0.222 Uiso 1 1 calc R . .
C11I C 0.2311(3) 0.8145(3) 0.2972(3) 0.171(3) Uani 1 1 d U . .
H115 H 0.2063 0.8147 0.3046 0.205 Uiso 1 1 calc R . .
C12I C 0.2508(3) 0.7896(3) 0.2772(3) 0.156(3) Uani 1 1 d U . .
C13I C 0.2871(3) 0.7908(3) 0.2655(3) 0.156(3) Uani 1 1 d U . .
H116 H 0.3004 0.7748 0.2502 0.187 Uiso 1 1 calc R . .
C14I C 0.3045(3) 0.8154(3) 0.2761(3) 0.166(3) Uani 1 1 d U . .
H117 H 0.3292 0.8153 0.2685 0.199 Uiso 1 1 calc R . .
N1J N -0.0254(2) 0.7087(2) 0.3710(2) 0.165(2) Uani 1 1 d U E .
C1J C -0.0459(4) 0.7318(3) 0.3931(3) 0.192(4) Uani 1 1 d U . .
H118 H -0.0358 0.7509 0.3971 0.230 Uiso 1 1 calc R . .
C2J C -0.0803(3) 0.7282(4) 0.4097(3) 0.192(4) Uani 1 1 d U . .
H119 H -0.0937 0.7450 0.4240 0.230 Uiso 1 1 calc R . .
C3J C -0.0944(3) 0.7003(4) 0.4052(4) 0.190(4) Uani 1 1 d U . .
C4J C -0.0767(3) 0.6767(4) 0.3839(4) 0.205(4) Uani 1 1 d U . .
H120 H -0.0871 0.6578 0.3800 0.246 Uiso 1 1 calc R . .
C5J C -0.0402(3) 0.6819(3) 0.3672(4) 0.201(4) Uani 1 1 d U . .
H121 H -0.0266 0.6651 0.3529 0.242 Uiso 1 1 calc R . .
N2J N -0.1518(2) 0.72367(19) 0.4398(2) 0.193(3) Uani 1 1 d GU . .
C6J C -0.13018(18) 0.6964(2) 0.4220(3) 0.217(5) Uani 1 1 d GU . .
N3J N -0.1435(2) 0.6648(2) 0.4218(3) 0.262(5) Uani 1 1 d GU . .
C7J C -0.1784(3) 0.6605(2) 0.4394(3) 0.310(8) Uani 1 1 d GU . .
N4J N -0.2000(2) 0.6878(3) 0.4571(3) 0.279(6) Uani 1 1 d GU . .
C8J C -0.1867(2) 0.7194(2) 0.4573(3) 0.213(4) Uani 1 1 d GU . .
C9J C -0.1889(7) 0.6241(6) 0.4427(8) 0.435(16) Uani 1 1 d U . .
H122 H -0.2135 0.6246 0.4548 0.652 Uiso 1 1 calc R . .
H123 H -0.1731 0.6063 0.4566 0.652 Uiso 1 1 calc R . .
H124 H -0.1867 0.6179 0.4190 0.652 Uiso 1 1 calc R . .
N5J N -0.2517(2) 0.8035(2) 0.5046(2) 0.165(2) Uani 1 1 d U B .
C10J C -0.2175(3) 0.8048(3) 0.4925(3) 0.186(4) Uani 1 1 d U . .
H125 H -0.2081 0.8251 0.4944 0.223 Uiso 1 1 calc R . .
C11J C -0.1943(3) 0.7768(4) 0.4768(3) 0.199(4) Uani 1 1 d U . .
H126 H -0.1697 0.7778 0.4691 0.239 Uiso 1 1 calc R . .
C12J C -0.2093(3) 0.7478(4) 0.4733(3) 0.196(4) Uani 1 1 d U . .
C13J C -0.2449(3) 0.7457(4) 0.4861(4) 0.204(4) Uani 1 1 d U . .
H127 H -0.2550 0.7257 0.4847 0.244 Uiso 1 1 calc R . .
C14J C -0.2654(3) 0.7748(4) 0.5014(3) 0.195(4) Uani 1 1 d U . .
H128 H -0.2900 0.7742 0.5098 0.234 Uiso 1 1 calc R . .
N1K N -0.1960(2) 1.0044(2) 0.2474(2) 0.156(2) Uani 1 1 d U . .
C1K C -0.1961(3) 0.9933(3) 0.2824(4) 0.189(4) Uani 1 1 d U . .
H129 H -0.1772 0.9975 0.2926 0.227 Uiso 1 1 calc R . .
C2K C -0.2229(4) 0.9757(4) 0.3049(3) 0.196(4) Uani 1 1 d U . .
H130 H -0.2206 0.9658 0.3288 0.236 Uiso 1 1 calc R . .
C3K C -0.2525(3) 0.9734(3) 0.2910(3) 0.180(3) Uani 1 1 d U . .
C4K C -0.2547(4) 0.9873(4) 0.2560(3) 0.202(4) Uani 1 1 d U . .
H131 H -0.2751 0.9869 0.2461 0.243 Uiso 1 1 calc R . .
C5K C -0.2253(4) 1.0025(3) 0.2351(3) 0.194(4) Uani 1 1 d U . .
H132 H -0.2266 1.0119 0.2108 0.233 Uiso 1 1 calc R . .
N2K N -0.27609(19) 0.9398(2) 0.3483(2) 0.181(3) Uani 1 1 d GU . .
C6K C -0.2801(2) 0.9568(2) 0.3131(2) 0.204(4) Uani 1 1 d GU . .
N3K N -0.3117(3) 0.9568(3) 0.2998(2) 0.273(6) Uani 1 1 d GU . .
C7K C -0.3393(2) 0.9397(4) 0.3216(3) 0.312(8) Uani 1 1 d GU . .
N4K N -0.3354(2) 0.9227(3) 0.3568(3) 0.274(6) Uani 1 1 d GU . .
C8K C -0.3038(2) 0.9228(3) 0.37008(17) 0.212(4) Uani 1 1 d GU . .
C9K C -0.3729(5) 0.9379(9) 0.3083(6) 0.437(17) Uani 1 1 d U . .
H133 H -0.3882 0.9245 0.3270 0.655 Uiso 1 1 calc R . .
H134 H -0.3668 0.9260 0.2873 0.655 Uiso 1 1 calc R . .
H135 H -0.3855 0.9621 0.3019 0.655 Uiso 1 1 calc R . .
N5K N -0.2916(3) 0.8707(2) 0.4747(2) 0.164(2) Uani 1 1 d U B .
C10K C -0.2686(3) 0.8939(4) 0.4540(3) 0.194(4) Uani 1 1 d U . .
H136 H -0.2498 0.8984 0.4642 0.233 Uiso 1 1 calc R . .
C11K C -0.2722(4) 0.9101(3) 0.4201(3) 0.194(4) Uani 1 1 d U . .
H137 H -0.2557 0.9249 0.4070 0.233 Uiso 1 1 calc R . .
C12K C -0.2994(3) 0.9050(4) 0.4054(3) 0.190(4) Uani 1 1 d U . .
C13K C -0.3222(3) 0.8824(4) 0.4251(4) 0.202(4) Uani 1 1 d U . .
H138 H -0.3407 0.8774 0.4149 0.243 Uiso 1 1 calc R . .
C14K C -0.3181(3) 0.8671(4) 0.4596(3) 0.188(4) Uani 1 1 d U . .
H139 H -0.3353 0.8533 0.4731 0.225 Uiso 1 1 calc R . .
N1L N 0.0048(2) 0.7481(2) 0.3041(2) 0.161(2) Uani 1 1 d U E .
C1L C -0.0076(3) 0.7827(3) 0.3049(3) 0.188(4) Uani 1 1 d U . .
H140 H -0.0054 0.7925 0.3249 0.226 Uiso 1 1 calc R . .
C2L C -0.0235(4) 0.8049(3) 0.2774(4) 0.199(4) Uani 1 1 d U . .
H141 H -0.0327 0.8292 0.2790 0.239 Uiso 1 1 calc R . .
C3L C -0.0258(3) 0.7904(3) 0.2470(3) 0.187(4) Uani 1 1 d U . .
C4L C -0.0140(4) 0.7551(3) 0.2457(4) 0.208(5) Uani 1 1 d U . .
H142 H -0.0159 0.7446 0.2262 0.250 Uiso 1 1 calc R . .
C5L C 0.0014(4) 0.7351(3) 0.2750(4) 0.196(4) Uani 1 1 d U . .
H143 H 0.0101 0.7106 0.2743 0.236 Uiso 1 1 calc R . .
N2L N -0.0600(2) 0.8481(2) 0.22373(18) 0.183(3) Uani 1 1 d GU . .
C6L C -0.0415(2) 0.8136(2) 0.2190(2) 0.203(4) Uani 1 1 d GU . .
N3L N -0.0417(3) 0.8003(2) 0.1874(3) 0.267(6) Uani 1 1 d GU . .
C7L C -0.0604(3) 0.8215(3) 0.1606(2) 0.308(8) Uani 1 1 d GU . .
N4L N -0.0789(3) 0.8560(3) 0.1654(2) 0.275(6) Uani 1 1 d GU . .
C8L C -0.0787(3) 0.86928(17) 0.1969(2) 0.208(4) Uani 1 1 d GU . .
C9L C -0.0589(8) 0.8078(6) 0.1262(5) 0.416(16) Uani 1 1 d U . .
H144 H -0.0452 0.7837 0.1274 0.624 Uiso 1 1 calc R . .
H145 H -0.0474 0.8235 0.1062 0.624 Uiso 1 1 calc R . .
H146 H -0.0832 0.8073 0.1225 0.624 Uiso 1 1 calc R . .
N5L N -0.1290(2) 0.9747(2) 0.2085(3) 0.166(2) Uani 1 1 d U . .
C10L C -0.1079(4) 0.9549(3) 0.2318(3) 0.189(4) Uani 1 1 d U . .
H147 H -0.1046 0.9648 0.2513 0.227 Uiso 1 1 calc R . .
C11L C -0.0904(4) 0.9191(3) 0.2276(4) 0.198(4) Uani 1 1 d U . .
H148 H -0.0755 0.9060 0.2440 0.237 Uiso 1 1 calc R . .
C12L C -0.0950(4) 0.9051(3) 0.2012(3) 0.191(4) Uani 1 1 d U . .
C13L C -0.1165(4) 0.9242(3) 0.1774(4) 0.216(5) Uani 1 1 d U . .
H149 H -0.1196 0.9142 0.1579 0.259 Uiso 1 1 calc R . .
C14L C -0.1344(4) 0.9602(3) 0.1822(3) 0.196(4) Uani 1 1 d U . .
H150 H -0.1500 0.9731 0.1664 0.235 Uiso 1 1 calc R . .
N1M N 0.2183(2) 0.72773(18) 0.12676(18) 0.1409(19) Uani 1 1 d U . .
C1M C 0.2550(3) 0.7243(3) 0.1198(3) 0.164(3) Uani 1 1 d U . .
H151 H 0.2681 0.7054 0.1080 0.197 Uiso 1 1 calc R . .
C2M C 0.2733(2) 0.7472(3) 0.1292(3) 0.157(3) Uani 1 1 d U . .
H152 H 0.2983 0.7456 0.1219 0.189 Uiso 1 1 calc R . .
C3M C 0.2547(3) 0.7727(2) 0.1497(3) 0.146(2) Uani 1 1 d U . .
C4M C 0.2181(3) 0.7750(3) 0.1586(3) 0.158(3) Uani 1 1 d U . .
H153 H 0.2049 0.7921 0.1726 0.190 Uiso 1 1 calc R . .
C5M C 0.2004(3) 0.7521(3) 0.1469(3) 0.158(3) Uani 1 1 d U . .
H154 H 0.1753 0.7538 0.1534 0.189 Uiso 1 1 calc R . .
N2M N 0.3104(2) 0.7929(2) 0.1526(2) 0.152(2) Uani 1 1 d U . .
C6M C 0.2756(3) 0.7978(2) 0.1609(3) 0.150(3) Uani 1 1 d U . .
N3M N 0.2550(2) 0.8243(2) 0.1788(2) 0.162(2) Uani 1 1 d U . .
C7M C 0.2738(3) 0.8467(3) 0.1865(3) 0.161(3) Uani 1 1 d U . .
N4M N 0.3096(2) 0.8443(2) 0.1791(2) 0.162(2) Uani 1 1 d U . .
C8M C 0.3275(3) 0.8169(3) 0.1620(3) 0.152(3) Uani 1 1 d U . .
C9M C 0.2520(3) 0.8794(3) 0.2026(4) 0.219(5) Uani 1 1 d U . .
H155 H 0.2266 0.8775 0.2071 0.329 Uiso 1 1 calc R . .
H156 H 0.2559 0.9012 0.1859 0.329 Uiso 1 1 calc R . .
H157 H 0.2596 0.8801 0.2251 0.329 Uiso 1 1 calc R . .
N5M N 0.44111(19) 0.8065(2) 0.1306(2) 0.148(2) Uani 1 1 d U J .
C10M C 0.4221(3) 0.7833(3) 0.1237(3) 0.166(3) Uani 1 1 d U . .
H158 H 0.4345 0.7642 0.1118 0.199 Uiso 1 1 calc R . .
C11M C 0.3857(3) 0.7863(3) 0.1333(3) 0.175(3) Uani 1 1 d U . .
H159 H 0.3733 0.7702 0.1268 0.210 Uiso 1 1 calc R . .
C12M C 0.3674(3) 0.8124(2) 0.1522(3) 0.146(2) Uani 1 1 d U . .
C13M C 0.3861(3) 0.8356(3) 0.1595(3) 0.169(3) Uani 1 1 d U . .
H160 H 0.3739 0.8545 0.1716 0.203 Uiso 1 1 calc R . .
C14M C 0.4231(3) 0.8320(3) 0.1495(3) 0.164(3) Uani 1 1 d U . .
H161 H 0.4357 0.8478 0.1561 0.197 Uiso 1 1 calc R . .
N1N N 0.27141(18) 0.44012(19) 0.30453(19) 0.1411(19) Uani 1 1 d U G .
C1N C 0.2767(3) 0.4664(3) 0.2753(3) 0.171(3) Uani 1 1 d U . .
H162 H 0.2968 0.4624 0.2575 0.206 Uiso 1 1 calc R . .
C2N C 0.2541(3) 0.4979(3) 0.2713(3) 0.178(3) Uani 1 1 d U . .
H163 H 0.2587 0.5149 0.2506 0.213 Uiso 1 1 calc R . .
C3N C 0.2239(3) 0.5060(3) 0.2974(2) 0.154(3) Uani 1 1 d U . .
C4N C 0.2194(3) 0.4807(3) 0.3267(3) 0.184(4) Uani 1 1 d U . .
H164 H 0.1998 0.4851 0.3451 0.221 Uiso 1 1 calc R . .
C5N C 0.2437(3) 0.4474(3) 0.3308(3) 0.178(4) Uani 1 1 d U . .
H165 H 0.2403 0.4305 0.3519 0.213 Uiso 1 1 calc R . .
N2N N 0.2033(2) 0.5621(2) 0.2605(2) 0.156(2) Uani 1 1 d U . .
C6N C 0.1985(3) 0.5409(3) 0.2925(3) 0.163(3) Uani 1 1 d U . .
N3N N 0.1741(3) 0.5486(3) 0.3213(2) 0.199(4) Uani 1 1 d U . .
C7N C 0.1517(4) 0.5797(4) 0.3145(4) 0.218(5) Uani 1 1 d U . .
N4N N 0.1531(3) 0.6032(2) 0.2834(3) 0.188(3) Uani 1 1 d U . .
C8N C 0.1789(3) 0.5928(3) 0.2571(3) 0.157(3) Uani 1 1 d U . .
C9N C 0.1215(6) 0.5886(5) 0.3461(4) 0.346(13) Uani 1 1 d U . .
H166 H 0.1073 0.6119 0.3391 0.518 Uiso 1 1 calc R . .
H167 H 0.1321 0.5892 0.3669 0.518 Uiso 1 1 calc R . .
H168 H 0.1061 0.5703 0.3520 0.518 Uiso 1 1 calc R . .
N5N N 0.1873(2) 0.66289(19) 0.1563(2) 0.1421(19) Uani 1 1 d U . .
C10N C 0.2155(3) 0.6359(3) 0.1643(3) 0.156(3) Uani 1 1 d U . .
H169 H 0.2367 0.6335 0.1475 0.187 Uiso 1 1 calc R . .
C11N C 0.2131(3) 0.6126(2) 0.1962(3) 0.153(3) Uani 1 1 d U . .
H170 H 0.2322 0.5939 0.2007 0.184 Uiso 1 1 calc R . .
C12N C 0.1819(3) 0.6168(2) 0.2221(2) 0.143(2) Uani 1 1 d U . .
C13N C 0.1545(3) 0.6441(3) 0.2133(3) 0.155(3) Uani 1 1 d U . .
H171 H 0.1331 0.6474 0.2299 0.186 Uiso 1 1 calc R . .
C14N C 0.1578(3) 0.6667(2) 0.1808(3) 0.147(3) Uani 1 1 d U . .
H172 H 0.1387 0.6853 0.1757 0.176 Uiso 1 1 calc R . .
N1O N 0.1648(2) 0.66352(19) 0.0894(2) 0.146(2) Uani 1 1 d U . .
C1O C 0.1826(3) 0.6343(3) 0.0758(3) 0.170(3) Uani 1 1 d U . .
H173 H 0.2078 0.6292 0.0743 0.204 Uiso 1 1 calc R . .
C2O C 0.1654(3) 0.6109(3) 0.0635(3) 0.172(3) Uani 1 1 d U . .
H174 H 0.1788 0.5914 0.0528 0.206 Uiso 1 1 calc R . .
C3O C 0.1295(3) 0.6172(3) 0.0673(3) 0.171(3) Uani 1 1 d U . .
C4O C 0.1118(3) 0.6470(3) 0.0819(4) 0.192(4) Uani 1 1 d U . .
H175 H 0.0866 0.6520 0.0845 0.230 Uiso 1 1 calc R . .
C5O C 0.1296(3) 0.6692(3) 0.0925(3) 0.172(3) Uani 1 1 d U . .
H176 H 0.1164 0.6893 0.1023 0.206 Uiso 1 1 calc R . .
N2O N 0.12966(14) 0.5607(2) 0.0481(2) 0.181(3) Uani 1 1 d GU . .
C6O C 0.1107(2) 0.59380(19) 0.0569(2) 0.191(4) Uani 1 1 d GU . .
N3O N 0.0734(2) 0.6020(2) 0.0576(3) 0.254(5) Uani 1 1 d GU . .
C7O C 0.05492(15) 0.5771(3) 0.0494(4) 0.301(7) Uani 1 1 d GU . .
N4O N 0.0738(2) 0.5440(2) 0.0405(3) 0.272(6) Uani 1 1 d GU . .
C8O C 0.1112(2) 0.53581(18) 0.0399(3) 0.209(4) Uani 1 1 d GU . .
C9O C 0.0165(4) 0.5861(5) 0.0511(8) 0.373(14) Uani 1 1 d U . .
H177 H 0.0075 0.5669 0.0441 0.559 Uiso 1 1 calc R . .
H178 H 0.0107 0.6083 0.0350 0.559 Uiso 1 1 calc R . .
H179 H 0.0053 0.5890 0.0755 0.559 Uiso 1 1 calc R . .
N5O N 0.1688(2) 0.4362(2) 0.0152(2) 0.154(2) Uani 1 1 d U . .
C10O C 0.1860(3) 0.4630(3) 0.0192(3) 0.172(3) Uani 1 1 d U . .
H180 H 0.2112 0.4588 0.0169 0.206 Uiso 1 1 calc R . .
C11O C 0.1676(3) 0.4957(3) 0.0266(3) 0.181(4) Uani 1 1 d U . .
H181 H 0.1802 0.5138 0.0287 0.217 Uiso 1 1 calc R . .
C12O C 0.1304(3) 0.5021(3) 0.0310(3) 0.172(3) Uani 1 1 d U . .
C13O C 0.1134(3) 0.4763(3) 0.0268(4) 0.193(4) Uani 1 1 d U . .
H182 H 0.0881 0.4804 0.0291 0.231 Uiso 1 1 calc R . .
C14O C 0.1330(3) 0.4432(3) 0.0189(3) 0.187(4) Uani 1 1 d U . .
H183 H 0.1205 0.4253 0.0163 0.225 Uiso 1 1 calc R . .
N1P N 0.1936(2) 0.3701(2) 0.05869(18) 0.1421(19) Uani 1 1 d U . .
C1P C 0.2163(3) 0.3765(3) 0.0771(3) 0.168(3) Uani 1 1 d U . .
H184 H 0.2355 0.3882 0.0646 0.201 Uiso 1 1 calc R . .
C2P C 0.2136(3) 0.3669(3) 0.1136(3) 0.182(4) Uani 1 1 d U . .
H185 H 0.2300 0.3734 0.1256 0.218 Uiso 1 1 calc R . .
C3P C 0.1868(3) 0.3479(3) 0.1334(2) 0.149(3) Uani 1 1 d U . .
C4P C 0.1637(3) 0.3403(3) 0.1145(3) 0.170(3) Uani 1 1 d U . .
H186 H 0.1446 0.3283 0.1265 0.203 Uiso 1 1 calc R . .
C5P C 0.1685(3) 0.3506(3) 0.0762(3) 0.168(3) Uani 1 1 d U . .
H187 H 0.1535 0.3435 0.0631 0.202 Uiso 1 1 calc R . .
N2P N 0.20723(19) 0.3475(2) 0.1895(2) 0.150(2) Uani 1 1 d U . .
C6P C 0.1833(3) 0.3382(3) 0.1732(3) 0.148(2) Uani 1 1 d U . .
N3P N 0.1557(2) 0.3211(2) 0.1908(2) 0.160(2) Uani 1 1 d U . .
C7P C 0.1535(3) 0.3127(3) 0.2268(3) 0.160(3) Uani 1 1 d U . .
N4P N 0.1755(2) 0.3216(2) 0.2456(2) 0.160(2) Uani 1 1 d U . .
C8P C 0.2021(3) 0.3391(3) 0.2251(3) 0.149(2) Uani 1 1 d U . .
C9P C 0.1225(3) 0.2945(3) 0.2480(3) 0.202(4) Uani 1 1 d U . .
H188 H 0.1084 0.2897 0.2316 0.303 Uiso 1 1 calc R . .
H189 H 0.1074 0.3101 0.2639 0.303 Uiso 1 1 calc R . .
H190 H 0.1319 0.2721 0.2621 0.303 Uiso 1 1 calc R . .
N5P N 0.27207(18) 0.37319(19) 0.2818(2) 0.1399(19) Uani 1 1 d U G .
C10P C 0.2756(3) 0.3805(3) 0.2452(3) 0.163(3) Uani 1 1 d U . .
H191 H 0.2939 0.3933 0.2323 0.196 Uiso 1 1 calc R . .
C11P C 0.2534(3) 0.3700(3) 0.2267(3) 0.161(3) Uani 1 1 d U . .
H192 H 0.2559 0.3764 0.2015 0.193 Uiso 1 1 calc R . .
C12P C 0.2275(2) 0.3501(3) 0.2452(3) 0.147(2) Uani 1 1 d U . .
C13P C 0.2247(3) 0.3408(3) 0.2821(3) 0.157(3) Uani 1 1 d U . .
H193 H 0.2077 0.3267 0.2953 0.188 Uiso 1 1 calc R . .
C14P C 0.2483(3) 0.3532(3) 0.2994(3) 0.157(3) Uani 1 1 d U . .
H194 H 0.2468 0.3468 0.3245 0.189 Uiso 1 1 calc R . .
N1Q N 0.33658(19) 0.4105(2) 0.3352(2) 0.145(2) Uani 1 1 d U G .
C1Q C 0.3654(3) 0.4248(3) 0.3170(3) 0.168(3) Uani 1 1 d U . .
H195 H 0.3693 0.4277 0.2918 0.202 Uiso 1 1 calc R . .
C2Q C 0.3897(3) 0.4355(3) 0.3338(3) 0.171(3) Uani 1 1 d U G .
H196 H 0.4100 0.4449 0.3203 0.206 Uiso 1 1 calc R . .
C3Q C 0.3831(3) 0.4319(3) 0.3707(3) 0.171(3) Uani 1 1 d DU . .
C4Q C 0.3519(3) 0.4185(4) 0.3892(3) 0.195(4) Uani 1 1 d U G .
H197 H 0.3460 0.4173 0.4143 0.234 Uiso 1 1 calc R . .
C5Q C 0.3301(3) 0.4074(3) 0.3710(3) 0.172(3) Uani 1 1 d U . .
H198 H 0.3100 0.3973 0.3839 0.207 Uiso 1 1 calc R G .
N2Q N 0.4336(8) 0.4552(8) 0.3715(5) 0.168(7) Uani 0.43(3) 1 d PGU G 1
C6Q C 0.4046(6) 0.4404(8) 0.3934(7) 0.196(9) Uani 0.43(3) 1 d PGDU G 1
N3Q N 0.4046(6) 0.4299(9) 0.4305(6) 0.212(9) Uani 0.43(3) 1 d PGDU G 1
C7Q C 0.4338(8) 0.4341(10) 0.4457(5) 0.221(9) Uani 0.43(3) 1 d PGDU G 1
N4Q N 0.4629(6) 0.4488(9) 0.4238(8) 0.211(9) Uani 0.43(3) 1 d PGDU G 1
C8Q C 0.4628(5) 0.4594(8) 0.3867(7) 0.181(7) Uani 0.43(3) 1 d PGDU G 1
C9Q C 0.4274(14) 0.4218(19) 0.4866(10) 0.30(2) Uani 0.43(3) 1 d PDU G 1
H199 H 0.4042 0.4137 0.4937 0.449 Uiso 0.43(3) 1 calc PR G 1
H200 H 0.4276 0.4417 0.4987 0.449 Uiso 0.43(3) 1 calc PR G 1
H201 H 0.4462 0.4021 0.4931 0.449 Uiso 0.43(3) 1 calc PR G 1
N52Q N 0.4432(5) 0.4501(6) 0.3715(4) 0.170(7) Uani 0.57(3) 1 d PGU G 2
C56Q C 0.4082(5) 0.4443(6) 0.3876(5) 0.182(7) Uani 0.57(3) 1 d PGDU G 2
N53Q N 0.3955(4) 0.4493(7) 0.4234(5) 0.210(8) Uani 0.57(3) 1 d PGDU G 2
C57Q C 0.4177(6) 0.4601(8) 0.4431(4) 0.216(8) Uani 0.57(3) 1 d PGDU G 2
N54Q N 0.4526(5) 0.4659(7) 0.4270(5) 0.208(7) Uani 0.57(3) 1 d PGDU G 2
C58Q C 0.4654(4) 0.4609(6) 0.3912(5) 0.194(7) Uani 0.57(3) 1 d PGDU G 2
C59Q C 0.4094(9) 0.4629(14) 0.4801(7) 0.283(17) Uani 0.57(3) 1 d PDU G 2
H202 H 0.4291 0.4706 0.4874 0.424 Uiso 0.57(3) 1 calc PR G 2
H203 H 0.4055 0.4396 0.4940 0.424 Uiso 0.57(3) 1 calc PR G 2
H204 H 0.3877 0.4803 0.4844 0.424 Uiso 0.57(3) 1 calc PR G 2
N5Q N 0.5639(2) 0.48466(19) 0.3312(2) 0.152(2) Uani 1 1 d U G .
C10Q C 0.5374(3) 0.4810(3) 0.3142(3) 0.177(3) Uani 1 1 d U . .
H205 H 0.5415 0.4844 0.2890 0.212 Uiso 1 1 calc R . .
C11Q C 0.5048(3) 0.4726(3) 0.3321(3) 0.175(3) Uani 1 1 d U G .
H206 H 0.4872 0.4696 0.3195 0.210 Uiso 1 1 calc R . .
C12Q C 0.4985(3) 0.4685(3) 0.3693(3) 0.170(3) Uani 1 1 d DU . .
C13Q C 0.5241(3) 0.4736(3) 0.3864(3) 0.179(4) Uani 1 1 d U G .
H207 H 0.5194 0.4724 0.4115 0.215 Uiso 1 1 calc R . .
C14Q C 0.5575(3) 0.4808(3) 0.3675(3) 0.184(4) Uani 1 1 d U . .
H208 H 0.5756 0.4828 0.3801 0.221 Uiso 1 1 calc R G .
N1R N 0.5593(2) 0.1954(2) 0.22864(18) 0.1428(19) Uani 1 1 d U H .
C1R C 0.5341(3) 0.2248(3) 0.2231(3) 0.172(3) Uani 1 1 d U . .
H209 H 0.5384 0.2428 0.2033 0.207 Uiso 1 1 calc R . .
C2R C 0.5025(3) 0.2284(3) 0.2460(3) 0.173(3) Uani 1 1 d U . .
H210 H 0.4856 0.2492 0.2416 0.207 Uiso 1 1 calc R . .
C3R C 0.4940(3) 0.2028(3) 0.2758(3) 0.149(3) Uani 1 1 d U . .
C4R C 0.5198(3) 0.1727(3) 0.2797(3) 0.178(3) Uani 1 1 d U . .
H211 H 0.5151 0.1538 0.2986 0.214 Uiso 1 1 calc R . .
C5R C 0.5523(3) 0.1693(3) 0.2568(3) 0.167(3) Uani 1 1 d U . .
H212 H 0.5696 0.1487 0.2608 0.201 Uiso 1 1 calc R . .
N2R N 0.4379(2) 0.2395(2) 0.2962(2) 0.158(2) Uani 1 1 d U . .
C6R C 0.4591(3) 0.2076(3) 0.3013(3) 0.172(3) Uani 1 1 d U . .
N3R N 0.4520(3) 0.1788(2) 0.3263(3) 0.196(3) Uani 1 1 d U . .
C7R C 0.4206(4) 0.1850(3) 0.3489(4) 0.221(5) Uani 1 1 d U . .
N4R N 0.3973(2) 0.2160(3) 0.3473(3) 0.196(3) Uani 1 1 d U . .
C8R C 0.4069(3) 0.2430(3) 0.3211(3) 0.161(3) Uani 1 1 d U . .
C9R C 0.4098(4) 0.1530(4) 0.3771(5) 0.301(10) Uani 1 1 d U . .
H213 H 0.3871 0.1607 0.3918 0.452 Uiso 1 1 calc R . .
H214 H 0.4282 0.1443 0.3921 0.452 Uiso 1 1 calc R . .
H215 H 0.4071 0.1339 0.3649 0.452 Uiso 1 1 calc R . .
N5R N 0.33732(18) 0.3437(2) 0.31178(19) 0.1370(18) Uani 1 1 d U G .
C10R C 0.3637(3) 0.3357(3) 0.2858(3) 0.154(3) Uani 1 1 d U . .
H216 H 0.3667 0.3528 0.2648 0.185 Uiso 1 1 calc R . .
C11R C 0.3874(3) 0.3035(3) 0.2874(2) 0.154(3) Uani 1 1 d U . .
H217 H 0.4061 0.2993 0.2682 0.185 Uiso 1 1 calc R . .
C12R C 0.3832(2) 0.2780(2) 0.3177(3) 0.143(2) Uani 1 1 d U . .
C13R C 0.3557(2) 0.2863(3) 0.3457(3) 0.154(3) Uani 1 1 d U . .
H218 H 0.3523 0.2699 0.3672 0.185 Uiso 1 1 calc R . .
C14R C 0.3341(2) 0.3187(3) 0.3412(3) 0.149(3) Uani 1 1 d U . .
H219 H 0.3154 0.3240 0.3602 0.179 Uiso 1 1 calc R . .
N1S N 0.58933(19) 0.1648(2) 0.16368(18) 0.1410(19) Uani 1 1 d U H .
C1S C 0.5756(3) 0.1826(3) 0.1351(3) 0.170(3) Uani 1 1 d U . .
H220 H 0.5734 0.2078 0.1305 0.204 Uiso 1 1 calc R . .
C2S C 0.5642(3) 0.1655(3) 0.1117(3) 0.175(3) Uani 1 1 d U H .
H221 H 0.5536 0.1790 0.0921 0.210 Uiso 1 1 calc R . .
C3S C 0.5684(3) 0.1292(3) 0.1171(3) 0.170(3) Uani 1 1 d DU . .
C4S C 0.5810(3) 0.1112(3) 0.1479(3) 0.186(4) Uani 1 1 d U H .
H222 H 0.5822 0.0861 0.1537 0.223 Uiso 1 1 calc R . .
C5S C 0.5918(3) 0.1292(3) 0.1702(3) 0.165(3) Uani 1 1 d U . .
H223 H 0.6013 0.1161 0.1906 0.198 Uiso 1 1 calc R H .
N2S N 0.5461(12) 0.1265(6) 0.0687(10) 0.181(9) Uani 0.28(2) 1 d PGU H 1
C6S C 0.5619(13) 0.1034(8) 0.0965(8) 0.205(10) Uani 0.28(2) 1 d PGDU H 1
N3S N 0.5763(13) 0.0676(8) 0.0927(9) 0.237(11) Uani 0.28(2) 1 d PGDU H 1
C7S C 0.5749(13) 0.0549(7) 0.0611(10) 0.219(11) Uani 0.28(2) 1 d PGDU H 1
N4S N 0.5591(13) 0.0780(11) 0.0333(7) 0.224(11) Uani 0.28(2) 1 d PGDU H 1
C8S C 0.5447(13) 0.1138(9) 0.0371(8) 0.191(9) Uani 0.28(2) 1 d PGDU H 1
C9S C 0.5853(18) 0.0208(17) 0.049(2) 0.29(3) Uani 0.28(2) 1 d PDU H 1
H224 H 0.5774 0.0225 0.0259 0.439 Uiso 0.28(2) 1 calc PR H 1
H225 H 0.5742 0.0027 0.0663 0.439 Uiso 0.28(2) 1 calc PR H 1
H226 H 0.6112 0.0142 0.0460 0.439 Uiso 0.28(2) 1 calc PR H 1
N52S N 0.5481(5) 0.1294(2) 0.0588(4) 0.182(5) Uani 0.72(2) 1 d PGU H 2
C56S C 0.5575(5) 0.1116(3) 0.0920(3) 0.192(5) Uani 0.72(2) 1 d PGDU H 2
N53S N 0.5566(5) 0.0746(3) 0.1023(3) 0.220(6) Uani 0.72(2) 1 d PGDU H 2
C57S C 0.5463(6) 0.0554(3) 0.0793(4) 0.233(7) Uani 0.72(2) 1 d PGDU H 2
N54S N 0.5369(5) 0.0732(4) 0.0460(3) 0.220(6) Uani 0.72(2) 1 d PGDU H 2
C58S C 0.5378(5) 0.1102(4) 0.0358(3) 0.197(6) Uani 0.72(2) 1 d PGDU H 2
C59S C 0.5493(9) 0.0167(4) 0.0863(6) 0.282(14) Uani 0.72(2) 1 d PDU H 2
H227 H 0.5523 0.0080 0.1112 0.423 Uiso 0.72(2) 1 calc PR H 2
H228 H 0.5699 0.0063 0.0705 0.423 Uiso 0.72(2) 1 calc PR H 2
H229 H 0.5276 0.0099 0.0819 0.423 Uiso 0.72(2) 1 calc PR H 2
N5S N 0.5152(2) 0.1689(2) -0.0637(2) 0.153(2) Uani 1 1 d U . .
C10S C 0.5193(3) 0.1859(3) -0.0373(3) 0.172(3) Uani 1 1 d U . .
H230 H 0.5169 0.2111 -0.0414 0.206 Uiso 1 1 calc R . .
C11S C 0.5267(3) 0.1675(3) -0.0051(3) 0.180(4) Uani 1 1 d U H .
H231 H 0.5289 0.1801 0.0129 0.216 Uiso 1 1 calc R . .
C12S C 0.5312(3) 0.1303(3) 0.0016(3) 0.175(3) Uani 1 1 d DU . .
C13S C 0.5262(3) 0.1134(3) -0.0233(3) 0.187(4) Uani 1 1 d U H .
H232 H 0.5277 0.0883 -0.0186 0.224 Uiso 1 1 calc R . .
C14S C 0.5188(3) 0.1322(3) -0.0565(3) 0.187(4) Uani 1 1 d U . .
H233 H 0.5161 0.1194 -0.0742 0.224 Uiso 1 1 calc R H .
N1T N 0.6562(2) 0.1878(2) 0.16279(18) 0.1386(19) Uani 1 1 d U H .
C1T C 0.6641(3) 0.2147(3) 0.1362(3) 0.152(3) Uani 1 1 d U . .
H234 H 0.6472 0.2358 0.1333 0.183 Uiso 1 1 calc R . .
C2T C 0.6971(3) 0.2121(3) 0.1127(2) 0.154(3) Uani 1 1 d U . .
H235 H 0.7020 0.2312 0.0942 0.184 Uiso 1 1 calc R . .
C3T C 0.7217(3) 0.1819(3) 0.1168(2) 0.148(3) Uani 1 1 d U . .
C4T C 0.7145(3) 0.1539(3) 0.1438(2) 0.156(3) Uani 1 1 d U . .
H236 H 0.7313 0.1327 0.1470 0.187 Uiso 1 1 calc R . .
C5T C 0.6807(3) 0.1583(3) 0.1669(2) 0.151(3) Uani 1 1 d U . .
H237 H 0.6755 0.1396 0.1858 0.182 Uiso 1 1 calc R . .
N2T N 0.7602(2) 0.2035(2) 0.0615(2) 0.158(2) Uani 1 1 d U . .
C6T C 0.7571(3) 0.1787(3) 0.0929(3) 0.160(3) Uani 1 1 d U . .
N3T N 0.7834(3) 0.1521(3) 0.1025(2) 0.198(3) Uani 1 1 d U . .
C7T C 0.8149(4) 0.1503(4) 0.0785(4) 0.225(5) Uani 1 1 d U . .
N4T N 0.8216(3) 0.1735(3) 0.0483(3) 0.196(3) Uani 1 1 d U . .
C8T C 0.7917(3) 0.1992(3) 0.0404(3) 0.163(3) Uani 1 1 d U . .
C9T C 0.8467(4) 0.1210(5) 0.0888(5) 0.353(13) Uani 1 1 d U . .
H238 H 0.8392 0.1067 0.1118 0.530 Uiso 1 1 calc R . .
H239 H 0.8667 0.1323 0.0906 0.530 Uiso 1 1 calc R . .
H240 H 0.8541 0.1056 0.0705 0.530 Uiso 1 1 calc R . .
N5T N 0.8041(2) 0.27159(19) -0.05981(19) 0.144(2) Uani 1 1 d U . .
C10T C 0.7753(3) 0.2768(3) -0.0335(3) 0.168(3) Uani 1 1 d U . .
H241 H 0.7572 0.2968 -0.0372 0.202 Uiso 1 1 calc R . .
C11T C 0.7724(3) 0.2533(3) -0.0018(3) 0.174(3) Uani 1 1 d U . .
H242 H 0.7517 0.2575 0.0154 0.209 Uiso 1 1 calc R . .
C12T C 0.7974(3) 0.2244(3) 0.0060(3) 0.156(3) Uani 1 1 d U . .
C13T C 0.8276(3) 0.2196(3) -0.0196(3) 0.174(3) Uani 1 1 d U . .
H243 H 0.8466 0.2007 -0.0152 0.209 Uiso 1 1 calc R . .
C14T C 0.8298(3) 0.2431(3) -0.0521(3) 0.176(3) Uani 1 1 d U . .
H244 H 0.8502 0.2390 -0.0696 0.211 Uiso 1 1 calc R . .
N1U N 0.6267(2) 0.2182(2) 0.22754(18) 0.1397(19) Uani 1 1 d U H .
C1U C 0.6193(3) 0.2545(3) 0.2240(3) 0.158(3) Uani 1 1 d U . .
H245 H 0.6066 0.2673 0.2056 0.190 Uiso 1 1 calc R . .
C2U C 0.6299(3) 0.2737(3) 0.2465(3) 0.161(3) Uani 1 1 d U . .
H246 H 0.6236 0.2988 0.2440 0.194 Uiso 1 1 calc R . .
C3U C 0.6500(3) 0.2546(3) 0.2728(2) 0.147(2) Uani 1 1 d U . .
C4U C 0.6591(3) 0.2180(3) 0.2750(2) 0.156(3) Uani 1 1 d U . .
H247 H 0.6734 0.2047 0.2919 0.188 Uiso 1 1 calc R . .
C5U C 0.6467(3) 0.2005(3) 0.2518(3) 0.155(3) Uani 1 1 d U . .
H248 H 0.6528 0.1754 0.2536 0.186 Uiso 1 1 calc R . .
N2U N 0.6520(2) 0.3108(2) 0.29319(19) 0.147(2) Uani 1 1 d U . .
C6U C 0.6605(3) 0.2756(3) 0.2982(2) 0.157(3) Uani 1 1 d U . .
N3U N 0.6784(2) 0.2543(2) 0.3246(2) 0.167(3) Uani 1 1 d U . .
C7U C 0.6866(3) 0.2735(3) 0.3467(3) 0.167(3) Uani 1 1 d U . .
N4U N 0.6793(2) 0.3099(2) 0.3436(2) 0.161(2) Uani 1 1 d U . .
C8U C 0.6611(3) 0.3278(3) 0.3164(2) 0.145(2) Uani 1 1 d U . .
C9U C 0.7041(4) 0.2520(3) 0.3790(3) 0.213(5) Uani 1 1 d U . .
H249 H 0.7078 0.2265 0.3777 0.320 Uiso 1 1 calc R . .
H250 H 0.6884 0.2565 0.4012 0.320 Uiso 1 1 calc R . .
H251 H 0.7270 0.2594 0.3783 0.320 Uiso 1 1 calc R . .
N5U N 0.6297(2) 0.44146(19) 0.30683(19) 0.149(2) Uani 1 1 d U G .
C10U C 0.6231(3) 0.4230(3) 0.2832(3) 0.168(3) Uani 1 1 d U . .
H252 H 0.6111 0.4353 0.2641 0.202 Uiso 1 1 calc R . .
C11U C 0.6337(3) 0.3856(3) 0.2863(3) 0.171(3) Uani 1 1 d U . .
H253 H 0.6278 0.3735 0.2697 0.205 Uiso 1 1 calc R . .
C12U C 0.6524(3) 0.3662(3) 0.3125(2) 0.145(2) Uani 1 1 d U . .
C13U C 0.6592(3) 0.3860(3) 0.3356(3) 0.173(3) Uani 1 1 d U . .
H254 H 0.6707 0.3741 0.3552 0.207 Uiso 1 1 calc R . .
C14U C 0.6498(3) 0.4241(3) 0.3313(3) 0.165(3) Uani 1 1 d U . .
H255 H 0.6578 0.4370 0.3459 0.197 Uiso 1 1 calc R . .
N1V N 0.6608(2) 0.50619(18) 0.2756(2) 0.1437(19) Uani 1 1 d U G .
C1V C 0.6666(3) 0.5127(3) 0.2392(3) 0.172(3) Uani 1 1 d U . .
H256 H 0.6483 0.5107 0.2269 0.206 Uiso 1 1 calc R . .
C2V C 0.6981(3) 0.5221(3) 0.2196(3) 0.181(4) Uani 1 1 d U I .
H257 H 0.7020 0.5244 0.1944 0.217 Uiso 1 1 calc R . .
C3V C 0.7237(3) 0.5281(3) 0.2369(3) 0.173(3) Uani 1 1 d DU . .
C4V C 0.7196(4) 0.5187(4) 0.2739(3) 0.198(4) Uani 1 1 d U I .
H258 H 0.7384 0.5184 0.2864 0.238 Uiso 1 1 calc R . .
C5V C 0.6865(3) 0.5095(3) 0.2923(3) 0.179(3) Uani 1 1 d U . .
H259 H 0.6825 0.5056 0.3176 0.215 Uiso 1 1 calc R I .
N2V N 0.7618(9) 0.5522(10) 0.1787(6) 0.176(9) Uani 0.42(3) 1 d PGU I 1
C6V C 0.7537(7) 0.5463(10) 0.2164(7) 0.183(8) Uani 0.42(3) 1 d PGDU I 1
N3V N 0.7750(8) 0.5577(10) 0.2368(4) 0.202(9) Uani 0.42(3) 1 d PGDU I 1
C7V C 0.8043(8) 0.5749(10) 0.2194(6) 0.225(10) Uani 0.42(3) 1 d PGDU I 1
N4V N 0.8123(7) 0.5807(9) 0.1817(6) 0.208(9) Uani 0.42(3) 1 d PGDU I 1
C8V C 0.7911(9) 0.5694(10) 0.1613(4) 0.199(9) Uani 0.42(3) 1 d PGDU I 1
C9V C 0.8288(14) 0.5815(16) 0.2373(12) 0.263(19) Uani 0.42(3) 1 d PDU I 1
H260 H 0.8468 0.5934 0.2204 0.395 Uiso 0.42(3) 1 calc PR I 1
H261 H 0.8404 0.5590 0.2495 0.395 Uiso 0.42(3) 1 calc PR I 1
H262 H 0.8169 0.5968 0.2549 0.395 Uiso 0.42(3) 1 calc PR I 1
N52V N 0.7604(5) 0.5468(8) 0.1820(6) 0.184(7) Uani 0.58(3) 1 d PGU I 2
C56V C 0.7582(5) 0.5366(8) 0.2194(6) 0.200(8) Uani 0.58(3) 1 d PGDU I 2
N53V N 0.7873(6) 0.5377(8) 0.2361(3) 0.213(8) Uani 0.58(3) 1 d PGDU I 2
C57V C 0.8187(6) 0.5490(8) 0.2155(5) 0.217(9) Uani 0.58(3) 1 d PGDU I 2
N54V N 0.8210(5) 0.5592(8) 0.1781(5) 0.217(8) Uani 0.58(3) 1 d PGDU I 2
C58V C 0.7918(6) 0.5581(8) 0.1613(3) 0.194(7) Uani 0.58(3) 1 d PGDU I 2
C59V C 0.8478(8) 0.5508(12) 0.2340(9) 0.256(15) Uani 0.58(3) 1 d PDU I 2
H263 H 0.8413 0.5425 0.2595 0.383 Uiso 0.58(3) 1 calc PR I 2
H264 H 0.8520 0.5755 0.2303 0.383 Uiso 0.58(3) 1 calc PR I 2
H265 H 0.8695 0.5357 0.2245 0.383 Uiso 0.58(3) 1 calc PR I 2
N5V N 0.8004(2) 0.5943(2) 0.0487(2) 0.154(2) Uani 1 1 d U . .
C10V C 0.7713(3) 0.5799(3) 0.0672(3) 0.168(3) Uani 1 1 d U . .
H266 H 0.7529 0.5777 0.0551 0.202 Uiso 1 1 calc R . .
C11V C 0.7686(3) 0.5682(3) 0.1043(3) 0.184(4) Uani 1 1 d U I .
H267 H 0.7491 0.5571 0.1170 0.220 Uiso 1 1 calc R . .
C12V C 0.7952(3) 0.5730(3) 0.1223(2) 0.177(3) Uani 1 1 d DU . .
C13V C 0.8231(3) 0.5878(4) 0.1037(3) 0.197(4) Uani 1 1 d U I .
H268 H 0.8415 0.5909 0.1153 0.236 Uiso 1 1 calc R . .
C14V C 0.8247(3) 0.5985(4) 0.0674(3) 0.196(4) Uani 1 1 d U . .
H269 H 0.8443 0.6096 0.0549 0.235 Uiso 1 1 calc R I .
N1W N 0.5944(2) 0.5486(2) 0.2999(2) 0.159(2) Uani 1 1 d U G .
C1W C 0.5789(3) 0.5679(3) 0.2714(3) 0.171(3) Uani 1 1 d U . .
H270 H 0.5756 0.5558 0.2536 0.206 Uiso 1 1 calc R . .
C2W C 0.5684(3) 0.6034(3) 0.2681(3) 0.179(3) Uani 1 1 d U J .
H271 H 0.5581 0.6158 0.2480 0.214 Uiso 1 1 calc R . .
C3W C 0.5727(3) 0.6226(2) 0.2948(3) 0.181(3) Uani 1 1 d DU . .
C4W C 0.5870(4) 0.6039(3) 0.3234(3) 0.203(5) Uani 1 1 d U J .
H272 H 0.5891 0.6155 0.3422 0.244 Uiso 1 1 calc R . .
C5W C 0.5984(4) 0.5679(4) 0.3249(3) 0.207(5) Uani 1 1 d U . .
H273 H 0.6097 0.5555 0.3443 0.249 Uiso 1 1 calc R J .
N2W N 0.5456(13) 0.6860(10) 0.2626(12) 0.185(10) Uani 0.267(16) 1 d PGU J 1
C6W C 0.5639(13) 0.6638(5) 0.2891(13) 0.195(10) Uani 0.267(16) 1 d PGDU J 1
N3W N 0.5862(12) 0.6780(9) 0.3060(9) 0.229(11) Uani 0.267(16) 1 d PGDU J 1
C7W C 0.5902(11) 0.7143(10) 0.2963(10) 0.243(13) Uani 0.267(16) 1 d PGDU J 1
N4W N 0.5719(12) 0.7365(6) 0.2697(10) 0.241(13) Uani 0.267(16) 1 d PGDU J 1
C8W C 0.5496(12) 0.7224(9) 0.2528(9) 0.200(10) Uani 0.267(16) 1 d PGDU J 1
C9W C 0.6095(19) 0.7432(16) 0.304(2) 0.36(3) Uani 0.267(16) 1 d PDU J 1
H274 H 0.6005 0.7665 0.2914 0.540 Uiso 0.267(16) 1 calc PR J 1
H275 H 0.6352 0.7373 0.2964 0.540 Uiso 0.267(16) 1 calc PR J 1
H276 H 0.6048 0.7439 0.3298 0.540 Uiso 0.267(16) 1 calc PR J 1
N52W N 0.5499(5) 0.6794(3) 0.2599(4) 0.175(5) Uani 0.733(16) 1 d PGU J 2
C56W C 0.5625(5) 0.6606(2) 0.2913(4) 0.211(6) Uani 0.733(16) 1 d PGDU J 2
N53W N 0.5644(5) 0.6791(3) 0.3189(3) 0.227(7) Uani 0.733(16) 1 d PGDU J 2
C57W C 0.5537(5) 0.7166(3) 0.3151(3) 0.245(8) Uani 0.733(16) 1 d PGDU J 2
N54W N 0.5411(5) 0.7355(2) 0.2836(3) 0.227(7) Uani 0.733(16) 1 d PGDU J 2
C58W C 0.5392(4) 0.7169(3) 0.2560(3) 0.186(5) Uani 0.733(16) 1 d PGDU J 2
C59W C 0.5578(8) 0.7338(5) 0.3448(6) 0.324(16) Uani 0.733(16) 1 d PDU J 2
H277 H 0.5661 0.7154 0.3639 0.486 Uiso 0.733(16) 1 calc PR J 2
H278 H 0.5348 0.7472 0.3538 0.486 Uiso 0.733(16) 1 calc PR J 2
H279 H 0.5752 0.7500 0.3362 0.486 Uiso 0.733(16) 1 calc PR J 2
N5W N 0.50609(19) 0.7757(2) 0.1606(2) 0.147(2) Uani 1 1 d U J .
C10W C 0.5134(3) 0.7384(3) 0.1667(3) 0.175(3) Uani 1 1 d U . .
H280 H 0.5109 0.7259 0.1487 0.210 Uiso 1 1 calc R . .
C11W C 0.5240(3) 0.7192(3) 0.1975(3) 0.178(3) Uani 1 1 d U J .
H281 H 0.5286 0.6940 0.2006 0.213 Uiso 1 1 calc R . .
C12W C 0.5279(3) 0.7371(3) 0.2240(3) 0.180(3) Uani 1 1 d DU . .
C13W C 0.5187(4) 0.7740(3) 0.2199(3) 0.195(4) Uani 1 1 d U J .
H282 H 0.5185 0.7866 0.2387 0.234 Uiso 1 1 calc R . .
C14W C 0.5097(3) 0.7916(3) 0.1873(3) 0.182(4) Uani 1 1 d U . .
H283 H 0.5059 0.8169 0.1836 0.218 Uiso 1 1 calc R J .
N1X N 0.5487(2) 0.8000(2) 0.0941(2) 0.152(2) Uani 1 1 d U J .
C1X C 0.5674(3) 0.7718(3) 0.0784(3) 0.168(3) Uani 1 1 d U . .
H284 H 0.5552 0.7542 0.0745 0.202 Uiso 1 1 calc R . .
C2X C 0.6040(3) 0.7688(3) 0.0680(3) 0.183(4) Uani 1 1 d U K .
H285 H 0.6165 0.7487 0.0577 0.220 Uiso 1 1 calc R . .
C3X C 0.6227(2) 0.7942(3) 0.0723(3) 0.183(4) Uani 1 1 d DU . .
C4X C 0.6043(3) 0.8240(3) 0.0866(4) 0.210(5) Uani 1 1 d U K .
H286 H 0.6156 0.8429 0.0888 0.252 Uiso 1 1 calc R . .
C5X C 0.5665(4) 0.8240(3) 0.0977(4) 0.202(4) Uani 1 1 d U . .
H287 H 0.5533 0.8434 0.1088 0.243 Uiso 1 1 calc R K .
N2X N 0.6790(7) 0.7616(8) 0.0516(11) 0.174(9) Uani 0.43(3) 1 d PGU K 1
C6X C 0.6616(4) 0.7911(9) 0.0685(10) 0.197(9) Uani 0.43(3) 1 d PGDU K 1
N3X N 0.6819(6) 0.8128(7) 0.0792(10) 0.212(9) Uani 0.43(3) 1 d PGDU K 1
C7X C 0.7196(6) 0.8051(8) 0.0729(10) 0.221(10) Uani 0.43(3) 1 d PGDU K 1
N4X N 0.7370(4) 0.7756(8) 0.0560(10) 0.204(9) Uani 0.43(3) 1 d PGDU K 1
C8X C 0.7167(7) 0.7539(6) 0.0454(10) 0.189(9) Uani 0.43(3) 1 d PGDU K 1
C9X C 0.7352(11) 0.8324(12) 0.0820(17) 0.274(19) Uani 0.43(3) 1 d PDU K 1
H288 H 0.7164 0.8488 0.0940 0.411 Uiso 0.43(3) 1 calc PR K 1
H289 H 0.7472 0.8454 0.0602 0.411 Uiso 0.43(3) 1 calc PR K 1
H290 H 0.7525 0.8214 0.0978 0.411 Uiso 0.43(3) 1 calc PR K 1
N52X N 0.6821(6) 0.7596(6) 0.0474(9) 0.179(7) Uani 0.57(3) 1 d PGU K 2
C56X C 0.6610(4) 0.7912(6) 0.0579(8) 0.195(7) Uani 0.57(3) 1 d PGDU K 2
N53X N 0.6773(5) 0.8211(5) 0.0576(8) 0.217(9) Uani 0.57(3) 1 d PGDU K 2
C57X C 0.7145(5) 0.8195(6) 0.0468(9) 0.228(9) Uani 0.57(3) 1 d PGDU K 2
N54X N 0.7356(4) 0.7879(6) 0.0362(8) 0.227(9) Uani 0.57(3) 1 d PGDU K 2
C58X C 0.7194(6) 0.7580(5) 0.0365(8) 0.202(8) Uani 0.57(3) 1 d PGDU K 2
C59X C 0.7339(10) 0.8502(9) 0.0451(14) 0.288(17) Uani 0.57(3) 1 d PDU K 2
H291 H 0.7594 0.8429 0.0374 0.433 Uiso 0.57(3) 1 calc PR K 2
H292 H 0.7300 0.8572 0.0687 0.433 Uiso 0.57(3) 1 calc PR K 2
H293 H 0.7248 0.8704 0.0280 0.433 Uiso 0.57(3) 1 calc PR K 2
N5X N 0.7750(2) 0.6609(2) 0.00620(19) 0.151(2) Uani 1 1 d U . .
C10X C 0.7391(3) 0.6670(3) 0.0127(3) 0.175(3) Uani 1 1 d U . .
H294 H 0.7267 0.6491 0.0099 0.210 Uiso 1 1 calc R . .
C11X C 0.7196(3) 0.6976(3) 0.0232(3) 0.179(3) Uani 1 1 d U K .
H295 H 0.6943 0.7012 0.0267 0.215 Uiso 1 1 calc R . .
C12X C 0.7377(3) 0.7230(3) 0.0286(3) 0.179(3) Uani 1 1 d DU . .
C13X C 0.7741(3) 0.7188(3) 0.0200(4) 0.199(4) Uani 1 1 d U K .
H296 H 0.7867 0.7372 0.0211 0.239 Uiso 1 1 calc R . .
C14X C 0.7923(3) 0.6867(3) 0.0093(3) 0.182(4) Uani 1 1 d U . .
H297 H 0.8176 0.6831 0.0041 0.218 Uiso 1 1 calc R K .
Pd1 Pd 0.15351(2) 0.974750(19) 0.784145(19) 0.1529(3) Uani 1 1 d . . .
Pd2 Pd 0.18343(2) 0.69116(2) 0.62714(2) 0.1586(3) Uani 1 1 d . . .
Pd3 Pd -0.12726(2) 0.81663(2) 0.80886(2) 0.1589(3) Uani 1 1 d . . .
Pd4 Pd -0.30893(2) 1.12715(2) 0.68344(2) 0.1584(3) Uani 1 1 d . . .
Pd5 Pd -0.28423(2) 0.84651(2) 0.525234(18) 0.1529(3) Uani 1 1 d . . .
Pd6 Pd 0.025229(19) 0.71582(2) 0.34648(2) 0.1528(3) Uani 1 1 d . . .
Pd7 Pd 0.196608(18) 0.387585(19) 0.004840(18) 0.1437(2) Uani 1 1 d . . .
Pd8 Pd 0.191577(17) 0.695677(16) 0.107880(17) 0.1362(2) Uani 1 1 d . . .
Pd9 Pd 0.304402(17) 0.392122(18) 0.308388(17) 0.1361(2) Uani 1 1 d . . .
Pd10 Pd 0.607847(18) 0.191579(17) 0.195609(16) 0.1362(2) Uani 1 1 d . . .
Pd11 Pd 0.61245(2) 0.495208(18) 0.303349(17) 0.1436(2) Uani 1 1 d . . .
Pd12 Pd 0.495213(19) 0.803392(18) 0.112429(19) 0.1437(2) Uani 1 1 d . . .
B11 B 0.1014(3) 0.9829(3) 0.6858(3) 0.152(4) Uani 1 1 d DU . .
F11 F 0.1176(3) 0.9807(3) 0.7176(2) 0.265(4) Uani 1 1 d DU L .
F12 F 0.1226(11) 0.9589(11) 0.6642(10) 0.49(2) Uani 0.50 1 d PDU L 1
F13 F 0.0686(8) 0.9699(12) 0.6963(11) 0.47(2) Uani 0.50 1 d PDU L 1
F14 F 0.0976(12) 1.0179(6) 0.6675(10) 0.462(18) Uani 0.50 1 d PDU L 1
F16 F 0.0953(11) 0.9480(6) 0.6848(12) 0.46(2) Uani 0.50 1 d PDU L 2
F17 F 0.0681(7) 1.0032(10) 0.6958(11) 0.435(17) Uani 0.50 1 d PDU L 2
F18 F 0.1264(8) 0.9962(12) 0.6590(8) 0.49(2) Uani 0.50 1 d PDU L 2
B21 B 0.2153(5) 0.9711(6) 0.8700(6) 0.362(6) Uani 1 1 d DU . .
F21 F 0.1914(9) 0.9620(9) 0.8515(10) 0.337(7) Uani 0.50 1 d PDU M 1
F22 F 0.2207(8) 1.0074(6) 0.8525(8) 0.392(7) Uani 0.50 1 d PDU M 1
F23 F 0.1863(6) 0.9801(7) 0.8959(6) 0.362(7) Uani 0.50 1 d PDU M 1
F24 F 0.2420(8) 0.9528(7) 0.8906(9) 0.389(7) Uani 0.50 1 d PDU M 1
F25 F 0.1856(8) 0.9727(9) 0.8533(10) 0.330(7) Uani 0.50 1 d PDU M 2
F26 F 0.2362(8) 0.9963(7) 0.8726(8) 0.391(7) Uani 0.50 1 d PDU M 2
F27 F 0.2014(8) 0.9596(8) 0.9055(6) 0.388(7) Uani 0.50 1 d PDU M 2
F28 F 0.2405(7) 0.9436(7) 0.8532(7) 0.390(7) Uani 0.50 1 d PDU M 2
B31 B 0.1179(3) 0.7968(3) 0.5847(3) 0.150(4) Uani 1 1 d DU . .
F31 F 0.1376(5) 0.7611(4) 0.5973(5) 0.189(6) Uani 0.50 1 d PDU N 1
F32 F 0.1444(7) 0.8175(7) 0.5726(10) 0.48(2) Uani 0.50 1 d PDU N 1
F33 F 0.0921(11) 0.7936(11) 0.5658(13) 0.52(2) Uani 0.50 1 d PDU N 1
F34 F 0.1009(12) 0.8091(10) 0.6178(7) 0.47(2) Uani 0.50 1 d PDU N 1
F35 F 0.1467(7) 0.7735(7) 0.5963(9) 0.352(18) Uani 0.50 1 d PDU N 2
F36 F 0.1169(13) 0.8318(7) 0.5913(13) 0.52(2) Uani 0.50 1 d PDU N 2
F37 F 0.1197(10) 0.7984(13) 0.5474(6) 0.47(2) Uani 0.50 1 d PDU N 2
F38 F 0.0862(7) 0.7828(10) 0.6014(12) 0.46(2) Uani 0.50 1 d PDU N 2
B41 B 0.2540(7) 0.5856(5) 0.6444(6) 0.397(15) Uani 1 1 d DU . .
F41 F 0.2305(4) 0.6147(3) 0.6570(3) 0.315(5) Uani 1 1 d DU . .
F42 F 0.2843(7) 0.5953(5) 0.6195(6) 0.544(16) Uani 1 1 d DU . .
F43 F 0.2617(6) 0.5631(5) 0.6739(5) 0.475(11) Uani 1 1 d DU . .
F44 F 0.2337(7) 0.5745(5) 0.6225(8) 0.613(18) Uani 1 1 d DU . .
B51 B -0.0828(3) 0.8802(3) 0.7027(3) 0.154(4) Uani 1 1 d DU . .
F51 F -0.0988(6) 0.8581(6) 0.7362(4) 0.241(11) Uani 0.50 1 d PDU O 1
F52 F -0.0457(6) 0.8726(12) 0.7055(12) 0.48(2) Uani 0.50 1 d PDU O 1
F53 F -0.0906(12) 0.8711(11) 0.6731(8) 0.49(2) Uani 0.50 1 d PDU O 1
F54 F -0.0951(12) 0.9153(6) 0.7100(9) 0.47(2) Uani 0.50 1 d PDU O 1
F55 F -0.0933(9) 0.8601(8) 0.7356(6) 0.349(17) Uani 0.50 1 d PDU O 2
F56 F -0.0651(11) 0.8561(8) 0.6784(8) 0.48(2) Uani 0.50 1 d PDU O 2
F57 F -0.1129(7) 0.8957(11) 0.6868(9) 0.451(19) Uani 0.50 1 d PDU O 2
F58 F -0.0614(11) 0.9037(9) 0.7066(11) 0.50(2) Uani 0.50 1 d PDU O 2
B61 B -0.1453(6) 0.7484(7) 0.9146(5) 0.416(16) Uani 1 1 d DU . .
F61 F -0.1568(3) 0.7713(4) 0.8853(3) 0.318(5) Uani 1 1 d DU . .
F62 F -0.1745(5) 0.7390(5) 0.9373(4) 0.451(10) Uani 1 1 d DU . .
F63 F -0.1207(7) 0.7169(7) 0.9056(6) 0.64(2) Uani 1 1 d DU . .
F64 F -0.1241(7) 0.7679(6) 0.9270(6) 0.518(14) Uani 1 1 d DU . .
B71 B -0.2034(2) 1.0832(3) 0.6198(3) 0.144(4) Uani 1 1 d DU . .
F71 F -0.2366(2) 1.0973(2) 0.6401(3) 0.264(3) Uani 1 1 d DU P .
F72 F -0.1773(8) 1.0750(10) 0.6426(8) 0.47(2) Uani 0.50 1 d PDU P 1
F73 F -0.2028(11) 1.0542(9) 0.6035(11) 0.48(2) Uani 0.50 1 d PDU P 1
F74 F -0.1962(11) 1.1134(7) 0.5943(10) 0.48(2) Uani 0.50 1 d PDU P 1
F76 F -0.1735(8) 1.0974(11) 0.6194(11) 0.49(2) Uani 0.50 1 d PDU P 2
F77 F -0.1962(12) 1.0454(6) 0.6348(10) 0.469(19) Uani 0.50 1 d PDU P 2
F78 F -0.2116(9) 1.0816(11) 0.5858(6) 0.47(2) Uani 0.50 1 d PDU P 2
B81 B -0.4151(5) 1.1490(5) 0.7480(6) 0.295(6) Uani 1 1 d DU . .
F81 F -0.4216(7) 1.1707(7) 0.7131(6) 0.336(8) Uani 0.50 1 d PDU Q 1
F82 F -0.4456(5) 1.1640(6) 0.7673(7) 0.303(8) Uani 0.50 1 d PDU Q 1
F83 F -0.3824(5) 1.1575(8) 0.7428(7) 0.286(9) Uani 0.50 1 d PDU Q 1
F84 F -0.4140(6) 1.1130(6) 0.7429(8) 0.326(8) Uani 0.50 1 d PDU Q 1
F85 F -0.3855(5) 1.1548(8) 0.7232(6) 0.258(7) Uani 0.50 1 d PDU Q 2
F86 F -0.4289(7) 1.1823(6) 0.7567(8) 0.336(9) Uani 0.50 1 d PDU Q 2
F87 F -0.4064(4) 1.1255(6) 0.7803(5) 0.287(7) Uani 0.50 1 d PDU Q 2
F88 F -0.4378(6) 1.1333(8) 0.7326(7) 0.336(8) Uani 0.50 1 d PDU Q 2
B91 B -0.1824(4) 0.8740(5) 0.5009(5) 0.289(5) Uani 1 1 d DU . .
F91 F -0.1826(6) 0.8961(6) 0.5237(6) 0.254(5) Uani 0.50 1 d PDU R 1
F92 F -0.2197(4) 0.8850(7) 0.5133(7) 0.262(5) Uani 0.50 1 d PDU R 1
F93 F -0.1628(8) 0.8911(8) 0.4692(7) 0.389(9) Uani 0.50 1 d PDU R 1
F94 F -0.1748(7) 0.8356(6) 0.5088(8) 0.378(9) Uani 0.50 1 d PDU R 1
F95 F -0.1886(6) 0.9063(5) 0.5111(6) 0.243(5) Uani 0.50 1 d PDU R 2
F96 F -0.2155(5) 0.8756(8) 0.5252(6) 0.260(5) Uani 0.50 1 d PDU R 2
F97 F -0.1906(8) 0.8696(9) 0.4674(6) 0.385(9) Uani 0.50 1 d PDU R 2
F98 F -0.1494(5) 0.8631(7) 0.5133(7) 0.347(7) Uani 0.50 1 d PDU R 2
B101 B -0.3773(5) 0.7930(6) 0.5265(6) 0.312(6) Uani 1 1 d DU . .
F101 F -0.3535(10) 0.8159(10) 0.5274(9) 0.297(7) Uani 0.50 1 d PDU S 1
F102 F -0.3865(8) 0.7784(9) 0.5002(7) 0.383(8) Uani 0.50 1 d PDU S 1
F103 F -0.4086(6) 0.8086(9) 0.5445(9) 0.380(7) Uani 0.50 1 d PDU S 1
F104 F -0.3616(7) 0.7648(6) 0.5524(7) 0.370(8) Uani 0.50 1 d PDU S 1
F105 F -0.3548(10) 0.8111(10) 0.5375(9) 0.302(7) Uani 0.50 1 d PDU S 2
F106 F -0.3981(8) 0.7690(8) 0.5488(7) 0.365(7) Uani 0.50 1 d PDU S 2
F107 F -0.3984(7) 0.8208(7) 0.5067(8) 0.376(8) Uani 0.50 1 d PDU S 2
F108 F -0.3570(7) 0.7766(8) 0.4954(7) 0.378(8) Uani 0.50 1 d PDU S 2
B111 B 0.0445(4) 0.8038(5) 0.3898(6) 0.291(5) Uani 1 1 d DU . .
F111 F 0.0217(7) 0.7850(7) 0.3759(7) 0.263(5) Uani 0.50 1 d PDU T 1
F112 F 0.0130(5) 0.8101(5) 0.4094(5) 0.252(5) Uani 0.50 1 d PDU T 1
F113 F 0.0725(7) 0.7841(8) 0.4077(8) 0.379(9) Uani 0.50 1 d PDU T 1
F114 F 0.0479(8) 0.8405(6) 0.3739(7) 0.361(8) Uani 0.50 1 d PDU T 1
F115 F 0.0223(7) 0.7775(7) 0.3889(7) 0.267(5) Uani 0.50 1 d PDU T 2
F116 F 0.0121(5) 0.8221(5) 0.3909(6) 0.258(5) Uani 0.50 1 d PDU T 2
F117 F 0.0536(7) 0.8158(7) 0.4195(7) 0.350(8) Uani 0.50 1 d PDU T 2
F118 F 0.0727(7) 0.8064(8) 0.3595(7) 0.395(9) Uani 0.50 1 d PDU T 2
B121 B 0.0313(6) 0.6233(5) 0.2922(6) 0.309(6) Uani 1 1 d DU . .
F121 F 0.0393(8) 0.6464(9) 0.3110(10) 0.284(7) Uani 0.50 1 d PDU U 1
F122 F 0.0514(7) 0.6047(8) 0.2660(7) 0.361(7) Uani 0.50 1 d PDU U 1
F123 F 0.0177(8) 0.5980(6) 0.3196(6) 0.361(7) Uani 0.50 1 d PDU U 1
F124 F -0.0028(7) 0.6442(8) 0.2848(8) 0.383(8) Uani 0.50 1 d PDU U 1
F125 F 0.0262(7) 0.6476(9) 0.3153(9) 0.272(7) Uani 0.50 1 d PDU U 2
F126 F 0.0537(6) 0.6435(6) 0.2645(6) 0.355(8) Uani 0.50 1 d PDU U 2
F127 F 0.0547(8) 0.5924(7) 0.3021(8) 0.376(7) Uani 0.50 1 d PDU U 2
F128 F 0.0023(6) 0.6127(8) 0.2859(9) 0.385(8) Uani 0.50 1 d PDU U 2
B131 B 0.2906(4) 0.4293(5) -0.0253(4) 0.237(4) Uani 1 1 d DU . .
F131 F 0.2647(7) 0.4190(8) 0.0040(7) 0.198(4) Uani 0.33 1 d PDU V 1
F132 F 0.3002(8) 0.4641(6) -0.0316(8) 0.278(7) Uani 0.33 1 d PDU V 1
F133 F 0.2933(9) 0.4088(9) -0.0524(7) 0.282(7) Uani 0.33 1 d PDU V 1
F134 F 0.3109(7) 0.4160(8) 0.0027(7) 0.211(5) Uani 0.33 1 d PDU V 1
F135 F 0.2691(7) 0.4103(8) 0.0039(7) 0.195(4) Uani 0.33 1 d PDU V 2
F136 F 0.2707(8) 0.4411(9) -0.0539(7) 0.286(7) Uani 0.33 1 d PDU V 2
F137 F 0.3256(6) 0.4078(8) -0.0368(8) 0.284(7) Uani 0.33 1 d PDU V 2
F138 F 0.3007(8) 0.4375(8) 0.0038(7) 0.209(5) Uani 0.33 1 d PDU V 2
F13A F 0.2668(7) 0.4044(7) -0.0241(9) 0.272(6) Uani 0.33 1 d PDU V 3
F13B F 0.2623(7) 0.4622(7) -0.0285(9) 0.304(8) Uani 0.33 1 d PDU V 3
F13C F 0.3112(8) 0.4379(9) -0.0602(6) 0.293(7) Uani 0.33 1 d PDU V 3
F13D F 0.3004(5) 0.4256(5) 0.0055(5) 0.159(5) Uani 0.33 1 d PDU V 3
B141 B 0.0935(2) 0.3462(3) 0.0055(4) 0.147(4) Uani 1 1 d DU . .
F141 F 0.1273(4) 0.3613(5) 0.0026(4) 0.177(5) Uani 0.50 1 d PDU W 1
F142 F 0.0766(8) 0.3508(12) 0.0391(6) 0.48(2) Uani 0.50 1 d PDU W 1
F143 F 0.0796(9) 0.3663(10) -0.0251(7) 0.454(19) Uani 0.50 1 d PDU W 1
F144 F 0.1051(9) 0.3114(6) -0.0025(12) 0.446(19) Uani 0.50 1 d PDU W 1
F145 F 0.1177(7) 0.3613(9) 0.0164(9) 0.355(19) Uani 0.50 1 d PDU W 2
F146 F 0.0873(11) 0.3118(7) 0.0230(13) 0.52(2) Uani 0.50 1 d PDU W 2
F147 F 0.0613(7) 0.3678(9) -0.0018(12) 0.48(2) Uani 0.50 1 d PDU W 2
F148 F 0.1097(11) 0.3401(13) -0.0306(7) 0.48(2) Uani 0.50 1 d PDU W 2
B151 B 0.2744(3) 0.6123(3) 0.0795(4) 0.210(4) Uani 1 1 d DU . .
F151 F 0.2578(10) 0.6489(6) 0.0800(14) 0.178(5) Uani 0.25 1 d PDU X 1
F152 F 0.2824(10) 0.5915(9) 0.1143(7) 0.250(7) Uani 0.25 1 d PDU Y 1
F153 F 0.3037(7) 0.6281(9) 0.0673(11) 0.174(5) Uani 0.25 1 d PDU X 1
F154 F 0.2680(9) 0.5875(8) 0.0598(9) 0.250(7) Uani 0.25 1 d PDU X 1
F155 F 0.2705(8) 0.6451(6) 0.0937(8) 0.177(5) Uani 0.25 1 d PDU X 2
F156 F 0.2933(8) 0.5806(7) 0.0964(9) 0.232(7) Uani 0.25 1 d PDU X 2
F157 F 0.2960(7) 0.6305(8) 0.0557(7) 0.174(5) Uani 0.25 1 d PDU X 2
F158 F 0.2373(5) 0.6087(9) 0.0814(11) 0.254(7) Uani 0.25 1 d PDU Z 2
F15A F 0.2635(8) 0.6510(5) 0.0791(11) 0.150(5) Uani 0.25 1 d PDU A 3
F15B F 0.2556(8) 0.5852(7) 0.0992(9) 0.241(7) Uani 0.25 1 d PDU X 3
F15C F 0.3058(6) 0.6218(8) 0.0836(8) 0.180(6) Uani 0.25 1 d PDU X 3
F15D F 0.2856(8) 0.6104(9) 0.0418(6) 0.234(6) Uani 0.25 1 d PDU X 3
F15E F 0.2514(8) 0.6222(10) 0.0514(8) 0.261(7) Uani 0.25 1 d PDU B 4
F15F F 0.2532(8) 0.6079(9) 0.1146(6) 0.241(7) Uani 0.25 1 d PDU X 4
F15G F 0.2973(6) 0.6347(7) 0.0707(10) 0.143(5) Uani 0.25 1 d PDU X 4
F15H F 0.2971(8) 0.5793(7) 0.0714(10) 0.248(7) Uani 0.25 1 d PDU X 4
B161 B 0.0890(2) 0.7673(3) 0.1475(3) 0.140(3) Uani 1 1 d DU . .
F161 F 0.1175(4) 0.7404(5) 0.1315(6) 0.181(6) Uani 0.50 1 d PDU C 1
F162 F 0.0564(7) 0.7675(9) 0.1361(11) 0.444(19) Uani 0.50 1 d PDU C 1
F163 F 0.0862(9) 0.7599(10) 0.1849(6) 0.425(16) Uani 0.50 1 d PDU C 1
F164 F 0.1005(11) 0.8002(7) 0.1319(14) 0.55(3) Uani 0.50 1 d PDU C 1
F165 F 0.1222(6) 0.7464(8) 0.1438(9) 0.307(16) Uani 0.50 1 d PDU C 2
F166 F 0.0836(12) 0.7739(11) 0.1102(6) 0.48(2) Uani 0.50 1 d PDU C 2
F167 F 0.0640(10) 0.7426(9) 0.1633(12) 0.48(2) Uani 0.50 1 d PDU C 2
F168 F 0.0768(11) 0.7990(8) 0.1608(12) 0.51(2) Uani 0.50 1 d PDU C 2
B171 B 0.3710(3) 0.4304(3) 0.2008(2) 0.132(3) Uani 1 1 d DU . .
F171 F 0.3511(4) 0.4162(6) 0.2375(3) 0.190(7) Uani 0.50 1 d PDU D 1
F172 F 0.3470(9) 0.4575(9) 0.1849(9) 0.455(19) Uani 0.50 1 d PDU D 1
F173 F 0.3757(11) 0.4006(7) 0.1838(8) 0.47(2) Uani 0.50 1 d PDU D 1
F174 F 0.4014(8) 0.4391(12) 0.2079(10) 0.47(2) Uani 0.50 1 d PDU D 1
F175 F 0.3470(7) 0.4233(9) 0.2313(6) 0.334(16) Uani 0.50 1 d PDU D 2
F176 F 0.3708(10) 0.4681(5) 0.1952(11) 0.432(18) Uani 0.50 1 d PDU D 2
F177 F 0.3595(10) 0.4224(10) 0.1712(8) 0.48(2) Uani 0.50 1 d PDU D 2
F178 F 0.4050(6) 0.4109(9) 0.2037(11) 0.428(17) Uani 0.50 1 d PDU D 2
B181 B 0.2344(3) 0.3519(3) 0.4111(2) 0.136(3) Uani 1 1 d DU . .
F181 F 0.2558(6) 0.3677(7) 0.3800(5) 0.193(7) Uani 0.50 1 d PDU E 1
F182 F 0.2318(9) 0.3704(9) 0.4398(8) 0.416(18) Uani 0.50 1 d PDU E 1
F183 F 0.2541(10) 0.3158(7) 0.4164(9) 0.449(17) Uani 0.50 1 d PDU E 1
F184 F 0.1991(7) 0.3501(13) 0.4086(11) 0.53(2) Uani 0.50 1 d PDU E 1
F185 F 0.2658(7) 0.3584(10) 0.3840(8) 0.296(17) Uani 0.50 1 d PDU E 2
F186 F 0.2531(10) 0.3476(11) 0.4423(8) 0.428(18) Uani 0.50 1 d PDU E 2
F187 F 0.2287(8) 0.3184(6) 0.4111(10) 0.443(18) Uani 0.50 1 d PDU E 2
F188 F 0.2152(9) 0.3861(6) 0.4132(10) 0.432(18) Uani 0.50 1 d PDU E 2
B191 B 0.5708(3) 0.2986(2) 0.1281(3) 0.130(3) Uani 1 1 d DU . .
F191 F 0.5769(9) 0.2671(6) 0.1511(7) 0.324(16) Uani 0.50 1 d PDU F 1
F192 F 0.6023(6) 0.3140(8) 0.1203(10) 0.436(19) Uani 0.50 1 d PDU F 1
F193 F 0.5630(13) 0.2915(11) 0.0963(8) 0.49(2) Uani 0.50 1 d PDU F 1
F194 F 0.5421(8) 0.3228(8) 0.1438(9) 0.440(18) Uani 0.50 1 d PDU F 1
F195 F 0.5851(6) 0.2636(4) 0.1490(5) 0.189(8) Uani 0.50 1 d PDU F 2
F196 F 0.5368(6) 0.2972(9) 0.1269(10) 0.409(18) Uani 0.50 1 d PDU F 2
F197 F 0.5825(10) 0.3271(8) 0.1363(10) 0.48(2) Uani 0.50 1 d PDU F 2
F198 F 0.5948(10) 0.2915(11) 0.0952(7) 0.46(2) Uani 0.50 1 d PDU F 2
B201 B 0.6469(3) 0.0892(2) 0.2670(3) 0.139(3) Uani 1 1 d DU . .
F201 F 0.6349(9) 0.1213(6) 0.2437(7) 0.205(8) Uani 0.50 1 d PDU G 1
F202 F 0.6847(6) 0.0826(7) 0.2599(10) 0.422(17) Uani 0.50 1 d PDU G 1
F203 F 0.6357(13) 0.0970(12) 0.3024(6) 0.48(2) Uani 0.50 1 d PDU G 1
F204 F 0.6277(11) 0.0628(9) 0.2643(11) 0.437(19) Uani 0.50 1 d PDU G 1
F205 F 0.6354(13) 0.1133(8) 0.2360(8) 0.295(18) Uani 0.50 1 d PDU G 2
F206 F 0.6600(12) 0.0560(7) 0.2545(11) 0.440(19) Uani 0.50 1 d PDU G 2
F207 F 0.6725(8) 0.1058(9) 0.2749(10) 0.48(2) Uani 0.50 1 d PDU G 2
F208 F 0.6141(8) 0.0866(13) 0.2900(11) 0.46(2) Uani 0.50 1 d PDU G 2
B211 B 0.5619(5) 0.5228(4) 0.2138(5) 0.256(4) Uani 1 1 d DU . .
F211 F 0.5319(6) 0.5287(7) 0.1960(7) 0.346(7) Uani 0.50 1 d PDU H 1
F212 F 0.5798(6) 0.4934(5) 0.2353(6) 0.220(4) Uani 0.50 1 d PDU H 1
F213 F 0.5722(7) 0.5522(6) 0.2249(7) 0.349(8) Uani 0.50 1 d PDU H 1
F214 F 0.5812(5) 0.4989(5) 0.1940(5) 0.205(4) Uani 0.50 1 d PDU H 1
F215 F 0.5684(5) 0.4920(5) 0.1998(5) 0.203(5) Uani 0.50 1 d PDU H 2
F216 F 0.5263(6) 0.5243(8) 0.2333(7) 0.375(9) Uani 0.50 1 d PDU H 2
F217 F 0.5684(8) 0.5479(7) 0.1831(6) 0.357(7) Uani 0.50 1 d PDU H 2
F218 F 0.5895(6) 0.5022(6) 0.2317(6) 0.228(5) Uani 0.50 1 d PDU H 2
B221 B 0.6533(3) 0.4930(4) 0.4068(3) 0.146(4) Uani 1 1 d DU . .
F221 F 0.6484(9) 0.4910(11) 0.3725(6) 0.339(18) Uani 0.50 1 d PDU I 1
F222 F 0.6269(8) 0.4718(10) 0.4270(10) 0.52(2) Uani 0.50 1 d PDU I 1
F223 F 0.6878(6) 0.4834(11) 0.4133(9) 0.50(2) Uani 0.50 1 d PDU I 1
F224 F 0.6382(11) 0.5280(6) 0.4141(9) 0.48(2) Uani 0.50 1 d PDU I 1
F225 F 0.6347(5) 0.4957(6) 0.3758(4) 0.183(6) Uani 0.50 1 d PDU I 2
F226 F 0.6320(10) 0.5118(9) 0.4325(7) 0.48(2) Uani 0.50 1 d PDU I 2
F227 F 0.6566(12) 0.4551(6) 0.4187(11) 0.54(2) Uani 0.50 1 d PDU I 2
F228 F 0.6854(7) 0.5051(10) 0.3934(7) 0.451(19) Uani 0.50 1 d PDU I 2
B231 B 0.4978(3) 0.6977(2) 0.0737(3) 0.136(3) Uani 1 1 d DU . .
F231 F 0.5069(9) 0.7285(6) 0.0809(8) 0.41(2) Uani 0.50 1 d PDU J 1
F232 F 0.4634(6) 0.6916(10) 0.0837(11) 0.437(19) Uani 0.50 1 d PDU J 1
F233 F 0.5121(9) 0.6955(10) 0.0377(6) 0.454(18) Uani 0.50 1 d PDU J 1
F234 F 0.5190(12) 0.6706(9) 0.0952(11) 0.48(2) Uani 0.50 1 d PDU J 1
F235 F 0.4942(4) 0.7335(3) 0.0873(5) 0.174(5) Uani 0.50 1 d PDU J 2
F236 F 0.4837(9) 0.6750(7) 0.1033(7) 0.420(17) Uani 0.50 1 d PDU J 2
F237 F 0.4764(9) 0.7011(10) 0.0487(8) 0.49(2) Uani 0.50 1 d PDU J 2
F238 F 0.5352(6) 0.6920(12) 0.0646(14) 0.52(2) Uani 0.50 1 d PDU J 2
B241 B 0.4760(5) 0.9109(4) 0.1328(5) 0.264(5) Uani 1 1 d DU . .
F241 F 0.4490(8) 0.9344(8) 0.1520(9) 0.300(7) Uani 0.33 1 d PDU K 1
F242 F 0.4794(11) 0.9270(8) 0.0949(6) 0.307(7) Uani 0.33 1 d PDU K 1
F243 F 0.5045(7) 0.9121(8) 0.1495(9) 0.237(6) Uani 0.33 1 d PDU K 1
F244 F 0.4893(11) 0.8737(5) 0.1416(10) 0.229(6) Uani 0.33 1 d PDU K 1
F245 F 0.4962(5) 0.9038(4) 0.1554(5) 0.174(4) Uani 0.33 1 d PDU K 2
F246 F 0.4386(6) 0.9032(9) 0.1453(9) 0.321(8) Uani 0.33 1 d PDU K 2
F247 F 0.4661(10) 0.9491(5) 0.1235(9) 0.307(7) Uani 0.33 1 d PDU K 2
F248 F 0.4859(8) 0.8854(7) 0.1084(7) 0.286(7) Uani 0.33 1 d PDU K 2
F24A F 0.4815(9) 0.9083(7) 0.1678(5) 0.247(7) Uani 0.33 1 d PDU K 3
F24B F 0.4467(8) 0.9216(9) 0.1146(9) 0.311(7) Uani 0.33 1 d PDU K 3
F24C F 0.5058(7) 0.9326(7) 0.1232(8) 0.274(6) Uani 0.33 1 d PDU K 3
F24D F 0.4970(8) 0.8747(4) 0.1366(8) 0.189(5) Uani 0.33 1 d PDU K 3
O1 O 0.2875(9) 0.8642(9) 0.7000(10) 0.540(16) Uiso 1 1 d . . .
O2 O -0.1859(7) 0.7234(7) 0.6343(8) 0.502(13) Uiso 1 1 d . . .
O3 O 0.3115(11) 0.5764(12) 0.1890(11) 0.68(2) Uiso 1 1 d . . .
O4 O 0.4280(11) 0.3007(11) 0.1967(11) 0.560(19) Uiso 0.80 1 d P . .
O5 O 0.3200(12) 0.3644(12) 0.1300(12) 0.67(2) Uiso 0.90 1 d P . .
O6 O 0.2586(15) 0.5927(17) 0.7687(15) 0.68(3) Uiso 0.80 1 d P . .
O7 O 0.0988(15) 0.5637(15) 0.1595(15) 0.59(3) Uiso 0.60 1 d P . .
O8 O -0.1758(9) 0.9893(9) 0.7309(10) 0.589(17) Uiso 1 1 d . . .
O9 O 0.8347(18) 0.3105(19) 0.1925(18) 0.66(4) Uiso 0.60 1 d P . .
O10 O 0.6723(18) 0.5802(19) 0.1311(19) 0.59(4) Uiso 0.50 1 d P . .
O11 O 0.4115(18) 0.7281(18) 0.2303(18) 0.66(4) Uiso 0.60 1 d P . .
O12 O 0.1361(8) 0.8172(8) 0.2236(8) 0.530(14) Uiso 1 1 d . . .
O13 O 0.6956(9) 0.2961(9) 0.0575(9) 0.496(15) Uiso 0.90 1 d P . .
O14 O -0.2724(10) 0.7324(10) 0.9200(11) 0.538(19) Uiso 0.80 1 d P . .
O15 O 0.3091(19) 0.2826(19) 0.562(2) 0.61(4) Uiso 0.50 1 d P . .
O16 O 0.2351(10) 0.8236(10) 0.4894(11) 0.592(19) Uiso 1 1 d . . .
O17 O -0.2198(11) 0.9964(11) 0.3969(11) 0.61(2) Uiso 0.90 1 d P . .
O18 O -0.1514(10) 0.8219(10) 0.6379(10) 0.60(2) Uiso 0.90 1 d P . .
O19 O 0.320(3) 0.669(3) 0.295(3) 0.65(5) Uiso 0.40 1 d P . .
O20 O 0.2362(10) 0.5439(11) 0.0182(11) 0.56(2) Uiso 0.80 1 d P . .
O21 O 0.6200(12) 0.7042(11) -0.0049(12) 0.59(2) Uiso 0.80 1 d P . .
O22 O 0.7480(18) 0.3226(16) 0.1100(17) 0.61(3) Uiso 0.60 1 d P . .
O23 O 0.6302(13) 0.6979(13) 0.1234(13) 0.46(2) Uiso 0.50 1 d P . .
O24 O -0.0030(13) 0.7657(13) 0.6661(13) 0.59(2) Uiso 0.70 1 d P . .
O25 O 0.3150(9) 0.3011(9) 0.4861(9) 0.527(16) Uiso 0.90 1 d P . .
O26 O 0.5574(19) 0.2948(19) 0.038(2) 0.68(4) Uiso 0.60 1 d P . .
O27 O 0.697(2) 0.516(2) 0.114(2) 0.71(5) Uiso 0.50 1 d P . .
O28 O -0.2582(14) 1.0087(15) 0.5536(15) 0.65(3) Uiso 0.80 1 d P . .
O29 O 0.665(2) 0.629(2) 0.266(2) 0.68(5) Uiso 0.50 1 d P . .
O30 O 0.6421(19) 0.7287(19) 0.165(2) 0.52(3) Uiso 0.40 1 d P . .
O31 O -0.341(3) 0.695(3) 0.934(3) 0.70(6) Uiso 0.40 1 d P . .
O32 O 0.6678(14) 0.3031(12) 0.1009(13) 0.58(2) Uiso 0.80 1 d P . .
O33 O 0.6423(14) 0.4014(15) 0.1965(14) 0.58(3) Uiso 0.70 1 d P . .
O34 O -0.1572(13) 0.7224(13) 0.2802(13) 0.57(2) Uiso 0.70 1 d P . .
O35 O -0.256(2) 0.845(2) 0.354(2) 0.55(4) Uiso 0.40 1 d P . .
O36 O 0.1806(13) 0.8726(13) 0.6478(13) 0.68(2) Uiso 0.90 1 d P . .
O37 O -0.2950(16) 1.0572(16) 0.5275(15) 0.65(3) Uiso 0.70 1 d P . .
O38 O 0.1161(14) 0.8255(14) 0.8212(14) 0.63(3) Uiso 0.70 1 d P . .
O39 O 0.859(3) 0.454(3) 0.184(3) 0.63(5) Uiso 0.40 1 d P . .
O40 O 0.627(3) 0.124(3) 0.037(3) 0.65(5) Uiso 0.40 1 d P . .
O41 O -0.1511(16) 0.7330(16) 0.3405(17) 0.68(3) Uiso 0.70 1 d P . .
O42 O -0.0169(15) 0.9093(15) 0.2844(15) 0.64(3) Uiso 0.70 1 d P . .
O43 O 0.428(2) 0.337(2) 0.379(2) 0.60(4) Uiso 0.40 1 d P . .
O44 O 0.7058(8) 0.0141(8) 0.1856(8) 0.491(14) Uiso 0.90 1 d P . .
O45 O 0.0796(11) 1.0279(11) 0.9236(11) 0.62(2) Uiso 0.90 1 d P . .
O46 O 0.0563(14) 0.4131(14) 0.0974(14) 0.56(3) Uiso 0.60 1 d P . .
O47 O 0.2448(19) 0.8253(19) 0.0585(19) 0.61(4) Uiso 0.50 1 d P . .
O48 O -0.424(3) 0.926(3) 0.480(3) 0.67(6) Uiso 0.40 1 d P . .
O49 O 0.5068(9) 0.2369(9) 0.0509(9) 0.546(17) Uiso 0.90 1 d P . .
O50 O 0.3106(10) 0.3440(9) 0.4315(10) 0.586(18) Uiso 1 1 d . . .
O51 O -0.1672(18) 0.7448(19) 0.5769(19) 0.66(4) Uiso 0.60 1 d P . .
O52 O 0.3182(15) 0.7049(16) 0.3374(16) 0.65(3) Uiso 0.70 1 d P . .
O53 O 0.6182(12) 0.4042(12) 0.4256(12) 0.69(2) Uiso 1 1 d . . .
O54 O 0.202(2) 0.659(2) 0.363(2) 0.61(5) Uiso 0.40 1 d P . .
O55 O 0.7424(14) 0.6597(14) 0.1248(14) 0.61(3) Uiso 0.70 1 d P . .
O56 O -0.2478(15) 0.9754(16) 0.5999(16) 0.70(3) Uiso 0.80 1 d P . .
O57 O 0.746(2) 0.372(2) 0.211(2) 0.67(4) Uiso 0.60 1 d P . .
O58 O -0.189(2) 0.779(2) 0.290(2) 0.67(4) Uiso 0.50 1 d P . .
O59 O 0.2757(13) 0.8717(13) 0.6649(15) 0.61(3) Uiso 0.80 1 d P . .
O60 O -0.1958(14) 0.9703(15) 0.6933(15) 0.62(3) Uiso 0.70 1 d P . .
O61 O 0.0840(14) 0.7465(14) 0.4954(13) 0.66(3) Uiso 0.80 1 d P . .
O62 O 0.6327(13) 0.3706(14) 0.1827(13) 0.66(3) Uiso 0.90 1 d P . .
O63 O 0.3537(11) 0.6867(12) 0.1368(12) 0.59(2) Uiso 0.80 1 d P . .
O64 O 0.0933(18) 0.4395(19) -0.0657(19) 0.66(4) Uiso 0.60 1 d P . .
O65 O -0.061(3) 0.949(3) 0.570(3) 0.71(6) Uiso 0.40 1 d P . .
O66 O 0.413(2) 0.512(2) 0.082(2) 0.66(4) Uiso 0.50 1 d P . .
O67 O 0.2377(12) 0.8465(14) 0.5176(14) 0.66(3) Uiso 0.90 1 d P . .
O68 O -0.2805(19) 0.720(2) 0.881(2) 0.68(4) Uiso 0.60 1 d P . .
O69 O 0.1331(18) 0.8361(18) 0.3267(17) 0.64(3) Uiso 0.60 1 d P . .
O70 O 0.186(2) 0.638(2) 0.779(2) 0.66(4) Uiso 0.50 1 d P . .
O71 O -0.1099(16) 0.7975(16) 0.4832(16) 0.67(3) Uiso 0.70 1 d P . .
O72 O 0.7136(16) 0.3140(13) 0.0874(14) 0.60(2) Uiso 0.80 1 d P . .

loop_
_atom_site_aniso_label
_atom_site_aniso_U_11
_atom_site_aniso_U_22
_atom_site_aniso_U_33
_atom_site_aniso_U_23
_atom_site_aniso_U_13
_atom_site_aniso_U_12
N1A 0.172(6) 0.134(5) 0.189(7) -0.029(5) -0.019(6) -0.029(5)
C1A 0.190(9) 0.154(8) 0.199(10) -0.019(8) 0.023(8) -0.031(8)
C2A 0.231(11) 0.156(8) 0.203(10) -0.023(8) 0.056(9) -0.037(8)
C3A 0.236(11) 0.148(8) 0.192(9) -0.026(7) 0.014(9) -0.037(8)
C4A 0.206(10) 0.182(10) 0.192(10) -0.025(8) 0.037(8) -0.023(9)
C5A 0.183(9) 0.158(8) 0.177(9) -0.021(7) 0.031(8) -0.014(7)
N2A 0.246(18) 0.170(18) 0.192(17) -0.004(16) 0.011(17) -0.014(17)
C6A 0.25(2) 0.193(19) 0.206(18) -0.020(18) 0.011(18) -0.001(18)
N3A 0.27(2) 0.22(2) 0.23(2) 0.006(19) 0.06(2) 0.00(2)
C7A 0.25(2) 0.23(2) 0.20(2) 0.02(2) 0.07(2) 0.01(2)
N4A 0.27(2) 0.23(2) 0.186(18) 0.007(18) 0.05(2) -0.02(2)
C8A 0.249(18) 0.192(17) 0.195(17) 0.008(17) 0.037(17) -0.029(17)
C9A 0.30(6) 0.29(5) 0.23(4) -0.05(4) 0.10(4) 0.01(5)
N52A 0.214(11) 0.153(10) 0.181(10) -0.002(9) 0.010(9) -0.035(9)
C56A 0.228(13) 0.143(11) 0.199(12) -0.017(9) 0.030(11) -0.017(10)
N53A 0.265(17) 0.191(13) 0.232(14) 0.006(11) 0.086(13) -0.006(12)
C57A 0.27(2) 0.244(18) 0.231(17) 0.032(15) 0.072(17) 0.029(16)
N54A 0.267(17) 0.253(14) 0.217(12) 0.023(12) 0.058(13) -0.021(14)
C58A 0.251(14) 0.188(12) 0.202(13) 0.001(11) 0.042(12) -0.039(12)
C59A 0.30(3) 0.33(3) 0.28(3) 0.11(2) 0.12(2) 0.09(3)
N5A 0.183(7) 0.198(8) 0.143(6) 0.016(6) -0.026(5) -0.084(6)
C10A 0.163(8) 0.188(9) 0.179(9) -0.020(8) 0.002(7) -0.037(8)
C11A 0.196(10) 0.178(9) 0.174(9) -0.008(7) 0.010(8) -0.051(8)
C12A 0.211(10) 0.167(9) 0.215(10) -0.044(8) 0.024(9) -0.022(8)
C13A 0.232(12) 0.181(10) 0.181(9) 0.032(8) 0.021(8) -0.006(9)
C14A 0.201(11) 0.190(10) 0.200(11) 0.026(9) -0.026(9) -0.007(9)
N1B 0.155(6) 0.182(7) 0.145(5) -0.043(5) -0.004(4) -0.052(5)
C1B 0.165(8) 0.226(11) 0.240(11) -0.108(9) 0.009(7) -0.063(8)
C2B 0.174(9) 0.209(10) 0.274(12) -0.109(10) -0.017(9) -0.052(8)
C3B 0.155(8) 0.192(9) 0.230(10) -0.101(8) -0.012(7) -0.040(7)
C4B 0.170(8) 0.175(8) 0.218(10) -0.064(8) -0.007(7) -0.053(7)
C5B 0.179(9) 0.172(8) 0.180(8) -0.038(7) -0.015(7) -0.067(7)
N2B 0.175(11) 0.196(12) 0.237(12) -0.108(10) -0.008(10) -0.025(10)
C6B 0.165(12) 0.219(14) 0.296(15) -0.100(13) -0.016(12) -0.058(11)
N3B 0.169(11) 0.246(14) 0.315(18) -0.121(14) 0.000(12) -0.056(11)
C7B 0.198(16) 0.27(2) 0.35(2) -0.166(18) 0.014(17) -0.037(15)
N4B 0.189(11) 0.211(14) 0.34(2) -0.145(14) 0.009(14) -0.043(11)
C8B 0.176(12) 0.187(14) 0.297(16) -0.106(13) 0.002(13) -0.021(12)
C9B 0.136(13) 0.30(3) 0.55(5) -0.21(3) -0.01(2) -0.005(19)
N52B 0.166(15) 0.172(15) 0.281(17) -0.093(14) -0.038(14) -0.072(13)
C56B 0.162(15) 0.211(16) 0.287(17) -0.119(15) -0.027(15) -0.054(14)
N53B 0.170(19) 0.257(19) 0.32(2) -0.139(18) -0.005(18) -0.032(17)
C57B 0.179(19) 0.24(2) 0.35(2) -0.14(2) -0.02(2) -0.045(18)
N54B 0.194(19) 0.23(2) 0.35(3) -0.10(2) -0.03(2) -0.026(18)
C58B 0.180(16) 0.208(17) 0.310(18) -0.106(16) 0.008(16) 0.002(16)
C59B 0.25(5) 0.38(9) 0.52(12) -0.28(9) -0.13(7) 0.00(6)
N5B 0.171(7) 0.162(6) 0.194(7) -0.072(5) 0.018(6) -0.042(5)
C10B 0.187(9) 0.208(10) 0.277(13) -0.127(10) 0.017(9) -0.053(8)
C11B 0.198(10) 0.224(11) 0.260(12) -0.134(10) 0.000(10) -0.032(9)
C12B 0.154(8) 0.200(9) 0.268(11) -0.130(8) -0.016(8) -0.029(7)
C13B 0.181(9) 0.232(11) 0.279(13) -0.125(11) -0.011(9) -0.055(9)
C14B 0.199(10) 0.198(10) 0.238(11) -0.103(9) 0.019(9) -0.045(9)
N1C 0.145(5) 0.187(6) 0.134(5) -0.026(4) -0.013(4) -0.057(5)
C1C 0.170(8) 0.244(11) 0.155(8) -0.006(8) -0.014(7) -0.071(8)
C2C 0.181(8) 0.233(10) 0.153(8) -0.022(7) -0.017(6) -0.086(8)
C3C 0.169(7) 0.193(8) 0.133(6) -0.026(6) -0.014(6) -0.065(7)
C4C 0.153(7) 0.187(8) 0.159(8) -0.013(6) -0.017(6) -0.064(6)
C5C 0.166(7) 0.176(8) 0.150(7) -0.018(6) -0.034(6) -0.052(6)
N2C 0.157(6) 0.182(6) 0.157(6) -0.012(5) -0.015(5) -0.055(5)
C6C 0.140(6) 0.166(7) 0.160(7) -0.018(6) -0.018(6) -0.051(6)
N3C 0.149(5) 0.173(6) 0.161(6) -0.021(5) -0.024(5) -0.044(5)
C7C 0.167(8) 0.172(8) 0.157(8) -0.013(6) -0.022(6) -0.053(6)
N4C 0.162(6) 0.169(6) 0.153(6) -0.008(5) -0.027(5) -0.050(5)
C8C 0.163(7) 0.155(7) 0.139(7) -0.011(5) -0.019(6) -0.054(6)
C9C 0.197(9) 0.205(10) 0.180(9) 0.013(7) -0.032(7) -0.093(8)
N5C 0.161(6) 0.172(6) 0.152(6) -0.014(5) -0.024(5) -0.050(5)
C10C 0.187(9) 0.199(9) 0.149(8) 0.000(7) -0.021(7) -0.065(7)
C11C 0.162(7) 0.206(9) 0.150(7) -0.005(6) -0.025(6) -0.074(7)
C12C 0.162(7) 0.157(7) 0.146(7) -0.011(5) -0.017(6) -0.038(6)
C13C 0.163(7) 0.174(8) 0.151(7) -0.008(6) -0.025(6) -0.054(6)
C14C 0.164(7) 0.176(8) 0.146(7) 0.007(6) -0.016(6) -0.064(6)
N1D 0.150(6) 0.185(7) 0.169(6) -0.022(6) -0.028(5) -0.031(5)
C1D 0.169(9) 0.217(11) 0.162(8) 0.005(8) -0.002(7) -0.045(8)
C2D 0.167(9) 0.201(10) 0.185(9) 0.020(8) -0.010(7) -0.018(8)
C3D 0.156(8) 0.198(9) 0.199(10) 0.013(8) -0.008(8) -0.030(7)
C4D 0.183(10) 0.209(11) 0.196(10) 0.043(9) -0.019(9) -0.022(9)
C5D 0.175(9) 0.182(9) 0.179(9) 0.021(8) -0.008(7) -0.048(8)
N2D 0.195(12) 0.187(11) 0.188(11) 0.002(10) -0.008(11) -0.025(11)
C6D 0.193(13) 0.195(12) 0.200(13) 0.033(11) 0.001(12) -0.041(11)
N3D 0.206(14) 0.235(14) 0.240(16) 0.063(13) 0.023(13) -0.017(12)
C7D 0.216(19) 0.236(18) 0.29(2) 0.071(17) 0.041(17) 0.011(15)
N4D 0.238(15) 0.224(14) 0.266(17) 0.055(13) 0.012(14) 0.004(13)
C8D 0.211(13) 0.192(13) 0.229(14) 0.023(12) -0.016(13) -0.002(12)
C9D 0.27(3) 0.29(3) 0.26(3) 0.09(2) 0.03(2) 0.09(2)
N52D 0.198(17) 0.193(17) 0.194(17) 0.008(17) -0.002(16) -0.019(16)
C56D 0.205(17) 0.201(16) 0.213(17) 0.017(16) 0.012(16) -0.039(16)
N53D 0.22(2) 0.230(19) 0.24(2) 0.042(19) 0.024(18) -0.019(18)
C57D 0.23(2) 0.22(2) 0.25(2) 0.034(19) 0.03(2) 0.017(19)
N54D 0.233(19) 0.197(18) 0.26(2) 0.012(18) -0.020(18) -0.024(17)
C58D 0.210(16) 0.198(16) 0.228(17) 0.022(16) -0.012(16) -0.009(16)
C59D 0.30(4) 0.15(2) 0.32(5) 0.01(3) 0.05(4) 0.02(3)
N5D 0.205(8) 0.142(6) 0.181(7) -0.036(5) -0.069(6) 0.008(6)
C10D 0.225(11) 0.181(9) 0.157(8) -0.004(7) -0.029(8) -0.034(9)
C11D 0.173(9) 0.178(9) 0.192(10) -0.009(8) -0.026(8) -0.003(7)
C12D 0.185(9) 0.183(9) 0.196(9) 0.015(8) -0.002(8) -0.019(8)
C13D 0.224(12) 0.181(9) 0.225(12) 0.028(9) -0.013(10) 0.021(10)
C14D 0.187(10) 0.196(10) 0.199(10) 0.003(9) -0.012(9) 0.023(9)
N1E 0.180(6) 0.150(5) 0.150(6) -0.013(4) -0.039(5) -0.050(5)
C1E 0.236(11) 0.231(11) 0.149(8) 0.003(7) -0.050(8) -0.108(9)
C2E 0.236(11) 0.281(13) 0.152(9) -0.009(8) -0.052(8) -0.122(10)
C3E 0.202(9) 0.220(10) 0.155(8) -0.013(7) -0.026(7) -0.092(8)
C4E 0.199(9) 0.193(9) 0.152(7) -0.023(6) -0.048(7) -0.065(8)
C5E 0.179(8) 0.162(7) 0.157(8) -0.015(6) -0.055(7) -0.037(6)
N2E 0.236(18) 0.262(18) 0.166(16) -0.018(16) 0.004(16) -0.099(17)
C6E 0.240(17) 0.309(19) 0.159(16) -0.027(16) -0.020(16) -0.102(16)
N3E 0.29(2) 0.37(3) 0.20(2) -0.02(2) -0.03(2) -0.12(2)
C7E 0.26(2) 0.39(3) 0.18(2) -0.03(2) -0.03(2) -0.17(2)
N4E 0.25(2) 0.33(2) 0.172(18) -0.024(19) -0.033(17) -0.132(19)
C8E 0.209(16) 0.274(17) 0.149(15) -0.023(15) -0.025(15) -0.134(15)
C9E 0.32(5) 0.45(7) 0.23(4) -0.13(5) 0.01(4) -0.18(5)
N52E 0.198(10) 0.251(11) 0.157(9) -0.029(9) -0.050(8) -0.104(9)
C56E 0.219(13) 0.277(15) 0.149(11) -0.035(11) -0.030(10) -0.106(12)
N53E 0.257(14) 0.351(19) 0.158(10) -0.027(12) -0.023(10) -0.167(14)
C57E 0.288(19) 0.40(2) 0.165(14) -0.009(15) -0.038(14) -0.186(18)
N54E 0.244(13) 0.335(18) 0.166(11) -0.003(12) -0.035(10) -0.150(13)
C58E 0.224(13) 0.280(15) 0.154(12) -0.012(12) -0.001(11) -0.107(12)
C59E 0.35(3) 0.57(5) 0.159(16) -0.04(2) 0.002(19) -0.21(4)
N5E 0.161(6) 0.183(7) 0.166(7) 0.000(5) -0.026(5) -0.065(5)
C10E 0.217(10) 0.264(12) 0.165(8) -0.012(8) -0.034(8) -0.123(10)
C11E 0.225(11) 0.259(12) 0.171(10) 0.002(9) -0.019(8) -0.125(10)
C12E 0.202(9) 0.272(11) 0.142(8) -0.009(8) -0.027(7) -0.122(8)
C13E 0.260(13) 0.292(14) 0.156(8) -0.005(9) -0.034(9) -0.132(11)
C14E 0.214(10) 0.247(11) 0.162(9) 0.009(8) -0.039(8) -0.117(9)
N1F 0.194(7) 0.151(6) 0.139(5) -0.035(4) -0.033(5) -0.012(5)
C1F 0.209(9) 0.161(8) 0.164(8) -0.032(6) -0.058(7) 0.005(7)
C2F 0.222(10) 0.155(7) 0.159(7) -0.043(6) -0.074(7) 0.001(7)
C3F 0.177(8) 0.150(7) 0.146(7) -0.027(6) -0.034(6) -0.017(6)
C4F 0.178(7) 0.142(7) 0.150(7) -0.032(5) -0.044(6) -0.018(6)
C5F 0.174(8) 0.154(7) 0.150(7) -0.025(6) -0.040(6) 0.001(6)
N2F 0.191(7) 0.151(6) 0.145(5) -0.027(4) -0.051(5) -0.018(5)
C6F 0.168(7) 0.136(6) 0.149(7) -0.028(6) -0.037(6) -0.012(6)
N3F 0.177(6) 0.155(6) 0.145(5) -0.034(5) -0.039(5) -0.008(5)
C7F 0.159(7) 0.176(8) 0.148(7) -0.018(7) -0.030(6) -0.024(7)
N4F 0.177(7) 0.149(6) 0.161(6) -0.035(5) -0.036(5) -0.017(5)
C8F 0.172(8) 0.148(7) 0.142(6) -0.017(6) -0.038(6) -0.023(6)
C9F 0.219(11) 0.195(9) 0.193(9) -0.049(8) -0.087(8) 0.016(8)
N5F 0.211(7) 0.141(5) 0.127(5) -0.020(4) -0.042(5) -0.045(5)
C10F 0.266(12) 0.147(8) 0.167(8) -0.020(6) -0.078(8) -0.012(8)
C11F 0.276(12) 0.155(8) 0.153(7) -0.024(6) -0.078(8) -0.021(8)
C12F 0.198(8) 0.139(7) 0.146(7) -0.019(6) -0.038(6) -0.035(6)
C13F 0.193(8) 0.158(7) 0.137(6) -0.020(6) -0.054(6) -0.017(6)
C14F 0.189(8) 0.147(7) 0.145(7) -0.025(6) -0.039(6) -0.037(6)
N1G 0.204(7) 0.157(6) 0.159(6) -0.031(5) -0.055(5) -0.002(6)
C1G 0.264(12) 0.170(8) 0.205(10) -0.042(8) -0.116(9) -0.001(8)
C2G 0.273(13) 0.180(10) 0.216(11) -0.032(8) -0.122(9) -0.018(9)
C3G 0.276(12) 0.147(8) 0.194(9) -0.036(7) -0.108(8) -0.016(8)
C4G 0.292(14) 0.156(8) 0.213(11) -0.030(8) -0.106(10) -0.019(9)
C5G 0.247(12) 0.169(9) 0.197(10) -0.030(8) -0.096(8) -0.004(8)
N2G 0.242(12) 0.157(10) 0.192(11) -0.014(9) -0.098(9) -0.026(9)
C6G 0.329(16) 0.154(11) 0.181(12) 0.009(11) -0.101(12) -0.040(12)
N3G 0.365(19) 0.171(10) 0.225(13) -0.028(10) -0.146(13) -0.017(13)
C7G 0.39(2) 0.161(13) 0.270(18) -0.018(13) -0.186(17) -0.037(15)
N4G 0.327(17) 0.164(11) 0.263(13) -0.045(10) -0.141(13) -0.016(12)
C8G 0.307(15) 0.136(11) 0.223(13) -0.038(10) -0.079(13) -0.034(12)
C9G 0.62(5) 0.145(14) 0.41(4) -0.002(18) -0.32(4) -0.07(2)
N52G 0.291(18) 0.158(15) 0.186(16) -0.055(14) -0.098(15) -0.046(15)
C56G 0.326(18) 0.157(16) 0.213(17) 0.006(16) -0.101(16) -0.028(17)
N53G 0.38(3) 0.19(2) 0.25(2) -0.009(19) -0.11(2) -0.03(2)
C57G 0.37(2) 0.173(19) 0.26(2) -0.020(18) -0.15(2) -0.04(2)
N54G 0.35(2) 0.164(19) 0.26(2) -0.039(17) -0.103(19) -0.024(19)
C58G 0.290(17) 0.150(15) 0.206(15) -0.052(14) -0.122(14) -0.043(14)
C59G 0.44(6) 0.28(5) 0.36(6) 0.02(4) -0.23(5) -0.13(5)
N5G 0.152(5) 0.161(6) 0.175(6) -0.043(5) -0.031(4) -0.021(5)
C10G 0.254(12) 0.175(9) 0.213(10) -0.056(8) -0.104(9) -0.028(8)
C11G 0.278(13) 0.161(9) 0.226(11) -0.061(8) -0.101(10) -0.022(9)
C12G 0.246(10) 0.159(8) 0.192(9) -0.045(7) -0.087(8) -0.014(8)
C13G 0.227(10) 0.148(7) 0.189(9) -0.050(7) -0.068(8) -0.021(7)
C14G 0.184(8) 0.154(8) 0.177(9) -0.052(7) -0.035(7) -0.022(7)
N1H 0.157(6) 0.182(7) 0.202(8) -0.087(6) 0.027(6) -0.040(6)
C1H 0.197(10) 0.171(9) 0.195(10) -0.039(8) -0.011(9) -0.017(7)
C2H 0.189(10) 0.185(9) 0.161(8) -0.023(7) 0.011(7) -0.015(8)
C3H 0.182(9) 0.188(9) 0.171(9) -0.006(7) -0.009(8) -0.003(8)
C4H 0.168(9) 0.229(12) 0.193(10) -0.024(9) 0.010(8) 0.007(8)
C5H 0.177(10) 0.238(12) 0.190(10) -0.015(10) 0.029(8) -0.018(10)
N2H 0.192(12) 0.207(12) 0.169(13) -0.029(11) -0.013(11) -0.004(11)
C6H 0.187(13) 0.228(14) 0.175(13) -0.032(12) 0.003(12) 0.003(12)
N3H 0.203(14) 0.271(18) 0.206(14) -0.034(13) -0.015(12) -0.003(13)
C7H 0.201(18) 0.27(2) 0.225(19) 0.002(17) -0.009(15) 0.023(17)
N4H 0.212(16) 0.271(16) 0.248(16) 0.039(14) -0.007(13) 0.039(14)
C8H 0.207(15) 0.219(14) 0.204(15) -0.001(13) -0.002(14) 0.019(13)
C9H 0.21(3) 0.46(4) 0.27(3) 0.04(3) 0.02(2) 0.07(3)
N52H 0.192(16) 0.202(16) 0.167(16) -0.022(15) -0.027(14) -0.001(15)
C56H 0.190(16) 0.224(17) 0.185(17) -0.036(15) 0.006(15) 0.011(15)
N53H 0.22(2) 0.23(2) 0.230(19) -0.028(17) 0.019(17) 0.032(17)
C57H 0.21(2) 0.26(2) 0.22(2) -0.001(19) 0.013(19) 0.031(19)
N54H 0.21(2) 0.247(19) 0.198(18) 0.017(17) 0.014(17) 0.018(18)
C58H 0.192(16) 0.215(16) 0.163(15) 0.007(15) -0.022(14) 0.019(15)
C59H 0.19(3) 0.28(4) 0.26(4) 0.05(3) 0.00(3) 0.10(3)
N5H 0.194(7) 0.171(6) 0.130(5) -0.030(5) -0.022(5) -0.033(6)
C10H 0.201(10) 0.174(8) 0.151(8) -0.014(7) -0.017(7) 0.002(7)
C11H 0.202(10) 0.185(9) 0.164(9) -0.021(7) -0.016(8) 0.006(8)
C12H 0.217(10) 0.191(9) 0.143(7) -0.024(7) -0.014(7) -0.006(9)
C13H 0.202(10) 0.191(10) 0.182(10) -0.011(8) -0.008(9) 0.024(8)
C14H 0.215(11) 0.173(8) 0.161(8) -0.019(7) -0.028(8) 0.011(9)
N1I 0.157(5) 0.139(5) 0.187(6) -0.052(5) -0.023(5) -0.031(5)
C1I 0.176(9) 0.179(9) 0.250(12) -0.084(8) -0.002(8) -0.032(8)
C2I 0.163(8) 0.162(8) 0.257(11) -0.081(8) -0.009(8) -0.026(7)
C3I 0.157(7) 0.152(7) 0.182(8) -0.053(6) -0.015(6) -0.036(6)
C4I 0.174(8) 0.147(7) 0.181(8) -0.059(6) 0.004(6) -0.042(6)
C5I 0.168(8) 0.135(6) 0.177(7) -0.046(6) -0.015(6) -0.032(6)
N2I 0.150(6) 0.151(6) 0.187(7) -0.057(5) -0.006(5) -0.031(5)
C6I 0.157(7) 0.143(6) 0.166(7) -0.054(6) -0.008(6) -0.017(6)
N3I 0.179(7) 0.156(6) 0.170(6) -0.040(5) -0.015(5) -0.036(5)
C7I 0.173(8) 0.163(8) 0.158(7) -0.050(6) -0.002(6) -0.036(7)
N4I 0.180(6) 0.163(6) 0.162(6) -0.045(5) 0.001(5) -0.051(5)
C8I 0.153(7) 0.141(6) 0.158(7) -0.046(5) -0.003(6) -0.026(6)
C9I 0.205(9) 0.195(9) 0.203(10) -0.088(8) 0.010(8) -0.043(8)
N5I 0.166(6) 0.147(5) 0.173(6) -0.045(5) 0.001(5) -0.046(5)
C10I 0.172(8) 0.179(9) 0.199(9) -0.055(7) 0.015(7) -0.038(7)
C11I 0.154(7) 0.160(7) 0.213(9) -0.074(7) 0.000(6) -0.045(6)
C12I 0.161(7) 0.151(7) 0.159(7) -0.043(6) -0.002(6) -0.038(6)
C13I 0.155(7) 0.153(7) 0.165(7) -0.052(6) -0.003(6) -0.032(6)
C14I 0.172(7) 0.153(7) 0.170(7) -0.051(6) 0.016(6) -0.035(6)
N1J 0.152(5) 0.162(6) 0.190(7) -0.059(5) -0.020(5) -0.026(5)
C1J 0.200(10) 0.176(8) 0.208(10) -0.072(8) -0.014(8) -0.031(8)
C2J 0.152(8) 0.213(10) 0.218(10) -0.089(8) 0.021(7) -0.044(7)
C3J 0.146(7) 0.194(9) 0.238(11) -0.084(8) 0.022(7) -0.046(7)
C4J 0.161(8) 0.218(10) 0.253(12) -0.114(9) 0.015(8) -0.043(8)
C5J 0.181(9) 0.180(9) 0.260(12) -0.103(9) -0.010(9) -0.029(8)
N2J 0.174(7) 0.190(7) 0.215(8) -0.063(6) 0.021(6) -0.050(6)
C6J 0.204(10) 0.193(10) 0.263(12) -0.082(9) 0.011(9) -0.057(9)
N3J 0.201(9) 0.234(10) 0.363(14) -0.122(10) 0.051(9) -0.081(8)
C7J 0.253(14) 0.292(16) 0.404(19) -0.170(15) 0.082(14) -0.113(13)
N4J 0.232(10) 0.237(11) 0.367(15) -0.138(11) 0.094(10) -0.086(9)
C8J 0.192(10) 0.200(10) 0.259(12) -0.078(9) 0.010(9) -0.067(8)
C9J 0.46(3) 0.32(2) 0.56(3) -0.22(2) 0.18(3) -0.26(2)
N5J 0.163(6) 0.186(7) 0.149(5) -0.044(5) 0.017(5) -0.063(5)
C10J 0.165(8) 0.195(9) 0.205(9) -0.066(8) 0.010(7) -0.049(7)
C11J 0.173(8) 0.210(10) 0.221(10) -0.071(9) 0.029(8) -0.069(8)
C12J 0.172(9) 0.199(10) 0.215(10) -0.085(8) 0.041(7) -0.048(8)
C13J 0.166(8) 0.208(10) 0.238(11) -0.076(9) 0.041(8) -0.063(8)
C14J 0.173(8) 0.202(10) 0.212(10) -0.059(8) 0.029(7) -0.067(8)
N1K 0.182(7) 0.153(5) 0.135(6) 0.005(4) -0.043(5) -0.042(5)
C1K 0.196(10) 0.208(10) 0.173(9) -0.005(8) -0.047(8) -0.065(8)
C2K 0.210(10) 0.239(11) 0.148(8) 0.014(7) -0.056(8) -0.075(9)
C3K 0.183(9) 0.194(9) 0.158(8) 0.011(7) -0.022(7) -0.067(7)
C4K 0.206(10) 0.238(11) 0.160(9) 0.035(8) -0.059(8) -0.065(9)
C5K 0.213(11) 0.211(10) 0.147(8) 0.028(7) -0.033(8) -0.060(9)
N2K 0.180(7) 0.197(7) 0.165(7) 0.007(5) -0.037(5) -0.057(6)
C6K 0.217(11) 0.228(11) 0.179(9) 0.012(8) -0.062(8) -0.077(9)
N3K 0.253(11) 0.361(15) 0.213(10) 0.084(9) -0.088(9) -0.147(11)
C7K 0.282(16) 0.42(2) 0.218(13) 0.109(13) -0.070(12) -0.151(15)
N4K 0.241(11) 0.372(15) 0.209(10) 0.060(10) -0.059(8) -0.130(11)
C8K 0.192(10) 0.270(12) 0.187(10) -0.001(9) -0.043(8) -0.090(10)
C9K 0.272(18) 0.68(4) 0.37(3) 0.16(3) -0.184(19) -0.22(2)
N5K 0.172(6) 0.187(7) 0.140(5) -0.028(5) -0.007(5) -0.063(6)
C10K 0.201(9) 0.239(11) 0.163(9) -0.024(8) -0.030(7) -0.093(9)
C11K 0.218(10) 0.235(11) 0.137(7) 0.016(7) -0.029(7) -0.101(9)
C12K 0.189(9) 0.253(11) 0.133(7) 0.010(7) -0.032(7) -0.086(9)
C13K 0.196(9) 0.257(12) 0.171(9) 0.005(9) -0.038(8) -0.109(9)
C14K 0.182(9) 0.242(11) 0.147(8) 0.000(7) -0.015(7) -0.095(8)
N1L 0.167(6) 0.147(6) 0.176(6) -0.057(5) -0.030(5) -0.008(5)
C1L 0.224(11) 0.160(8) 0.190(9) -0.056(7) -0.067(8) 0.006(8)
C2L 0.244(12) 0.150(8) 0.214(11) -0.049(8) -0.075(9) 0.001(8)
C3L 0.204(10) 0.169(9) 0.186(9) -0.028(7) -0.062(7) 0.005(8)
C4L 0.259(12) 0.151(8) 0.216(11) -0.065(8) -0.077(9) 0.038(8)
C5L 0.241(12) 0.150(8) 0.192(10) -0.049(8) -0.039(9) 0.011(8)
N2L 0.217(8) 0.153(6) 0.185(7) -0.038(5) -0.052(6) -0.012(6)
C6L 0.228(11) 0.186(10) 0.201(10) -0.069(8) -0.055(9) 0.012(9)
N3L 0.342(14) 0.225(10) 0.233(10) -0.089(9) -0.115(10) 0.075(10)
C7L 0.42(2) 0.224(13) 0.271(16) -0.077(12) -0.140(15) 0.083(14)
N4L 0.366(15) 0.230(10) 0.234(10) -0.086(9) -0.127(10) 0.069(10)
C8L 0.261(12) 0.177(9) 0.195(10) -0.042(8) -0.086(9) 0.001(9)
C9L 0.64(4) 0.34(2) 0.287(19) -0.183(18) -0.25(2) 0.18(2)
N5L 0.204(7) 0.138(5) 0.163(6) -0.006(5) -0.058(6) -0.032(5)
C10L 0.235(11) 0.167(9) 0.178(9) -0.033(7) -0.063(8) -0.027(8)
C11L 0.252(12) 0.154(8) 0.198(10) -0.034(7) -0.089(9) 0.001(8)
C12L 0.260(12) 0.149(7) 0.176(8) -0.044(7) -0.078(8) 0.001(8)
C13L 0.286(14) 0.166(9) 0.212(10) -0.040(8) -0.118(10) 0.010(9)
C14L 0.260(12) 0.164(8) 0.176(8) -0.035(7) -0.093(8) 0.001(8)
N1M 0.144(5) 0.132(5) 0.143(5) -0.025(4) 0.003(4) -0.037(4)
C1M 0.168(8) 0.155(7) 0.173(8) -0.054(6) 0.000(6) -0.033(6)
C2M 0.135(6) 0.154(7) 0.193(8) -0.060(6) -0.011(6) -0.033(5)
C3M 0.153(7) 0.122(5) 0.166(7) -0.038(5) -0.011(5) -0.029(5)
C4M 0.140(7) 0.150(7) 0.187(8) -0.047(6) -0.011(6) -0.026(6)
C5M 0.149(6) 0.146(6) 0.181(8) -0.046(6) -0.008(6) -0.026(6)
N2M 0.143(5) 0.136(5) 0.180(6) -0.041(4) -0.016(5) -0.024(5)
C6M 0.152(7) 0.134(6) 0.162(7) -0.032(5) -0.019(6) -0.020(6)
N3M 0.157(5) 0.141(5) 0.192(7) -0.047(5) -0.022(5) -0.021(5)
C7M 0.145(7) 0.141(7) 0.205(9) -0.050(6) -0.026(6) -0.020(6)
N4M 0.167(6) 0.139(5) 0.187(6) -0.046(5) -0.021(5) -0.026(5)
C8M 0.171(8) 0.129(6) 0.161(7) -0.038(5) -0.018(6) -0.028(6)
C9M 0.208(10) 0.197(10) 0.274(13) -0.132(10) 0.004(9) -0.037(8)
N5M 0.149(5) 0.140(5) 0.163(5) -0.040(4) -0.031(4) -0.020(5)
C10M 0.148(7) 0.143(6) 0.219(9) -0.066(6) -0.023(7) -0.026(6)
C11M 0.163(8) 0.148(7) 0.227(10) -0.072(7) -0.014(7) -0.033(6)
C12M 0.147(6) 0.132(6) 0.171(7) -0.044(5) -0.025(5) -0.031(5)
C13M 0.169(8) 0.172(8) 0.183(8) -0.077(6) -0.018(7) -0.028(7)
C14M 0.147(7) 0.165(7) 0.196(8) -0.069(7) -0.012(6) -0.035(6)
N1N 0.137(5) 0.142(5) 0.134(5) -0.011(4) -0.017(4) -0.013(4)
C1N 0.171(8) 0.149(7) 0.160(7) 0.008(6) 0.002(6) -0.005(6)
C2N 0.193(9) 0.158(8) 0.153(7) -0.002(6) 0.007(7) -0.015(7)
C3N 0.167(7) 0.145(6) 0.130(6) -0.005(5) 0.001(5) -0.014(6)
C4N 0.194(9) 0.160(7) 0.153(7) -0.007(6) 0.030(6) 0.007(7)
C5N 0.178(8) 0.176(8) 0.145(7) -0.002(6) 0.015(6) -0.009(7)
N2N 0.175(6) 0.134(5) 0.140(5) -0.011(4) -0.004(4) -0.012(5)
C6N 0.174(8) 0.151(7) 0.143(7) -0.018(6) -0.004(6) -0.003(6)
N3N 0.223(8) 0.167(7) 0.156(6) -0.010(5) 0.028(6) 0.017(6)
C7N 0.246(12) 0.192(10) 0.169(9) -0.034(8) 0.039(9) 0.015(9)
N4N 0.209(8) 0.160(6) 0.148(6) -0.006(5) 0.019(6) 0.016(5)
C8N 0.179(8) 0.137(6) 0.144(7) -0.030(6) -0.003(6) -0.017(6)
C9N 0.43(2) 0.280(16) 0.179(11) 0.006(11) 0.091(13) 0.134(17)
N5N 0.148(5) 0.120(4) 0.155(5) -0.025(4) -0.009(5) -0.027(4)
C10N 0.173(8) 0.137(6) 0.150(7) -0.016(6) -0.005(6) -0.035(6)
C11N 0.152(7) 0.134(6) 0.163(7) -0.017(6) -0.012(6) -0.013(5)
C12N 0.163(7) 0.123(5) 0.139(6) -0.019(5) -0.015(6) -0.023(5)
C13N 0.155(7) 0.141(6) 0.156(7) -0.034(6) 0.002(6) -0.010(6)
C14N 0.155(7) 0.139(6) 0.132(6) -0.021(5) -0.002(5) -0.011(5)
N1O 0.142(5) 0.133(5) 0.166(5) -0.033(4) -0.014(4) -0.029(4)
C1O 0.147(6) 0.153(7) 0.219(9) -0.067(7) -0.005(6) -0.032(6)
C2O 0.136(7) 0.159(7) 0.224(9) -0.061(7) -0.011(7) -0.022(6)
C3O 0.148(7) 0.146(7) 0.238(10) -0.064(7) -0.044(7) -0.026(6)
C4O 0.148(7) 0.186(9) 0.256(11) -0.077(9) -0.021(7) -0.032(7)
C5O 0.154(8) 0.155(7) 0.222(10) -0.068(7) -0.032(7) -0.023(7)
N2O 0.161(6) 0.169(6) 0.230(8) -0.069(6) -0.025(5) -0.043(5)
C6O 0.148(8) 0.184(9) 0.247(11) -0.066(8) -0.021(7) -0.020(7)
N3O 0.179(8) 0.222(10) 0.408(15) -0.151(10) -0.091(9) -0.001(7)
C7O 0.218(13) 0.234(13) 0.50(2) -0.193(14) -0.101(14) 0.020(11)
N4O 0.191(9) 0.227(10) 0.444(17) -0.145(11) -0.081(10) -0.025(8)
C8O 0.135(7) 0.217(11) 0.300(13) -0.086(10) -0.045(8) -0.035(8)
C9O 0.158(10) 0.32(2) 0.72(4) -0.27(2) -0.149(18) 0.039(12)
N5O 0.150(6) 0.164(6) 0.156(5) -0.038(4) -0.016(4) -0.041(5)
C10O 0.144(6) 0.170(8) 0.217(9) -0.060(7) -0.016(6) -0.048(7)
C11O 0.161(8) 0.158(8) 0.239(10) -0.066(7) -0.022(7) -0.040(7)
C12O 0.140(7) 0.149(7) 0.247(10) -0.075(7) -0.035(7) -0.026(6)
C13O 0.150(7) 0.182(9) 0.269(12) -0.074(9) -0.037(7) -0.041(7)
C14O 0.143(8) 0.182(9) 0.256(11) -0.074(8) -0.023(7) -0.044(7)
N1P 0.145(5) 0.160(5) 0.130(5) -0.033(4) -0.004(4) -0.053(4)
C1P 0.170(7) 0.219(9) 0.133(7) -0.027(6) -0.016(6) -0.083(7)
C2P 0.160(7) 0.243(11) 0.165(8) -0.030(7) -0.024(6) -0.093(7)
C3P 0.147(6) 0.175(7) 0.135(6) -0.033(5) -0.018(5) -0.047(6)
C4P 0.175(7) 0.200(9) 0.152(7) -0.024(6) -0.017(6) -0.089(7)
C5P 0.182(8) 0.199(9) 0.139(7) -0.028(6) -0.028(6) -0.067(7)
N2P 0.144(5) 0.182(6) 0.132(5) -0.025(4) -0.010(4) -0.053(5)
C6P 0.141(6) 0.162(7) 0.143(7) -0.032(5) -0.007(5) -0.038(5)
N3P 0.147(5) 0.183(6) 0.154(6) -0.031(5) -0.006(5) -0.046(5)
C7P 0.142(6) 0.191(8) 0.150(7) -0.027(6) -0.013(6) -0.045(6)
N4P 0.151(5) 0.184(6) 0.145(5) -0.014(5) -0.014(5) -0.048(5)
C8P 0.150(7) 0.155(6) 0.141(7) -0.017(5) -0.021(6) -0.035(6)
C9P 0.202(10) 0.239(12) 0.178(9) -0.017(8) -0.003(7) -0.109(9)
N5P 0.133(5) 0.149(5) 0.134(5) -0.008(4) -0.020(4) -0.031(4)
C10P 0.175(8) 0.185(8) 0.136(7) -0.010(6) -0.021(6) -0.066(6)
C11P 0.168(7) 0.184(8) 0.136(6) -0.008(6) -0.026(6) -0.060(7)
C12P 0.135(6) 0.156(6) 0.148(7) -0.015(5) -0.015(5) -0.038(5)
C13P 0.155(7) 0.182(8) 0.136(7) -0.016(6) -0.021(5) -0.046(6)
C14P 0.153(7) 0.186(8) 0.134(6) -0.012(6) -0.014(5) -0.051(6)
N1Q 0.142(5) 0.165(5) 0.129(5) -0.014(4) -0.020(4) -0.042(4)
C1Q 0.165(7) 0.214(9) 0.134(6) -0.022(6) -0.016(6) -0.064(7)
C2Q 0.171(7) 0.221(9) 0.131(7) -0.024(6) -0.009(6) -0.075(7)
C3Q 0.165(7) 0.234(9) 0.132(7) -0.038(6) -0.021(6) -0.070(7)
C4Q 0.192(9) 0.264(12) 0.131(7) -0.027(7) -0.003(7) -0.072(9)
C5Q 0.171(7) 0.231(10) 0.136(7) -0.041(7) -0.015(6) -0.081(7)
N2Q 0.156(14) 0.235(15) 0.143(13) -0.067(12) -0.042(10) -0.051(13)
C6Q 0.197(15) 0.260(16) 0.135(14) -0.028(14) -0.007(14) -0.066(14)
N3Q 0.209(15) 0.31(2) 0.133(12) -0.042(14) -0.016(12) -0.082(15)
C7Q 0.199(18) 0.34(2) 0.153(15) -0.075(17) -0.006(15) -0.095(18)
N4Q 0.206(16) 0.30(2) 0.153(14) -0.081(15) -0.010(14) -0.075(16)
C8Q 0.188(14) 0.261(15) 0.130(12) -0.064(12) -0.035(12) -0.083(13)
C9Q 0.27(4) 0.50(6) 0.15(2) -0.02(4) -0.03(2) -0.17(4)
N52Q 0.151(11) 0.222(13) 0.138(10) -0.017(10) -0.011(9) -0.059(10)
C56Q 0.172(12) 0.254(14) 0.132(11) -0.031(11) 0.004(11) -0.090(11)
N53Q 0.190(12) 0.315(19) 0.150(13) -0.059(13) -0.015(10) -0.091(13)
C57Q 0.189(15) 0.33(2) 0.159(13) -0.072(15) -0.008(12) -0.094(16)
N54Q 0.204(13) 0.297(18) 0.150(10) -0.093(11) 0.004(10) -0.081(12)
C58Q 0.205(13) 0.265(14) 0.133(12) -0.047(12) -0.029(11) -0.074(12)
C59Q 0.24(3) 0.52(5) 0.141(18) -0.14(3) 0.032(16) -0.16(3)
N5Q 0.175(6) 0.158(5) 0.134(5) -0.020(4) -0.031(4) -0.050(5)
C10Q 0.198(9) 0.213(9) 0.140(7) -0.016(6) -0.043(7) -0.080(8)
C11Q 0.175(8) 0.223(10) 0.143(7) -0.029(7) -0.031(6) -0.070(7)
C12Q 0.169(7) 0.220(9) 0.136(7) -0.037(6) -0.017(6) -0.069(7)
C13Q 0.175(8) 0.248(11) 0.132(6) -0.035(7) -0.031(6) -0.066(8)
C14Q 0.202(10) 0.238(11) 0.133(7) -0.031(7) -0.030(7) -0.080(8)
N1R 0.152(5) 0.141(5) 0.125(4) -0.019(4) -0.006(4) -0.019(5)
C1R 0.165(8) 0.150(7) 0.165(7) -0.003(6) 0.014(6) 0.002(7)
C2R 0.171(8) 0.151(7) 0.175(8) -0.008(7) -0.007(7) -0.011(6)
C3R 0.147(7) 0.130(6) 0.151(6) -0.006(5) -0.010(5) -0.010(5)
C4R 0.180(9) 0.156(8) 0.168(8) 0.010(6) 0.010(7) -0.025(7)
C5R 0.167(8) 0.143(7) 0.160(7) -0.004(6) 0.009(6) -0.007(6)
N2R 0.156(6) 0.134(5) 0.163(6) -0.008(4) 0.001(5) -0.014(5)
C6R 0.170(8) 0.145(7) 0.173(8) -0.008(6) 0.031(6) -0.030(6)
N3R 0.188(7) 0.153(6) 0.199(8) 0.003(6) 0.039(6) -0.007(5)
C7R 0.219(11) 0.160(9) 0.225(11) 0.021(8) 0.035(10) -0.013(9)
N4R 0.179(7) 0.153(6) 0.210(8) 0.010(6) 0.037(6) -0.019(6)
C8R 0.149(7) 0.154(7) 0.167(7) -0.007(6) -0.002(6) -0.035(6)
C9R 0.277(15) 0.177(10) 0.338(19) 0.047(11) 0.130(14) -0.031(10)
N5R 0.141(5) 0.157(5) 0.111(4) -0.014(4) -0.003(4) -0.044(4)
C10R 0.163(7) 0.146(7) 0.141(7) -0.013(5) -0.009(6) -0.022(6)
C11R 0.154(7) 0.160(7) 0.132(6) -0.010(6) 0.000(5) -0.025(6)
C12R 0.127(6) 0.135(6) 0.159(7) -0.015(5) -0.013(5) -0.020(5)
C13R 0.139(6) 0.157(7) 0.155(7) -0.015(6) 0.006(6) -0.035(6)
C14R 0.134(6) 0.147(7) 0.161(7) -0.028(6) -0.003(5) -0.024(6)
N1S 0.164(5) 0.137(5) 0.124(5) -0.023(4) -0.026(4) -0.025(4)
C1S 0.236(10) 0.143(6) 0.147(7) -0.030(6) -0.061(7) -0.028(7)
C2S 0.240(10) 0.141(7) 0.148(7) -0.009(6) -0.055(7) -0.032(7)
C3S 0.247(10) 0.136(7) 0.144(7) -0.020(6) -0.060(6) -0.044(6)
C4S 0.261(11) 0.128(6) 0.172(8) -0.003(6) -0.061(8) -0.034(7)
C5S 0.225(9) 0.132(7) 0.153(7) -0.024(6) -0.056(6) -0.036(6)
N2S 0.279(17) 0.136(15) 0.176(17) -0.051(13) -0.077(16) -0.082(15)
C6S 0.300(18) 0.138(16) 0.194(16) -0.022(16) -0.073(16) -0.049(17)
N3S 0.34(2) 0.161(17) 0.225(18) -0.011(16) -0.090(18) -0.050(18)
C7S 0.36(2) 0.151(18) 0.17(2) -0.023(17) -0.093(19) -0.06(2)
N4S 0.36(2) 0.152(17) 0.181(18) -0.018(17) -0.064(19) -0.067(19)
C8S 0.304(18) 0.133(15) 0.169(16) -0.030(14) -0.077(15) -0.072(15)
C9S 0.35(6) 0.23(5) 0.28(6) -0.04(4) -0.12(5) 0.05(5)
N52S 0.269(11) 0.149(9) 0.142(9) -0.013(7) -0.059(8) -0.051(9)
C56S 0.297(13) 0.119(8) 0.174(10) 0.003(8) -0.098(10) -0.034(9)
N53S 0.334(17) 0.156(10) 0.203(11) -0.011(8) -0.110(11) -0.072(10)
C57S 0.39(2) 0.159(11) 0.183(13) -0.025(10) -0.081(14) -0.084(13)
N54S 0.356(17) 0.160(9) 0.170(10) -0.012(8) -0.072(11) -0.087(11)
C58S 0.302(14) 0.135(9) 0.182(11) -0.031(9) -0.065(10) -0.074(9)
C59S 0.52(4) 0.129(11) 0.24(2) 0.018(12) -0.16(3) -0.098(16)
N5S 0.166(6) 0.141(5) 0.157(5) -0.032(4) -0.034(4) -0.024(4)
C10S 0.237(10) 0.132(6) 0.166(8) -0.046(6) -0.073(7) -0.016(6)
C11S 0.254(11) 0.147(8) 0.159(8) -0.037(6) -0.059(7) -0.040(7)
C12S 0.258(10) 0.134(7) 0.153(7) -0.025(6) -0.072(7) -0.042(6)
C13S 0.281(12) 0.134(6) 0.168(8) -0.031(6) -0.078(8) -0.042(7)
C14S 0.255(11) 0.138(7) 0.186(9) -0.038(7) -0.052(8) -0.049(7)
N1T 0.166(6) 0.124(4) 0.121(4) -0.009(4) -0.025(4) -0.020(4)
C1T 0.165(7) 0.141(6) 0.143(6) -0.020(6) -0.012(6) -0.020(5)
C2T 0.166(7) 0.144(6) 0.130(6) -0.007(5) -0.003(6) -0.009(6)
C3T 0.152(7) 0.165(7) 0.121(6) -0.021(5) -0.009(5) -0.028(6)
C4T 0.167(8) 0.154(7) 0.134(6) 0.006(6) -0.023(6) -0.024(6)
C5T 0.157(7) 0.151(7) 0.137(6) -0.004(5) -0.018(6) -0.025(6)
N2T 0.150(6) 0.173(6) 0.133(5) -0.010(5) -0.003(4) -0.015(5)
C6T 0.155(8) 0.177(8) 0.137(7) -0.011(6) -0.027(6) -0.016(7)
N3T 0.164(7) 0.222(8) 0.164(7) 0.025(6) -0.010(6) 0.003(7)
C7T 0.190(10) 0.247(12) 0.179(10) 0.040(9) -0.006(8) 0.013(10)
N4T 0.184(8) 0.210(8) 0.155(6) 0.015(6) 0.007(5) -0.013(7)
C8T 0.170(8) 0.156(7) 0.142(7) 0.002(6) -0.017(6) -0.009(7)
C9T 0.167(11) 0.40(2) 0.317(18) 0.162(16) 0.014(11) 0.115(13)
N5T 0.160(6) 0.127(5) 0.140(5) -0.011(4) -0.009(4) -0.037(4)
C10T 0.158(7) 0.158(7) 0.152(7) 0.005(6) 0.018(6) -0.005(6)
C11T 0.172(8) 0.169(8) 0.156(8) -0.013(6) 0.012(6) -0.014(7)
C12T 0.153(7) 0.150(7) 0.141(6) -0.014(5) 0.003(6) -0.004(6)
C13T 0.166(8) 0.167(7) 0.159(7) 0.002(6) 0.002(6) -0.009(6)
C14T 0.167(8) 0.167(8) 0.163(8) -0.005(7) 0.003(6) -0.005(7)
N1U 0.167(6) 0.129(5) 0.122(4) -0.023(4) -0.022(4) -0.019(4)
C1U 0.191(8) 0.141(7) 0.149(7) -0.031(5) -0.050(6) -0.015(6)
C2U 0.194(8) 0.134(6) 0.155(7) -0.026(6) -0.039(6) -0.011(6)
C3U 0.165(7) 0.150(7) 0.127(6) -0.025(5) -0.030(5) -0.022(6)
C4U 0.195(8) 0.139(7) 0.136(6) -0.016(5) -0.041(6) -0.021(6)
C5U 0.186(8) 0.139(6) 0.139(6) -0.023(5) -0.030(6) -0.022(6)
N2U 0.182(6) 0.128(5) 0.135(5) -0.020(4) -0.042(4) -0.015(4)
C6U 0.181(8) 0.164(8) 0.131(6) -0.026(6) -0.027(5) -0.035(6)
N3U 0.225(8) 0.144(5) 0.139(5) -0.019(5) -0.048(5) -0.029(5)
C7U 0.225(9) 0.152(7) 0.133(6) -0.019(6) -0.045(6) -0.041(7)
N4U 0.194(7) 0.162(6) 0.134(5) -0.024(5) -0.032(5) -0.035(5)
C8U 0.166(7) 0.144(7) 0.126(6) -0.021(5) -0.028(5) -0.025(5)
C9U 0.275(14) 0.183(9) 0.196(10) -0.009(7) -0.119(10) -0.009(9)
N5U 0.196(6) 0.134(5) 0.126(5) -0.008(4) -0.037(4) -0.048(5)
C10U 0.228(9) 0.146(7) 0.147(7) -0.020(6) -0.063(6) -0.044(7)
C11U 0.230(10) 0.158(8) 0.144(7) -0.030(6) -0.065(7) -0.038(7)
C12U 0.186(7) 0.139(6) 0.121(5) -0.026(5) -0.030(5) -0.040(6)
C13U 0.193(8) 0.167(8) 0.171(8) -0.026(7) -0.074(6) -0.017(7)
C14U 0.208(9) 0.144(7) 0.153(7) -0.025(6) -0.054(7) -0.031(6)
N1V 0.167(6) 0.142(5) 0.125(5) -0.006(4) -0.032(4) -0.038(4)
C1V 0.186(8) 0.199(9) 0.143(8) -0.012(6) -0.028(6) -0.078(7)
C2V 0.205(9) 0.225(10) 0.128(6) -0.011(6) -0.036(7) -0.081(8)
C3V 0.166(7) 0.204(9) 0.147(7) 0.015(6) -0.027(6) -0.065(7)
C4V 0.220(10) 0.260(12) 0.130(7) 0.012(7) -0.053(7) -0.094(9)
C5V 0.191(9) 0.215(10) 0.129(6) 0.012(6) -0.029(7) -0.063(8)
N2V 0.203(16) 0.211(17) 0.121(12) -0.006(12) -0.043(13) -0.059(14)
C6V 0.185(14) 0.239(17) 0.131(13) 0.018(13) -0.040(12) -0.083(14)
N3V 0.159(16) 0.30(2) 0.153(13) 0.009(14) -0.049(11) -0.075(16)
C7V 0.206(19) 0.30(2) 0.189(16) 0.011(19) -0.063(16) -0.103(18)
N4V 0.208(15) 0.27(2) 0.178(14) -0.020(15) -0.053(13) -0.102(15)
C8V 0.187(15) 0.244(18) 0.172(15) -0.012(14) -0.016(14) -0.078(14)
C9V 0.25(4) 0.37(5) 0.22(3) -0.03(3) -0.11(3) -0.13(3)
N52V 0.177(11) 0.213(13) 0.168(13) 0.004(12) -0.023(11) -0.089(10)
C56V 0.196(14) 0.233(16) 0.158(12) 0.010(12) -0.027(12) -0.047(13)
N53V 0.179(14) 0.30(2) 0.163(11) 0.005(12) -0.053(10) -0.058(14)
C57V 0.199(16) 0.29(2) 0.176(14) 0.009(15) -0.047(13) -0.101(16)
N54V 0.192(13) 0.30(2) 0.173(12) -0.001(13) -0.029(10) -0.107(14)
C58V 0.174(12) 0.254(17) 0.163(12) 0.011(11) -0.039(11) -0.092(13)
C59V 0.18(2) 0.38(4) 0.21(2) 0.01(3) -0.079(17) -0.04(2)
N5V 0.149(5) 0.172(6) 0.153(5) -0.035(4) -0.018(5) -0.050(5)
C10V 0.178(8) 0.192(8) 0.141(7) -0.021(6) -0.007(6) -0.070(7)
C11V 0.180(8) 0.222(10) 0.162(8) -0.014(7) -0.015(7) -0.093(8)
C12V 0.188(8) 0.214(9) 0.134(7) -0.003(6) -0.023(7) -0.072(7)
C13V 0.161(8) 0.282(12) 0.152(8) 0.010(8) -0.019(6) -0.099(8)
C14V 0.172(8) 0.259(12) 0.159(9) -0.019(8) -0.004(7) -0.079(8)
N1W 0.190(6) 0.157(5) 0.141(5) -0.023(5) -0.035(5) -0.047(5)
C1W 0.231(10) 0.136(7) 0.159(7) -0.009(6) -0.076(7) -0.030(7)
C2W 0.221(10) 0.167(8) 0.160(8) -0.019(7) -0.074(7) -0.026(7)
C3W 0.240(10) 0.135(6) 0.170(8) -0.027(6) -0.054(7) -0.012(7)
C4W 0.322(14) 0.143(7) 0.157(8) -0.027(6) -0.105(9) 0.002(8)
C5W 0.314(14) 0.170(9) 0.145(8) -0.020(7) -0.066(8) -0.031(9)
N2W 0.244(18) 0.167(17) 0.162(16) -0.043(15) -0.067(16) -0.027(17)
C6W 0.276(18) 0.153(16) 0.172(17) -0.045(16) -0.082(16) -0.009(16)
N3W 0.32(2) 0.181(18) 0.21(2) -0.056(18) -0.101(19) -0.006(19)
C7W 0.34(3) 0.19(2) 0.22(2) -0.08(2) -0.12(2) 0.02(2)
N4W 0.34(3) 0.18(2) 0.21(2) -0.045(19) -0.08(2) 0.01(2)
C8W 0.269(18) 0.161(16) 0.189(17) -0.052(16) -0.073(16) -0.019(16)
C9W 0.48(7) 0.24(5) 0.36(7) -0.09(5) -0.11(6) 0.04(6)
N52W 0.225(10) 0.135(7) 0.169(9) -0.039(7) -0.052(8) -0.001(7)
C56W 0.284(14) 0.187(12) 0.173(11) -0.042(10) -0.085(11) -0.009(11)
N53W 0.335(17) 0.173(9) 0.184(11) -0.054(8) -0.100(11) 0.018(10)
C57W 0.36(2) 0.169(12) 0.219(15) -0.061(11) -0.147(14) 0.045(14)
N54W 0.361(18) 0.153(8) 0.181(10) -0.069(8) -0.070(12) -0.006(10)
C58W 0.237(13) 0.147(10) 0.184(11) -0.048(9) -0.044(10) -0.025(10)
C59W 0.58(4) 0.207(16) 0.223(19) -0.114(15) -0.19(2) 0.05(2)
N5W 0.161(5) 0.125(5) 0.160(6) -0.036(4) -0.032(4) -0.014(4)
C10W 0.212(9) 0.156(8) 0.168(8) -0.036(6) -0.050(7) -0.026(7)
C11W 0.239(10) 0.133(6) 0.173(8) -0.034(6) -0.067(8) -0.014(7)
C12W 0.240(10) 0.152(8) 0.146(7) -0.026(6) -0.055(7) -0.003(7)
C13W 0.275(12) 0.130(7) 0.189(9) -0.047(6) -0.086(9) 0.015(7)
C14W 0.242(11) 0.131(6) 0.170(8) -0.033(7) -0.047(8) 0.000(7)
N1X 0.165(6) 0.134(5) 0.169(6) -0.042(4) -0.022(4) -0.040(5)
C1X 0.151(7) 0.156(7) 0.205(9) -0.070(7) -0.010(7) -0.021(6)
C2X 0.177(9) 0.154(7) 0.234(10) -0.089(7) -0.011(8) -0.026(7)
C3X 0.141(7) 0.181(8) 0.233(10) -0.072(8) -0.001(7) -0.028(7)
C4X 0.169(8) 0.171(8) 0.304(13) -0.113(9) 0.003(9) -0.028(7)
C5X 0.178(9) 0.159(8) 0.260(12) -0.075(8) 0.015(9) -0.011(8)
N2X 0.137(13) 0.179(15) 0.218(16) -0.064(14) -0.004(13) -0.049(13)
C6X 0.177(14) 0.178(14) 0.250(18) -0.091(14) -0.005(14) -0.033(14)
N3X 0.184(14) 0.200(15) 0.28(2) -0.116(15) 0.006(15) -0.058(13)
C7X 0.182(15) 0.186(18) 0.31(2) -0.090(18) 0.013(18) -0.071(15)
N4X 0.168(13) 0.167(16) 0.29(2) -0.088(16) 0.028(14) -0.076(11)
C8X 0.163(14) 0.176(14) 0.230(17) -0.068(14) 0.028(14) -0.059(13)
C9X 0.20(2) 0.20(3) 0.47(5) -0.14(3) -0.03(4) -0.07(2)
N52X 0.171(13) 0.159(11) 0.214(13) -0.070(10) 0.002(12) -0.037(11)
C56X 0.178(13) 0.163(12) 0.258(17) -0.101(12) 0.010(12) -0.040(11)
N53X 0.172(12) 0.195(13) 0.29(2) -0.098(14) 0.010(13) -0.041(11)
C57X 0.195(15) 0.195(16) 0.31(2) -0.096(16) 0.008(16) -0.052(14)
N54X 0.183(12) 0.177(14) 0.32(2) -0.057(15) 0.024(13) -0.066(11)
C58X 0.183(13) 0.185(13) 0.236(16) -0.046(13) 0.012(13) -0.057(12)
C59X 0.22(2) 0.20(3) 0.45(5) -0.08(3) -0.01(3) -0.08(2)
N5X 0.146(6) 0.164(6) 0.145(5) -0.038(4) 0.005(4) -0.046(5)
C10X 0.158(8) 0.175(9) 0.200(9) -0.057(7) -0.004(7) -0.044(7)
C11X 0.152(7) 0.180(9) 0.220(10) -0.075(8) -0.002(7) -0.046(7)
C12X 0.162(8) 0.159(7) 0.213(9) -0.062(7) 0.026(7) -0.045(7)
C13X 0.148(8) 0.185(9) 0.274(12) -0.088(9) 0.014(8) -0.050(7)
C14X 0.149(7) 0.177(9) 0.219(10) -0.056(8) 0.018(7) -0.046(7)
Pd1 0.1845(6) 0.1332(5) 0.1455(5) -0.0082(4) -0.0385(4) -0.0390(4)
Pd2 0.1798(6) 0.1568(5) 0.1414(5) -0.0304(4) -0.0390(4) -0.0127(5)
Pd3 0.1555(6) 0.1701(6) 0.1534(5) -0.0063(4) -0.0238(4) -0.0525(5)
Pd4 0.1673(6) 0.1442(5) 0.1659(6) -0.0454(4) 0.0005(4) -0.0370(4)
Pd5 0.1595(5) 0.1730(6) 0.1309(5) -0.0335(4) -0.0013(4) -0.0511(4)
Pd6 0.1448(5) 0.1472(5) 0.1710(6) -0.0449(4) -0.0263(4) -0.0148(4)
Pd7 0.1451(5) 0.1560(5) 0.1360(5) -0.0347(4) -0.0066(4) -0.0436(4)
Pd8 0.1435(5) 0.1225(4) 0.1401(5) -0.0199(3) -0.0087(3) -0.0304(3)
Pd9 0.1325(4) 0.1431(5) 0.1304(4) -0.0156(3) -0.0180(3) -0.0255(4)
Pd10 0.1536(5) 0.1334(4) 0.1191(4) -0.0251(3) -0.0128(3) -0.0209(4)
Pd11 0.1673(5) 0.1388(5) 0.1308(4) -0.0141(3) -0.0306(4) -0.0403(4)
Pd12 0.1495(5) 0.1345(5) 0.1531(5) -0.0375(4) -0.0276(4) -0.0193(4)
B11 0.194(10) 0.176(9) 0.112(6) -0.015(6) -0.097(7) -0.032(8)
F11 0.311(10) 0.273(8) 0.228(7) -0.021(6) -0.096(7) -0.056(7)
F12 0.44(4) 0.48(4) 0.49(4) 0.09(4) -0.10(3) -0.03(4)
F13 0.51(4) 0.38(4) 0.44(3) -0.03(3) -0.02(3) 0.04(3)
F14 0.37(4) 0.57(4) 0.48(4) -0.20(3) -0.03(3) -0.07(3)
F16 0.32(3) 0.54(4) 0.41(4) 0.03(3) -0.02(3) 0.06(3)
F17 0.51(4) 0.42(4) 0.43(4) -0.05(3) -0.11(3) -0.21(3)
F18 0.47(4) 0.42(4) 0.52(4) -0.06(4) -0.18(3) 0.11(3)
B21 0.396(13) 0.307(12) 0.433(13) 0.015(9) -0.269(10) -0.051(10)
F21 0.379(13) 0.269(14) 0.413(13) 0.007(11) -0.243(12) -0.054(11)
F22 0.418(15) 0.336(14) 0.455(15) 0.017(12) -0.252(13) -0.040(12)
F23 0.391(15) 0.316(13) 0.431(15) 0.040(11) -0.299(12) -0.052(12)
F24 0.417(14) 0.337(12) 0.454(14) 0.015(10) -0.259(12) -0.048(11)
F25 0.376(13) 0.259(14) 0.408(13) 0.001(11) -0.245(11) -0.053(11)
F26 0.418(14) 0.337(13) 0.455(14) 0.014(11) -0.257(12) -0.042(12)
F27 0.406(15) 0.329(13) 0.464(14) 0.018(11) -0.252(13) -0.042(12)
F28 0.422(15) 0.338(13) 0.454(15) 0.023(12) -0.267(12) -0.057(12)
B31 0.149(9) 0.108(6) 0.171(9) 0.011(6) -0.073(8) 0.047(7)
F31 0.232(15) 0.134(8) 0.197(12) -0.009(7) -0.071(11) -0.006(10)
F32 0.48(4) 0.50(4) 0.36(3) -0.12(3) -0.11(3) 0.23(3)
F33 0.55(4) 0.38(3) 0.49(4) 0.02(4) 0.07(4) 0.00(4)
F34 0.48(4) 0.32(3) 0.54(4) 0.07(3) -0.09(4) -0.03(3)
F35 0.40(3) 0.37(3) 0.31(3) -0.13(2) 0.10(2) -0.19(3)
F36 0.41(4) 0.58(5) 0.45(4) 0.00(4) 0.00(4) 0.03(4)
F37 0.30(3) 0.46(4) 0.61(5) -0.05(4) 0.01(4) -0.05(3)
F38 0.55(4) 0.36(4) 0.43(4) -0.04(3) -0.14(4) 0.06(3)
B41 0.49(4) 0.096(9) 0.67(4) -0.002(18) -0.34(3) -0.001(17)
F41 0.383(14) 0.250(10) 0.290(11) -0.041(8) -0.048(10) -0.007(9)
F42 0.83(5) 0.324(19) 0.54(3) 0.058(19) -0.30(3) -0.19(2)
F43 0.52(3) 0.331(17) 0.51(3) 0.061(17) -0.07(2) -0.075(17)
F44 0.53(3) 0.329(19) 1.06(5) -0.03(3) -0.44(3) -0.037(19)
B51 0.183(10) 0.162(9) 0.096(6) 0.047(6) 0.016(6) -0.079(8)
F51 0.226(16) 0.31(2) 0.163(11) 0.098(14) -0.025(10) -0.124(15)
F52 0.53(4) 0.38(4) 0.47(4) 0.04(3) -0.09(4) -0.06(4)
F53 0.35(4) 0.40(4) 0.61(4) 0.06(4) -0.03(4) 0.03(3)
F54 0.39(4) 0.65(5) 0.33(3) 0.07(3) -0.10(3) -0.09(4)
F55 0.27(3) 0.38(3) 0.44(4) -0.21(3) -0.08(3) 0.01(2)
F56 0.36(4) 0.51(4) 0.52(4) 0.15(3) -0.20(3) -0.05(3)
F57 0.46(4) 0.46(4) 0.39(3) -0.11(3) 0.12(3) -0.11(3)
F58 0.45(4) 0.48(4) 0.42(3) 0.08(3) -0.06(3) 0.13(3)
B61 0.69(4) 0.48(3) 0.115(11) 0.076(19) -0.03(2) -0.34(3)
F61 0.301(11) 0.376(14) 0.252(10) 0.019(9) -0.047(8) -0.061(10)
F62 0.49(2) 0.47(2) 0.318(15) -0.038(15) 0.097(15) -0.098(18)
F63 0.73(4) 0.94(6) 0.31(2) 0.03(3) -0.01(2) -0.46(4)
F64 0.78(4) 0.43(2) 0.44(2) -0.036(18) -0.17(2) -0.30(2)
B71 0.099(5) 0.162(8) 0.153(8) -0.072(7) 0.045(6) 0.004(6)
F71 0.240(7) 0.245(8) 0.285(9) -0.065(7) 0.018(7) -0.023(6)
F72 0.58(4) 0.29(3) 0.47(4) -0.04(3) 0.15(3) -0.14(3)
F73 0.41(3) 0.52(4) 0.43(4) 0.13(3) -0.04(3) -0.07(3)
F74 0.44(4) 0.41(4) 0.51(4) -0.12(3) 0.00(3) 0.12(3)
F76 0.65(5) 0.37(4) 0.34(3) -0.03(3) 0.01(4) 0.07(4)
F77 0.46(4) 0.57(4) 0.40(4) -0.12(4) -0.05(3) -0.11(4)
F78 0.30(3) 0.33(3) 0.63(4) 0.13(3) 0.06(3) -0.02(3)
B81 0.222(10) 0.324(12) 0.330(13) -0.078(11) -0.007(10) -0.037(10)
F81 0.279(13) 0.349(15) 0.361(16) -0.060(14) -0.007(13) -0.045(13)
F82 0.216(13) 0.307(16) 0.344(16) -0.057(14) 0.053(12) -0.032(12)
F83 0.223(11) 0.285(13) 0.338(19) -0.054(16) -0.017(14) -0.039(11)
F84 0.246(12) 0.349(15) 0.356(15) -0.080(14) 0.003(13) -0.012(12)
F85 0.201(10) 0.289(12) 0.290(16) -0.093(13) -0.013(11) -0.037(10)
F86 0.261(15) 0.349(17) 0.368(17) -0.033(16) 0.006(14) -0.054(14)
F87 0.199(10) 0.334(15) 0.328(16) -0.123(13) 0.011(12) -0.026(11)
F88 0.266(14) 0.372(16) 0.359(16) -0.060(14) -0.023(13) -0.047(13)
B91 0.245(7) 0.345(10) 0.291(10) -0.024(9) -0.029(7) -0.124(8)
F91 0.212(7) 0.316(10) 0.266(11) -0.037(9) -0.034(7) -0.139(7)
F92 0.221(7) 0.321(10) 0.265(11) -0.032(9) -0.025(7) -0.126(7)
F93 0.346(16) 0.435(18) 0.381(17) -0.028(16) -0.006(15) -0.139(15)
F94 0.322(15) 0.387(17) 0.397(16) 0.016(16) -0.019(14) -0.106(14)
F95 0.206(7) 0.311(10) 0.257(11) -0.045(9) -0.040(7) -0.148(7)
F96 0.221(7) 0.323(11) 0.261(11) -0.035(9) -0.029(7) -0.126(7)
F97 0.346(16) 0.446(18) 0.371(17) -0.039(16) -0.038(15) -0.129(15)
F98 0.285(12) 0.381(15) 0.368(14) -0.008(13) -0.031(12) -0.106(12)
B101 0.293(11) 0.380(13) 0.343(13) -0.133(11) -0.015(10) -0.214(10)
F101 0.291(11) 0.353(14) 0.282(15) -0.099(13) 0.013(12) -0.148(11)
F102 0.338(14) 0.439(15) 0.406(15) -0.099(14) 0.001(14) -0.177(14)
F103 0.374(13) 0.422(16) 0.392(15) -0.118(15) -0.015(13) -0.174(13)
F104 0.347(14) 0.431(16) 0.389(16) -0.148(15) 0.024(14) -0.201(14)
F105 0.296(11) 0.354(14) 0.282(16) -0.091(13) 0.017(12) -0.142(11)
F106 0.347(13) 0.421(16) 0.389(14) -0.135(14) -0.009(13) -0.191(13)
F107 0.357(13) 0.426(16) 0.392(15) -0.137(14) 0.013(13) -0.182(13)
F108 0.324(15) 0.446(16) 0.407(16) -0.095(14) -0.018(15) -0.180(14)
B111 0.334(9) 0.249(9) 0.310(12) -0.111(9) -0.040(8) -0.045(7)
F111 0.310(8) 0.225(8) 0.288(13) -0.125(9) -0.043(8) -0.050(7)
F112 0.302(8) 0.209(9) 0.286(13) -0.140(8) -0.042(8) -0.047(7)
F113 0.399(16) 0.339(16) 0.377(17) -0.055(15) -0.077(15) 0.012(15)
F114 0.399(14) 0.294(13) 0.377(16) -0.092(13) -0.007(13) -0.039(12)
F115 0.311(8) 0.227(9) 0.292(13) -0.120(9) -0.036(8) -0.052(7)
F116 0.308(8) 0.217(9) 0.285(12) -0.139(9) -0.031(8) -0.049(7)
F117 0.407(16) 0.308(15) 0.347(16) -0.106(14) -0.078(14) -0.017(14)
F118 0.400(16) 0.354(16) 0.388(18) -0.071(15) 0.016(15) -0.020(14)
B121 0.330(13) 0.321(11) 0.332(12) -0.200(10) -0.097(11) -0.002(11)
F121 0.278(16) 0.305(12) 0.305(12) -0.147(11) -0.062(12) -0.019(12)
F122 0.363(14) 0.374(14) 0.378(15) -0.165(13) -0.105(13) 0.017(13)
F123 0.368(15) 0.377(14) 0.373(15) -0.188(12) -0.106(13) 0.024(13)
F124 0.407(16) 0.356(16) 0.398(15) -0.157(15) -0.055(14) -0.006(15)
F125 0.270(16) 0.294(11) 0.302(12) -0.162(10) -0.065(12) -0.032(12)
F126 0.365(15) 0.360(15) 0.381(15) -0.198(13) -0.113(13) 0.036(14)
F127 0.378(15) 0.395(14) 0.375(15) -0.154(13) -0.088(14) 0.007(13)
F128 0.401(15) 0.363(15) 0.391(15) -0.155(14) -0.056(13) 0.027(14)
B131 0.194(6) 0.239(9) 0.279(8) -0.059(7) -0.007(6) -0.049(6)
F131 0.162(6) 0.210(10) 0.241(8) -0.070(7) -0.015(6) -0.063(7)
F132 0.233(11) 0.271(13) 0.317(12) -0.046(11) 0.011(11) -0.064(11)
F133 0.238(11) 0.281(13) 0.316(12) -0.059(11) -0.007(11) -0.043(11)
F134 0.169(7) 0.221(10) 0.258(8) -0.065(8) -0.014(7) -0.060(8)
F135 0.158(6) 0.212(10) 0.238(8) -0.070(7) -0.022(6) -0.062(7)
F136 0.240(11) 0.282(13) 0.317(12) -0.051(11) -0.016(11) -0.018(11)
F137 0.229(11) 0.284(13) 0.316(13) -0.030(12) -0.021(11) -0.026(11)
F138 0.167(7) 0.219(10) 0.257(8) -0.064(8) -0.016(7) -0.060(7)
F13A 0.222(10) 0.265(12) 0.309(12) -0.040(11) 0.012(10) -0.053(10)
F13B 0.255(13) 0.297(14) 0.330(14) -0.056(13) 0.002(13) -0.015(13)
F13C 0.238(11) 0.278(13) 0.329(12) -0.033(11) 0.016(11) -0.039(11)
F13D 0.101(6) 0.184(11) 0.234(8) -0.067(8) -0.034(6) -0.086(7)
B141 0.090(5) 0.158(8) 0.222(11) -0.031(8) -0.038(6) -0.075(6)
F141 0.142(8) 0.234(12) 0.184(11) -0.074(9) 0.011(7) -0.100(9)
F142 0.33(3) 0.46(4) 0.61(5) 0.00(4) -0.18(3) 0.03(3)
F143 0.35(3) 0.39(3) 0.55(4) -0.13(3) 0.16(3) -0.06(3)
F144 0.30(3) 0.59(4) 0.41(4) 0.05(3) 0.00(3) -0.15(3)
F145 0.32(3) 0.35(3) 0.29(3) -0.01(2) 0.06(2) 0.03(2)
F146 0.34(3) 0.61(4) 0.51(5) -0.06(4) 0.01(3) 0.06(4)
F147 0.52(5) 0.38(3) 0.45(4) -0.01(3) 0.14(4) -0.11(3)
F148 0.38(3) 0.43(4) 0.56(4) 0.03(4) -0.03(4) -0.06(3)
B151 0.171(7) 0.219(6) 0.212(8) -0.037(6) -0.030(6) 0.040(6)
F151 0.146(8) 0.186(7) 0.188(9) -0.047(7) -0.026(7) 0.027(6)
F152 0.204(12) 0.260(12) 0.245(13) -0.042(12) -0.030(12) 0.060(12)
F153 0.139(7) 0.186(7) 0.181(9) -0.050(7) -0.026(7) 0.032(6)
F154 0.206(11) 0.253(11) 0.243(12) -0.031(10) -0.019(11) 0.051(10)
F155 0.142(7) 0.191(7) 0.189(9) -0.051(7) -0.033(7) 0.019(6)
F156 0.187(11) 0.242(11) 0.229(12) -0.051(11) -0.018(11) 0.063(10)
F157 0.134(7) 0.184(7) 0.189(9) -0.052(7) -0.024(7) 0.030(6)
F158 0.202(11) 0.268(11) 0.251(12) -0.019(11) -0.034(11) 0.039(11)
F15A 0.123(9) 0.160(8) 0.166(10) -0.051(8) -0.025(8) 0.004(7)
F15B 0.199(11) 0.244(11) 0.242(12) -0.029(10) -0.034(11) 0.047(11)
F15C 0.131(9) 0.186(9) 0.189(11) -0.049(9) 0.010(9) 0.042(8)
F15D 0.184(10) 0.242(10) 0.233(11) -0.025(10) -0.015(10) 0.039(10)
F15E 0.209(12) 0.271(12) 0.247(13) -0.005(12) -0.026(12) 0.049(12)
F15F 0.200(11) 0.252(11) 0.234(12) -0.034(11) -0.039(11) 0.053(10)
F15G 0.093(7) 0.164(9) 0.155(10) -0.050(8) -0.008(8) 0.032(7)
F15H 0.201(12) 0.259(12) 0.239(13) -0.035(12) -0.022(12) 0.057(11)
B161 0.083(5) 0.128(7) 0.183(9) -0.041(7) 0.008(6) 0.031(5)
F161 0.142(8) 0.177(10) 0.220(15) -0.074(10) -0.012(8) 0.013(8)
F162 0.53(4) 0.28(3) 0.44(4) -0.06(3) 0.09(3) -0.01(3)
F163 0.29(2) 0.36(3) 0.63(4) -0.13(3) -0.10(3) 0.00(2)
F164 0.44(5) 0.62(5) 0.53(5) -0.10(5) 0.04(4) -0.04(4)
F165 0.41(3) 0.29(3) 0.25(2) -0.035(18) -0.07(2) -0.12(2)
F166 0.43(4) 0.39(4) 0.57(5) -0.11(4) 0.11(4) -0.13(3)
F167 0.51(4) 0.45(4) 0.50(4) -0.09(3) -0.15(3) 0.00(3)
F168 0.37(4) 0.59(4) 0.54(5) 0.02(4) -0.06(3) -0.12(4)
B171 0.141(7) 0.162(8) 0.072(4) 0.006(5) 0.049(4) -0.063(6)
F171 0.179(11) 0.235(15) 0.122(7) 0.017(8) 0.038(8) -0.055(10)
F172 0.44(4) 0.49(4) 0.44(4) -0.17(3) 0.07(3) -0.14(3)
F173 0.37(3) 0.51(4) 0.43(4) 0.19(3) -0.10(3) -0.04(3)
F174 0.63(4) 0.37(4) 0.34(3) -0.07(3) 0.04(3) 0.00(4)
F175 0.38(3) 0.25(2) 0.44(3) -0.03(2) -0.24(3) -0.06(2)
F176 0.31(3) 0.59(4) 0.40(3) -0.09(3) -0.03(3) -0.08(3)
F177 0.39(4) 0.35(3) 0.55(4) 0.08(3) 0.03(3) 0.04(3)
F178 0.61(4) 0.36(3) 0.35(3) -0.07(3) -0.04(3) -0.19(3)
B181 0.133(7) 0.167(8) 0.084(5) 0.010(5) 0.038(5) -0.050(6)
F181 0.155(10) 0.242(16) 0.158(10) 0.005(10) -0.028(8) -0.009(10)
F182 0.27(3) 0.42(4) 0.48(4) 0.09(3) -0.06(3) -0.02(3)
F183 0.39(4) 0.67(4) 0.29(3) -0.06(3) -0.05(3) -0.12(4)
F184 0.54(4) 0.49(4) 0.46(4) 0.00(4) -0.02(4) 0.00(4)
F185 0.25(3) 0.31(3) 0.30(3) 0.04(2) -0.02(2) -0.09(2)
F186 0.40(4) 0.42(4) 0.44(4) -0.10(3) 0.01(3) -0.06(3)
F187 0.204(19) 0.72(4) 0.38(3) -0.02(3) -0.10(2) -0.02(3)
F188 0.41(4) 0.56(4) 0.31(3) 0.05(3) -0.03(3) -0.18(3)
B191 0.160(9) 0.075(4) 0.134(7) 0.039(4) -0.045(6) -0.002(5)
F191 0.22(2) 0.45(4) 0.35(3) -0.23(3) -0.02(2) -0.05(2)
F192 0.55(4) 0.41(3) 0.30(3) -0.12(2) -0.10(3) 0.16(3)
F193 0.39(4) 0.35(3) 0.62(5) 0.06(4) 0.02(4) -0.03(3)
F194 0.50(4) 0.43(4) 0.38(3) 0.07(3) -0.08(3) -0.19(3)
F195 0.231(17) 0.133(8) 0.176(11) 0.024(9) -0.054(10) 0.008(9)
F196 0.58(4) 0.26(2) 0.32(3) 0.01(2) -0.01(3) -0.04(3)
F197 0.41(4) 0.58(4) 0.30(3) 0.00(3) 0.05(3) 0.10(4)
F198 0.45(4) 0.37(3) 0.55(4) 0.00(3) -0.15(4) -0.04(4)
B201 0.183(10) 0.083(5) 0.128(7) 0.037(5) -0.043(6) 0.002(5)
F201 0.289(19) 0.143(10) 0.177(12) -0.028(10) -0.059(13) 0.004(10)
F202 0.67(4) 0.188(18) 0.38(3) -0.050(19) -0.06(3) -0.03(3)
F203 0.51(4) 0.48(4) 0.44(4) -0.03(3) -0.12(4) -0.09(4)
F204 0.41(4) 0.52(4) 0.33(3) -0.04(3) -0.08(3) 0.04(3)
F205 0.37(3) 0.26(3) 0.25(3) -0.04(2) -0.06(2) -0.02(3)
F206 0.42(4) 0.46(4) 0.41(3) 0.04(3) -0.08(3) -0.08(3)
F207 0.61(4) 0.37(3) 0.31(3) -0.04(3) 0.02(3) 0.12(3)
F208 0.52(4) 0.42(4) 0.48(4) -0.09(3) -0.17(3) -0.03(4)
B211 0.286(9) 0.300(8) 0.198(6) -0.006(6) -0.064(7) -0.095(7)
F211 0.354(14) 0.402(14) 0.271(12) 0.010(13) -0.064(13) -0.078(13)
F212 0.260(9) 0.264(8) 0.168(6) -0.016(6) -0.072(6) -0.101(7)
F213 0.374(15) 0.367(15) 0.311(14) -0.026(14) -0.052(14) -0.102(14)
F214 0.257(9) 0.259(8) 0.145(6) -0.032(6) -0.085(6) -0.104(7)
F215 0.251(10) 0.258(8) 0.140(6) -0.027(6) -0.077(6) -0.102(8)
F216 0.371(15) 0.410(16) 0.301(15) 0.008(15) -0.010(15) -0.061(14)
F217 0.371(14) 0.393(14) 0.282(12) 0.020(13) -0.042(13) -0.086(13)
F218 0.258(10) 0.272(9) 0.177(6) -0.006(6) -0.066(7) -0.098(8)
B221 0.171(9) 0.211(11) 0.084(5) -0.043(6) -0.072(6) -0.026(8)
F221 0.26(3) 0.30(3) 0.41(4) 0.01(3) 0.00(2) -0.06(2)
F222 0.46(4) 0.56(4) 0.43(4) -0.07(4) -0.11(3) 0.19(4)
F223 0.73(5) 0.41(4) 0.29(3) 0.02(3) 0.07(4) -0.13(4)
F224 0.47(4) 0.61(5) 0.32(3) 0.18(3) -0.12(3) -0.18(4)
F225 0.206(13) 0.229(13) 0.137(8) -0.053(8) -0.075(8) -0.020(10)
F226 0.45(3) 0.48(4) 0.38(4) 0.18(3) -0.07(3) -0.05(4)
F227 0.36(4) 0.74(6) 0.44(4) -0.10(4) 0.01(4) 0.03(4)
F228 0.79(5) 0.36(3) 0.21(2) -0.07(2) -0.15(3) -0.02(4)
B231 0.180(9) 0.074(4) 0.178(9) -0.073(5) -0.030(7) -0.029(5)
F231 0.35(3) 0.52(4) 0.22(2) 0.02(2) 0.01(2) 0.13(3)
F232 0.56(4) 0.30(3) 0.40(4) -0.07(3) -0.11(3) 0.08(3)
F233 0.32(3) 0.40(3) 0.61(4) -0.06(3) -0.17(3) 0.08(3)
F234 0.50(4) 0.44(4) 0.50(4) -0.13(3) 0.00(4) -0.08(4)
F235 0.184(10) 0.148(8) 0.217(12) -0.096(8) -0.008(8) -0.048(7)
F236 0.36(3) 0.40(3) 0.52(4) -0.23(3) -0.18(3) 0.14(3)
F237 0.45(4) 0.34(3) 0.56(4) -0.05(3) 0.17(3) -0.03(3)
F238 0.61(5) 0.42(4) 0.47(4) -0.03(4) -0.08(4) 0.02(4)
B241 0.334(11) 0.202(7) 0.236(9) -0.037(7) 0.020(8) -0.061(7)
F241 0.360(14) 0.228(11) 0.276(12) -0.020(11) 0.026(12) -0.055(11)
F242 0.370(14) 0.253(11) 0.266(12) -0.036(11) 0.023(12) -0.053(11)
F243 0.320(12) 0.177(8) 0.209(10) -0.049(8) 0.005(9) -0.060(9)
F244 0.309(12) 0.175(8) 0.199(10) -0.049(8) 0.003(10) -0.057(8)
F245 0.285(11) 0.112(6) 0.166(8) -0.098(6) -0.002(8) -0.095(7)
F246 0.373(16) 0.261(13) 0.292(14) -0.014(13) 0.027(14) -0.072(13)
F247 0.367(14) 0.240(11) 0.278(12) -0.032(11) 0.027(12) -0.049(11)
F248 0.350(13) 0.223(11) 0.254(12) -0.034(11) 0.028(12) -0.050(11)
F24A 0.311(14) 0.171(10) 0.248(13) -0.027(10) 0.005(11) -0.070(10)
F24B 0.360(14) 0.254(11) 0.280(13) -0.016(11) 0.027(12) -0.059(11)
F24C 0.345(13) 0.223(10) 0.242(11) -0.050(10) 0.009(11) -0.061(10)
F24D 0.276(12) 0.147(8) 0.171(10) -0.068(7) -0.024(9) -0.070(8)

_geom_special_details            
; 
 All esds (except the esd in the dihedral angle between two l.s. planes) 
 are estimated using the full covariance matrix.  The cell esds are taken 
 into account individually in the estimation of esds in distances, angles 
 and torsion angles; correlations between esds in cell parameters are only 
 used when they are defined by crystal symmetry.  An approximate (isotropic) 
 treatment of cell esds is used for estimating esds involving l.s. planes. 
;

loop_
_geom_bond_atom_site_label_1
_geom_bond_atom_site_label_2
_geom_bond_distance
_geom_bond_site_symmetry_2
_geom_bond_publ_flag
N1A C1A 1.341(13) . ?
N1A C5A 1.359(12) . ?
N1A Pd4 2.026(9) . ?
C1A C2A 1.346(16) . ?
C2A C3A 1.373(15) . ?
C3A C4A 1.402(16) . ?
C3A C56A 1.470(13) . ?
C3A C6A 1.468(19) . ?
C4A C5A 1.320(15) . ?
N2A C6A 1.3900 . ?
N2A C8A 1.3900 . ?
C6A N3A 1.3900 . ?
N3A C7A 1.3900 . ?
C7A C9A 1.37(6) . ?
C7A N4A 1.3900 . ?
N4A C8A 1.3900 . ?
C8A C12A 1.462(19) . ?
N52A C56A 1.3900 . ?
N52A C58A 1.3900 . ?
C56A N53A 1.3900 . ?
N53A C57A 1.3900 . ?
C57A N54A 1.3900 . ?
C57A C59A 1.46(2) . ?
N54A C58A 1.3900 . ?
C58A C12A 1.450(14) . ?
N5A C10A 1.326(13) . ?
N5A C14A 1.364(14) . ?
N5A Pd3 1.936(10) . ?
C10A C11A 1.403(15) . ?
C11A C12A 1.384(15) . ?
C12A C13A 1.366(16) . ?
C13A C14A 1.361(16) . ?
N1B C5B 1.297(12) . ?
N1B C1B 1.356(12) . ?
N1B Pd5 2.004(8) . ?
C1B C2B 1.371(14) . ?
C2B C3B 1.350(14) . ?
C3B C4B 1.325(13) . ?
C3B C6B 1.404(13) . ?
C3B C56B 1.471(17) . ?
C4B C5B 1.379(14) . ?
N2B C6B 1.3900 . ?
N2B C8B 1.3901 . ?
C6B N3B 1.3900 . ?
N3B C7B 1.3900 . ?
C7B N4B 1.3900 . ?
C7B C9B 1.48(3) . ?
N4B C8B 1.3900 . ?
C8B C12B 1.463(13) . ?
N52B C56B 1.3900 . ?
N52B C58B 1.3900 . ?
C56B N53B 1.3900 . ?
N53B C57B 1.3900 . ?
C57B N54B 1.3900 . ?
C57B C59B 1.76(6) . ?
N54B C58B 1.3900 . ?
C58B C12B 1.443(18) . ?
N5B C14B 1.289(14) . ?
N5B C10B 1.334(12) . ?
N5B Pd4 2.000(8) . ?
C10B C11B 1.428(15) . ?
C11B C12B 1.281(14) . ?
C12B C13B 1.294(14) . ?
C13B C14B 1.434(15) . ?
N1C C1C 1.293(12) . ?
N1C C5C 1.342(11) . ?
N1C Pd5 2.016(7) . ?
C1C C2C 1.447(14) . ?
C2C C3C 1.392(13) . ?
C3C C4C 1.362(12) . ?
C3C C6C 1.475(13) . ?
C4C C5C 1.396(12) . ?
N2C C8C 1.307(11) . ?
N2C C6C 1.342(11) . ?
C6C N3C 1.318(11) . ?
N3C C7C 1.329(12) . ?
C7C N4C 1.321(11) . ?
C7C C9C 1.508(13) . ?
N4C C8C 1.312(11) . ?
C8C C12C 1.501(13) . ?
N5C C14C 1.338(11) . ?
N5C C10C 1.387(12) . ?
N5C Pd3 2.003(8) . ?
C10C C11C 1.330(13) . ?
C11C C12C 1.352(12) . ?
C12C C13C 1.378(12) . ?
C13C C14C 1.393(12) . ?
N1D C5D 1.361(13) . ?
N1D C1D 1.388(13) . ?
N1D Pd3 2.008(8) . ?
C1D C2D 1.363(15) . ?
C2D C3D 1.359(15) . ?
C3D C4D 1.356(15) . ?
C3D C56D 1.456(19) . ?
C3D C6D 1.447(15) . ?
C4D C5D 1.354(15) . ?
N2D C6D 1.3900 . ?
N2D C8D 1.3900 . ?
C6D N3D 1.3900 . ?
N3D C7D 1.3900 . ?
C7D N4D 1.3900 . ?
C7D C9D 1.46(2) . ?
N4D C8D 1.3900 . ?
C8D C12D 1.423(14) . ?
N52D C56D 1.3900 . ?
N52D C58D 1.3900 . ?
C56D N53D 1.3900 . ?
N53D C57D 1.3900 . ?
C57D N54D 1.3900 . ?
C57D C59D 1.43(4) . ?
N54D C58D 1.3900 . ?
C58D C12D 1.435(18) . ?
N5D C14D 1.357(14) . ?
N5D C10D 1.366(14) . ?
N5D Pd2 1.914(11) . ?
C10D C11D 1.387(15) . ?
C11D C12D 1.354(15) . ?
C12D C13D 1.385(16) . ?
C13D C14D 1.376(17) . ?
N1E C5E 1.333(11) . ?
N1E C1E 1.344(12) . ?
N1E Pd1 1.989(8) . ?
C1E C2E 1.348(15) . ?
C2E C3E 1.364(14) . ?
C3E C4E 1.327(13) . ?
C3E C6E 1.437(18) . ?
C3E C56E 1.440(13) . ?
C4E C5E 1.397(13) . ?
N2E C6E 1.3900 . ?
N2E C8E 1.3900 . ?
C6E N3E 1.3900 . ?
N3E C7E 1.3900 . ?
C7E N4E 1.3900 . ?
C7E C9E 1.46(5) . ?
N4E C8E 1.3900 . ?
C8E C12E 1.522(18) . ?
N52E C56E 1.3900 . ?
N52E C58E 1.3900 . ?
C56E N53E 1.3900 . ?
N53E C57E 1.3900 . ?
C57E N54E 1.3900 . ?
C57E C59E 1.51(2) . ?
N54E C58E 1.3900 . ?
C58E C12E 1.387(12) . ?
N5E C14E 1.320(13) . ?
N5E C10E 1.323(13) . ?
N5E Pd3 2.008(8) . ?
C10E C11E 1.380(15) . ?
C11E C12E 1.314(14) . ?
C12E C13E 1.381(15) . ?
C13E C14E 1.367(15) . ?
N1F C1F 1.358(12) . ?
N1F C5F 1.371(11) . ?
N1F Pd2 2.004(8) . ?
C1F C2F 1.350(12) . ?
C2F C3F 1.365(12) . ?
C3F C4F 1.355(12) . ?
C3F C6F 1.536(12) . ?
C4F C5F 1.381(12) . ?
N2F C6F 1.288(11) . ?
N2F C8F 1.343(11) . ?
C6F N3F 1.300(11) . ?
N3F C7F 1.350(12) . ?
C7F N4F 1.340(12) . ?
C7F C9F 1.515(13) . ?
N4F C8F 1.330(11) . ?
C8F C12F 1.468(13) . ?
N5F C10F 1.273(11) . ?
N5F C14F 1.347(11) . ?
N5F Pd1 2.009(8) . ?
C10F C11F 1.447(14) . ?
C11F C12F 1.368(13) . ?
C12F C13F 1.373(12) . ?
C13F C14F 1.383(12) . ?
N1G C5G 1.328(13) . ?
N1G C1G 1.351(12) . ?
N1G Pd2 1.997(8) . ?
C1G C2G 1.341(14) . ?
C2G C3G 1.335(14) . ?
C3G C4G 1.344(14) . ?
C3G C6G 1.435(12) . ?
C3G C56G 1.468(18) . ?
C4G C5G 1.391(14) . ?
N2G C6G 1.3900 . ?
N2G C8G 1.3900 . ?
C6G N3G 1.3900 . ?
N3G C7G 1.3900 . ?
C7G N4G 1.3900 . ?
C7G C9G 1.44(2) . ?
N4G C8G 1.3900 . ?
C8G C12G 1.406(12) . ?
N52G C56G 1.3900 . ?
N52G C58G 1.3900 . ?
C56G N53G 1.3900 . ?
N53G C57G 1.3900 . ?
C57G N54G 1.3900 . ?
C57G C59G 1.50(2) . ?
N54G C58G 1.3900 . ?
C58G C12G 1.467(17) . ?
N5G C14G 1.358(12) . ?
N5G C10G 1.357(11) . ?
N5G Pd6 1.989(8) . ?
C10G C11G 1.383(15) . ?
C11G C12G 1.336(14) . ?
C12G C13G 1.343(13) . ?
C13G C14G 1.346(13) . ?
N1H C5H 1.355(15) . ?
N1H C1H 1.385(14) . ?
N1H Pd4 1.923(11) 2_576 ?
C1H C2H 1.348(15) . ?
C2H C3H 1.356(15) . ?
C3H C4H 1.314(15) . ?
C3H C56H 1.437(18) . ?
C3H C6H 1.443(15) . ?
C4H C5H 1.362(17) . ?
N2H C6H 1.3900 . ?
N2H C8H 1.3900 . ?
C6H N3H 1.3900 . ?
N3H C7H 1.3900 . ?
C7H N4H 1.3900 . ?
C7H C9H 1.49(3) . ?
N4H C8H 1.3900 . ?
C8H C12H 1.453(15) . ?
N52H C56H 1.3900 . ?
N52H C58H 1.3900 . ?
C56H N53H 1.3900 . ?
N53H C57H 1.3900 . ?
C57H N54H 1.3900 . ?
C57H C59H 1.42(4) . ?
N54H C58H 1.3900 . ?
C58H C12H 1.453(17) . ?
N5H C10H 1.359(12) . ?
N5H C14H 1.394(13) . ?
N5H Pd2 2.005(8) . ?
C10H C11H 1.343(14) . ?
C11H C12H 1.408(15) . ?
C12H C13H 1.326(15) . ?
C13H C14H 1.361(16) . ?
N1I C1I 1.322(12) . ?
N1I C5I 1.327(11) . ?
N1I Pd6 2.004(8) . ?
C1I C2I 1.421(14) . ?
C2I C3I 1.382(13) . ?
C3I C4I 1.347(12) . ?
C3I C6I 1.471(13) . ?
C4I C5I 1.388(12) . ?
N2I C8I 1.270(11) . ?
N2I C6I 1.332(11) . ?
C6I N3I 1.327(11) . ?
N3I C7I 1.346(12) . ?
C7I N4I 1.362(11) . ?
C7I C9I 1.496(13) . ?
N4I C8I 1.339(11) . ?
C8I C12I 1.516(12) . ?
N5I C10I 1.368(12) . ?
N5I C14I 1.372(11) . ?
N5I Pd4 1.994(7) 2_576 ?
C10I C11I 1.385(13) . ?
C11I C12I 1.346(12) . ?
C12I C13I 1.371(12) . ?
C13I C14I 1.399(12) . ?
N1J C5J 1.297(12) . ?
N1J C1J 1.359(12) . ?
N1J Pd6 2.013(8) . ?
C1J C2J 1.357(14) . ?
C2J C3J 1.326(14) . ?
C3J C4J 1.322(14) . ?
C3J C6J 1.408(12) . ?
C4J C5J 1.443(15) . ?
N2J C6J 1.3900 . ?
N2J C8J 1.3900 . ?
C6J N3J 1.3900 . ?
N3J C7J 1.3900 . ?
C7J N4J 1.3900 . ?
C7J C9J 1.484(17) . ?
N4J C8J 1.3900 . ?
C8J C12J 1.402(12) . ?
N5J C10J 1.300(12) . ?
N5J C14J 1.331(12) . ?
N5J Pd5 2.036(8) . ?
C10J C11J 1.394(14) . ?
C11J C12J 1.374(14) . ?
C12J C13J 1.359(14) . ?
C13J C14J 1.378(15) . ?
N1K C5K 1.306(13) . ?
N1K C1K 1.314(13) . ?
N1K Pd1 2.012(8) 2_576 ?
C1K C2K 1.385(15) . ?
C2K C3K 1.353(14) . ?
C3K C4K 1.347(14) . ?
C3K C6K 1.381(12) . ?
C4K C5K 1.394(15) . ?
N2K C6K 1.3900 . ?
N2K C8K 1.3900 . ?
C6K N3K 1.3900 . ?
N3K C7K 1.3900 . ?
C7K N4K 1.3900 . ?
C7K C9K 1.476(15) . ?
N4K C8K 1.3900 . ?
C8K C12K 1.407(12) . ?
N5K C14K 1.289(12) . ?
N5K C10K 1.388(13) . ?
N5K Pd5 2.009(8) . ?
C10K C11K 1.336(14) . ?
C11K C12K 1.325(14) . ?
C12K C13K 1.354(14) . ?
C13K C14K 1.353(14) . ?
N1L C1L 1.314(12) . ?
N1L C5L 1.327(13) . ?
N1L Pd6 2.015(8) . ?
C1L C2L 1.371(14) . ?
C2L C3L 1.395(14) . ?
C3L C4L 1.337(14) . ?
C3L C6L 1.395(12) . ?
C4L C5L 1.381(15) . ?
N2L C6L 1.3900 . ?
N2L C8L 1.3900 . ?
C6L N3L 1.3900 . ?
N3L C7L 1.3900 . ?
C7L N4L 1.3900 . ?
C7L C9L 1.484(15) . ?
N4L C8L 1.3900 . ?
C8L C12L 1.408(12) . ?
N5L C14L 1.295(11) . ?
N5L C10L 1.333(12) . ?
N5L Pd1 2.013(8) 2_576 ?
C10L C11L 1.418(14) . ?
C11L C12L 1.275(13) . ?
C12L C13L 1.349(14) . ?
C13L C14L 1.432(15) . ?
N1M C5M 1.317(10) . ?
N1M C1M 1.356(11) . ?
N1M Pd8 2.027(7) . ?
C1M C2M 1.344(12) . ?
C2M C3M 1.364(11) . ?
C3M C4M 1.356(11) . ?
C3M C6M 1.517(12) . ?
C4M C5M 1.372(12) . ?
N2M C6M 1.284(10) . ?
N2M C8M 1.348(10) . ?
C6M N3M 1.358(11) . ?
N3M C7M 1.316(11) . ?
C7M N4M 1.326(11) . ?
C7M C9M 1.517(13) . ?
N4M C8M 1.336(11) . ?
C8M C12M 1.473(12) . ?
N5M C14M 1.318(10) . ?
N5M C10M 1.331(10) . ?
N5M Pd12 2.027(7) . ?
C10M C11M 1.350(12) . ?
C11M C12M 1.342(12) . ?
C12M C13M 1.329(11) . ?
C13M C14M 1.370(12) . ?
N1N C5N 1.332(10) . ?
N1N C1N 1.355(11) . ?
N1N Pd9 2.002(7) . ?
C1N C2N 1.332(12) . ?
C2N C3N 1.391(12) . ?
C3N C4N 1.333(12) . ?
C3N C6N 1.486(12) . ?
C4N C5N 1.418(13) . ?
N2N C6N 1.325(11) . ?
N2N C8N 1.345(11) . ?
C6N N3N 1.332(11) . ?
N3N C7N 1.330(14) . ?
C7N N4N 1.338(14) . ?
C7N C9N 1.533(16) . ?
N4N C8N 1.320(11) . ?
C8N C12N 1.458(12) . ?
N5N C14N 1.316(10) . ?
N5N C10N 1.370(11) . ?
N5N Pd8 2.012(7) . ?
C10N C11N 1.355(12) . ?
C11N C12N 1.392(12) . ?
C12N C13N 1.363(12) . ?
C13N C14N 1.364(12) . ?
N1O C5O 1.300(11) . ?
N1O C1O 1.325(10) . ?
N1O Pd8 2.023(7) . ?
C1O C2O 1.388(12) . ?
C2O C3O 1.324(12) . ?
C3O C4O 1.358(13) . ?
C3O C6O 1.390(10) . ?
C4O C5O 1.337(13) . ?
N2O C6O 1.3900 . ?
N2O C8O 1.3900 . ?
C6O N3O 1.3900 . ?
N3O C7O 1.3900 . ?
C7O N4O 1.3900 . ?
C7O C9O 1.427(13) . ?
N4O C8O 1.3900 . ?
C8O C12O 1.413(11) . ?
N5O C14O 1.317(11) . ?
N5O C10O 1.358(11) . ?
N5O Pd7 2.013(8) . ?
C10O C11O 1.356(13) . ?
C11O C12O 1.369(13) . ?
C12O C13O 1.322(12) . ?
C13O C14O 1.389(14) . ?
N1P C1P 1.291(10) . ?
N1P C5P 1.317(11) . ?
N1P Pd7 2.014(7) . ?
C1P C2P 1.355(12) . ?
C2P C3P 1.379(12) . ?
C3P C4P 1.334(11) . ?
C3P C6P 1.472(12) . ?
C4P C5P 1.419(12) . ?
N2P C8P 1.311(10) . ?
N2P C6P 1.328(10) . ?
C6P N3P 1.339(11) . ?
N3P C7P 1.331(11) . ?
C7P N4P 1.325(11) . ?
C7P C9P 1.500(13) . ?
N4P C8P 1.350(11) . ?
C8P C12P 1.500(12) . ?
N5P C14P 1.296(10) . ?
N5P C10P 1.351(10) . ?
N5P Pd9 2.033(7) . ?
C10P C11P 1.350(12) . ?
C11P C12P 1.363(11) . ?
C12P C13P 1.367(11) . ?
C13P C14P 1.399(12) . ?
N1Q C5Q 1.323(11) . ?
N1Q C1Q 1.326(11) . ?
N1Q Pd9 2.023(7) . ?
C1Q C2Q 1.375(12) . ?
C2Q C3Q 1.361(12) . ?
C3Q C4Q 1.392(13) . ?
C3Q C6Q 1.411(15) . ?
C3Q C56Q 1.436(14) . ?
C4Q C5Q 1.343(13) . ?
N2Q C6Q 1.3900 . ?
N2Q C8Q 1.3900 . ?
C6Q N3Q 1.3900 . ?
N3Q C7Q 1.3900 . ?
C7Q N4Q 1.3900 . ?
C7Q C9Q 1.52(4) . ?
N4Q C8Q 1.3900 . ?
C8Q C12Q 1.466(16) . ?
N52Q C56Q 1.3900 . ?
N52Q C58Q 1.3900 . ?
C56Q N53Q 1.3900 . ?
N53Q C57Q 1.3900 . ?
C57Q N54Q 1.3900 . ?
C57Q C59Q 1.40(2) . ?
N54Q C58Q 1.3900 . ?
C58Q C12Q 1.418(13) . ?
N5Q C10Q 1.336(11) . ?
N5Q C14Q 1.337(11) . ?
N5Q Pd11 2.012(8) . ?
C10Q C11Q 1.359(13) . ?
C11Q C12Q 1.369(12) . ?
C12Q C13Q 1.326(12) . ?
C13Q C14Q 1.382(13) . ?
N1R C5R 1.336(11) . ?
N1R C1R 1.334(11) . ?
N1R Pd10 2.020(7) . ?
C1R C2R 1.339(13) . ?
C2R C3R 1.376(12) . ?
C3R C4R 1.358(12) . ?
C3R C6R 1.484(12) . ?
C4R C5R 1.368(12) . ?
N2R C6R 1.321(11) . ?
N2R C8R 1.364(11) . ?
C6R N3R 1.338(12) . ?
N3R C7R 1.341(14) . ?
C7R N4R 1.329(14) . ?
C7R C9R 1.521(15) . ?
N4R C8R 1.336(11) . ?
C8R C12R 1.454(12) . ?
N5R C10R 1.302(10) . ?
N5R C14R 1.324(11) . ?
N5R Pd9 2.012(7) . ?
C10R C11R 1.369(12) . ?
C11R C12R 1.361(11) . ?
C12R C13R 1.378(11) . ?
C13R C14R 1.345(12) . ?
N1S C1S 1.307(10) . ?
N1S C5S 1.317(10) . ?
N1S Pd10 2.017(7) . ?
C1S C2S 1.371(12) . ?
C2S C3S 1.337(12) . ?
C3S C4S 1.362(13) . ?
C3S C56S 1.422(11) . ?
C3S C6S 1.447(18) . ?
C4S C5S 1.345(12) . ?
N2S C6S 1.3900 . ?
N2S C8S 1.3900 . ?
C6S N3S 1.3900 . ?
N3S C7S 1.3900 . ?
C7S N4S 1.3900 . ?
C7S C9S 1.42(6) . ?
N4S C8S 1.3900 . ?
C8S C12S 1.513(18) . ?
N52S C56S 1.3900 . ?
N52S C58S 1.3900 . ?
C56S N53S 1.3900 . ?
N53S C57S 1.3900 . ?
C57S N54S 1.3900 . ?
C57S C59S 1.428(17) . ?
N54S C58S 1.3900 . ?
C58S C12S 1.415(11) . ?
N5S C10S 1.340(10) . ?
N5S C14S 1.355(11) . ?
N5S Pd12 2.017(7) 2_665 ?
C10S C11S 1.338(12) . ?
C11S C12S 1.372(12) . ?
C12S C13S 1.297(12) . ?
C13S C14S 1.375(13) . ?
N1T C5T 1.315(10) . ?
N1T C1T 1.328(10) . ?
N1T Pd10 2.010(7) . ?
C1T C2T 1.391(12) . ?
C2T C3T 1.337(12) . ?
C3T C4T 1.360(12) . ?
C3T C6T 1.469(13) . ?
C4T C5T 1.410(12) . ?
N2T C8T 1.306(12) . ?
N2T C6T 1.371(11) . ?
C6T N3T 1.326(12) . ?
N3T C7T 1.357(15) . ?
C7T N4T 1.320(14) . ?
C7T C9T 1.532(16) . ?
N4T C8T 1.390(12) . ?
C8T C12T 1.472(13) . ?
N5T C14T 1.337(11) . ?
N5T C10T 1.345(11) . ?
N5T Pd8 2.000(7) 2_665 ?
C10T C11T 1.354(12) . ?
C11T C12T 1.336(12) . ?
C12T C13T 1.360(12) . ?
C13T C14T 1.378(13) . ?
N1U C5U 1.307(10) . ?
N1U C1U 1.340(10) . ?
N1U Pd10 2.021(7) . ?
C1U C2U 1.378(12) . ?
C2U C3U 1.383(12) . ?
C3U C4U 1.355(12) . ?
C3U C6U 1.512(12) . ?
C4U C5U 1.396(12) . ?
N2U C6U 1.299(11) . ?
N2U C8U 1.317(10) . ?
C6U N3U 1.364(11) . ?
N3U C7U 1.322(11) . ?
C7U N4U 1.343(11) . ?
C7U C9U 1.528(13) . ?
N4U C8U 1.355(10) . ?
C8U C12U 1.417(12) . ?
N5U C14U 1.314(11) . ?
N5U C10U 1.326(10) . ?
N5U Pd11 2.008(7) . ?
C10U C11U 1.386(12) . ?
C11U C12U 1.352(12) . ?
C12U C13U 1.348(11) . ?
C13U C14U 1.406(13) . ?
N1V C5V 1.299(11) . ?
N1V C1V 1.339(11) . ?
N1V Pd11 2.010(7) . ?
C1V C2V 1.352(13) . ?
C2V C3V 1.348(13) . ?
C3V C4V 1.367(13) . ?
C3V C56V 1.417(14) . ?
C3V C6V 1.464(17) . ?
C4V C5V 1.389(14) . ?
N2V C6V 1.3900 . ?
N2V C8V 1.3900 . ?
C6V N3V 1.3900 . ?
N3V C7V 1.3900 . ?
C7V C9V 1.34(4) . ?
C7V N4V 1.3900 . ?
N4V C8V 1.3900 . ?
C8V C12V 1.443(16) . ?
N52V C56V 1.3900 . ?
N52V C58V 1.3900 . ?
C56V N53V 1.3900 . ?
N53V C57V 1.3900 . ?
C57V N54V 1.3900 . ?
C57V C59V 1.43(3) . ?
N54V C58V 1.3900 . ?
C58V C12V 1.472(15) . ?
N5V C14V 1.317(12) . ?
N5V C10V 1.344(11) . ?
N5V Pd7 2.007(8) 2_665 ?
C10V C11V 1.382(13) . ?
C11V C12V 1.381(13) . ?
C12V C13V 1.316(13) . ?
C13V C14V 1.353(14) . ?
N1W C5W 1.350(12) . ?
N1W C1W 1.353(11) . ?
N1W Pd11 2.000(8) . ?
C1W C2W 1.319(13) . ?
C2W C3W 1.408(13) . ?
C3W C4W 1.327(13) . ?
C3W C56W 1.405(11) . ?
C3W C6W 1.516(18) . ?
C4W C5W 1.348(14) . ?
N2W C6W 1.3900 . ?
N2W C8W 1.3900 . ?
C6W N3W 1.3900 . ?
N3W C7W 1.3900 . ?
C7W N4W 1.3900 . ?
C7W C9W 1.53(2) . ?
N4W C8W 1.3900 . ?
C8W C12W 1.458(18) . ?
N52W C56W 1.3900 . ?
N52W C58W 1.3900 . ?
C56W N53W 1.3900 . ?
N53W C57W 1.3900 . ?
C57W N54W 1.3900 . ?
C57W C59W 1.452(16) . ?
N54W C58W 1.3900 . ?
C58W C12W 1.402(12) . ?
N5W C14W 1.317(11) . ?
N5W C10W 1.371(12) . ?
N5W Pd12 2.003(7) . ?
C10W C11W 1.341(13) . ?
C11W C12W 1.362(13) . ?
C12W C13W 1.364(13) . ?
C13W C14W 1.362(13) . ?
N1X C5X 1.272(13) . ?
N1X C1X 1.341(11) . ?
N1X Pd12 2.006(8) . ?
C1X C2X 1.358(13) . ?
C2X C3X 1.350(13) . ?
C3X C4X 1.360(13) . ?
C3X C6X 1.440(16) . ?
C3X C56X 1.446(15) . ?
C4X C5X 1.417(15) . ?
N2X C6X 1.3900 . ?
N2X C8X 1.3900 . ?
C6X N3X 1.3900 . ?
N3X C7X 1.3900 . ?
C7X N4X 1.3900 . ?
C7X C9X 1.41(4) . ?
N4X C8X 1.3900 . ?
C8X C12X 1.465(16) . ?
N52X C56X 1.3900 . ?
N52X C58X 1.3900 . ?
C56X N53X 1.3900 . ?
N53X C57X 1.3900 . ?
C57X N54X 1.3900 . ?
C57X C59X 1.48(3) . ?
N54X C58X 1.3900 . ?
C58X C12X 1.435(14) . ?
N5X C14X 1.312(12) . ?
N5X C10X 1.322(11) . ?
N5X Pd7 2.023(8) 2_665 ?
C10X C11X 1.338(13) . ?
C11X C12X 1.354(13) . ?
C12X C13X 1.344(13) . ?
C13X C14X 1.375(14) . ?
Pd1 N1K 2.012(8) 2_576 ?
Pd1 N5L 2.013(8) 2_576 ?
Pd4 N1H 1.923(11) 2_576 ?
Pd4 N5I 1.994(7) 2_576 ?
Pd7 N5V 2.007(8) 2_665 ?
Pd7 N5X 2.023(8) 2_665 ?
Pd8 N5T 2.000(7) 2_665 ?
Pd12 N5S 2.017(7) 2_665 ?
B11 F18 1.345(18) . ?
B11 F14 1.373(18) . ?
B11 F17 1.375(18) . ?
B11 F12 1.381(18) . ?
B11 F13 1.388(18) . ?
B11 F16 1.396(18) . ?
B11 F11 1.438(10) . ?
B21 F23 1.364(19) . ?
B21 F27 1.371(18) . ?
B21 F21 1.376(18) . ?
B21 F25 1.381(18) . ?
B21 F26 1.383(17) . ?
B21 F24 1.397(16) . ?
B21 F28 1.436(18) . ?
B21 F22 1.447(18) . ?
B31 F35 1.356(18) . ?
B31 F33 1.354(18) . ?
B31 F32 1.355(18) . ?
B31 F36 1.391(18) . ?
B31 F38 1.400(18) . ?
B31 F37 1.396(18) . ?
B31 F34 1.420(18) . ?
B31 F31 1.459(13) . ?
B41 F43 1.317(17) . ?
B41 F41 1.379(16) . ?
B41 F42 1.403(19) . ?
B41 F44 1.405(18) . ?
B51 F53 1.336(18) . ?
B51 F58 1.361(18) . ?
B51 F55 1.366(18) . ?
B51 F57 1.373(18) . ?
B51 F54 1.387(18) . ?
B51 F52 1.402(18) . ?
B51 F56 1.414(18) . ?
B51 F51 1.476(12) . ?
B61 F62 1.329(17) . ?
B61 F61 1.365(16) . ?
B61 F64 1.387(18) . ?
B61 F63 1.424(19) . ?
B71 F76 1.344(18) . ?
B71 F73 1.357(18) . ?
B71 F72 1.392(18) . ?
B71 F74 1.388(18) . ?
B71 F78 1.398(18) . ?
B71 F71 1.414(10) . ?
B71 F77 1.432(18) . ?
B81 F83 1.311(18) . ?
B81 F82 1.340(16) . ?
B81 F85 1.343(17) . ?
B81 F86 1.352(17) . ?
B81 F88 1.400(17) . ?
B81 F84 1.409(17) . ?
B81 F87 1.426(17) . ?
B81 F81 1.458(18) . ?
B91 F91 1.316(18) . ?
B91 F95 1.325(18) . ?
B91 F98 1.386(17) . ?
B91 F93 1.401(17) . ?
B91 F96 1.408(17) . ?
B91 F97 1.411(17) . ?
B91 F92 1.412(17) . ?
B91 F94 1.416(17) . ?
F91 F92 1.68(3) . ?
F95 F96 1.64(3) . ?
B101 F103 1.345(18) . ?
B101 F102 1.357(17) . ?
B101 F105 1.361(17) . ?
B101 F101 1.379(17) . ?
B101 F106 1.378(17) . ?
B101 F107 1.387(18) . ?
B101 F104 1.432(18) . ?
B101 F108 1.457(18) . ?
B111 F112 1.287(17) . ?
B111 F116 1.290(17) . ?
B111 F113 1.390(17) . ?
B111 F117 1.417(16) . ?
B111 F118 1.418(17) . ?
B111 F114 1.430(17) . ?
B111 F115 1.432(17) . ?
B111 F111 1.447(17) . ?
F111 F112 1.68(3) . ?
F115 F116 1.68(3) . ?
B121 F128 1.318(17) . ?
B121 F121 1.342(18) . ?
B121 F125 1.353(17) . ?
B121 F122 1.358(16) . ?
B121 F123 1.371(18) . ?
B121 F127 1.367(18) . ?
B121 F126 1.422(18) . ?
B121 F124 1.433(18) . ?
B131 F13D 1.270(17) . ?
B131 F138 1.342(17) . ?
B131 F133 1.384(16) . ?
B131 F131 1.385(17) . ?
B131 F136 1.398(16) . ?
B131 F134 1.391(18) . ?
B131 F132 1.403(16) . ?
B131 F135 1.408(18) . ?
B131 F13C 1.420(17) . ?
B131 F13A 1.417(17) . ?
B131 F137 1.456(17) . ?
B131 F13B 1.486(17) . ?
F131 F134 1.73(3) . ?
F135 F138 1.72(3) . ?
B141 F145 1.337(18) . ?
B141 F142 1.344(18) . ?
B141 F144 1.382(18) . ?
B141 F147 1.379(18) . ?
B141 F146 1.390(18) . ?
B141 F143 1.397(18) . ?
B141 F148 1.432(18) . ?
B141 F141 1.482(12) . ?
B151 F15G 1.286(17) . ?
B151 F157 1.289(17) . ?
B151 F153 1.328(18) . ?
B151 F15C 1.353(18) . ?
B151 F15B 1.382(17) . ?
B151 F154 1.390(17) . ?
B151 F156 1.388(16) . ?
B151 F151 1.413(17) . ?
B151 F15F 1.418(17) . ?
B151 F15D 1.423(17) . ?
B151 F155 1.423(17) . ?
B151 F15H 1.427(17) . ?
F151 F153 1.79(3) . ?
F155 F157 1.70(3) . ?
B161 F165 1.355(17) . ?
B161 F168 1.358(18) . ?
B161 F163 1.381(18) . ?
B161 F162 1.387(18) . ?
B161 F164 1.388(18) . ?
B161 F167 1.431(18) . ?
B161 F166 1.438(19) . ?
B161 F161 1.469(13) . ?
B171 F175 1.347(18) . ?
B171 F174 1.348(18) . ?
B171 F172 1.367(18) . ?
B171 F173 1.373(18) . ?
B171 F178 1.373(18) . ?
B171 F177 1.383(18) . ?
B171 F176 1.403(18) . ?
B171 F171 1.507(11) . ?
B181 F187 1.329(18) . ?
B181 F188 1.371(18) . ?
B181 F184 1.376(18) . ?
B181 F182 1.383(18) . ?
B181 F181 1.403(15) . ?
B181 F183 1.427(18) . ?
B181 F185 1.446(17) . ?
B181 F186 1.463(18) . ?
B191 F196 1.316(18) . ?
B191 F197 1.349(18) . ?
B191 F191 1.349(18) . ?
B191 F193 1.385(18) . ?
B191 F192 1.386(18) . ?
B191 F194 1.404(18) . ?
B191 F198 1.437(18) . ?
B191 F195 1.477(12) . ?
B201 F207 1.361(18) . ?
B201 F204 1.377(18) . ?
B201 F208 1.387(18) . ?
B201 F202 1.390(18) . ?
B201 F206 1.400(18) . ?
B201 F203 1.399(18) . ?
B201 F201 1.418(15) . ?
B201 F205 1.433(18) . ?
B211 F214 1.311(17) . ?
B211 F215 1.339(17) . ?
B211 F217 1.372(16) . ?
B211 F218 1.390(17) . ?
B211 F211 1.395(16) . ?
B211 F212 1.398(17) . ?
B211 F213 1.406(16) . ?
B211 F216 1.408(17) . ?
F212 F214 1.53(3) . ?
F215 F218 1.71(3) . ?
B221 F223 1.350(18) . ?
B221 F228 1.361(18) . ?
B221 F226 1.363(18) . ?
B221 F221 1.372(18) . ?
B221 F224 1.400(18) . ?
B221 F227 1.411(18) . ?
B221 F222 1.421(18) . ?
B221 F225 1.466(12) . ?
B231 F237 1.335(18) . ?
B231 F232 1.341(18) . ?
B231 F236 1.368(18) . ?
B231 F231 1.373(18) . ?
B231 F238 1.382(18) . ?
B231 F233 1.384(18) . ?
B231 F234 1.408(18) . ?
B231 F235 1.519(11) . ?
B241 F245 1.218(17) . ?
B241 F243 1.366(18) . ?
B241 F24A 1.370(17) . ?
B241 F24B 1.377(17) . ?
B241 F244 1.404(18) . ?
B241 F241 1.413(17) . ?
B241 F248 1.415(17) . ?
B241 F247 1.422(17) . ?
B241 F242 1.443(17) . ?
B241 F24D 1.446(17) . ?
B241 F246 1.476(18) . ?
B241 F24C 1.476(17) . ?
F243 F244 1.76(3) . ?
O1 O59 1.45(5) . ?
O6 O57 1.65(7) 2_666 ?
O13 O72 1.73(5) . ?
O13 O32 1.82(5) . ?
O14 O68 1.74(7) . ?
O16 O67 1.53(5) . ?
O22 O72 1.80(6) . ?
O32 O72 1.82(6) . ?
O33 O62 1.50(6) . ?
O57 O6 1.65(7) 2_666 ?

loop_
_geom_angle_atom_site_label_1
_geom_angle_atom_site_label_2
_geom_angle_atom_site_label_3
_geom_angle
_geom_angle_site_symmetry_1
_geom_angle_site_symmetry_3
_geom_angle_publ_flag
C1A N1A C5A 116.9(10) . . ?
C1A N1A Pd4 121.3(8) . . ?
C5A N1A Pd4 121.7(8) . . ?
N1A C1A C2A 124.6(11) . . ?
C1A C2A C3A 116.8(12) . . ?
C2A C3A C4A 119.8(11) . . ?
C2A C3A C56A 120.8(13) . . ?
C4A C3A C56A 119.2(12) . . ?
C2A C3A C6A 113(2) . . ?
C4A C3A C6A 121.0(17) . . ?
C56A C3A C6A 30(2) . . ?
C5A C4A C3A 118.8(11) . . ?
C4A C5A N1A 122.8(11) . . ?
C6A N2A C8A 120.0 . . ?
N3A C6A N2A 120.0 . . ?
N3A C6A C3A 127(3) . . ?
N2A C6A C3A 107(3) . . ?
C7A N3A C6A 120.0 . . ?
C9A C7A N4A 116(4) . . ?
C9A C7A N3A 124(4) . . ?
N4A C7A N3A 120.0 . . ?
C8A N4A C7A 120.0 . . ?
N4A C8A N2A 120.0 . . ?
N4A C8A C12A 107(3) . . ?
N2A C8A C12A 132(3) . . ?
C56A N52A C58A 120.0 . . ?
N52A C56A N53A 120.0 . . ?
N52A C56A C3A 120.1(11) . . ?
N53A C56A C3A 119.8(11) . . ?
C56A N53A C57A 120.0 . . ?
N54A C57A N53A 120.0 . . ?
N54A C57A C59A 120.2(14) . . ?
N53A C57A C59A 119.7(14) . . ?
C57A N54A C58A 120.0 . . ?
N54A C58A N52A 120.0 . . ?
N54A C58A C12A 124.3(13) . . ?
N52A C58A C12A 115.7(13) . . ?
C10A N5A C14A 114.5(11) . . ?
C10A N5A Pd3 122.8(8) . . ?
C14A N5A Pd3 122.7(8) . . ?
N5A C10A C11A 126.2(11) . . ?
C12A C11A C10A 115.1(11) . . ?
C13A C12A C11A 121.3(11) . . ?
C13A C12A C58A 116.7(13) . . ?
C11A C12A C58A 121.6(14) . . ?
C13A C12A C8A 129(2) . . ?
C11A C12A C8A 110(2) . . ?
C58A C12A C8A 14(3) . . ?
C14A C13A C12A 118.0(12) . . ?
C13A C14A N5A 124.7(11) . . ?
C5B N1B C1B 116.4(9) . . ?
C5B N1B Pd5 122.9(8) . . ?
C1B N1B Pd5 120.7(8) . . ?
N1B C1B C2B 122.8(10) . . ?
C3B C2B C1B 118.8(10) . . ?
C4B C3B C2B 118.3(10) . . ?
C4B C3B C6B 116.9(12) . . ?
C2B C3B C6B 124.8(12) . . ?
C4B C3B C56B 129.2(16) . . ?
C2B C3B C56B 112.3(15) . . ?
C6B C3B C56B 13.6(18) . . ?
C3B C4B C5B 121.1(10) . . ?
N1B C5B C4B 122.3(10) . . ?
C6B N2B C8B 120.0 . . ?
N2B C6B N3B 120.0 . . ?
N2B C6B C3B 111.4(13) . . ?
N3B C6B C3B 128.5(13) . . ?
C7B N3B C6B 120.0 . . ?
N4B C7B N3B 120.0 . . ?
N4B C7B C9B 126.6(16) . . ?
N3B C7B C9B 112.3(16) . . ?
C8B N4B C7B 120.0 . . ?
N4B C8B N2B 120.0 . . ?
N4B C8B C12B 114.3(13) . . ?
N2B C8B C12B 125.5(13) . . ?
C56B N52B C58B 120.0 . . ?
N52B C56B N53B 120.0 . . ?
N52B C56B C3B 132(2) . . ?
N53B C56B C3B 107(3) . . ?
C57B N53B C56B 120.0 . . ?
N53B C57B N54B 120.0 . . ?
N53B C57B C59B 142(3) . . ?
N54B C57B C59B 98(3) . . ?
C58B N54B C57B 120.0 . . ?
N54B C58B N52B 120.0 . . ?
N54B C58B C12B 136(2) . . ?
N52B C58B C12B 104(2) . . ?
C14B N5B C10B 118.3(10) . . ?
C14B N5B Pd4 121.3(7) . . ?
C10B N5B Pd4 120.4(8) . . ?
N5B C10B C11B 118.3(11) . . ?
C12B C11B C10B 122.1(11) . . ?
C11B C12B C13B 120.4(11) . . ?
C11B C12B C58B 122.7(17) . . ?
C13B C12B C58B 113.7(16) . . ?
C11B C12B C8B 117.6(12) . . ?
C13B C12B C8B 122.0(13) . . ?
C58B C12B C8B 20.5(19) . . ?
C12B C13B C14B 118.1(11) . . ?
N5B C14B C13B 122.7(11) . . ?
C1C N1C C5C 119.7(9) . . ?
C1C N1C Pd5 119.4(7) . . ?
C5C N1C Pd5 120.4(6) . . ?
N1C C1C C2C 122.1(10) . . ?
C3C C2C C1C 117.1(10) . . ?
C4C C3C C2C 119.4(9) . . ?
C4C C3C C6C 120.4(9) . . ?
C2C C3C C6C 120.1(9) . . ?
C3C C4C C5C 119.3(9) . . ?
N1C C5C C4C 122.0(9) . . ?
C8C N2C C6C 116.6(8) . . ?
N3C C6C N2C 122.1(9) . . ?
N3C C6C C3C 119.1(9) . . ?
N2C C6C C3C 118.8(9) . . ?
C6C N3C C7C 117.1(8) . . ?
N4C C7C N3C 123.4(9) . . ?
N4C C7C C9C 117.9(10) . . ?
N3C C7C C9C 118.5(10) . . ?
C8C N4C C7C 116.0(8) . . ?
N2C C8C N4C 124.7(9) . . ?
N2C C8C C12C 117.3(9) . . ?
N4C C8C C12C 118.0(9) . . ?
C14C N5C C10C 116.8(8) . . ?
C14C N5C Pd3 121.7(7) . . ?
C10C N5C Pd3 121.1(7) . . ?
C11C C10C N5C 122.9(10) . . ?
C10C C11C C12C 121.1(10) . . ?
C11C C12C C13C 117.7(10) . . ?
C11C C12C C8C 122.0(10) . . ?
C13C C12C C8C 120.1(9) . . ?
C12C C13C C14C 120.5(9) . . ?
N5C C14C C13C 120.9(9) . . ?
C5D N1D C1D 116.8(10) . . ?
C5D N1D Pd3 121.5(8) . . ?
C1D N1D Pd3 121.7(9) . . ?
C2D C1D N1D 123.1(11) . . ?
C3D C2D C1D 117.6(12) . . ?
C2D C3D C4D 120.6(12) . . ?
C2D C3D C56D 113.3(19) . . ?
C4D C3D C56D 124.9(19) . . ?
C2D C3D C6D 120.4(14) . . ?
C4D C3D C6D 118.5(14) . . ?
C56D C3D C6D 19(2) . . ?
C5D C4D C3D 121.0(11) . . ?
N1D C5D C4D 120.8(11) . . ?
C6D N2D C8D 120.0 . . ?
N2D C6D N3D 120.0 . . ?
N2D C6D C3D 117.8(15) . . ?
N3D C6D C3D 122.2(15) . . ?
C7D N3D C6D 120.0 . . ?
N4D C7D N3D 120.0 . . ?
N4D C7D C9D 125.7(17) . . ?
N3D C7D C9D 113.8(17) . . ?
C8D N4D C7D 120.0 . . ?
N4D C8D N2D 120.0 . . ?
N4D C8D C12D 121.2(16) . . ?
N2D C8D C12D 118.6(17) . . ?
C56D N52D C58D 120.0 . . ?
N53D C56D N52D 120.0 . . ?
N53D C56D C3D 118(3) . . ?
N52D C56D C3D 120(3) . . ?
C56D N53D C57D 120.0 . . ?
N54D C57D N53D 120.0 . . ?
N54D C57D C59D 114(3) . . ?
N53D C57D C59D 126(3) . . ?
C57D N54D C58D 120.0 . . ?
N54D C58D N52D 120.0 . . ?
N54D C58D C12D 122(3) . . ?
N52D C58D C12D 115(3) . . ?
C14D N5D C10D 113.5(11) . . ?
C14D N5D Pd2 123.4(9) . . ?
C10D N5D Pd2 123.1(8) . . ?
N5D C10D C11D 126.3(11) . . ?
C12D C11D C10D 117.6(11) . . ?
C11D C12D C13D 118.7(11) . . ?
C11D C12D C8D 121.9(15) . . ?
C13D C12D C8D 119.0(15) . . ?
C11D C12D C58D 123(2) . . ?
C13D C12D C58D 118(2) . . ?
C8D C12D C58D 4(3) . . ?
C14D C13D C12D 120.3(12) . . ?
N5D C14D C13D 123.5(12) . . ?
C5E N1E C1E 116.3(9) . . ?
C5E N1E Pd1 122.5(7) . . ?
C1E N1E Pd1 121.2(8) . . ?
N1E C1E C2E 123.8(10) . . ?
C1E C2E C3E 118.9(10) . . ?
C4E C3E C2E 119.4(10) . . ?
C4E C3E C6E 114.2(17) . . ?
C2E C3E C6E 124.6(18) . . ?
C4E C3E C56E 122.2(12) . . ?
C2E C3E C56E 118.4(11) . . ?
C6E C3E C56E 17(2) . . ?
C3E C4E C5E 119.6(10) . . ?
N1E C5E C4E 121.9(9) . . ?
C6E N2E C8E 120.0 . . ?
N2E C6E N3E 120.0 . . ?
N2E C6E C3E 104(3) . . ?
N3E C6E C3E 136(3) . . ?
C7E N3E C6E 120.0 . . ?
N4E C7E N3E 120.0 . . ?
N4E C7E C9E 127(3) . . ?
N3E C7E C9E 113(3) . . ?
C8E N4E C7E 120.0 . . ?
N4E C8E N2E 120.0 . . ?
N4E C8E C12E 109(3) . . ?
N2E C8E C12E 129(3) . . ?
C56E N52E C58E 120.0 . . ?
N52E C56E N53E 120.0 . . ?
N52E C56E C3E 123.1(10) . . ?
N53E C56E C3E 116.8(10) . . ?
C57E N53E C56E 120.0 . . ?
N53E C57E N54E 120.0 . . ?
N53E C57E C59E 126.2(15) . . ?
N54E C57E C59E 112.6(15) . . ?
C57E N54E C58E 120.0 . . ?
N54E C58E N52E 120.0 . . ?
N54E C58E C12E 124.5(12) . . ?
N52E C58E C12E 115.5(12) . . ?
C14E N5E C10E 118.9(10) . . ?
C14E N5E Pd3 121.0(8) . . ?
C10E N5E Pd3 120.0(8) . . ?
N5E C10E C11E 120.1(11) . . ?
C12E C11E C10E 123.0(11) . . ?
C11E C12E C13E 115.8(10) . . ?
C11E C12E C58E 125.6(13) . . ?
C13E C12E C58E 118.6(12) . . ?
C11E C12E C8E 119.3(18) . . ?
C13E C12E C8E 124.6(19) . . ?
C58E C12E C8E 8(2) . . ?
C14E C13E C12E 120.9(11) . . ?
N5E C14E C13E 121.2(11) . . ?
C1F N1F C5F 116.6(8) . . ?
C1F N1F Pd2 121.9(7) . . ?
C5F N1F Pd2 121.5(7) . . ?
C2F C1F N1F 123.4(9) . . ?
C1F C2F C3F 118.9(10) . . ?
C4F C3F C2F 120.2(9) . . ?
C4F C3F C6F 119.8(9) . . ?
C2F C3F C6F 120.0(9) . . ?
C3F C4F C5F 119.2(9) . . ?
N1F C5F C4F 121.5(9) . . ?
C6F N2F C8F 115.8(8) . . ?
N2F C6F N3F 127.2(9) . . ?
N2F C6F C3F 117.1(9) . . ?
N3F C6F C3F 115.6(9) . . ?
C6F N3F C7F 113.9(8) . . ?
N4F C7F N3F 124.7(9) . . ?
N4F C7F C9F 118.9(10) . . ?
N3F C7F C9F 116.2(10) . . ?
C8F N4F C7F 114.6(8) . . ?
N4F C8F N2F 123.7(9) . . ?
N4F C8F C12F 116.9(9) . . ?
N2F C8F C12F 119.3(9) . . ?
C10F N5F C14F 119.2(8) . . ?
C10F N5F Pd1 120.7(7) . . ?
C14F N5F Pd1 119.9(6) . . ?
N5F C10F C11F 122.9(10) . . ?
C12F C11F C10F 117.7(9) . . ?
C11F C12F C13F 117.6(9) . . ?
C11F C12F C8F 120.2(9) . . ?
C13F C12F C8F 122.2(9) . . ?
C12F C13F C14F 121.1(9) . . ?
N5F C14F C13F 120.9(8) . . ?
C5G N1G C1G 117.3(9) . . ?
C5G N1G Pd2 121.5(8) . . ?
C1G N1G Pd2 121.2(8) . . ?
C2G C1G N1G 121.3(11) . . ?
C3G C2G C1G 122.6(11) . . ?
C2G C3G C4G 116.8(10) . . ?
C2G C3G C6G 119.6(11) . . ?
C4G C3G C6G 123.5(12) . . ?
C2G C3G C56G 127.9(17) . . ?
C4G C3G C56G 113.6(15) . . ?
C6G C3G C56G 18.1(18) . . ?
C3G C4G C5G 120.8(11) . . ?
N1G C5G C4G 121.1(10) . . ?
C6G N2G C8G 120.0 . . ?
N3G C6G N2G 120.0 . . ?
N3G C6G C3G 114.7(11) . . ?
N2G C6G C3G 125.2(11) . . ?
C6G N3G C7G 120.0 . . ?
N4G C7G N3G 120.0 . . ?
N4G C7G C9G 117.0(13) . . ?
N3G C7G C9G 123.0(13) . . ?
C7G N4G C8G 120.0 . . ?
N4G C8G N2G 120.0 . . ?
N4G C8G C12G 126.8(11) . . ?
N2G C8G C12G 112.6(12) . . ?
C56G N52G C58G 120.0 . . ?
N52G C56G N53G 120.0 . . ?
N52G C56G C3G 101(2) . . ?
N53G C56G C3G 138(2) . . ?
C56G N53G C57G 120.0 . . ?
N54G C57G N53G 120.0 . . ?
N54G C57G C59G 146(3) . . ?
N53G C57G C59G 94(3) . . ?
C57G N54G C58G 120.0 . . ?
N54G C58G N52G 120.0 . . ?
N54G C58G C12G 104(3) . . ?
N52G C58G C12G 135(2) . . ?
C14G N5G C10G 116.9(9) . . ?
C14G N5G Pd6 122.3(7) . . ?
C10G N5G Pd6 120.8(8) . . ?
N5G C10G C11G 121.9(11) . . ?
C12G C11G C10G 119.3(11) . . ?
C11G C12G C13G 119.0(10) . . ?
C11G C12G C8G 123.4(12) . . ?
C13G C12G C8G 117.6(12) . . ?
C11G C12G C58G 113.3(16) . . ?
C13G C12G C58G 127.6(17) . . ?
C8G C12G C58G 10.1(16) . . ?
C12G C13G C14G 121.9(10) . . ?
C13G C14G N5G 121.0(10) . . ?
C5H N1H C1H 110.4(11) . . ?
C5H N1H Pd4 124.7(9) . 2_576 ?
C1H N1H Pd4 124.9(8) . 2_576 ?
C2H C1H N1H 126.7(12) . . ?
C1H C2H C3H 118.2(11) . . ?
C4H C3H C2H 118.5(11) . . ?
C4H C3H C56H 117.1(17) . . ?
C2H C3H C56H 120.6(17) . . ?
C4H C3H C6H 123.1(15) . . ?
C2H C3H C6H 118.2(14) . . ?
C56H C3H C6H 23(2) . . ?
C3H C4H C5H 121.4(12) . . ?
N1H C5H C4H 124.7(12) . . ?
C6H N2H C8H 120.0 . . ?
N2H C6H N3H 120.0 . . ?
N2H C6H C3H 123.1(16) . . ?
N3H C6H C3H 116.8(16) . . ?
C7H N3H C6H 120.0 . . ?
N4H C7H N3H 120.0 . . ?
N4H C7H C9H 114(2) . . ?
N3H C7H C9H 126(2) . . ?
C8H N4H C7H 120.0 . . ?
N4H C8H N2H 120.0 . . ?
N4H C8H C12H 125.7(18) . . ?
N2H C8H C12H 113.6(18) . . ?
C56H N52H C58H 120.0 . . ?
N53H C56H N52H 120.0 . . ?
N53H C56H C3H 127(2) . . ?
N52H C56H C3H 110(2) . . ?
C56H N53H C57H 120.0 . . ?
N54H C57H N53H 120.0 . . ?
N54H C57H C59H 124(3) . . ?
N53H C57H C59H 116(3) . . ?
C57H N54H C58H 120.0 . . ?
N54H C58H N52H 120.0 . . ?
N54H C58H C12H 112(3) . . ?
N52H C58H C12H 127(3) . . ?
C10H N5H C14H 116.8(10) . . ?
C10H N5H Pd2 121.4(9) . . ?
C14H N5H Pd2 121.6(8) . . ?
C11H C10H N5H 122.8(11) . . ?
C10H C11H C12H 119.2(11) . . ?
C13H C12H C11H 118.7(11) . . ?
C13H C12H C8H 118.3(15) . . ?
C11H C12H C8H 121.9(15) . . ?
C13H C12H C58H 125(2) . . ?
C11H C12H C58H 116.3(19) . . ?
C8H C12H C58H 14(3) . . ?
C12H C13H C14H 121.5(12) . . ?
C13H C14H N5H 120.6(11) . . ?
C1I N1I C5I 117.3(9) . . ?
C1I N1I Pd6 120.4(7) . . ?
C5I N1I Pd6 122.2(7) . . ?
N1I C1I C2I 122.9(10) . . ?
C3I C2I C1I 117.9(10) . . ?
C4I C3I C2I 118.7(10) . . ?
C4I C3I C6I 121.5(9) . . ?
C2I C3I C6I 119.6(9) . . ?
C3I C4I C5I 119.8(9) . . ?
N1I C5I C4I 123.2(9) . . ?
C8I N2I C6I 116.8(8) . . ?
N3I C6I N2I 123.6(9) . . ?
N3I C6I C3I 116.7(9) . . ?
N2I C6I C3I 119.7(8) . . ?
C6I N3I C7I 115.9(9) . . ?
N3I C7I N4I 123.4(9) . . ?
N3I C7I C9I 118.9(10) . . ?
N4I C7I C9I 117.6(10) . . ?
C8I N4I C7I 113.5(8) . . ?
N2I C8I N4I 126.7(9) . . ?
N2I C8I C12I 118.6(9) . . ?
N4I C8I C12I 114.4(9) . . ?
C10I N5I C14I 117.6(8) . . ?
C10I N5I Pd4 121.5(7) . 2_576 ?
C14I N5I Pd4 120.9(7) . 2_576 ?
N5I C10I C11I 122.6(9) . . ?
C12I C11I C10I 119.7(10) . . ?
C11I C12I C13I 119.0(9) . . ?
C11I C12I C8I 119.5(9) . . ?
C13I C12I C8I 121.5(9) . . ?
C12I C13I C14I 121.2(9) . . ?
N5I C14I C13I 119.6(9) . . ?
C5J N1J C1J 116.1(10) . . ?
C5J N1J Pd6 122.6(8) . . ?
C1J N1J Pd6 121.3(8) . . ?
N1J C1J C2J 123.0(11) . . ?
C3J C2J C1J 119.1(11) . . ?
C4J C3J C2J 122.1(11) . . ?
C4J C3J C6J 118.1(11) . . ?
C2J C3J C6J 119.7(11) . . ?
C3J C4J C5J 116.1(11) . . ?
N1J C5J C4J 123.4(10) . . ?
C6J N2J C8J 120.0 . . ?
N2J C6J N3J 120.0 . . ?
N2J C6J C3J 119.9(8) . . ?
N3J C6J C3J 120.1(8) . . ?
C7J N3J C6J 120.0 . . ?
N4J C7J N3J 120.0 . . ?
N4J C7J C9J 122.4(11) . . ?
N3J C7J C9J 117.0(11) . . ?
C7J N4J C8J 120.0 . . ?
N4J C8J N2J 120.0 . . ?
N4J C8J C12J 119.8(8) . . ?
N2J C8J C12J 120.0(8) . . ?
C10J N5J C14J 118.8(10) . . ?
C10J N5J Pd5 120.1(8) . . ?
C14J N5J Pd5 121.0(8) . . ?
N5J C10J C11J 122.7(11) . . ?
C12J C11J C10J 117.1(11) . . ?
C13J C12J C11J 121.1(11) . . ?
C13J C12J C8J 120.3(12) . . ?
C11J C12J C8J 118.5(11) . . ?
C12J C13J C14J 116.9(11) . . ?
N5J C14J C13J 123.3(11) . . ?
C5K N1K C1K 116.2(10) . . ?
C5K N1K Pd1 122.8(7) . 2_576 ?
C1K N1K Pd1 120.9(8) . 2_576 ?
N1K C1K C2K 123.6(10) . . ?
C3K C2K C1K 118.2(10) . . ?
C4K C3K C2K 119.5(11) . . ?
C4K C3K C6K 121.2(12) . . ?
C2K C3K C6K 119.4(11) . . ?
C3K C4K C5K 117.8(11) . . ?
N1K C5K C4K 124.1(10) . . ?
C6K N2K C8K 120.0 . . ?
C3K C6K N2K 120.5(8) . . ?
C3K C6K N3K 119.5(8) . . ?
N2K C6K N3K 120.0 . . ?
C6K N3K C7K 120.0 . . ?
N4K C7K N3K 120.0 . . ?
N4K C7K C9K 118.0(10) . . ?
N3K C7K C9K 122.0(10) . . ?
C8K N4K C7K 120.0 . . ?
N4K C8K N2K 120.0 . . ?
N4K C8K C12K 120.1(8) . . ?
N2K C8K C12K 119.9(8) . . ?
C14K N5K C10K 115.1(9) . . ?
C14K N5K Pd5 123.8(8) . . ?
C10K N5K Pd5 121.1(8) . . ?
C11K C10K N5K 123.1(10) . . ?
C12K C11K C10K 119.6(11) . . ?
C11K C12K C13K 118.3(10) . . ?
C11K C12K C8K 119.7(11) . . ?
C13K C12K C8K 122.0(11) . . ?
C14K C13K C12K 120.2(10) . . ?
N5K C14K C13K 123.4(10) . . ?
C1L N1L C5L 117.0(9) . . ?
C1L N1L Pd6 120.9(7) . . ?
C5L N1L Pd6 121.9(8) . . ?
N1L C1L C2L 122.4(10) . . ?
C1L C2L C3L 118.8(10) . . ?
C4L C3L C2L 119.9(11) . . ?
C4L C3L C6L 122.1(12) . . ?
C2L C3L C6L 118.0(11) . . ?
C3L C4L C5L 116.6(11) . . ?
N1L C5L C4L 125.3(10) . . ?
C6L N2L C8L 120.0 . . ?
N2L C6L N3L 120.0 . . ?
N2L C6L C3L 120.9(8) . . ?
N3L C6L C3L 118.7(8) . . ?
C7L N3L C6L 120.0 . . ?
N3L C7L N4L 120.0 . . ?
N3L C7L C9L 119.6(9) . . ?
N4L C7L C9L 120.3(9) . . ?
C8L N4L C7L 120.0 . . ?
N4L C8L N2L 120.0 . . ?
N4L C8L C12L 120.9(8) . . ?
N2L C8L C12L 118.9(8) . . ?
C14L N5L C10L 118.6(9) . . ?
C14L N5L Pd1 121.3(7) . 2_576 ?
C10L N5L Pd1 120.1(8) . 2_576 ?
N5L C10L C11L 121.6(10) . . ?
C12L C11L C10L 119.9(11) . . ?
C11L C12L C13L 120.0(11) . . ?
C11L C12L C8L 121.1(11) . . ?
C13L C12L C8L 118.9(11) . . ?
C12L C13L C14L 119.6(11) . . ?
N5L C14L C13L 120.2(10) . . ?
C5M N1M C1M 117.8(8) . . ?
C5M N1M Pd8 120.9(7) . . ?
C1M N1M Pd8 121.4(6) . . ?
C2M C1M N1M 122.7(8) . . ?
C1M C2M C3M 119.0(9) . . ?
C4M C3M C2M 118.5(8) . . ?
C4M C3M C6M 122.8(8) . . ?
C2M C3M C6M 118.7(9) . . ?
C3M C4M C5M 120.3(9) . . ?
N1M C5M C4M 121.3(9) . . ?
C6M N2M C8M 116.3(8) . . ?
N2M C6M N3M 125.9(9) . . ?
N2M C6M C3M 118.8(8) . . ?
N3M C6M C3M 115.3(9) . . ?
C7M N3M C6M 113.8(8) . . ?
N3M C7M N4M 125.3(9) . . ?
N3M C7M C9M 116.3(10) . . ?
N4M C7M C9M 118.2(9) . . ?
C7M N4M C8M 116.2(8) . . ?
N4M C8M N2M 122.5(9) . . ?
N4M C8M C12M 120.0(9) . . ?
N2M C8M C12M 117.5(8) . . ?
C14M N5M C10M 117.0(8) . . ?
C14M N5M Pd12 121.4(7) . . ?
C10M N5M Pd12 121.5(6) . . ?
N5M C10M C11M 122.8(9) . . ?
C10M C11M C12M 120.0(9) . . ?
C13M C12M C11M 117.6(9) . . ?
C13M C12M C8M 121.2(9) . . ?
C11M C12M C8M 121.0(9) . . ?
C12M C13M C14M 121.2(9) . . ?
N5M C14M C13M 121.2(9) . . ?
C5N N1N C1N 117.7(8) . . ?
C5N N1N Pd9 120.9(6) . . ?
C1N N1N Pd9 121.3(6) . . ?
C2N C1N N1N 122.4(9) . . ?
C1N C2N C3N 121.7(10) . . ?
C4N C3N C2N 116.0(9) . . ?
C4N C3N C6N 122.5(9) . . ?
C2N C3N C6N 121.5(9) . . ?
C3N C4N C5N 121.8(9) . . ?
N1N C5N C4N 120.2(9) . . ?
C6N N2N C8N 114.7(8) . . ?
N2N C6N N3N 126.2(9) . . ?
N2N C6N C3N 117.1(9) . . ?
N3N C6N C3N 116.6(9) . . ?
C6N N3N C7N 113.1(9) . . ?
N4N C7N N3N 126.5(10) . . ?
N4N C7N C9N 118.2(12) . . ?
N3N C7N C9N 115.3(12) . . ?
C8N N4N C7N 114.4(9) . . ?
N4N C8N N2N 124.7(9) . . ?
N4N C8N C12N 117.7(9) . . ?
N2N C8N C12N 117.5(9) . . ?
C14N N5N C10N 118.7(8) . . ?
C14N N5N Pd8 121.4(7) . . ?
C10N N5N Pd8 119.9(6) . . ?
C11N C10N N5N 121.5(9) . . ?
C10N C11N C12N 119.8(9) . . ?
C13N C12N C11N 117.2(9) . . ?
C13N C12N C8N 121.8(9) . . ?
C11N C12N C8N 121.0(9) . . ?
C14N C13N C12N 121.4(9) . . ?
N5N C14N C13N 121.5(9) . . ?
C5O N1O C1O 117.4(8) . . ?
C5O N1O Pd8 121.8(6) . . ?
C1O N1O Pd8 120.7(7) . . ?
N1O C1O C2O 122.9(9) . . ?
C3O C2O C1O 118.4(9) . . ?
C2O C3O C4O 117.6(9) . . ?
C2O C3O C6O 120.9(10) . . ?
C4O C3O C6O 121.5(10) . . ?
C5O C4O C3O 121.9(10) . . ?
N1O C5O C4O 121.8(9) . . ?
C6O N2O C8O 120.0 . . ?
C3O C6O N2O 118.7(7) . . ?
C3O C6O N3O 121.2(7) . . ?
N2O C6O N3O 120.0 . . ?
C7O N3O C6O 120.0 . . ?
N3O C7O N4O 120.0 . . ?
N3O C7O C9O 118.4(8) . . ?
N4O C7O C9O 121.6(8) . . ?
C8O N4O C7O 120.0 . . ?
N4O C8O N2O 120.0 . . ?
N4O C8O C12O 120.0(6) . . ?
N2O C8O C12O 120.0(6) . . ?
C14O N5O C10O 117.1(9) . . ?
C14O N5O Pd7 121.5(7) . . ?
C10O N5O Pd7 121.4(7) . . ?
C11O C10O N5O 122.0(9) . . ?
C10O C11O C12O 119.8(9) . . ?
C13O C12O C11O 118.7(10) . . ?
C13O C12O C8O 121.6(10) . . ?
C11O C12O C8O 119.7(9) . . ?
C12O C13O C14O 120.1(10) . . ?
N5O C14O C13O 122.3(10) . . ?
C1P N1P C5P 117.6(8) . . ?
C1P N1P Pd7 122.1(7) . . ?
C5P N1P Pd7 120.3(6) . . ?
N1P C1P C2P 123.3(9) . . ?
C1P C2P C3P 121.1(9) . . ?
C4P C3P C2P 116.1(9) . . ?
C4P C3P C6P 122.6(9) . . ?
C2P C3P C6P 121.2(9) . . ?
C3P C4P C5P 119.8(9) . . ?
N1P C5P C4P 121.7(8) . . ?
C8P N2P C6P 115.2(8) . . ?
N2P C6P N3P 123.8(9) . . ?
N2P C6P C3P 118.1(9) . . ?
N3P C6P C3P 118.1(9) . . ?
C7P N3P C6P 116.3(8) . . ?
N4P C7P N3P 124.4(9) . . ?
N4P C7P C9P 117.0(10) . . ?
N3P C7P C9P 118.5(10) . . ?
C7P N4P C8P 114.1(8) . . ?
N2P C8P N4P 126.2(8) . . ?
N2P C8P C12P 117.7(9) . . ?
N4P C8P C12P 116.1(9) . . ?
C14P N5P C10P 118.5(8) . . ?
C14P N5P Pd9 121.0(6) . . ?
C10P N5P Pd9 120.5(6) . . ?
C11P C10P N5P 122.2(9) . . ?
C10P C11P C12P 119.4(9) . . ?
C11P C12P C13P 119.1(9) . . ?
C11P C12P C8P 119.9(9) . . ?
C13P C12P C8P 121.0(9) . . ?
C12P C13P C14P 118.2(9) . . ?
N5P C14P C13P 122.4(9) . . ?
C5Q N1Q C1Q 118.9(8) . . ?
C5Q N1Q Pd9 120.8(6) . . ?
C1Q N1Q Pd9 120.3(6) . . ?
N1Q C1Q C2Q 123.2(9) . . ?
C3Q C2Q C1Q 117.7(9) . . ?
C2Q C3Q C4Q 118.4(9) . . ?
C2Q C3Q C6Q 127.5(14) . . ?
C4Q C3Q C6Q 114.1(14) . . ?
C2Q C3Q C56Q 116.9(12) . . ?
C4Q C3Q C56Q 124.6(12) . . ?
C6Q C3Q C56Q 10.9(17) . . ?
C5Q C4Q C3Q 120.3(9) . . ?
N1Q C5Q C4Q 121.4(9) . . ?
C6Q N2Q C8Q 120.0 . . ?
N2Q C6Q N3Q 120.0 . . ?
N2Q C6Q C3Q 108.1(19) . . ?
N3Q C6Q C3Q 130.4(19) . . ?
C6Q N3Q C7Q 120.0 . . ?
N4Q C7Q N3Q 120.0 . . ?
N4Q C7Q C9Q 129(2) . . ?
N3Q C7Q C9Q 111(2) . . ?
C8Q N4Q C7Q 120.0 . . ?
N4Q C8Q N2Q 120.0 . . ?
N4Q C8Q C12Q 109(2) . . ?
N2Q C8Q C12Q 130.3(19) . . ?
C56Q N52Q C58Q 120.0 . . ?
N52Q C56Q N53Q 120.0 . . ?
N52Q C56Q C3Q 125.5(14) . . ?
N53Q C56Q C3Q 114.4(14) . . ?
C57Q N53Q C56Q 120.0 . . ?
N53Q C57Q N54Q 120.0 . . ?
N53Q C57Q C59Q 125.5(17) . . ?
N54Q C57Q C59Q 114.3(17) . . ?
C58Q N54Q C57Q 120.0 . . ?
N54Q C58Q N52Q 120.0 . . ?
N54Q C58Q C12Q 128.2(14) . . ?
N52Q C58Q C12Q 111.5(15) . . ?
C10Q N5Q C14Q 118.1(9) . . ?
C10Q N5Q Pd11 121.3(7) . . ?
C14Q N5Q Pd11 120.6(7) . . ?
N5Q C10Q C11Q 123.1(9) . . ?
C10Q C11Q C12Q 118.3(9) . . ?
C13Q C12Q C11Q 119.1(9) . . ?
C13Q C12Q C58Q 116.6(12) . . ?
C11Q C12Q C58Q 124.2(12) . . ?
C13Q C12Q C8Q 125.6(14) . . ?
C11Q C12Q C8Q 115.3(13) . . ?
C58Q C12Q C8Q 9.1(16) . . ?
C12Q C13Q C14Q 121.1(10) . . ?
N5Q C14Q C13Q 120.1(9) . . ?
C5R N1R C1R 119.2(8) . . ?
C5R N1R Pd10 120.7(7) . . ?
C1R N1R Pd10 120.1(6) . . ?
N1R C1R C2R 120.5(9) . . ?
C1R C2R C3R 123.1(10) . . ?
C4R C3R C2R 114.5(9) . . ?
C4R C3R C6R 123.2(9) . . ?
C2R C3R C6R 122.3(9) . . ?
C3R C4R C5R 122.4(9) . . ?
N1R C5R C4R 120.2(9) . . ?
C6R N2R C8R 114.6(8) . . ?
N2R C6R N3R 126.8(9) . . ?
N2R C6R C3R 116.9(9) . . ?
N3R C6R C3R 116.3(10) . . ?
C6R N3R C7R 113.7(9) . . ?
N4R C7R N3R 125.3(10) . . ?
N4R C7R C9R 117.8(12) . . ?
N3R C7R C9R 116.8(11) . . ?
C7R N4R C8R 116.3(9) . . ?
N4R C8R N2R 123.3(9) . . ?
N4R C8R C12R 119.7(9) . . ?
N2R C8R C12R 116.9(9) . . ?
C10R N5R C14R 116.2(8) . . ?
C10R N5R Pd9 122.1(6) . . ?
C14R N5R Pd9 121.7(6) . . ?
N5R C10R C11R 124.0(9) . . ?
C12R C11R C10R 118.8(9) . . ?
C11R C12R C13R 118.0(9) . . ?
C11R C12R C8R 121.9(9) . . ?
C13R C12R C8R 120.1(9) . . ?
C14R C13R C12R 118.1(9) . . ?
N5R C14R C13R 124.9(9) . . ?
C1S N1S C5S 118.3(8) . . ?
C1S N1S Pd10 120.3(6) . . ?
C5S N1S Pd10 121.4(6) . . ?
N1S C1S C2S 122.5(9) . . ?
C3S C2S C1S 119.4(9) . . ?
C2S C3S C4S 117.2(9) . . ?
C2S C3S C56S 119.2(10) . . ?
C4S C3S C56S 123.5(10) . . ?
C2S C3S C6S 133.0(15) . . ?
C4S C3S C6S 109.8(15) . . ?
C56S C3S C6S 14.1(15) . . ?
C5S C4S C3S 121.0(9) . . ?
N1S C5S C4S 121.3(9) . . ?
C6S N2S C8S 120.0 . . ?
N3S C6S N2S 120.0 . . ?
N3S C6S C3S 135(2) . . ?
N2S C6S C3S 101(2) . . ?
C6S N3S C7S 120.0 . . ?
N4S C7S N3S 120.0 . . ?
N4S C7S C9S 105(4) . . ?
N3S C7S C9S 135(4) . . ?
C7S N4S C8S 120.0 . . ?
N4S C8S N2S 120.0 . . ?
N4S C8S C12S 105(3) . . ?
N2S C8S C12S 135(3) . . ?
C56S N52S C58S 120.0 . . ?
N52S C56S N53S 120.0 . . ?
N52S C56S C3S 123.5(9) . . ?
N53S C56S C3S 116.5(9) . . ?
C57S N53S C56S 120.0 . . ?
N54S C57S N53S 120.0 . . ?
N54S C57S C59S 117.4(11) . . ?
N53S C57S C59S 122.2(11) . . ?
C57S N54S C58S 120.0 . . ?
N54S C58S N52S 120.0 . . ?
N54S C58S C12S 124.3(10) . . ?
N52S C58S C12S 115.5(10) . . ?
C10S N5S C14S 117.2(8) . . ?
C10S N5S Pd12 121.5(7) . 2_665 ?
C14S N5S Pd12 121.2(7) . 2_665 ?
N5S C10S C11S 121.6(9) . . ?
C10S C11S C12S 120.8(9) . . ?
C13S C12S C11S 118.3(9) . . ?
C13S C12S C58S 119.5(10) . . ?
C11S C12S C58S 121.9(10) . . ?
C13S C12S C8S 127.9(17) . . ?
C11S C12S C8S 113.6(16) . . ?
C58S C12S C8S 12.5(19) . . ?
C12S C13S C14S 121.1(10) . . ?
N5S C14S C13S 120.9(9) . . ?
C5T N1T C1T 118.4(8) . . ?
C5T N1T Pd10 120.8(6) . . ?
C1T N1T Pd10 120.8(6) . . ?
N1T C1T C2T 121.4(9) . . ?
C3T C2T C1T 120.0(9) . . ?
C2T C3T C4T 120.0(9) . . ?
C2T C3T C6T 121.2(10) . . ?
C4T C3T C6T 118.8(10) . . ?
C3T C4T C5T 117.4(9) . . ?
N1T C5T C4T 122.9(9) . . ?
C8T N2T C6T 114.9(9) . . ?
N3T C6T N2T 124.7(9) . . ?
N3T C6T C3T 118.8(10) . . ?
N2T C6T C3T 116.5(10) . . ?
C6T N3T C7T 115.2(10) . . ?
N4T C7T N3T 125.6(12) . . ?
N4T C7T C9T 116.6(13) . . ?
N3T C7T C9T 117.5(12) . . ?
C7T N4T C8T 113.8(10) . . ?
N2T C8T N4T 125.4(9) . . ?
N2T C8T C12T 118.9(10) . . ?
N4T C8T C12T 115.6(10) . . ?
C14T N5T C10T 116.2(8) . . ?
C14T N5T Pd8 121.8(7) . 2_665 ?
C10T N5T Pd8 122.1(7) . 2_665 ?
N5T C10T C11T 120.8(9) . . ?
C12T C11T C10T 123.6(10) . . ?
C11T C12T C13T 116.5(9) . . ?
C11T C12T C8T 120.5(9) . . ?
C13T C12T C8T 123.0(10) . . ?
C12T C13T C14T 119.2(10) . . ?
N5T C14T C13T 123.7(9) . . ?
C5U N1U C1U 118.6(8) . . ?
C5U N1U Pd10 121.0(6) . . ?
C1U N1U Pd10 120.5(6) . . ?
N1U C1U C2U 122.5(8) . . ?
C1U C2U C3U 118.4(9) . . ?
C4U C3U C2U 118.9(8) . . ?
C4U C3U C6U 122.9(9) . . ?
C2U C3U C6U 118.2(9) . . ?
C3U C4U C5U 119.3(9) . . ?
N1U C5U C4U 122.3(9) . . ?
C6U N2U C8U 116.8(8) . . ?
N2U C6U N3U 127.0(8) . . ?
N2U C6U C3U 118.9(9) . . ?
N3U C6U C3U 114.1(9) . . ?
C7U N3U C6U 112.5(8) . . ?
N3U C7U N4U 125.0(9) . . ?
N3U C7U C9U 116.5(10) . . ?
N4U C7U C9U 118.4(9) . . ?
C7U N4U C8U 116.7(8) . . ?
N2U C8U N4U 122.0(8) . . ?
N2U C8U C12U 119.5(8) . . ?
N4U C8U C12U 118.5(9) . . ?
C14U N5U C10U 118.1(8) . . ?
C14U N5U Pd11 120.7(6) . . ?
C10U N5U Pd11 121.1(7) . . ?
N5U C10U C11U 121.3(8) . . ?
C12U C11U C10U 122.5(9) . . ?
C13U C12U C11U 114.5(9) . . ?
C13U C12U C8U 124.0(9) . . ?
C11U C12U C8U 121.3(9) . . ?
C12U C13U C14U 122.6(9) . . ?
N5U C14U C13U 120.4(9) . . ?
C5V N1V C1V 118.0(9) . . ?
C5V N1V Pd11 121.0(7) . . ?
C1V N1V Pd11 120.9(7) . . ?
N1V C1V C2V 122.5(9) . . ?
C1V C2V C3V 119.6(9) . . ?
C2V C3V C4V 118.3(9) . . ?
C2V C3V C56V 124.4(14) . . ?
C4V C3V C56V 116.1(13) . . ?
C2V C3V C6V 120.0(13) . . ?
C4V C3V C6V 121.6(14) . . ?
C56V C3V C6V 15(2) . . ?
C3V C4V C5V 118.3(10) . . ?
N1V C5V C4V 122.4(9) . . ?
C6V N2V C8V 120.0 . . ?
N2V C6V N3V 120.0 . . ?
N2V C6V C3V 123.6(19) . . ?
N3V C6V C3V 116.4(19) . . ?
C7V N3V C6V 120.0 . . ?
C9V C7V N3V 123(3) . . ?
C9V C7V N4V 117(3) . . ?
N3V C7V N4V 120.0 . . ?
C8V N4V C7V 120.0 . . ?
N4V C8V N2V 120.0 . . ?
N4V C8V C12V 128(2) . . ?
N2V C8V C12V 112(2) . . ?
C56V N52V C58V 120.0 . . ?
N52V C56V N53V 120.0 . . ?
N52V C56V C3V 113.5(16) . . ?
N53V C56V C3V 126.4(17) . . ?
C57V N53V C56V 120.0 . . ?
N54V C57V N53V 120.0 . . ?
N54V C57V C59V 121.7(18) . . ?
N53V C57V C59V 118.3(18) . . ?
C57V N54V C58V 120.0 . . ?
N54V C58V N52V 120.0 . . ?
N54V C58V C12V 116.1(15) . . ?
N52V C58V C12V 123.6(15) . . ?
C14V N5V C10V 117.5(9) . . ?
C14V N5V Pd7 122.5(7) . 2_665 ?
C10V N5V Pd7 119.8(7) . 2_665 ?
N5V C10V C11V 120.1(10) . . ?
C10V C11V C12V 119.6(9) . . ?
C13V C12V C11V 119.2(9) . . ?
C13V C12V C8V 116.1(15) . . ?
C11V C12V C8V 123.6(15) . . ?
C13V C12V C58V 123.7(13) . . ?
C11V C12V C58V 116.8(12) . . ?
C8V C12V C58V 17(2) . . ?
C12V C13V C14V 119.0(10) . . ?
N5V C14V C13V 124.5(10) . . ?
C5W N1W C1W 115.8(9) . . ?
C5W N1W Pd11 122.3(7) . . ?
C1W N1W Pd11 121.8(7) . . ?
C2W C1W N1W 122.2(9) . . ?
C1W C2W C3W 120.4(9) . . ?
C4W C3W C2W 118.1(9) . . ?
C4W C3W C56W 120.7(11) . . ?
C2W C3W C56W 121.2(11) . . ?
C4W C3W C6W 122(2) . . ?
C2W C3W C6W 120.0(19) . . ?
C56W C3W C6W 4(3) . . ?
C3W C4W C5W 119.0(10) . . ?
N1W C5W C4W 124.3(10) . . ?
C6W N2W C8W 120.0 . . ?
N3W C6W N2W 120.0 . . ?
N3W C6W C3W 110(3) . . ?
N2W C6W C3W 127(3) . . ?
C7W N3W C6W 120.0 . . ?
N3W C7W N4W 120.0 . . ?
N3W C7W C9W 143(4) . . ?
N4W C7W C9W 97(4) . . ?
C8W N4W C7W 120.0 . . ?
N4W C8W N2W 120.0 . . ?
N4W C8W C12W 134(3) . . ?
N2W C8W C12W 106(3) . . ?
C56W N52W C58W 120.0 . . ?
N53W C56W N52W 120.0 . . ?
N53W C56W C3W 121.1(11) . . ?
N52W C56W C3W 118.9(11) . . ?
C56W N53W C57W 120.0 . . ?
N53W C57W N54W 120.0 . . ?
N53W C57W C59W 116.0(11) . . ?
N54W C57W C59W 124.0(11) . . ?
C58W N54W C57W 120.0 . . ?
N54W C58W N52W 120.0 . . ?
N54W C58W C12W 118.3(9) . . ?
N52W C58W C12W 121.6(9) . . ?
C14W N5W C10W 115.4(8) . . ?
C14W N5W Pd12 122.9(7) . . ?
C10W N5W Pd12 121.5(7) . . ?
C11W C10W N5W 122.9(9) . . ?
C10W C11W C12W 119.4(9) . . ?
C13W C12W C11W 119.5(9) . . ?
C13W C12W C58W 121.2(10) . . ?
C11W C12W C58W 119.2(10) . . ?
C13W C12W C8W 112.8(17) . . ?
C11W C12W C8W 125.9(18) . . ?
C58W C12W C8W 19(2) . . ?
C12W C13W C14W 117.4(9) . . ?
N5W C14W C13W 125.1(9) . . ?
C5X N1X C1X 117.4(9) . . ?
C5X N1X Pd12 121.5(7) . . ?
C1X N1X Pd12 121.1(7) . . ?
N1X C1X C2X 120.5(9) . . ?
C3X C2X C1X 121.8(9) . . ?
C2X C3X C4X 119.1(9) . . ?
C2X C3X C6X 126.7(15) . . ?
C4X C3X C6X 113.5(15) . . ?
C2X C3X C56X 119.3(13) . . ?
C4X C3X C56X 121.1(13) . . ?
C6X C3X C56X 16(2) . . ?
C3X C4X C5X 114.8(10) . . ?
N1X C5X C4X 126.3(10) . . ?
C6X N2X C8X 120.0 . . ?
N2X C6X N3X 120.0 . . ?
N2X C6X C3X 111(2) . . ?
N3X C6X C3X 129(2) . . ?
C6X N3X C7X 120.0 . . ?
N4X C7X N3X 120.0 . . ?
N4X C7X C9X 128(2) . . ?
N3X C7X C9X 111(2) . . ?
C7X N4X C8X 120.0 . . ?
N4X C8X N2X 120.0 . . ?
N4X C8X C12X 115.7(19) . . ?
N2X C8X C12X 124.3(19) . . ?
C56X N52X C58X 120.0 . . ?
N52X C56X N53X 120.0 . . ?
N52X C56X C3X 123.4(16) . . ?
N53X C56X C3X 116.4(16) . . ?
C57X N53X C56X 120.0 . . ?
N53X C57X N54X 120.0 . . ?
N53X C57X C59X 124(2) . . ?
N54X C57X C59X 116(2) . . ?
C58X N54X C57X 120.0 . . ?
N54X C58X N52X 120.0 . . ?
N54X C58X C12X 126.3(17) . . ?
N52X C58X C12X 113.5(17) . . ?
C14X N5X C10X 118.1(9) . . ?
C14X N5X Pd7 119.8(7) . 2_665 ?
C10X N5X Pd7 122.0(7) . 2_665 ?
N5X C10X C11X 123.3(10) . . ?
C10X C11X C12X 118.2(10) . . ?
C13X C12X C11X 119.9(9) . . ?
C13X C12X C58X 116.9(13) . . ?
C11X C12X C58X 122.1(14) . . ?
C13X C12X C8X 121.9(14) . . ?
C11X C12X C8X 118.2(14) . . ?
C58X C12X C8X 14(2) . . ?
C12X C13X C14X 118.4(10) . . ?
N5X C14X C13X 121.7(10) . . ?
N1E Pd1 N5F 89.7(3) . . ?
N1E Pd1 N1K 179.6(4) . 2_576 ?
N5F Pd1 N1K 90.7(3) . 2_576 ?
N1E Pd1 N5L 90.1(3) . 2_576 ?
N5F Pd1 N5L 179.3(4) . 2_576 ?
N1K Pd1 N5L 89.5(3) 2_576 2_576 ?
N5D Pd2 N1G 89.9(4) . . ?
N5D Pd2 N5H 179.1(3) . . ?
N1G Pd2 N5H 90.9(3) . . ?
N5D Pd2 N1F 88.0(3) . . ?
N1G Pd2 N1F 177.9(4) . . ?
N5H Pd2 N1F 91.2(3) . . ?
N5A Pd3 N5C 89.0(3) . . ?
N5A Pd3 N5E 89.9(3) . . ?
N5C Pd3 N5E 178.8(4) . . ?
N5A Pd3 N1D 179.6(4) . . ?
N5C Pd3 N1D 91.4(3) . . ?
N5E Pd3 N1D 89.7(3) . . ?
N1H Pd4 N5I 88.8(3) 2_576 2_576 ?
N1H Pd4 N5B 89.5(4) 2_576 . ?
N5I Pd4 N5B 178.2(4) 2_576 . ?
N1H Pd4 N1A 179.5(4) 2_576 . ?
N5I Pd4 N1A 91.1(3) 2_576 . ?
N5B Pd4 N1A 90.6(4) . . ?
N5K Pd5 N1B 89.8(3) . . ?
N5K Pd5 N1C 178.6(3) . . ?
N1B Pd5 N1C 91.2(3) . . ?
N5K Pd5 N5J 89.9(3) . . ?
N1B Pd5 N5J 179.2(4) . . ?
N1C Pd5 N5J 89.1(3) . . ?
N5G Pd6 N1I 90.0(3) . . ?
N5G Pd6 N1J 90.1(3) . . ?
N1I Pd6 N1J 179.1(4) . . ?
N5G Pd6 N1L 178.8(3) . . ?
N1I Pd6 N1L 90.1(3) . . ?
N1J Pd6 N1L 89.9(3) . . ?
N5V Pd7 N1P 179.3(3) 2_665 . ?
N5V Pd7 N5O 89.9(3) 2_665 . ?
N1P Pd7 N5O 89.4(3) . . ?
N5V Pd7 N5X 89.3(3) 2_665 2_665 ?
N1P Pd7 N5X 91.3(3) . 2_665 ?
N5O Pd7 N5X 179.2(3) . 2_665 ?
N5T Pd8 N5N 179.8(3) 2_665 . ?
N5T Pd8 N1O 91.3(3) 2_665 . ?
N5N Pd8 N1O 88.9(3) . . ?
N5T Pd8 N1M 89.1(3) 2_665 . ?
N5N Pd8 N1M 90.7(3) . . ?
N1O Pd8 N1M 179.6(3) . . ?
N1N Pd9 N5R 179.3(3) . . ?
N1N Pd9 N1Q 91.3(3) . . ?
N5R Pd9 N1Q 89.4(3) . . ?
N1N Pd9 N5P 89.1(3) . . ?
N5R Pd9 N5P 90.3(3) . . ?
N1Q Pd9 N5P 179.5(3) . . ?
N1T Pd10 N1S 89.3(3) . . ?
N1T Pd10 N1U 90.4(3) . . ?
N1S Pd10 N1U 179.6(3) . . ?
N1T Pd10 N1R 179.9(3) . . ?
N1S Pd10 N1R 90.7(3) . . ?
N1U Pd10 N1R 89.6(3) . . ?
N1W Pd11 N1V 89.1(3) . . ?
N1W Pd11 N5U 179.0(3) . . ?
N1V Pd11 N5U 91.7(3) . . ?
N1W Pd11 N5Q 90.4(3) . . ?
N1V Pd11 N5Q 179.5(3) . . ?
N5U Pd11 N5Q 88.8(3) . . ?
N5W Pd12 N1X 89.5(3) . . ?
N5W Pd12 N5S 179.4(3) . 2_665 ?
N1X Pd12 N5S 90.0(3) . 2_665 ?
N5W Pd12 N5M 90.7(3) . . ?
N1X Pd12 N5M 179.5(3) . . ?
N5S Pd12 N5M 89.9(3) 2_665 . ?
F18 B11 F14 55.4(18) . . ?
F18 B11 F17 122(2) . . ?
F14 B11 F17 66.5(19) . . ?
F18 B11 F12 63(2) . . ?
F14 B11 F12 112(2) . . ?
F17 B11 F12 149(2) . . ?
F18 B11 F13 149(2) . . ?
F14 B11 F13 113(2) . . ?
F17 B11 F13 54.1(18) . . ?
F12 B11 F13 104(2) . . ?
F18 B11 F16 116(2) . . ?
F14 B11 F16 143(2) . . ?
F17 B11 F16 107.1(18) . . ?
F12 B11 F16 54.0(19) . . ?
F13 B11 F16 53.2(16) . . ?
F18 B11 F11 102.2(18) . . ?
F14 B11 F11 109.9(17) . . ?
F17 B11 F11 100.3(17) . . ?
F12 B11 F11 109.1(18) . . ?
F13 B11 F11 109.0(18) . . ?
F16 B11 F11 107.3(17) . . ?
F23 B21 F27 39.9(13) . . ?
F23 B21 F21 88(2) . . ?
F27 B21 F21 102(3) . . ?
F23 B21 F25 76(2) . . ?
F27 B21 F25 101(2) . . ?
F21 B21 F25 18(2) . . ?
F23 B21 F26 99(2) . . ?
F27 B21 F26 103.3(19) . . ?
F21 B21 F26 147(2) . . ?
F25 B21 F26 134(2) . . ?
F23 B21 F24 103(2) . . ?
F27 B21 F24 67.0(17) . . ?
F21 B21 F24 137(2) . . ?
F25 B21 F24 153(2) . . ?
F26 B21 F24 73.0(15) . . ?
F23 B21 F28 149(2) . . ?
F27 B21 F28 114(2) . . ?
F21 B21 F28 83(2) . . ?
F25 B21 F28 100(2) . . ?
F26 B21 F28 104.8(19) . . ?
F24 B21 F28 66.0(16) . . ?
F23 B21 F22 99(2) . . ?
F27 B21 F22 129(2) . . ?
F21 B21 F22 105(2) . . ?
F25 B21 F22 92(2) . . ?
F26 B21 F22 42.6(11) . . ?
F24 B21 F22 114.4(17) . . ?
F28 B21 F22 112(2) . . ?
F35 B31 F33 133(2) . . ?
F35 B31 F32 80(2) . . ?
F33 B31 F32 126(2) . . ?
F35 B31 F36 112(2) . . ?
F33 B31 F36 114(3) . . ?
F32 B31 F36 53.6(19) . . ?
F35 B31 F38 108.3(19) . . ?
F33 B31 F38 57(2) . . ?
F32 B31 F38 166(2) . . ?
F36 B31 F38 112(2) . . ?
F35 B31 F37 110(2) . . ?
F33 B31 F37 50(2) . . ?
F32 B31 F37 81(2) . . ?
F36 B31 F37 108(2) . . ?
F38 B31 F37 106(2) . . ?
F35 B31 F34 100(2) . . ?
F33 B31 F34 109(2) . . ?
F32 B31 F34 103(2) . . ?
F36 B31 F34 56.3(19) . . ?
F38 B31 F34 65(2) . . ?
F37 B31 F34 150(2) . . ?
F35 B31 F31 25.5(17) . . ?
F33 B31 F31 110(2) . . ?
F32 B31 F31 103.6(16) . . ?
F36 B31 F31 135(2) . . ?
F38 B31 F31 86.4(19) . . ?
F37 B31 F31 105(2) . . ?
F34 B31 F31 102.3(16) . . ?
F43 B41 F41 105.0(18) . . ?
F43 B41 F42 115(2) . . ?
F41 B41 F42 114.3(17) . . ?
F43 B41 F44 117.8(19) . . ?
F41 B41 F44 102.1(18) . . ?
F42 B41 F44 102.5(19) . . ?
F53 B51 F58 131(3) . . ?
F53 B51 F55 118(2) . . ?
F58 B51 F55 110(2) . . ?
F53 B51 F57 55.0(18) . . ?
F58 B51 F57 116(2) . . ?
F55 B51 F57 110(2) . . ?
F53 B51 F54 119(2) . . ?
F58 B51 F54 54.7(18) . . ?
F55 B51 F54 101(2) . . ?
F57 B51 F54 69(2) . . ?
F53 B51 F52 114(2) . . ?
F58 B51 F52 52.5(18) . . ?
F55 B51 F52 94(2) . . ?
F57 B51 F52 156(2) . . ?
F54 B51 F52 107(2) . . ?
F53 B51 F56 45.2(16) . . ?
F58 B51 F56 113(2) . . ?
F55 B51 F56 108.2(19) . . ?
F57 B51 F56 100.2(18) . . ?
F54 B51 F56 150(2) . . ?
F52 B51 F56 72(2) . . ?
F53 B51 F51 111(2) . . ?
F58 B51 F51 117(2) . . ?
F55 B51 F51 8(2) . . ?
F57 B51 F51 102(2) . . ?
F54 B51 F51 102.1(18) . . ?
F52 B51 F51 101.9(18) . . ?
F56 B51 F51 107(2) . . ?
F62 B61 F61 107.8(19) . . ?
F62 B61 F64 117(2) . . ?
F61 B61 F64 103.8(17) . . ?
F62 B61 F63 110.5(19) . . ?
F61 B61 F63 113.7(19) . . ?
F64 B61 F63 104(2) . . ?
F76 B71 F73 123(3) . . ?
F76 B71 F72 47.9(17) . . ?
F73 B71 F72 110(2) . . ?
F76 B71 F74 61(2) . . ?
F73 B71 F74 111(2) . . ?
F72 B71 F74 109(2) . . ?
F76 B71 F78 116(2) . . ?
F73 B71 F78 49.5(16) . . ?
F72 B71 F78 147(2) . . ?
F74 B71 F78 67(2) . . ?
F76 B71 F71 118.9(18) . . ?
F73 B71 F71 118.2(19) . . ?
F72 B71 F71 107.4(16) . . ?
F74 B71 F71 101.2(15) . . ?
F78 B71 F71 105.6(16) . . ?
F76 B71 F77 107(2) . . ?
F73 B71 F77 52.2(18) . . ?
F72 B71 F77 66.2(19) . . ?
F74 B71 F77 153(2) . . ?
F78 B71 F77 101.6(18) . . ?
F71 B71 F77 105.8(17) . . ?
F83 B81 F82 129(2) . . ?
F83 B81 F85 35.2(15) . . ?
F82 B81 F85 146(2) . . ?
F83 B81 F86 89(2) . . ?
F82 B81 F86 43.9(13) . . ?
F85 B81 F86 103.4(19) . . ?
F83 B81 F88 143(2) . . ?
F82 B81 F88 86.0(18) . . ?
F85 B81 F88 108.7(19) . . ?
F86 B81 F88 115(2) . . ?
F83 B81 F84 111.7(19) . . ?
F82 B81 F84 116.0(18) . . ?
F85 B81 F84 95.3(19) . . ?
F86 B81 F84 159.2(19) . . ?
F88 B81 F84 48.3(13) . . ?
F83 B81 F87 87.5(18) . . ?
F82 B81 F87 89.2(17) . . ?
F85 B81 F87 112.7(19) . . ?
F86 B81 F87 107.7(19) . . ?
F88 B81 F87 108.9(18) . . ?
F84 B81 F87 72.5(16) . . ?
F83 B81 F81 90.6(18) . . ?
F82 B81 F81 95.6(18) . . ?
F85 B81 F81 63.7(15) . . ?
F86 B81 F81 76.9(18) . . ?
F88 B81 F81 70.1(16) . . ?
F84 B81 F81 103.9(19) . . ?
F87 B81 F81 175.0(19) . . ?
F91 B91 F95 26.6(17) . . ?
F91 B91 F98 75.0(17) . . ?
F95 B91 F98 94.7(18) . . ?
F91 B91 F93 100.8(19) . . ?
F95 B91 F93 84.6(19) . . ?
F98 B91 F93 86.2(18) . . ?
F91 B91 F96 70.8(17) . . ?
F95 B91 F96 73.9(16) . . ?
F98 B91 F96 121.2(19) . . ?
F93 B91 F96 146(2) . . ?
F91 B91 F97 148(2) . . ?
F95 B91 F97 121(2) . . ?
F98 B91 F97 127.2(19) . . ?
F93 B91 F97 63.0(16) . . ?
F96 B91 F97 106.1(18) . . ?
F91 B91 F92 75.9(16) . . ?
F95 B91 F92 68.3(15) . . ?
F98 B91 F92 141(2) . . ?
F93 B91 F92 124(2) . . ?
F96 B91 F92 22.4(19) . . ?
F97 B91 F92 90.4(19) . . ?
F91 B91 F94 125(2) . . ?
F95 B91 F94 151(2) . . ?
F98 B91 F94 69.8(17) . . ?
F93 B91 F94 117.4(18) . . ?
F96 B91 F94 92.8(19) . . ?
F97 B91 F94 87(2) . . ?
F92 B91 F94 108.2(18) . . ?
B91 F91 F92 54.6(11) . . ?
B91 F92 F91 49.4(10) . . ?
B91 F95 F96 55.4(11) . . ?
B91 F96 F95 50.7(10) . . ?
F103 B101 F102 106.4(19) . . ?
F103 B101 F105 97(3) . . ?
F102 B101 F105 150(2) . . ?
F103 B101 F101 102(2) . . ?
F102 B101 F101 135(2) . . ?
F105 B101 F101 16(3) . . ?
F103 B101 F106 65.3(17) . . ?
F102 B101 F106 82.0(16) . . ?
F105 B101 F106 125(2) . . ?
F101 B101 F106 142(2) . . ?
F103 B101 F107 62.8(18) . . ?
F102 B101 F107 73.2(19) . . ?
F105 B101 F107 102(2) . . ?
F101 B101 F107 91(2) . . ?
F106 B101 F107 111(2) . . ?
F103 B101 F104 106(2) . . ?
F102 B101 F104 110(2) . . ?
F105 B101 F104 80(2) . . ?
F101 B101 F104 93(2) . . ?
F106 B101 F104 59.6(15) . . ?
F107 B101 F104 169(2) . . ?
F103 B101 F108 151(2) . . ?
F102 B101 F108 45.5(14) . . ?
F105 B101 F108 108(2) . . ?
F101 B101 F108 98(2) . . ?
F106 B101 F108 109.5(18) . . ?
F107 B101 F108 96.2(19) . . ?
F104 B101 F108 94(2) . . ?
F112 B111 F116 34.5(16) . . ?
F112 B111 F113 117(2) . . ?
F116 B111 F113 150(2) . . ?
F112 B111 F117 78.8(17) . . ?
F116 B111 F117 97.3(17) . . ?
F113 B111 F117 59.1(14) . . ?
F112 B111 F118 160(2) . . ?
F116 B111 F118 125(2) . . ?
F113 B111 F118 83.2(18) . . ?
F117 B111 F118 110.4(18) . . ?
F112 B111 F114 98.0(18) . . ?
F116 B111 F114 72.7(16) . . ?
F113 B111 F114 116.5(19) . . ?
F117 B111 F114 80.2(17) . . ?
F118 B111 F114 66.9(16) . . ?
F112 B111 F115 68.5(15) . . ?
F116 B111 F115 75.8(17) . . ?
F113 B111 F115 105(2) . . ?
F117 B111 F115 131(2) . . ?
F118 B111 F115 112.9(19) . . ?
F114 B111 F115 138(2) . . ?
F112 B111 F111 75.6(16) . . ?
F116 B111 F111 70.0(16) . . ?
F113 B111 F111 120(2) . . ?
F117 B111 F111 150(2) . . ?
F118 B111 F111 99(2) . . ?
F114 B111 F111 119(2) . . ?
F115 B111 F111 21(2) . . ?
B111 F111 F112 47.9(9) . . ?
B111 F112 F111 56.5(12) . . ?
B111 F115 F116 48.3(10) . . ?
B111 F116 F115 55.9(12) . . ?
F128 B121 F121 139(2) . . ?
F128 B121 F125 118(2) . . ?
F121 B121 F125 21(2) . . ?
F128 B121 F122 88.1(17) . . ?
F121 B121 F122 133(2) . . ?
F125 B121 F122 153(2) . . ?
F128 B121 F123 66.5(18) . . ?
F121 B121 F123 102(2) . . ?
F125 B121 F123 91(2) . . ?
F122 B121 F123 106.5(19) . . ?
F128 B121 F127 106(2) . . ?
F121 B121 F127 101(2) . . ?
F125 B121 F127 113(2) . . ?
F122 B121 F127 61.1(15) . . ?
F123 B121 F127 63.0(17) . . ?
F128 B121 F126 122(2) . . ?
F121 B121 F126 79(2) . . ?
F125 B121 F126 93.9(19) . . ?
F122 B121 F126 64.5(16) . . ?
F123 B121 F126 166(2) . . ?
F127 B121 F126 102.8(19) . . ?
F128 B121 F124 50.2(15) . . ?
F121 B121 F124 96.0(19) . . ?
F125 B121 F124 79(2) . . ?
F122 B121 F124 117.1(19) . . ?
F123 B121 F124 97.2(19) . . ?
F127 B121 F124 156(2) . . ?
F126 B121 F124 97(2) . . ?
F13D B131 F138 19.4(18) . . ?
F13D B131 F133 138(2) . . ?
F138 B131 F133 154(2) . . ?
F13D B131 F131 65.6(17) . . ?
F138 B131 F131 74(2) . . ?
F133 B131 F131 110.7(19) . . ?
F13D B131 F136 161(2) . . ?
F138 B131 F136 147(2) . . ?
F133 B131 F136 58.3(16) . . ?
F131 B131 F136 103(2) . . ?
F13D B131 F134 20.9(18) . . ?
F138 B131 F134 35.8(17) . . ?
F133 B131 F134 119(2) . . ?
F131 B131 F134 77.1(18) . . ?
F136 B131 F134 177(2) . . ?
F13D B131 F132 86.1(18) . . ?
F138 B131 F132 67.2(17) . . ?
F133 B131 F132 123.6(19) . . ?
F131 B131 F132 120.8(19) . . ?
F136 B131 F132 88(2) . . ?
F134 B131 F132 94.4(18) . . ?
F13D B131 F135 64.6(16) . . ?
F138 B131 F135 77.6(17) . . ?
F133 B131 F135 102(2) . . ?
F131 B131 F135 14(2) . . ?
F136 B131 F135 108.4(19) . . ?
F134 B131 F135 71(2) . . ?
F132 B131 F135 133(2) . . ?
F13D B131 F13C 128.2(18) . . ?
F138 B131 F13C 119(2) . . ?
F133 B131 F13C 58.1(16) . . ?
F131 B131 F13C 166(2) . . ?
F136 B131 F13C 64.1(16) . . ?
F134 B131 F13C 115.2(19) . . ?
F132 B131 F13C 67.0(16) . . ?
F135 B131 F13C 160(2) . . ?
F13D B131 F13A 109.8(17) . . ?
F138 B131 F13A 125(2) . . ?
F133 B131 F13A 56.8(15) . . ?
F131 B131 F13A 54.2(18) . . ?
F136 B131 F13A 70.8(18) . . ?
F134 B131 F13A 108(2) . . ?
F132 B131 F13A 154(2) . . ?
F135 B131 F13A 48.0(18) . . ?
F13C B131 F13A 113.2(19) . . ?
F13D B131 F137 87.0(19) . . ?
F138 B131 F137 94.8(18) . . ?
F133 B131 F137 61.3(16) . . ?
F131 B131 F137 126(2) . . ?
F136 B131 F137 111.4(17) . . ?
F134 B131 F137 66.6(16) . . ?
F132 B131 F137 100.7(19) . . ?
F135 B131 F137 112.9(19) . . ?
F13C B131 F137 58.1(15) . . ?
F13A B131 F137 101(2) . . ?
F13D B131 F13B 107.5(19) . . ?
F138 B131 F13B 93(2) . . ?
F133 B131 F13B 113(2) . . ?
F131 B131 F13B 80.3(18) . . ?
F136 B131 F13B 54.5(16) . . ?
F134 B131 F13B 128(2) . . ?
F132 B131 F13B 59.5(16) . . ?
F135 B131 F13B 94(2) . . ?
F13C B131 F13B 96.0(17) . . ?
F13A B131 F13B 95.2(17) . . ?
F137 B131 F13B 153.4(19) . . ?
B131 F131 F134 51.6(11) . . ?
B131 F134 F131 51.3(11) . . ?
B131 F135 F138 49.5(10) . . ?
B131 F138 F135 52.9(11) . . ?
F145 B141 F142 79(2) . . ?
F145 B141 F144 116(2) . . ?
F142 B141 F144 119(2) . . ?
F145 B141 F147 118(2) . . ?
F142 B141 F147 79(2) . . ?
F144 B141 F147 125(3) . . ?
F145 B141 F146 118(2) . . ?
F142 B141 F146 75(2) . . ?
F144 B141 F146 45.5(18) . . ?
F147 B141 F146 110(2) . . ?
F145 B141 F143 114(2) . . ?
F142 B141 F143 120.8(19) . . ?
F144 B141 F143 105(2) . . ?
F147 B141 F143 43.0(15) . . ?
F146 B141 F143 127(3) . . ?
F145 B141 F148 104.2(18) . . ?
F142 B141 F148 176(2) . . ?
F144 B141 F148 58.9(18) . . ?
F147 B141 F148 99.5(19) . . ?
F146 B141 F148 103(2) . . ?
F143 B141 F148 58.1(18) . . ?
F145 B141 F141 22.9(15) . . ?
F142 B141 F141 102.4(17) . . ?
F144 B141 F141 104.8(16) . . ?
F147 B141 F141 122(2) . . ?
F146 B141 F141 126(2) . . ?
F143 B141 F141 101.3(17) . . ?
F148 B141 F141 81.3(18) . . ?
F15G B151 F157 28.6(19) . . ?
F15G B151 F153 15(2) . . ?
F157 B151 F153 25(2) . . ?
F15G B151 F15C 30.7(19) . . ?
F157 B151 F15C 51.9(18) . . ?
F153 B151 F15C 27(2) . . ?
F15G B151 F15B 160(3) . . ?
F157 B151 F15B 164(2) . . ?
F153 B151 F15B 155(2) . . ?
F15C B151 F15B 130.6(19) . . ?
F15G B151 F154 129(2) . . ?
F157 B151 F154 102(2) . . ?
F153 B151 F154 118(2) . . ?
F15C B151 F154 131(2) . . ?
F15B B151 F154 64.1(18) . . ?
F15G B151 F156 105(2) . . ?
F157 B151 F156 111.2(19) . . ?
F153 B151 F156 94(2) . . ?
F15C B151 F156 75.4(18) . . ?
F15B B151 F156 60.5(17) . . ?
F154 B151 F156 80(2) . . ?
F15G B151 F151 67(2) . . ?
F157 B151 F151 76(2) . . ?
F153 B151 F151 81(2) . . ?
F15C B151 F151 88(2) . . ?
F15B B151 F151 118(2) . . ?
F154 B151 F151 129(2) . . ?
F156 B151 F151 149(3) . . ?
F15G B151 F15F 121(2) . . ?
F157 B151 F15F 149(2) . . ?
F153 B151 F15F 130(3) . . ?
F15C B151 F15F 106(2) . . ?
F15B B151 F15F 46.6(17) . . ?
F154 B151 F15F 109(2) . . ?
F156 B151 F15F 78.3(17) . . ?
F151 B151 F15F 82(2) . . ?
F15G B151 F15D 79(2) . . ?
F157 B151 F15D 50.6(17) . . ?
F153 B151 F15D 71(2) . . ?
F15C B151 F15D 94.3(17) . . ?
F15B B151 F15D 116(2) . . ?
F154 B151 F15D 51.5(17) . . ?
F156 B151 F15D 103.5(19) . . ?
F151 B151 F15D 104(3) . . ?
F15F B151 F15D 159(2) . . ?
F15G B151 F155 55.3(17) . . ?
F157 B151 F155 77.7(17) . . ?
F153 B151 F155 70(2) . . ?
F15C B151 F155 64.7(17) . . ?
F15B B151 F155 118(2) . . ?
F154 B151 F155 159.5(18) . . ?
F156 B151 F155 119(2) . . ?
F151 B151 F155 31(2) . . ?
F15F B151 F155 72.0(18) . . ?
F15D B151 F155 122.4(19) . . ?
F15G B151 F15H 101.3(18) . . ?
F157 B151 F15H 89(2) . . ?
F153 B151 F15H 86(2) . . ?
F15C B151 F15H 84(2) . . ?
F15B B151 F15H 75.7(19) . . ?
F154 B151 F15H 51.8(16) . . ?
F156 B151 F15H 39.0(15) . . ?
F151 B151 F15H 166(2) . . ?
F15F B151 F15H 112.3(18) . . ?
F15D B151 F15H 64.8(18) . . ?
F155 B151 F15H 148(2) . . ?
B151 F151 F153 47.3(11) . . ?
B151 F153 F151 51.4(12) . . ?
B151 F155 F157 47.6(10) . . ?
B151 F157 F155 54.6(11) . . ?
F165 B161 F168 132(2) . . ?
F165 B161 F163 91(2) . . ?
F168 B161 F163 72(2) . . ?
F165 B161 F162 135(2) . . ?
F168 B161 F162 93(2) . . ?
F163 B161 F162 112.3(19) . . ?
F165 B161 F164 97(2) . . ?
F168 B161 F164 55(2) . . ?
F163 B161 F164 114(2) . . ?
F162 B161 F164 107(2) . . ?
F165 B161 F167 105.4(19) . . ?
F168 B161 F167 109(2) . . ?
F163 B161 F167 68(2) . . ?
F162 B161 F167 54.7(18) . . ?
F164 B161 F167 158(2) . . ?
F165 B161 F166 98.7(18) . . ?
F168 B161 F166 108(2) . . ?
F163 B161 F166 167(2) . . ?
F162 B161 F166 55.1(18) . . ?
F164 B161 F166 73(2) . . ?
F167 B161 F166 101(2) . . ?
F165 B161 F161 25.2(16) . . ?
F168 B161 F161 153(2) . . ?
F163 B161 F161 109.1(16) . . ?
F162 B161 F161 110.2(16) . . ?
F164 B161 F161 103.4(19) . . ?
F167 B161 F161 96(2) . . ?
F166 B161 F161 77.5(19) . . ?
F175 B171 F174 112(2) . . ?
F175 B171 F172 94(2) . . ?
F174 B171 F172 118(2) . . ?
F175 B171 F173 105(2) . . ?
F174 B171 F173 116(2) . . ?
F172 B171 F173 109.0(19) . . ?
F175 B171 F178 112(2) . . ?
F174 B171 F178 47.3(17) . . ?
F172 B171 F178 154(2) . . ?
F173 B171 F178 71.1(18) . . ?
F175 B171 F177 110.7(19) . . ?
F174 B171 F177 137(2) . . ?
F172 B171 F177 65.3(19) . . ?
F173 B171 F177 43.8(15) . . ?
F178 B171 F177 108.6(19) . . ?
F175 B171 F176 105.6(19) . . ?
F174 B171 F176 67.3(18) . . ?
F172 B171 F176 51.8(18) . . ?
F173 B171 F176 144(2) . . ?
F178 B171 F176 112.4(18) . . ?
F177 B171 F176 107.6(19) . . ?
F175 B171 F171 13(2) . . ?
F174 B171 F171 104.6(18) . . ?
F172 B171 F171 106.5(17) . . ?
F173 B171 F171 100.3(17) . . ?
F178 B171 F171 99(2) . . ?
F177 B171 F171 116(2) . . ?
F176 B171 F171 113(2) . . ?
F187 B181 F188 140(2) . . ?
F187 B181 F184 67(2) . . ?
F188 B181 F184 74(2) . . ?
F187 B181 F182 130(2) . . ?
F188 B181 F182 55.5(17) . . ?
F184 B181 F182 105(2) . . ?
F187 B181 F181 116(2) . . ?
F188 B181 F181 86.9(19) . . ?
F184 B181 F181 117(2) . . ?
F182 B181 F181 110.8(19) . . ?
F187 B181 F183 42.6(16) . . ?
F188 B181 F183 169(2) . . ?
F184 B181 F183 109(2) . . ?
F182 B181 F183 113.9(18) . . ?
F181 B181 F183 100.9(17) . . ?
F187 B181 F185 107(2) . . ?
F188 B181 F185 103.4(18) . . ?
F184 B181 F185 132(3) . . ?
F182 B181 F185 111(2) . . ?
F181 B181 F185 20(2) . . ?
F183 B181 F185 83(2) . . ?
F187 B181 F186 103.4(19) . . ?
F188 B181 F186 98.8(19) . . ?
F184 B181 F186 132(2) . . ?
F182 B181 F186 44.1(16) . . ?
F181 B181 F186 109(2) . . ?
F183 B181 F186 71.5(18) . . ?
F185 B181 F186 95.4(18) . . ?
F196 B191 F197 125(2) . . ?
F196 B191 F191 96(2) . . ?
F197 B191 F191 115(2) . . ?
F196 B191 F193 62.4(19) . . ?
F197 B191 F193 133(2) . . ?
F191 B191 F193 109(2) . . ?
F196 B191 F192 156(2) . . ?
F197 B191 F192 42.3(15) . . ?
F191 B191 F192 108(2) . . ?
F193 B191 F192 109.2(19) . . ?
F196 B191 F194 58.4(18) . . ?
F197 B191 F194 68.0(18) . . ?
F191 B191 F194 111.0(19) . . ?
F193 B191 F194 110(2) . . ?
F192 B191 F194 109.3(18) . . ?
F196 B191 F198 113(2) . . ?
F197 B191 F198 103.1(19) . . ?
F191 B191 F198 103(2) . . ?
F193 B191 F198 50.3(19) . . ?
F192 B191 F198 63.9(18) . . ?
F194 B191 F198 145(2) . . ?
F196 B191 F195 106.1(16) . . ?
F197 B191 F195 112.7(19) . . ?
F191 B191 F195 12(2) . . ?
F193 B191 F195 108(2) . . ?
F192 B191 F195 98.2(19) . . ?
F194 B191 F195 121.6(19) . . ?
F198 B191 F195 93.1(17) . . ?
F207 B201 F204 162(2) . . ?
F207 B201 F208 122(2) . . ?
F204 B201 F208 62(2) . . ?
F207 B201 F202 48.0(15) . . ?
F204 B201 F202 119.4(19) . . ?
F208 B201 F202 152(2) . . ?
F207 B201 F206 115(2) . . ?
F204 B201 F206 51.4(18) . . ?
F208 B201 F206 109(2) . . ?
F202 B201 F206 68.2(17) . . ?
F207 B201 F203 72(2) . . ?
F204 B201 F203 106(2) . . ?
F208 B201 F203 50(2) . . ?
F202 B201 F203 109(2) . . ?
F206 B201 F203 131(3) . . ?
F207 B201 F201 90(2) . . ?
F204 B201 F201 108(2) . . ?
F208 B201 F201 97(3) . . ?
F202 B201 F201 107.9(18) . . ?
F206 B201 F201 122(2) . . ?
F203 B201 F201 106(2) . . ?
F207 B201 F205 102(2) . . ?
F204 B201 F205 94(3) . . ?
F208 B201 F205 102(2) . . ?
F202 B201 F205 106(3) . . ?
F206 B201 F205 104(2) . . ?
F203 B201 F205 122(3) . . ?
F201 B201 F205 18(2) . . ?
F214 B211 F215 25.3(14) . . ?
F214 B211 F217 85.3(18) . . ?
F215 B211 F217 101.4(18) . . ?
F214 B211 F218 70.3(16) . . ?
F215 B211 F218 77.7(15) . . ?
F217 B211 F218 122.8(19) . . ?
F214 B211 F211 94.6(16) . . ?
F215 B211 F211 81.0(16) . . ?
F217 B211 F211 72.6(15) . . ?
F218 B211 F211 156(2) . . ?
F214 B211 F212 69.0(15) . . ?
F215 B211 F212 66.8(14) . . ?
F217 B211 F212 141(2) . . ?
F218 B211 F212 21.8(15) . . ?
F211 B211 F212 135.5(19) . . ?
F214 B211 F213 130(2) . . ?
F215 B211 F213 154(2) . . ?
F217 B211 F213 73.4(16) . . ?
F218 B211 F213 84.1(17) . . ?
F211 B211 F213 119.7(17) . . ?
F212 B211 F213 101.0(16) . . ?
F214 B211 F216 130(2) . . ?
F215 B211 F216 104.9(19) . . ?
F217 B211 F216 118.7(17) . . ?
F218 B211 F216 116.5(19) . . ?
F211 B211 F216 58.6(14) . . ?
F212 B211 F216 100.0(19) . . ?
F213 B211 F216 99(2) . . ?
B211 F212 F214 52.8(10) . . ?
B211 F214 F212 58.2(11) . . ?
B211 F215 F218 52.5(10) . . ?
B211 F218 F215 49.8(10) . . ?
F223 B221 F228 43.9(17) . . ?
F223 B221 F226 112(3) . . ?
F228 B221 F226 114(2) . . ?
F223 B221 F221 115(2) . . ?
F228 B221 F221 90.8(19) . . ?
F226 B221 F221 130(2) . . ?
F223 B221 F224 112(2) . . ?
F228 B221 F224 89(2) . . ?
F226 B221 F224 36.6(16) . . ?
F221 B221 F224 107.9(19) . . ?
F223 B221 F227 76(2) . . ?
F228 B221 F227 114(2) . . ?
F226 B221 F227 111(2) . . ?
F221 B221 F227 95(3) . . ?
F224 B221 F227 148(2) . . ?
F223 B221 F222 118(2) . . ?
F228 B221 F222 162(2) . . ?
F226 B221 F222 71(2) . . ?
F221 B221 F222 99(2) . . ?
F224 B221 F222 102.6(19) . . ?
F227 B221 F222 50.2(17) . . ?
F223 B221 F225 136(2) . . ?
F228 B221 F225 106.7(16) . . ?
F226 B221 F225 110.6(19) . . ?
F221 B221 F225 20.6(19) . . ?
F224 B221 F225 95(2) . . ?
F227 B221 F225 99.3(19) . . ?
F222 B221 F225 86(2) . . ?
F237 B231 F232 59.7(18) . . ?
F237 B231 F236 106.5(19) . . ?
F232 B231 F236 51.8(16) . . ?
F237 B231 F231 118(2) . . ?
F232 B231 F231 119.3(19) . . ?
F236 B231 F231 116(2) . . ?
F237 B231 F238 121(2) . . ?
F232 B231 F238 162(2) . . ?
F236 B231 F238 116(2) . . ?
F231 B231 F238 77(2) . . ?
F237 B231 F233 58.3(16) . . ?
F232 B231 F233 115(2) . . ?
F236 B231 F233 137(2) . . ?
F231 B231 F233 107(2) . . ?
F238 B231 F233 63(2) . . ?
F237 B231 F234 140(2) . . ?
F232 B231 F234 107(2) . . ?
F236 B231 F234 55.9(18) . . ?
F231 B231 F234 100.9(19) . . ?
F238 B231 F234 60(2) . . ?
F233 B231 F234 107.4(19) . . ?
F237 B231 F235 110.3(18) . . ?
F232 B231 F235 99.6(18) . . ?
F236 B231 F235 104.3(15) . . ?
F231 B231 F235 19.7(16) . . ?
F238 B231 F235 96.9(18) . . ?
F233 B231 F235 119.1(19) . . ?
F234 B231 F235 109(2) . . ?
F245 B241 F243 20.5(19) . . ?
F245 B241 F24A 29.5(17) . . ?
F243 B241 F24A 43.9(16) . . ?
F245 B241 F24B 165(2) . . ?
F243 B241 F24B 161(2) . . ?
F24A B241 F24B 136(2) . . ?
F245 B241 F244 65.8(19) . . ?
F243 B241 F244 79.0(18) . . ?
F24A B241 F244 78(2) . . ?
F24B B241 F244 120(3) . . ?
F245 B241 F241 95.5(19) . . ?
F243 B241 F241 99(2) . . ?
F24A B241 F241 68.5(18) . . ?
F24B B241 F241 70.4(19) . . ?
F244 B241 F241 131(2) . . ?
F245 B241 F248 110.2(17) . . ?
F243 B241 F248 111(2) . . ?
F24A B241 F248 131.3(19) . . ?
F24B B241 F248 82(2) . . ?
F244 B241 F248 53.8(19) . . ?
F241 B241 F248 150(2) . . ?
F245 B241 F247 110.5(18) . . ?
F243 B241 F247 96(2) . . ?
F24A B241 F247 101(2) . . ?
F24B B241 F247 65.1(18) . . ?
F244 B241 F247 174(3) . . ?
F241 B241 F247 52.0(15) . . ?
F248 B241 F247 126(2) . . ?
F245 B241 F242 135(2) . . ?
F243 B241 F242 115(2) . . ?
F24A B241 F242 153(2) . . ?
F24B B241 F242 57.3(17) . . ?
F244 B241 F242 118(2) . . ?
F241 B241 F242 106.9(17) . . ?
F248 B241 F242 65.8(16) . . ?
F247 B241 F242 60.9(16) . . ?
F245 B241 F24D 63.6(13) . . ?
F243 B241 F24D 73(2) . . ?
F24A B241 F24D 81.8(16) . . ?
F24B B241 F24D 125.0(19) . . ?
F244 B241 F24D 13(3) . . ?
F241 B241 F24D 142(2) . . ?
F248 B241 F24D 49.5(17) . . ?
F247 B241 F24D 162(2) . . ?
F242 B241 F24D 110(2) . . ?
F245 B241 F246 117(2) . . ?
F243 B241 F246 135(2) . . ?
F24A B241 F246 91(2) . . ?
F24B B241 F246 52.1(16) . . ?
F244 B241 F246 90(2) . . ?
F241 B241 F246 58.0(17) . . ?
F248 B241 F246 95.5(18) . . ?
F247 B241 F246 95.9(18) . . ?
F242 B241 F246 109(2) . . ?
F24D B241 F246 102(2) . . ?
F245 B241 F24C 67.8(18) . . ?
F243 B241 F24C 47.3(14) . . ?
F24A B241 F24C 85.1(16) . . ?
F24B B241 F24C 118.4(19) . . ?
F244 B241 F24C 111(2) . . ?
F241 B241 F24C 100(2) . . ?
F248 B241 F24C 103.6(19) . . ?
F247 B241 F24C 63.0(17) . . ?
F242 B241 F24C 69.6(18) . . ?
F24D B241 F24C 99.7(17) . . ?
F246 B241 F24C 157.4(19) . . ?
B241 F243 F244 51.5(11) . . ?
B241 F244 F243 49.5(11) . . ?
O72 O13 O32 62(2) . . ?
O13 O32 O72 57(2) . . ?
O13 O72 O22 158(4) . . ?
O13 O72 O32 61(3) . . ?
O22 O72 O32 136(4) . . ?

loop_
_geom_torsion_atom_site_label_1
_geom_torsion_atom_site_label_2
_geom_torsion_atom_site_label_3
_geom_torsion_atom_site_label_4
_geom_torsion
_geom_torsion_site_symmetry_1
_geom_torsion_site_symmetry_2
_geom_torsion_site_symmetry_3
_geom_torsion_site_symmetry_4
_geom_torsion_publ_flag
C5A N1A C1A C2A -3.2(18) . . . . ?
Pd4 N1A C1A C2A -179.2(10) . . . . ?
N1A C1A C2A C3A 6(2) . . . . ?
C1A C2A C3A C4A -6(2) . . . . ?
C1A C2A C3A C56A 169.7(14) . . . . ?
C1A C2A C3A C6A -158(2) . . . . ?
C2A C3A C4A C5A 3(2) . . . . ?
C56A C3A C4A C5A -173.1(15) . . . . ?
C6A C3A C4A C5A 153(3) . . . . ?
C3A C4A C5A N1A 1(2) . . . . ?
C1A N1A C5A C4A -0.6(18) . . . . ?
Pd4 N1A C5A C4A 175.4(10) . . . . ?
C8A N2A C6A N3A 0.0 . . . . ?
C8A N2A C6A C3A -154(3) . . . . ?
C2A C3A C6A N3A 161(2) . . . . ?
C4A C3A C6A N3A 9(4) . . . . ?
C56A C3A C6A N3A -87(4) . . . . ?
C2A C3A C6A N2A -48(3) . . . . ?
C4A C3A C6A N2A 160(2) . . . . ?
C56A C3A C6A N2A 65(3) . . . . ?
N2A C6A N3A C7A 0.0 . . . . ?
C3A C6A N3A C7A 148(4) . . . . ?
C6A N3A C7A C9A 179(3) . . . . ?
C6A N3A C7A N4A 0.0 . . . . ?
C9A C7A N4A C8A -179(3) . . . . ?
N3A C7A N4A C8A 0.0 . . . . ?
C7A N4A C8A N2A 0.0 . . . . ?
C7A N4A C8A C12A 170(4) . . . . ?
C6A N2A C8A N4A 0.0 . . . . ?
C6A N2A C8A C12A -167(6) . . . . ?
C58A N52A C56A N53A 0.0 . . . . ?
C58A N52A C56A C3A 176.0(15) . . . . ?
C2A C3A C56A N52A 2(2) . . . . ?
C4A C3A C56A N52A 177.7(13) . . . . ?
C6A C3A C56A N52A -80(3) . . . . ?
C2A C3A C56A N53A 178.0(13) . . . . ?
C4A C3A C56A N53A -6.2(19) . . . . ?
C6A C3A C56A N53A 96(4) . . . . ?
N52A C56A N53A C57A 0.0 . . . . ?
C3A C56A N53A C57A -176.0(15) . . . . ?
C56A N53A C57A N54A 0.0 . . . . ?
C56A N53A C57A C59A -176(2) . . . . ?
N53A C57A N54A C58A 0.0 . . . . ?
C59A C57A N54A C58A 176(2) . . . . ?
C57A N54A C58A N52A 0.0 . . . . ?
C57A N54A C58A C12A -179(2) . . . . ?
C56A N52A C58A N54A 0.0 . . . . ?
C56A N52A C58A C12A 179(2) . . . . ?
C14A N5A C10A C11A -3.6(17) . . . . ?
Pd3 N5A C10A C11A 176.3(9) . . . . ?
N5A C10A C11A C12A 4.7(19) . . . . ?
C10A C11A C12A C13A -2(2) . . . . ?
C10A C11A C12A C58A -174.7(16) . . . . ?
C10A C11A C12A C8A 176(3) . . . . ?
N54A C58A C12A C13A 3(2) . . . . ?
N52A C58A C12A C13A -175.4(12) . . . . ?
N54A C58A C12A C11A 176.5(13) . . . . ?
N52A C58A C12A C11A -2(2) . . . . ?
N54A C58A C12A C8A -148(14) . . . . ?
N52A C58A C12A C8A 33(13) . . . . ?
N4A C8A C12A C13A 16(4) . . . . ?
N2A C8A C12A C13A -176(2) . . . . ?
N4A C8A C12A C11A -162.4(18) . . . . ?
N2A C8A C12A C11A 6(5) . . . . ?
N4A C8A C12A C58A 49(12) . . . . ?
N2A C8A C12A C58A -142(16) . . . . ?
C11A C12A C13A C14A -1(2) . . . . ?
C58A C12A C13A C14A 171.8(17) . . . . ?
C8A C12A C13A C14A -179(4) . . . . ?
C12A C13A C14A N5A 2(2) . . . . ?
C10A N5A C14A C13A 0(2) . . . . ?
Pd3 N5A C14A C13A 180.0(12) . . . . ?
C5B N1B C1B C2B 5.3(18) . . . . ?
Pd5 N1B C1B C2B -176.2(11) . . . . ?
N1B C1B C2B C3B -3(2) . . . . ?
C1B C2B C3B C4B 1(2) . . . . ?
C1B C2B C3B C6B 179.9(17) . . . . ?
C1B C2B C3B C56B -174(2) . . . . ?
C2B C3B C4B C5B -2(2) . . . . ?
C6B C3B C4B C5B 179.4(15) . . . . ?
C56B C3B C4B C5B 172(2) . . . . ?
C1B N1B C5B C4B -5.9(16) . . . . ?
Pd5 N1B C5B C4B 175.6(8) . . . . ?
C3B C4B C5B N1B 4.5(19) . . . . ?
C8B N2B C6B N3B 0.0 . . . . ?
C8B N2B C6B C3B -176.4(18) . . . . ?
C4B C3B C6B N2B 171.6(11) . . . . ?
C2B C3B C6B N2B -7(2) . . . . ?
C56B C3B C6B N2B -33(10) . . . . ?
C4B C3B C6B N3B -4(2) . . . . ?
C2B C3B C6B N3B 177.1(15) . . . . ?
C56B C3B C6B N3B 151(11) . . . . ?
N2B C6B N3B C7B 0.0 . . . . ?
C3B C6B N3B C7B 176(2) . . . . ?
C6B N3B C7B N4B 0.0 . . . . ?
C6B N3B C7B C9B 168.5(18) . . . . ?
N3B C7B N4B C8B 0.0 . . . . ?
C9B C7B N4B C8B -167(2) . . . . ?
C7B N4B C8B N2B 0.0 . . . . ?
C7B N4B C8B C12B 175.0(16) . . . . ?
C6B N2B C8B N4B 0.0 . . . . ?
C6B N2B C8B C12B -174.5(18) . . . . ?
C58B N52B C56B N53B 0.0 . . . . ?
C58B N52B C56B C3B 174(4) . . . . ?
C4B C3B C56B N52B 159.8(19) . . . . ?
C2B C3B C56B N52B -26(3) . . . . ?
C6B C3B C56B N52B 132(11) . . . . ?
C4B C3B C56B N53B -25(3) . . . . ?
C2B C3B C56B N53B 149.1(17) . . . . ?
C6B C3B C56B N53B -53(9) . . . . ?
N52B C56B N53B C57B 0.0 . . . . ?
C3B C56B N53B C57B -176(3) . . . . ?
C56B N53B C57B N54B 0.0 . . . . ?
C56B N53B C57B C59B -178(3) . . . . ?
N53B C57B N54B C58B 0.0 . . . . ?
C59B C57B N54B C58B 178.7(19) . . . . ?
C57B N54B C58B N52B 0.0 . . . . ?
C57B N54B C58B C12B -178(4) . . . . ?
C56B N52B C58B N54B 0.0 . . . . ?
C56B N52B C58B C12B 179(3) . . . . ?
C14B N5B C10B C11B -2(2) . . . . ?
Pd4 N5B C10B C11B -179.9(10) . . . . ?
N5B C10B C11B C12B -1(2) . . . . ?
C10B C11B C12B C13B 4(3) . . . . ?
C10B C11B C12B C58B 162(2) . . . . ?
C10B C11B C12B C8B -174.7(16) . . . . ?
N54B C58B C12B C11B -142(3) . . . . ?
N52B C58B C12B C11B 39(3) . . . . ?
N54B C58B C12B C13B 17(4) . . . . ?
N52B C58B C12B C13B -161.0(17) . . . . ?
N54B C58B C12B C8B 136(7) . . . . ?
N52B C58B C12B C8B -42(5) . . . . ?
N4B C8B C12B C11B -174.6(15) . . . . ?
N2B C8B C12B C11B 0(2) . . . . ?
N4B C8B C12B C13B 7(2) . . . . ?
N2B C8B C12B C13B -178.6(15) . . . . ?
N4B C8B C12B C58B -65(5) . . . . ?
N2B C8B C12B C58B 110(5) . . . . ?
C11B C12B C13B C14B -3(3) . . . . ?
C58B C12B C13B C14B -164(2) . . . . ?
C8B C12B C13B C14B 175.2(16) . . . . ?
C10B N5B C14B C13B 3(2) . . . . ?
Pd4 N5B C14B C13B -179.6(11) . . . . ?
C12B C13B C14B N5B 0(2) . . . . ?
C5C N1C C1C C2C 4.9(18) . . . . ?
Pd5 N1C C1C C2C 176.9(9) . . . . ?
N1C C1C C2C C3C -5.0(18) . . . . ?
C1C C2C C3C C4C 1.5(17) . . . . ?
C1C C2C C3C C6C -178.5(10) . . . . ?
C2C C3C C4C C5C 1.9(16) . . . . ?
C6C C3C C4C C5C -178.2(9) . . . . ?
C1C N1C C5C C4C -1.3(16) . . . . ?
Pd5 N1C C5C C4C -173.3(8) . . . . ?
C3C C4C C5C N1C -2.1(16) . . . . ?
C8C N2C C6C N3C -1.8(15) . . . . ?
C8C N2C C6C C3C 177.9(9) . . . . ?
C4C C3C C6C N3C 7.6(15) . . . . ?
C2C C3C C6C N3C -172.5(10) . . . . ?
C4C C3C C6C N2C -172.2(10) . . . . ?
C2C C3C C6C N2C 7.8(16) . . . . ?
N2C C6C N3C C7C 0.5(15) . . . . ?
C3C C6C N3C C7C -179.2(9) . . . . ?
C6C N3C C7C N4C 1.6(16) . . . . ?
C6C N3C C7C C9C 176.7(9) . . . . ?
N3C C7C N4C C8C -2.2(16) . . . . ?
C9C C7C N4C C8C -177.3(9) . . . . ?
C6C N2C C8C N4C 1.2(15) . . . . ?
C6C N2C C8C C12C -178.1(8) . . . . ?
C7C N4C C8C N2C 0.7(15) . . . . ?
C7C N4C C8C C12C -180.0(9) . . . . ?
C14C N5C C10C C11C -1.7(16) . . . . ?
Pd3 N5C C10C C11C -174.1(9) . . . . ?
N5C C10C C11C C12C 0.4(18) . . . . ?
C10C C11C C12C C13C -0.1(17) . . . . ?
C10C C11C C12C C8C 174.5(10) . . . . ?
N2C C8C C12C C11C -0.8(15) . . . . ?
N4C C8C C12C C11C 179.8(10) . . . . ?
N2C C8C C12C C13C 173.7(9) . . . . ?
N4C C8C C12C C13C -5.7(14) . . . . ?
C11C C12C C13C C14C 1.3(16) . . . . ?
C8C C12C C13C C14C -173.4(9) . . . . ?
C10C N5C C14C C13C 2.9(15) . . . . ?
Pd3 N5C C14C C13C 175.2(8) . . . . ?
C12C C13C C14C N5C -2.8(16) . . . . ?
C5D N1D C1D C2D 0.3(17) . . . . ?
Pd3 N1D C1D C2D 179.5(10) . . . . ?
N1D C1D C2D C3D -3(2) . . . . ?
C1D C2D C3D C4D 3(2) . . . . ?
C1D C2D C3D C56D 171(2) . . . . ?
C1D C2D C3D C6D -169.2(16) . . . . ?
C2D C3D C4D C5D 1(2) . . . . ?
C56D C3D C4D C5D -166(3) . . . . ?
C6D C3D C4D C5D 172.7(16) . . . . ?
C1D N1D C5D C4D 3.2(17) . . . . ?
Pd3 N1D C5D C4D -176.0(10) . . . . ?
C3D C4D C5D N1D -4(2) . . . . ?
C8D N2D C6D N3D 0.0 . . . . ?
C8D N2D C6D C3D -179.7(18) . . . . ?
C2D C3D C6D N2D -7(2) . . . . ?
C4D C3D C6D N2D -178.7(14) . . . . ?
C56D C3D C6D N2D 66(7) . . . . ?
C2D C3D C6D N3D 173.6(14) . . . . ?
C4D C3D C6D N3D 2(2) . . . . ?
C56D C3D C6D N3D -113(7) . . . . ?
N2D C6D N3D C7D 0.0 . . . . ?
C3D C6D N3D C7D 179.6(19) . . . . ?
C6D N3D C7D N4D 0.0 . . . . ?
C6D N3D C7D C9D -172.5(19) . . . . ?
N3D C7D N4D C8D 0.0 . . . . ?
C9D C7D N4D C8D 172(2) . . . . ?
C7D N4D C8D N2D 0.0 . . . . ?
C7D N4D C8D C12D 175(2) . . . . ?
C6D N2D C8D N4D 0.0 . . . . ?
C6D N2D C8D C12D -176(2) . . . . ?
C58D N52D C56D N53D 0.0 . . . . ?
C58D N52D C56D C3D 165(3) . . . . ?
C2D C3D C56D N53D -156(2) . . . . ?
C4D C3D C56D N53D 12(4) . . . . ?
C6D C3D C56D N53D 88(6) . . . . ?
C2D C3D C56D N52D 39(3) . . . . ?
C4D C3D C56D N52D -153(2) . . . . ?
C6D C3D C56D N52D -77(6) . . . . ?
N52D C56D N53D C57D 0.0 . . . . ?
C3D C56D N53D C57D -165(3) . . . . ?
C56D N53D C57D N54D 0.0 . . . . ?
C56D N53D C57D C59D 176(3) . . . . ?
N53D C57D N54D C58D 0.0 . . . . ?
C59D C57D N54D C58D -176(2) . . . . ?
C57D N54D C58D N52D 0.0 . . . . ?
C57D N54D C58D C12D -162(4) . . . . ?
C56D N52D C58D N54D 0.0 . . . . ?
C56D N52D C58D C12D 163(4) . . . . ?
C14D N5D C10D C11D 2.0(18) . . . . ?
Pd2 N5D C10D C11D -176.3(10) . . . . ?
N5D C10D C11D C12D -3(2) . . . . ?
C10D C11D C12D C13D 2(2) . . . . ?
C10D C11D C12D C8D 175.7(18) . . . . ?
C10D C11D C12D C58D -180(3) . . . . ?
N4D C8D C12D C11D -172.2(14) . . . . ?
N2D C8D C12D C11D 3(3) . . . . ?
N4D C8D C12D C13D 1(3) . . . . ?
N2D C8D C12D C13D 176.9(13) . . . . ?
N4D C8D C12D C58D 82(39) . . . . ?
N2D C8D C12D C58D -102(40) . . . . ?
N54D C58D C12D C11D 155(2) . . . . ?
N52D C58D C12D C11D -8(3) . . . . ?
N54D C58D C12D C13D -27(4) . . . . ?
N52D C58D C12D C13D 170.2(17) . . . . ?
N54D C58D C12D C8D -128(41) . . . . ?
N52D C58D C12D C8D 69(40) . . . . ?
C11D C12D C13D C14D 0(2) . . . . ?
C8D C12D C13D C14D -173.8(19) . . . . ?
C58D C12D C13D C14D -178(3) . . . . ?
C10D N5D C14D C13D 0(2) . . . . ?
Pd2 N5D C14D C13D 178.6(12) . . . . ?
C12D C13D C14D N5D -1(3) . . . . ?
C5E N1E C1E C2E -4.2(19) . . . . ?
Pd1 N1E C1E C2E 178.2(11) . . . . ?
N1E C1E C2E C3E 3(2) . . . . ?
C1E C2E C3E C4E 0(2) . . . . ?
C1E C2E C3E C6E 164(2) . . . . ?
C1E C2E C3E C56E -177.4(15) . . . . ?
C2E C3E C4E C5E 0.0(19) . . . . ?
C6E C3E C4E C5E -166(2) . . . . ?
C56E C3E C4E C5E 176.9(13) . . . . ?
C1E N1E C5E C4E 3.7(15) . . . . ?
Pd1 N1E C5E C4E -178.7(8) . . . . ?
C3E C4E C5E N1E -1.8(17) . . . . ?
C8E N2E C6E N3E 0.0 . . . . ?
C8E N2E C6E C3E -177(3) . . . . ?
C4E C3E C6E N2E -152.9(16) . . . . ?
C2E C3E C6E N2E 42(3) . . . . ?
C56E C3E C6E N2E -32(5) . . . . ?
C4E C3E C6E N3E 31(4) . . . . ?
C2E C3E C6E N3E -134(3) . . . . ?
C56E C3E C6E N3E 152(9) . . . . ?
N2E C6E N3E C7E 0.0 . . . . ?
C3E C6E N3E C7E 176(4) . . . . ?
C6E N3E C7E N4E 0.0 . . . . ?
C6E N3E C7E C9E 179(2) . . . . ?
N3E C7E N4E C8E 0.0 . . . . ?
C9E C7E N4E C8E -179(3) . . . . ?
C7E N4E C8E N2E 0.0 . . . . ?
C7E N4E C8E C12E -166(3) . . . . ?
C6E N2E C8E N4E 0.0 . . . . ?
C6E N2E C8E C12E 163(3) . . . . ?
C58E N52E C56E N53E 0.0 . . . . ?
C58E N52E C56E C3E 177.5(16) . . . . ?
C4E C3E C56E N52E -172.3(12) . . . . ?
C2E C3E C56E N52E 5(2) . . . . ?
C6E C3E C56E N52E 121(6) . . . . ?
C4E C3E C56E N53E 5(2) . . . . ?
C2E C3E C56E N53E -177.9(13) . . . . ?
C6E C3E C56E N53E -62(6) . . . . ?
N52E C56E N53E C57E 0.0 . . . . ?
C3E C56E N53E C57E -177.6(15) . . . . ?
C56E N53E C57E N54E 0.0 . . . . ?
C56E N53E C57E C59E -166(2) . . . . ?
N53E C57E N54E C58E 0.0 . . . . ?
C59E C57E N54E C58E 168.2(18) . . . . ?
C57E N54E C58E N52E 0.0 . . . . ?
C57E N54E C58E C12E -178.3(19) . . . . ?
C56E N52E C58E N54E 0.0 . . . . ?
C56E N52E C58E C12E 178.4(17) . . . . ?
C14E N5E C10E C11E 2(2) . . . . ?
Pd3 N5E C10E C11E 178.7(11) . . . . ?
N5E C10E C11E C12E 2(2) . . . . ?
C10E C11E C12E C13E -4(2) . . . . ?
C10E C11E C12E C58E 176.2(17) . . . . ?
C10E C11E C12E C8E -177(2) . . . . ?
N54E C58E C12E C11E 174.8(15) . . . . ?
N52E C58E C12E C11E -4(2) . . . . ?
N54E C58E C12E C13E -5(2) . . . . ?
N52E C58E C12E C13E 176.4(13) . . . . ?
N54E C58E C12E C8E 132(16) . . . . ?
N52E C58E C12E C8E -46(15) . . . . ?
N4E C8E C12E C11E 138(2) . . . . ?
N2E C8E C12E C11E -26(3) . . . . ?
N4E C8E C12E C13E -35(3) . . . . ?
N2E C8E C12E C13E 160.5(19) . . . . ?
N4E C8E C12E C58E -81(15) . . . . ?
N2E C8E C12E C58E 115(16) . . . . ?
C11E C12E C13E C14E 1(2) . . . . ?
C58E C12E C13E C14E -178.5(16) . . . . ?
C8E C12E C13E C14E 175(2) . . . . ?
C10E N5E C14E C13E -4(2) . . . . ?
Pd3 N5E C14E C13E 179.1(11) . . . . ?
C12E C13E C14E N5E 3(2) . . . . ?
C5F N1F C1F C2F -3.2(16) . . . . ?
Pd2 N1F C1F C2F 174.4(9) . . . . ?
N1F C1F C2F C3F 0.5(18) . . . . ?
C1F C2F C3F C4F 3.1(17) . . . . ?
C1F C2F C3F C6F -176.9(10) . . . . ?
C2F C3F C4F C5F -3.8(16) . . . . ?
C6F C3F C4F C5F 176.2(9) . . . . ?
C1F N1F C5F C4F 2.4(14) . . . . ?
Pd2 N1F C5F C4F -175.2(7) . . . . ?
C3F C4F C5F N1F 1.0(15) . . . . ?
C8F N2F C6F N3F -1.4(16) . . . . ?
C8F N2F C6F C3F 176.0(8) . . . . ?
C4F C3F C6F N2F -175.6(10) . . . . ?
C2F C3F C6F N2F 4.4(15) . . . . ?
C4F C3F C6F N3F 2.1(14) . . . . ?
C2F C3F C6F N3F -178.0(10) . . . . ?
N2F C6F N3F C7F -0.7(15) . . . . ?
C3F C6F N3F C7F -178.1(8) . . . . ?
C6F N3F C7F N4F 2.1(15) . . . . ?
C6F N3F C7F C9F 176.8(9) . . . . ?
N3F C7F N4F C8F -1.2(15) . . . . ?
C9F C7F N4F C8F -175.8(9) . . . . ?
C7F N4F C8F N2F -1.1(14) . . . . ?
C7F N4F C8F C12F 178.6(9) . . . . ?
C6F N2F C8F N4F 2.3(15) . . . . ?
C6F N2F C8F C12F -177.4(9) . . . . ?
C14F N5F C10F C11F -7.7(18) . . . . ?
Pd1 N5F C10F C11F 178.2(9) . . . . ?
N5F C10F C11F C12F 10.3(19) . . . . ?
C10F C11F C12F C13F -6.5(17) . . . . ?
C10F C11F C12F C8F 174.6(11) . . . . ?
N4F C8F C12F C11F 172.0(10) . . . . ?
N2F C8F C12F C11F -8.3(15) . . . . ?
N4F C8F C12F C13F -6.8(15) . . . . ?
N2F C8F C12F C13F 172.9(10) . . . . ?
C11F C12F C13F C14F 1.2(16) . . . . ?
C8F C12F C13F C14F -179.9(10) . . . . ?
C10F N5F C14F C13F 1.9(15) . . . . ?
Pd1 N5F C14F C13F 176.0(8) . . . . ?
C12F C13F C14F N5F 1.5(16) . . . . ?
C5G N1G C1G C2G -4(2) . . . . ?
Pd2 N1G C1G C2G 177.5(11) . . . . ?
N1G C1G C2G C3G 4(2) . . . . ?
C1G C2G C3G C4G -3(2) . . . . ?
C1G C2G C3G C6G -179.6(15) . . . . ?
C1G C2G C3G C56G 161(2) . . . . ?
C2G C3G C4G C5G 2(2) . . . . ?
C6G C3G C4G C5G 178.1(15) . . . . ?
C56G C3G C4G C5G -165(2) . . . . ?
C1G N1G C5G C4G 2(2) . . . . ?
Pd2 N1G C5G C4G -178.9(10) . . . . ?
C3G C4G C5G N1G -1(2) . . . . ?
C8G N2G C6G N3G 0.0 . . . . ?
C8G N2G C6G C3G -176.8(17) . . . . ?
C2G C3G C6G N3G -178.8(14) . . . . ?
C4G C3G C6G N3G 5(2) . . . . ?
C56G C3G C6G N3G -56(5) . . . . ?
C2G C3G C6G N2G -2(2) . . . . ?
C4G C3G C6G N2G -177.9(14) . . . . ?
C56G C3G C6G N2G 121(6) . . . . ?
N2G C6G N3G C7G 0.0 . . . . ?
C3G C6G N3G C7G 177.2(15) . . . . ?
C6G N3G C7G N4G 0.0 . . . . ?
C6G N3G C7G C9G -178(2) . . . . ?
N3G C7G N4G C8G 0.0 . . . . ?
C9G C7G N4G C8G 178(2) . . . . ?
C7G N4G C8G N2G 0.0 . . . . ?
C7G N4G C8G C12G 171.1(18) . . . . ?
C6G N2G C8G N4G 0.0 . . . . ?
C6G N2G C8G C12G -172.3(16) . . . . ?
C58G N52G C56G N53G 0.0 . . . . ?
C58G N52G C56G C3G -173(3) . . . . ?
C2G C3G C56G N52G 40(3) . . . . ?
C4G C3G C56G N52G -155.3(16) . . . . ?
C6G C3G C56G N52G -28(5) . . . . ?
C2G C3G C56G N53G -131(3) . . . . ?
C4G C3G C56G N53G 34(4) . . . . ?
C6G C3G C56G N53G 161(8) . . . . ?
N52G C56G N53G C57G 0.0 . . . . ?
C3G C56G N53G C57G 170(4) . . . . ?
C56G N53G C57G N54G 0.0 . . . . ?
C56G N53G C57G C59G -178(2) . . . . ?
N53G C57G N54G C58G 0.0 . . . . ?
C59G C57G N54G C58G 176(4) . . . . ?
C57G N54G C58G N52G 0.0 . . . . ?
C57G N54G C58G C12G -170(2) . . . . ?
C56G N52G C58G N54G 0.0 . . . . ?
C56G N52G C58G C12G 166(4) . . . . ?
C14G N5G C10G C11G 2.7(18) . . . . ?
Pd6 N5G C10G C11G -177.4(11) . . . . ?
N5G C10G C11G C12G -2(2) . . . . ?
C10G C11G C12G C13G 0(2) . . . . ?
C10G C11G C12G C8G -177.6(15) . . . . ?
C10G C11G C12G C58G -178(2) . . . . ?
N4G C8G C12G C11G 179.8(14) . . . . ?
N2G C8G C12G C11G -9(2) . . . . ?
N4G C8G C12G C13G 2(2) . . . . ?
N2G C8G C12G C13G 174.0(11) . . . . ?
N4G C8G C12G C58G -179(100) . . . . ?
N2G C8G C12G C58G -8(12) . . . . ?
N54G C58G C12G C11G 142.7(17) . . . . ?
N52G C58G C12G C11G -25(3) . . . . ?
N54G C58G C12G C13G -35(3) . . . . ?
N52G C58G C12G C13G 158(2) . . . . ?
N54G C58G C12G C8G -37(12) . . . . ?
N52G C58G C12G C8G 156(14) . . . . ?
C11G C12G C13G C14G 2(2) . . . . ?
C8G C12G C13G C14G 179.6(14) . . . . ?
C58G C12G C13G C14G 179(2) . . . . ?
C12G C13G C14G N5G -1.4(19) . . . . ?
C10G N5G C14G C13G -0.9(16) . . . . ?
Pd6 N5G C14G C13G 179.2(8) . . . . ?
C5H N1H C1H C2H -2.2(18) . . . . ?
Pd4 N1H C1H C2H 176.3(10) 2_576 . . . ?
N1H C1H C2H C3H 2(2) . . . . ?
C1H C2H C3H C4H -1(2) . . . . ?
C1H C2H C3H C56H -158(2) . . . . ?
C1H C2H C3H C6H 175.6(16) . . . . ?
C2H C3H C4H C5H 0(2) . . . . ?
C56H C3H C4H C5H 158(3) . . . . ?
C6H C3H C4H C5H -175.6(18) . . . . ?
C1H N1H C5H C4H 2(2) . . . . ?
Pd4 N1H C5H C4H -176.5(12) 2_576 . . . ?
C3H C4H C5H N1H -1(3) . . . . ?
C8H N2H C6H N3H 0.0 . . . . ?
C8H N2H C6H C3H 176.8(19) . . . . ?
C4H C3H C6H N2H -172.4(16) . . . . ?
C2H C3H C6H N2H 12(2) . . . . ?
C56H C3H C6H N2H -91(5) . . . . ?
C4H C3H C6H N3H 4(2) . . . . ?
C2H C3H C6H N3H -171.5(14) . . . . ?
C56H C3H C6H N3H 86(5) . . . . ?
N2H C6H N3H C7H 0.0 . . . . ?
C3H C6H N3H C7H -177.0(18) . . . . ?
C6H N3H C7H N4H 0.0 . . . . ?
C6H N3H C7H C9H 177(2) . . . . ?
N3H C7H N4H C8H 0.0 . . . . ?
C9H C7H N4H C8H -177.1(19) . . . . ?
C7H N4H C8H N2H 0.0 . . . . ?
C7H N4H C8H C12H 170(3) . . . . ?
C6H N2H C8H N4H 0.0 . . . . ?
C6H N2H C8H C12H -171(2) . . . . ?
C58H N52H C56H N53H 0.0 . . . . ?
C58H N52H C56H C3H -164(3) . . . . ?
C4H C3H C56H N53H 10(4) . . . . ?
C2H C3H C56H N53H 168(2) . . . . ?
C6H C3H C56H N53H -101(6) . . . . ?
C4H C3H C56H N52H 172.4(18) . . . . ?
C2H C3H C56H N52H -30(3) . . . . ?
C6H C3H C56H N52H 61(4) . . . . ?
N52H C56H N53H C57H 0.0 . . . . ?
C3H C56H N53H C57H 161(4) . . . . ?
C56H N53H C57H N54H 0.0 . . . . ?
C56H N53H C57H C59H 177(2) . . . . ?
N53H C57H N54H C58H 0.0 . . . . ?
C59H C57H N54H C58H -177(3) . . . . ?
C57H N54H C58H N52H 0.0 . . . . ?
C57H N54H C58H C12H 168(4) . . . . ?
C56H N52H C58H N54H 0.0 . . . . ?
C56H N52H C58H C12H -166(4) . . . . ?
C14H N5H C10H C11H -0.9(17) . . . . ?
Pd2 N5H C10H C11H -176.7(9) . . . . ?
N5H C10H C11H C12H 2.3(19) . . . . ?
C10H C11H C12H C13H -5(2) . . . . ?
C10H C11H C12H C8H -173.0(19) . . . . ?
C10H C11H C12H C58H 173(3) . . . . ?
N4H C8H C12H C13H 2(3) . . . . ?
N2H C8H C12H C13H 172.6(12) . . . . ?
N4H C8H C12H C11H 170.3(14) . . . . ?
N2H C8H C12H C11H -19(2) . . . . ?
N4H C8H C12H C58H -121(13) . . . . ?
N2H C8H C12H C58H 50(11) . . . . ?
N54H C58H C12H C13H 9(4) . . . . ?
N52H C58H C12H C13H 175.4(19) . . . . ?
N54H C58H C12H C11H -168.9(17) . . . . ?
N52H C58H C12H C11H -2(4) . . . . ?
N54H C58H C12H C8H 73(11) . . . . ?
N52H C58H C12H C8H -120(13) . . . . ?
C11H C12H C13H C14H 6(2) . . . . ?
C8H C12H C13H C14H 174.9(19) . . . . ?
C58H C12H C13H C14H -171(3) . . . . ?
C12H C13H C14H N5H -5(2) . . . . ?
C10H N5H C14H C13H 2.2(17) . . . . ?
Pd2 N5H C14H C13H 177.9(10) . . . . ?
C5I N1I C1I C2I -1.7(18) . . . . ?
Pd6 N1I C1I C2I 176.5(10) . . . . ?
N1I C1I C2I C3I 1(2) . . . . ?
C1I C2I C3I C4I -1.5(18) . . . . ?
C1I C2I C3I C6I -178.6(11) . . . . ?
C2I C3I C4I C5I 2.7(16) . . . . ?
C6I C3I C4I C5I 179.7(10) . . . . ?
C1I N1I C5I C4I 3.0(16) . . . . ?
Pd6 N1I C5I C4I -175.3(8) . . . . ?
C3I C4I C5I N1I -3.5(17) . . . . ?
C8I N2I C6I N3I 2.3(15) . . . . ?
C8I N2I C6I C3I -179.7(10) . . . . ?
C4I C3I C6I N3I 7.9(15) . . . . ?
C2I C3I C6I N3I -175.1(10) . . . . ?
C4I C3I C6I N2I -170.2(10) . . . . ?
C2I C3I C6I N2I 6.8(16) . . . . ?
N2I C6I N3I C7I -1.2(15) . . . . ?
C3I C6I N3I C7I -179.3(9) . . . . ?
C6I N3I C7I N4I 0.9(15) . . . . ?
C6I N3I C7I C9I 176.8(10) . . . . ?
N3I C7I N4I C8I -1.6(15) . . . . ?
C9I C7I N4I C8I -177.5(10) . . . . ?
C6I N2I C8I N4I -3.3(16) . . . . ?
C6I N2I C8I C12I -176.9(8) . . . . ?
C7I N4I C8I N2I 2.9(16) . . . . ?
C7I N4I C8I C12I 176.7(8) . . . . ?
C14I N5I C10I C11I 5.1(16) . . . . ?
Pd4 N5I C10I C11I -173.2(9) 2_576 . . . ?
N5I C10I C11I C12I -2.4(18) . . . . ?
C10I C11I C12I C13I -2.5(17) . . . . ?
C10I C11I C12I C8I 178.3(10) . . . . ?
N2I C8I C12I C11I -7.3(15) . . . . ?
N4I C8I C12I C11I 178.3(10) . . . . ?
N2I C8I C12I C13I 173.5(10) . . . . ?
N4I C8I C12I C13I -0.8(14) . . . . ?
C11I C12I C13I C14I 4.7(16) . . . . ?
C8I C12I C13I C14I -176.1(9) . . . . ?
C10I N5I C14I C13I -2.8(15) . . . . ?
Pd4 N5I C14I C13I 175.4(7) 2_576 . . . ?
C12I C13I C14I N5I -2.0(16) . . . . ?
C5J N1J C1J C2J -1.9(18) . . . . ?
Pd6 N1J C1J C2J 179.0(10) . . . . ?
N1J C1J C2J C3J 2(2) . . . . ?
C1J C2J C3J C4J -3(2) . . . . ?
C1J C2J C3J C6J -179.5(12) . . . . ?
C2J C3J C4J C5J 3(2) . . . . ?
C6J C3J C4J C5J 179.8(12) . . . . ?
C1J N1J C5J C4J 2.2(19) . . . . ?
Pd6 N1J C5J C4J -178.8(10) . . . . ?
C3J C4J C5J N1J -3(2) . . . . ?
C8J N2J C6J N3J 0.0 . . . . ?
C8J N2J C6J C3J -178.0(11) . . . . ?
C4J C3J C6J N2J -169.7(11) . . . . ?
C2J C3J C6J N2J 7.2(17) . . . . ?
C4J C3J C6J N3J 12.2(17) . . . . ?
C2J C3J C6J N3J -170.9(11) . . . . ?
N2J C6J N3J C7J 0.0 . . . . ?
C3J C6J N3J C7J 178.0(11) . . . . ?
C6J N3J C7J N4J 0.0 . . . . ?
C6J N3J C7J C9J -171.3(17) . . . . ?
N3J C7J N4J C8J 0.0 . . . . ?
C9J C7J N4J C8J 170.8(19) . . . . ?
C7J N4J C8J N2J 0.0 . . . . ?
C7J N4J C8J C12J 176.0(11) . . . . ?
C6J N2J C8J N4J 0.0 . . . . ?
C6J N2J C8J C12J -176.0(11) . . . . ?
C14J N5J C10J C11J -1.2(18) . . . . ?
Pd5 N5J C10J C11J -177.4(10) . . . . ?
N5J C10J C11J C12J 2(2) . . . . ?
C10J C11J C12J C13J -3(2) . . . . ?
C10J C11J C12J C8J 179.5(12) . . . . ?
N4J C8J C12J C13J -4.9(17) . . . . ?
N2J C8J C12J C13J 171.1(11) . . . . ?
N4J C8J C12J C11J 172.5(10) . . . . ?
N2J C8J C12J C11J -11.5(17) . . . . ?
C11J C12J C13J C14J 3(2) . . . . ?
C8J C12J C13J C14J -179.9(12) . . . . ?
C10J N5J C14J C13J 0.9(19) . . . . ?
Pd5 N5J C14J C13J 177.0(10) . . . . ?
C12J C13J C14J N5J -2(2) . . . . ?
C5K N1K C1K C2K 8.9(18) . . . . ?
Pd1 N1K C1K C2K -173.9(10) 2_576 . . . ?
N1K C1K C2K C3K -7(2) . . . . ?
C1K C2K C3K C4K 1(2) . . . . ?
C1K C2K C3K C6K -178.3(11) . . . . ?
C2K C3K C4K C5K 2(2) . . . . ?
C6K C3K C4K C5K -177.9(12) . . . . ?
C1K N1K C5K C4K -4.7(19) . . . . ?
Pd1 N1K C5K C4K 178.1(10) 2_576 . . . ?
C3K C4K C5K N1K -1(2) . . . . ?
C4K C3K C6K N2K 174.5(10) . . . . ?
C2K C3K C6K N2K -5.8(16) . . . . ?
C4K C3K C6K N3K -4.5(16) . . . . ?
C2K C3K C6K N3K 175.2(10) . . . . ?
C8K N2K C6K C3K -179.0(10) . . . . ?
C8K N2K C6K N3K 0.0 . . . . ?
C3K C6K N3K C7K 179.0(10) . . . . ?
N2K C6K N3K C7K 0.0 . . . . ?
C6K N3K C7K N4K 0.0 . . . . ?
C6K N3K C7K C9K -178.0(19) . . . . ?
N3K C7K N4K C8K 0.0 . . . . ?
C9K C7K N4K C8K 178.1(18) . . . . ?
C7K N4K C8K N2K 0.0 . . . . ?
C7K N4K C8K C12K -178.8(11) . . . . ?
C6K N2K C8K N4K 0.0 . . . . ?
C6K N2K C8K C12K 178.8(11) . . . . ?
C14K N5K C10K C11K -3.3(18) . . . . ?
Pd5 N5K C10K C11K 178.9(10) . . . . ?
N5K C10K C11K C12K 2(2) . . . . ?
C10K C11K C12K C13K -2(2) . . . . ?
C10K C11K C12K C8K 178.4(12) . . . . ?
N4K C8K C12K C11K -168.9(11) . . . . ?
N2K C8K C12K C11K 12.2(18) . . . . ?
N4K C8K C12K C13K 11.5(17) . . . . ?
N2K C8K C12K C13K -167.4(11) . . . . ?
C11K C12K C13K C14K 3(2) . . . . ?
C8K C12K C13K C14K -177.0(13) . . . . ?
C10K N5K C14K C13K 4.8(19) . . . . ?
Pd5 N5K C14K C13K -177.5(10) . . . . ?
C12K C13K C14K N5K -5(2) . . . . ?
C5L N1L C1L C2L 0.4(18) . . . . ?
Pd6 N1L C1L C2L -176.2(10) . . . . ?
N1L C1L C2L C3L -2(2) . . . . ?
C1L C2L C3L C4L 3(2) . . . . ?
C1L C2L C3L C6L -178.8(12) . . . . ?
C2L C3L C4L C5L -2(2) . . . . ?
C6L C3L C4L C5L 179.3(12) . . . . ?
C1L N1L C5L C4L 0(2) . . . . ?
Pd6 N1L C5L C4L 176.6(11) . . . . ?
C3L C4L C5L N1L 1(2) . . . . ?
C8L N2L C6L N3L 0.0 . . . . ?
C8L N2L C6L C3L -173.2(11) . . . . ?
C4L C3L C6L N2L 167.3(11) . . . . ?
C2L C3L C6L N2L -11.1(16) . . . . ?
C4L C3L C6L N3L -6.0(17) . . . . ?
C2L C3L C6L N3L 175.6(10) . . . . ?
N2L C6L N3L C7L 0.0 . . . . ?
C3L C6L N3L C7L 173.3(10) . . . . ?
C6L N3L C7L N4L 0.0 . . . . ?
C6L N3L C7L C9L 176.8(18) . . . . ?
N3L C7L N4L C8L 0.0 . . . . ?
C9L C7L N4L C8L -176.8(18) . . . . ?
C7L N4L C8L N2L 0.0 . . . . ?
C7L N4L C8L C12L 175.5(11) . . . . ?
C6L N2L C8L N4L 0.0 . . . . ?
C6L N2L C8L C12L -175.5(11) . . . . ?
C14L N5L C10L C11L 2.4(18) . . . . ?
Pd1 N5L C10L C11L 179.7(10) 2_576 . . . ?
N5L C10L C11L C12L -1(2) . . . . ?
C10L C11L C12L C13L 0(2) . . . . ?
C10L C11L C12L C8L -178.3(12) . . . . ?
N4L C8L C12L C11L -169.8(12) . . . . ?
N2L C8L C12L C11L 5.7(18) . . . . ?
N4L C8L C12L C13L 11.8(17) . . . . ?
N2L C8L C12L C13L -172.7(11) . . . . ?
C11L C12L C13L C14L -1(2) . . . . ?
C8L C12L C13L C14L 177.5(13) . . . . ?
C10L N5L C14L C13L -3.2(19) . . . . ?
Pd1 N5L C14L C13L 179.5(10) 2_576 . . . ?
C12L C13L C14L N5L 2(2) . . . . ?
C5M N1M C1M C2M -7.3(15) . . . . ?
Pd8 N1M C1M C2M 174.1(8) . . . . ?
N1M C1M C2M C3M 6.5(16) . . . . ?
C1M C2M C3M C4M -2.5(15) . . . . ?
C1M C2M C3M C6M 178.7(9) . . . . ?
C2M C3M C4M C5M -0.3(15) . . . . ?
C6M C3M C4M C5M 178.4(9) . . . . ?
C1M N1M C5M C4M 4.2(14) . . . . ?
Pd8 N1M C5M C4M -177.2(7) . . . . ?
C3M C4M C5M N1M -0.6(15) . . . . ?
C8M N2M C6M N3M -1.7(15) . . . . ?
C8M N2M C6M C3M 177.3(8) . . . . ?
C4M C3M C6M N2M 177.3(9) . . . . ?
C2M C3M C6M N2M -4.0(14) . . . . ?
C4M C3M C6M N3M -3.5(14) . . . . ?
C2M C3M C6M N3M 175.2(9) . . . . ?
N2M C6M N3M C7M 2.4(15) . . . . ?
C3M C6M N3M C7M -176.7(8) . . . . ?
C6M N3M C7M N4M -2.0(16) . . . . ?
C6M N3M C7M C9M 173.2(10) . . . . ?
N3M C7M N4M C8M 1.1(16) . . . . ?
C9M C7M N4M C8M -174.1(10) . . . . ?
C7M N4M C8M N2M -0.2(14) . . . . ?
C7M N4M C8M C12M 179.2(9) . . . . ?
C6M N2M C8M N4M 0.5(14) . . . . ?
C6M N2M C8M C12M -178.9(8) . . . . ?
C14M N5M C10M C11M 3.9(16) . . . . ?
Pd12 N5M C10M C11M -175.3(9) . . . . ?
N5M C10M C11M C12M -3.4(18) . . . . ?
C10M C11M C12M C13M 2.7(17) . . . . ?
C10M C11M C12M C8M 178.0(10) . . . . ?
N4M C8M C12M C13M -1.4(15) . . . . ?
N2M C8M C12M C13M 178.1(9) . . . . ?
N4M C8M C12M C11M -176.6(10) . . . . ?
N2M C8M C12M C11M 2.9(14) . . . . ?
C11M C12M C13M C14M -2.7(17) . . . . ?
C8M C12M C13M C14M -178.1(10) . . . . ?
C10M N5M C14M C13M -3.9(15) . . . . ?
Pd12 N5M C14M C13M 175.3(8) . . . . ?
C12M C13M C14M N5M 3.4(17) . . . . ?
C5N N1N C1N C2N -4.0(16) . . . . ?
Pd9 N1N C1N C2N 176.7(9) . . . . ?
N1N C1N C2N C3N 1.2(19) . . . . ?
C1N C2N C3N C4N 1.3(18) . . . . ?
C1N C2N C3N C6N -179.0(10) . . . . ?
C2N C3N C4N C5N -1.0(18) . . . . ?
C6N C3N C4N C5N 179.3(10) . . . . ?
C1N N1N C5N C4N 4.2(16) . . . . ?
Pd9 N1N C5N C4N -176.5(8) . . . . ?
C3N C4N C5N N1N -1.8(19) . . . . ?
C8N N2N C6N N3N -5.3(17) . . . . ?
C8N N2N C6N C3N 177.9(9) . . . . ?
C4N C3N C6N N2N -172.5(11) . . . . ?
C2N C3N C6N N2N 7.8(16) . . . . ?
C4N C3N C6N N3N 10.4(17) . . . . ?
C2N C3N C6N N3N -169.3(11) . . . . ?
N2N C6N N3N C7N 5.0(19) . . . . ?
C3N C6N N3N C7N -178.2(11) . . . . ?
C6N N3N C7N N4N -4(2) . . . . ?
C6N N3N C7N C9N 176.2(15) . . . . ?
N3N C7N N4N C8N 3(2) . . . . ?
C9N C7N N4N C8N -177.1(15) . . . . ?
C7N N4N C8N N2N -2.9(18) . . . . ?
C7N N4N C8N C12N 179.1(11) . . . . ?
C6N N2N C8N N4N 4.1(15) . . . . ?
C6N N2N C8N C12N -177.9(9) . . . . ?
C14N N5N C10N C11N 2.1(13) . . . . ?
Pd8 N5N C10N C11N -177.9(7) . . . . ?
N5N C10N C11N C12N -2.4(14) . . . . ?
C10N C11N C12N C13N 1.8(14) . . . . ?
C10N C11N C12N C8N -178.2(9) . . . . ?
N4N C8N C12N C13N -16.0(15) . . . . ?
N2N C8N C12N C13N 165.8(9) . . . . ?
N4N C8N C12N C11N 163.9(10) . . . . ?
N2N C8N C12N C11N -14.2(14) . . . . ?
C11N C12N C13N C14N -1.0(14) . . . . ?
C8N C12N C13N C14N 178.9(9) . . . . ?
C10N N5N C14N C13N -1.3(13) . . . . ?
Pd8 N5N C14N C13N 178.7(7) . . . . ?
C12N C13N C14N N5N 0.8(15) . . . . ?
C5O N1O C1O C2O 2.7(16) . . . . ?
Pd8 N1O C1O C2O 178.5(8) . . . . ?
N1O C1O C2O C3O -3.5(18) . . . . ?
C1O C2O C3O C4O 2.4(18) . . . . ?
C1O C2O C3O C6O -177.3(10) . . . . ?
C2O C3O C4O C5O -1(2) . . . . ?
C6O C3O C4O C5O 178.9(11) . . . . ?
C1O N1O C5O C4O -0.9(17) . . . . ?
Pd8 N1O C5O C4O -176.7(9) . . . . ?
C3O C4O C5O N1O 0(2) . . . . ?
C2O C3O C6O N2O 10.5(15) . . . . ?
C4O C3O C6O N2O -169.2(10) . . . . ?
C2O C3O C6O N3O -173.7(9) . . . . ?
C4O C3O C6O N3O 6.6(15) . . . . ?
C8O N2O C6O C3O 175.8(10) . . . . ?
C8O N2O C6O N3O 0.0 . . . . ?
C3O C6O N3O C7O -175.7(10) . . . . ?
N2O C6O N3O C7O 0.0 . . . . ?
C6O N3O C7O N4O 0.0 . . . . ?
C6O N3O C7O C9O 178.7(16) . . . . ?
N3O C7O N4O C8O 0.0 . . . . ?
C9O C7O N4O C8O -178.6(17) . . . . ?
C7O N4O C8O N2O 0.0 . . . . ?
C7O N4O C8O C12O 179.7(10) . . . . ?
C6O N2O C8O N4O 0.0 . . . . ?
C6O N2O C8O C12O -179.7(10) . . . . ?
C14O N5O C10O C11O -0.5(16) . . . . ?
Pd7 N5O C10O C11O -179.2(9) . . . . ?
N5O C10O C11O C12O 1.6(18) . . . . ?
C10O C11O C12O C13O -2.1(19) . . . . ?
C10O C11O C12O C8O 178.0(11) . . . . ?
N4O C8O C12O C13O -6.8(16) . . . . ?
N2O C8O C12O C13O 172.9(10) . . . . ?
N4O C8O C12O C11O 173.1(9) . . . . ?
N2O C8O C12O C11O -7.3(16) . . . . ?
C11O C12O C13O C14O 2(2) . . . . ?
C8O C12O C13O C14O -178.5(12) . . . . ?
C10O N5O C14O C13O -0.1(17) . . . . ?
Pd7 N5O C14O C13O 178.6(10) . . . . ?
C12O C13O C14O N5O -1(2) . . . . ?
C5P N1P C1P C2P -5.9(16) . . . . ?
Pd7 N1P C1P C2P 176.0(9) . . . . ?
N1P C1P C2P C3P 3.3(19) . . . . ?
C1P C2P C3P C4P -1.4(17) . . . . ?
C1P C2P C3P C6P -178.5(10) . . . . ?
C2P C3P C4P C5P 2.4(16) . . . . ?
C6P C3P C4P C5P 179.5(9) . . . . ?
C1P N1P C5P C4P 6.8(15) . . . . ?
Pd7 N1P C5P C4P -175.0(8) . . . . ?
C3P C4P C5P N1P -5.3(17) . . . . ?
C8P N2P C6P N3P -0.6(14) . . . . ?
C8P N2P C6P C3P 178.2(8) . . . . ?
C4P C3P C6P N2P -178.7(10) . . . . ?
C2P C3P C6P N2P -1.7(14) . . . . ?
C4P C3P C6P N3P 0.2(15) . . . . ?
C2P C3P C6P N3P 177.1(9) . . . . ?
N2P C6P N3P C7P -1.4(14) . . . . ?
C3P C6P N3P C7P 179.8(8) . . . . ?
C6P N3P C7P N4P 3.1(15) . . . . ?
C6P N3P C7P C9P 178.2(9) . . . . ?
N3P C7P N4P C8P -2.7(15) . . . . ?
C9P C7P N4P C8P -177.8(9) . . . . ?
C6P N2P C8P N4P 1.1(14) . . . . ?
C6P N2P C8P C12P -177.9(8) . . . . ?
C7P N4P C8P N2P 0.4(14) . . . . ?
C7P N4P C8P C12P 179.4(9) . . . . ?
C14P N5P C10P C11P 5.0(15) . . . . ?
Pd9 N5P C10P C11P -176.6(8) . . . . ?
N5P C10P C11P C12P -2.7(16) . . . . ?
C10P C11P C12P C13P -0.7(15) . . . . ?
C10P C11P C12P C8P 178.4(9) . . . . ?
N2P C8P C12P C11P 3.7(13) . . . . ?
N4P C8P C12P C11P -175.4(9) . . . . ?
N2P C8P C12P C13P -177.2(9) . . . . ?
N4P C8P C12P C13P 3.7(13) . . . . ?
C11P C12P C13P C14P 1.6(15) . . . . ?
C8P C12P C13P C14P -177.5(9) . . . . ?
C10P N5P C14P C13P -4.0(14) . . . . ?
Pd9 N5P C14P C13P 177.6(7) . . . . ?
C12P C13P C14P N5P 0.8(15) . . . . ?
C5Q N1Q C1Q C2Q 2.2(16) . . . . ?
Pd9 N1Q C1Q C2Q -175.4(8) . . . . ?
N1Q C1Q C2Q C3Q -1.5(17) . . . . ?
C1Q C2Q C3Q C4Q -1.6(17) . . . . ?
C1Q C2Q C3Q C6Q 178.7(19) . . . . ?
C1Q C2Q C3Q C56Q -178.1(14) . . . . ?
C2Q C3Q C4Q C5Q 4.1(19) . . . . ?
C6Q C3Q C4Q C5Q -176.2(17) . . . . ?
C56Q C3Q C4Q C5Q -179.7(15) . . . . ?
C1Q N1Q C5Q C4Q 0.4(16) . . . . ?
Pd9 N1Q C5Q C4Q 178.0(9) . . . . ?
C3Q C4Q C5Q N1Q -3.5(19) . . . . ?
C8Q N2Q C6Q N3Q 0.0 . . . . ?
C8Q N2Q C6Q C3Q -167(2) . . . . ?
C2Q C3Q C6Q N2Q 3(2) . . . . ?
C4Q C3Q C6Q N2Q -176.9(13) . . . . ?
C56Q C3Q C6Q N2Q -12(10) . . . . ?
C2Q C3Q C6Q N3Q -162.8(19) . . . . ?
C4Q C3Q C6Q N3Q 17(3) . . . . ?
C56Q C3Q C6Q N3Q -178(12) . . . . ?
N2Q C6Q N3Q C7Q 0.0 . . . . ?
C3Q C6Q N3Q C7Q 164(3) . . . . ?
C6Q N3Q C7Q N4Q 0.0 . . . . ?
C6Q N3Q C7Q C9Q 178(2) . . . . ?
N3Q C7Q N4Q C8Q 0.0 . . . . ?
C9Q C7Q N4Q C8Q -178(2) . . . . ?
C7Q N4Q C8Q N2Q 0.0 . . . . ?
C7Q N4Q C8Q C12Q -171(2) . . . . ?
C6Q N2Q C8Q N4Q 0.0 . . . . ?
C6Q N2Q C8Q C12Q 169(3) . . . . ?
C58Q N52Q C56Q N53Q 0.0 . . . . ?
C58Q N52Q C56Q C3Q -177.6(19) . . . . ?
C2Q C3Q C56Q N52Q -19(2) . . . . ?
C4Q C3Q C56Q N52Q 164.8(14) . . . . ?
C6Q C3Q C56Q N52Q 148(11) . . . . ?
C2Q C3Q C56Q N53Q 163.3(13) . . . . ?
C4Q C3Q C56Q N53Q -13(2) . . . . ?
C6Q C3Q C56Q N53Q -30(10) . . . . ?
N52Q C56Q N53Q C57Q 0.0 . . . . ?
C3Q C56Q N53Q C57Q 177.9(17) . . . . ?
C56Q N53Q C57Q N54Q 0.0 . . . . ?
C56Q N53Q C57Q C59Q -174(2) . . . . ?
N53Q C57Q N54Q C58Q 0.0 . . . . ?
C59Q C57Q N54Q C58Q 174.4(19) . . . . ?
C57Q N54Q C58Q N52Q 0.0 . . . . ?
C57Q N54Q C58Q C12Q 174(2) . . . . ?
C56Q N52Q C58Q N54Q 0.0 . . . . ?
C56Q N52Q C58Q C12Q -174.6(18) . . . . ?
C14Q N5Q C10Q C11Q -1.9(17) . . . . ?
Pd11 N5Q C10Q C11Q 177.5(9) . . . . ?
N5Q C10Q C11Q C12Q 1.7(18) . . . . ?
C10Q C11Q C12Q C13Q 1.3(18) . . . . ?
C10Q C11Q C12Q C58Q 177.9(15) . . . . ?
C10Q C11Q C12Q C8Q -179.9(16) . . . . ?
N54Q C58Q C12Q C13Q 16(2) . . . . ?
N52Q C58Q C12Q C13Q -170.0(11) . . . . ?
N54Q C58Q C12Q C11Q -160.7(16) . . . . ?
N52Q C58Q C12Q C11Q 13.3(19) . . . . ?
N54Q C58Q C12Q C8Q -173(14) . . . . ?
N52Q C58Q C12Q C8Q 1(12) . . . . ?
N4Q C8Q C12Q C13Q -13(2) . . . . ?
N2Q C8Q C12Q C13Q 176.5(16) . . . . ?
N4Q C8Q C12Q C11Q 167.9(14) . . . . ?
N2Q C8Q C12Q C11Q -2(3) . . . . ?
N4Q C8Q C12Q C58Q -23(12) . . . . ?
N2Q C8Q C12Q C58Q 166(14) . . . . ?
C11Q C12Q C13Q C14Q -4.0(19) . . . . ?
C58Q C12Q C13Q C14Q 179.1(15) . . . . ?
C8Q C12Q C13Q C14Q 177.4(18) . . . . ?
C10Q N5Q C14Q C13Q -0.8(16) . . . . ?
Pd11 N5Q C14Q C13Q 179.8(9) . . . . ?
C12Q C13Q C14Q N5Q 3.9(19) . . . . ?
C5R N1R C1R C2R 1.7(16) . . . . ?
Pd10 N1R C1R C2R -176.5(8) . . . . ?
N1R C1R C2R C3R -0.6(18) . . . . ?
C1R C2R C3R C4R -1.8(17) . . . . ?
C1R C2R C3R C6R 178.8(11) . . . . ?
C2R C3R C4R C5R 3.1(17) . . . . ?
C6R C3R C4R C5R -177.4(11) . . . . ?
C1R N1R C5R C4R -0.4(16) . . . . ?
Pd10 N1R C5R C4R 177.8(8) . . . . ?
C3R C4R C5R N1R -2.2(18) . . . . ?
C8R N2R C6R N3R 4.5(18) . . . . ?
C8R N2R C6R C3R -177.8(9) . . . . ?
C4R C3R C6R N2R 174.1(10) . . . . ?
C2R C3R C6R N2R -6.6(16) . . . . ?
C4R C3R C6R N3R -8.0(17) . . . . ?
C2R C3R C6R N3R 171.4(11) . . . . ?
N2R C6R N3R C7R -4(2) . . . . ?
C3R C6R N3R C7R 178.7(12) . . . . ?
C6R N3R C7R N4R 2(2) . . . . ?
C6R N3R C7R C9R 177.3(14) . . . . ?
N3R C7R N4R C8R -1(2) . . . . ?
C9R C7R N4R C8R -176.7(14) . . . . ?
C7R N4R C8R N2R 2.3(19) . . . . ?
C7R N4R C8R C12R -179.1(11) . . . . ?
C6R N2R C8R N4R -3.7(16) . . . . ?
C6R N2R C8R C12R 177.7(9) . . . . ?
C14R N5R C10R C11R 0.2(14) . . . . ?
Pd9 N5R C10R C11R 177.9(7) . . . . ?
N5R C10R C11R C12R 0.9(15) . . . . ?
C10R C11R C12R C13R -1.9(14) . . . . ?
C10R C11R C12R C8R 178.9(9) . . . . ?
N4R C8R C12R C11R -165.6(10) . . . . ?
N2R C8R C12R C11R 13.1(14) . . . . ?
N4R C8R C12R C13R 15.2(15) . . . . ?
N2R C8R C12R C13R -166.1(9) . . . . ?
C11R C12R C13R C14R 1.9(14) . . . . ?
C8R C12R C13R C14R -178.9(8) . . . . ?
C10R N5R C14R C13R -0.2(14) . . . . ?
Pd9 N5R C14R C13R -178.0(7) . . . . ?
C12R C13R C14R N5R -0.8(15) . . . . ?
C5S N1S C1S C2S -0.8(16) . . . . ?
Pd10 N1S C1S C2S 176.9(8) . . . . ?
N1S C1S C2S C3S -2.6(18) . . . . ?
C1S C2S C3S C4S 5.7(18) . . . . ?
C1S C2S C3S C56S -178.1(12) . . . . ?
C1S C2S C3S C6S -175(3) . . . . ?
C2S C3S C4S C5S -5.8(19) . . . . ?
C56S C3S C4S C5S 178.2(13) . . . . ?
C6S C3S C4S C5S 175(2) . . . . ?
C1S N1S C5S C4S 0.9(16) . . . . ?
Pd10 N1S C5S C4S -176.9(9) . . . . ?
C3S C4S C5S N1S 2.5(19) . . . . ?
C8S N2S C6S N3S 0.0 . . . . ?
C8S N2S C6S C3S 162(3) . . . . ?
C2S C3S C6S N3S 153(3) . . . . ?
C4S C3S C6S N3S -28(4) . . . . ?
C56S C3S C6S N3S 164(12) . . . . ?
C2S C3S C6S N2S -5(3) . . . . ?
C4S C3S C6S N2S 174.4(17) . . . . ?
C56S C3S C6S N2S 6(9) . . . . ?
N2S C6S N3S C7S 0.0 . . . . ?
C3S C6S N3S C7S -154(4) . . . . ?
C6S N3S C7S N4S 0.0 . . . . ?
C6S N3S C7S C9S -177(3) . . . . ?
N3S C7S N4S C8S 0.0 . . . . ?
C9S C7S N4S C8S 178(2) . . . . ?
C7S N4S C8S N2S 0.0 . . . . ?
C7S N4S C8S C12S 179(3) . . . . ?
C6S N2S C8S N4S 0.0 . . . . ?
C6S N2S C8S C12S -178(4) . . . . ?
C58S N52S C56S N53S 0.0 . . . . ?
C58S N52S C56S C3S -180.0(15) . . . . ?
C2S C3S C56S N52S 10.8(18) . . . . ?
C4S C3S C56S N52S -173.2(11) . . . . ?
C6S C3S C56S N52S -160(10) . . . . ?
C2S C3S C56S N53S -169.2(11) . . . . ?
C4S C3S C56S N53S 6.8(19) . . . . ?
C6S C3S C56S N53S 20(9) . . . . ?
N52S C56S N53S C57S 0.0 . . . . ?
C3S C56S N53S C57S 180.0(14) . . . . ?
C56S N53S C57S N54S 0.0 . . . . ?
C56S N53S C57S C59S 172.0(18) . . . . ?
N53S C57S N54S C58S 0.0 . . . . ?
C59S C57S N54S C58S -172.4(17) . . . . ?
C57S N54S C58S N52S 0.0 . . . . ?
C57S N54S C58S C12S 175.4(16) . . . . ?
C56S N52S C58S N54S 0.0 . . . . ?
C56S N52S C58S C12S -175.8(14) . . . . ?
C14S N5S C10S C11S 0.4(16) . . . . ?
Pd12 N5S C10S C11S -179.0(9) 2_665 . . . ?
N5S C10S C11S C12S 1.3(19) . . . . ?
C10S C11S C12S C13S -3(2) . . . . ?
C10S C11S C12S C58S -177.7(13) . . . . ?
C10S C11S C12S C8S 172(2) . . . . ?
N54S C58S C12S C13S -5(2) . . . . ?
N52S C58S C12S C13S 170.8(11) . . . . ?
N54S C58S C12S C11S 169.5(12) . . . . ?
N52S C58S C12S C11S -15.0(18) . . . . ?
N54S C58S C12S C8S -140(11) . . . . ?
N52S C58S C12S C8S 36(10) . . . . ?
N4S C8S C12S C13S 14(3) . . . . ?
N2S C8S C12S C13S -167(2) . . . . ?
N4S C8S C12S C11S -160.2(16) . . . . ?
N2S C8S C12S C11S 18(4) . . . . ?
N4S C8S C12S C58S 66(10) . . . . ?
N2S C8S C12S C58S -116(12) . . . . ?
C11S C12S C13S C14S 4(2) . . . . ?
C58S C12S C13S C14S 178.2(14) . . . . ?
C8S C12S C13S C14S -171(3) . . . . ?
C10S N5S C14S C13S 0.0(17) . . . . ?
Pd12 N5S C14S C13S 179.4(9) 2_665 . . . ?
C12S C13S C14S N5S -2(2) . . . . ?
C5T N1T C1T C2T 1.0(13) . . . . ?
Pd10 N1T C1T C2T -178.3(7) . . . . ?
N1T C1T C2T C3T -0.3(15) . . . . ?
C1T C2T C3T C4T 0.0(15) . . . . ?
C1T C2T C3T C6T -178.7(9) . . . . ?
C2T C3T C4T C5T -0.3(14) . . . . ?
C6T C3T C4T C5T 178.4(8) . . . . ?
C1T N1T C5T C4T -1.4(13) . . . . ?
Pd10 N1T C5T C4T 177.9(7) . . . . ?
C3T C4T C5T N1T 1.1(14) . . . . ?
C8T N2T C6T N3T 0.9(16) . . . . ?
C8T N2T C6T C3T -178.2(9) . . . . ?
C2T C3T C6T N3T 165.6(10) . . . . ?
C4T C3T C6T N3T -13.1(14) . . . . ?
C2T C3T C6T N2T -15.3(14) . . . . ?
C4T C3T C6T N2T 166.0(9) . . . . ?
N2T C6T N3T C7T -0.8(18) . . . . ?
C3T C6T N3T C7T 178.3(11) . . . . ?
C6T N3T C7T N4T 4(2) . . . . ?
C6T N3T C7T C9T 178.0(15) . . . . ?
N3T C7T N4T C8T -6(2) . . . . ?
C9T C7T N4T C8T 179.5(15) . . . . ?
C6T N2T C8T N4T -3.9(16) . . . . ?
C6T N2T C8T C12T 179.4(9) . . . . ?
C7T N4T C8T N2T 6.4(18) . . . . ?
C7T N4T C8T C12T -176.9(12) . . . . ?
C14T N5T C10T C11T -2.6(15) . . . . ?
Pd8 N5T C10T C11T 177.1(8) 2_665 . . . ?
N5T C10T C11T C12T 1.6(18) . . . . ?
C10T C11T C12T C13T 1.5(18) . . . . ?
C10T C11T C12T C8T -177.5(11) . . . . ?
N2T C8T C12T C11T 6.7(16) . . . . ?
N4T C8T C12T C11T -170.3(10) . . . . ?
N2T C8T C12T C13T -172.2(10) . . . . ?
N4T C8T C12T C13T 10.8(16) . . . . ?
C11T C12T C13T C14T -3.2(17) . . . . ?
C8T C12T C13T C14T 175.8(10) . . . . ?
C10T N5T C14T C13T 0.8(16) . . . . ?
Pd8 N5T C14T C13T -178.9(9) 2_665 . . . ?
C12T C13T C14T N5T 2.2(18) . . . . ?
C5U N1U C1U C2U -4.5(14) . . . . ?
Pd10 N1U C1U C2U 176.2(7) . . . . ?
N1U C1U C2U C3U 2.4(15) . . . . ?
C1U C2U C3U C4U 1.1(15) . . . . ?
C1U C2U C3U C6U -178.1(9) . . . . ?
C2U C3U C4U C5U -2.6(14) . . . . ?
C6U C3U C4U C5U 176.7(9) . . . . ?
C1U N1U C5U C4U 2.9(14) . . . . ?
Pd10 N1U C5U C4U -177.8(7) . . . . ?
C3U C4U C5U N1U 0.5(15) . . . . ?
C8U N2U C6U N3U -1.0(15) . . . . ?
C8U N2U C6U C3U 178.8(8) . . . . ?
C4U C3U C6U N2U 177.2(9) . . . . ?
C2U C3U C6U N2U -3.6(14) . . . . ?
C4U C3U C6U N3U -3.0(14) . . . . ?
C2U C3U C6U N3U 176.2(9) . . . . ?
N2U C6U N3U C7U 0.9(15) . . . . ?
C3U C6U N3U C7U -178.9(8) . . . . ?
C6U N3U C7U N4U -1.5(16) . . . . ?
C6U N3U C7U C9U 175.5(10) . . . . ?
N3U C7U N4U C8U 2.1(16) . . . . ?
C9U C7U N4U C8U -174.8(10) . . . . ?
C6U N2U C8U N4U 1.6(13) . . . . ?
C6U N2U C8U C12U -179.7(9) . . . . ?
C7U N4U C8U N2U -2.1(14) . . . . ?
C7U N4U C8U C12U 179.1(9) . . . . ?
C14U N5U C10U C11U 6.7(15) . . . . ?
Pd11 N5U C10U C11U -177.5(8) . . . . ?
N5U C10U C11U C12U -2.5(18) . . . . ?
C10U C11U C12U C13U 1.1(16) . . . . ?
C10U C11U C12U C8U 176.3(10) . . . . ?
N2U C8U C12U C13U 177.2(9) . . . . ?
N4U C8U C12U C13U -4.0(15) . . . . ?
N2U C8U C12U C11U 2.5(14) . . . . ?
N4U C8U C12U C11U -178.7(9) . . . . ?
C11U C12U C13U C14U -4.0(16) . . . . ?
C8U C12U C13U C14U -179.0(10) . . . . ?
C10U N5U C14U C13U -9.5(15) . . . . ?
Pd11 N5U C14U C13U 174.7(8) . . . . ?
C12U C13U C14U N5U 8.5(17) . . . . ?
C5V N1V C1V C2V 0.7(16) . . . . ?
Pd11 N1V C1V C2V 176.3(9) . . . . ?
N1V C1V C2V C3V -5.4(19) . . . . ?
C1V C2V C3V C4V 10.5(19) . . . . ?
C1V C2V C3V C56V 177.4(17) . . . . ?
C1V C2V C3V C6V -166(2) . . . . ?
C2V C3V C4V C5V -11(2) . . . . ?
C56V C3V C4V C5V -179.0(17) . . . . ?
C6V C3V C4V C5V 165(2) . . . . ?
C1V N1V C5V C4V -1.5(17) . . . . ?
Pd11 N1V C5V C4V -177.1(9) . . . . ?
C3V C4V C5V N1V 7(2) . . . . ?
C8V N2V C6V N3V 0.0 . . . . ?
C8V N2V C6V C3V -179(3) . . . . ?
C2V C3V C6V N2V -13(3) . . . . ?
C4V C3V C6V N2V 171.3(15) . . . . ?
C56V C3V C6V N2V 99(8) . . . . ?
C2V C3V C6V N3V 168.1(16) . . . . ?
C4V C3V C6V N3V -8(3) . . . . ?
C56V C3V C6V N3V -81(7) . . . . ?
N2V C6V N3V C7V 0.0 . . . . ?
C3V C6V N3V C7V 179(3) . . . . ?
C6V N3V C7V C9V -170(2) . . . . ?
C6V N3V C7V N4V 0.0 . . . . ?
C9V C7V N4V C8V 170(2) . . . . ?
N3V C7V N4V C8V 0.0 . . . . ?
C7V N4V C8V N2V 0.0 . . . . ?
C7V N4V C8V C12V 180(3) . . . . ?
C6V N2V C8V N4V 0.0 . . . . ?
C6V N2V C8V C12V -180(3) . . . . ?
C58V N52V C56V N53V 0.0 . . . . ?
C58V N52V C56V C3V 176(2) . . . . ?
C2V C3V C56V N52V 14(2) . . . . ?
C4V C3V C56V N52V -178.5(12) . . . . ?
C6V C3V C56V N52V -63(7) . . . . ?
C2V C3V C56V N53V -169.8(14) . . . . ?
C4V C3V C56V N53V -3(3) . . . . ?
C6V C3V C56V N53V 112(9) . . . . ?
N52V C56V N53V C57V 0.0 . . . . ?
C3V C56V N53V C57V -176(2) . . . . ?
C56V N53V C57V N54V 0.0 . . . . ?
C56V N53V C57V C59V 178.1(19) . . . . ?
N53V C57V N54V C58V 0.0 . . . . ?
C59V C57V N54V C58V -178(2) . . . . ?
C57V N54V C58V N52V 0.0 . . . . ?
C57V N54V C58V C12V 174(2) . . . . ?
C56V N52V C58V N54V 0.0 . . . . ?
C56V N52V C58V C12V -173(2) . . . . ?
C14V N5V C10V C11V -3.5(16) . . . . ?
Pd7 N5V C10V C11V -178.5(8) 2_665 . . . ?
N5V C10V C11V C12V 3.0(18) . . . . ?
C10V C11V C12V C13V -1.8(19) . . . . ?
C10V C11V C12V C8V 166(2) . . . . ?
C10V C11V C12V C58V -176.7(16) . . . . ?
N4V C8V C12V C13V 2(3) . . . . ?
N2V C8V C12V C13V -177.6(14) . . . . ?
N4V C8V C12V C11V -165.4(19) . . . . ?
N2V C8V C12V C11V 15(2) . . . . ?
N4V C8V C12V C58V 124(8) . . . . ?
N2V C8V C12V C58V -56(7) . . . . ?
N54V C58V C12V C13V -2(2) . . . . ?
N52V C58V C12V C13V 171.3(14) . . . . ?
N54V C58V C12V C11V 172.3(13) . . . . ?
N52V C58V C12V C11V -14(2) . . . . ?
N54V C58V C12V C8V -70(6) . . . . ?
N52V C58V C12V C8V 104(7) . . . . ?
C11V C12V C13V C14V 1(2) . . . . ?
C8V C12V C13V C14V -167(2) . . . . ?
C58V C12V C13V C14V 175.7(18) . . . . ?
C10V N5V C14V C13V 3.0(19) . . . . ?
Pd7 N5V C14V C13V 177.8(11) 2_665 . . . ?
C12V C13V C14V N5V -2(2) . . . . ?
C5W N1W C1W C2W 0.2(17) . . . . ?
Pd11 N1W C1W C2W -177.0(9) . . . . ?
N1W C1W C2W C3W -0.7(19) . . . . ?
C1W C2W C3W C4W -1(2) . . . . ?
C1W C2W C3W C56W 178.4(14) . . . . ?
C1W C2W C3W C6W 174(2) . . . . ?
C2W C3W C4W C5W 3(2) . . . . ?
C56W C3W C4W C5W -176.2(15) . . . . ?
C6W C3W C4W C5W -172(3) . . . . ?
C1W N1W C5W C4W 2.1(19) . . . . ?
Pd11 N1W C5W C4W 179.3(12) . . . . ?
C3W C4W C5W N1W -4(2) . . . . ?
C8W N2W C6W N3W 0.0 . . . . ?
C8W N2W C6W C3W -159(4) . . . . ?
C4W C3W C6W N3W 27(3) . . . . ?
C2W C3W C6W N3W -148.6(19) . . . . ?
C56W C3W C6W N3W 102(36) . . . . ?
C4W C3W C6W N2W -173(2) . . . . ?
C2W C3W C6W N2W 12(4) . . . . ?
C56W C3W C6W N2W -98(36) . . . . ?
N2W C6W N3W C7W 0.0 . . . . ?
C3W C6W N3W C7W 162(3) . . . . ?
C6W N3W C7W N4W 0.0 . . . . ?
C6W N3W C7W C9W -179(4) . . . . ?
N3W C7W N4W C8W 0.0 . . . . ?
C9W C7W N4W C8W 180(2) . . . . ?
C7W N4W C8W N2W 0.0 . . . . ?
C7W N4W C8W C12W -178(4) . . . . ?
C6W N2W C8W N4W 0.0 . . . . ?
C6W N2W C8W C12W 178(3) . . . . ?
C58W N52W C56W N53W 0.0 . . . . ?
C58W N52W C56W C3W 179.1(16) . . . . ?
C4W C3W C56W N53W -5(2) . . . . ?
C2W C3W C56W N53W 175.4(11) . . . . ?
C6W C3W C56W N53W -112(36) . . . . ?
C4W C3W C56W N52W 175.8(11) . . . . ?
C2W C3W C56W N52W -3.7(18) . . . . ?
C6W C3W C56W N52W 69(35) . . . . ?
N52W C56W N53W C57W 0.0 . . . . ?
C3W C56W N53W C57W -179.1(16) . . . . ?
C56W N53W C57W N54W 0.0 . . . . ?
C56W N53W C57W C59W -178.0(17) . . . . ?
N53W C57W N54W C58W 0.0 . . . . ?
C59W C57W N54W C58W 177.8(18) . . . . ?
C57W N54W C58W N52W 0.0 . . . . ?
C57W N54W C58W C12W -177.2(13) . . . . ?
C56W N52W C58W N54W 0.0 . . . . ?
C56W N52W C58W C12W 177.1(14) . . . . ?
C14W N5W C10W C11W -0.8(16) . . . . ?
Pd12 N5W C10W C11W 173.8(9) . . . . ?
N5W C10W C11W C12W -0.3(19) . . . . ?
C10W C11W C12W C13W 4.4(19) . . . . ?
C10W C11W C12W C58W -179.5(13) . . . . ?
C10W C11W C12W C8W -159(3) . . . . ?
N54W C58W C12W C13W -0.5(19) . . . . ?
N52W C58W C12W C13W -177.6(12) . . . . ?
N54W C58W C12W C11W -176.4(11) . . . . ?
N52W C58W C12W C11W 6.4(18) . . . . ?
N54W C58W C12W C8W 67(5) . . . . ?
N52W C58W C12W C8W -110(6) . . . . ?
N4W C8W C12W C13W -23(4) . . . . ?
N2W C8W C12W C13W 158.9(17) . . . . ?
N4W C8W C12W C11W 141(3) . . . . ?
N2W C8W C12W C11W -37(3) . . . . ?
N4W C8W C12W C58W -144(8) . . . . ?
N2W C8W C12W C58W 38(5) . . . . ?
C11W C12W C13W C14W -7(2) . . . . ?
C58W C12W C13W C14W 176.8(13) . . . . ?
C8W C12W C13W C14W 158(2) . . . . ?
C10W N5W C14W C13W -2.4(17) . . . . ?
Pd12 N5W C14W C13W -176.9(10) . . . . ?
C12W C13W C14W N5W 6(2) . . . . ?
C5X N1X C1X C2X 2.3(17) . . . . ?
Pd12 N1X C1X C2X -176.1(9) . . . . ?
N1X C1X C2X C3X -1.6(19) . . . . ?
C1X C2X C3X C4X -2(2) . . . . ?
C1X C2X C3X C6X 168(2) . . . . ?
C1X C2X C3X C56X -174.5(17) . . . . ?
C2X C3X C4X C5X 4(2) . . . . ?
C6X C3X C4X C5X -167(2) . . . . ?
C56X C3X C4X C5X 176.6(18) . . . . ?
C1X N1X C5X C4X 0(2) . . . . ?
Pd12 N1X C5X C4X 178.7(11) . . . . ?
C3X C4X C5X N1X -3(2) . . . . ?
C8X N2X C6X N3X 0.0 . . . . ?
C8X N2X C6X C3X 180(3) . . . . ?
C2X C3X C6X N2X 14(3) . . . . ?
C4X C3X C6X N2X -175.9(14) . . . . ?
C56X C3X C6X N2X -54(7) . . . . ?
C2X C3X C6X N3X -166.4(19) . . . . ?
C4X C3X C6X N3X 4(3) . . . . ?
C56X C3X C6X N3X 126(9) . . . . ?
N2X C6X N3X C7X 0.0 . . . . ?
C3X C6X N3X C7X -180(3) . . . . ?
C6X N3X C7X N4X 0.0 . . . . ?
C6X N3X C7X C9X 174(2) . . . . ?
N3X C7X N4X C8X 0.0 . . . . ?
C9X C7X N4X C8X -172(3) . . . . ?
C7X N4X C8X N2X 0.0 . . . . ?
C7X N4X C8X C12X -179(3) . . . . ?
C6X N2X C8X N4X 0.0 . . . . ?
C6X N2X C8X C12X 178(3) . . . . ?
C58X N52X C56X N53X 0.0 . . . . ?
C58X N52X C56X C3X -175(2) . . . . ?
C2X C3X C56X N52X -16(2) . . . . ?
C4X C3X C56X N52X 171.5(14) . . . . ?
C6X C3X C56X N52X 106(8) . . . . ?
C2X C3X C56X N53X 169.2(14) . . . . ?
C4X C3X C56X N53X -3(2) . . . . ?
C6X C3X C56X N53X -69(7) . . . . ?
N52X C56X N53X C57X 0.0 . . . . ?
C3X C56X N53X C57X 175(2) . . . . ?
C56X N53X C57X N54X 0.0 . . . . ?
C56X N53X C57X C59X 179(2) . . . . ?
N53X C57X N54X C58X 0.0 . . . . ?
C59X C57X N54X C58X -179(2) . . . . ?
C57X N54X C58X N52X 0.0 . . . . ?
C57X N54X C58X C12X -176(2) . . . . ?
C56X N52X C58X N54X 0.0 . . . . ?
C56X N52X C58X C12X 176(2) . . . . ?
C14X N5X C10X C11X -1.9(17) . . . . ?
Pd7 N5X C10X C11X 173.9(9) 2_665 . . . ?
N5X C10X C11X C12X -2.4(19) . . . . ?
C10X C11X C12X C13X 6.7(19) . . . . ?
C10X C11X C12X C58X 174.0(18) . . . . ?
C10X C11X C12X C8X -171(2) . . . . ?
N54X C58X C12X C13X 0(3) . . . . ?
N52X C58X C12X C13X -176.4(12) . . . . ?
N54X C58X C12X C11X -167.9(15) . . . . ?
N52X C58X C12X C11X 16(2) . . . . ?
N54X C58X C12X C8X 115(10) . . . . ?
N52X C58X C12X C8X -62(8) . . . . ?
N4X C8X C12X C13X -8(3) . . . . ?
N2X C8X C12X C13X 173.3(16) . . . . ?
N4X C8X C12X C11X 169.3(16) . . . . ?
N2X C8X C12X C11X -9(3) . . . . ?
N4X C8X C12X C58X -81(8) . . . . ?
N2X C8X C12X C58X 101(9) . . . . ?
C11X C12X C13X C14X -7(2) . . . . ?
C58X C12X C13X C14X -174.6(18) . . . . ?
C8X C12X C13X C14X 171(2) . . . . ?
C10X N5X C14X C13X 1.9(17) . . . . ?
Pd7 N5X C14X C13X -174.0(10) 2_665 . . . ?
C12X C13X C14X N5X 2(2) . . . . ?
C5E N1E Pd1 N5F 100.9(8) . . . . ?
C1E N1E Pd1 N5F -81.6(9) . . . . ?
C5E N1E Pd1 N1K -83(55) . . . 2_576 ?
C1E N1E Pd1 N1K 95(51) . . . 2_576 ?
C5E N1E Pd1 N5L -78.4(8) . . . 2_576 ?
C1E N1E Pd1 N5L 99.1(9) . . . 2_576 ?
C10F N5F Pd1 N1E 90.8(9) . . . . ?
C14F N5F Pd1 N1E -83.2(8) . . . . ?
C10F N5F Pd1 N1K -89.1(9) . . . 2_576 ?
C14F N5F Pd1 N1K 96.8(7) . . . 2_576 ?
C10F N5F Pd1 N5L 168(100) . . . 2_576 ?
C14F N5F Pd1 N5L -6(31) . . . 2_576 ?
C14D N5D Pd2 N1G 92.8(10) . . . . ?
C10D N5D Pd2 N1G -89.0(9) . . . . ?
C14D N5D Pd2 N5H -50(23) . . . . ?
C10D N5D Pd2 N5H 128(22) . . . . ?
C14D N5D Pd2 N1F -87.5(10) . . . . ?
C10D N5D Pd2 N1F 90.6(9) . . . . ?
C5G N1G Pd2 N5D -80.0(10) . . . . ?
C1G N1G Pd2 N5D 98.8(10) . . . . ?
C5G N1G Pd2 N5H 99.4(10) . . . . ?
C1G N1G Pd2 N5H -81.7(10) . . . . ?
C5G N1G Pd2 N1F -89(10) . . . . ?
C1G N1G Pd2 N1F 89(10) . . . . ?
C10H N5H Pd2 N5D -130(22) . . . . ?
C14H N5H Pd2 N5D 55(23) . . . . ?
C10H N5H Pd2 N1G 87.1(8) . . . . ?
C14H N5H Pd2 N1G -88.5(8) . . . . ?
C10H N5H Pd2 N1F -92.6(8) . . . . ?
C14H N5H Pd2 N1F 91.8(8) . . . . ?
C1F N1F Pd2 N5D -91.3(9) . . . . ?
C5F N1F Pd2 N5D 86.2(8) . . . . ?
C1F N1F Pd2 N1G -82(10) . . . . ?
C5F N1F Pd2 N1G 96(10) . . . . ?
C1F N1F Pd2 N5H 89.3(9) . . . . ?
C5F N1F Pd2 N5H -93.2(8) . . . . ?
C10A N5A Pd3 N5C -90.2(9) . . . . ?
C14A N5A Pd3 N5C 89.7(10) . . . . ?
C10A N5A Pd3 N5E 90.3(9) . . . . ?
C14A N5A Pd3 N5E -89.9(10) . . . . ?
C10A N5A Pd3 N1D 106(100) . . . . ?
C14A N5A Pd3 N1D -74(100) . . . . ?
C14C N5C Pd3 N5A -84.6(8) . . . . ?
C10C N5C Pd3 N5A 87.4(8) . . . . ?
C14C N5C Pd3 N5E -62(19) . . . . ?
C10C N5C Pd3 N5E 110(19) . . . . ?
C14C N5C Pd3 N1D 95.3(8) . . . . ?
C10C N5C Pd3 N1D -92.7(8) . . . . ?
C14E N5E Pd3 N5A 78.9(10) . . . . ?
C10E N5E Pd3 N5A -97.7(10) . . . . ?
C14E N5E Pd3 N5C 56(19) . . . . ?
C10E N5E Pd3 N5C -120(18) . . . . ?
C14E N5E Pd3 N1D -101.0(10) . . . . ?
C10E N5E Pd3 N1D 82.4(10) . . . . ?
C5D N1D Pd3 N5A 76(100) . . . . ?
C1D N1D Pd3 N5A -104(100) . . . . ?
C5D N1D Pd3 N5C -88.2(9) . . . . ?
C1D N1D Pd3 N5C 92.6(8) . . . . ?
C5D N1D Pd3 N5E 91.3(9) . . . . ?
C1D N1D Pd3 N5E -87.9(8) . . . . ?
C14B N5B Pd4 N1H -79.9(11) . . . 2_576 ?
C10B N5B Pd4 N1H 97.6(10) . . . 2_576 ?
C14B N5B Pd4 N5I -96(12) . . . 2_576 ?
C10B N5B Pd4 N5I 81(12) . . . 2_576 ?
C14B N5B Pd4 N1A 99.6(11) . . . . ?
C10B N5B Pd4 N1A -82.8(10) . . . . ?
C1A N1A Pd4 N1H -173(100) . . . 2_576 ?
C5A N1A Pd4 N1H 11(49) . . . 2_576 ?
C1A N1A Pd4 N5I -93.7(9) . . . 2_576 ?
C5A N1A Pd4 N5I 90.5(8) . . . 2_576 ?
C1A N1A Pd4 N5B 85.8(9) . . . . ?
C5A N1A Pd4 N5B -90.0(9) . . . . ?
C14K N5K Pd5 N1B -88.7(10) . . . . ?
C10K N5K Pd5 N1B 88.9(9) . . . . ?
C14K N5K Pd5 N1C 46(15) . . . . ?
C10K N5K Pd5 N1C -137(14) . . . . ?
C14K N5K Pd5 N5J 92.1(10) . . . . ?
C10K N5K Pd5 N5J -90.4(9) . . . . ?
C5B N1B Pd5 N5K 78.5(9) . . . . ?
C1B N1B Pd5 N5K -100.0(9) . . . . ?
C5B N1B Pd5 N1C -100.5(8) . . . . ?
C1B N1B Pd5 N1C 81.0(9) . . . . ?
C5B N1B Pd5 N5J 143(28) . . . . ?
C1B N1B Pd5 N5J -35(28) . . . . ?
C1C N1C Pd5 N5K 135(14) . . . . ?
C5C N1C Pd5 N5K -53(15) . . . . ?
C1C N1C Pd5 N1B -90.5(9) . . . . ?
C5C N1C Pd5 N1B 81.4(8) . . . . ?
C1C N1C Pd5 N5J 88.8(9) . . . . ?
C5C N1C Pd5 N5J -99.3(8) . . . . ?
C10J N5J Pd5 N5K 84.1(9) . . . . ?
C14J N5J Pd5 N5K -92.0(9) . . . . ?
C10J N5J Pd5 N1B 19(28) . . . . ?
C14J N5J Pd5 N1B -157(37) . . . . ?
C10J N5J Pd5 N1C -97.0(9) . . . . ?
C14J N5J Pd5 N1C 87.0(9) . . . . ?
C14G N5G Pd6 N1I -100.1(8) . . . . ?
C10G N5G Pd6 N1I 80.1(9) . . . . ?
C14G N5G Pd6 N1J 79.1(8) . . . . ?
C10G N5G Pd6 N1J -100.8(9) . . . . ?
C14G N5G Pd6 N1L 168(32) . . . . ?
C10G N5G Pd6 N1L -12(16) . . . . ?
C1I N1I Pd6 N5G -94.2(9) . . . . ?
C5I N1I Pd6 N5G 83.9(8) . . . . ?
C1I N1I Pd6 N1J 173(100) . . . . ?
C5I N1I Pd6 N1J -8(27) . . . . ?
C1I N1I Pd6 N1L 84.6(9) . . . . ?
C5I N1I Pd6 N1L -97.2(8) . . . . ?
C5J N1J Pd6 N5G -89.0(10) . . . . ?
C1J N1J Pd6 N5G 90.0(9) . . . . ?
C5J N1J Pd6 N1I 3(27) . . . . ?
C1J N1J Pd6 N1I -178(100) . . . . ?
C5J N1J Pd6 N1L 92.2(10) . . . . ?
C1J N1J Pd6 N1L -88.8(9) . . . . ?
C1L N1L Pd6 N5G -5(16) . . . . ?
C5L N1L Pd6 N5G 178(100) . . . . ?
C1L N1L Pd6 N1I -97.3(9) . . . . ?
C5L N1L Pd6 N1I 86.3(9) . . . . ?
C1L N1L Pd6 N1J 83.6(9) . . . . ?
C5L N1L Pd6 N1J -92.8(9) . . . . ?
C1P N1P Pd7 N5V -53(26) . . . 2_665 ?
C5P N1P Pd7 N5V 129(25) . . . 2_665 ?
C1P N1P Pd7 N5O -83.7(8) . . . . ?
C5P N1P Pd7 N5O 98.1(8) . . . . ?
C1P N1P Pd7 N5X 95.8(8) . . . 2_665 ?
C5P N1P Pd7 N5X -82.3(8) . . . 2_665 ?
C14O N5O Pd7 N5V 89.8(9) . . . 2_665 ?
C10O N5O Pd7 N5V -91.5(8) . . . 2_665 ?
C14O N5O Pd7 N1P -90.5(9) . . . . ?
C10O N5O Pd7 N1P 88.1(8) . . . . ?
C14O N5O Pd7 N5X 122(25) . . . 2_665 ?
C10O N5O Pd7 N5X -59(26) . . . 2_665 ?
C14N N5N Pd8 N5T 74(100) . . . 2_665 ?
C10N N5N Pd8 N5T -106(100) . . . 2_665 ?
C14N N5N Pd8 N1O -83.7(7) . . . . ?
C10N N5N Pd8 N1O 96.3(7) . . . . ?
C14N N5N Pd8 N1M 96.2(7) . . . . ?
C10N N5N Pd8 N1M -83.8(7) . . . . ?
C5O N1O Pd8 N5T -90.5(8) . . . 2_665 ?
C1O N1O Pd8 N5T 93.9(8) . . . 2_665 ?
C5O N1O Pd8 N5N 89.4(8) . . . . ?
C1O N1O Pd8 N5N -86.2(8) . . . . ?
C5O N1O Pd8 N1M 75(51) . . . . ?
C1O N1O Pd8 N1M -100(48) . . . . ?
C5M N1M Pd8 N5T 100.0(7) . . . 2_665 ?
C1M N1M Pd8 N5T -81.5(7) . . . 2_665 ?
C5M N1M Pd8 N5N -80.0(7) . . . . ?
C1M N1M Pd8 N5N 98.6(7) . . . . ?
C5M N1M Pd8 N1O -66(48) . . . . ?
C1M N1M Pd8 N1O 113(48) . . . . ?
C5N N1N Pd9 N5R 111(32) . . . . ?
C1N N1N Pd9 N5R -70(32) . . . . ?
C5N N1N Pd9 N1Q -87.7(8) . . . . ?
C1N N1N Pd9 N1Q 91.6(8) . . . . ?
C5N N1N Pd9 N5P 91.9(8) . . . . ?
C1N N1N Pd9 N5P -88.8(8) . . . . ?
C10R N5R Pd9 N1N 67(32) . . . . ?
C14R N5R Pd9 N1N -116(32) . . . . ?
C10R N5R Pd9 N1Q -94.4(7) . . . . ?
C14R N5R Pd9 N1Q 83.2(7) . . . . ?
C10R N5R Pd9 N5P 85.9(7) . . . . ?
C14R N5R Pd9 N5P -96.5(7) . . . . ?
C5Q N1Q Pd9 N1N 89.4(8) . . . . ?
C1Q N1Q Pd9 N1N -93.0(8) . . . . ?
C5Q N1Q Pd9 N5R -90.8(8) . . . . ?
C1Q N1Q Pd9 N5R 86.8(8) . . . . ?
C5Q N1Q Pd9 N5P -45(39) . . . . ?
C1Q N1Q Pd9 N5P 132(44) . . . . ?
C14P N5P Pd9 N1N -100.0(7) . . . . ?
C10P N5P Pd9 N1N 81.6(7) . . . . ?
C14P N5P Pd9 N5R 80.2(7) . . . . ?
C10P N5P Pd9 N5R -98.2(7) . . . . ?
C14P N5P Pd9 N1Q 35(39) . . . . ?
C10P N5P Pd9 N1Q -144(44) . . . . ?
C5T N1T Pd10 N1S -83.9(7) . . . . ?
C1T N1T Pd10 N1S 95.4(7) . . . . ?
C5T N1T Pd10 N1U 95.8(7) . . . . ?
C1T N1T Pd10 N1U -84.8(7) . . . . ?
C5T N1T Pd10 N1R 80(100) . . . . ?
C1T N1T Pd10 N1R -101(100) . . . . ?
C1S N1S Pd10 N1T -86.4(8) . . . . ?
C5S N1S Pd10 N1T 91.3(8) . . . . ?
C1S N1S Pd10 N1U -121(57) . . . . ?
C5S N1S Pd10 N1U 57(55) . . . . ?
C1S N1S Pd10 N1R 93.6(8) . . . . ?
C5S N1S Pd10 N1R -88.7(8) . . . . ?
C5U N1U Pd10 N1T -80.5(7) . . . . ?
C1U N1U Pd10 N1T 98.7(7) . . . . ?
C5U N1U Pd10 N1S -46(55) . . . . ?
C1U N1U Pd10 N1S 133(57) . . . . ?
C5U N1U Pd10 N1R 99.4(7) . . . . ?
C1U N1U Pd10 N1R -81.3(7) . . . . ?
C5R N1R Pd10 N1T -75(100) . . . . ?
C1R N1R Pd10 N1T 103(100) . . . . ?
C5R N1R Pd10 N1S 88.9(8) . . . . ?
C1R N1R Pd10 N1S -92.9(8) . . . . ?
C5R N1R Pd10 N1U -90.9(8) . . . . ?
C1R N1R Pd10 N1U 87.3(8) . . . . ?
C5W N1W Pd11 N1V -88.5(9) . . . . ?
C1W N1W Pd11 N1V 88.5(8) . . . . ?
C5W N1W Pd11 N5U 121(19) . . . . ?
C1W N1W Pd11 N5U -62(19) . . . . ?
C5W N1W Pd11 N5Q 91.4(9) . . . . ?
C1W N1W Pd11 N5Q -91.6(8) . . . . ?
C5V N1V Pd11 N1W 90.4(8) . . . . ?
C1V N1V Pd11 N1W -85.1(8) . . . . ?
C5V N1V Pd11 N5U -90.1(8) . . . . ?
C1V N1V Pd11 N5U 94.4(8) . . . . ?
C5V N1V Pd11 N5Q 78(42) . . . . ?
C1V N1V Pd11 N5Q -97(39) . . . . ?
C14U N5U Pd11 N1W -130(19) . . . . ?
C10U N5U Pd11 N1W 55(19) . . . . ?
C14U N5U Pd11 N1V 80.0(8) . . . . ?
C10U N5U Pd11 N1V -95.6(8) . . . . ?
C14U N5U Pd11 N5Q -99.9(8) . . . . ?
C10U N5U Pd11 N5Q 84.5(8) . . . . ?
C10Q N5Q Pd11 N1W 90.2(8) . . . . ?
C14Q N5Q Pd11 N1W -90.4(8) . . . . ?
C10Q N5Q Pd11 N1V 102(39) . . . . ?
C14Q N5Q Pd11 N1V -78(42) . . . . ?
C10Q N5Q Pd11 N5U -89.3(8) . . . . ?
C14Q N5Q Pd11 N5U 90.0(8) . . . . ?
C14W N5W Pd12 N1X 90.3(8) . . . . ?
C10W N5W Pd12 N1X -83.9(8) . . . . ?
C14W N5W Pd12 N5S 110(36) . . . 2_665 ?
C10W N5W Pd12 N5S -64(36) . . . 2_665 ?
C14W N5W Pd12 N5M -90.1(8) . . . . ?
C10W N5W Pd12 N5M 95.7(8) . . . . ?
C5X N1X Pd12 N5W -89.2(10) . . . . ?
C1X N1X Pd12 N5W 89.2(8) . . . . ?
C5X N1X Pd12 N5S 91.0(10) . . . 2_665 ?
C1X N1X Pd12 N5S -90.6(8) . . . 2_665 ?
C5X N1X Pd12 N5M 158(100) . . . . ?
C1X N1X Pd12 N5M -23(59) . . . . ?
C14M N5M Pd12 N5W 83.6(8) . . . . ?
C10M N5M Pd12 N5W -97.2(8) . . . . ?
C14M N5M Pd12 N1X -164(100) . . . . ?
C10M N5M Pd12 N1X 15(59) . . . . ?
C14M N5M Pd12 N5S -96.6(8) . . . 2_665 ?
C10M N5M Pd12 N5S 82.6(8) . . . 2_665 ?
F95 B91 F91 F92 69(4) . . . . ?
F98 B91 F91 F92 -154(2) . . . . ?
F93 B91 F91 F92 123(2) . . . . ?
F96 B91 F91 F92 -22.8(19) . . . . ?
F97 B91 F91 F92 67(4) . . . . ?
F94 B91 F91 F92 -103(2) . . . . ?
F95 B91 F92 F91 -26.8(18) . . . . ?
F98 B91 F92 F91 42(3) . . . . ?
F93 B91 F92 F91 -94(3) . . . . ?
F96 B91 F92 F91 74(5) . . . . ?
F97 B91 F92 F91 -151(2) . . . . ?
F94 B91 F92 F91 122(2) . . . . ?
F91 B91 F95 F96 -79(4) . . . . ?
F98 B91 F95 F96 -121.2(19) . . . . ?
F93 B91 F95 F96 153(2) . . . . ?
F97 B91 F95 F96 99(2) . . . . ?
F92 B91 F95 F96 22.9(19) . . . . ?
F94 B91 F95 F96 -66(4) . . . . ?
F91 B91 F96 F95 27.8(18) . . . . ?
F98 B91 F96 F95 86(2) . . . . ?
F93 B91 F96 F95 -53(4) . . . . ?
F97 B91 F96 F95 -119(2) . . . . ?
F92 B91 F96 F95 -72(5) . . . . ?
F94 B91 F96 F95 154(2) . . . . ?
F116 B111 F111 F112 -35.7(16) . . . . ?
F113 B111 F111 F112 113(3) . . . . ?
F117 B111 F111 F112 33(4) . . . . ?
F118 B111 F111 F112 -160(2) . . . . ?
F114 B111 F111 F112 -91(2) . . . . ?
F115 B111 F111 F112 67(6) . . . . ?
F116 B111 F112 F111 75(3) . . . . ?
F113 B111 F112 F111 -117(2) . . . . ?
F117 B111 F112 F111 -163(2) . . . . ?
F118 B111 F112 F111 77(5) . . . . ?
F114 B111 F112 F111 118(2) . . . . ?
F115 B111 F112 F111 -21(2) . . . . ?
F112 B111 F115 F116 35.5(16) . . . . ?
F113 B111 F115 F116 149(2) . . . . ?
F117 B111 F115 F116 87(3) . . . . ?
F118 B111 F115 F116 -122(2) . . . . ?
F114 B111 F115 F116 -42(3) . . . . ?
F111 B111 F115 F116 -71(6) . . . . ?
F112 B111 F116 F115 -73(3) . . . . ?
F113 B111 F116 F115 -95(4) . . . . ?
F117 B111 F116 F115 -131(2) . . . . ?
F118 B111 F116 F115 108(2) . . . . ?
F114 B111 F116 F115 152(2) . . . . ?
F111 B111 F116 F115 21(2) . . . . ?
F13D B131 F131 F134 -18(2) . . . . ?
F138 B131 F131 F134 -36.9(17) . . . . ?
F133 B131 F131 F134 117(2) . . . . ?
F136 B131 F131 F134 177(2) . . . . ?
F132 B131 F131 F134 -87(2) . . . . ?
F135 B131 F131 F134 64(10) . . . . ?
F13C B131 F131 F134 152(9) . . . . ?
F13A B131 F131 F134 123(3) . . . . ?
F137 B131 F131 F134 48(2) . . . . ?
F13B B131 F131 F134 -133(2) . . . . ?
F13D B131 F134 F131 54(4) . . . . ?
F138 B131 F134 F131 81(3) . . . . ?
F133 B131 F134 F131 -107(2) . . . . ?
F136 B131 F134 F131 -99(48) . . . . ?
F132 B131 F134 F131 120.6(19) . . . . ?
F135 B131 F134 F131 -13(2) . . . . ?
F13C B131 F134 F131 -173(2) . . . . ?
F13A B131 F134 F131 -45.3(19) . . . . ?
F137 B131 F134 F131 -140(2) . . . . ?
F13B B131 F134 F131 66(2) . . . . ?
F13D B131 F135 F138 15(2) . . . . ?
F133 B131 F135 F138 154(2) . . . . ?
F131 B131 F135 F138 -75(11) . . . . ?
F136 B131 F135 F138 -146(2) . . . . ?
F134 B131 F135 F138 36.6(17) . . . . ?
F132 B131 F135 F138 -42(3) . . . . ?
F13C B131 F135 F138 149(6) . . . . ?
F13A B131 F135 F138 174(3) . . . . ?
F137 B131 F135 F138 90(2) . . . . ?
F13B B131 F135 F138 -92(2) . . . . ?
F13D B131 F138 F135 -46(6) . . . . ?
F133 B131 F138 F135 -91(5) . . . . ?
F131 B131 F138 F135 14(3) . . . . ?
F136 B131 F138 F135 105(4) . . . . ?
F134 B131 F138 F135 -75(3) . . . . ?
F132 B131 F138 F135 148(2) . . . . ?
F13C B131 F138 F135 -168(2) . . . . ?
F13A B131 F138 F135 -6(3) . . . . ?
F137 B131 F138 F135 -112.4(19) . . . . ?
F13B B131 F138 F135 93(2) . . . . ?
F15G B151 F151 F153 4(4) . . . . ?
F157 B151 F151 F153 -25(2) . . . . ?
F15C B151 F151 F153 27(2) . . . . ?
F15B B151 F151 F153 163(3) . . . . ?
F154 B151 F151 F153 -119(3) . . . . ?
F156 B151 F151 F153 84(5) . . . . ?
F15F B151 F151 F153 133(3) . . . . ?
F15D B151 F151 F153 -68(2) . . . . ?
F155 B151 F151 F153 65(5) . . . . ?
F15H B151 F151 F153 -32(10) . . . . ?
F15G B151 F153 F151 -14(13) . . . . ?
F157 B151 F153 F151 76(6) . . . . ?
F15C B151 F153 F151 -104(5) . . . . ?
F15B B151 F153 F151 -143(6) . . . . ?
F154 B151 F153 F151 130(3) . . . . ?
F156 B151 F153 F151 -149(3) . . . . ?
F15F B151 F153 F151 -71(3) . . . . ?
F15D B151 F153 F151 108(3) . . . . ?
F155 B151 F153 F151 -30(2) . . . . ?
F15H B151 F153 F151 172(3) . . . . ?
F15G B151 F155 F157 19(3) . . . . ?
F153 B151 F155 F157 24(2) . . . . ?
F15C B151 F155 F157 53.5(19) . . . . ?
F15B B151 F155 F157 178(2) . . . . ?
F154 B151 F155 F157 -91(6) . . . . ?
F156 B151 F155 F157 108(2) . . . . ?
F151 B151 F155 F157 -84(5) . . . . ?
F15F B151 F155 F157 172(2) . . . . ?
F15D B151 F155 F157 -25(2) . . . . ?
F15H B151 F155 F157 69(4) . . . . ?
F15G B151 F157 F155 -35(4) . . . . ?
F153 B151 F157 F155 -68(6) . . . . ?
F15C B151 F157 F155 -67(2) . . . . ?
F15B B151 F157 F155 -173(8) . . . . ?
F154 B151 F157 F155 159.1(19) . . . . ?
F156 B151 F157 F155 -117(2) . . . . ?
F151 B151 F157 F155 32(2) . . . . ?
F15F B151 F157 F155 -14(4) . . . . ?
F15D B151 F157 F155 153(2) . . . . ?
F15H B151 F157 F155 -150(2) . . . . ?
F215 B211 F212 F214 27.2(15) . . . . ?
F217 B211 F212 F214 -52(3) . . . . ?
F218 B211 F212 F214 -90(5) . . . . ?
F211 B211 F212 F214 74(3) . . . . ?
F213 B211 F212 F214 -129(2) . . . . ?
F216 B211 F212 F214 129(2) . . . . ?
F215 B211 F214 F212 -80(4) . . . . ?
F217 B211 F214 F212 151(2) . . . . ?
F218 B211 F214 F212 23.2(16) . . . . ?
F211 B211 F214 F212 -137.3(19) . . . . ?
F213 B211 F214 F212 87(2) . . . . ?
F216 B211 F214 F212 -85(2) . . . . ?
F214 B211 F215 F218 70(4) . . . . ?
F217 B211 F215 F218 121(2) . . . . ?
F211 B211 F215 F218 -168(2) . . . . ?
F212 B211 F215 F218 -19.8(18) . . . . ?
F213 B211 F215 F218 46(4) . . . . ?
F216 B211 F215 F218 -114.5(19) . . . . ?
F214 B211 F218 F215 -25.2(15) . . . . ?
F217 B211 F218 F215 -96(2) . . . . ?
F211 B211 F218 F215 29(5) . . . . ?
F212 B211 F218 F215 57(5) . . . . ?
F213 B211 F218 F215 -162(2) . . . . ?
F216 B211 F218 F215 101(2) . . . . ?
F245 B241 F243 F244 48(5) . . . . ?
F24A B241 F243 F244 84(3) . . . . ?
F24B B241 F243 F244 -178(7) . . . . ?
F241 B241 F243 F244 131(2) . . . . ?
F248 B241 F243 F244 -44(2) . . . . ?
F247 B241 F243 F244 -177(2) . . . . ?
F242 B241 F243 F244 -116(2) . . . . ?
F24D B241 F243 F244 -12(3) . . . . ?
F246 B241 F243 F244 78(3) . . . . ?
F24C B241 F243 F244 -133(3) . . . . ?
F245 B241 F244 F243 -16(2) . . . . ?
F24A B241 F244 F243 -44.8(16) . . . . ?
F24B B241 F244 F243 179(3) . . . . ?
F241 B241 F244 F243 -92(3) . . . . ?
F248 B241 F244 F243 126(3) . . . . ?
F247 B241 F244 F243 32(24) . . . . ?
F242 B241 F244 F243 113(3) . . . . ?
F24D B241 F244 F243 61(12) . . . . ?
F246 B241 F244 F243 -136(2) . . . . ?
F24C B241 F244 F243 35.0(19) . . . . ?
O32 O13 O72 O22 147(11) . . . . ?
O13 O32 O72 O22 -163(6) . . . . ?

_diffrn_measured_fraction_theta_max 0.867
_diffrn_reflns_theta_full        30.35
_diffrn_measured_fraction_theta_full 0.867
_refine_diff_density_max         0.709
_refine_diff_density_min         -0.744
_refine_diff_density_rms         0.105
