# generated using pymatgen
data_B48H528.0Pd24C672N240O97.6F191.84
_symmetry_space_group_name_H-M   'P 1'
_cell_length_a   37.97600000
_cell_length_b   37.97800000
_cell_length_c   37.98200000
_cell_angle_alpha   78.98000000
_cell_angle_beta   78.97000000
_cell_angle_gamma   78.97000000
_symmetry_Int_Tables_number   1
_chemical_formula_structural   B48H528.0Pd24C672N240O97.6F191.84
_chemical_formula_sum   'B48 H528.0 Pd24 C672 N240 O97.6 F191.84'
_cell_volume   52090.97247534
_cell_formula_units_Z   1
loop_
 _symmetry_equiv_pos_site_id
 _symmetry_equiv_pos_as_xyz
  1  'x, y, z'
loop_
 _atom_site_type_symbol
 _atom_site_label
 _atom_site_symmetry_multiplicity
 _atom_site_fract_x
 _atom_site_fract_y
 _atom_site_fract_z
 _atom_site_occupancy
  B  B1  1  0.101900  0.982500  0.685600  1.0
  B  B2  1  0.898100  0.017500  0.314400  1.0
  B  B3  1  0.214800  0.967100  0.871200  1.0
  B  B4  1  0.785200  0.032900  0.128800  1.0
  B  B5  1  0.118000  0.796900  0.584000  1.0
  B  B6  1  0.882000  0.203100  0.416000  1.0
  B  B7  1  0.253000  0.586100  0.644600  1.0
  B  B8  1  0.747000  0.413900  0.355400  1.0
  B  B9  1  0.916700  0.880600  0.702900  1.0
  B  B10  1  0.083300  0.119400  0.297100  1.0
  B  B11  1  0.853900  0.749100  0.914400  1.0
  B  B12  1  0.146100  0.250900  0.085600  1.0
  B  B13  1  0.796880  0.083100  0.619800  1.0
  B  B14  1  0.203120  0.916900  0.380200  1.0
  B  B15  1  0.585400  0.148700  0.748900  1.0
  B  B16  1  0.414600  0.851300  0.251100  1.0
  B  B17  1  0.816100  0.879900  0.497600  1.0
  B  B18  1  0.183900  0.120100  0.502400  1.0
  B  B19  1  0.622000  0.791400  0.530000  1.0
  B  B20  1  0.378000  0.208600  0.470000  1.0
  B  B21  1  0.042300  0.801700  0.394200  1.0
  B  B22  1  0.957700  0.198300  0.605800  1.0
  B  B23  1  0.030800  0.622200  0.292800  1.0
  B  B24  1  0.969200  0.377800  0.707200  1.0
  B  B25  1  0.290700  0.431100  0.976500  1.0
  B  B26  1  0.709300  0.568900  0.023500  1.0
  B  B27  1  0.093340  0.346200  0.006500  1.0
  B  B28  1  0.906660  0.653800  0.993500  1.0
  B  B29  1  0.273100  0.613700  0.077000  1.0
  B  B30  1  0.726900  0.386300  0.923000  1.0
  B  B31  1  0.088470  0.767300  0.147100  1.0
  B  B32  1  0.911530  0.232700  0.852900  1.0
  B  B33  1  0.371700  0.430400  0.201090  1.0
  B  B34  1  0.628300  0.569600  0.798910  1.0
  B  B35  1  0.233900  0.351400  0.411170  1.0
  B  B36  1  0.766100  0.648600  0.588830  1.0
  B  B37  1  0.570600  0.298700  0.128300  1.0
  B  B38  1  0.429400  0.701300  0.871700  1.0
  B  B39  1  0.646400  0.088630  0.266800  1.0
  B  B40  1  0.353600  0.911370  0.733200  1.0
  B  B41  1  0.563900  0.522500  0.210600  1.0
  B  B42  1  0.436100  0.477500  0.789400  1.0
  B  B43  1  0.653300  0.493100  0.406800  1.0
  B  B44  1  0.346700  0.506900  0.593200  1.0
  B  B45  1  0.497600  0.697770  0.073200  1.0
  B  B46  1  0.502400  0.302230  0.926800  1.0
  B  B47  1  0.476100  0.912200  0.133600  1.0
  B  B48  1  0.523900  0.087800  0.866400  1.0
  H  H49  1  0.743900  0.063400  0.701700  1.0
  H  H50  1  0.256100  0.936600  0.298300  1.0
  H  H51  1  0.759000  0.019100  0.750400  1.0
  H  H52  1  0.241000  0.980900  0.249600  1.0
  H  H53  1  0.661300  0.056700  0.805500  1.0
  H  H54  1  0.338700  0.943300  0.194500  1.0
  H  H55  1  0.654100  0.101900  0.758900  1.0
  H  H56  1  0.345900  0.898100  0.241100  1.0
  H  H57  1  0.849400  0.889000  0.773100  1.0
  H  H58  1  0.150600  0.111000  0.226900  1.0
  H  H59  1  0.801900  0.937400  0.778100  1.0
  H  H60  1  0.198100  0.062600  0.221900  1.0
  H  H61  1  0.764900  0.882300  0.875500  1.0
  H  H62  1  0.235100  0.117700  0.124500  1.0
  H  H63  1  0.811400  0.834600  0.863700  1.0
  H  H64  1  0.188600  0.165400  0.136300  1.0
  H  H65  1  0.725400  0.912700  0.550300  1.0
  H  H66  1  0.274600  0.087300  0.449700  1.0
  H  H67  1  0.689200  0.961100  0.577400  1.0
  H  H68  1  0.310800  0.038900  0.422600  1.0
  H  H69  1  0.602700  0.924700  0.568500  1.0
  H  H70  1  0.397300  0.075300  0.431500  1.0
  H  H71  1  0.637500  0.878300  0.541700  1.0
  H  H72  1  0.362500  0.121700  0.458300  1.0
  H  H73  1  0.712300  0.065500  0.642200  1.0
  H  H74  1  0.287700  0.934500  0.357800  1.0
  H  H75  1  0.683400  0.030200  0.616400  1.0
  H  H76  1  0.316600  0.969800  0.383600  1.0
  H  H77  1  0.587600  0.080200  0.657200  1.0
  H  H78  1  0.412400  0.919800  0.342800  1.0
  H  H79  1  0.617900  0.115500  0.680400  1.0
  H  H80  1  0.382100  0.884500  0.319600  1.0
  H  H81  1  0.766700  0.840500  0.575000  1.0
  H  H82  1  0.233300  0.159500  0.425000  1.0
  H  H83  1  0.776600  0.811800  0.634700  1.0
  H  H84  1  0.223400  0.188200  0.365300  1.0
  H  H85  1  0.680700  0.776600  0.646100  1.0
  H  H86  1  0.319300  0.223400  0.353900  1.0
  H  H87  1  0.678700  0.799100  0.586900  1.0
  H  H88  1  0.321300  0.200900  0.413100  1.0
  H  H89  1  0.668300  0.715400  0.745400  1.0
  H  H90  1  0.331700  0.284600  0.254600  1.0
  H  H91  1  0.672400  0.729800  0.780100  1.0
  H  H92  1  0.327600  0.270200  0.219900  1.0
  H  H93  1  0.697200  0.694200  0.769400  1.0
  H  H94  1  0.302800  0.305800  0.230600  1.0
  H  H95  1  0.853800  0.823300  0.734900  1.0
  H  H96  1  0.146200  0.176700  0.265100  1.0
  H  H97  1  0.815700  0.804400  0.706300  1.0
  H  H98  1  0.184300  0.195600  0.293700  1.0
  H  H99  1  0.774400  0.751100  0.801400  1.0
  H  H100  1  0.225600  0.248900  0.198600  1.0
  H  H101  1  0.813800  0.770700  0.828700  1.0
  H  H102  1  0.186200  0.229300  0.171300  1.0
  H  H103  1  0.937300  0.796400  0.751700  1.0
  H  H104  1  0.062700  0.203600  0.248300  1.0
  H  H105  1  0.983000  0.748700  0.741200  1.0
  H  H106  1  0.017000  0.251300  0.258800  1.0
  H  H107  1  0.945000  0.694300  0.838200  1.0
  H  H108  1  0.055000  0.305700  0.161800  1.0
  H  H109  1  0.898100  0.739600  0.845700  1.0
  H  H110  1  0.101900  0.260400  0.154300  1.0
  H  H111  1  0.110100  0.727200  0.651400  1.0
  H  H112  1  0.889900  0.272800  0.348600  1.0
  H  H113  1  0.061900  0.720800  0.697200  1.0
  H  H114  1  0.938100  0.279200  0.302800  1.0
  H  H115  1  0.119700  0.626100  0.736800  1.0
  H  H116  1  0.880300  0.373900  0.263200  1.0
  H  H117  1  0.164600  0.634900  0.688700  1.0
  H  H118  1  0.835400  0.365100  0.311300  1.0
  H  H119  1  0.089500  0.946800  0.775000  1.0
  H  H120  1  0.910500  0.053200  0.225000  1.0
  H  H121  1  0.040100  0.923700  0.809200  1.0
  H  H122  1  0.959900  0.076300  0.190800  1.0
  H  H123  1  0.074200  0.932800  0.899200  1.0
  H  H124  1  0.925800  0.067200  0.100800  1.0
  H  H125  1  0.124300  0.957300  0.861300  1.0
  H  H126  1  0.875700  0.042700  0.138700  1.0
  H  H127  1  0.934100  0.857900  0.788300  1.0
  H  H128  1  0.065900  0.142100  0.211700  1.0
  H  H129  1  0.969100  0.884400  0.815000  1.0
  H  H130  1  0.030900  0.115600  0.185000  1.0
  H  H131  1  0.919100  0.843100  0.911300  1.0
  H  H132  1  0.080900  0.156900  0.088700  1.0
  H  H133  1  0.885700  0.817600  0.882200  1.0
  H  H134  1  0.114300  0.182400  0.117800  1.0
  H  H135  1  0.177300  0.765400  0.645200  1.0
  H  H136  1  0.822700  0.234600  0.354800  1.0
  H  H137  1  0.196000  0.793700  0.684700  1.0
  H  H138  1  0.804000  0.206300  0.315300  1.0
  H  H139  1  0.248600  0.698700  0.726200  1.0
  H  H140  1  0.751400  0.301300  0.273800  1.0
  H  H141  1  0.231800  0.671800  0.685600  1.0
  H  H142  1  0.768200  0.328200  0.314400  1.0
  H  H143  1  0.289100  0.715200  0.808500  1.0
  H  H144  1  0.710900  0.284800  0.191500  1.0
  H  H145  1  0.267500  0.738100  0.838400  1.0
  H  H146  1  0.732500  0.261900  0.161600  1.0
  H  H147  1  0.303100  0.749700  0.814200  1.0
  H  H148  1  0.696900  0.250300  0.185800  1.0
  H  H149  1  0.157500  0.923700  0.734500  1.0
  H  H150  1  0.842500  0.076300  0.265500  1.0
  H  H151  1  0.191800  0.866800  0.722300  1.0
  H  H152  1  0.808200  0.133200  0.277700  1.0
  H  H153  1  0.224900  0.853600  0.818600  1.0
  H  H154  1  0.775100  0.146400  0.181400  1.0
  H  H155  1  0.199200  0.913200  0.822500  1.0
  H  H156  1  0.800800  0.086800  0.177500  1.0
  H  H157  1  0.138500  0.712100  0.566900  1.0
  H  H158  1  0.861500  0.287900  0.433100  1.0
  H  H159  1  0.119900  0.684200  0.528800  1.0
  H  H160  1  0.880100  0.315800  0.471200  1.0
  H  H161  1  0.156800  0.588900  0.578700  1.0
  H  H162  1  0.843200  0.411100  0.421300  1.0
  H  H163  1  0.180700  0.617100  0.615200  1.0
  H  H164  1  0.819300  0.382900  0.384800  1.0
  H  H165  1  0.053300  0.724800  0.412200  1.0
  H  H166  1  0.946700  0.275200  0.587800  1.0
  H  H167  1  0.076900  0.690100  0.461000  1.0
  H  H168  1  0.923100  0.309900  0.539000  1.0
  H  H169  1  0.065600  0.601900  0.426000  1.0
  H  H170  1  0.934400  0.398100  0.574000  1.0
  H  H171  1  0.044300  0.636700  0.376900  1.0
  H  H172  1  0.955700  0.363300  0.623100  1.0
  H  H173  1  0.274200  0.848500  0.391800  1.0
  H  H174  1  0.725800  0.151500  0.608200  1.0
  H  H175  1  0.279900  0.801000  0.438000  1.0
  H  H176  1  0.720100  0.199000  0.562000  1.0
  H  H177  1  0.374800  0.765900  0.382300  1.0
  H  H178  1  0.625200  0.234100  0.617700  1.0
  H  H179  1  0.363700  0.810100  0.335400  1.0
  H  H180  1  0.636300  0.189900  0.664600  1.0
  H  H181  1  0.203800  0.747200  0.563700  1.0
  H  H182  1  0.796200  0.252800  0.436300  1.0
  H  H183  1  0.249800  0.758000  0.517500  1.0
  H  H184  1  0.750200  0.242000  0.482500  1.0
  H  H185  1  0.307900  0.664400  0.556600  1.0
  H  H186  1  0.692100  0.335600  0.443400  1.0
  H  H187  1  0.259800  0.653700  0.601800  1.0
  H  H188  1  0.740200  0.346300  0.398200  1.0
  H  H189  1  0.074900  0.768100  0.338500  1.0
  H  H190  1  0.925100  0.231900  0.661500  1.0
  H  H191  1  0.134600  0.775800  0.312100  1.0
  H  H192  1  0.865400  0.224200  0.687900  1.0
  H  H193  1  0.146200  0.681500  0.275100  1.0
  H  H194  1  0.853800  0.318500  0.724900  1.0
  H  H195  1  0.088100  0.677600  0.300300  1.0
  H  H196  1  0.911900  0.322400  0.699700  1.0
  H  H197  1  0.284300  0.691500  0.210000  1.0
  H  H198  1  0.715700  0.308500  0.790000  1.0
  H  H199  1  0.249300  0.685700  0.197200  1.0
  H  H200  1  0.750700  0.314300  0.802800  1.0
  H  H201  1  0.261900  0.661700  0.232400  1.0
  H  H202  1  0.738100  0.338300  0.767600  1.0
  H  H203  1  0.234100  0.857300  0.319900  1.0
  H  H204  1  0.765900  0.142700  0.680100  1.0
  H  H205  1  0.206000  0.814200  0.305200  1.0
  H  H206  1  0.794000  0.185800  0.694800  1.0
  H  H207  1  0.301300  0.774800  0.250800  1.0
  H  H208  1  0.698700  0.225200  0.749200  1.0
  H  H209  1  0.328900  0.814600  0.269400  1.0
  H  H210  1  0.671100  0.185400  0.730600  1.0
  H  H211  1  0.965700  0.749700  0.397200  1.0
  H  H212  1  0.034300  0.250300  0.602800  1.0
  H  H213  1  0.907200  0.744300  0.423900  1.0
  H  H214  1  0.092800  0.255700  0.576100  1.0
  H  H215  1  0.914300  0.657300  0.380100  1.0
  H  H216  1  0.085700  0.342700  0.619900  1.0
  H  H217  1  0.972800  0.665100  0.353300  1.0
  H  H218  1  0.027200  0.334900  0.646700  1.0
  H  H219  1  0.782800  0.628800  0.450700  1.0
  H  H220  1  0.217200  0.371200  0.549300  1.0
  H  H221  1  0.822200  0.606800  0.450600  1.0
  H  H222  1  0.177800  0.393200  0.549400  1.0
  H  H223  1  0.808500  0.624100  0.413700  1.0
  H  H224  1  0.191500  0.375900  0.586300  1.0
  H  H225  1  0.791800  0.825000  0.494400  1.0
  H  H226  1  0.208200  0.175000  0.505600  1.0
  H  H227  1  0.830000  0.779500  0.468300  1.0
  H  H228  1  0.170000  0.220500  0.531700  1.0
  H  H229  1  0.745000  0.725200  0.487400  1.0
  H  H230  1  0.255000  0.274800  0.512600  1.0
  H  H231  1  0.709600  0.775500  0.508800  1.0
  H  H232  1  0.290400  0.224500  0.491200  1.0
  H  H233  1  0.824000  0.996600  0.292800  1.0
  H  H234  1  0.176000  0.003400  0.707200  1.0
  H  H235  1  0.780800  0.965800  0.328900  1.0
  H  H236  1  0.219200  0.034200  0.671100  1.0
  H  H237  1  0.725800  0.986300  0.244600  1.0
  H  H238  1  0.274200  0.013700  0.755400  1.0
  H  H239  1  0.773800  0.010500  0.210200  1.0
  H  H240  1  0.226200  0.989500  0.789800  1.0
  H  H241  1  0.612600  0.923800  0.324200  1.0
  H  H242  1  0.387400  0.076200  0.675800  1.0
  H  H243  1  0.636300  0.924900  0.285500  1.0
  H  H244  1  0.363700  0.075100  0.714500  1.0
  H  H245  1  0.616400  0.961200  0.299100  1.0
  H  H246  1  0.383600  0.038800  0.700900  1.0
  H  H247  1  0.751600  0.896400  0.464200  1.0
  H  H248  1  0.248400  0.103600  0.535800  1.0
  H  H249  1  0.744400  0.925200  0.407800  1.0
  H  H250  1  0.255600  0.074800  0.592200  1.0
  H  H251  1  0.659700  0.876700  0.415300  1.0
  H  H252  1  0.340300  0.123300  0.584700  1.0
  H  H253  1  0.665300  0.852300  0.472500  1.0
  H  H254  1  0.334700  0.147700  0.527500  1.0
  H  H255  1  0.995100  0.792600  0.324200  1.0
  H  H256  1  0.004900  0.207400  0.675800  1.0
  H  H257  1  0.968300  0.829400  0.278400  1.0
  H  H258  1  0.031700  0.170600  0.721600  1.0
  H  H259  1  0.985000  0.744600  0.226600  1.0
  H  H260  1  0.015000  0.255400  0.773400  1.0
  H  H261  1  0.011000  0.709900  0.274700  1.0
  H  H262  1  0.989000  0.290100  0.725300  1.0
  H  H263  1  0.955400  0.782900  0.128400  1.0
  H  H264  1  0.044600  0.217100  0.871600  1.0
  H  H265  1  0.953700  0.822600  0.106900  1.0
  H  H266  1  0.046300  0.177400  0.893100  1.0
  H  H267  1  0.917800  0.806400  0.122000  1.0
  H  H268  1  0.082200  0.193600  0.878000  1.0
  H  H269  1  0.896100  0.965000  0.251300  1.0
  H  H270  1  0.103900  0.035000  0.748700  1.0
  H  H271  1  0.924800  0.906800  0.244500  1.0
  H  H272  1  0.075200  0.093200  0.755500  1.0
  H  H273  1  0.879600  0.915000  0.158500  1.0
  H  H274  1  0.120400  0.085000  0.841500  1.0
  H  H275  1  0.849800  0.973000  0.167000  1.0
  H  H276  1  0.150200  0.027000  0.833000  1.0
  H  H277  1  0.267500  0.707200  0.104800  1.0
  H  H278  1  0.732500  0.292800  0.895200  1.0
  H  H279  1  0.298600  0.744700  0.123400  1.0
  H  H280  1  0.701400  0.255300  0.876600  1.0
  H  H281  1  0.204500  0.793400  0.171400  1.0
  H  H282  1  0.795500  0.206600  0.828600  1.0
  H  H283  1  0.175000  0.754000  0.153300  1.0
  H  H284  1  0.825000  0.246000  0.846700  1.0
  H  H285  1  0.227100  0.878100  0.207800  1.0
  H  H286  1  0.772900  0.121900  0.792200  1.0
  H  H287  1  0.256600  0.901700  0.186800  1.0
  H  H288  1  0.743400  0.098300  0.813200  1.0
  H  H289  1  0.260500  0.879800  0.225700  1.0
  H  H290  1  0.739500  0.120200  0.774300  1.0
  H  H291  1  0.434300  0.764400  0.111800  1.0
  H  H292  1  0.565700  0.235600  0.888200  1.0
  H  H293  1  0.373400  0.769600  0.127700  1.0
  H  H294  1  0.626600  0.230400  0.872300  1.0
  H  H295  1  0.374100  0.854600  0.171800  1.0
  H  H296  1  0.625900  0.145400  0.828200  1.0
  H  H297  1  0.435900  0.848900  0.154900  1.0
  H  H298  1  0.564100  0.151100  0.845100  1.0
  H  H299  1  0.296500  0.462700  0.258100  1.0
  H  H300  1  0.703500  0.537300  0.741900  1.0
  H  H301  1  0.259000  0.513600  0.249900  1.0
  H  H302  1  0.741000  0.486400  0.750100  1.0
  H  H303  1  0.200500  0.485100  0.345200  1.0
  H  H304  1  0.799500  0.514900  0.654800  1.0
  H  H305  1  0.240400  0.430200  0.351600  1.0
  H  H306  1  0.759600  0.569800  0.648400  1.0
  H  H307  1  0.107400  0.612300  0.339200  1.0
  H  H308  1  0.892600  0.387700  0.660800  1.0
  H  H309  1  0.132300  0.589800  0.366800  1.0
  H  H310  1  0.867700  0.410200  0.633200  1.0
  H  H311  1  0.106100  0.570800  0.352300  1.0
  H  H312  1  0.893900  0.429200  0.647700  1.0
  H  H313  1  0.236300  0.633200  0.146500  1.0
  H  H314  1  0.763700  0.366800  0.853500  1.0
  H  H315  1  0.232500  0.593100  0.200700  1.0
  H  H316  1  0.767500  0.406900  0.799300  1.0
  H  H317  1  0.132000  0.647500  0.229200  1.0
  H  H318  1  0.868000  0.352500  0.770800  1.0
  H  H319  1  0.138400  0.685500  0.175600  1.0
  H  H320  1  0.861600  0.314500  0.824400  1.0
  H  H321  1  0.208800  0.629800  0.073500  1.0
  H  H322  1  0.791200  0.370200  0.926500  1.0
  H  H323  1  0.180100  0.590700  0.053600  1.0
  H  H324  1  0.819900  0.409300  0.946400  1.0
  H  H325  1  0.086700  0.653100  0.084300  1.0
  H  H326  1  0.913300  0.346900  0.915700  1.0
  H  H327  1  0.116600  0.688800  0.103700  1.0
  H  H328  1  0.883400  0.311200  0.896300  1.0
  H  H329  1  0.006700  0.566200  0.047000  1.0
  H  H330  1  0.993300  0.433800  0.953000  1.0
  H  H331  1  0.009900  0.607600  0.038500  1.0
  H  H332  1  0.990100  0.392400  0.961500  1.0
  H  H333  1  0.006200  0.587400  0.078700  1.0
  H  H334  1  0.993800  0.412600  0.921300  1.0
  H  H335  1  0.211600  0.458500  0.017200  1.0
  H  H336  1  0.788400  0.541500  0.982800  1.0
  H  H337  1  0.180000  0.514200  0.028700  1.0
  H  H338  1  0.820000  0.485800  0.971300  1.0
  H  H339  1  0.087400  0.479200  0.031100  1.0
  H  H340  1  0.912600  0.520800  0.968900  1.0
  H  H341  1  0.121000  0.424300  0.017100  1.0
  H  H342  1  0.879000  0.575700  0.982900  1.0
  H  H343  1  0.235100  0.389400  0.065300  1.0
  H  H344  1  0.764900  0.610600  0.934700  1.0
  H  H345  1  0.230700  0.371900  0.126100  1.0
  H  H346  1  0.769300  0.628100  0.873900  1.0
  H  H347  1  0.146200  0.326400  0.126200  1.0
  H  H348  1  0.853800  0.673600  0.873800  1.0
  H  H349  1  0.151600  0.345500  0.063700  1.0
  H  H350  1  0.848400  0.654500  0.936300  1.0
  H  H351  1  0.108900  0.289100  0.230900  1.0
  H  H352  1  0.891100  0.710900  0.769100  1.0
  H  H353  1  0.107700  0.309100  0.263700  1.0
  H  H354  1  0.892300  0.690900  0.736300  1.0
  H  H355  1  0.132600  0.271400  0.261200  1.0
  H  H356  1  0.867400  0.728600  0.738800  1.0
  H  H357  1  0.292700  0.395000  0.231500  1.0
  H  H358  1  0.707300  0.605000  0.768500  1.0
  H  H359  1  0.255700  0.376600  0.201600  1.0
  H  H360  1  0.744300  0.623400  0.798400  1.0
  H  H361  1  0.208500  0.326300  0.294900  1.0
  H  H362  1  0.791500  0.673700  0.705100  1.0
  H  H363  1  0.245400  0.348400  0.324800  1.0
  H  H364  1  0.754600  0.651600  0.675200  1.0
  H  H365  1  0.368500  0.427200  0.291700  1.0
  H  H366  1  0.631500  0.572800  0.708300  1.0
  H  H367  1  0.410200  0.444200  0.320700  1.0
  H  H368  1  0.589800  0.555800  0.679300  1.0
  H  H369  1  0.346300  0.416800  0.413300  1.0
  H  H370  1  0.653700  0.583200  0.586700  1.0
  H  H371  1  0.310400  0.396800  0.384200  1.0
  H  H372  1  0.689600  0.603200  0.615800  1.0
  H  H373  1  0.542100  0.483500  0.289100  1.0
  H  H374  1  0.457900  0.516500  0.710900  1.0
  H  H375  1  0.486800  0.469800  0.319900  1.0
  H  H376  1  0.513200  0.530200  0.680100  1.0
  H  H377  1  0.520600  0.470300  0.411800  1.0
  H  H378  1  0.479400  0.529700  0.588200  1.0
  H  H379  1  0.574900  0.485400  0.380300  1.0
  H  H380  1  0.425100  0.514600  0.619700  1.0
  H  H381  1  0.538500  0.243200  0.203200  1.0
  H  H382  1  0.461500  0.756800  0.796800  1.0
  H  H383  1  0.485100  0.249300  0.242300  1.0
  H  H384  1  0.514900  0.750700  0.757700  1.0
  H  H385  1  0.515300  0.153900  0.299200  1.0
  H  H386  1  0.484700  0.846100  0.700800  1.0
  H  H387  1  0.569600  0.149100  0.260300  1.0
  H  H388  1  0.430400  0.850900  0.739700  1.0
  H  H389  1  0.386300  0.161300  0.391500  1.0
  H  H390  1  0.613700  0.838700  0.608500  1.0
  H  H391  1  0.427300  0.144700  0.392100  1.0
  H  H392  1  0.572700  0.855300  0.607900  1.0
  H  H393  1  0.406200  0.134300  0.364800  1.0
  H  H394  1  0.593800  0.865700  0.635200  1.0
  H  H395  1  0.367400  0.353100  0.264600  1.0
  H  H396  1  0.632600  0.646900  0.735400  1.0
  H  H397  1  0.406100  0.300400  0.267700  1.0
  H  H398  1  0.593900  0.699600  0.732300  1.0
  H  H399  1  0.352000  0.270200  0.367400  1.0
  H  H400  1  0.648000  0.729800  0.632600  1.0
  H  H401  1  0.315600  0.324100  0.361600  1.0
  H  H402  1  0.684400  0.675900  0.638400  1.0
  H  H403  1  0.573200  0.208300  0.131200  1.0
  H  H404  1  0.426800  0.791700  0.868800  1.0
  H  H405  1  0.553700  0.179800  0.091900  1.0
  H  H406  1  0.446300  0.820200  0.908100  1.0
  H  H407  1  0.581000  0.086800  0.154600  1.0
  H  H408  1  0.419000  0.913200  0.845400  1.0
  H  H409  1  0.602500  0.116200  0.190000  1.0
  H  H410  1  0.397500  0.883800  0.810000  1.0
  H  H411  1  0.516600  0.211400  0.958600  1.0
  H  H412  1  0.483400  0.788600  0.041400  1.0
  H  H413  1  0.529000  0.179600  0.013400  1.0
  H  H414  1  0.471000  0.820400  0.986600  1.0
  H  H415  1  0.526600  0.089000  0.981100  1.0
  H  H416  1  0.473400  0.911000  0.018900  1.0
  H  H417  1  0.516200  0.120200  0.925900  1.0
  H  H418  1  0.483800  0.879800  0.074100  1.0
  H  H419  1  0.646500  0.235300  0.132600  1.0
  H  H420  1  0.353500  0.764700  0.867400  1.0
  H  H421  1  0.701600  0.232200  0.094800  1.0
  H  H422  1  0.298400  0.767800  0.905200  1.0
  H  H423  1  0.730900  0.132100  0.147100  1.0
  H  H424  1  0.269100  0.867900  0.852900  1.0
  H  H425  1  0.675100  0.139800  0.185900  1.0
  H  H426  1  0.324900  0.860200  0.814100  1.0
  H  H427  1  0.838200  0.104800  0.110700  1.0
  H  H428  1  0.161800  0.895200  0.889300  1.0
  H  H429  1  0.867200  0.128600  0.089000  1.0
  H  H430  1  0.132800  0.871400  0.911000  1.0
  H  H431  1  0.851500  0.103900  0.069100  1.0
  H  H432  1  0.148500  0.896100  0.930900  1.0
  H  H433  1  0.756700  0.296200  0.962700  1.0
  H  H434  1  0.243300  0.703800  0.037300  1.0
  H  H435  1  0.750100  0.257300  0.014800  1.0
  H  H436  1  0.249900  0.742700  0.985200  1.0
  H  H437  1  0.847000  0.200200  0.985700  1.0
  H  H438  1  0.153000  0.799800  0.014300  1.0
  H  H439  1  0.849900  0.239400  0.929300  1.0
  H  H440  1  0.150100  0.760600  0.070700  1.0
  H  H441  1  0.606000  0.267700  0.205700  1.0
  H  H442  1  0.394000  0.732300  0.794300  1.0
  H  H443  1  0.622800  0.298400  0.244900  1.0
  H  H444  1  0.377200  0.701600  0.755100  1.0
  H  H445  1  0.673100  0.204000  0.292000  1.0
  H  H446  1  0.326900  0.796000  0.708000  1.0
  H  H447  1  0.653800  0.175600  0.253000  1.0
  H  H448  1  0.346200  0.824400  0.747000  1.0
  H  H449  1  0.709200  0.227300  0.376100  1.0
  H  H450  1  0.290800  0.772700  0.623900  1.0
  H  H451  1  0.690700  0.257200  0.400100  1.0
  H  H452  1  0.309300  0.742800  0.599900  1.0
  H  H453  1  0.728600  0.260400  0.375800  1.0
  H  H454  1  0.271400  0.739600  0.624200  1.0
  H  H455  1  0.609800  0.433700  0.265700  1.0
  H  H456  1  0.390200  0.566300  0.734300  1.0
  H  H457  1  0.629600  0.374000  0.268800  1.0
  H  H458  1  0.370400  0.626000  0.731200  1.0
  H  H459  1  0.671700  0.374000  0.354500  1.0
  H  H460  1  0.328300  0.626000  0.645500  1.0
  H  H461  1  0.657000  0.436800  0.346400  1.0
  H  H462  1  0.343000  0.563200  0.653600  1.0
  H  H463  1  0.648700  0.509700  0.227500  1.0
  H  H464  1  0.351300  0.490300  0.772500  1.0
  H  H465  1  0.702600  0.526000  0.194300  1.0
  H  H466  1  0.297400  0.474000  0.805700  1.0
  H  H467  1  0.738300  0.518900  0.286500  1.0
  H  H468  1  0.261700  0.481100  0.713500  1.0
  H  H469  1  0.682600  0.507400  0.317900  1.0
  H  H470  1  0.317400  0.492600  0.682100  1.0
  H  H471  1  0.753600  0.577400  0.055600  1.0
  H  H472  1  0.246400  0.422600  0.944400  1.0
  H  H473  1  0.748700  0.557500  0.116200  1.0
  H  H474  1  0.251300  0.442500  0.883800  1.0
  H  H475  1  0.841600  0.590400  0.116200  1.0
  H  H476  1  0.158400  0.409600  0.883800  1.0
  H  H477  1  0.844400  0.609500  0.054800  1.0
  H  H478  1  0.155600  0.390500  0.945200  1.0
  H  H479  1  0.576300  0.555200  0.254300  1.0
  H  H480  1  0.423700  0.444800  0.745700  1.0
  H  H481  1  0.557900  0.616000  0.248700  1.0
  H  H482  1  0.442100  0.384000  0.751300  1.0
  H  H483  1  0.588700  0.615900  0.341600  1.0
  H  H484  1  0.411300  0.384100  0.658400  1.0
  H  H485  1  0.609900  0.555700  0.343700  1.0
  H  H486  1  0.390100  0.444300  0.656300  1.0
  H  H487  1  0.511600  0.726200  0.148500  1.0
  H  H488  1  0.488400  0.273800  0.851500  1.0
  H  H489  1  0.529400  0.693600  0.199600  1.0
  H  H490  1  0.470600  0.306400  0.800400  1.0
  H  H491  1  0.518700  0.787400  0.238200  1.0
  H  H492  1  0.481300  0.212600  0.761800  1.0
  H  H493  1  0.506800  0.817600  0.182600  1.0
  H  H494  1  0.493200  0.182400  0.817400  1.0
  H  H495  1  0.555100  0.754400  0.074400  1.0
  H  H496  1  0.444900  0.245600  0.925600  1.0
  H  H497  1  0.616700  0.748200  0.058100  1.0
  H  H498  1  0.383300  0.251800  0.941900  1.0
  H  H499  1  0.615100  0.842100  0.089200  1.0
  H  H500  1  0.384900  0.157900  0.910800  1.0
  H  H501  1  0.553300  0.843500  0.109900  1.0
  H  H502  1  0.446700  0.156500  0.890100  1.0
  H  H503  1  0.727200  0.649100  0.008600  1.0
  H  H504  1  0.272800  0.350900  0.991400  1.0
  H  H505  1  0.694100  0.701800  0.027400  1.0
  H  H506  1  0.305900  0.298200  0.972600  1.0
  H  H507  1  0.786900  0.738000  0.020600  1.0
  H  H508  1  0.213100  0.262000  0.979400  1.0
  H  H509  1  0.817600  0.683700  0.005700  1.0
  H  H510  1  0.182400  0.316300  0.994300  1.0
  H  H511  1  0.607700  0.763200  0.287000  0.231
  H  H512  1  0.392300  0.236800  0.713000  0.231
  H  H513  1  0.640700  0.731300  0.289300  0.231
  H  H514  1  0.359300  0.268700  0.710700  0.231
  H  H515  1  0.614000  0.739700  0.324700  0.231
  H  H516  1  0.386000  0.260300  0.675300  0.231
  H  H517  1  0.677700  0.970100  0.920700  0.26
  H  H518  1  0.322300  0.029900  0.079300  0.26
  H  H519  1  0.694100  0.005700  0.917500  0.26
  H  H520  1  0.305900  0.994300  0.082500  0.26
  H  H521  1  0.717000  0.967700  0.929300  0.26
  H  H522  1  0.283000  0.032300  0.070700  0.26
  H  H523  1  0.569600  0.017100  0.036500  0.32
  H  H524  1  0.430400  0.982900  0.963500  0.32
  H  H525  1  0.562200  0.004800  0.078700  0.32
  H  H526  1  0.437800  0.995200  0.921300  0.32
  H  H527  1  0.601800  0.008700  0.058800  0.32
  H  H528  1  0.398200  0.991300  0.941200  0.32
  H  H529  1  0.072900  0.535100  0.572200  0.329
  H  H530  1  0.927100  0.464900  0.427800  0.329
  H  H531  1  0.076500  0.517900  0.537000  0.329
  H  H532  1  0.923500  0.482100  0.463000  0.329
  H  H533  1  0.039400  0.540300  0.552100  0.329
  H  H534  1  0.960600  0.459700  0.447900  0.329
  H  H535  1  0.969200  0.948600  0.964900  0.33
  H  H536  1  0.030800  0.051400  0.035100  0.33
  H  H537  1  0.952900  0.913000  0.981600  0.33
  H  H538  1  0.047100  0.087000  0.018400  0.33
  H  H539  1  0.929600  0.946100  0.960600  0.33
  H  H540  1  0.070400  0.053900  0.039400  0.33
  H  H541  1  0.527100  0.068300  0.585600  0.35
  H  H542  1  0.472900  0.931700  0.414400  0.35
  H  H543  1  0.513600  0.032800  0.582100  0.35
  H  H544  1  0.486400  0.967200  0.417900  0.35
  H  H545  1  0.534100  0.055000  0.547800  0.35
  H  H546  1  0.465900  0.945000  0.452200  0.35
  H  H547  1  0.001300  0.592500  0.836900  0.38
  H  H548  1  0.998700  0.407500  0.163100  0.38
  H  H549  1  0.043900  0.586100  0.831900  0.38
  H  H550  1  0.956100  0.413900  0.168100  0.38
  H  H551  1  0.024300  0.570600  0.806900  0.38
  H  H552  1  0.975700  0.429400  0.193100  0.38
  H  H553  1  0.842500  0.597700  0.222500  0.39
  H  H554  1  0.157500  0.402300  0.777500  0.39
  H  H555  1  0.836300  0.564800  0.253600  0.39
  H  H556  1  0.163700  0.435200  0.746400  0.39
  H  H557  1  0.810500  0.602200  0.255000  0.39
  H  H558  1  0.189500  0.397800  0.745000  0.39
  H  H559  1  0.756900  0.843800  0.023000  0.42
  H  H560  1  0.243100  0.156200  0.977000  0.42
  H  H561  1  0.729100  0.864700  0.051100  0.42
  H  H562  1  0.270900  0.135300  0.948900  0.42
  H  H563  1  0.722200  0.869400  0.011000  0.42
  H  H564  1  0.277800  0.130600  0.989000  0.42
  H  H565  1  0.402200  0.660900  0.432500  0.43
  H  H566  1  0.597800  0.339100  0.567500  0.43
  H  H567  1  0.374800  0.634200  0.450800  0.43
  H  H568  1  0.625200  0.365800  0.549200  0.43
  H  H569  1  0.401200  0.643500  0.473500  0.43
  H  H570  1  0.598800  0.356500  0.526500  0.43
  H  H571  1  0.425400  0.479600  0.484400  0.43
  H  H572  1  0.574600  0.520400  0.515600  0.43
  H  H573  1  0.400300  0.449700  0.493000  0.43
  H  H574  1  0.599700  0.550300  0.507000  0.43
  H  H575  1  0.384500  0.490400  0.479700  0.43
  H  H576  1  0.615500  0.509600  0.520300  0.43
  H  H577  1  0.426500  0.678800  0.450400  0.57
  H  H578  1  0.573500  0.321200  0.549600  0.57
  H  H579  1  0.404000  0.648800  0.472400  0.57
  H  H580  1  0.596000  0.351200  0.527600  0.57
  H  H581  1  0.419400  0.673000  0.493000  0.57
  H  H582  1  0.580600  0.327000  0.507000  0.57
  H  H583  1  0.397900  0.425900  0.495900  0.57
  H  H584  1  0.602100  0.574100  0.504100  0.57
  H  H585  1  0.420100  0.456600  0.496300  0.57
  H  H586  1  0.579900  0.543400  0.503700  0.57
  H  H587  1  0.439600  0.416100  0.498000  0.57
  H  H588  1  0.560400  0.583900  0.502000  0.57
  H  H589  1  0.716700  0.855400  0.084500  0.58
  H  H590  1  0.283300  0.144600  0.915500  0.58
  H  H591  1  0.745100  0.850800  0.049200  0.58
  H  H592  1  0.254900  0.149200  0.950800  0.58
  H  H593  1  0.754000  0.829700  0.086900  0.58
  H  H594  1  0.246000  0.170300  0.913100  0.58
  H  H595  1  0.838800  0.544500  0.259600  0.61
  H  H596  1  0.161200  0.455500  0.740400  0.61
  H  H597  1  0.850000  0.577700  0.231000  0.61
  H  H598  1  0.150000  0.422300  0.769000  0.61
  H  H599  1  0.868200  0.538100  0.225400  0.61
  H  H600  1  0.131800  0.461900  0.774600  0.61
  H  H601  1  0.018400  0.606300  0.864700  0.62
  H  H602  1  0.981600  0.393700  0.135300  0.62
  H  H603  1  0.060800  0.601500  0.853900  0.62
  H  H604  1  0.939200  0.398500  0.146100  0.62
  H  H605  1  0.038200  0.581000  0.836400  0.62
  H  H606  1  0.961800  0.419000  0.163600  0.62
  H  H607  1  0.516800  0.996600  0.601400  0.65
  H  H608  1  0.483200  0.003400  0.398600  0.65
  H  H609  1  0.515800  0.038700  0.596800  0.65
  H  H610  1  0.484200  0.961300  0.403200  0.65
  H  H611  1  0.508800  0.015900  0.635700  0.65
  H  H612  1  0.491200  0.984100  0.364300  0.65
  H  H613  1  0.962300  0.872300  0.986900  0.67
  H  H614  1  0.037700  0.127700  0.013100  0.67
  H  H615  1  0.974200  0.910300  0.983800  0.67
  H  H616  1  0.025800  0.089700  0.016200  0.67
  H  H617  1  0.002500  0.874600  0.989600  0.67
  H  H618  1  0.997500  0.125400  0.010400  0.67
  H  H619  1  0.129700  0.511500  0.534700  0.671
  H  H620  1  0.870300  0.488500  0.465300  0.671
  H  H621  1  0.127400  0.512800  0.493700  0.671
  H  H622  1  0.872600  0.487200  0.506300  0.671
  H  H623  1  0.091800  0.515600  0.522300  0.671
  H  H624  1  0.908200  0.484400  0.477700  0.671
  H  H625  1  0.549000  0.008300  0.112500  0.68
  H  H626  1  0.451000  0.991700  0.887500  0.68
  H  H627  1  0.566100  0.005600  0.072000  0.68
  H  H628  1  0.433900  0.994400  0.928000  0.68
  H  H629  1  0.523800  0.011000  0.083600  0.68
  H  H630  1  0.476200  0.989000  0.916400  0.68
  H  H631  1  0.643500  0.985500  0.897300  0.74
  H  H632  1  0.356500  0.014500  0.102700  0.74
  H  H633  1  0.671400  0.959100  0.919700  0.74
  H  H634  1  0.328600  0.040900  0.080300  0.74
  H  H635  1  0.649500  0.943500  0.896800  0.74
  H  H636  1  0.350500  0.056500  0.103200  0.74
  H  H637  1  0.564900  0.715900  0.364400  0.769
  H  H638  1  0.435100  0.284100  0.635600  0.769
  H  H639  1  0.533000  0.746600  0.353700  0.769
  H  H640  1  0.467000  0.253400  0.646300  0.769
  H  H641  1  0.573400  0.751000  0.337200  0.769
  H  H642  1  0.426600  0.249000  0.662800  0.769
  Pd  Pd643  1  0.153503  0.974733  0.784125  1.0
  Pd  Pd644  1  0.846497  0.025267  0.215875  1.0
  Pd  Pd645  1  0.183378  0.691168  0.627133  1.0
  Pd  Pd646  1  0.816622  0.308832  0.372867  1.0
  Pd  Pd647  1  0.872685  0.816651  0.808918  1.0
  Pd  Pd648  1  0.127315  0.183349  0.191082  1.0
  Pd  Pd649  1  0.691022  0.127127  0.683401  1.0
  Pd  Pd650  1  0.308978  0.872873  0.316599  1.0
  Pd  Pd651  1  0.715802  0.846522  0.525254  1.0
  Pd  Pd652  1  0.284198  0.153478  0.474746  1.0
  Pd  Pd653  1  0.025225  0.715830  0.346511  1.0
  Pd  Pd654  1  0.974775  0.284170  0.653489  1.0
  Pd  Pd655  1  0.196577  0.387611  0.004844  1.0
  Pd  Pd656  1  0.803423  0.612389  0.995156  1.0
  Pd  Pd657  1  0.191572  0.695700  0.107921  1.0
  Pd  Pd658  1  0.808428  0.304300  0.892079  1.0
  Pd  Pd659  1  0.304379  0.392110  0.308396  1.0
  Pd  Pd660  1  0.695621  0.607890  0.691604  1.0
  Pd  Pd661  1  0.607865  0.191607  0.195621  1.0
  Pd  Pd662  1  0.392135  0.808393  0.804379  1.0
  Pd  Pd663  1  0.612461  0.495216  0.303336  1.0
  Pd  Pd664  1  0.387539  0.504784  0.696664  1.0
  Pd  Pd665  1  0.495234  0.803393  0.112385  1.0
  Pd  Pd666  1  0.504766  0.196607  0.887615  1.0
  C  C667  1  0.329000  0.742600  0.437600  0.43
  C  C668  1  0.671000  0.257400  0.562400  0.43
  C  C669  1  0.358300  0.685000  0.465600  0.43
  C  C670  1  0.641700  0.315000  0.534400  0.43
  C  C671  1  0.310300  0.720800  0.501000  0.43
  C  C672  1  0.689700  0.279200  0.499000  0.43
  C  C673  1  0.386800  0.652900  0.454600  0.43
  C  C674  1  0.613200  0.347100  0.545400  0.43
  C  C675  1  0.409000  0.445000  0.386800  0.43
  C  C676  1  0.591000  0.555000  0.613200  0.43
  C  C677  1  0.414800  0.465800  0.441100  0.43
  C  C678  1  0.585200  0.534200  0.558900  0.43
  C  C679  1  0.465300  0.462400  0.392100  0.43
  C  C680  1  0.534700  0.537600  0.607900  0.43
  C  C681  1  0.405500  0.471900  0.477400  0.43
  C  C682  1  0.594500  0.528100  0.522600  0.43
  C  C683  1  0.728100  0.062600  0.723700  1.0
  C  C684  1  0.271900  0.937400  0.276300  1.0
  C  C685  1  0.736900  0.034600  0.752100  1.0
  C  C686  1  0.263100  0.965400  0.247900  1.0
  C  C687  1  0.710800  0.031400  0.782400  1.0
  C  C688  1  0.289200  0.968600  0.217600  1.0
  C  C689  1  0.678900  0.058000  0.784800  1.0
  C  C690  1  0.321100  0.942000  0.215200  1.0
  C  C691  1  0.674900  0.084500  0.757100  1.0
  C  C692  1  0.325100  0.915500  0.242900  1.0
  C  C693  1  0.831500  0.887400  0.793600  1.0
  C  C694  1  0.168500  0.112600  0.206400  1.0
  C  C695  1  0.803500  0.917600  0.796600  1.0
  C  C696  1  0.196500  0.082400  0.203400  1.0
  C  C697  1  0.778400  0.916100  0.828800  1.0
  C  C698  1  0.221600  0.083900  0.171200  1.0
  C  C699  1  0.781400  0.884500  0.854100  1.0
  C  C700  1  0.218600  0.115500  0.145900  1.0
  C  C701  1  0.810000  0.855800  0.846700  1.0
  C  C702  1  0.190000  0.144200  0.153300  1.0
  C  C703  1  0.700300  0.914600  0.554500  1.0
  C  C704  1  0.299700  0.085400  0.445500  1.0
  C  C705  1  0.678500  0.944100  0.570200  1.0
  C  C706  1  0.321500  0.055900  0.429800  1.0
  C  C707  1  0.642100  0.947200  0.574600  1.0
  C  C708  1  0.357900  0.052800  0.425400  1.0
  C  C709  1  0.627900  0.922800  0.564900  1.0
  C  C710  1  0.372100  0.077200  0.435100  1.0
  C  C711  1  0.648900  0.894300  0.549600  1.0
  C  C712  1  0.351100  0.105700  0.450400  1.0
  C  C713  1  0.687100  0.069100  0.644900  1.0
  C  C714  1  0.312900  0.930900  0.355100  1.0
  C  C715  1  0.669600  0.047400  0.630100  1.0
  C  C716  1  0.330400  0.952600  0.369900  1.0
  C  C717  1  0.633400  0.051100  0.635300  1.0
  C  C718  1  0.366600  0.948900  0.364700  1.0
  C  C719  1  0.612900  0.076800  0.653700  1.0
  C  C720  1  0.387100  0.923200  0.346300  1.0
  C  C721  1  0.631700  0.097900  0.667300  1.0
  C  C722  1  0.368300  0.902100  0.332700  1.0
  C  C723  1  0.750300  0.826200  0.589400  1.0
  C  C724  1  0.249700  0.173800  0.410600  1.0
  C  C725  1  0.756000  0.809800  0.625800  1.0
  C  C726  1  0.244000  0.190200  0.374200  1.0
  C  C727  1  0.729400  0.790800  0.647200  1.0
  C  C728  1  0.270600  0.209200  0.352800  1.0
  C  C729  1  0.699400  0.788100  0.632100  1.0
  C  C730  1  0.300600  0.211900  0.367900  1.0
  C  C731  1  0.698000  0.802600  0.597000  1.0
  C  C732  1  0.302000  0.197400  0.403000  1.0
  C  C733  1  0.732300  0.774800  0.684700  1.0
  C  C734  1  0.267700  0.225200  0.315300  1.0
  C  C735  1  0.713300  0.740300  0.737500  1.0
  C  C736  1  0.286700  0.259700  0.262500  1.0
  C  C737  1  0.761000  0.767400  0.733200  1.0
  C  C738  1  0.239000  0.232600  0.266800  1.0
  C  C739  1  0.685200  0.717900  0.760200  1.0
  C  C740  1  0.314800  0.282100  0.239800  1.0
  C  C741  1  0.837900  0.808000  0.748400  1.0
  C  C742  1  0.162100  0.192000  0.251600  1.0
  C  C743  1  0.814600  0.797800  0.731300  1.0
  C  C744  1  0.185400  0.202200  0.268700  1.0
  C  C745  1  0.789100  0.777300  0.751000  1.0
  C  C746  1  0.210900  0.222700  0.249000  1.0
  C  C747  1  0.790300  0.766200  0.787600  1.0
  C  C748  1  0.209700  0.233800  0.212400  1.0
  C  C749  1  0.814500  0.777200  0.803700  1.0
  C  C750  1  0.185500  0.222800  0.196300  1.0
  C  C751  1  0.938700  0.775400  0.769000  1.0
  C  C752  1  0.061300  0.224600  0.231000  1.0
  C  C753  1  0.966200  0.747400  0.762600  1.0
  C  C754  1  0.033800  0.252600  0.237400  1.0
  C  C755  1  0.967900  0.716800  0.789300  1.0
  C  C756  1  0.032100  0.283200  0.210700  1.0
  C  C757  1  0.942900  0.714700  0.820400  1.0
  C  C758  1  0.057100  0.285300  0.179600  1.0
  C  C759  1  0.915700  0.742100  0.825000  1.0
  C  C760  1  0.084300  0.257900  0.175000  1.0
  C  C761  1  0.111800  0.706300  0.668800  1.0
  C  C762  1  0.888200  0.293700  0.331200  1.0
  C  C763  1  0.082200  0.702800  0.696200  1.0
  C  C764  1  0.917800  0.297200  0.303800  1.0
  C  C765  1  0.083900  0.671900  0.721600  1.0
  C  C766  1  0.916100  0.328100  0.278400  1.0
  C  C767  1  0.116700  0.646600  0.719100  1.0
  C  C768  1  0.883300  0.353400  0.280900  1.0
  C  C769  1  0.144100  0.652700  0.690400  1.0
  C  C770  1  0.855900  0.347300  0.309600  1.0
  C  C771  1  0.086500  0.944300  0.800200  1.0
  C  C772  1  0.913500  0.055700  0.199800  1.0
  C  C773  1  0.057000  0.930300  0.820500  1.0
  C  C774  1  0.943000  0.069700  0.179500  1.0
  C  C775  1  0.052600  0.925900  0.858100  1.0
  C  C776  1  0.947400  0.074100  0.141900  1.0
  C  C777  1  0.076700  0.935500  0.874100  1.0
  C  C778  1  0.923300  0.064500  0.125900  1.0
  C  C779  1  0.107000  0.950500  0.850700  1.0
  C  C780  1  0.893000  0.049500  0.149300  1.0
  C  C781  1  0.930800  0.855100  0.813500  1.0
  C  C782  1  0.069200  0.144900  0.186500  1.0
  C  C783  1  0.952500  0.870500  0.829500  1.0
  C  C784  1  0.047500  0.129500  0.170500  1.0
  C  C785  1  0.949800  0.865500  0.865500  1.0
  C  C786  1  0.050200  0.134500  0.134500  1.0
  C  C787  1  0.923000  0.846100  0.886100  1.0
  C  C788  1  0.077000  0.153900  0.113900  1.0
  C  C789  1  0.902600  0.831600  0.868400  1.0
  C  C790  1  0.097400  0.168400  0.131600  1.0
  C  C791  1  0.192000  0.751800  0.661500  1.0
  C  C792  1  0.808000  0.248200  0.338500  1.0
  C  C793  1  0.202700  0.768700  0.685500  1.0
  C  C794  1  0.797300  0.231300  0.314500  1.0
  C  C795  1  0.222700  0.749400  0.710100  1.0
  C  C796  1  0.777300  0.250600  0.289900  1.0
  C  C797  1  0.234090  0.712300  0.709760  1.0
  C  C798  1  0.765910  0.287700  0.290240  1.0
  C  C799  1  0.224000  0.696600  0.685600  1.0
  C  C800  1  0.776000  0.303400  0.314400  1.0
  C  C801  1  0.232200  0.766900  0.738410  1.0
  C  C802  1  0.767800  0.233100  0.261590  1.0
  C  C803  1  0.259800  0.762500  0.787300  1.0
  C  C804  1  0.740200  0.237500  0.212700  1.0
  C  C805  1  0.225900  0.814800  0.766500  1.0
  C  C806  1  0.774100  0.185200  0.233500  1.0
  C  C807  1  0.281900  0.739300  0.814500  1.0
  C  C808  1  0.718100  0.260700  0.185500  1.0
  C  C809  1  0.173100  0.910300  0.750100  1.0
  C  C810  1  0.826900  0.089700  0.249900  1.0
  C  C811  1  0.191600  0.874900  0.744000  1.0
  C  C812  1  0.808400  0.125100  0.256000  1.0
  C  C813  1  0.209300  0.853000  0.770800  1.0
  C  C814  1  0.790700  0.147000  0.229200  1.0
  C  C815  1  0.212500  0.867500  0.800530  1.0
  C  C816  1  0.787500  0.132500  0.199470  1.0
  C  C817  1  0.196700  0.903200  0.802810  1.0
  C  C818  1  0.803300  0.096800  0.197190  1.0
  C  C819  1  0.143500  0.686900  0.569200  1.0
  C  C820  1  0.856500  0.313100  0.430800  1.0
  C  C821  1  0.131300  0.670000  0.547400  1.0
  C  C822  1  0.868700  0.330000  0.452600  1.0
  C  C823  1  0.134500  0.634200  0.550700  1.0
  C  C824  1  0.865500  0.365800  0.449300  1.0
  C  C825  1  0.153300  0.614100  0.575900  1.0
  C  C826  1  0.846700  0.385900  0.424100  1.0
  C  C827  1  0.167500  0.631300  0.597800  1.0
  C  C828  1  0.832500  0.368700  0.402200  1.0
  C  C829  1  0.056000  0.699600  0.414700  1.0
  C  C830  1  0.944000  0.300400  0.585300  1.0
  C  C831  1  0.070200  0.679100  0.444000  1.0
  C  C832  1  0.929800  0.320900  0.556000  1.0
  C  C833  1  0.074100  0.642800  0.447400  1.0
  C  C834  1  0.925900  0.357200  0.552600  1.0
  C  C835  1  0.063700  0.627000  0.423000  1.0
  C  C836  1  0.936300  0.373000  0.577000  1.0
  C  C837  1  0.050400  0.648000  0.394100  1.0
  C  C838  1  0.949600  0.352000  0.605900  1.0
  C  C839  1  0.294500  0.830600  0.388900  1.0
  C  C840  1  0.705500  0.169400  0.611100  1.0
  C  C841  1  0.297800  0.802700  0.417500  1.0
  C  C842  1  0.702200  0.197300  0.582500  1.0
  C  C843  1  0.328900  0.777100  0.414600  1.0
  C  C844  1  0.671100  0.222900  0.585400  1.0
  C  C845  1  0.352900  0.781800  0.384400  1.0
  C  C846  1  0.647100  0.218200  0.615600  1.0
  C  C847  1  0.346500  0.809400  0.356300  1.0
  C  C848  1  0.653500  0.190600  0.643700  1.0
  C  C849  1  0.224800  0.730000  0.562000  1.0
  C  C850  1  0.775200  0.270000  0.438000  1.0
  C  C851  1  0.251700  0.736600  0.534200  1.0
  C  C852  1  0.748300  0.263400  0.465800  1.0
  C  C853  1  0.283000  0.709900  0.531600  1.0
  C  C854  1  0.717000  0.290100  0.468400  1.0
  C  C855  1  0.286300  0.680800  0.557300  1.0
  C  C856  1  0.713700  0.319200  0.442700  1.0
  C  C857  1  0.257900  0.674900  0.584800  1.0
  C  C858  1  0.742100  0.325100  0.415200  1.0
  C  C859  1  0.089400  0.750700  0.325300  1.0
  C  C860  1  0.910600  0.249300  0.674700  1.0
  C  C861  1  0.125500  0.755500  0.309600  1.0
  C  C862  1  0.874500  0.244500  0.690400  1.0
  C  C863  1  0.147300  0.729300  0.290300  1.0
  C  C864  1  0.852700  0.270700  0.709700  1.0
  C  C865  1  0.132400  0.699800  0.287500  1.0
  C  C866  1  0.867600  0.300200  0.712500  1.0
  C  C867  1  0.097600  0.697640  0.302900  1.0
  C  C868  1  0.902400  0.302360  0.697100  1.0
  C  C869  1  0.184900  0.733600  0.274200  1.0
  C  C870  1  0.815100  0.266400  0.725800  1.0
  C  C871  1  0.237900  0.712700  0.240200  1.0
  C  C872  1  0.762100  0.287300  0.759800  1.0
  C  C873  1  0.233100  0.760990  0.267800  1.0
  C  C874  1  0.766900  0.239010  0.732200  1.0
  C  C875  1  0.260300  0.685500  0.218000  1.0
  C  C876  1  0.739700  0.314500  0.782000  1.0
  C  C877  1  0.248000  0.839800  0.306700  1.0
  C  C878  1  0.752000  0.160200  0.693300  1.0
  C  C879  1  0.230700  0.814300  0.297400  1.0
  C  C880  1  0.769300  0.185700  0.702600  1.0
  C  C881  1  0.250800  0.789500  0.276900  1.0
  C  C882  1  0.749200  0.210500  0.723100  1.0
  C  C883  1  0.287600  0.790800  0.265780  1.0
  C  C884  1  0.712400  0.209200  0.734220  1.0
  C  C885  1  0.304000  0.815000  0.276310  1.0
  C  C886  1  0.696000  0.185000  0.723690  1.0
  C  C887  1  0.955200  0.731000  0.392900  1.0
  C  C888  1  0.044800  0.269000  0.607100  1.0
  C  C889  1  0.920300  0.727600  0.409300  1.0
  C  C890  1  0.079700  0.272400  0.590700  1.0
  C  C891  1  0.905300  0.700500  0.404600  1.0
  C  C892  1  0.094700  0.299500  0.595400  1.0
  C  C893  1  0.924200  0.676700  0.383700  1.0
  C  C894  1  0.075800  0.323300  0.616300  1.0
  C  C895  1  0.959200  0.681800  0.367600  1.0
  C  C896  1  0.040800  0.318200  0.632400  1.0
  C  C897  1  0.869730  0.696430  0.421850  1.0
  C  C898  1  0.130270  0.303570  0.578150  1.0
  C  C899  1  0.821300  0.660740  0.438900  1.0
  C  C900  1  0.178700  0.339260  0.561100  1.0
  C  C901  1  0.813020  0.719740  0.456600  1.0
  C  C902  1  0.186980  0.280260  0.543400  1.0
  C  C903  1  0.807500  0.627200  0.438400  1.0
  C  C904  1  0.192500  0.372800  0.561600  1.0
  C  C905  1  0.782500  0.804700  0.492300  1.0
  C  C906  1  0.217500  0.195300  0.507700  1.0
  C  C907  1  0.805600  0.778000  0.476500  1.0
  C  C908  1  0.194400  0.222000  0.523500  1.0
  C  C909  1  0.790600  0.748500  0.473500  1.0
  C  C910  1  0.209400  0.251500  0.526500  1.0
  C  C911  1  0.754800  0.745800  0.487400  1.0
  C  C912  1  0.245200  0.254200  0.512600  1.0
  C  C913  1  0.734400  0.775400  0.501400  1.0
  C  C914  1  0.265600  0.224600  0.498600  1.0
  C  C915  1  0.804700  0.992900  0.282900  1.0
  C  C916  1  0.195300  0.007100  0.717100  1.0
  C  C917  1  0.778200  0.975900  0.305000  1.0
  C  C918  1  0.221800  0.024100  0.695000  1.0
  C  C919  1  0.747700  0.973600  0.291800  1.0
  C  C920  1  0.252300  0.026400  0.708200  1.0
  C  C921  1  0.745900  0.987300  0.254700  1.0
  C  C922  1  0.254100  0.012700  0.745300  1.0
  C  C923  1  0.774700  0.001800  0.234700  1.0
  C  C924  1  0.225300  0.998200  0.765300  1.0
  C  C925  1  0.720090  0.956380  0.313190  1.0
  C  C926  1  0.279910  0.043620  0.686810  1.0
  C  C927  1  0.660820  0.939200  0.321800  1.0
  C  C928  1  0.339180  0.060800  0.678200  1.0
  C  C929  1  0.696410  0.922500  0.370280  1.0
  C  C930  1  0.303590  0.077500  0.629720  1.0
  C  C931  1  0.628700  0.937100  0.306300  1.0
  C  C932  1  0.371300  0.062900  0.693700  1.0
  C  C933  1  0.732200  0.892900  0.454300  1.0
  C  C934  1  0.267800  0.107100  0.545700  1.0
  C  C935  1  0.728300  0.909900  0.420500  1.0
  C  C936  1  0.271700  0.090100  0.579500  1.0
  C  C937  1  0.701000  0.904600  0.405100  1.0
  C  C938  1  0.299000  0.095400  0.594900  1.0
  C  C939  1  0.678300  0.881700  0.425400  1.0
  C  C940  1  0.321700  0.118300  0.574600  1.0
  C  C941  1  0.682100  0.866600  0.459200  1.0
  C  C942  1  0.317900  0.133400  0.540800  1.0
  C  C943  1  0.992600  0.782800  0.304300  1.0
  C  C944  1  0.007400  0.217200  0.695700  1.0
  C  C945  1  0.977000  0.805000  0.277000  1.0
  C  C946  1  0.023000  0.195000  0.723000  1.0
  C  C947  1  0.974300  0.790600  0.247700  1.0
  C  C948  1  0.025700  0.209400  0.752300  1.0
  C  C949  1  0.986700  0.754900  0.246400  1.0
  C  C950  1  0.013300  0.245100  0.753600  1.0
  C  C951  1  0.002000  0.734400  0.275400  1.0
  C  C952  1  0.998000  0.265600  0.724600  1.0
  C  C953  1  0.957970  0.813500  0.219340  1.0
  C  C954  1  0.042030  0.186500  0.780660  1.0
  C  C955  1  0.938700  0.821100  0.161140  1.0
  C  C956  1  0.061300  0.178900  0.838860  1.0
  C  C957  1  0.921300  0.869350  0.196960  1.0
  C  C958  1  0.078700  0.130650  0.803040  1.0
  C  C959  1  0.941700  0.807000  0.126500  1.0
  C  C960  1  0.058300  0.193000  0.873500  1.0
  C  C961  1  0.892700  0.954900  0.232000  1.0
  C  C962  1  0.107300  0.045100  0.768000  1.0
  C  C963  1  0.910000  0.919800  0.228000  1.0
  C  C964  1  0.090000  0.080200  0.772000  1.0
  C  C965  1  0.905500  0.905000  0.201200  1.0
  C  C966  1  0.094500  0.095000  0.798800  1.0
  C  C967  1  0.883200  0.924900  0.177800  1.0
  C  C968  1  0.116800  0.075100  0.822200  1.0
  C  C969  1  0.865600  0.960000  0.182600  1.0
  C  C970  1  0.134400  0.040000  0.817400  1.0
  C  C971  1  0.254700  0.724700  0.118600  1.0
  C  C972  1  0.745300  0.275300  0.881400  1.0
  C  C973  1  0.273460  0.747140  0.129600  1.0
  C  C974  1  0.726540  0.252860  0.870400  1.0
  C  C975  1  0.254900  0.772910  0.149430  1.0
  C  C976  1  0.745100  0.227090  0.850570  1.0
  C  C977  1  0.217800  0.775700  0.158100  1.0
  C  C978  1  0.782200  0.224300  0.841900  1.0
  C  C979  1  0.200100  0.752300  0.146900  1.0
  C  C980  1  0.799900  0.247700  0.853100  1.0
  C  C981  1  0.275500  0.797840  0.160860  1.0
  C  C982  1  0.724500  0.202160  0.839140  1.0
  C  C983  1  0.274100  0.846600  0.186100  1.0
  C  C984  1  0.725900  0.153400  0.813900  1.0
  C  C985  1  0.327300  0.817400  0.161670  1.0
  C  C986  1  0.672700  0.182600  0.838330  1.0
  C  C987  1  0.252600  0.879700  0.203200  1.0
  C  C988  1  0.747400  0.120300  0.796800  1.0
  C  C989  1  0.422000  0.783360  0.123900  1.0
  C  C990  1  0.578000  0.216640  0.876100  1.0
  C  C991  1  0.385800  0.785900  0.133600  1.0
  C  C992  1  0.614200  0.214100  0.866400  1.0
  C  C993  1  0.367900  0.812480  0.152100  1.0
  C  C994  1  0.632100  0.187520  0.847900  1.0
  C  C995  1  0.386400  0.835800  0.159400  1.0
  C  C996  1  0.613600  0.164200  0.840600  1.0
  C  C997  1  0.423300  0.832700  0.149000  1.0
  C  C998  1  0.576700  0.167300  0.851000  1.0
  C  C999  1  0.276200  0.466600  0.275900  1.0
  C  C1000  1  0.723800  0.533400  0.724100  1.0
  C  C1001  1  0.254500  0.497100  0.271200  1.0
  C  C1002  1  0.745500  0.502900  0.728800  1.0
  C  C1003  1  0.224000  0.506000  0.297380  1.0
  C  C1004  1  0.776000  0.494000  0.702620  1.0
  C  C1005  1  0.219800  0.480700  0.326700  1.0
  C  C1006  1  0.780200  0.519300  0.673300  1.0
  C  C1007  1  0.244000  0.447300  0.330700  1.0
  C  C1008  1  0.756000  0.552700  0.669300  1.0
  C  C1009  1  0.198300  0.541100  0.292100  1.0
  C  C1010  1  0.801700  0.458900  0.707900  1.0
  C  C1011  1  0.151500  0.579900  0.314500  1.0
  C  C1012  1  0.848500  0.420100  0.685500  1.0
  C  C1013  1  0.179100  0.592900  0.257200  1.0
  C  C1014  1  0.820900  0.407100  0.742800  1.0
  C  C1015  1  0.121500  0.589000  0.346200  1.0
  C  C1016  1  0.878500  0.411000  0.653800  1.0
  C  C1017  1  0.215400  0.635700  0.163700  1.0
  C  C1018  1  0.784600  0.364300  0.836300  1.0
  C  C1019  1  0.213390  0.611840  0.196200  1.0
  C  C1020  1  0.786610  0.388160  0.803800  1.0
  C  C1021  1  0.182000  0.616500  0.222370  1.0
  C  C1022  1  0.818000  0.383500  0.777630  1.0
  C  C1023  1  0.153600  0.644400  0.213000  1.0
  C  C1024  1  0.846400  0.355600  0.787000  1.0
  C  C1025  1  0.157400  0.666830  0.180660  1.0
  C  C1026  1  0.842600  0.333170  0.819340  1.0
  C  C1027  1  0.183600  0.634300  0.075400  1.0
  C  C1028  1  0.816400  0.365700  0.924600  1.0
  C  C1029  1  0.166600  0.610600  0.063700  1.0
  C  C1030  1  0.833400  0.389400  0.936300  1.0
  C  C1031  1  0.129200  0.616900  0.067100  1.0
  C  C1032  1  0.870800  0.383100  0.932900  1.0
  C  C1033  1  0.111800  0.647500  0.081900  1.0
  C  C1034  1  0.888200  0.352500  0.918100  1.0
  C  C1035  1  0.129700  0.669200  0.093100  1.0
  C  C1036  1  0.870300  0.330800  0.906900  1.0
  C  C1037  1  0.110720  0.593750  0.056670  1.0
  C  C1038  1  0.889280  0.406250  0.943330  1.0
  C  C1039  1  0.055010  0.575900  0.050400  1.0
  C  C1040  1  0.944990  0.424100  0.949600  1.0
  C  C1041  1  0.111730  0.535380  0.040200  1.0
  C  C1042  1  0.888270  0.464620  0.959800  1.0
  C  C1043  1  0.016300  0.585000  0.053900  1.0
  C  C1044  1  0.983700  0.415000  0.946100  1.0
  C  C1045  1  0.186400  0.462800  0.019300  1.0
  C  C1046  1  0.813600  0.537200  0.980700  1.0
  C  C1047  1  0.167400  0.496100  0.026800  1.0
  C  C1048  1  0.832600  0.503900  0.973200  1.0
  C  C1049  1  0.130100  0.502500  0.031400  1.0
  C  C1050  1  0.869900  0.497500  0.968600  1.0
  C  C1051  1  0.112600  0.475700  0.028000  1.0
  C  C1052  1  0.887400  0.524300  0.972000  1.0
  C  C1053  1  0.133200  0.442500  0.019500  1.0
  C  C1054  1  0.866800  0.557500  0.980500  1.0
  C  C1055  1  0.216500  0.376800  0.077500  1.0
  C  C1056  1  0.783500  0.623200  0.922500  1.0
  C  C1057  1  0.213900  0.366300  0.114000  1.0
  C  C1058  1  0.786100  0.633700  0.886000  1.0
  C  C1059  1  0.187200  0.347800  0.133120  1.0
  C  C1060  1  0.812800  0.652200  0.866880  1.0
  C  C1061  1  0.164400  0.339700  0.114300  1.0
  C  C1062  1  0.835600  0.660300  0.885700  1.0
  C  C1063  1  0.167900  0.351200  0.076400  1.0
  C  C1064  1  0.832100  0.648800  0.923600  1.0
  C  C1065  1  0.183040  0.338150  0.173300  1.0
  C  C1066  1  0.816960  0.661850  0.826700  1.0
  C  C1067  1  0.153240  0.312600  0.226700  1.0
  C  C1068  1  0.846760  0.687400  0.773300  1.0
  C  C1069  1  0.201830  0.339000  0.224800  1.0
  C  C1070  1  0.798170  0.661000  0.775200  1.0
  C  C1071  1  0.122900  0.293900  0.247500  1.0
  C  C1072  1  0.877100  0.706100  0.752500  1.0
  C  C1073  1  0.275100  0.381400  0.244600  1.0
  C  C1074  1  0.724900  0.618600  0.755400  1.0
  C  C1075  1  0.253300  0.370500  0.226790  1.0
  C  C1076  1  0.746700  0.629500  0.773210  1.0
  C  C1077  1  0.227250  0.350510  0.245300  1.0
  C  C1078  1  0.772750  0.649490  0.754700  1.0
  C  C1079  1  0.225000  0.341100  0.281900  1.0
  C  C1080  1  0.775000  0.658900  0.718100  1.0
  C  C1081  1  0.247700  0.353800  0.299600  1.0
  C  C1082  1  0.752300  0.646200  0.700400  1.0
  C  C1083  1  0.364700  0.424400  0.316940  1.0
  C  C1084  1  0.635300  0.575600  0.683060  1.0
  C  C1085  1  0.389700  0.435200  0.334100  1.0
  C  C1086  1  0.610300  0.564800  0.665900  1.0
  C  C1087  1  0.382600  0.432100  0.370500  1.0
  C  C1088  1  0.617400  0.567900  0.629500  1.0
  C  C1089  1  0.351900  0.418300  0.388200  1.0
  C  C1090  1  0.648100  0.581700  0.611800  1.0
  C  C1091  1  0.330200  0.407200  0.371000  1.0
  C  C1092  1  0.669800  0.592800  0.629000  1.0
  C  C1093  1  0.537800  0.480900  0.314300  1.0
  C  C1094  1  0.462200  0.519100  0.685700  1.0
  C  C1095  1  0.504500  0.472800  0.332600  1.0
  C  C1096  1  0.495500  0.527200  0.667400  1.0
  C  C1097  1  0.498000  0.469200  0.369300  1.0
  C  C1098  1  0.502000  0.530800  0.630700  1.0
  C  C1099  1  0.524600  0.473300  0.386600  1.0
  C  C1100  1  0.475400  0.526700  0.613400  1.0
  C  C1101  1  0.557300  0.481800  0.367800  1.0
  C  C1102  1  0.442700  0.518200  0.632200  1.0
  C  C1103  1  0.534200  0.225100  0.223000  1.0
  C  C1104  1  0.465800  0.774900  0.777000  1.0
  C  C1105  1  0.502000  0.228400  0.246600  1.0
  C  C1106  1  0.498000  0.771600  0.753400  1.0
  C  C1107  1  0.493430  0.202760  0.276000  1.0
  C  C1108  1  0.506570  0.797240  0.724000  1.0
  C  C1109  1  0.519600  0.172800  0.280100  1.0
  C  C1110  1  0.480400  0.827200  0.719900  1.0
  C  C1111  1  0.552400  0.169800  0.256400  1.0
  C  C1112  1  0.447600  0.830200  0.743600  1.0
  C  C1113  1  0.459200  0.207800  0.301300  1.0
  C  C1114  1  0.540800  0.792200  0.698700  1.0
  C  C1115  1  0.419900  0.184600  0.349200  1.0
  C  C1116  1  0.580100  0.815400  0.650800  1.0
  C  C1117  1  0.406800  0.243200  0.321000  1.0
  C  C1118  1  0.593200  0.756800  0.679000  1.0
  C  C1119  1  0.408900  0.153400  0.376900  1.0
  C  C1120  1  0.591100  0.846600  0.623100  1.0
  C  C1121  1  0.364400  0.335850  0.285390  1.0
  C  C1122  1  0.635600  0.664150  0.714610  1.0
  C  C1123  1  0.387440  0.304600  0.287000  1.0
  C  C1124  1  0.612560  0.695400  0.713000  1.0
  C  C1125  1  0.383440  0.278130  0.317700  1.0
  C  C1126  1  0.616560  0.721870  0.682300  1.0
  C  C1127  1  0.355500  0.286800  0.346000  1.0
  C  C1128  1  0.644500  0.713200  0.654000  1.0
  C  C1129  1  0.333900  0.318700  0.342400  1.0
  C  C1130  1  0.666100  0.681300  0.657600  1.0
  C  C1131  1  0.575500  0.183000  0.135400  1.0
  C  C1132  1  0.424500  0.817000  0.864600  1.0
  C  C1133  1  0.563900  0.166200  0.111700  1.0
  C  C1134  1  0.436100  0.833800  0.888300  1.0
  C  C1135  1  0.567700  0.128800  0.117900  1.0
  C  C1136  1  0.432300  0.871200  0.882100  1.0
  C  C1137  1  0.580400  0.111800  0.148300  1.0
  C  C1138  1  0.419600  0.888200  0.851700  1.0
  C  C1139  1  0.592300  0.129300  0.170200  1.0
  C  C1140  1  0.407700  0.870700  0.829800  1.0
  C  C1141  1  0.519100  0.186200  0.962500  1.0
  C  C1142  1  0.480900  0.813800  0.037500  1.0
  C  C1143  1  0.526900  0.167100  0.995400  1.0
  C  C1144  1  0.473100  0.832900  0.004600  1.0
  C  C1145  1  0.531500  0.130800  0.001900  1.0
  C  C1146  1  0.468500  0.869200  0.998100  1.0
  C  C1147  1  0.525800  0.114000  0.976500  1.0
  C  C1148  1  0.474200  0.886000  0.023500  1.0
  C  C1149  1  0.518700  0.133000  0.943700  1.0
  C  C1150  1  0.481300  0.867000  0.056300  1.0
  C  C1151  1  0.663900  0.214630  0.136000  1.0
  C  C1152  1  0.336100  0.785370  0.864000  1.0
  C  C1153  1  0.696700  0.212710  0.112900  1.0
  C  C1154  1  0.303300  0.787290  0.887100  1.0
  C  C1155  1  0.722000  0.182000  0.116830  1.0
  C  C1156  1  0.278000  0.818000  0.883170  1.0
  C  C1157  1  0.714400  0.153570  0.144020  1.0
  C  C1158  1  0.285600  0.846430  0.855980  1.0
  C  C1159  1  0.680500  0.158500  0.166950  1.0
  C  C1160  1  0.319500  0.841500  0.833050  1.0
  C  C1161  1  0.756900  0.179200  0.093400  1.0
  C  C1162  1  0.243100  0.820800  0.906600  1.0
  C  C1163  1  0.815300  0.150600  0.078600  1.0
  C  C1164  1  0.184700  0.849400  0.921400  1.0
  C  C1165  1  0.791900  0.199200  0.040900  1.0
  C  C1166  1  0.208100  0.800800  0.959100  1.0
  C  C1167  1  0.846000  0.119000  0.087700  1.0
  C  C1168  1  0.154000  0.881000  0.912300  1.0
  C  C1169  1  0.775000  0.276400  0.966500  1.0
  C  C1170  1  0.225000  0.723600  0.033500  1.0
  C  C1171  1  0.771200  0.253200  0.998000  1.0
  C  C1172  1  0.228800  0.746800  0.002000  1.0
  C  C1173  1  0.796800  0.224100  0.006200  1.0
  C  C1174  1  0.203200  0.775900  0.993800  1.0
  C  C1175  1  0.827900  0.218900  0.981000  1.0
  C  C1176  1  0.172100  0.781100  0.019000  1.0
  C  C1177  1  0.829800  0.243600  0.947100  1.0
  C  C1178  1  0.170200  0.756400  0.052900  1.0
  C  C1179  1  0.618700  0.254700  0.224020  1.0
  C  C1180  1  0.381300  0.745300  0.775980  1.0
  C  C1181  1  0.629400  0.273250  0.247100  1.0
  C  C1182  1  0.370600  0.726750  0.752900  1.0
  C  C1183  1  0.649600  0.254800  0.273020  1.0
  C  C1184  1  0.350400  0.745200  0.726980  1.0
  C  C1185  1  0.659000  0.217500  0.275050  1.0
  C  C1186  1  0.341000  0.782500  0.724950  1.0
  C  C1187  1  0.647100  0.200650  0.251800  1.0
  C  C1188  1  0.352900  0.799350  0.748200  1.0
  C  C1189  1  0.660900  0.274900  0.298300  1.0
  C  C1190  1  0.339100  0.725100  0.701700  1.0
  C  C1191  1  0.687000  0.273800  0.346760  1.0
  C  C1192  1  0.313000  0.726200  0.653240  1.0
  C  C1193  1  0.661400  0.327900  0.316480  1.0
  C  C1194  1  0.338600  0.672100  0.683520  1.0
  C  C1195  1  0.705500  0.252800  0.377400  1.0
  C  C1196  1  0.294500  0.747200  0.622600  1.0
  C  C1197  1  0.623200  0.421800  0.283850  1.0
  C  C1198  1  0.376800  0.578200  0.716150  1.0
  C  C1199  1  0.634500  0.385900  0.286100  1.0
  C  C1200  1  0.365500  0.614100  0.713900  1.0
  C  C1201  1  0.652800  0.366600  0.312360  1.0
  C  C1202  1  0.347200  0.633400  0.687640  1.0
  C  C1203  1  0.659800  0.386000  0.335300  1.0
  C  C1204  1  0.340200  0.614000  0.664700  1.0
  C  C1205  1  0.649700  0.424000  0.331300  1.0
  C  C1206  1  0.350300  0.576000  0.668700  1.0
  C  C1207  1  0.666667  0.512300  0.239800  1.0
  C  C1208  1  0.333333  0.487700  0.760200  1.0
  C  C1209  1  0.698900  0.522700  0.219500  1.0
  C  C1210  1  0.301100  0.477300  0.780500  1.0
  C  C1211  1  0.723900  0.527800  0.236800  1.0
  C  C1212  1  0.276100  0.472200  0.763200  1.0
  C  C1213  1  0.719400  0.519000  0.274100  1.0
  C  C1214  1  0.280600  0.481000  0.725900  1.0
  C  C1215  1  0.686700  0.510300  0.292600  1.0
  C  C1216  1  0.313300  0.489700  0.707400  1.0
  C  C1217  1  0.771900  0.579700  0.067700  1.0
  C  C1218  1  0.228100  0.420300  0.932300  1.0
  C  C1219  1  0.768500  0.568400  0.103900  1.0
  C  C1220  1  0.231500  0.431600  0.896100  1.0
  C  C1221  1  0.794400  0.573400  0.122100  1.0
  C  C1222  1  0.205600  0.426600  0.877900  1.0
  C  C1223  1  0.823300  0.587700  0.104300  1.0
  C  C1224  1  0.176700  0.412300  0.895700  1.0
  C  C1225  1  0.824900  0.598300  0.067500  1.0
  C  C1226  1  0.175100  0.401700  0.932500  1.0
  C  C1227  1  0.579500  0.567400  0.272200  1.0
  C  C1228  1  0.420500  0.432600  0.727800  1.0
  C  C1229  1  0.568500  0.603700  0.268800  1.0
  C  C1230  1  0.431500  0.396300  0.731200  1.0
  C  C1231  1  0.572800  0.622600  0.294600  1.0
  C  C1232  1  0.427200  0.377400  0.705400  1.0
  C  C1233  1  0.586800  0.604300  0.322800  1.0
  C  C1234  1  0.413200  0.395700  0.677200  1.0
  C  C1235  1  0.598400  0.567900  0.324300  1.0
  C  C1236  1  0.401600  0.432100  0.675700  1.0
  C  C1237  1  0.513800  0.738500  0.166800  1.0
  C  C1238  1  0.486200  0.261500  0.833200  1.0
  C  C1239  1  0.524400  0.718800  0.197000  1.0
  C  C1240  1  0.475600  0.281200  0.803000  1.0
  C  C1241  1  0.527800  0.736500  0.224300  1.0
  C  C1242  1  0.472200  0.263500  0.775700  1.0
  C  C1243  1  0.518700  0.774700  0.219500  1.0
  C  C1244  1  0.481300  0.225300  0.780500  1.0
  C  C1245  1  0.510000  0.792400  0.186900  1.0
  C  C1246  1  0.490000  0.207600  0.813100  1.0
  C  C1247  1  0.567400  0.771800  0.078400  1.0
  C  C1248  1  0.432600  0.228200  0.921600  1.0
  C  C1249  1  0.604100  0.768400  0.068300  1.0
  C  C1250  1  0.395900  0.231600  0.931700  1.0
  C  C1251  1  0.622400  0.793900  0.073000  1.0
  C  C1252  1  0.377600  0.206100  0.927000  1.0
  C  C1253  1  0.603600  0.823200  0.087100  1.0
  C  C1254  1  0.396400  0.176800  0.912900  1.0
  C  C1255  1  0.566200  0.824200  0.098500  1.0
  C  C1256  1  0.433800  0.175800  0.901500  1.0
  C  C1257  1  0.739400  0.666900  0.012000  1.0
  C  C1258  1  0.260600  0.333100  0.988000  1.0
  C  C1259  1  0.719300  0.698400  0.023100  1.0
  C  C1260  1  0.280700  0.301600  0.976900  1.0
  C  C1261  1  0.737400  0.724000  0.027300  1.0
  C  C1262  1  0.262600  0.276000  0.972700  1.0
  C  C1263  1  0.774400  0.719500  0.019400  1.0
  C  C1264  1  0.225600  0.280500  0.980600  1.0
  C  C1265  1  0.792400  0.687500  0.009900  1.0
  C  C1266  1  0.207600  0.312500  0.990100  1.0
  C  C1267  1  0.563200  0.663300  0.290400  0.231
  C  C1268  1  0.436800  0.336700  0.709600  0.231
  C  C1269  1  0.592300  0.713200  0.293900  0.231
  C  C1270  1  0.407700  0.286800  0.706100  0.231
  C  C1271  1  0.547600  0.721900  0.254600  0.231
  C  C1272  1  0.452400  0.278100  0.745400  0.231
  C  C1273  1  0.615800  0.739200  0.299000  0.231
  C  C1274  1  0.384200  0.260800  0.701000  0.231
  C  C1275  1  0.712600  0.004800  0.815100  0.26
  C  C1276  1  0.287400  0.995200  0.184900  0.26
  C  C1277  1  0.714000  0.978500  0.877800  0.26
  C  C1278  1  0.286000  0.021500  0.122200  0.26
  C  C1279  1  0.754000  0.949800  0.830400  0.26
  C  C1280  1  0.246000  0.050200  0.169600  0.26
  C  C1281  1  0.699600  0.980600  0.914200  0.26
  C  C1282  1  0.300400  0.019400  0.085800  0.26
  C  C1283  1  0.562200  0.104900  0.094700  0.32
  C  C1284  1  0.437800  0.895100  0.905300  0.32
  C  C1285  1  0.570700  0.053300  0.064000  0.32
  C  C1286  1  0.429300  0.946700  0.936000  0.32
  C  C1287  1  0.545900  0.112600  0.035200  0.32
  C  C1288  1  0.454100  0.887400  0.964800  0.32
  C  C1289  1  0.576500  0.018500  0.059000  0.32
  C  C1290  1  0.423500  0.981500  0.941000  0.32
  C  C1291  1  0.115700  0.612700  0.533500  0.329
  C  C1292  1  0.884300  0.387300  0.466500  0.329
  C  C1293  1  0.076700  0.572500  0.526000  0.329
  C  C1294  1  0.923300  0.427500  0.474000  0.329
  C  C1295  1  0.083800  0.626600  0.482300  0.329
  C  C1296  1  0.916200  0.373400  0.517700  0.329
  C  C1297  1  0.065400  0.538400  0.548900  0.329
  C  C1298  1  0.934600  0.461600  0.451100  0.329
  C  C1299  1  0.018800  0.921900  0.880600  0.33
  C  C1300  1  0.981200  0.078100  0.119400  0.33
  C  C1301  1  0.967300  0.918800  0.928500  0.33
  C  C1302  1  0.032700  0.081200  0.071500  0.33
  C  C1303  1  0.975200  0.883400  0.880500  0.33
  C  C1304  1  0.024800  0.116600  0.119500  0.33
  C  C1305  1  0.953600  0.932800  0.961600  0.33
  C  C1306  1  0.046400  0.067200  0.038400  0.33
  C  C1307  1  0.624700  0.981500  0.587200  0.35
  C  C1308  1  0.375300  0.018500  0.412800  0.35
  C  C1309  1  0.569700  0.024400  0.582200  0.35
  C  C1310  1  0.430300  0.975600  0.417800  0.35
  C  C1311  1  0.615100  0.036600  0.612600  0.35
  C  C1312  1  0.384900  0.963400  0.387400  0.35
  C  C1313  1  0.532500  0.047300  0.573600  0.35
  C  C1314  1  0.467500  0.952700  0.426400  0.35
  C  C1315  1  0.994300  0.685800  0.781100  0.38
  C  C1316  1  0.005700  0.314200  0.218900  0.38
  C  C1317  1  0.023900  0.623800  0.793700  0.38
  C  C1318  1  0.976100  0.376200  0.206300  0.38
  C  C1319  1  0.050800  0.665300  0.744300  0.38
  C  C1320  1  0.949200  0.334700  0.255700  0.38
  C  C1321  1  0.023300  0.590400  0.819500  0.38
  C  C1322  1  0.976700  0.409600  0.180500  0.38
  C  C1323  1  0.755500  0.542600  0.213700  0.39
  C  C1324  1  0.244500  0.457400  0.786300  0.39
  C  C1325  1  0.801900  0.575000  0.220200  0.39
  C  C1326  1  0.198100  0.425000  0.779800  0.39
  C  C1327  1  0.793700  0.568400  0.160600  0.39
  C  C1328  1  0.206300  0.431600  0.839400  0.39
  C  C1329  1  0.824600  0.585700  0.239300  0.39
  C  C1330  1  0.175400  0.414300  0.760700  0.39
  C  C1331  1  0.660700  0.791300  0.056500  0.42
  C  C1332  1  0.339300  0.208700  0.943500  0.42
  C  C1333  1  0.712100  0.823100  0.040300  0.42
  C  C1334  1  0.287900  0.176900  0.959700  0.42
  C  C1335  1  0.720500  0.759100  0.037900  0.42
  C  C1336  1  0.279500  0.240900  0.962100  0.42
  C  C1337  1  0.731600  0.852600  0.030600  0.42
  C  C1338  1  0.268400  0.147400  0.969400  0.42
  C  C1339  1  0.334100  0.751100  0.447200  0.57
  C  C1340  1  0.665900  0.248900  0.552800  0.57
  C  C1341  1  0.375300  0.699500  0.471000  0.57
  C  C1342  1  0.624700  0.300500  0.529000  0.57
  C  C1343  1  0.313700  0.711700  0.501900  0.57
  C  C1344  1  0.686300  0.288300  0.498100  0.57
  C  C1345  1  0.409300  0.672600  0.471800  0.57
  C  C1346  1  0.590700  0.327400  0.528200  0.57
  C  C1347  1  0.405100  0.440800  0.391600  0.57
  C  C1348  1  0.594900  0.559200  0.608400  0.57
  C  C1349  1  0.429800  0.439700  0.445700  0.57
  C  C1350  1  0.570200  0.560300  0.554300  0.57
  C  C1351  1  0.463400  0.459000  0.386900  0.57
  C  C1352  1  0.536600  0.541000  0.613100  0.57
  C  C1353  1  0.421000  0.434100  0.488100  0.57
  C  C1354  1  0.579000  0.565900  0.511900  0.57
  C  C1355  1  0.660600  0.791800  0.064300  0.58
  C  C1356  1  0.339400  0.208200  0.935700  0.58
  C  C1357  1  0.718500  0.807200  0.067300  0.58
  C  C1358  1  0.281500  0.192800  0.932700  0.58
  C  C1359  1  0.716000  0.755100  0.040900  0.58
  C  C1360  1  0.284000  0.244900  0.959100  0.58
  C  C1361  1  0.735100  0.838600  0.072400  0.58
  C  C1362  1  0.264900  0.161400  0.927600  0.58
  C  C1363  1  0.757600  0.539000  0.220900  0.61
  C  C1364  1  0.242400  0.461000  0.779100  0.61
  C  C1365  1  0.818600  0.551000  0.215000  0.61
  C  C1366  1  0.181400  0.449000  0.785000  0.61
  C  C1367  1  0.789900  0.560100  0.162000  0.61
  C  C1368  1  0.210100  0.439900  0.838000  0.61
  C  C1369  1  0.846100  0.553000  0.234300  0.61
  C  C1370  1  0.153900  0.447000  0.765700  0.61
  C  C1371  1  0.002000  0.692800  0.787800  0.62
  C  C1372  1  0.998000  0.307200  0.212200  0.62
  C  C1373  1  0.034500  0.635900  0.813800  0.62
  C  C1374  1  0.965500  0.364100  0.186200  0.62
  C  C1375  1  0.058200  0.666000  0.754700  0.62
  C  C1376  1  0.941800  0.334000  0.245300  0.62
  C  C1377  1  0.038300  0.603000  0.845300  0.62
  C  C1378  1  0.961700  0.397000  0.154700  0.62
  C  C1379  1  0.618300  0.974500  0.591300  0.65
  C  C1380  1  0.381700  0.025500  0.408700  0.65
  C  C1381  1  0.561400  0.009800  0.613200  0.65
  C  C1382  1  0.438600  0.990200  0.386800  0.65
  C  C1383  1  0.617600  0.024500  0.622100  0.65
  C  C1384  1  0.382400  0.975500  0.377900  0.65
  C  C1385  1  0.522300  0.015700  0.611600  0.65
  C  C1386  1  0.477700  0.984300  0.388400  0.65
  C  C1387  1  0.023500  0.907600  0.878300  0.67
  C  C1388  1  0.976500  0.092400  0.121700  0.67
  C  C1389  1  0.991900  0.887900  0.938000  0.67
  C  C1390  1  0.008100  0.112100  0.062000  0.67
  C  C1391  1  0.971700  0.877500  0.885100  0.67
  C  C1392  1  0.028300  0.122500  0.114900  0.67
  C  C1393  1  0.981800  0.886100  0.978200  0.67
  C  C1394  1  0.018200  0.113900  0.021800  0.67
  C  C1395  1  0.122000  0.618400  0.525100  0.671
  C  C1396  1  0.878000  0.381600  0.474900  0.671
  C  C1397  1  0.113100  0.562600  0.509300  0.671
  C  C1398  1  0.886900  0.437400  0.490700  0.671
  C  C1399  1  0.090900  0.620100  0.475100  0.671
  C  C1400  1  0.909100  0.379900  0.524900  0.671
  C  C1401  1  0.115700  0.521900  0.515600  0.671
  C  C1402  1  0.884300  0.478100  0.484400  0.671
  C  C1403  1  0.556700  0.111900  0.092200  0.68
  C  C1404  1  0.443300  0.888100  0.907800  0.68
  C  C1405  1  0.544700  0.055800  0.080000  0.68
  C  C1406  1  0.455300  0.944200  0.920000  0.68
  C  C1407  1  0.536600  0.110400  0.036200  0.68
  C  C1408  1  0.463400  0.889600  0.963800  0.68
  C  C1409  1  0.546000  0.016900  0.087700  0.68
  C  C1410  1  0.454000  0.983100  0.912300  0.68
  C  C1411  1  0.714300  0.000100  0.809400  0.74
  C  C1412  1  0.285700  0.999900  0.190600  0.74
  C  C1413  1  0.689400  0.967700  0.866800  0.74
  C  C1414  1  0.310600  0.032300  0.133200  0.74
  C  C1415  1  0.747600  0.943500  0.835200  0.74
  C  C1416  1  0.252400  0.056500  0.164800  0.74
  C  C1417  1  0.661100  0.963600  0.897700  0.74
  C  C1418  1  0.338900  0.036400  0.102300  0.74
  C  C1419  1  0.563100  0.660560  0.290800  0.769
  C  C1420  1  0.436900  0.339440  0.709200  0.769
  C  C1421  1  0.554400  0.716400  0.314800  0.769
  C  C1422  1  0.445600  0.283600  0.685200  0.769
  C  C1423  1  0.539900  0.717100  0.255600  0.769
  C  C1424  1  0.460100  0.282900  0.744400  0.769
  C  C1425  1  0.556600  0.734000  0.345100  0.769
  C  C1426  1  0.443400  0.266000  0.654900  0.769
  N  N1427  1  0.636700  0.003900  0.605800  0.35
  N  N1428  1  0.363300  0.996100  0.394200  0.35
  N  N1429  1  0.591200  0.991800  0.575400  0.35
  N  N1430  1  0.408800  0.008200  0.424600  0.35
  N  N1431  1  0.581600  0.046900  0.600900  0.35
  N  N1432  1  0.418400  0.953100  0.399100  0.35
  N  N1433  1  0.999500  0.894100  0.862900  0.67
  N  N1434  1  0.000500  0.105900  0.137100  0.67
  N  N1435  1  0.019700  0.904500  0.915800  0.67
  N  N1436  1  0.980300  0.095500  0.084200  0.67
  N  N1437  1  0.967900  0.874400  0.922600  0.67
  N  N1438  1  0.032100  0.125600  0.077400  0.67
  N  N1439  1  0.699460  0.087730  0.726070  1.0
  N  N1440  1  0.300540  0.912270  0.273930  1.0
  N  N1441  1  0.834600  0.857200  0.817500  1.0
  N  N1442  1  0.165400  0.142800  0.182500  1.0
  N  N1443  1  0.684500  0.888920  0.545640  1.0
  N  N1444  1  0.315500  0.111080  0.454360  1.0
  N  N1445  1  0.667000  0.095140  0.663040  1.0
  N  N1446  1  0.333000  0.904860  0.336960  1.0
  N  N1447  1  0.722320  0.821440  0.576230  1.0
  N  N1448  1  0.277680  0.178560  0.423770  1.0
  N  N1449  1  0.760090  0.781810  0.699730  1.0
  N  N1450  1  0.239910  0.218190  0.300270  1.0
  N  N1451  1  0.708530  0.753810  0.703640  1.0
  N  N1452  1  0.291470  0.246190  0.296360  1.0
  N  N1453  1  0.738050  0.747180  0.754090  1.0
  N  N1454  1  0.261950  0.252820  0.245910  1.0
  N  N1455  1  0.839500  0.797140  0.784500  1.0
  N  N1456  1  0.160500  0.202860  0.215500  1.0
  N  N1457  1  0.912380  0.774000  0.800590  1.0
  N  N1458  1  0.087620  0.226000  0.199410  1.0
  N  N1459  1  0.143500  0.681780  0.664970  1.0
  N  N1460  1  0.856500  0.318220  0.335030  1.0
  N  N1461  1  0.111100  0.954680  0.815310  1.0
  N  N1462  1  0.888900  0.045320  0.184690  1.0
  N  N1463  1  0.905450  0.836620  0.832700  1.0
  N  N1464  1  0.094550  0.163380  0.167300  1.0
  N  N1465  1  0.202390  0.715600  0.660790  1.0
  N  N1466  1  0.797610  0.284400  0.339210  1.0
  N  N1467  1  0.218740  0.800650  0.739640  1.0
  N  N1468  1  0.781260  0.199350  0.260360  1.0
  N  N1469  1  0.253030  0.745630  0.761120  1.0
  N  N1470  1  0.746970  0.254370  0.238880  1.0
  N  N1471  1  0.246270  0.796800  0.790940  1.0
  N  N1472  1  0.753730  0.203200  0.209060  1.0
  N  N1473  1  0.178040  0.923810  0.777520  1.0
  N  N1474  1  0.821960  0.076190  0.222480  1.0
  N  N1475  1  0.163110  0.667100  0.595030  1.0
  N  N1476  1  0.836890  0.332900  0.404970  1.0
  N  N1477  1  0.045600  0.685000  0.389080  1.0
  N  N1478  1  0.954400  0.315000  0.610920  1.0
  N  N1479  1  0.317560  0.835100  0.356700  1.0
  N  N1480  1  0.682440  0.164900  0.643300  1.0
  N  N1481  1  0.226130  0.700200  0.587580  1.0
  N  N1482  1  0.773870  0.299800  0.412420  1.0
  N  N1483  1  0.075670  0.722240  0.321720  1.0
  N  N1484  1  0.924330  0.277760  0.678280  1.0
  N  N1485  1  0.199590  0.759880  0.282220  1.0
  N  N1486  1  0.800410  0.240120  0.717780  1.0
  N  N1487  1  0.203300  0.709090  0.253700  1.0
  N  N1488  1  0.796700  0.290910  0.746300  1.0
  N  N1489  1  0.254450  0.738450  0.246650  1.0
  N  N1490  1  0.745550  0.261550  0.753350  1.0
  N  N1491  1  0.284360  0.839900  0.296900  1.0
  N  N1492  1  0.715640  0.160100  0.703100  1.0
  N  N1493  1  0.974110  0.708900  0.371340  1.0
  N  N1494  1  0.025890  0.291100  0.628660  1.0
  N  N1495  1  0.848050  0.723870  0.439340  1.0
  N  N1496  1  0.151950  0.276130  0.560660  1.0
  N  N1497  1  0.856380  0.664860  0.421600  1.0
  N  N1498  1  0.143620  0.335140  0.578400  1.0
  N  N1499  1  0.799660  0.688200  0.456400  1.0
  N  N1500  1  0.200340  0.311800  0.543600  1.0
  N  N1501  1  0.747900  0.803690  0.504900  1.0
  N  N1502  1  0.252100  0.196310  0.495100  1.0
  N  N1503  1  0.803830  0.004520  0.247430  1.0
  N  N1504  1  0.196170  0.995480  0.752570  1.0
  N  N1505  1  0.724060  0.939510  0.348380  1.0
  N  N1506  1  0.275940  0.060490  0.651620  1.0
  N  N1507  1  0.688500  0.956200  0.299910  1.0
  N  N1508  1  0.311500  0.043800  0.700090  1.0
  N  N1509  1  0.664790  0.922300  0.357000  1.0
  N  N1510  1  0.335210  0.077700  0.643000  1.0
  N  N1511  1  0.709000  0.870980  0.474540  1.0
  N  N1512  1  0.291000  0.129020  0.525460  1.0
  N  N1513  1  0.004430  0.747800  0.303690  1.0
  N  N1514  1  0.995570  0.252200  0.696310  1.0
  N  N1515  1  0.939910  0.848210  0.223820  1.0
  N  N1516  1  0.060090  0.151790  0.776180  1.0
  N  N1517  1  0.957400  0.799930  0.188000  1.0
  N  N1518  1  0.042600  0.200070  0.812000  1.0
  N  N1519  1  0.920700  0.855800  0.165630  1.0
  N  N1520  1  0.079300  0.144200  0.834370  1.0
  N  N1521  1  0.871340  0.974510  0.208870  1.0
  N  N1522  1  0.128660  0.025490  0.791130  1.0
  N  N1523  1  0.218620  0.727280  0.127040  1.0
  N  N1524  1  0.781380  0.272720  0.872960  1.0
  N  N1525  1  0.310550  0.792970  0.152640  1.0
  N  N1526  1  0.689450  0.207030  0.847360  1.0
  N  N1527  1  0.254930  0.824380  0.178710  1.0
  N  N1528  1  0.745070  0.175620  0.821290  1.0
  N  N1529  1  0.309940  0.844530  0.178640  1.0
  N  N1530  1  0.690060  0.155470  0.821360  1.0
  N  N1531  1  0.441310  0.806580  0.130530  1.0
  N  N1532  1  0.558690  0.193420  0.869470  1.0
  N  N1533  1  0.271750  0.440450  0.304400  1.0
  N  N1534  1  0.728250  0.559550  0.695600  1.0
  N  N1535  1  0.203310  0.561930  0.260470  1.0
  N  N1536  1  0.796690  0.438070  0.739530  1.0
  N  N1537  1  0.173900  0.549040  0.321320  1.0
  N  N1538  1  0.826100  0.450960  0.678680  1.0
  N  N1539  1  0.152690  0.603440  0.283900  1.0
  N  N1540  1  0.847310  0.396560  0.716100  1.0
  N  N1541  1  0.186950  0.663250  0.156070  1.0
  N  N1542  1  0.813050  0.336750  0.843930  1.0
  N  N1543  1  0.164850  0.663620  0.089390  1.0
  N  N1544  1  0.835150  0.336380  0.910610  1.0
  N  N1545  1  0.129960  0.560800  0.047770  1.0
  N  N1546  1  0.870040  0.439200  0.952230  1.0
  N  N1547  1  0.073250  0.601290  0.058000  1.0
  N  N1548  1  0.926750  0.398710  0.942000  1.0
  N  N1549  1  0.074250  0.542920  0.041500  1.0
  N  N1550  1  0.925750  0.457080  0.958500  1.0
  N  N1551  1  0.168990  0.436100  0.015000  1.0
  N  N1552  1  0.831010  0.563900  0.985000  1.0
  N  N1553  1  0.193370  0.369810  0.058590  1.0
  N  N1554  1  0.806630  0.630190  0.941410  1.0
  N  N1555  1  0.207060  0.347760  0.189720  1.0
  N  N1556  1  0.792940  0.652240  0.810280  1.0
  N  N1557  1  0.155950  0.320830  0.190270  1.0
  N  N1558  1  0.844050  0.679170  0.809730  1.0
  N  N1559  1  0.175880  0.321600  0.246030  1.0
  N  N1560  1  0.824120  0.678400  0.753970  1.0
  N  N1561  1  0.272340  0.373280  0.281570  1.0
  N  N1562  1  0.727660  0.626720  0.718430  1.0
  N  N1563  1  0.336430  0.410570  0.334980  1.0
  N  N1564  1  0.663570  0.589430  0.665020  1.0
  N  N1565  1  0.563950  0.485000  0.331170  1.0
  N  N1566  1  0.436050  0.515000  0.668830  1.0
  N  N1567  1  0.559790  0.195240  0.228740  1.0
  N  N1568  1  0.440210  0.804760  0.771260  1.0
  N  N1569  1  0.438100  0.240000  0.296510  1.0
  N  N1570  1  0.561900  0.760000  0.703490  1.0
  N  N1571  1  0.452200  0.178840  0.326000  1.0
  N  N1572  1  0.547800  0.821160  0.674000  1.0
  N  N1573  1  0.397130  0.215800  0.347400  1.0
  N  N1574  1  0.602870  0.784200  0.652600  1.0
  N  N1575  1  0.337420  0.343640  0.311790  1.0
  N  N1576  1  0.662580  0.656360  0.688210  1.0
  N  N1577  1  0.589640  0.164940  0.163740  1.0
  N  N1578  1  0.410360  0.835060  0.836260  1.0
  N  N1579  1  0.515070  0.169140  0.936020  1.0
  N  N1580  1  0.484930  0.830860  0.063980  1.0
  N  N1581  1  0.656430  0.187640  0.163060  1.0
  N  N1582  1  0.343570  0.812360  0.836940  1.0
  N  N1583  1  0.760670  0.203830  0.061680  1.0
  N  N1584  1  0.239330  0.796170  0.938320  1.0
  N  N1585  1  0.783600  0.152500  0.102630  1.0
  N  N1586  1  0.216400  0.847500  0.897370  1.0
  N  N1587  1  0.822000  0.174000  0.048270  1.0
  N  N1588  1  0.178000  0.826000  0.951730  1.0
  N  N1589  1  0.804110  0.272270  0.939970  1.0
  N  N1590  1  0.195890  0.727730  0.060030  1.0
  N  N1591  1  0.626330  0.218260  0.227490  1.0
  N  N1592  1  0.373670  0.781740  0.772510  1.0
  N  N1593  1  0.652300  0.310580  0.293290  1.0
  N  N1594  1  0.347700  0.689420  0.706710  1.0
  N  N1595  1  0.678260  0.254200  0.324570  1.0
  N  N1596  1  0.321740  0.745800  0.675430  1.0
  N  N1597  1  0.678800  0.309980  0.343800  1.0
  N  N1598  1  0.321200  0.690020  0.656200  1.0
  N  N1599  1  0.630280  0.441370  0.306800  1.0
  N  N1600  1  0.369720  0.558630  0.693200  1.0
  N  N1601  1  0.660610  0.505980  0.275950  1.0
  N  N1602  1  0.339390  0.494020  0.724050  1.0
  N  N1603  1  0.800180  0.593700  0.048820  1.0
  N  N1604  1  0.199820  0.406300  0.951180  1.0
  N  N1605  1  0.594470  0.548480  0.299770  1.0
  N  N1606  1  0.405530  0.451520  0.700230  1.0
  N  N1607  1  0.505850  0.775390  0.160890  1.0
  N  N1608  1  0.494150  0.224610  0.839110  1.0
  N  N1609  1  0.548840  0.800200  0.094210  1.0
  N  N1610  1  0.451160  0.199800  0.905790  1.0
  N  N1611  1  0.775230  0.660970  0.006200  1.0
  N  N1612  1  0.224770  0.339030  0.993800  1.0
  N  N1613  1  0.543100  0.685700  0.265400  0.231
  N  N1614  1  0.456900  0.314300  0.734600  0.231
  N  N1615  1  0.587800  0.677000  0.304600  0.231
  N  N1616  1  0.412200  0.323000  0.695400  0.231
  N  N1617  1  0.572200  0.735600  0.268900  0.231
  N  N1618  1  0.427800  0.264400  0.731100  0.231
  N  N1619  1  0.739700  0.976900  0.804400  0.26
  N  N1620  1  0.260300  0.023100  0.195600  0.26
  N  N1621  1  0.699800  0.005600  0.851800  0.26
  N  N1622  1  0.300200  0.994400  0.148200  0.26
  N  N1623  1  0.741100  0.950600  0.867100  0.26
  N  N1624  1  0.258900  0.049400  0.132900  0.26
  N  N1625  1  0.548500  0.127300  0.065300  0.32
  N  N1626  1  0.451500  0.872700  0.934700  0.32
  N  N1627  1  0.573300  0.068000  0.094100  0.32
  N  N1628  1  0.426700  0.932000  0.905900  0.32
  N  N1629  1  0.557000  0.075700  0.034500  0.32
  N  N1630  1  0.443000  0.924300  0.965500  0.32
  N  N1631  1  0.006900  0.897300  0.864500  0.33
  N  N1632  1  0.993100  0.102700  0.135500  0.33
  N  N1633  1  0.999000  0.932600  0.912600  0.33
  N  N1634  1  0.001000  0.067400  0.087400  0.33
  N  N1635  1  0.955400  0.894200  0.912400  0.33
  N  N1636  1  0.044600  0.105800  0.087600  0.33
  N  N1637  1  0.022100  0.692800  0.752400  0.38
  N  N1638  1  0.977900  0.307200  0.247600  0.38
  N  N1639  1  0.995200  0.651300  0.801700  0.38
  N  N1640  1  0.004800  0.348700  0.198300  0.38
  N  N1641  1  0.051700  0.630800  0.765000  0.38
  N  N1642  1  0.948300  0.369200  0.235000  0.38
  N  N1643  1  0.765500  0.549000  0.176100  0.39
  N  N1644  1  0.234500  0.451000  0.823900  0.39
  N  N1645  1  0.773700  0.555600  0.235700  0.39
  N  N1646  1  0.226300  0.444400  0.764300  0.39
  N  N1647  1  0.811900  0.581400  0.182700  0.39
  N  N1648  1  0.188100  0.418600  0.817300  0.39
  N  N1649  1  0.683400  0.759300  0.049500  0.42
  N  N1650  1  0.316600  0.240700  0.950500  0.42
  N  N1651  1  0.675100  0.823300  0.051900  0.42
  N  N1652  1  0.324900  0.176700  0.948100  0.42
  N  N1653  1  0.734800  0.791000  0.033300  0.42
  N  N1654  1  0.265200  0.209000  0.966700  0.42
  N  N1655  1  0.306800  0.747300  0.470500  0.43
  N  N1656  1  0.693200  0.252700  0.529500  0.43
  N  N1657  1  0.354800  0.711500  0.435100  0.43
  N  N1658  1  0.645200  0.288500  0.564900  0.43
  N  N1659  1  0.336100  0.689700  0.498500  0.43
  N  N1660  1  0.663900  0.310300  0.501500  0.43
  N  N1661  1  0.444600  0.449600  0.372200  0.43
  N  N1662  1  0.555400  0.550400  0.627800  0.43
  N  N1663  1  0.394100  0.453100  0.421300  0.43
  N  N1664  1  0.605900  0.546900  0.578700  0.43
  N  N1665  1  0.450400  0.470500  0.426600  0.43
  N  N1666  1  0.549600  0.529500  0.573400  0.43
  N  N1667  1  0.306800  0.742000  0.475700  0.57
  N  N1668  1  0.693200  0.258000  0.524300  0.57
  N  N1669  1  0.368300  0.729900  0.444800  0.57
  N  N1670  1  0.631700  0.270100  0.555200  0.57
  N  N1671  1  0.348000  0.690400  0.499500  0.57
  N  N1672  1  0.652000  0.309600  0.500500  0.57
  N  N1673  1  0.435700  0.453300  0.370500  0.57
  N  N1674  1  0.564300  0.546700  0.629500  0.57
  N  N1675  1  0.402100  0.434000  0.429300  0.57
  N  N1676  1  0.597900  0.566000  0.570700  0.57
  N  N1677  1  0.460500  0.452200  0.424600  0.57
  N  N1678  1  0.539500  0.547800  0.575400  0.57
  N  N1679  1  0.678200  0.762200  0.047700  0.58
  N  N1680  1  0.321800  0.237800  0.952300  0.58
  N  N1681  1  0.680700  0.814300  0.074000  0.58
  N  N1682  1  0.319300  0.185700  0.926000  0.58
  N  N1683  1  0.736100  0.777600  0.050700  0.58
  N  N1684  1  0.263900  0.222400  0.949300  0.58
  N  N1685  1  0.758800  0.549100  0.183600  0.61
  N  N1686  1  0.241200  0.450900  0.816400  0.61
  N  N1687  1  0.787500  0.540000  0.236600  0.61
  N  N1688  1  0.212500  0.460000  0.763400  0.61
  N  N1689  1  0.819800  0.561000  0.177700  0.61
  N  N1690  1  0.180200  0.439000  0.822300  0.61
  N  N1691  1  0.028600  0.693900  0.757000  0.62
  N  N1692  1  0.971400  0.306100  0.243000  0.62
  N  N1693  1  0.004900  0.663800  0.816100  0.62
  N  N1694  1  0.995100  0.336200  0.183900  0.62
  N  N1695  1  0.061100  0.637000  0.783000  0.62
  N  N1696  1  0.938900  0.363000  0.217000  0.62
  N  N1697  1  0.636800  0.996000  0.604500  0.65
  N  N1698  1  0.363200  0.004000  0.395500  0.65
  N  N1699  1  0.580600  0.981300  0.595700  0.65
  N  N1700  1  0.419400  0.018700  0.404300  0.65
  N  N1701  1  0.579900  0.031300  0.626500  0.65
  N  N1702  1  0.420100  0.968700  0.373500  0.65
  N  N1703  1  0.547300  0.129600  0.058900  0.68
  N  N1704  1  0.452700  0.870400  0.941100  0.68
  N  N1705  1  0.555400  0.075000  0.102700  0.68
  N  N1706  1  0.444600  0.925000  0.897300  0.68
  N  N1707  1  0.535200  0.073500  0.046700  0.68
  N  N1708  1  0.464800  0.926500  0.953300  0.68
  N  N1709  1  0.744800  0.973200  0.807400  0.74
  N  N1710  1  0.255200  0.026800  0.192600  0.74
  N  N1711  1  0.686600  0.997300  0.839100  0.74
  N  N1712  1  0.313400  0.002700  0.160900  0.74
  N  N1713  1  0.719900  0.940800  0.864900  0.74
  N  N1714  1  0.280100  0.059200  0.135100  0.74
  N  N1715  1  0.107500  0.635400  0.501800  0.329
  N  N1716  1  0.892500  0.364600  0.498200  0.329
  N  N1717  1  0.100300  0.581200  0.545600  0.329
  N  N1718  1  0.899700  0.418800  0.454400  0.329
  N  N1719  1  0.068400  0.595200  0.494400  0.329
  N  N1720  1  0.931600  0.404800  0.505600  0.329
  N  N1721  1  0.104200  0.638100  0.497000  0.671
  N  N1722  1  0.895800  0.361900  0.503000  0.671
  N  N1723  1  0.126500  0.580700  0.531300  0.671
  N  N1724  1  0.873500  0.419300  0.468700  0.671
  N  N1725  1  0.095400  0.582400  0.481200  0.671
  N  N1726  1  0.904600  0.417600  0.518800  0.671
  N  N1727  1  0.550500  0.679600  0.259400  0.769
  N  N1728  1  0.449500  0.320400  0.740600  0.769
  N  N1729  1  0.565100  0.679000  0.318500  0.769
  N  N1730  1  0.434900  0.321000  0.681500  0.769
  N  N1731  1  0.541800  0.735480  0.283300  0.769
  N  N1732  1  0.458200  0.264520  0.716700  0.769
  O  O1733  1  0.282700  0.862800  0.696800  1.0
  O  O1734  1  0.717300  0.137200  0.303200  1.0
  O  O1735  1  0.818200  0.721600  0.633700  1.0
  O  O1736  1  0.181800  0.278400  0.366300  1.0
  O  O1737  1  0.314800  0.569900  0.195200  1.0
  O  O1738  1  0.685200  0.430100  0.804800  1.0
  O  O1739  1  0.827300  0.994400  0.725000  1.0
  O  O1740  1  0.172700  0.005600  0.275000  1.0
  O  O1741  1  0.135300  0.823000  0.221600  1.0
  O  O1742  1  0.864700  0.177000  0.778400  1.0
  O  O1743  1  0.232300  0.830400  0.492000  1.0
  O  O1744  1  0.767700  0.169600  0.508000  1.0
  O  O1745  1  0.310000  0.344300  0.429900  1.0
  O  O1746  1  0.690000  0.655700  0.570100  1.0
  O  O1747  1  0.620600  0.404300  0.424100  1.0
  O  O1748  1  0.379400  0.595700  0.575900  1.0
  O  O1749  1  0.323400  0.659500  0.307100  0.4
  O  O1750  1  0.676600  0.340500  0.692900  0.4
  O  O1751  1  0.644900  0.731700  0.168900  0.4
  O  O1752  1  0.355100  0.268300  0.831100  0.4
  O  O1753  1  0.743300  0.834400  0.364500  0.4
  O  O1754  1  0.256700  0.165600  0.635500  0.4
  O  O1755  1  0.851400  0.455400  0.183800  0.4
  O  O1756  1  0.148600  0.544600  0.816200  0.4
  O  O1757  1  0.639600  0.129200  0.010300  0.4
  O  O1758  1  0.360400  0.870800  0.989700  0.4
  O  O1759  1  0.436000  0.334000  0.388000  0.4
  O  O1760  1  0.564000  0.666000  0.612000  0.4
  O  O1761  1  0.571600  0.932300  0.483200  0.4
  O  O1762  1  0.428400  0.067700  0.516800  0.4
  O  O1763  1  0.939800  0.944200  0.565100  0.4
  O  O1764  1  0.060200  0.055800  0.434900  0.4
  O  O1765  1  0.659700  0.589400  0.140300  0.5
  O  O1766  1  0.340300  0.410600  0.859700  0.5
  O  O1767  1  0.313300  0.278800  0.567300  0.5
  O  O1768  1  0.686700  0.721200  0.432700  0.5
  O  O1769  1  0.647000  0.684400  0.114400  0.5
  O  O1770  1  0.353000  0.315600  0.885600  0.5
  O  O1771  1  0.549100  0.302200  0.032400  0.5
  O  O1772  1  0.450900  0.697800  0.967600  0.5
  O  O1773  1  0.691400  0.511300  0.124400  0.5
  O  O1774  1  0.308600  0.488700  0.875600  0.5
  O  O1775  1  0.679900  0.625700  0.261300  0.5
  O  O1776  1  0.320100  0.374300  0.738700  0.5
  O  O1777  1  0.861100  0.737000  0.336800  0.5
  O  O1778  1  0.138900  0.263000  0.663200  0.5
  O  O1779  1  0.236900  0.819400  0.066800  0.5
  O  O1780  1  0.763100  0.180600  0.933200  0.5
  O  O1781  1  0.809400  0.779100  0.283500  0.5
  O  O1782  1  0.190600  0.220900  0.716500  0.5
  O  O1783  1  0.404600  0.525500  0.072800  0.5
  O  O1784  1  0.595400  0.474500  0.927200  0.5
  O  O1785  1  0.261400  0.629000  0.757000  0.5
  O  O1786  1  0.738600  0.371000  0.243000  0.5
  O  O1787  1  0.989600  0.769700  0.660100  0.7
  O  O1788  1  0.010400  0.230300  0.339900  0.7
  O  O1789  1  0.645400  0.399000  0.186200  0.7
  O  O1790  1  0.354600  0.601000  0.813800  0.7
  O  O1791  1  0.851100  0.719100  0.282100  0.7
  O  O1792  1  0.148900  0.280900  0.717900  0.7
  O  O1793  1  0.702100  0.062300  0.517300  0.7
  O  O1794  1  0.297900  0.937700  0.482700  0.7
  O  O1795  1  0.117300  0.820700  0.827600  0.7
  O  O1796  1  0.882700  0.179300  0.172400  0.7
  O  O1797  1  0.989500  0.904900  0.287700  0.7
  O  O1798  1  0.010500  0.095100  0.712300  0.7
  O  O1799  1  0.320600  0.700700  0.337800  0.7
  O  O1800  1  0.679400  0.299300  0.662200  0.7
  O  O1801  1  0.745000  0.654700  0.124300  0.7
  O  O1802  1  0.255000  0.345300  0.875700  0.7
  O  O1803  1  0.799400  0.963600  0.696200  0.7
  O  O1804  1  0.200600  0.036400  0.303800  0.7
  O  O1805  1  0.084400  0.756600  0.488300  0.7
  O  O1806  1  0.915600  0.243400  0.511700  0.7
  O  O1807  1  0.435000  0.301800  0.190100  0.8
  O  O1808  1  0.565000  0.698200  0.809900  0.8
  O  O1809  1  0.254900  0.590400  0.770000  0.8
  O  O1810  1  0.745100  0.409600  0.230000  0.8
  O  O1811  1  0.732200  0.741500  0.916000  0.8
  O  O1812  1  0.267800  0.258500  0.084000  0.8
  O  O1813  1  0.239600  0.547700  0.016000  0.8
  O  O1814  1  0.760400  0.452300  0.984000  0.8
  O  O1815  1  0.623000  0.701700  0.993500  0.8
  O  O1816  1  0.377000  0.298300  0.006500  0.8
  O  O1817  1  0.740700  0.015600  0.543100  0.8
  O  O1818  1  0.259300  0.984400  0.456900  0.8
  O  O1819  1  0.673200  0.306700  0.101700  0.8
  O  O1820  1  0.326800  0.693300  0.898300  0.8
  O  O1821  1  0.746100  0.976600  0.604000  0.8
  O  O1822  1  0.253900  0.023400  0.396000  0.8
  O  O1823  1  0.274800  0.871400  0.658900  0.8
  O  O1824  1  0.725200  0.128600  0.341100  0.8
  O  O1825  1  0.362200  0.679300  0.136900  0.8
  O  O1826  1  0.637800  0.320700  0.863100  0.8
  O  O1827  1  0.318600  0.363100  0.125300  0.9
  O  O1828  1  0.681400  0.636900  0.874700  0.9
  O  O1829  1  0.699600  0.303600  0.056700  0.9
  O  O1830  1  0.300400  0.696400  0.943300  0.9
  O  O1831  1  0.780700  0.995900  0.397100  0.9
  O  O1832  1  0.219300  0.004100  0.602900  0.9
  O  O1833  1  0.850100  0.824700  0.630700  0.9
  O  O1834  1  0.149900  0.175300  0.369300  0.9
  O  O1835  1  0.313600  0.305900  0.480200  0.9
  O  O1836  1  0.686400  0.694100  0.519800  0.9
  O  O1837  1  0.176800  0.870000  0.649900  0.9
  O  O1838  1  0.823200  0.130000  0.350100  0.9
  O  O1839  1  0.699900  0.016400  0.186000  0.9
  O  O1840  1  0.300100  0.983600  0.814000  0.9
  O  O1841  1  0.081800  0.028000  0.931000  0.9
  O  O1842  1  0.918200  0.972000  0.069000  0.9
  O  O1843  1  0.508700  0.232900  0.055300  0.9
  O  O1844  1  0.491300  0.767100  0.944700  0.9
  O  O1845  1  0.629500  0.369300  0.181200  0.9
  O  O1846  1  0.370500  0.630700  0.818800  0.9
  O  O1847  1  0.236400  0.849200  0.522500  0.9
  O  O1848  1  0.763600  0.150800  0.477500  0.9
  O  O1849  1  0.701000  0.691000  0.872000  0.3
  O  O1850  1  0.299000  0.309000  0.128000  0.3
  O  O1851  1  0.173000  0.692000  0.363000  0.3
  O  O1852  1  0.827000  0.308000  0.637000  0.3
  O  O1853  1  0.135000  0.857000  0.301000  0.3
  O  O1854  1  0.865000  0.143000  0.699000  0.3
  O  O1855  1  0.874000  0.900000  0.435000  0.3
  O  O1856  1  0.126000  0.100000  0.565000  0.3
  O  O1857  1  0.106700  0.557400  0.169000  0.6
  O  O1858  1  0.893300  0.442600  0.831000  0.6
  O  O1859  1  0.837800  0.307800  0.191100  0.6
  O  O1860  1  0.162200  0.692200  0.808900  0.6
  O  O1861  1  0.408100  0.728500  0.234600  0.6
  O  O1862  1  0.591900  0.271500  0.765400  0.6
  O  O1863  1  0.733900  0.326900  0.098600  0.6
  O  O1864  1  0.266100  0.673100  0.901400  0.6
  O  O1865  1  0.056500  0.410200  0.102700  0.6
  O  O1866  1  0.943500  0.589800  0.897300  0.6
  O  O1867  1  0.838700  0.742200  0.575300  0.6
  O  O1868  1  0.161300  0.257800  0.424700  0.6
  O  O1869  1  0.747800  0.370000  0.196000  0.6
  O  O1870  1  0.252200  0.630000  0.804000  0.6
  O  O1871  1  0.090300  0.452000  0.934100  0.6
  O  O1872  1  0.909700  0.548000  0.065900  0.6
  O  O1873  1  0.712700  0.732700  0.872500  0.6
  O  O1874  1  0.287300  0.267300  0.127500  0.6
  O  O1875  1  0.720400  0.314500  0.080000  0.6
  O  O1876  1  0.279600  0.685500  0.920000  0.6
  F  F1877  1  0.117400  0.980950  0.717650  1.0
  F  F1878  1  0.882600  0.019050  0.282350  1.0
  F  F1879  1  0.229700  0.614900  0.657200  1.0
  F  F1880  1  0.770300  0.385100  0.342800  1.0
  F  F1881  1  0.285900  0.592400  0.622500  1.0
  F  F1882  1  0.714100  0.407600  0.377500  1.0
  F  F1883  1  0.259900  0.561800  0.673000  1.0
  F  F1884  1  0.740100  0.438200  0.327000  1.0
  F  F1885  1  0.237300  0.575400  0.618200  1.0
  F  F1886  1  0.762700  0.424600  0.381800  1.0
  F  F1887  1  0.842500  0.771300  0.884900  1.0
  F  F1888  1  0.157500  0.228700  0.115100  1.0
  F  F1889  1  0.826900  0.739400  0.937900  1.0
  F  F1890  1  0.173100  0.260600  0.062100  1.0
  F  F1891  1  0.877300  0.718300  0.903600  1.0
  F  F1892  1  0.122700  0.281700  0.096400  1.0
  F  F1893  1  0.875800  0.766900  0.928100  1.0
  F  F1894  1  0.124200  0.233100  0.071900  1.0
  F  F1895  1  0.763490  0.096460  0.640100  1.0
  F  F1896  1  0.236510  0.903540  0.359900  1.0
  F  F1897  1  0.260100  0.650000  0.080200  0.25
  F  F1898  1  0.739900  0.350000  0.919800  0.25
  F  F1899  1  0.282100  0.589900  0.111900  0.25
  F  F1900  1  0.717900  0.410100  0.888100  0.25
  F  F1901  1  0.304500  0.627200  0.066600  0.25
  F  F1902  1  0.695500  0.372800  0.933400  0.25
  F  F1903  1  0.266200  0.589000  0.056300  0.25
  F  F1904  1  0.733800  0.411000  0.943700  0.25
  F  F1905  1  0.268900  0.646000  0.092300  0.25
  F  F1906  1  0.731100  0.354000  0.907700  0.25
  F  F1907  1  0.291600  0.580000  0.093000  0.25
  F  F1908  1  0.708400  0.420000  0.907000  0.25
  F  F1909  1  0.297200  0.632100  0.055900  0.25
  F  F1910  1  0.702800  0.367900  0.944100  0.25
  F  F1911  1  0.235300  0.614000  0.075400  0.25
  F  F1912  1  0.764700  0.386000  0.924600  0.25
  F  F1913  1  0.262400  0.651700  0.078300  0.25
  F  F1914  1  0.737600  0.348300  0.921700  0.25
  F  F1915  1  0.254300  0.585600  0.096300  0.25
  F  F1916  1  0.745700  0.414400  0.903700  0.25
  F  F1917  1  0.305000  0.623500  0.081200  0.25
  F  F1918  1  0.695000  0.376500  0.918800  0.25
  F  F1919  1  0.286700  0.613300  0.038000  0.25
  F  F1920  1  0.713300  0.386700  0.962000  0.25
  F  F1921  1  0.249000  0.626000  0.050200  0.25
  F  F1922  1  0.751000  0.374000  0.949800  0.25
  F  F1923  1  0.251400  0.609400  0.112700  0.25
  F  F1924  1  0.748600  0.390600  0.887300  0.25
  F  F1925  1  0.297000  0.635200  0.070400  0.25
  F  F1926  1  0.703000  0.364800  0.929600  0.25
  F  F1927  1  0.295000  0.580200  0.067500  0.25
  F  F1928  1  0.705000  0.419800  0.932500  0.25
  F  F1929  1  0.264700  0.419400  0.005000  0.33
  F  F1930  1  0.735300  0.580600  0.995000  0.33
  F  F1931  1  0.308400  0.460700  0.972800  0.33
  F  F1932  1  0.691600  0.539300  0.027200  0.33
  F  F1933  1  0.297500  0.404800  0.952200  0.33
  F  F1934  1  0.702500  0.595200  0.047800  0.33
  F  F1935  1  0.310200  0.416100  0.004700  0.33
  F  F1936  1  0.689800  0.583900  0.995300  0.33
  F  F1937  1  0.270000  0.409900  0.005200  0.33
  F  F1938  1  0.730000  0.590100  0.994800  0.33
  F  F1939  1  0.267800  0.440100  0.949800  0.33
  F  F1940  1  0.732200  0.559900  0.050200  0.33
  F  F1941  1  0.328500  0.413000  0.967000  0.33
  F  F1942  1  0.671500  0.587000  0.033000  0.33
  F  F1943  1  0.298800  0.437900  0.006100  0.33
  F  F1944  1  0.701200  0.562100  0.993900  0.33
  F  F1945  1  0.263100  0.410700  0.986500  0.33
  F  F1946  1  0.736900  0.589300  0.013500  0.33
  F  F1947  1  0.267100  0.467900  0.976400  0.33
  F  F1948  1  0.732900  0.532100  0.023600  0.33
  F  F1949  1  0.309600  0.439500  0.940800  0.33
  F  F1950  1  0.690400  0.560500  0.059200  0.33
  F  F1951  1  0.301300  0.425200  0.004800  0.33
  F  F1952  1  0.698700  0.574800  0.995200  0.33
  F  F1953  1  0.449400  0.938000  0.151400  0.33
  F  F1954  1  0.550600  0.062000  0.848600  0.33
  F  F1955  1  0.481900  0.931100  0.095500  0.33
  F  F1956  1  0.518100  0.068900  0.904500  0.33
  F  F1957  1  0.503900  0.910700  0.151600  0.33
  F  F1958  1  0.496100  0.089300  0.848400  0.33
  F  F1959  1  0.489400  0.874900  0.142300  0.33
  F  F1960  1  0.510600  0.125100  0.857700  0.33
  F  F1961  1  0.495700  0.903600  0.155800  0.33
  F  F1962  1  0.504300  0.096400  0.844200  0.33
  F  F1963  1  0.436400  0.908400  0.144200  0.33
  F  F1964  1  0.563600  0.091600  0.855800  0.33
  F  F1965  1  0.466800  0.951500  0.123200  0.33
  F  F1966  1  0.533200  0.048500  0.876800  0.33
  F  F1967  1  0.488600  0.885600  0.112500  0.33
  F  F1968  1  0.511400  0.114400  0.887500  0.33
  F  F1969  1  0.481900  0.907600  0.168400  0.33
  F  F1970  1  0.518100  0.092400  0.831600  0.33
  F  F1971  1  0.446400  0.923000  0.115500  0.33
  F  F1972  1  0.553600  0.077000  0.884500  0.33
  F  F1973  1  0.510000  0.927800  0.126300  0.33
  F  F1974  1  0.490000  0.072200  0.873700  0.33
  F  F1975  1  0.496400  0.873900  0.138300  0.33
  F  F1976  1  0.503600  0.126100  0.861700  0.33
  F  F1977  1  0.125500  0.959000  0.665100  0.5
  F  F1978  1  0.874500  0.041000  0.334900  0.5
  F  F1979  1  0.069500  0.969800  0.695200  0.5
  F  F1980  1  0.930500  0.030200  0.304800  0.5
  F  F1981  1  0.098900  0.018500  0.667700  0.5
  F  F1982  1  0.901100  0.981500  0.332300  0.5
  F  F1983  1  0.097900  0.946900  0.688100  0.5
  F  F1984  1  0.902100  0.053100  0.311900  0.5
  F  F1985  1  0.068900  0.003200  0.693900  0.5
  F  F1986  1  0.931100  0.996800  0.306100  0.5
  F  F1987  1  0.128100  0.995000  0.659200  0.5
  F  F1988  1  0.871900  0.005000  0.340800  0.5
  F  F1989  1  0.189300  0.962200  0.852800  0.5
  F  F1990  1  0.810700  0.037800  0.147200  0.5
  F  F1991  1  0.220200  0.004400  0.852200  0.5
  F  F1992  1  0.779800  0.995600  0.147800  0.5
  F  F1993  1  0.187500  0.980300  0.894900  0.5
  F  F1994  1  0.812500  0.019700  0.105100  0.5
  F  F1995  1  0.245300  0.946200  0.884900  0.5
  F  F1996  1  0.754700  0.053800  0.115100  0.5
  F  F1997  1  0.185300  0.971600  0.855200  0.5
  F  F1998  1  0.814700  0.028400  0.144800  0.5
  F  F1999  1  0.228400  0.993200  0.880900  0.5
  F  F2000  1  0.771600  0.006800  0.119100  0.5
  F  F2001  1  0.202900  0.949100  0.907300  0.5
  F  F2002  1  0.797100  0.050900  0.092700  0.5
  F  F2003  1  0.242300  0.942800  0.849600  0.5
  F  F2004  1  0.757700  0.057200  0.150400  0.5
  F  F2005  1  0.137300  0.760900  0.596800  0.5
  F  F2006  1  0.862700  0.239100  0.403200  0.5
  F  F2007  1  0.141200  0.820700  0.574500  0.5
  F  F2008  1  0.858800  0.179300  0.425500  0.5
  F  F2009  1  0.100300  0.790900  0.557500  0.5
  F  F2010  1  0.899700  0.209100  0.442500  0.5
  F  F2011  1  0.093100  0.803400  0.614400  0.5
  F  F2012  1  0.906900  0.196600  0.385600  0.5
  F  F2013  1  0.144700  0.772200  0.596000  0.5
  F  F2014  1  0.855300  0.227800  0.404000  0.5
  F  F2015  1  0.111500  0.828800  0.598400  0.5
  F  F2016  1  0.888500  0.171200  0.401600  0.5
  F  F2017  1  0.124400  0.806200  0.545300  0.5
  F  F2018  1  0.875600  0.193800  0.454700  0.5
  F  F2019  1  0.087200  0.779700  0.591400  0.5
  F  F2020  1  0.912800  0.220300  0.408600  0.5
  F  F2021  1  0.901600  0.858300  0.736500  0.5
  F  F2022  1  0.098400  0.141700  0.263500  0.5
  F  F2023  1  0.953900  0.873900  0.705700  0.5
  F  F2024  1  0.046100  0.126100  0.294300  0.5
  F  F2025  1  0.908700  0.874600  0.671900  0.5
  F  F2026  1  0.091300  0.125400  0.328100  0.5
  F  F2027  1  0.904200  0.916300  0.711300  0.5
  F  F2028  1  0.095800  0.083700  0.288700  0.5
  F  F2029  1  0.905800  0.859200  0.735700  0.5
  F  F2030  1  0.094200  0.140800  0.264300  0.5
  F  F2031  1  0.933500  0.856900  0.678600  0.5
  F  F2032  1  0.066500  0.143100  0.321400  0.5
  F  F2033  1  0.885400  0.896200  0.687900  0.5
  F  F2034  1  0.114600  0.103800  0.312100  0.5
  F  F2035  1  0.936300  0.903500  0.711400  0.5
  F  F2036  1  0.063700  0.096500  0.288600  0.5
  F  F2037  1  0.824900  0.078700  0.638700  0.5
  F  F2038  1  0.175100  0.921300  0.361300  0.5
  F  F2039  1  0.794700  0.054400  0.604600  0.5
  F  F2040  1  0.205300  0.945600  0.395400  0.5
  F  F2041  1  0.799600  0.112800  0.591000  0.5
  F  F2042  1  0.200400  0.887200  0.409000  0.5
  F  F2043  1  0.823100  0.104400  0.615300  0.5
  F  F2044  1  0.176900  0.895600  0.384700  0.5
  F  F2045  1  0.808800  0.048600  0.634500  0.5
  F  F2046  1  0.191200  0.951400  0.365500  0.5
  F  F2047  1  0.784600  0.082200  0.588000  0.5
  F  F2048  1  0.215400  0.917800  0.412000  0.5
  F  F2049  1  0.578400  0.172500  0.714700  0.5
  F  F2050  1  0.421600  0.827500  0.285300  0.5
  F  F2051  1  0.554300  0.163800  0.767500  0.5
  F  F2052  1  0.445700  0.836200  0.232500  0.5
  F  F2053  1  0.617300  0.159500  0.742800  0.5
  F  F2054  1  0.382700  0.840500  0.257200  0.5
  F  F2055  1  0.585400  0.113100  0.743600  0.5
  F  F2056  1  0.414600  0.886900  0.256400  0.5
  F  F2057  1  0.614500  0.155700  0.723300  0.5
  F  F2058  1  0.385500  0.844300  0.276700  0.5
  F  F2059  1  0.571900  0.181500  0.759000  0.5
  F  F2060  1  0.428100  0.818500  0.241000  0.5
  F  F2061  1  0.593900  0.125400  0.781500  0.5
  F  F2062  1  0.406100  0.874600  0.218500  0.5
  F  F2063  1  0.561800  0.135100  0.732700  0.5
  F  F2064  1  0.438200  0.864900  0.267300  0.5
  F  F2065  1  0.817700  0.896200  0.524100  0.5
  F  F2066  1  0.182300  0.103800  0.475900  0.5
  F  F2067  1  0.779800  0.885700  0.515100  0.5
  F  F2068  1  0.220200  0.114300  0.484900  0.5
  F  F2069  1  0.837700  0.899100  0.467700  0.5
  F  F2070  1  0.162300  0.100900  0.532300  0.5
  F  F2071  1  0.822300  0.841200  0.501300  0.5
  F  F2072  1  0.177700  0.158800  0.498700  0.5
  F  F2073  1  0.809900  0.908200  0.512600  0.5
  F  F2074  1  0.190100  0.091800  0.487400  0.5
  F  F2075  1  0.784700  0.875400  0.524000  0.5
  F  F2076  1  0.215300  0.124600  0.476000  0.5
  F  F2077  1  0.806600  0.878500  0.462900  0.5
  F  F2078  1  0.193400  0.121500  0.537100  0.5
  F  F2079  1  0.849500  0.869200  0.508300  0.5
  F  F2080  1  0.150500  0.130800  0.491700  0.5
  F  F2081  1  0.642300  0.815200  0.527700  0.5
  F  F2082  1  0.357700  0.184800  0.472300  0.5
  F  F2083  1  0.617400  0.777800  0.501400  0.5
  F  F2084  1  0.382600  0.222200  0.498600  0.5
  F  F2085  1  0.587900  0.794500  0.553400  0.5
  F  F2086  1  0.412100  0.205500  0.446600  0.5
  F  F2087  1  0.644900  0.762200  0.552900  0.5
  F  F2088  1  0.355100  0.237800  0.447100  0.5
  F  F2089  1  0.648300  0.809000  0.535500  0.5
  F  F2090  1  0.351700  0.191000  0.464500  0.5
  F  F2091  1  0.610200  0.760900  0.549900  0.5
  F  F2092  1  0.389800  0.239100  0.450100  0.5
  F  F2093  1  0.599500  0.819900  0.514800  0.5
  F  F2094  1  0.400500  0.180100  0.485200  0.5
  F  F2095  1  0.643300  0.780600  0.494900  0.5
  F  F2096  1  0.356700  0.219400  0.505100  0.5
  F  F2097  1  0.019000  0.785400  0.378800  0.5
  F  F2098  1  0.981000  0.214600  0.621200  0.5
  F  F2099  1  0.011500  0.809500  0.413400  0.5
  F  F2100  1  0.988500  0.190500  0.586600  0.5
  F  F2101  1  0.071500  0.780600  0.411600  0.5
  F  F2102  1  0.928500  0.219400  0.588400  0.5
  F  F2103  1  0.042100  0.839000  0.376700  0.5
  F  F2104  1  0.957900  0.161000  0.623300  0.5
  F  F2105  1  0.023300  0.775500  0.387100  0.5
  F  F2106  1  0.976700  0.224500  0.612900  0.5
  F  F2107  1  0.012000  0.818700  0.393700  0.5
  F  F2108  1  0.988000  0.181300  0.606300  0.5
  F  F2109  1  0.052000  0.814200  0.422300  0.5
  F  F2110  1  0.948000  0.185800  0.577700  0.5
  F  F2111  1  0.071200  0.808100  0.363500  0.5
  F  F2112  1  0.928800  0.191900  0.636500  0.5
  F  F2113  1  0.038700  0.645400  0.310800  0.5
  F  F2114  1  0.961300  0.354600  0.689200  0.5
  F  F2115  1  0.051800  0.604600  0.267200  0.5
  F  F2116  1  0.948200  0.395400  0.732800  0.5
  F  F2117  1  0.016100  0.598000  0.321900  0.5
  F  F2118  1  0.983900  0.402000  0.678100  0.5
  F  F2119  1  0.997500  0.644400  0.285300  0.5
  F  F2120  1  0.002500  0.355600  0.714700  0.5
  F  F2121  1  0.025700  0.647400  0.314300  0.5
  F  F2122  1  0.974300  0.352600  0.685700  0.5
  F  F2123  1  0.052800  0.643800  0.264000  0.5
  F  F2124  1  0.947200  0.356200  0.736000  0.5
  F  F2125  1  0.052800  0.591200  0.303300  0.5
  F  F2126  1  0.947200  0.408800  0.696700  0.5
  F  F2127  1  0.004100  0.616300  0.279700  0.5
  F  F2128  1  0.995900  0.383700  0.720300  0.5
  F  F2129  1  0.128000  0.360900  0.002400  0.5
  F  F2130  1  0.872000  0.639100  0.997600  0.5
  F  F2131  1  0.075300  0.356200  0.039300  0.5
  F  F2132  1  0.924700  0.643800  0.960700  0.5
  F  F2133  1  0.081700  0.363500  0.974200  0.5
  F  F2134  1  0.918300  0.636500  0.025800  0.5
  F  F2135  1  0.103600  0.310800  0.003500  0.5
  F  F2136  1  0.896400  0.689200  0.996500  0.5
  F  F2137  1  0.118900  0.362200  0.013700  0.5
  F  F2138  1  0.881100  0.637800  0.986300  0.5
  F  F2139  1  0.082100  0.316700  0.030100  0.5
  F  F2140  1  0.917900  0.683300  0.969900  0.5
  F  F2141  1  0.062900  0.367600  0.994200  0.5
  F  F2142  1  0.937100  0.632400  0.005800  0.5
  F  F2143  1  0.112400  0.333800  0.973800  0.5
  F  F2144  1  0.887600  0.666200  0.026200  0.5
  F  F2145  1  0.117900  0.740000  0.132700  0.5
  F  F2146  1  0.882100  0.260000  0.867300  0.5
  F  F2147  1  0.056700  0.763900  0.136700  0.5
  F  F2148  1  0.943300  0.236100  0.863300  0.5
  F  F2149  1  0.089700  0.763000  0.184000  0.5
  F  F2150  1  0.910300  0.237000  0.816000  0.5
  F  F2151  1  0.101800  0.798300  0.126300  0.5
  F  F2152  1  0.898200  0.201700  0.873700  0.5
  F  F2153  1  0.122800  0.749100  0.142500  0.5
  F  F2154  1  0.877200  0.250900  0.857500  0.5
  F  F2155  1  0.081000  0.771700  0.111000  0.5
  F  F2156  1  0.919000  0.228300  0.889000  0.5
  F  F2157  1  0.067600  0.739700  0.167100  0.5
  F  F2158  1  0.932400  0.260300  0.832900  0.5
  F  F2159  1  0.079900  0.798700  0.160300  0.5
  F  F2160  1  0.920100  0.201300  0.839700  0.5
  F  F2161  1  0.350200  0.416800  0.237200  0.5
  F  F2162  1  0.649800  0.583200  0.762800  0.5
  F  F2163  1  0.347600  0.455700  0.182300  0.5
  F  F2164  1  0.652400  0.544300  0.817700  0.5
  F  F2165  1  0.375000  0.401400  0.184700  0.5
  F  F2166  1  0.625000  0.598600  0.815300  0.5
  F  F2167  1  0.397100  0.444800  0.210200  0.5
  F  F2168  1  0.602900  0.555200  0.789800  0.5
  F  F2169  1  0.349500  0.420400  0.231400  0.5
  F  F2170  1  0.650500  0.579600  0.768600  0.5
  F  F2171  1  0.370600  0.467200  0.197400  0.5
  F  F2172  1  0.629400  0.532800  0.802600  0.5
  F  F2173  1  0.360000  0.422300  0.171900  0.5
  F  F2174  1  0.640000  0.577700  0.828100  0.5
  F  F2175  1  0.405800  0.410700  0.205900  0.5
  F  F2176  1  0.594200  0.589300  0.794100  0.5
  F  F2177  1  0.257600  0.368300  0.380600  0.5
  F  F2178  1  0.742400  0.631700  0.619400  0.5
  F  F2179  1  0.232300  0.370700  0.437800  0.5
  F  F2180  1  0.767700  0.629300  0.562200  0.5
  F  F2181  1  0.251800  0.314800  0.417000  0.5
  F  F2182  1  0.748200  0.685200  0.583000  0.5
  F  F2183  1  0.199700  0.353600  0.400800  0.5
  F  F2184  1  0.800300  0.646400  0.599200  0.5
  F  F2185  1  0.261100  0.357800  0.381500  0.5
  F  F2186  1  0.738900  0.642200  0.618500  0.5
  F  F2187  1  0.253600  0.347800  0.440700  0.5
  F  F2188  1  0.746400  0.652200  0.559300  0.5
  F  F2189  1  0.226600  0.317500  0.411600  0.5
  F  F2190  1  0.773400  0.682500  0.588400  0.5
  F  F2191  1  0.211700  0.385200  0.412100  0.5
  F  F2192  1  0.788300  0.614800  0.587900  0.5
  F  F2193  1  0.578300  0.267200  0.149200  0.5
  F  F2194  1  0.421700  0.732800  0.850800  0.5
  F  F2195  1  0.600600  0.315500  0.121400  0.5
  F  F2196  1  0.399400  0.684500  0.878600  0.5
  F  F2197  1  0.560200  0.291100  0.097600  0.5
  F  F2198  1  0.439800  0.708900  0.902400  0.5
  F  F2199  1  0.541700  0.323700  0.143000  0.5
  F  F2200  1  0.458300  0.676300  0.857000  0.5
  F  F2201  1  0.584000  0.263700  0.149700  0.5
  F  F2202  1  0.416000  0.736300  0.850300  0.5
  F  F2203  1  0.535700  0.295200  0.128400  0.5
  F  F2204  1  0.464300  0.704800  0.871600  0.5
  F  F2205  1  0.579300  0.327700  0.137900  0.5
  F  F2206  1  0.420700  0.672300  0.862100  0.5
  F  F2207  1  0.593400  0.290500  0.095600  0.5
  F  F2208  1  0.406600  0.709500  0.904400  0.5
  F  F2209  1  0.634300  0.120700  0.244800  0.5
  F  F2210  1  0.365700  0.879300  0.755200  0.5
  F  F2211  1  0.684300  0.081900  0.259300  0.5
  F  F2212  1  0.315700  0.918100  0.740700  0.5
  F  F2213  1  0.637700  0.094000  0.303600  0.5
  F  F2214  1  0.362300  0.906000  0.696400  0.5
  F  F2215  1  0.628900  0.060300  0.262500  0.5
  F  F2216  1  0.371100  0.939700  0.737500  0.5
  F  F2217  1  0.636000  0.113300  0.235100  0.5
  F  F2218  1  0.364000  0.886700  0.764900  0.5
  F  F2219  1  0.657700  0.054300  0.252700  0.5
  F  F2220  1  0.342300  0.945700  0.747300  0.5
  F  F2221  1  0.671500  0.106100  0.272800  0.5
  F  F2222  1  0.328500  0.893900  0.727200  0.5
  F  F2223  1  0.610800  0.088100  0.285000  0.5
  F  F2224  1  0.389200  0.911900  0.715000  0.5
  F  F2225  1  0.534600  0.526900  0.192300  0.5
  F  F2226  1  0.465400  0.473100  0.807700  0.5
  F  F2227  1  0.579700  0.494800  0.236000  0.5
  F  F2228  1  0.420300  0.505200  0.764000  0.5
  F  F2229  1  0.570000  0.555200  0.221300  0.5
  F  F2230  1  0.430000  0.444800  0.778700  0.5
  F  F2231  1  0.581000  0.496800  0.194700  0.5
  F  F2232  1  0.419000  0.503200  0.805300  0.5
  F  F2233  1  0.568500  0.491700  0.198800  0.5
  F  F2234  1  0.431500  0.508300  0.801200  0.5
  F  F2235  1  0.527200  0.524900  0.231700  0.5
  F  F2236  1  0.472800  0.475100  0.768300  0.5
  F  F2237  1  0.570500  0.546300  0.177900  0.5
  F  F2238  1  0.429500  0.453700  0.822100  0.5
  F  F2239  1  0.589900  0.500800  0.229900  0.5
  F  F2240  1  0.410100  0.499200  0.770100  0.5
  F  F2241  1  0.649700  0.489900  0.372300  0.5
  F  F2242  1  0.350300  0.510100  0.627700  0.5
  F  F2243  1  0.624400  0.477600  0.429900  0.5
  F  F2244  1  0.375600  0.522400  0.570100  0.5
  F  F2245  1  0.687900  0.479300  0.412300  0.5
  F  F2246  1  0.312100  0.520700  0.587700  0.5
  F  F2247  1  0.643600  0.529500  0.413600  0.5
  F  F2248  1  0.356400  0.470500  0.586400  0.5
  F  F2249  1  0.635100  0.496100  0.375200  0.5
  F  F2250  1  0.364900  0.503900  0.624800  0.5
  F  F2251  1  0.630900  0.516500  0.429800  0.5
  F  F2252  1  0.369100  0.483500  0.570200  0.5
  F  F2253  1  0.657500  0.457700  0.423100  0.5
  F  F2254  1  0.342500  0.542300  0.576900  0.5
  F  F2255  1  0.684100  0.507800  0.392900  0.5
  F  F2256  1  0.315900  0.492200  0.607100  0.5
  F  F2257  1  0.504000  0.729600  0.079500  0.5
  F  F2258  1  0.496000  0.270400  0.920500  0.5
  F  F2259  1  0.464100  0.691100  0.089100  0.5
  F  F2260  1  0.535900  0.308900  0.910900  0.5
  F  F2261  1  0.509000  0.696400  0.035800  0.5
  F  F2262  1  0.491000  0.303600  0.964200  0.5
  F  F2263  1  0.522900  0.669600  0.090700  0.5
  F  F2264  1  0.477100  0.330400  0.909300  0.5
  F  F2265  1  0.494100  0.733400  0.087600  0.5
  F  F2266  1  0.505900  0.266600  0.912400  0.5
  F  F2267  1  0.484500  0.674400  0.102800  0.5
  F  F2268  1  0.515500  0.325600  0.897200  0.5
  F  F2269  1  0.473800  0.703400  0.049100  0.5
  F  F2270  1  0.526200  0.296600  0.950900  0.5
  F  F2271  1  0.533500  0.693800  0.056500  0.5
  F  F2272  1  0.466500  0.306200  0.943500  0.5
