####################################################################### 
# 
# This file contains crystal structure data downloaded from the 
# Cambridge Structural Database (CSD) hosted by the Cambridge 
# Crystallographic Data Centre (CCDC).
# 
# Full information about CCDC data access policies and citation 
# guidelines are available at http://www.ccdc.cam.ac.uk/access/V1 
# 
# Audit and citation data items may have been added by the CCDC. 
# Please retain this information to preserve the provenance of 
# this file and to allow appropriate attribution of the data. 
# 
#######################################################################

data_p21m_sqd
_audit_block_doi                 10.5517/cc139zft
_database_code_depnum_ccdc_archive 'CCDC 1022486'
loop_
_citation_id
_citation_doi
_citation_year
1 10.1002/anie.201409216 2015
_audit_update_record             
;
2014-09-02 deposited with the CCDC.	2019-03-04 downloaded from the CCDC.
;

_audit_creation_method           SHELXL-97
_chemical_name_systematic        
; 
 ? 
;
_chemical_name_common            'M9L18 complex'
_chemical_melting_point          ?
_chemical_formula_moiety         '18(C15 H11 N3), Pd9, 18(B F4)'
_chemical_formula_sum            'C270 H198 B18 F72 N54 Pd9'
_chemical_formula_weight         6719.00

loop_
_atom_type_symbol
_atom_type_description
_atom_type_scat_dispersion_real
_atom_type_scat_dispersion_imag
_atom_type_scat_source
C C 0.0030 0.0016 'International Tables Vol C Tables 4.2.6.8 and 6.1.1.4'
H H 0.0000 0.0000 'International Tables Vol C Tables 4.2.6.8 and 6.1.1.4'
B B 0.0015 0.0007 'International Tables Vol C Tables 4.2.6.8 and 6.1.1.4'
N N 0.0059 0.0032 'International Tables Vol C Tables 4.2.6.8 and 6.1.1.4'
F F 0.0170 0.0100 'International Tables Vol C Tables 4.2.6.8 and 6.1.1.4'
Pd Pd -1.0140 0.9845 'International Tables Vol C Tables 4.2.6.8 and 6.1.1.4'

_symmetry_cell_setting           monoclinic
_symmetry_space_group_name_H-M   'P 21/m'
_symmetry_space_group_name_Hall  '-P 2yb'

loop_
_symmetry_equiv_pos_as_xyz
'x, y, z'
'-x, y+1/2, -z'
'-x, -y, -z'
'x, -y-1/2, z'

_cell_length_a                   53.598(11)
_cell_length_b                   43.824(9)
_cell_length_c                   53.599(11)
_cell_angle_alpha                90.00
_cell_angle_beta                 120.01(3)
_cell_angle_gamma                90.00
_cell_volume                     109022(38)
_cell_formula_units_Z            6
_cell_measurement_temperature    296(2)
_cell_measurement_reflns_used    49071
_cell_measurement_theta_min      ?
_cell_measurement_theta_max      ?

_exptl_crystal_description       needle
_exptl_crystal_colour            colorless
_exptl_crystal_size_max          0.25
_exptl_crystal_size_mid          0.02
_exptl_crystal_size_min          0.02
_exptl_crystal_density_meas      ?
_exptl_crystal_density_diffrn    0.614
_exptl_crystal_density_method    'not measured'
_exptl_crystal_F_000             20088
_exptl_absorpt_coefficient_mu    0.247
_exptl_absorpt_correction_type   empirical
_exptl_absorpt_correction_T_min  0.9408
_exptl_absorpt_correction_T_max  0.9951
_exptl_absorpt_process_details   'HKL2000 DENZO SCALEPACK'

_exptl_special_details           
; 
 ? 
;

_diffrn_ambient_temperature      296(2)
_diffrn_radiation_wavelength     0.70000
_diffrn_radiation_type           synchrotron
_diffrn_radiation_source         'SPring-8 BL41XU beamline'
_diffrn_radiation_monochromator  'Si 111'
_diffrn_measurement_device_type  'PAD Pilatus3 6M (Dectris)'
_diffrn_measurement_method       'oscillation method, \w scans'
_diffrn_measurement_details      
' 0.50 degrees, 1.0 sec, detector distance 250.00 mm'
_diffrn_detector_area_resol_mean ?
_diffrn_standards_number         ?
_diffrn_standards_interval_count ?
_diffrn_standards_interval_time  ?
_diffrn_standards_decay_%        ?
_diffrn_reflns_number            179337
_diffrn_reflns_av_R_equivalents  0.0458
_diffrn_reflns_av_sigmaI/netI    0.0508
_diffrn_reflns_limit_h_min       -40
_diffrn_reflns_limit_h_max       40
_diffrn_reflns_limit_k_min       -32
_diffrn_reflns_limit_k_max       32
_diffrn_reflns_limit_l_min       -41
_diffrn_reflns_limit_l_max       41
_diffrn_reflns_theta_min         0.43
_diffrn_reflns_theta_max         15.56
_reflns_number_total             50735
_reflns_number_gt                25212
_reflns_threshold_expression     >2\s(I)

_computing_data_collection       'SPring-8 BSS'
_computing_cell_refinement       HKL2000
_computing_data_reduction        HKL2000
_computing_structure_solution    superflip
_computing_structure_refinement  'SHELXL-97 (Sheldrick, 1997)'
_computing_molecular_graphics    'Yadokari-XG 2009 (Wakita Nemoto et al., 2009)'
_computing_publication_material  'Yadokari-XG 2009 (Wakita Nemoto et al., 2009)'

_refine_special_details          SQUEEZE

_refine_ls_structure_factor_coef Fsqd
_refine_ls_matrix_type           full
_refine_ls_weighting_scheme      calc
_refine_ls_weighting_details     
'calc w=1/[\s^2^(Fo^2^)+(0.2000P)^2^] where P=(Fo^2^+2Fc^2^)/3'
_atom_sites_solution_primary     iterative
_atom_sites_solution_secondary   difmap
_atom_sites_solution_hydrogens   geom
_refine_ls_hydrogen_treatment    constr
_refine_ls_extinction_method     none
_refine_ls_extinction_coef       ?
_refine_ls_number_reflns         50735
_refine_ls_number_parameters     4780
_refine_ls_number_restraints     4269
_refine_ls_R_factor_all          0.1527
_refine_ls_R_factor_gt           0.1244
_refine_ls_wR_factor_ref         0.3667
_refine_ls_wR_factor_gt          0.3400
_refine_ls_goodness_of_fit_ref   1.177
_refine_ls_restrained_S_all      1.237
_refine_ls_shift/su_max          0.012
_refine_ls_shift/su_mean         0.000

loop_
_atom_site_label
_atom_site_type_symbol
_atom_site_fract_x
_atom_site_fract_y
_atom_site_fract_z
_atom_site_U_iso_or_equiv
_atom_site_adp_type
_atom_site_occupancy
_atom_site_symmetry_multiplicity
_atom_site_calc_flag
_atom_site_refinement_flags
_atom_site_disorder_assembly
_atom_site_disorder_group
N1 N 0.6560(3) 0.3549(2) 0.9454(3) 0.299(5) Uani 1 1 d GU . .
C1 C 0.6527(3) 0.3263(3) 0.9546(2) 0.301(6) Uani 1 1 d GU . .
H1 H 0.6522 0.3245 0.9716 0.361 Uiso 1 1 calc R . .
C2 C 0.6502(3) 0.3005(2) 0.9385(3) 0.304(6) Uani 1 1 d GU . .
H2 H 0.6481 0.2814 0.9446 0.365 Uiso 1 1 calc R . .
C3 C 0.6511(3) 0.3033(2) 0.9130(3) 0.301(6) Uani 1 1 d GU . .
C4 C 0.6543(3) 0.3319(3) 0.9038(2) 0.294(6) Uani 1 1 d GU . .
H3 H 0.6549 0.3338 0.8868 0.353 Uiso 1 1 calc R . .
C5 C 0.6568(3) 0.3577(2) 0.9200(3) 0.291(6) Uani 1 1 d GU . .
H4 H 0.6590 0.3768 0.9138 0.350 Uiso 1 1 calc R . .
N2 N 0.6511(5) 0.2500 0.9091(5) 0.296(7) Uani 1 2 d SU . .
C6 C 0.6502(5) 0.2760(5) 0.8950(5) 0.307(6) Uani 1 1 d U . .
C7 C 0.6411(5) 0.2748(5) 0.8651(5) 0.333(7) Uani 1 1 d U . .
H5 H 0.6407 0.2932 0.8564 0.399 Uiso 1 1 calc R . .
C8 C 0.6330(8) 0.2500 0.8483(8) 0.338(10) Uani 1 2 d SU . .
H6 H 0.6233 0.2500 0.8282 0.406 Uiso 1 2 calc SR . .
N3 N 0.4449(3) 0.3557(2) 1.1558(3) 0.305(5) Uani 1 1 d GU . .
C9 C 0.4542(2) 0.3272(3) 1.1524(3) 0.308(6) Uani 1 1 d GU . .
H7 H 0.4711 0.3255 1.1516 0.369 Uiso 1 1 calc R . .
C10 C 0.4383(3) 0.3013(2) 1.1502(3) 0.305(6) Uani 1 1 d GU . .
H8 H 0.4445 0.2822 1.1479 0.365 Uiso 1 1 calc R . .
C11 C 0.4130(3) 0.3038(3) 1.1514(3) 0.299(6) Uani 1 1 d GU . .
C12 C 0.4037(2) 0.3323(3) 1.1548(3) 0.296(6) Uani 1 1 d GU . .
H9 H 0.3868 0.3340 1.1556 0.355 Uiso 1 1 calc R . .
C13 C 0.4197(3) 0.3583(2) 1.1570(3) 0.298(6) Uani 1 1 d GU . .
H10 H 0.4134 0.3773 1.1593 0.357 Uiso 1 1 calc R . .
N4 N 0.4089(5) 0.2500 1.1506(5) 0.297(7) Uani 1 2 d SU . .
C14 C 0.3945(5) 0.2778(5) 1.1489(5) 0.299(6) Uani 1 1 d U . .
C15 C 0.3664(5) 0.2766(5) 1.1416(5) 0.325(7) Uani 1 1 d U . .
H11 H 0.3571 0.2947 1.1412 0.390 Uiso 1 1 calc R . .
C16 C 0.3510(7) 0.2500 1.1346(7) 0.331(10) Uani 1 2 d SU . .
H12 H 0.3310 0.2500 1.1256 0.397 Uiso 1 2 calc SR . .
N5 N 0.7029(2) 0.3860(3) 0.9912(3) 0.321(6) Uani 1 1 d GU . .
C17 C 0.7165(4) 0.3666(3) 1.0147(3) 0.348(7) Uani 1 1 d GU . .
H13 H 0.7057 0.3558 1.0210 0.417 Uiso 1 1 calc R . .
C18 C 0.7462(4) 0.3632(3) 1.0289(2) 0.353(7) Uani 1 1 d GU . .
H14 H 0.7554 0.3502 1.0446 0.424 Uiso 1 1 calc R . .
C19 C 0.7624(2) 0.3792(4) 1.0195(4) 0.356(7) Uani 1 1 d GU . .
C20 C 0.7488(4) 0.3987(3) 0.9959(4) 0.341(7) Uani 1 1 d GU . .
H15 H 0.7596 0.4094 0.9897 0.409 Uiso 1 1 calc R . .
C21 C 0.7190(4) 0.4021(2) 0.9818(2) 0.317(7) Uani 1 1 d GU . .
H16 H 0.7099 0.4151 0.9660 0.380 Uiso 1 1 calc R . .
N6 N 0.8029(4) 0.3512(4) 1.0571(4) 0.390(7) Uani 1 1 d GU . .
C22 C 0.7927(3) 0.3718(4) 1.0344(4) 0.377(7) Uani 1 1 d GU . .
C23 C 0.8117(5) 0.3859(3) 1.0276(3) 0.411(8) Uani 1 1 d GU . .
H17 H 0.8049 0.3997 1.0124 0.494 Uiso 1 1 calc R . .
C24 C 0.8410(4) 0.3794(4) 1.0435(5) 0.437(9) Uani 1 1 d GU . .
H18 H 0.8537 0.3888 1.0389 0.525 Uiso 1 1 calc R . .
C25 C 0.8512(3) 0.3587(4) 1.0662(4) 0.420(8) Uani 1 1 d GU . .
H19 H 0.8708 0.3544 1.0768 0.504 Uiso 1 1 calc R . .
C26 C 0.8322(5) 0.3446(3) 1.0730(3) 0.394(7) Uani 1 1 d GU . .
N7 N 0.8511(5) 0.2830(2) 1.1385(3) 0.358(6) Uani 1 1 d GU . .
C27 C 0.8226(4) 0.2923(4) 1.1214(4) 0.360(7) Uani 1 1 d GU . .
H20 H 0.8083 0.2839 1.1242 0.431 Uiso 1 1 calc R . .
C28 C 0.8156(3) 0.3141(4) 1.1001(3) 0.384(8) Uani 1 1 d GU . .
H21 H 0.7966 0.3203 1.0886 0.461 Uiso 1 1 calc R . .
C29 C 0.8370(5) 0.3267(3) 1.0959(3) 0.383(7) Uani 1 1 d GU . .
C30 C 0.8655(4) 0.3175(4) 1.1130(4) 0.373(7) Uani 1 1 d GU . .
H22 H 0.8798 0.3259 1.1101 0.447 Uiso 1 1 calc R . .
C31 C 0.8725(3) 0.2956(4) 1.1343(3) 0.358(7) Uani 1 1 d GU . .
H23 H 0.8915 0.2894 1.1457 0.430 Uiso 1 1 calc R . .
N8 N 0.8646(5) 0.2822(3) 1.1983(3) 0.374(7) Uani 1 1 d GU . .
C32 C 0.8404(3) 0.2929(4) 1.1987(3) 0.390(8) Uani 1 1 d GU . .
H24 H 0.8229 0.2828 1.1883 0.469 Uiso 1 1 calc R . .
C33 C 0.8424(4) 0.3187(5) 1.2146(4) 0.404(8) Uani 1 1 d GU . .
H25 H 0.8262 0.3259 1.2149 0.485 Uiso 1 1 calc R . .
C34 C 0.8686(5) 0.3338(3) 1.2302(3) 0.414(8) Uani 1 1 d GU . .
C35 C 0.8928(3) 0.3231(4) 1.2298(3) 0.412(9) Uani 1 1 d GU . .
H26 H 0.9103 0.3332 1.2402 0.494 Uiso 1 1 calc R . .
C36 C 0.8908(3) 0.2973(4) 1.2138(4) 0.405(9) Uani 1 1 d GU . .
H27 H 0.9070 0.2902 1.2135 0.486 Uiso 1 1 calc R . .
N9 N 0.8466(4) 0.3757(5) 1.2424(4) 0.445(8) Uani 1 1 d GU . .
C37 C 0.8719(6) 0.3629(3) 1.2461(4) 0.454(8) Uani 1 1 d GU . .
C38 C 0.8983(4) 0.3762(6) 1.2650(5) 0.495(10) Uani 1 1 d GU . .
H28 H 0.9153 0.3676 1.2675 0.594 Uiso 1 1 calc R . .
C39 C 0.8993(4) 0.4023(6) 1.2802(4) 0.511(11) Uani 1 1 d GU . .
H29 H 0.9169 0.4112 1.2929 0.613 Uiso 1 1 calc R . .
C40 C 0.8739(6) 0.4151(4) 1.2765(5) 0.492(10) Uani 1 1 d GU . .
H30 H 0.8746 0.4326 1.2866 0.590 Uiso 1 1 calc R . .
C41 C 0.8476(4) 0.4018(6) 1.2576(5) 0.451(8) Uani 1 1 d GU . .
N10 N 0.7650(3) 0.4363(4) 1.2350(4) 0.371(7) Uani 1 1 d GU . .
C42 C 0.7663(3) 0.4075(4) 1.2247(3) 0.383(8) Uani 1 1 d GU . .
H31 H 0.7494 0.3969 1.2130 0.459 Uiso 1 1 calc R . .
C43 C 0.7928(5) 0.3948(3) 1.2319(4) 0.396(8) Uani 1 1 d GU . .
H32 H 0.7936 0.3756 1.2250 0.475 Uiso 1 1 calc R . .
C44 C 0.8180(3) 0.4108(5) 1.2493(4) 0.422(8) Uani 1 1 d GU . .
C45 C 0.8168(3) 0.4395(5) 1.2597(3) 0.412(8) Uani 1 1 d GU . .
H33 H 0.8337 0.4502 1.2714 0.495 Uiso 1 1 calc R . .
C46 C 0.7903(5) 0.4522(3) 1.2525(4) 0.408(9) Uani 1 1 d GU . .
H34 H 0.7895 0.4715 1.2594 0.489 Uiso 1 1 calc R . .
N11 N 0.7173(3) 0.4684(4) 1.1871(3) 0.348(6) Uani 1 1 d GU . .
C47 C 0.7047(3) 0.4508(2) 1.1622(4) 0.354(8) Uani 1 1 d GU . .
H35 H 0.6998 0.4306 1.1629 0.424 Uiso 1 1 calc R . .
C48 C 0.6994(3) 0.4633(4) 1.1362(3) 0.351(7) Uani 1 1 d GU . .
H36 H 0.6910 0.4515 1.1195 0.421 Uiso 1 1 calc R . .
C49 C 0.7067(4) 0.4935(4) 1.1351(3) 0.354(7) Uani 1 1 d GU . .
C50 C 0.7194(3) 0.5111(2) 1.1599(4) 0.368(8) Uani 1 1 d GU . .
H37 H 0.7243 0.5313 1.1592 0.442 Uiso 1 1 calc R . .
C51 C 0.7247(3) 0.4986(4) 1.1860(3) 0.378(8) Uani 1 1 d GU . .
H38 H 0.7331 0.5104 1.2026 0.453 Uiso 1 1 calc R . .
N12 N 0.6914(3) 0.4860(2) 1.0862(4) 0.355(6) Uani 1 1 d GU . .
C52 C 0.7000(4) 0.5068(4) 1.1087(3) 0.375(7) Uani 1 1 d GU . .
C53 C 0.7028(4) 0.5375(4) 1.1041(4) 0.424(9) Uani 1 1 d GU . .
H39 H 0.7085 0.5514 1.1192 0.508 Uiso 1 1 calc R . .
C54 C 0.6969(4) 0.5475(2) 1.0771(5) 0.429(9) Uani 1 1 d GU . .
H40 H 0.6988 0.5681 1.0741 0.515 Uiso 1 1 calc R . .
C55 C 0.6883(4) 0.5268(4) 1.0547(3) 0.401(8) Uani 1 1 d GU . .
H41 H 0.6844 0.5334 1.0366 0.481 Uiso 1 1 calc R . .
C56 C 0.6856(4) 0.4960(4) 1.0592(3) 0.352(7) Uani 1 1 d GU . .
N13 N 0.6650(3) 0.4254(3) 0.9972(3) 0.306(5) Uani 1 1 d GU . .
C57 C 0.6678(3) 0.4191(2) 1.0239(3) 0.338(7) Uani 1 1 d GU . .
H42 H 0.6652 0.3993 1.0284 0.405 Uiso 1 1 calc R . .
C58 C 0.6743(3) 0.4424(3) 1.0437(2) 0.332(7) Uani 1 1 d GU . .
H43 H 0.6761 0.4382 1.0616 0.399 Uiso 1 1 calc R . .
C59 C 0.6780(3) 0.4720(3) 1.0370(3) 0.327(6) Uani 1 1 d GU . .
C60 C 0.6753(3) 0.4783(2) 1.0103(3) 0.318(7) Uani 1 1 d GU . .
H44 H 0.6779 0.4982 1.0058 0.382 Uiso 1 1 calc R . .
C61 C 0.6688(3) 0.4550(3) 0.9904(2) 0.306(6) Uani 1 1 d GU . .
H45 H 0.6670 0.4592 0.9726 0.368 Uiso 1 1 calc R . .
N14 N 0.6170(2) 0.3939(3) 0.9508(3) 0.272(5) Uani 1 1 d GU . .
C62 C 0.6033(3) 0.3772(2) 0.96237(19) 0.291(6) Uani 1 1 d GU . .
H46 H 0.6141 0.3675 0.9801 0.349 Uiso 1 1 calc R . .
C63 C 0.5734(3) 0.3749(3) 0.9476(3) 0.308(6) Uani 1 1 d GU . .
H47 H 0.5642 0.3636 0.9553 0.370 Uiso 1 1 calc R . .
C64 C 0.5573(2) 0.3894(3) 0.9211(3) 0.314(6) Uani 1 1 d GU . .
C65 C 0.5711(3) 0.4061(2) 0.9095(2) 0.300(7) Uani 1 1 d GU . .
H48 H 0.5603 0.4158 0.8918 0.360 Uiso 1 1 calc R . .
C66 C 0.6009(3) 0.4084(2) 0.9243(3) 0.276(6) Uani 1 1 d GU . .
H49 H 0.6101 0.4197 0.9165 0.331 Uiso 1 1 calc R . .
N15 N 0.5158(4) 0.3635(3) 0.9140(2) 0.312(5) Uani 1 1 d GU . .
C67 C 0.5266(2) 0.3886(4) 0.9067(3) 0.331(6) Uani 1 1 d GU . .
C68 C 0.5080(4) 0.4083(3) 0.8851(4) 0.381(8) Uani 1 1 d GU . .
H50 H 0.5153 0.4251 0.8802 0.457 Uiso 1 1 calc R . .
C69 C 0.4785(4) 0.4030(3) 0.8708(3) 0.394(9) Uani 1 1 d GU . .
H51 H 0.4660 0.4162 0.8564 0.473 Uiso 1 1 calc R . .
C70 C 0.4676(2) 0.3779(4) 0.8781(3) 0.382(8) Uani 1 1 d GU . .
H52 H 0.4479 0.3743 0.8685 0.458 Uiso 1 1 calc R . .
C71 C 0.4862(4) 0.3581(3) 0.8997(3) 0.327(7) Uani 1 1 d GU . .
N16 N 0.4570(3) 0.2828(2) 0.9272(3) 0.296(5) Uani 1 1 d GU . .
C72 C 0.4846(3) 0.2944(3) 0.9447(2) 0.303(7) Uani 1 1 d GU . .
H53 H 0.4966 0.2856 0.9626 0.364 Uiso 1 1 calc R . .
C73 C 0.4942(2) 0.3190(3) 0.9354(3) 0.310(6) Uani 1 1 d GU . .
H54 H 0.5126 0.3267 0.9471 0.372 Uiso 1 1 calc R . .
C74 C 0.4762(3) 0.3321(2) 0.9086(3) 0.303(6) Uani 1 1 d GU . .
C75 C 0.4486(3) 0.3205(3) 0.8912(2) 0.305(6) Uani 1 1 d GU . .
H55 H 0.4366 0.3293 0.8733 0.365 Uiso 1 1 calc R . .
C76 C 0.4391(2) 0.2959(3) 0.9005(3) 0.298(6) Uani 1 1 d GU . .
H56 H 0.4206 0.2882 0.8888 0.358 Uiso 1 1 calc R . .
N17 N 0.4271(3) 0.2830(2) 0.9571(3) 0.292(5) Uani 1 1 d GU . .
C77 C 0.4446(2) 0.2945(3) 0.9847(3) 0.295(6) Uani 1 1 d GU . .
H57 H 0.4624 0.2855 0.9968 0.354 Uiso 1 1 calc R . .
C78 C 0.4356(3) 0.3193(3) 0.9943(2) 0.298(6) Uani 1 1 d GU . .
H58 H 0.4473 0.3270 1.0128 0.358 Uiso 1 1 calc R . .
C79 C 0.4090(3) 0.3327(2) 0.9763(3) 0.305(6) Uani 1 1 d GU . .
C80 C 0.3914(2) 0.3212(3) 0.9487(3) 0.300(6) Uani 1 1 d GU . .
H59 H 0.3736 0.3302 0.9367 0.360 Uiso 1 1 calc R . .
C81 C 0.4005(3) 0.2964(3) 0.9391(2) 0.295(6) Uani 1 1 d GU . .
H60 H 0.3887 0.2887 0.9207 0.354 Uiso 1 1 calc R . .
N18 N 0.4140(2) 0.3636(3) 1.0161(4) 0.312(5) Uani 1 1 d GU . .
C82 C 0.3997(4) 0.3583(3) 0.9866(4) 0.325(6) Uani 1 1 d GU . .
C83 C 0.3780(3) 0.3780(4) 0.9680(2) 0.376(8) Uani 1 1 d GU . .
H61 H 0.3685 0.3745 0.9483 0.452 Uiso 1 1 calc R . .
C84 C 0.3707(3) 0.4030(3) 0.9790(4) 0.401(9) Uani 1 1 d GU . .
H62 H 0.3562 0.4162 0.9665 0.481 Uiso 1 1 calc R . .
C85 C 0.3850(4) 0.4083(3) 1.0085(4) 0.384(8) Uani 1 1 d GU . .
H63 H 0.3800 0.4250 1.0158 0.461 Uiso 1 1 calc R . .
C86 C 0.4066(3) 0.3886(4) 1.0271(2) 0.333(6) Uani 1 1 d GU . .
N19 N 0.4510(3) 0.3939(3) 1.1173(2) 0.269(5) Uani 1 1 d GU . .
C87 C 0.4628(2) 0.3774(2) 1.1035(3) 0.292(6) Uani 1 1 d GU . .
H64 H 0.4806 0.3680 1.1143 0.351 Uiso 1 1 calc R . .
C88 C 0.4480(3) 0.3751(3) 1.0736(3) 0.320(7) Uani 1 1 d GU . .
H65 H 0.4559 0.3641 1.0644 0.384 Uiso 1 1 calc R . .
C89 C 0.4214(3) 0.3893(3) 1.0576(2) 0.324(7) Uani 1 1 d GU . .
C90 C 0.4096(2) 0.4057(2) 1.0713(3) 0.305(7) Uani 1 1 d GU . .
H66 H 0.3918 0.4152 1.0606 0.367 Uiso 1 1 calc R . .
C91 C 0.4244(3) 0.4080(2) 1.1012(3) 0.277(6) Uani 1 1 d GU . .
H67 H 0.4165 0.4191 1.1104 0.332 Uiso 1 1 calc R . .
N20 N 0.4973(3) 0.4253(3) 1.1649(3) 0.311(5) Uani 1 1 d GU . .
C92 C 0.5243(3) 0.4189(2) 1.1683(3) 0.342(7) Uani 1 1 d GU . .
H68 H 0.5289 0.3991 1.1660 0.410 Uiso 1 1 calc R . .
C93 C 0.5443(2) 0.4422(4) 1.1751(3) 0.343(7) Uani 1 1 d GU . .
H69 H 0.5623 0.4379 1.1774 0.412 Uiso 1 1 calc R . .
C94 C 0.5373(3) 0.4719(3) 1.1784(3) 0.325(6) Uani 1 1 d GU . .
C95 C 0.5104(4) 0.4783(2) 1.1750(3) 0.309(6) Uani 1 1 d GU . .
H70 H 0.5057 0.4982 1.1772 0.371 Uiso 1 1 calc R . .
C96 C 0.4904(2) 0.4551(3) 1.1682(3) 0.299(6) Uani 1 1 d GU . .
H71 H 0.4724 0.4593 1.1659 0.359 Uiso 1 1 calc R . .
N21 N 0.5863(5) 0.4855(2) 1.1919(3) 0.348(6) Uani 1 1 d GU . .
C97 C 0.5590(4) 0.4951(4) 1.1854(3) 0.350(7) Uani 1 1 d GU . .
C98 C 0.5540(3) 0.5257(4) 1.1881(4) 0.407(8) Uani 1 1 d GU . .
H72 H 0.5357 0.5321 1.1838 0.488 Uiso 1 1 calc R . .
C99 C 0.5763(5) 0.5467(2) 1.1973(4) 0.437(10) Uani 1 1 d GU . .
H73 H 0.5729 0.5672 1.1991 0.525 Uiso 1 1 calc R . .
C100 C 0.6036(4) 0.5372(4) 1.2038(4) 0.434(9) Uani 1 1 d GU . .
H74 H 0.6185 0.5513 1.2099 0.521 Uiso 1 1 calc R . .
C101 C 0.6086(3) 0.5066(4) 1.2010(4) 0.378(7) Uani 1 1 d GU . .
N22 N 0.6868(3) 0.4675(4) 1.2178(3) 0.364(6) Uani 1 1 d GU . .
C102 C 0.6617(5) 0.4504(2) 1.2049(3) 0.361(8) Uani 1 1 d GU . .
H75 H 0.6622 0.4300 1.2002 0.433 Uiso 1 1 calc R . .
C103 C 0.6357(3) 0.4636(4) 1.1989(3) 0.362(8) Uani 1 1 d GU . .
H76 H 0.6188 0.4521 1.1903 0.435 Uiso 1 1 calc R . .
C104 C 0.6349(3) 0.4940(4) 1.2059(4) 0.366(7) Uani 1 1 d GU . .
C105 C 0.6601(5) 0.5112(2) 1.2188(4) 0.391(8) Uani 1 1 d GU . .
H77 H 0.6596 0.5315 1.2235 0.469 Uiso 1 1 calc R . .
C106 C 0.6861(3) 0.4979(4) 1.2248(3) 0.397(9) Uani 1 1 d GU . .
H78 H 0.7029 0.5094 1.2334 0.476 Uiso 1 1 calc R . .
N23 N 0.7351(4) 0.4376(4) 1.2651(3) 0.376(7) Uani 1 1 d GU . .
C107 C 0.7254(3) 0.4084(4) 1.2658(3) 0.382(8) Uani 1 1 d GU . .
H79 H 0.7148 0.3975 1.2488 0.459 Uiso 1 1 calc R . .
C108 C 0.7314(4) 0.3956(3) 1.2920(5) 0.398(8) Uani 1 1 d GU . .
H80 H 0.7249 0.3760 1.2924 0.478 Uiso 1 1 calc R . .
C109 C 0.7472(4) 0.4119(5) 1.3174(3) 0.428(8) Uani 1 1 d GU . .
C110 C 0.7569(3) 0.4411(4) 1.3166(3) 0.411(8) Uani 1 1 d GU . .
H81 H 0.7674 0.4521 1.3337 0.494 Uiso 1 1 calc R . .
C111 C 0.7509(4) 0.4540(3) 1.2905(5) 0.403(8) Uani 1 1 d GU . .
H82 H 0.7574 0.4735 1.2900 0.483 Uiso 1 1 calc R . .
N24 N 0.7410(4) 0.3754(5) 1.3463(4) 0.461(8) Uani 1 1 d GU . .
C112 C 0.7559(5) 0.4020(5) 1.3475(4) 0.476(9) Uani 1 1 d GU . .
C113 C 0.7753(5) 0.4146(4) 1.3740(6) 0.518(11) Uani 1 1 d GU . .
H83 H 0.7852 0.4323 1.3749 0.621 Uiso 1 1 calc R . .
C114 C 0.7799(4) 0.4007(6) 1.3993(4) 0.522(11) Uani 1 1 d GU . .
H84 H 0.7929 0.4092 1.4171 0.627 Uiso 1 1 calc R . .
C115 C 0.7651(6) 0.3742(6) 1.3981(4) 0.496(10) Uani 1 1 d GU . .
H85 H 0.7682 0.3649 1.4150 0.595 Uiso 1 1 calc R . .
C116 C 0.7457(5) 0.3616(3) 1.3716(6) 0.464(9) Uani 1 1 d GU . .
N25 N 0.6980(3) 0.2821(3) 1.3648(5) 0.372(7) Uani 1 1 d GU . .
C117 C 0.6983(3) 0.2930(4) 1.3406(3) 0.386(8) Uani 1 1 d GU . .
H86 H 0.6879 0.2829 1.3231 0.463 Uiso 1 1 calc R . .
C118 C 0.7140(4) 0.3190(4) 1.3425(4) 0.420(8) Uani 1 1 d GU . .
H87 H 0.7142 0.3263 1.3263 0.504 Uiso 1 1 calc R . .
C119 C 0.7295(4) 0.3341(3) 1.3687(5) 0.430(8) Uani 1 1 d GU . .
C120 C 0.7292(4) 0.3232(4) 1.3930(3) 0.415(9) Uani 1 1 d GU . .
H88 H 0.7396 0.3333 1.4105 0.498 Uiso 1 1 calc R . .
C121 C 0.7135(4) 0.2972(4) 1.3910(3) 0.407(8) Uani 1 1 d GU . .
H89 H 0.7133 0.2899 1.4072 0.488 Uiso 1 1 calc R . .
N26 N 0.6386(3) 0.2829(3) 1.3514(4) 0.359(7) Uani 1 1 d GU . .
C122 C 0.6212(4) 0.2912(3) 1.3227(3) 0.360(7) Uani 1 1 d GU . .
H90 H 0.6244 0.2828 1.3087 0.432 Uiso 1 1 calc R . .
C123 C 0.5990(3) 0.3120(4) 1.3150(2) 0.378(8) Uani 1 1 d GU . .
H91 H 0.5873 0.3176 1.2958 0.453 Uiso 1 1 calc R . .
C124 C 0.5941(3) 0.3246(3) 1.3360(4) 0.376(7) Uani 1 1 d GU . .
C125 C 0.6115(4) 0.3164(4) 1.3647(4) 0.367(7) Uani 1 1 d GU . .
H92 H 0.6083 0.3248 1.3788 0.440 Uiso 1 1 calc R . .
C126 C 0.6337(3) 0.2955(4) 1.3724(2) 0.350(7) Uani 1 1 d GU . .
H93 H 0.6453 0.2900 1.3916 0.420 Uiso 1 1 calc R . .
N27 N 0.5559(4) 0.3514(4) 1.3028(4) 0.387(7) Uani 1 1 d GU . .
C127 C 0.5720(3) 0.3452(3) 1.3321(5) 0.394(7) Uani 1 1 d GU . .
C128 C 0.5650(4) 0.3590(4) 1.3512(3) 0.413(8) Uani 1 1 d GU . .
H94 H 0.5758 0.3548 1.3708 0.496 Uiso 1 1 calc R . .
C129 C 0.5419(5) 0.3791(4) 1.3409(4) 0.432(9) Uani 1 1 d GU . .
H95 H 0.5372 0.3883 1.3537 0.518 Uiso 1 1 calc R . .
C130 C 0.5258(3) 0.3853(3) 1.3116(5) 0.412(8) Uani 1 1 d GU . .
H96 H 0.5103 0.3988 1.3048 0.494 Uiso 1 1 calc R . .
C131 C 0.5327(4) 0.3715(4) 1.2926(3) 0.388(7) Uani 1 1 d GU . .
N28 N 0.4909(3) 0.3864(3) 1.2029(2) 0.329(6) Uani 1 1 d GU . .
C132 C 0.5143(4) 0.3667(3) 1.2162(4) 0.347(7) Uani 1 1 d GU . .
H97 H 0.5205 0.3562 1.2053 0.416 Uiso 1 1 calc R . .
C133 C 0.5284(3) 0.3629(3) 1.2459(4) 0.359(8) Uani 1 1 d GU . .
H98 H 0.5441 0.3498 1.2549 0.431 Uiso 1 1 calc R . .
C134 C 0.5191(4) 0.3787(4) 1.2623(2) 0.368(7) Uani 1 1 d GU . .
C135 C 0.4957(4) 0.3983(3) 1.2489(4) 0.351(7) Uani 1 1 d GU . .
H99 H 0.4895 0.4089 1.2599 0.421 Uiso 1 1 calc R . .
C136 C 0.4815(2) 0.4022(2) 1.2192(4) 0.324(7) Uani 1 1 d GU . .
H100 H 0.4659 0.4153 1.2103 0.389 Uiso 1 1 calc R . .
N29 N 0.3434(3) 0.3560(2) 0.2890(3) 0.301(5) Uani 1 1 d GU . .
C137 C 0.3471(3) 0.3275(3) 0.3017(2) 0.296(6) Uani 1 1 d GU . .
H101 H 0.3479 0.3256 0.3194 0.356 Uiso 1 1 calc R . .
C138 C 0.3497(3) 0.3017(2) 0.2880(3) 0.308(6) Uani 1 1 d GU . .
H102 H 0.3522 0.2826 0.2965 0.370 Uiso 1 1 calc R . .
C139 C 0.3486(3) 0.3045(2) 0.2616(3) 0.298(6) Uani 1 1 d GU . .
C140 C 0.3449(3) 0.3330(3) 0.2489(2) 0.286(6) Uani 1 1 d GU . .
H103 H 0.3441 0.3349 0.2313 0.344 Uiso 1 1 calc R . .
C141 C 0.3423(3) 0.3588(2) 0.2626(3) 0.297(6) Uani 1 1 d GU . .
H104 H 0.3398 0.3779 0.2541 0.357 Uiso 1 1 calc R . .
N30 N 0.3497(5) 0.2500 0.2579(4) 0.311(7) Uani 1 2 d SDU . .
C142 C 0.3522(4) 0.2779(4) 0.2464(4) 0.307(6) Uani 1 1 d DU . .
C143 C 0.3600(4) 0.2753(5) 0.2257(4) 0.329(7) Uani 1 1 d DU . .
H105 H 0.3613 0.2935 0.2175 0.394 Uiso 1 1 calc R . .
C144 C 0.3658(7) 0.2500 0.2158(6) 0.336(10) Uani 1 2 d SDU . .
H106 H 0.3731 0.2500 0.2033 0.403 Uiso 1 2 calc SR . .
N31 N 0.5543(3) 0.3553(2) 0.7107(3) 0.293(5) Uani 1 1 d GU . .
C145 C 0.5451(2) 0.3268(3) 0.6982(2) 0.303(7) Uani 1 1 d GU . .
H107 H 0.5282 0.3249 0.6806 0.363 Uiso 1 1 calc R . .
C146 C 0.5611(3) 0.30094(19) 0.7122(3) 0.317(7) Uani 1 1 d GU . .
H108 H 0.5549 0.2818 0.7038 0.380 Uiso 1 1 calc R . .
C147 C 0.5863(3) 0.3037(2) 0.7386(3) 0.298(6) Uani 1 1 d GU . .
C148 C 0.5955(2) 0.3323(3) 0.7511(2) 0.288(6) Uani 1 1 d GU . .
H109 H 0.6123 0.3342 0.7688 0.346 Uiso 1 1 calc R . .
C149 C 0.5795(3) 0.3581(2) 0.7372(3) 0.289(6) Uani 1 1 d GU . .
H110 H 0.5856 0.3773 0.7455 0.347 Uiso 1 1 calc R . .
N32 N 0.5907(5) 0.2500 0.7423(4) 0.291(7) Uani 1 2 d SU . .
C150 C 0.6056(5) 0.2767(4) 0.7535(5) 0.295(6) Uani 1 1 d U . .
C151 C 0.6336(5) 0.2748(5) 0.7746(4) 0.315(7) Uani 1 1 d U . .
H111 H 0.6431 0.2933 0.7814 0.378 Uiso 1 1 calc R . .
C152 C 0.6494(8) 0.2500 0.7869(6) 0.325(10) Uani 1 2 d SU . .
H112 H 0.6685 0.2500 0.8018 0.390 Uiso 1 2 calc SR . .
N33 N 0.2345(3) 0.4363(4) 0.4694(3) 0.374(7) Uani 1 1 d GU . .
C153 C 0.2332(3) 0.4071(4) 0.4585(4) 0.382(8) Uani 1 1 d GU . .
H113 H 0.2500 0.3960 0.4645 0.459 Uiso 1 1 calc R . .
C154 C 0.2067(5) 0.3947(3) 0.4387(4) 0.404(8) Uani 1 1 d GU . .
H114 H 0.2058 0.3752 0.4314 0.484 Uiso 1 1 calc R . .
C155 C 0.1816(3) 0.4113(5) 0.4298(3) 0.431(8) Uani 1 1 d GU . .
C156 C 0.1829(3) 0.4405(4) 0.4406(4) 0.422(9) Uani 1 1 d GU . .
H115 H 0.1661 0.4516 0.4346 0.507 Uiso 1 1 calc R . .
C157 C 0.2094(5) 0.4529(3) 0.4605(4) 0.392(8) Uani 1 1 d GU . .
H116 H 0.2103 0.4724 0.4677 0.470 Uiso 1 1 calc R . .
N34 N 0.1536(4) 0.3754(5) 0.3948(5) 0.449(8) Uani 1 1 d GU . .
C158 C 0.1537(4) 0.4024(6) 0.4085(4) 0.463(8) Uani 1 1 d GU . .
C159 C 0.1279(6) 0.4167(3) 0.4016(5) 0.491(10) Uani 1 1 d GU . .
H117 H 0.1280 0.4348 0.4108 0.589 Uiso 1 1 calc R . .
C160 C 0.1019(4) 0.4041(6) 0.3808(5) 0.495(10) Uani 1 1 d GU . .
H118 H 0.0847 0.4137 0.3761 0.594 Uiso 1 1 calc R . .
C161 C 0.1018(4) 0.3772(6) 0.3670(4) 0.485(10) Uani 1 1 d GU . .
H119 H 0.0844 0.3688 0.3532 0.583 Uiso 1 1 calc R . .
C162 C 0.1276(6) 0.3628(3) 0.3740(5) 0.451(8) Uani 1 1 d GU . .
N35 N 0.1359(5) 0.2826(3) 0.3334(4) 0.384(7) Uani 1 1 d GU . .
C163 C 0.1600(3) 0.2937(4) 0.3580(5) 0.408(8) Uani 1 1 d GU . .
H120 H 0.1777 0.2841 0.3649 0.490 Uiso 1 1 calc R . .
C164 C 0.1575(4) 0.3191(5) 0.3721(3) 0.429(9) Uani 1 1 d GU . .
H121 H 0.1736 0.3265 0.3885 0.515 Uiso 1 1 calc R . .
C165 C 0.1310(5) 0.3334(3) 0.3618(5) 0.429(8) Uani 1 1 d GU . .
C166 C 0.1069(3) 0.3223(5) 0.3373(5) 0.422(8) Uani 1 1 d GU . .
H122 H 0.0892 0.3319 0.3303 0.507 Uiso 1 1 calc R . .
C167 C 0.1094(4) 0.2969(5) 0.3231(3) 0.405(8) Uani 1 1 d GU . .
H123 H 0.0933 0.2895 0.3067 0.485 Uiso 1 1 calc R . .
N36 N 0.1489(4) 0.2823(2) 0.2875(4) 0.333(6) Uani 1 1 d GU . .
C168 C 0.1773(3) 0.2919(4) 0.2989(2) 0.361(8) Uani 1 1 d GU . .
H124 H 0.1917 0.2838 0.3161 0.433 Uiso 1 1 calc R . .
C169 C 0.1842(3) 0.3137(4) 0.2844(4) 0.378(8) Uani 1 1 d GU . .
H125 H 0.2032 0.3201 0.2920 0.453 Uiso 1 1 calc R . .
C170 C 0.1627(5) 0.3259(3) 0.2586(4) 0.368(7) Uani 1 1 d GU . .
C171 C 0.1343(4) 0.3163(4) 0.2472(2) 0.362(8) Uani 1 1 d GU . .
H126 H 0.1200 0.3244 0.2299 0.434 Uiso 1 1 calc R . .
C172 C 0.1274(2) 0.2945(4) 0.2617(4) 0.351(8) Uani 1 1 d GU . .
H127 H 0.1085 0.2881 0.2540 0.421 Uiso 1 1 calc R . .
N37 N 0.1977(4) 0.3518(3) 0.2549(2) 0.361(7) Uani 1 1 d GU . .
C173 C 0.1686(5) 0.3447(3) 0.2411(4) 0.381(8) Uani 1 1 d GU . .
C174 C 0.1499(3) 0.3574(4) 0.2143(4) 0.421(9) Uani 1 1 d GU . .
H128 H 0.1303 0.3526 0.2050 0.505 Uiso 1 1 calc R . .
C175 C 0.1603(4) 0.3772(4) 0.2014(3) 0.433(10) Uani 1 1 d GU . .
H129 H 0.1478 0.3857 0.1835 0.520 Uiso 1 1 calc R . .
C176 C 0.1895(5) 0.3843(3) 0.2152(4) 0.427(9) Uani 1 1 d GU . .
H130 H 0.1965 0.3975 0.2066 0.512 Uiso 1 1 calc R . .
C177 C 0.2082(3) 0.3716(4) 0.2420(4) 0.379(7) Uani 1 1 d GU . .
N38 N 0.2984(2) 0.3863(3) 0.2896(3) 0.303(5) Uani 1 1 d GU . .
C178 C 0.2843(4) 0.3668(3) 0.2990(2) 0.339(7) Uani 1 1 d GU . .
H131 H 0.2947 0.3561 0.3161 0.407 Uiso 1 1 calc R . .
C179 C 0.2545(4) 0.3634(3) 0.2827(4) 0.361(7) Uani 1 1 d GU . .
H132 H 0.2451 0.3505 0.2890 0.434 Uiso 1 1 calc R . .
C180 C 0.2390(2) 0.3795(4) 0.2571(3) 0.355(7) Uani 1 1 d GU . .
C181 C 0.2531(4) 0.3989(3) 0.2477(2) 0.324(7) Uani 1 1 d GU . .
H133 H 0.2427 0.4096 0.2305 0.389 Uiso 1 1 calc R . .
C182 C 0.2828(4) 0.4023(2) 0.2640(3) 0.302(6) Uani 1 1 d GU . .
H134 H 0.2923 0.4153 0.2577 0.362 Uiso 1 1 calc R . .
N39 N 0.3343(3) 0.4252(3) 0.3316(3) 0.301(5) Uani 1 1 d GU . .
C183 C 0.3310(3) 0.4188(2) 0.3552(3) 0.325(7) Uani 1 1 d GU . .
H135 H 0.3331 0.3989 0.3620 0.390 Uiso 1 1 calc R . .
C184 C 0.3246(3) 0.4421(3) 0.3688(2) 0.328(7) Uani 1 1 d GU . .
H136 H 0.3225 0.4378 0.3845 0.394 Uiso 1 1 calc R . .
C185 C 0.3215(3) 0.4719(3) 0.3587(3) 0.330(7) Uani 1 1 d GU . .
C186 C 0.3248(3) 0.4783(2) 0.3351(3) 0.312(7) Uani 1 1 d GU . .
H137 H 0.3227 0.4982 0.3283 0.374 Uiso 1 1 calc R . .
C187 C 0.3312(3) 0.4550(3) 0.3216(2) 0.301(6) Uani 1 1 d GU . .
H138 H 0.3333 0.4593 0.3058 0.361 Uiso 1 1 calc R . .
N40 N 0.3081(3) 0.4861(2) 0.3950(4) 0.357(7) Uani 1 1 d GU . .
C188 C 0.3131(3) 0.4954(4) 0.3731(4) 0.353(7) Uani 1 1 d GU . .
C189 C 0.3105(4) 0.5261(4) 0.3654(3) 0.390(8) Uani 1 1 d GU . .
H139 H 0.3138 0.5323 0.3507 0.468 Uiso 1 1 calc R . .
C190 C 0.3029(4) 0.5474(2) 0.3797(4) 0.427(10) Uani 1 1 d GU . .
H140 H 0.3012 0.5679 0.3745 0.512 Uiso 1 1 calc R . .
C191 C 0.2979(4) 0.5381(4) 0.4016(4) 0.423(9) Uani 1 1 d GU . .
H141 H 0.2928 0.5523 0.4111 0.508 Uiso 1 1 calc R . .
C192 C 0.3005(4) 0.5075(4) 0.4093(3) 0.384(8) Uani 1 1 d GU . .
N41 N 0.2819(3) 0.4684(4) 0.4688(3) 0.378(7) Uani 1 1 d GU . .
C193 C 0.2951(3) 0.4505(2) 0.4573(4) 0.361(8) Uani 1 1 d GU . .
H142 H 0.2999 0.4304 0.4632 0.433 Uiso 1 1 calc R . .
C194 C 0.3012(3) 0.4628(4) 0.4370(4) 0.363(8) Uani 1 1 d GU . .
H143 H 0.3101 0.4508 0.4293 0.436 Uiso 1 1 calc R . .
C195 C 0.2941(4) 0.4929(4) 0.4282(3) 0.371(7) Uani 1 1 d GU . .
C196 C 0.2808(4) 0.5108(2) 0.4397(4) 0.382(9) Uani 1 1 d GU . .
H144 H 0.2760 0.5309 0.4338 0.458 Uiso 1 1 calc R . .
C197 C 0.2747(3) 0.4985(4) 0.4600(4) 0.385(9) Uani 1 1 d GU . .
H145 H 0.2659 0.5105 0.4676 0.462 Uiso 1 1 calc R . .
N42 N 0.3824(2) 0.3942(3) 0.3333(3) 0.273(5) Uani 1 1 d GU . .
C198 C 0.3958(3) 0.3772(2) 0.3586(3) 0.286(6) Uani 1 1 d GU . .
H146 H 0.3849 0.3676 0.3653 0.343 Uiso 1 1 calc R . .
C199 C 0.4257(3) 0.3746(2) 0.3738(2) 0.298(6) Uani 1 1 d GU . .
H147 H 0.4347 0.3633 0.3907 0.358 Uiso 1 1 calc R . .
C200 C 0.4421(2) 0.3890(3) 0.3638(3) 0.310(6) Uani 1 1 d GU . .
C201 C 0.4287(3) 0.4060(2) 0.3385(3) 0.292(6) Uani 1 1 d GU . .
H148 H 0.4396 0.4156 0.3318 0.350 Uiso 1 1 calc R . .
C202 C 0.3988(3) 0.4086(2) 0.3232(2) 0.274(6) Uani 1 1 d GU . .
H149 H 0.3898 0.4199 0.3063 0.329 Uiso 1 1 calc R . .
N43 N 0.4838(4) 0.3637(3) 0.3977(3) 0.311(5) Uani 1 1 d GU . .
C203 C 0.4728(2) 0.3883(4) 0.3789(3) 0.334(6) Uani 1 1 d GU . .
C204 C 0.4913(4) 0.4084(3) 0.3762(3) 0.375(8) Uani 1 1 d GU . .
H150 H 0.4840 0.4248 0.3636 0.450 Uiso 1 1 calc R . .
C205 C 0.5209(4) 0.4038(3) 0.3922(4) 0.378(8) Uani 1 1 d GU . .
H151 H 0.5334 0.4172 0.3903 0.453 Uiso 1 1 calc R . .
C206 C 0.5320(2) 0.3791(4) 0.4110(3) 0.359(7) Uani 1 1 d GU . .
H152 H 0.5518 0.3761 0.4217 0.431 Uiso 1 1 calc R . .
C207 C 0.5134(4) 0.3591(3) 0.4137(3) 0.320(6) Uani 1 1 d GU . .
N44 N 0.5423(4) 0.2829(2) 0.4693(2) 0.297(5) Uani 1 1 d GU . .
C208 C 0.5150(3) 0.2950(3) 0.4593(3) 0.299(6) Uani 1 1 d GU . .
H153 H 0.5027 0.2862 0.4649 0.359 Uiso 1 1 calc R . .
C209 C 0.5059(2) 0.3201(3) 0.4411(3) 0.308(6) Uani 1 1 d GU . .
H154 H 0.4876 0.3282 0.4344 0.369 Uiso 1 1 calc R . .
C210 C 0.5243(4) 0.3332(2) 0.4328(2) 0.310(6) Uani 1 1 d GU . .
C211 C 0.5517(3) 0.3212(3) 0.4427(3) 0.314(6) Uani 1 1 d GU . .
H155 H 0.5639 0.3299 0.4372 0.377 Uiso 1 1 calc R . .
C212 C 0.5607(2) 0.2960(3) 0.4610(3) 0.305(6) Uani 1 1 d GU . .
H156 H 0.5790 0.2880 0.4676 0.366 Uiso 1 1 calc R . .
N45 N 0.5728(3) 0.28303(19) 0.5302(2) 0.279(5) Uani 1 1 d GU . .
C213 C 0.5553(2) 0.2945(3) 0.5404(3) 0.291(6) Uani 1 1 d GU . .
H157 H 0.5375 0.2856 0.5347 0.350 Uiso 1 1 calc R . .
C214 C 0.5645(3) 0.3192(3) 0.5591(3) 0.298(6) Uani 1 1 d GU . .
H158 H 0.5529 0.3269 0.5659 0.358 Uiso 1 1 calc R . .
C215 C 0.5912(3) 0.3326(2) 0.5676(2) 0.306(6) Uani 1 1 d GU . .
C216 C 0.6086(2) 0.3211(3) 0.5574(3) 0.307(7) Uani 1 1 d GU . .
H159 H 0.6264 0.3300 0.5632 0.369 Uiso 1 1 calc R . .
C217 C 0.5994(3) 0.2963(3) 0.5387(3) 0.288(6) Uani 1 1 d GU . .
H160 H 0.6110 0.2887 0.5319 0.345 Uiso 1 1 calc R . .
N46 N 0.5864(2) 0.3629(3) 0.6017(4) 0.331(6) Uani 1 1 d GU . .
C218 C 0.5995(4) 0.3586(3) 0.5852(3) 0.330(7) Uani 1 1 d GU . .
C219 C 0.6208(4) 0.3787(4) 0.5879(3) 0.368(7) Uani 1 1 d GU . .
H161 H 0.6296 0.3758 0.5769 0.441 Uiso 1 1 calc R . .
C220 C 0.6289(3) 0.4030(3) 0.6070(4) 0.372(8) Uani 1 1 d GU . .
H162 H 0.6432 0.4164 0.6088 0.446 Uiso 1 1 calc R . .
C221 C 0.6158(4) 0.4073(3) 0.6235(3) 0.369(8) Uani 1 1 d GU . .
H163 H 0.6212 0.4236 0.6363 0.443 Uiso 1 1 calc R . .
C222 C 0.5945(3) 0.3872(4) 0.6208(3) 0.341(7) Uani 1 1 d GU . .
N47 N 0.5489(3) 0.3942(3) 0.6662(3) 0.283(5) Uani 1 1 d GU . .
C223 C 0.5374(2) 0.3774(2) 0.6408(3) 0.294(7) Uani 1 1 d GU . .
H164 H 0.5197 0.3677 0.6338 0.353 Uiso 1 1 calc R . .
C224 C 0.5524(3) 0.3750(2) 0.6260(2) 0.302(7) Uani 1 1 d GU . .
H165 H 0.5447 0.3638 0.6090 0.363 Uiso 1 1 calc R . .
C225 C 0.5788(3) 0.3894(3) 0.6364(3) 0.312(7) Uani 1 1 d GU . .
C226 C 0.5903(2) 0.4062(2) 0.6618(3) 0.293(7) Uani 1 1 d GU . .
H166 H 0.6081 0.4159 0.6688 0.352 Uiso 1 1 calc R . .
C227 C 0.5753(3) 0.4086(2) 0.6767(2) 0.279(7) Uani 1 1 d GU . .
H167 H 0.5830 0.4199 0.6936 0.334 Uiso 1 1 calc R . .
N48 N 0.5030(3) 0.4253(3) 0.6679(3) 0.316(6) Uani 1 1 d GU . .
C228 C 0.4761(3) 0.4186(2) 0.6444(3) 0.354(8) Uani 1 1 d GU . .
H168 H 0.4716 0.3987 0.6376 0.425 Uiso 1 1 calc R . .
C229 C 0.4559(2) 0.4418(4) 0.6312(3) 0.351(7) Uani 1 1 d GU . .
H169 H 0.4379 0.4373 0.6155 0.421 Uiso 1 1 calc R . .
C230 C 0.4626(3) 0.4715(3) 0.6414(3) 0.338(7) Uani 1 1 d GU . .
C231 C 0.4895(3) 0.47814(19) 0.6649(3) 0.307(6) Uani 1 1 d GU . .
H170 H 0.4941 0.4980 0.6717 0.368 Uiso 1 1 calc R . .
C232 C 0.5097(2) 0.4550(3) 0.6781(2) 0.299(6) Uani 1 1 d GU . .
H171 H 0.5277 0.4595 0.6938 0.359 Uiso 1 1 calc R . .
N49 N 0.4127(4) 0.4869(2) 0.6044(4) 0.362(7) Uani 1 1 d GU . .
C233 C 0.4397(4) 0.4962(3) 0.6261(4) 0.363(7) Uani 1 1 d GU . .
C234 C 0.4446(3) 0.5268(4) 0.6341(3) 0.401(9) Uani 1 1 d GU . .
H172 H 0.4626 0.5331 0.6486 0.482 Uiso 1 1 calc R . .
C235 C 0.4225(5) 0.5480(2) 0.6202(4) 0.429(9) Uani 1 1 d GU . .
H173 H 0.4258 0.5684 0.6256 0.514 Uiso 1 1 calc R . .
C236 C 0.3955(4) 0.5386(4) 0.5985(4) 0.430(9) Uani 1 1 d GU . .
H174 H 0.3808 0.5527 0.5892 0.516 Uiso 1 1 calc R . .
C237 C 0.3907(3) 0.5080(4) 0.5905(3) 0.390(8) Uani 1 1 d GU . .
N50 N 0.3121(3) 0.4687(4) 0.5302(3) 0.353(6) Uani 1 1 d GU . .
C238 C 0.3368(5) 0.4509(2) 0.5414(4) 0.357(8) Uani 1 1 d GU . .
H175 H 0.3358 0.4310 0.5350 0.428 Uiso 1 1 calc R . .
C239 C 0.3631(3) 0.4629(4) 0.5623(4) 0.362(8) Uani 1 1 d GU . .
H176 H 0.3797 0.4510 0.5698 0.434 Uiso 1 1 calc R . .
C240 C 0.3646(3) 0.4927(4) 0.5719(3) 0.373(7) Uani 1 1 d GU . .
C241 C 0.3398(5) 0.5104(2) 0.5606(4) 0.373(8) Uani 1 1 d GU . .
H177 H 0.3408 0.5304 0.5670 0.447 Uiso 1 1 calc R . .
C242 C 0.3135(3) 0.4984(4) 0.5398(4) 0.371(8) Uani 1 1 d GU . .
H178 H 0.2970 0.5103 0.5323 0.446 Uiso 1 1 calc R . .
N51 N 0.2650(4) 0.4349(5) 0.5303(3) 0.392(7) Uani 1 1 d GU . .
C243 C 0.2749(3) 0.4060(4) 0.5418(4) 0.401(8) Uani 1 1 d GU . .
H179 H 0.2861 0.3949 0.5363 0.481 Uiso 1 1 calc R . .
C244 C 0.2680(4) 0.3938(3) 0.5615(4) 0.394(8) Uani 1 1 d GU . .
H180 H 0.2746 0.3745 0.5692 0.472 Uiso 1 1 calc R . .
C245 C 0.2512(4) 0.4104(5) 0.5698(3) 0.420(8) Uani 1 1 d GU . .
C246 C 0.2413(3) 0.4393(4) 0.5583(4) 0.425(8) Uani 1 1 d GU . .
H181 H 0.2301 0.4504 0.5638 0.510 Uiso 1 1 calc R . .
C247 C 0.2482(4) 0.4515(3) 0.5386(4) 0.414(9) Uani 1 1 d GU . .
H182 H 0.2416 0.4708 0.5309 0.497 Uiso 1 1 calc R . .
N52 N 0.2593(4) 0.3751(5) 0.6055(5) 0.446(7) Uani 1 1 d GU . .
C248 C 0.2442(5) 0.4011(6) 0.5910(4) 0.439(8) Uani 1 1 d GU . .
C249 C 0.2255(4) 0.4149(3) 0.5985(5) 0.459(9) Uani 1 1 d GU . .
H183 H 0.2153 0.4323 0.5888 0.551 Uiso 1 1 calc R . .
C250 C 0.2218(4) 0.4026(5) 0.6204(5) 0.473(9) Uani 1 1 d GU . .
H184 H 0.2093 0.4118 0.6253 0.568 Uiso 1 1 calc R . .
C251 C 0.2369(5) 0.3765(6) 0.6348(4) 0.469(9) Uani 1 1 d GU . .
H185 H 0.2345 0.3683 0.6495 0.562 Uiso 1 1 calc R . .
C252 C 0.2557(4) 0.3628(3) 0.6274(5) 0.440(8) Uani 1 1 d GU . .
N53 N 0.3020(3) 0.2826(3) 0.6672(4) 0.385(7) Uani 1 1 d GU . .
C253 C 0.3021(3) 0.2939(4) 0.6430(4) 0.401(8) Uani 1 1 d GU . .
H186 H 0.3133 0.2845 0.6364 0.481 Uiso 1 1 calc R . .
C254 C 0.2855(4) 0.3192(5) 0.6286(3) 0.415(8) Uani 1 1 d GU . .
H187 H 0.2855 0.3267 0.6124 0.498 Uiso 1 1 calc R . .
C255 C 0.2687(3) 0.3332(3) 0.6384(4) 0.418(8) Uani 1 1 d GU . .
C256 C 0.2687(4) 0.3220(4) 0.6626(5) 0.408(8) Uani 1 1 d GU . .
H188 H 0.2575 0.3314 0.6692 0.490 Uiso 1 1 calc R . .
C257 C 0.2853(4) 0.2967(4) 0.6770(3) 0.396(8) Uani 1 1 d GU . .
H189 H 0.2853 0.2892 0.6932 0.475 Uiso 1 1 calc R . .
N54 N 0.3609(3) 0.2824(2) 0.7113(4) 0.344(6) Uani 1 1 d GU . .
C258 C 0.3782(4) 0.2926(3) 0.7005(2) 0.340(7) Uani 1 1 d GU . .
H190 H 0.3752 0.2852 0.6829 0.408 Uiso 1 1 calc R . .
C259 C 0.3998(3) 0.3138(4) 0.7159(4) 0.364(7) Uani 1 1 d GU . .
H191 H 0.4114 0.3206 0.7086 0.437 Uiso 1 1 calc R . .
C260 C 0.4042(3) 0.3248(3) 0.7421(4) 0.364(7) Uani 1 1 d GU . .
C261 C 0.3870(4) 0.3145(4) 0.7529(2) 0.349(7) Uani 1 1 d GU . .
H192 H 0.3899 0.3219 0.7705 0.419 Uiso 1 1 calc R . .
C262 C 0.3653(3) 0.2933(3) 0.7376(4) 0.350(7) Uani 1 1 d GU . .
H193 H 0.3538 0.2865 0.7448 0.420 Uiso 1 1 calc R . .
N55 N 0.4430(4) 0.3506(4) 0.7459(2) 0.375(7) Uani 1 1 d GU . .
C263 C 0.4275(3) 0.3437(3) 0.7596(4) 0.392(7) Uani 1 1 d GU . .
C264 C 0.4345(4) 0.3576(4) 0.7856(4) 0.416(8) Uani 1 1 d GU . .
H194 H 0.4241 0.3530 0.7947 0.500 Uiso 1 1 calc R . .
C265 C 0.4570(4) 0.3785(4) 0.7979(3) 0.423(9) Uani 1 1 d GU . .
H195 H 0.4617 0.3879 0.8153 0.508 Uiso 1 1 calc R . .
C266 C 0.4725(3) 0.3855(3) 0.7842(4) 0.400(8) Uani 1 1 d GU . .
H196 H 0.4876 0.3995 0.7924 0.480 Uiso 1 1 calc R . .
C267 C 0.4655(4) 0.3715(4) 0.7582(4) 0.380(7) Uani 1 1 d GU . .
N56 N 0.5083(3) 0.3867(3) 0.7104(4) 0.328(6) Uani 1 1 d GU . .
C268 C 0.4844(4) 0.3678(3) 0.7007(2) 0.346(8) Uani 1 1 d GU . .
H197 H 0.4772 0.3577 0.6832 0.415 Uiso 1 1 calc R . .
C269 C 0.4711(3) 0.3640(3) 0.7171(4) 0.361(8) Uani 1 1 d GU . .
H198 H 0.4551 0.3513 0.7106 0.434 Uiso 1 1 calc R . .
C270 C 0.4818(4) 0.3791(4) 0.7433(4) 0.364(7) Uani 1 1 d GU . .
C271 C 0.5057(4) 0.3980(3) 0.7530(2) 0.355(8) Uani 1 1 d GU . .
H199 H 0.5128 0.4081 0.7706 0.427 Uiso 1 1 calc R . .
C272 C 0.5189(2) 0.4018(2) 0.7366(4) 0.333(8) Uani 1 1 d GU . .
H200 H 0.5349 0.4145 0.7431 0.399 Uiso 1 1 calc R . .
N57 N -0.2110(3) 0.6445(2) -0.0541(3) 0.290(5) Uani 1 1 d GU . .
C273 C -0.1986(2) 0.6731(3) -0.0450(2) 0.301(7) Uani 1 1 d GU . .
H201 H -0.1811 0.6751 -0.0280 0.361 Uiso 1 1 calc R . .
C274 C -0.2122(3) 0.69879(19) -0.0615(3) 0.309(7) Uani 1 1 d GU . .
H202 H -0.2039 0.7179 -0.0555 0.370 Uiso 1 1 calc R . .
C275 C -0.2383(3) 0.6958(2) -0.0870(3) 0.294(6) Uani 1 1 d GU . .
C276 C -0.2508(2) 0.6672(3) -0.0961(2) 0.290(6) Uani 1 1 d GU . .
H203 H -0.2683 0.6652 -0.1131 0.348 Uiso 1 1 calc R . .
C277 C -0.2371(3) 0.6415(2) -0.0796(3) 0.294(7) Uani 1 1 d GU . .
H204 H -0.2455 0.6224 -0.0856 0.353 Uiso 1 1 calc R . .
N58 N -0.2418(4) 0.7500 -0.0909(4) 0.282(7) Uani 1 2 d SDU . .
C278 C -0.2538(4) 0.7233(4) -0.1056(4) 0.298(6) Uani 1 1 d DU . .
C279 C -0.2744(4) 0.7237(4) -0.1341(4) 0.317(7) Uani 1 1 d DU . .
H205 H -0.2823 0.7053 -0.1434 0.380 Uiso 1 1 calc R . .
C280 C -0.2839(6) 0.7500 -0.1496(7) 0.326(10) Uani 1 2 d SDU . .
H206 H -0.2961 0.7500 -0.1694 0.391 Uiso 1 2 calc SR . .
N59 N 0.2108(3) 0.6448(2) 0.1558(3) 0.299(5) Uani 1 1 d GU . .
C281 C 0.1982(2) 0.6733(3) 0.1525(3) 0.300(6) Uani 1 1 d GU . .
H207 H 0.1806 0.6751 0.1518 0.360 Uiso 1 1 calc R . .
C282 C 0.2120(3) 0.6992(2) 0.1503(3) 0.308(6) Uani 1 1 d GU . .
H208 H 0.2035 0.7183 0.1481 0.369 Uiso 1 1 calc R . .
C283 C 0.2383(3) 0.6966(2) 0.1514(3) 0.304(6) Uani 1 1 d GU . .
C284 C 0.2509(2) 0.6681(3) 0.1546(3) 0.296(6) Uani 1 1 d GU . .
H209 H 0.2686 0.6663 0.1553 0.356 Uiso 1 1 calc R . .
C285 C 0.2372(3) 0.6422(2) 0.1568(3) 0.295(6) Uani 1 1 d GU . .
H210 H 0.2456 0.6231 0.1590 0.354 Uiso 1 1 calc R . .
N60 N 0.2424(5) 0.7500 0.1509(5) 0.304(7) Uani 1 2 d SDU . .
C286 C 0.2544(4) 0.7224(4) 0.1496(4) 0.305(6) Uani 1 1 d DU . .
C287 C 0.2747(4) 0.7237(5) 0.1413(4) 0.329(7) Uani 1 1 d DU . .
H211 H 0.2831 0.7054 0.1407 0.395 Uiso 1 1 calc R . .
C288 C 0.2837(6) 0.7500 0.1336(7) 0.343(10) Uani 1 2 d SDU . .
H212 H 0.2945 0.7500 0.1244 0.412 Uiso 1 2 calc SR . .
N61 N -0.2110(3) 0.6134(3) -0.0083(3) 0.320(6) Uani 1 1 d GU . .
C289 C -0.2018(2) 0.6331(3) 0.0150(3) 0.340(7) Uani 1 1 d GU . .
H213 H -0.1847 0.6439 0.0217 0.408 Uiso 1 1 calc R . .
C290 C -0.2183(4) 0.6366(3) 0.0283(2) 0.349(7) Uani 1 1 d GU . .
H214 H -0.2122 0.6498 0.0439 0.419 Uiso 1 1 calc R . .
C291 C -0.2438(4) 0.6205(4) 0.0182(4) 0.354(7) Uani 1 1 d GU . .
C292 C -0.2530(2) 0.6008(3) -0.0051(4) 0.351(8) Uani 1 1 d GU . .
H215 H -0.2701 0.5900 -0.0118 0.421 Uiso 1 1 calc R . .
C293 C -0.2365(4) 0.5973(2) -0.0183(2) 0.328(8) Uani 1 1 d GU . .
H216 H -0.2426 0.5841 -0.0339 0.394 Uiso 1 1 calc R . .
N62 N -0.2455(2) 0.6491(4) 0.0573(4) 0.367(6) Uani 1 1 d GU . .
C294 C -0.2583(4) 0.6282(4) 0.0348(4) 0.374(7) Uani 1 1 d GU . .
C295 C -0.2848(4) 0.6155(3) 0.0275(3) 0.410(9) Uani 1 1 d GU . .
H217 H -0.2934 0.6015 0.0125 0.492 Uiso 1 1 calc R . .
C296 C -0.2986(3) 0.6235(4) 0.0428(4) 0.428(9) Uani 1 1 d GU . .
H218 H -0.3163 0.6150 0.0379 0.514 Uiso 1 1 calc R . .
C297 C -0.2858(4) 0.6444(4) 0.0653(4) 0.411(8) Uani 1 1 d GU . .
H219 H -0.2949 0.6498 0.0755 0.494 Uiso 1 1 calc R . .
C298 C -0.2592(4) 0.6571(3) 0.0726(3) 0.384(7) Uani 1 1 d GU . .
N63 N -0.2113(4) 0.7178(2) 0.1387(3) 0.348(6) Uani 1 1 d GU . .
C299 C -0.2007(2) 0.7072(4) 0.1213(4) 0.354(7) Uani 1 1 d GU . .
H220 H -0.1833 0.7145 0.1239 0.425 Uiso 1 1 calc R . .
C300 C -0.2162(4) 0.6856(4) 0.1001(3) 0.367(7) Uani 1 1 d GU . .
H221 H -0.2092 0.6785 0.0884 0.440 Uiso 1 1 calc R . .
C301 C -0.2422(4) 0.6747(3) 0.0963(3) 0.366(7) Uani 1 1 d GU . .
C302 C -0.2528(2) 0.6853(4) 0.1137(4) 0.357(7) Uani 1 1 d GU . .
H222 H -0.2702 0.6779 0.1111 0.429 Uiso 1 1 calc R . .
C303 C -0.2373(4) 0.7068(4) 0.1349(3) 0.355(7) Uani 1 1 d GU . .
H223 H -0.2443 0.7139 0.1465 0.425 Uiso 1 1 calc R . .
N64 N -0.1672(4) 0.7179(3) 0.1974(3) 0.402(7) Uani 1 1 d GU . .
C304 C -0.1425(5) 0.7072(4) 0.1981(4) 0.408(8) Uani 1 1 d GU . .
H224 H -0.1354 0.7171 0.1875 0.489 Uiso 1 1 calc R . .
C305 C -0.1282(3) 0.6818(5) 0.2145(4) 0.419(8) Uani 1 1 d GU . .
H225 H -0.1117 0.6746 0.2150 0.503 Uiso 1 1 calc R . .
C306 C -0.1388(5) 0.6670(3) 0.2304(3) 0.425(8) Uani 1 1 d GU . .
C307 C -0.1635(5) 0.6777(4) 0.2297(4) 0.413(8) Uani 1 1 d GU . .
H226 H -0.1706 0.6679 0.2403 0.496 Uiso 1 1 calc R . .
C308 C -0.1777(3) 0.7032(5) 0.2132(4) 0.414(8) Uani 1 1 d GU . .
H227 H -0.1943 0.7103 0.2127 0.497 Uiso 1 1 calc R . .
N65 N -0.1057(5) 0.6253(5) 0.2409(4) 0.450(7) Uani 1 1 d GU . .
C309 C -0.1266(5) 0.6381(3) 0.2459(4) 0.443(8) Uani 1 1 d GU . .
C310 C -0.1331(4) 0.6245(6) 0.2653(5) 0.479(9) Uani 1 1 d GU . .
H228 H -0.1471 0.6330 0.2686 0.574 Uiso 1 1 calc R . .
C311 C -0.1188(5) 0.5981(5) 0.2798(4) 0.485(9) Uani 1 1 d GU . .
H229 H -0.1232 0.5889 0.2928 0.581 Uiso 1 1 calc R . .
C312 C -0.0979(5) 0.5853(3) 0.2748(4) 0.468(9) Uani 1 1 d GU . .
H230 H -0.0884 0.5677 0.2845 0.561 Uiso 1 1 calc R . .
C313 C -0.0914(4) 0.5990(6) 0.2554(5) 0.443(8) Uani 1 1 d GU . .
N66 N -0.0305(3) 0.5632(5) 0.2341(4) 0.400(7) Uani 1 1 d GU . .
C314 C -0.0412(4) 0.5925(4) 0.2249(3) 0.406(8) Uani 1 1 d GU . .
H231 H -0.0355 0.6036 0.2138 0.487 Uiso 1 1 calc R . .
C315 C -0.0604(4) 0.6051(3) 0.2323(4) 0.400(8) Uani 1 1 d GU . .
H232 H -0.0676 0.6247 0.2261 0.480 Uiso 1 1 calc R . .
C316 C -0.0689(3) 0.5886(5) 0.2489(4) 0.426(8) Uani 1 1 d GU . .
C317 C -0.0582(4) 0.5593(5) 0.2581(4) 0.442(9) Uani 1 1 d GU . .
H233 H -0.0639 0.5482 0.2692 0.530 Uiso 1 1 calc R . .
C318 C -0.0390(4) 0.5466(3) 0.2507(4) 0.432(9) Uani 1 1 d GU . .
H234 H -0.0319 0.5271 0.2569 0.519 Uiso 1 1 calc R . .
N67 N -0.0311(3) 0.5319(4) 0.1873(3) 0.348(6) Uani 1 1 d GU . .
C319 C -0.0429(4) 0.5490(2) 0.1621(4) 0.358(8) Uani 1 1 d GU . .
H235 H -0.0374 0.5692 0.1626 0.430 Uiso 1 1 calc R . .
C320 C -0.0629(4) 0.5359(4) 0.1360(3) 0.354(7) Uani 1 1 d GU . .
H236 H -0.0708 0.5473 0.1192 0.425 Uiso 1 1 calc R . .
C321 C -0.0711(3) 0.5056(4) 0.1352(3) 0.360(7) Uani 1 1 d GU . .
C322 C -0.0593(4) 0.4885(2) 0.1604(4) 0.365(8) Uani 1 1 d GU . .
H237 H -0.0648 0.4683 0.1598 0.438 Uiso 1 1 calc R . .
C323 C -0.0393(3) 0.5016(4) 0.1864(3) 0.366(8) Uani 1 1 d GU . .
H238 H -0.0314 0.4902 0.2033 0.440 Uiso 1 1 calc R . .
N68 N -0.1058(4) 0.51480(19) 0.0864(5) 0.356(6) Uani 1 1 d GU . .
C324 C -0.0919(3) 0.4943(4) 0.1091(3) 0.386(7) Uani 1 1 d GU . .
C325 C -0.0983(4) 0.4633(4) 0.1045(4) 0.443(9) Uani 1 1 d GU . .
H239 H -0.0890 0.4496 0.1196 0.531 Uiso 1 1 calc R . .
C326 C -0.1185(4) 0.45290(19) 0.0772(5) 0.450(10) Uani 1 1 d GU . .
H240 H -0.1227 0.4322 0.0742 0.540 Uiso 1 1 calc R . .
C327 C -0.1323(4) 0.4734(4) 0.0546(3) 0.419(9) Uani 1 1 d GU . .
H241 H -0.1459 0.4664 0.0364 0.502 Uiso 1 1 calc R . .
C328 C -0.1260(4) 0.5044(4) 0.0592(4) 0.360(7) Uani 1 1 d GU . .
N69 N -0.1679(3) 0.5748(3) -0.0028(3) 0.308(6) Uani 1 1 d GU . .
C329 C -0.1446(3) 0.5814(2) 0.0242(3) 0.338(7) Uani 1 1 d GU . .
H242 H -0.1378 0.6013 0.0288 0.405 Uiso 1 1 calc R . .
C330 C -0.1314(3) 0.5582(3) 0.0444(2) 0.342(7) Uani 1 1 d GU . .
H243 H -0.1158 0.5627 0.0624 0.411 Uiso 1 1 calc R . .
C331 C -0.1415(3) 0.5285(3) 0.0375(3) 0.338(7) Uani 1 1 d GU . .
C332 C -0.1648(3) 0.52187(19) 0.0105(3) 0.315(7) Uani 1 1 d GU . .
H244 H -0.1716 0.5019 0.0059 0.378 Uiso 1 1 calc R . .
C333 C -0.1781(2) 0.5450(3) -0.0096(2) 0.296(6) Uani 1 1 d GU . .
H245 H -0.1937 0.5406 -0.0277 0.355 Uiso 1 1 calc R . .
N70 N -0.1660(3) 0.6059(3) -0.0486(3) 0.289(5) Uani 1 1 d GU . .
C334 C -0.1406(3) 0.6226(2) -0.0373(2) 0.301(7) Uani 1 1 d GU . .
H246 H -0.1333 0.6321 -0.0194 0.361 Uiso 1 1 calc R . .
C335 C -0.1261(2) 0.6252(3) -0.0526(3) 0.309(7) Uani 1 1 d GU . .
H247 H -0.1091 0.6364 -0.0451 0.371 Uiso 1 1 calc R . .
C336 C -0.1370(3) 0.6111(3) -0.0793(3) 0.313(7) Uani 1 1 d GU . .
C337 C -0.1624(3) 0.5944(2) -0.0906(2) 0.296(7) Uani 1 1 d GU . .
H248 H -0.1698 0.5850 -0.1085 0.355 Uiso 1 1 calc R . .
C338 C -0.1769(2) 0.5918(2) -0.0753(3) 0.281(7) Uani 1 1 d GU . .
H249 H -0.1939 0.5806 -0.0828 0.338 Uiso 1 1 calc R . .
N71 N -0.1022(4) 0.6362(3) -0.0860(2) 0.329(6) Uani 1 1 d GU . .
C339 C -0.1209(3) 0.6115(4) -0.0939(3) 0.339(7) Uani 1 1 d GU . .
C340 C -0.1233(3) 0.5915(3) -0.1151(4) 0.372(8) Uani 1 1 d GU . .
H250 H -0.1358 0.5749 -0.1204 0.447 Uiso 1 1 calc R . .
C341 C -0.1071(4) 0.5961(3) -0.1284(3) 0.382(9) Uani 1 1 d GU . .
H251 H -0.1087 0.5827 -0.1426 0.458 Uiso 1 1 calc R . .
C342 C -0.0884(3) 0.6209(4) -0.1205(3) 0.367(7) Uani 1 1 d GU . .
H252 H -0.0775 0.6240 -0.1294 0.440 Uiso 1 1 calc R . .
C343 C -0.0860(3) 0.6409(3) -0.0993(4) 0.335(7) Uani 1 1 d GU . .
N72 N -0.0303(2) 0.7168(2) -0.0729(3) 0.287(5) Uani 1 1 d GU . .
C344 C -0.0405(3) 0.7054(3) -0.0554(2) 0.292(6) Uani 1 1 d GU . .
H253 H -0.0346 0.7142 -0.0376 0.350 Uiso 1 1 calc R . .
C345 C -0.0594(3) 0.6808(3) -0.0647(3) 0.296(6) Uani 1 1 d GU . .
H254 H -0.0662 0.6732 -0.0530 0.355 Uiso 1 1 calc R . .
C346 C -0.0682(2) 0.6677(2) -0.0914(3) 0.304(6) Uani 1 1 d GU . .
C347 C -0.0580(3) 0.6791(3) -0.1089(2) 0.308(7) Uani 1 1 d GU . .
H255 H -0.0639 0.6702 -0.1268 0.369 Uiso 1 1 calc R . .
C348 C -0.0391(3) 0.7036(3) -0.0996(3) 0.293(6) Uani 1 1 d GU . .
H256 H -0.0323 0.7113 -0.1113 0.351 Uiso 1 1 calc R . .
N73 N 0.0303(2) 0.7169(2) -0.0425(3) 0.294(5) Uani 1 1 d GU . .
C349 C 0.0402(3) 0.7052(3) -0.0151(3) 0.296(6) Uani 1 1 d GU . .
H257 H 0.0345 0.7140 -0.0030 0.355 Uiso 1 1 calc R . .
C350 C 0.0587(3) 0.6802(3) -0.0057(2) 0.304(6) Uani 1 1 d GU . .
H258 H 0.0653 0.6723 0.0126 0.365 Uiso 1 1 calc R . .
C351 C 0.0673(2) 0.6670(2) -0.0238(4) 0.312(6) Uani 1 1 d GU . .
C352 C 0.0574(3) 0.6788(3) -0.0513(3) 0.311(6) Uani 1 1 d GU . .
H259 H 0.0631 0.6700 -0.0634 0.373 Uiso 1 1 calc R . .
C353 C 0.0389(3) 0.7038(3) -0.0606(2) 0.294(6) Uani 1 1 d GU . .
H260 H 0.0323 0.7116 -0.0790 0.353 Uiso 1 1 calc R . .
N74 N 0.1023(3) 0.6363(3) 0.0159(4) 0.323(5) Uani 1 1 d GU . .
C354 C 0.0862(3) 0.6412(3) -0.0137(4) 0.332(6) Uani 1 1 d GU . .
C355 C 0.0884(3) 0.6210(4) -0.0325(2) 0.376(7) Uani 1 1 d GU . .
H261 H 0.0777 0.6243 -0.0523 0.451 Uiso 1 1 calc R . .
C356 C 0.1066(4) 0.5959(3) -0.0217(4) 0.391(8) Uani 1 1 d GU . .
H262 H 0.1081 0.5824 -0.0343 0.469 Uiso 1 1 calc R . .
C357 C 0.1227(3) 0.5910(3) 0.0078(4) 0.386(8) Uani 1 1 d GU . .
H263 H 0.1349 0.5742 0.0150 0.464 Uiso 1 1 calc R . .
C358 C 0.1205(3) 0.6112(4) 0.0266(2) 0.342(6) Uani 1 1 d GU . .
N75 N 0.1662(3) 0.6060(3) 0.1173(2) 0.280(5) Uani 1 1 d GU . .
C359 C 0.1413(3) 0.6235(2) 0.1036(3) 0.296(6) Uani 1 1 d GU . .
H264 H 0.1346 0.6335 0.1144 0.355 Uiso 1 1 calc R . .
C360 C 0.1264(2) 0.6260(2) 0.0737(3) 0.298(6) Uani 1 1 d GU . .
H265 H 0.1097 0.6376 0.0645 0.357 Uiso 1 1 calc R . .
C361 C 0.1364(3) 0.6109(3) 0.0576(2) 0.303(6) Uani 1 1 d GU . .
C362 C 0.1614(3) 0.5935(2) 0.0714(3) 0.303(6) Uani 1 1 d GU . .
H266 H 0.1681 0.5834 0.0606 0.363 Uiso 1 1 calc R . .
C363 C 0.1763(2) 0.5910(2) 0.1012(3) 0.282(6) Uani 1 1 d GU . .
H267 H 0.1930 0.5793 0.1104 0.339 Uiso 1 1 calc R . .
N76 N 0.1687(3) 0.5748(3) 0.1658(3) 0.306(5) Uani 1 1 d GU . .
C364 C 0.1448(3) 0.5812(2) 0.1686(3) 0.323(7) Uani 1 1 d GU . .
H268 H 0.1380 0.6011 0.1664 0.387 Uiso 1 1 calc R . .
C365 C 0.1311(2) 0.5578(3) 0.1746(3) 0.322(6) Uani 1 1 d GU . .
H269 H 0.1151 0.5621 0.1765 0.387 Uiso 1 1 calc R . .
C366 C 0.1412(3) 0.5281(3) 0.1778(3) 0.331(7) Uani 1 1 d GU . .
C367 C 0.1651(3) 0.5217(2) 0.1750(3) 0.317(7) Uani 1 1 d GU . .
H270 H 0.1719 0.5018 0.1772 0.381 Uiso 1 1 calc R . .
C368 C 0.1788(2) 0.5451(3) 0.1690(3) 0.298(6) Uani 1 1 d GU . .
H271 H 0.1948 0.5408 0.1671 0.357 Uiso 1 1 calc R . .
N77 N 0.1046(4) 0.5135(2) 0.1916(3) 0.351(7) Uani 1 1 d GU . .
C369 C 0.1265(4) 0.5046(4) 0.1865(3) 0.358(7) Uani 1 1 d GU . .
C370 C 0.1347(3) 0.4741(4) 0.1893(4) 0.396(8) Uani 1 1 d GU . .
H272 H 0.1493 0.4682 0.1859 0.475 Uiso 1 1 calc R . .
C371 C 0.1209(4) 0.4525(2) 0.1972(3) 0.417(10) Uani 1 1 d GU . .
H273 H 0.1263 0.4322 0.1990 0.501 Uiso 1 1 calc R . .
C372 C 0.0989(4) 0.4614(4) 0.2023(4) 0.416(9) Uani 1 1 d GU . .
H274 H 0.0897 0.4470 0.2075 0.499 Uiso 1 1 calc R . .
C373 C 0.0908(3) 0.4919(4) 0.1995(4) 0.375(7) Uani 1 1 d GU . .
N78 N 0.0314(3) 0.5320(4) 0.2188(3) 0.367(7) Uani 1 1 d GU . .
C374 C 0.0430(4) 0.5498(2) 0.2056(3) 0.354(8) Uani 1 1 d GU . .
H275 H 0.0374 0.5700 0.2010 0.425 Uiso 1 1 calc R . .
C375 C 0.0630(4) 0.5372(4) 0.1992(3) 0.352(7) Uani 1 1 d GU . .
H276 H 0.0708 0.5490 0.1904 0.422 Uiso 1 1 calc R . .
C376 C 0.0713(3) 0.5069(4) 0.2060(4) 0.361(7) Uani 1 1 d GU . .
C377 C 0.0597(4) 0.4892(2) 0.2192(3) 0.370(8) Uani 1 1 d GU . .
H277 H 0.0653 0.4689 0.2238 0.444 Uiso 1 1 calc R . .
C378 C 0.0397(4) 0.5018(4) 0.2256(3) 0.382(8) Uani 1 1 d GU . .
H278 H 0.0320 0.4899 0.2344 0.458 Uiso 1 1 calc R . .
N79 N 0.0307(3) 0.5634(5) 0.2653(3) 0.382(7) Uani 1 1 d GU . .
C379 C 0.0415(4) 0.5927(4) 0.2670(3) 0.386(8) Uani 1 1 d GU . .
H279 H 0.0358 0.6039 0.2502 0.463 Uiso 1 1 calc R . .
C380 C 0.0608(4) 0.6051(3) 0.2936(5) 0.410(9) Uani 1 1 d GU . .
H280 H 0.0681 0.6247 0.2947 0.492 Uiso 1 1 calc R . .
C381 C 0.0694(3) 0.5883(5) 0.3186(3) 0.430(8) Uani 1 1 d GU . .
C382 C 0.0586(4) 0.5591(5) 0.3169(3) 0.428(9) Uani 1 1 d GU . .
H281 H 0.0643 0.5478 0.3337 0.514 Uiso 1 1 calc R . .
C383 C 0.0393(4) 0.5466(3) 0.2903(5) 0.408(8) Uani 1 1 d GU . .
H282 H 0.0320 0.5271 0.2891 0.490 Uiso 1 1 calc R . .
N80 N 0.1057(5) 0.6263(5) 0.3467(4) 0.450(8) Uani 1 1 d GU . .
C384 C 0.0915(4) 0.5995(6) 0.3461(4) 0.448(8) Uani 1 1 d GU . .
C385 C 0.0980(5) 0.5850(3) 0.3718(6) 0.479(10) Uani 1 1 d GU . .
H283 H 0.0885 0.5671 0.3714 0.575 Uiso 1 1 calc R . .
C386 C 0.1187(5) 0.5973(5) 0.3979(4) 0.488(10) Uani 1 1 d GU . .
H284 H 0.1230 0.5876 0.4151 0.585 Uiso 1 1 calc R . .
C387 C 0.1329(4) 0.6240(6) 0.3985(4) 0.478(10) Uani 1 1 d GU . .
H285 H 0.1468 0.6322 0.4161 0.574 Uiso 1 1 calc R . .
C388 C 0.1264(5) 0.6385(3) 0.3729(6) 0.444(8) Uani 1 1 d GU . .
N81 N 0.1671(4) 0.7179(3) 0.3658(5) 0.385(7) Uani 1 1 d GU . .
C389 C 0.1430(4) 0.7072(4) 0.3411(3) 0.392(8) Uani 1 1 d GU . .
H286 H 0.1366 0.7173 0.3236 0.471 Uiso 1 1 calc R . .
C390 C 0.1284(3) 0.6816(5) 0.3424(3) 0.405(8) Uani 1 1 d GU . .
H287 H 0.1123 0.6745 0.3259 0.486 Uiso 1 1 calc R . .
C391 C 0.1380(4) 0.6666(3) 0.3685(5) 0.406(7) Uani 1 1 d GU . .
C392 C 0.1621(5) 0.6773(4) 0.3933(3) 0.411(8) Uani 1 1 d GU . .
H288 H 0.1685 0.6673 0.4107 0.493 Uiso 1 1 calc R . .
C393 C 0.1767(3) 0.7029(5) 0.3919(3) 0.399(8) Uani 1 1 d GU . .
H289 H 0.1928 0.7101 0.4084 0.479 Uiso 1 1 calc R . .
N82 N 0.2124(4) 0.7172(3) 0.3511(4) 0.347(6) Uani 1 1 d GU . .
C394 C 0.2009(2) 0.7075(4) 0.3228(3) 0.364(8) Uani 1 1 d GU . .
H290 H 0.1834 0.7154 0.3084 0.436 Uiso 1 1 calc R . .
C395 C 0.2155(4) 0.6860(4) 0.3158(3) 0.384(8) Uani 1 1 d GU . .
H291 H 0.2078 0.6795 0.2969 0.461 Uiso 1 1 calc R . .
C396 C 0.2416(4) 0.6742(3) 0.3372(5) 0.377(7) Uani 1 1 d GU . .
C397 C 0.2530(2) 0.6839(4) 0.3655(4) 0.369(8) Uani 1 1 d GU . .
H292 H 0.2705 0.6760 0.3798 0.442 Uiso 1 1 calc R . .
C398 C 0.2384(4) 0.7054(4) 0.3725(2) 0.364(8) Uani 1 1 d GU . .
H293 H 0.2461 0.7119 0.3914 0.437 Uiso 1 1 calc R . .
N83 N 0.2459(2) 0.6491(4) 0.3037(4) 0.376(7) Uani 1 1 d GU . .
C399 C 0.2599(4) 0.6566(3) 0.3328(5) 0.399(8) Uani 1 1 d GU . .
C400 C 0.2864(4) 0.6434(4) 0.3517(3) 0.421(9) Uani 1 1 d GU . .
H294 H 0.2958 0.6484 0.3711 0.505 Uiso 1 1 calc R . .
C401 C 0.2988(3) 0.6227(4) 0.3414(4) 0.442(10) Uani 1 1 d GU . .
H295 H 0.3165 0.6139 0.3541 0.530 Uiso 1 1 calc R . .
C402 C 0.2848(4) 0.6152(3) 0.3123(5) 0.422(9) Uani 1 1 d GU . .
H296 H 0.2931 0.6013 0.3055 0.506 Uiso 1 1 calc R . .
C403 C 0.2583(4) 0.6284(4) 0.2935(3) 0.383(7) Uani 1 1 d GU . .
N84 N 0.2100(3) 0.6139(3) 0.2015(2) 0.310(6) Uani 1 1 d GU . .
C404 C 0.2000(2) 0.6321(3) 0.2159(4) 0.338(7) Uani 1 1 d GU . .
H297 H 0.1825 0.6422 0.2056 0.405 Uiso 1 1 calc R . .
C405 C 0.2162(4) 0.6350(3) 0.2457(4) 0.378(8) Uani 1 1 d GU . .
H298 H 0.2095 0.6472 0.2553 0.454 Uiso 1 1 calc R . .
C406 C 0.2423(3) 0.6198(4) 0.2610(2) 0.364(7) Uani 1 1 d GU . .
C407 C 0.2523(2) 0.6017(3) 0.2466(4) 0.335(7) Uani 1 1 d GU . .
H299 H 0.2698 0.5915 0.2568 0.402 Uiso 1 1 calc R . .
C408 C 0.2362(3) 0.5987(2) 0.2168(4) 0.323(7) Uani 1 1 d GU . .
H300 H 0.2428 0.5866 0.2071 0.388 Uiso 1 1 calc R . .
Pd1 Pd 0.66894(7) 0.2500 1.35826(5) 0.3261(12) Uani 1 2 d S . .
Pd2 Pd 0.47049(4) 0.39093(3) 1.16024(4) 0.2795(7) Uani 1 1 d . . .
Pd3 Pd 0.44315(4) 0.2500 0.94313(4) 0.2684(9) Uani 1 2 d S . .
Pd4 Pd 0.66025(4) 0.39095(3) 0.97052(4) 0.2799(8) Uani 1 1 d . . .
Pd5 Pd 0.85826(5) 0.2500 1.16904(6) 0.3254(11) Uani 1 2 d S . .
Pd6 Pd 0.72611(5) 0.45263(4) 1.22612(5) 0.3346(9) Uani 1 1 d . . .
Pd7 Pd 0.33111(7) 0.2500 0.68932(6) 0.3261(12) Uani 1 2 d S . .
Pd8 Pd 0.27392(5) 0.45263(4) 0.49997(4) 0.3358(9) Uani 1 1 d . . .
Pd9 Pd 0.14173(5) 0.2500 0.31062(6) 0.3266(12) Uani 1 2 d S . .
Pd10 Pd 0.33982(4) 0.39091(3) 0.31026(4) 0.2783(7) Uani 1 1 d . . .
Pd11 Pd 0.55685(4) 0.2500 0.50007(5) 0.2672(9) Uani 1 2 d S . .
Pd12 Pd 0.52954(4) 0.39099(3) 0.68975(4) 0.2785(7) Uani 1 1 d . . .
Pd13 Pd 0.18933(6) 0.7500 0.35826(5) 0.3256(12) Uani 1 2 d S . .
Pd14 Pd 0.18978(4) 0.60905(3) 0.16020(4) 0.2782(7) Uani 1 1 d . . .
Pd15 Pd -0.00006(5) 0.7500 -0.05679(4) 0.2669(9) Uani 1 2 d S . .
Pd16 Pd -0.18973(4) 0.60901(3) -0.02947(4) 0.2784(7) Uani 1 1 d . . .
Pd17 Pd -0.18928(6) 0.7500 0.16895(6) 0.3266(12) Uani 1 2 d S . .
Pd18 Pd 0.00002(5) 0.54734(4) 0.22621(5) 0.3366(9) Uani 1 1 d . . .
B1 B 0.6331(9) 0.2500 1.2579(7) 0.33(2) Uiso 0.60 2 d SPDU . .
F1A F 0.6473(6) 0.2500 1.2880(6) 0.381(13) Uiso 0.60 2 d SPDU A .
F1B F 0.6266(14) 0.2806(6) 1.2496(12) 0.65(5) Uiso 0.30 1 d PDU A -1
F1C F 0.6073(9) 0.2337(10) 1.2479(11) 0.57(4) Uiso 0.30 1 d PDU A -1
F1D F 0.6518(12) 0.2381(12) 1.2494(11) 0.61(4) Uiso 0.30 1 d PDU A -1
B2 B 0.7039(9) 0.2500 1.4526(8) 0.202(19) Uiso 0.40 2 d SPDU . .
F2A F 0.6853(10) 0.2500 1.4226(8) 0.42(2) Uiso 0.40 2 d SPDU B .
F2B F 0.7288(10) 0.2656(11) 1.4588(13) 0.51(4) Uiso 0.20 1 d PDU B -1
F2C F 0.7075(13) 0.2190(5) 1.4597(11) 0.43(3) Uiso 0.20 1 d PDU B -1
F2D F 0.6916(10) 0.2647(8) 1.4662(9) 0.34(2) Uiso 0.20 1 d PDU B -1
B3 B 0.5394(5) 0.3223(5) 1.1587(6) 0.319(12) Uiso 0.80 1 d PDU . .
F3A F 0.5192(4) 0.3422(3) 1.1590(3) 0.383(7) Uiso 0.80 1 d PDU C .
F3B F 0.5666(9) 0.3363(14) 1.170(3) 0.65(3) Uiso 0.40 1 d PDU C 1
F3C F 0.5302(18) 0.317(3) 1.1296(7) 0.65(3) Uiso 0.40 1 d PDU C 1
F3D F 0.539(2) 0.2961(15) 1.173(3) 0.69(3) Uiso 0.40 1 d PDU C 1
F3F F 0.5581(18) 0.317(2) 1.1884(7) 0.65(3) Uiso 0.40 1 d PDU C 2
F3G F 0.554(2) 0.3364(14) 1.146(3) 0.64(3) Uiso 0.40 1 d PDU C 2
F3H F 0.5285(11) 0.2945(13) 1.145(2) 0.62(3) Uiso 0.40 1 d PDU C 2
B4 B 0.4215(5) 0.4620(5) 1.1591(6) 0.481(19) Uiso 0.80 1 d PDU . .
F4A F 0.4306(3) 0.4314(3) 1.1620(3) 0.378(7) Uiso 0.80 1 d PDU D .
F4B F 0.4067(3) 0.4502(3) 1.1698(4) 0.135(5) Uiso 0.40 1 d PDU D 1
F4C F 0.4434(10) 0.4818(11) 1.1773(14) 0.90(5) Uiso 0.40 1 d PDU D 1
F4D F 0.3982(10) 0.4737(10) 1.1333(7) 0.56(2) Uiso 0.40 1 d PDU D 1
F4F F 0.3958(3) 0.4490(3) 1.1519(4) 0.170(7) Uiso 0.40 1 d PDU D 2
F4G F 0.4246(10) 0.4756(9) 1.1850(7) 0.53(2) Uiso 0.40 1 d PDU D 2
F4H F 0.4218(15) 0.4802(11) 1.1384(12) 0.80(4) Uiso 0.40 1 d PDU D 2
B5 B 0.5219(8) 0.2500 1.0307(7) 0.40(3) Uiso 0.60 2 d SPDU . .
F5A F 0.5035(5) 0.2500 1.0015(5) 0.319(9) Uiso 0.60 2 d SPDU E .
F5B F 0.5091(12) 0.2625(13) 1.0459(11) 0.67(4) Uiso 0.30 1 d PDU E -1
F5C F 0.5459(8) 0.2652(10) 1.0343(10) 0.53(3) Uiso 0.30 1 d PDU E -1
F5D F 0.5283(14) 0.2190(6) 1.0379(13) 0.76(6) Uiso 0.30 1 d PDU E -1
B6 B 0.3617(7) 0.2500 0.8578(7) 0.35(2) Uiso 0.80 2 d SPDU . .
F6A F 0.3867(6) 0.2500 0.8855(6) 0.418(11) Uiso 0.80 2 d SPDU F .
F6B F 0.3414(7) 0.2370(8) 0.8637(8) 0.52(3) Uiso 0.40 1 d PDU F -1
F6C F 0.3704(10) 0.2363(10) 0.8401(9) 0.65(4) Uiso 0.40 1 d PDU F -1
F6D F 0.3553(10) 0.2818(5) 0.8513(9) 0.56(3) Uiso 0.40 1 d PDU F -1
B7 B 0.6605(5) 0.3204(5) 1.0384(5) 0.297(11) Uiso 0.80 1 d PDU . .
F7A F 0.6587(3) 0.3426(3) 1.0191(3) 0.370(6) Uiso 0.80 1 d PDU G .
F7B F 0.6331(8) 0.3081(17) 1.0285(15) 0.61(3) Uiso 0.40 1 d PDU G 1
F7C F 0.670(2) 0.3352(12) 1.0645(9) 0.71(4) Uiso 0.40 1 d PDU G 1
F7D F 0.6799(17) 0.2985(13) 1.0387(18) 0.63(3) Uiso 0.40 1 d PDU G 1
F7F F 0.6447(19) 0.3312(14) 1.0508(17) 0.63(3) Uiso 0.40 1 d PDU G 2
F7G F 0.6894(7) 0.3139(17) 1.0575(15) 0.63(3) Uiso 0.40 1 d PDU G 2
F7H F 0.647(2) 0.2931(10) 1.0237(11) 0.64(3) Uiso 0.40 1 d PDU G 2
B8 B 0.6617(6) 0.4612(5) 0.9223(5) 0.562(19) Uiso 1 1 d DU . .
F8A F 0.6625(3) 0.4308(3) 0.9307(3) 0.410(6) Uiso 1 1 d DU H .
F8B F 0.6523(15) 0.4816(11) 0.9349(14) 1.06(5) Uiso 0.50 1 d PDU H 1
F8C F 0.6863(6) 0.4640(7) 0.9186(8) 0.463(15) Uiso 0.50 1 d PDU H 1
F8D F 0.6407(7) 0.4553(7) 0.8926(5) 0.442(16) Uiso 0.50 1 d PDU H 1
F8F F 0.6349(9) 0.4770(11) 0.9098(13) 0.81(3) Uiso 0.50 1 d PDU H 2
F8G F 0.6876(10) 0.4774(11) 0.9403(11) 0.86(4) Uiso 0.50 1 d PDU H 2
F8H F 0.6631(3) 0.44909(18) 0.9024(2) 0.125(3) Uiso 0.50 1 d PDU H 2
B9 B 0.7570(7) 0.2500 1.1288(8) 0.32(2) Uiso 0.60 2 d SPDU . .
F9A F 0.7868(6) 0.2500 1.1476(6) 0.360(12) Uiso 0.60 2 d SPDU I .
F9B F 0.7473(10) 0.2383(12) 1.1465(12) 0.59(4) Uiso 0.30 1 d PDU I -1
F9C F 0.7484(13) 0.2804(7) 1.1205(14) 0.68(5) Uiso 0.30 1 d PDU I -1
F9D F 0.7507(12) 0.2324(11) 1.1042(9) 0.60(4) Uiso 0.30 1 d PDU I -1
B10 B 0.9479(9) 0.2500 1.2033(9) 0.41(3) Uiso 0.60 2 d SPDU . .
F10A F 0.9192(8) 0.2500 1.1808(10) 0.59(3) Uiso 0.60 2 d SPDU J .
F10B F 0.9648(8) 0.2662(7) 1.1951(9) 0.41(2) Uiso 0.30 1 d PDU J -1
F10C F 0.9570(12) 0.2198(6) 1.2083(14) 0.64(5) Uiso 0.30 1 d PDU J -1
F10D F 0.9493(15) 0.2647(13) 1.2271(11) 0.78(6) Uiso 0.30 1 d PDU J -1
B11 B 0.6970(8) 0.3609(7) 1.1876(8) 0.48(3) Uiso 0.50 1 d PDU . .
F11A F 0.6967(5) 0.3889(4) 1.1991(4) 0.334(9) Uiso 0.50 1 d PDU . .
F11B F 0.6679(7) 0.3540(8) 1.1716(7) 0.528(19) Uiso 0.50 1 d PDU . .
F11C F 0.7090(11) 0.3639(11) 1.1694(10) 0.71(3) Uiso 0.50 1 d PDU . .
F11D F 0.7135(9) 0.3410(8) 1.2105(8) 0.60(2) Uiso 0.50 1 d PDU . .
B12 B 0.7640(5) 0.5436(5) 1.2641(5) 0.360(12) Uiso 1 1 d DU . .
F12A F 0.7536(4) 0.5142(4) 1.2541(4) 0.540(10) Uiso 1 1 d DU K .
F12B F 0.7427(12) 0.5630(9) 1.2424(12) 0.67(3) Uiso 0.50 1 d PDU K 1
F12C F 0.7638(18) 0.5487(13) 1.2897(11) 0.67(3) Uiso 0.50 1 d PDU K 1
F12D F 0.7899(10) 0.5494(12) 1.2647(18) 0.64(3) Uiso 0.50 1 d PDU K 1
F12F F 0.7475(12) 0.5604(12) 1.2730(17) 0.69(3) Uiso 0.50 1 d PDU K 2
F12G F 0.7900(9) 0.5353(9) 1.2888(10) 0.59(2) Uiso 0.50 1 d PDU K 2
F12H F 0.7708(19) 0.5606(11) 1.2460(12) 0.69(3) Uiso 0.50 1 d PDU K 2
B13 B 0.3645(9) 0.2500 0.6233(9) 0.37(3) Uiso 0.60 2 d SPDU . .
F13A F 0.3518(6) 0.2500 0.6405(6) 0.371(12) Uiso 0.60 2 d SPDU L .
F13B F 0.3881(12) 0.2301(13) 0.6365(15) 0.68(6) Uiso 0.30 1 d PDU L -1
F13C F 0.3428(13) 0.2402(16) 0.5964(9) 0.67(4) Uiso 0.30 1 d PDU L -1
F13D F 0.3736(16) 0.2798(8) 0.6232(16) 0.70(5) Uiso 0.30 1 d PDU L -1
B14 B 0.2962(9) 0.2500 0.7538(9) 0.31(2) Uiso 0.60 2 d SPDU . .
F14A F 0.3134(9) 0.2500 0.7410(9) 0.54(2) Uiso 0.60 2 d SPDU M .
F14B F 0.3079(12) 0.2336(10) 0.7797(9) 0.57(4) Uiso 0.30 1 d PDU M -1
F14C F 0.2717(9) 0.2337(9) 0.7346(11) 0.53(3) Uiso 0.30 1 d PDU M -1
F14D F 0.2923(13) 0.2802(6) 0.7589(13) 0.57(4) Uiso 0.30 1 d PDU M -1
B15 B 0.3077(7) 0.3589(6) 0.5010(7) 0.60(3) Uiso 0.60 1 d PDU . .
F15A F 0.3013(5) 0.3895(4) 0.4985(5) 0.391(10) Uiso 0.60 1 d PDU N .
F15B F 0.298(4) 0.3451(16) 0.519(4) 0.74(4) Uiso 0.30 1 d PDU N 1
F15C F 0.293(3) 0.3473(16) 0.4726(10) 0.72(4) Uiso 0.30 1 d PDU N 1
F15D F 0.3371(10) 0.3558(13) 0.511(4) 0.62(4) Uiso 0.30 1 d PDU N 1
F15F F 0.2821(11) 0.3419(12) 0.490(4) 0.70(4) Uiso 0.30 1 d PDU N 2
F15G F 0.323(3) 0.3531(15) 0.487(3) 0.64(4) Uiso 0.30 1 d PDU N 2
F15H F 0.325(4) 0.3543(16) 0.5312(8) 0.71(4) Uiso 0.30 1 d PDU N 2
B16 B 0.2362(5) 0.5441(5) 0.4991(5) 0.386(13) Uiso 1 1 d DU . .
F16A F 0.2457(4) 0.5142(4) 0.4999(4) 0.540(10) Uiso 1 1 d DU O .
F16B F 0.2100(9) 0.5364(9) 0.4980(17) 0.57(2) Uiso 0.50 1 d PDU O 1
F16C F 0.2533(13) 0.5605(11) 0.5245(10) 0.69(3) Uiso 0.50 1 d PDU O 1
F16D F 0.231(2) 0.5593(11) 0.4739(11) 0.69(3) Uiso 0.50 1 d PDU O 1
F16F F 0.2350(18) 0.5497(12) 0.5242(10) 0.63(3) Uiso 0.50 1 d PDU O 2
F16G F 0.2589(11) 0.5613(9) 0.4991(19) 0.66(3) Uiso 0.50 1 d PDU O 2
F16H F 0.2101(11) 0.5478(12) 0.4730(10) 0.65(3) Uiso 0.50 1 d PDU O 2
B17 B 0.2429(8) 0.2500 0.3723(10) 0.41(3) Uiso 0.60 2 d SPDU . .
F17A F 0.2133(7) 0.2500 0.3614(6) 0.381(13) Uiso 0.60 2 d SPDU P .
F17B F 0.2539(11) 0.2379(13) 0.3996(10) 0.65(4) Uiso 0.30 1 d PDU P -1
F17C F 0.2501(13) 0.2334(12) 0.3542(14) 0.68(5) Uiso 0.30 1 d PDU P -1
F17D F 0.2507(13) 0.2810(6) 0.3728(15) 0.71(5) Uiso 0.30 1 d PDU P -1
B18 B 0.0459(9) 0.2500 0.2497(9) 0.35(3) Uiso 0.60 2 d SPDU . .
F18A F 0.0758(8) 0.2500 0.2610(10) 0.57(3) Uiso 0.60 2 d SPDU Q .
F18B F 0.0388(11) 0.2809(5) 0.2461(12) 0.54(3) Uiso 0.30 1 d PDU Q -1
F18C F 0.0410(13) 0.2343(11) 0.2695(12) 0.62(4) Uiso 0.30 1 d PDU Q -1
F18D F 0.0315(10) 0.2350(9) 0.2234(9) 0.52(3) Uiso 0.30 1 d PDU Q -1
B19 B 0.3417(6) 0.3213(5) 0.3794(5) 0.373(14) Uiso 0.90 1 d PDU . .
F19A F 0.3401(4) 0.3426(4) 0.3594(4) 0.429(7) Uiso 0.90 1 d PDU R .
F19B F 0.3585(18) 0.3345(13) 0.4063(7) 0.67(3) Uiso 0.45 1 d PDU R 1
F19C F 0.354(2) 0.2941(11) 0.3758(17) 0.70(3) Uiso 0.45 1 d PDU R 1
F19D F 0.3133(7) 0.3157(19) 0.3726(16) 0.71(3) Uiso 0.45 1 d PDU R 1
F19F F 0.336(2) 0.3367(13) 0.3985(15) 0.74(4) Uiso 0.45 1 d PDU R 2
F19G F 0.3702(9) 0.3107(19) 0.3926(17) 0.70(3) Uiso 0.45 1 d PDU R 2
F19H F 0.3229(19) 0.2973(14) 0.3649(11) 0.73(3) Uiso 0.45 1 d PDU R 2
B20 B 0.3409(6) 0.4608(5) 0.2623(5) 0.554(19) Uiso 1 1 d DU . .
F20A F 0.3374(3) 0.4303(3) 0.2676(3) 0.402(6) Uiso 1 1 d DU S .
F20B F 0.3208(14) 0.4773(11) 0.2665(16) 0.97(4) Uiso 0.50 1 d PDU S 1
F20C F 0.3674(8) 0.4759(11) 0.2716(12) 0.74(3) Uiso 0.50 1 d PDU S 1
F20D F 0.3349(3) 0.4495(2) 0.2389(2) 0.136(3) Uiso 0.50 1 d PDU S 1
F20F F 0.3148(6) 0.4694(8) 0.2362(7) 0.522(18) Uiso 0.50 1 d PDU S 2
F20G F 0.3568(14) 0.4801(11) 0.2843(10) 0.97(4) Uiso 0.50 1 d PDU S 2
F20H F 0.3552(6) 0.4505(5) 0.2473(6) 0.350(12) Uiso 0.50 1 d PDU S 2
B21 B 0.4698(7) 0.2500 0.4888(8) 0.43(3) Uiso 0.60 2 d SPDU . .
F21A F 0.4991(5) 0.2500 0.5017(5) 0.310(9) Uiso 0.60 2 d SPDU T .
F21B F 0.4562(11) 0.2651(11) 0.4623(9) 0.63(4) Uiso 0.30 1 d PDU T -1
F21C F 0.4644(13) 0.2183(5) 0.4854(14) 0.71(5) Uiso 0.30 1 d PDU T -1
F21D F 0.4668(10) 0.2631(10) 0.5105(10) 0.53(3) Uiso 0.30 1 d PDU T -1
B22 B 0.6414(7) 0.2500 0.5017(7) 0.335(19) Uiso 0.80 2 d SPDU . .
F22A F 0.6143(6) 0.2500 0.5004(6) 0.435(12) Uiso 0.80 2 d SPDU U .
F22B F 0.6347(8) 0.2617(8) 0.4749(7) 0.50(2) Uiso 0.40 1 d PDU U -1
F22C F 0.6499(10) 0.2193(6) 0.5029(10) 0.59(3) Uiso 0.40 1 d PDU U -1
F22D F 0.6599(8) 0.2651(9) 0.5272(8) 0.61(3) Uiso 0.40 1 d PDU U -1
B23 B 0.4630(6) 0.3212(5) 0.6222(6) 0.370(15) Uiso 0.80 1 d PDU . .
F23A F 0.4806(4) 0.3439(4) 0.6400(3) 0.384(7) Uiso 0.80 1 d PDU V .
F23B F 0.4757(16) 0.2921(8) 0.6300(17) 0.72(4) Uiso 0.40 1 d PDU V 1
F23C F 0.462(2) 0.3314(16) 0.5967(8) 0.62(3) Uiso 0.40 1 d PDU V 1
F23D F 0.4370(12) 0.321(2) 0.622(2) 0.78(4) Uiso 0.40 1 d PDU V 1
F23F F 0.4780(12) 0.3026(17) 0.613(2) 0.69(4) Uiso 0.40 1 d PDU V 2
F23G F 0.4394(14) 0.3346(12) 0.5987(14) 0.72(4) Uiso 0.40 1 d PDU V 2
F23H F 0.455(2) 0.3039(16) 0.6397(12) 0.67(3) Uiso 0.40 1 d PDU V 2
B24 B 0.5782(5) 0.4621(5) 0.7386(5) 0.563(19) Uiso 1 1 d DU . .
F24A F 0.5696(3) 0.4311(3) 0.7312(3) 0.437(7) Uiso 1 1 d DU W .
F24B F 0.6080(4) 0.4532(6) 0.7515(6) 0.378(13) Uiso 0.50 1 d PDU W 1
F24C F 0.5807(8) 0.4699(7) 0.7659(7) 0.492(16) Uiso 0.50 1 d PDU W 1
F24D F 0.5719(15) 0.4846(10) 0.7188(10) 1.00(4) Uiso 0.50 1 d PDU W 1
F24F F 0.5943(12) 0.4782(11) 0.7285(12) 0.77(3) Uiso 0.50 1 d PDU W 2
F24G F 0.5963(2) 0.44951(18) 0.76090(19) 0.125(3) Uiso 0.50 1 d PDU W 2
F24H F 0.5546(10) 0.4778(11) 0.7373(16) 0.94(4) Uiso 0.50 1 d PDU W 2
B25 B 0.1262(9) 0.7500 0.2583(7) 0.32(2) Uiso 0.60 2 d SPDU . .
F25A F 0.1402(6) 0.7500 0.2883(6) 0.366(12) Uiso 0.60 2 d SPDU X .
F25B F 0.1440(12) 0.7646(11) 0.2498(11) 0.61(4) Uiso 0.30 1 d PDU X -1
F25C F 0.0995(9) 0.7625(12) 0.2493(11) 0.60(4) Uiso 0.30 1 d PDU X -1
F25D F 0.1242(14) 0.7190(6) 0.2506(12) 0.64(4) Uiso 0.30 1 d PDU X -1
B26 B 0.2466(10) 0.7500 0.4514(9) 0.46(3) Uiso 0.60 2 d SPDU . .
F26A F 0.2374(10) 0.7500 0.4217(8) 0.54(2) Uiso 0.60 2 d SPDU Y .
F26B F 0.2480(15) 0.7800(7) 0.4606(13) 0.64(4) Uiso 0.30 1 d PDU Y -1
F26C F 0.2736(10) 0.7362(11) 0.4660(10) 0.55(4) Uiso 0.30 1 d PDU Y -1
F26D F 0.2288(14) 0.7310(13) 0.4570(15) 0.74(6) Uiso 0.30 1 d PDU Y -1
B27 B 0.1214(6) 0.6772(5) 0.1609(6) 0.348(14) Uiso 0.80 1 d PDU . .
F27A F 0.1398(4) 0.6565(4) 0.1585(4) 0.395(7) Uiso 0.80 1 d PDU Z .
F27B F 0.1289(19) 0.677(2) 0.1899(8) 0.72(4) Uiso 0.40 1 d PDU Z 1
F27C F 0.1239(19) 0.7068(8) 0.153(2) 0.71(4) Uiso 0.40 1 d PDU Z 1
F27D F 0.0939(7) 0.6651(17) 0.1426(18) 0.65(3) Uiso 0.40 1 d PDU Z 1
F27F F 0.1036(17) 0.6594(12) 0.167(2) 0.71(4) Uiso 0.40 1 d PDU Z 2
F27G F 0.1403(10) 0.6961(16) 0.1838(15) 0.64(3) Uiso 0.40 1 d PDU Z 2
F27H F 0.1065(17) 0.6939(18) 0.1359(11) 0.67(3) Uiso 0.40 1 d PDU Z 2
B28 B 0.2380(5) 0.5385(5) 0.1588(6) 0.552(19) Uiso 1 1 d DU . .
F28A F 0.2318(3) 0.5690(3) 0.1628(3) 0.430(7) Uiso 1 1 d DU A .
F28B F 0.2626(8) 0.5289(8) 0.1852(6) 0.539(19) Uiso 0.50 1 d PDU A 1
F28C F 0.2150(9) 0.5201(11) 0.1427(13) 0.95(5) Uiso 0.50 1 d PDU A 1
F28D F 0.2533(5) 0.5501(5) 0.1450(6) 0.340(11) Uiso 0.50 1 d PDU A 1
F28F F 0.2361(16) 0.5214(11) 0.1802(13) 0.94(5) Uiso 0.50 1 d PDU A 2
F28G F 0.2295(12) 0.5235(11) 0.1327(8) 0.73(3) Uiso 0.50 1 d PDU A 2
F28H F 0.2615(2) 0.55027(19) 0.1656(3) 0.130(3) Uiso 0.50 1 d PDU A 2
B29 B 0.0113(8) 0.7500 0.0312(6) 0.60(4) Uiso 0.80 2 d SPDU . .
F29A F -0.0004(5) 0.7500 0.0016(5) 0.367(9) Uiso 0.80 2 d SPDU B .
F29B F 0.0383(9) 0.7364(12) 0.0470(10) 0.75(4) Uiso 0.40 1 d PDU B -1
F29C F 0.0144(14) 0.7818(6) 0.0372(13) 0.91(6) Uiso 0.40 1 d PDU B -1
F29D F -0.0122(10) 0.7381(12) 0.0319(10) 0.68(4) Uiso 0.40 1 d PDU B -1
B30 B -0.0022(8) 0.7500 -0.1423(7) 0.36(2) Uiso 0.80 2 d SPDU . .
F30A F -0.0010(6) 0.7500 -0.1152(6) 0.467(14) Uiso 0.80 2 d SPDU C .
F30B F 0.0241(8) 0.7633(8) -0.1362(8) 0.51(2) Uiso 0.40 1 d PDU C -1
F30C F -0.0272(9) 0.7654(10) -0.1624(9) 0.67(4) Uiso 0.40 1 d PDU C -1
F30D F -0.0027(10) 0.7186(5) -0.1498(10) 0.56(3) Uiso 0.40 1 d PDU C -1
B31 B -0.1212(6) 0.6785(5) 0.0386(6) 0.353(14) Uiso 0.80 1 d PDU . .
F31A F -0.1392(4) 0.6565(4) 0.0193(4) 0.404(7) Uiso 0.80 1 d PDU D .
F31B F -0.109(3) 0.6673(19) 0.0667(7) 0.78(4) Uiso 0.40 1 d PDU D 1
F31C F -0.0996(19) 0.682(3) 0.031(2) 0.70(3) Uiso 0.40 1 d PDU D 1
F31D F -0.1377(13) 0.7048(14) 0.034(3) 0.72(4) Uiso 0.40 1 d PDU D 1
F31F F -0.1343(19) 0.689(3) 0.054(2) 0.69(4) Uiso 0.40 1 d PDU D 2
F31G F -0.0942(11) 0.6649(15) 0.056(2) 0.73(4) Uiso 0.40 1 d PDU D 2
F31H F -0.118(3) 0.7035(18) 0.0244(12) 0.72(4) Uiso 0.40 1 d PDU D 2
B32 B -0.2384(5) 0.5381(5) -0.0782(5) 0.568(19) Uiso 1 1 d DU . .
F32A F -0.2318(3) 0.5690(3) -0.0691(3) 0.437(7) Uiso 1 1 d DU E .
F32B F -0.2410(15) 0.5207(11) -0.0572(11) 0.93(5) Uiso 0.50 1 d PDU E 1
F32C F -0.2288(12) 0.5217(11) -0.0944(12) 0.74(3) Uiso 0.50 1 d PDU E 1
F32D F -0.2613(2) 0.55020(19) -0.0960(2) 0.135(3) Uiso 0.50 1 d PDU E 1
F32F F -0.2641(8) 0.5286(9) -0.0783(10) 0.55(2) Uiso 0.50 1 d PDU E 2
F32G F -0.2196(11) 0.5163(11) -0.0774(15) 0.99(5) Uiso 0.50 1 d PDU E 2
F32H F -0.2531(6) 0.5494(5) -0.1076(4) 0.363(13) Uiso 0.50 1 d PDU E 2
B33 B -0.1269(9) 0.7500 0.1290(9) 0.35(3) Uiso 0.60 2 d SPDU . .
F33A F -0.1381(6) 0.7500 0.1476(6) 0.376(12) Uiso 0.60 2 d SPDU F .
F33B F -0.1272(14) 0.7191(6) 0.1217(13) 0.65(5) Uiso 0.30 1 d PDU F -1
F33C F -0.0995(9) 0.7622(13) 0.1455(13) 0.66(4) Uiso 0.30 1 d PDU F -1
F33D F -0.1448(13) 0.7668(11) 0.1039(10) 0.62(4) Uiso 0.30 1 d PDU F -1
B34 B -0.2498(9) 0.7500 0.2049(8) 0.31(2) Uiso 0.60 2 d SPDU . .
F34A F -0.2396(9) 0.7500 0.1855(9) 0.51(2) Uiso 0.60 2 d SPDU G .
F34B F -0.2757(9) 0.7343(8) 0.1935(10) 0.47(3) Uiso 0.30 1 d PDU G -1
F34C F -0.2538(13) 0.7800(6) 0.2103(12) 0.57(4) Uiso 0.30 1 d PDU G -1
F34D F -0.2297(11) 0.7329(10) 0.2285(9) 0.58(4) Uiso 0.30 1 d PDU G -1
B35 B 0.0003(7) 0.6416(6) 0.1909(7) 0.60(3) Uiso 0.60 1 d PDU . .
F35A F 0.0005(5) 0.6109(4) 0.1964(5) 0.392(10) Uiso 0.60 1 d PDU H .
F35B F -0.014(4) 0.6572(14) 0.203(4) 0.70(4) Uiso 0.30 1 d PDU H 1
F35C F -0.013(4) 0.6457(13) 0.1611(8) 0.65(4) Uiso 0.30 1 d PDU H 1
F35D F 0.0290(9) 0.6522(17) 0.203(4) 0.67(4) Uiso 0.30 1 d PDU H 1
F35F F -0.0295(9) 0.6481(17) 0.173(4) 0.74(4) Uiso 0.30 1 d PDU H 2
F35G F 0.014(4) 0.6482(14) 0.176(4) 0.62(3) Uiso 0.30 1 d PDU H 2
F35H F 0.012(4) 0.6588(12) 0.2163(11) 0.66(4) Uiso 0.30 1 d PDU H 2
B36 B 0.0004(5) 0.4562(5) 0.2631(5) 0.306(12) Uiso 0.80 1 d PDU . .
F36A F -0.0004(5) 0.4859(4) 0.2533(5) 0.481(10) Uiso 0.80 1 d PDU I .
F36B F -0.0240(11) 0.4511(13) 0.2655(18) 0.59(3) Uiso 0.40 1 d PDU I 1
F36C F 0.0271(9) 0.4513(12) 0.2874(12) 0.55(3) Uiso 0.40 1 d PDU I 1
F36D F -0.0008(19) 0.4371(9) 0.2411(11) 0.60(3) Uiso 0.40 1 d PDU I 1
F36F F 0.0027(16) 0.4640(9) 0.2897(9) 0.48(2) Uiso 0.40 1 d PDU I 2
F36G F 0.0238(12) 0.4387(11) 0.2671(19) 0.60(3) Uiso 0.40 1 d PDU I 2
F36H F -0.0255(9) 0.4400(11) 0.2468(13) 0.59(3) Uiso 0.40 1 d PDU I 2
B51 B 0.4616(6) 0.5500(6) 1.1694(6) 0.47(3) Uiso 0.50 1 d PDU . .
F51A F 0.4597(4) 0.5184(4) 1.1706(4) 0.311(8) Uiso 0.50 1 d PDU . .
F51B F 0.4858(5) 0.5558(5) 1.1687(6) 0.411(12) Uiso 0.50 1 d PDU . .
F51C F 0.4387(5) 0.5590(5) 1.1437(5) 0.385(11) Uiso 0.50 1 d PDU . .
F51D F 0.4605(5) 0.5621(5) 1.1924(5) 0.367(10) Uiso 0.50 1 d PDU . .
B52 B 0.3344(6) 0.6446(6) 0.1671(6) 0.47(3) Uiso 0.50 1 d PDU . .
F52A F 0.3329(5) 0.6755(5) 0.1664(5) 0.396(11) Uiso 0.50 1 d PDU . .
F52B F 0.3085(5) 0.6331(5) 0.1617(5) 0.398(11) Uiso 0.50 1 d PDU . .
F52C F 0.3418(5) 0.6336(5) 0.1479(5) 0.368(10) Uiso 0.50 1 d PDU . .
F52D F 0.3543(5) 0.6340(5) 0.1936(5) 0.373(10) Uiso 0.50 1 d PDU . .
B53 B 0.4616(6) 0.4506(6) 0.2925(6) 0.44(3) Uiso 0.50 1 d PDU . .
F53A F 0.4606(4) 0.4820(4) 0.2893(4) 0.322(8) Uiso 0.50 1 d PDU . .
F53B F 0.4858(5) 0.4458(5) 0.3180(5) 0.378(11) Uiso 0.50 1 d PDU . .
F53C F 0.4379(5) 0.4417(5) 0.2938(5) 0.392(11) Uiso 0.50 1 d PDU . .
F53D F 0.4609(5) 0.4386(5) 0.2685(5) 0.367(10) Uiso 0.50 1 d PDU . .
B54 B -0.2071(6) 0.4507(6) -0.0384(6) 0.43(3) Uiso 0.50 1 d PDU . .
F54A F -0.2111(4) 0.4820(4) -0.0394(4) 0.317(8) Uiso 0.50 1 d PDU . .
F54B F -0.1812(5) 0.4464(5) -0.0149(5) 0.389(11) Uiso 0.50 1 d PDU . .
F54C F -0.2065(5) 0.4431(5) -0.0629(5) 0.382(11) Uiso 0.50 1 d PDU . .
F54D F -0.2306(5) 0.4385(5) -0.0382(5) 0.362(10) Uiso 0.50 1 d PDU . .
B55 B -0.3328(6) 0.6428(7) -0.1670(6) 0.47(3) Uiso 0.50 1 d PDU . .
F55A F -0.3331(6) 0.6742(5) -0.1660(6) 0.410(12) Uiso 0.50 1 d PDU . .
F55B F -0.3520(5) 0.6327(5) -0.1591(5) 0.387(11) Uiso 0.50 1 d PDU . .
F55C F -0.3057(5) 0.6334(5) -0.1480(5) 0.357(10) Uiso 0.50 1 d PDU . .
F55D F -0.3392(5) 0.6335(5) -0.1938(5) 0.384(11) Uiso 0.50 1 d PDU . .
B56 B 0.3301(6) 0.4492(6) 0.0373(6) 0.47(3) Uiso 0.50 1 d PDU . .
F56A F 0.3284(4) 0.4810(4) 0.0390(4) 0.317(8) Uiso 0.50 1 d PDU . .
F56B F 0.3318(5) 0.4449(5) 0.0132(5) 0.360(10) Uiso 0.50 1 d PDU . .
F56C F 0.3564(5) 0.4427(5) 0.0612(5) 0.384(11) Uiso 0.50 1 d PDU . .
F56D F 0.3075(5) 0.4372(5) 0.0393(5) 0.369(10) Uiso 0.50 1 d PDU . .
B57 B 0.2081(6) 0.4501(6) 0.1698(6) 0.47(3) Uiso 0.50 1 d PDU . .
F57A F 0.2106(4) 0.4819(4) 0.1715(4) 0.320(8) Uiso 0.50 1 d PDU . .
F57B F 0.1823(5) 0.4437(5) 0.1678(5) 0.395(11) Uiso 0.50 1 d PDU . .
F57C F 0.2054(5) 0.4422(5) 0.1437(5) 0.364(10) Uiso 0.50 1 d PDU . .
F57D F 0.2324(5) 0.4368(5) 0.1918(5) 0.360(10) Uiso 0.50 1 d PDU . .
B58 B 0.3303(6) 0.5502(6) 0.2930(6) 0.43(3) Uiso 0.50 1 d PDU . .
F58A F 0.3298(4) 0.5186(4) 0.2903(4) 0.309(8) Uiso 0.50 1 d PDU . .
F58B F 0.3331(5) 0.5548(5) 0.3190(5) 0.384(11) Uiso 0.50 1 d PDU . .
F58C F 0.3558(5) 0.5584(5) 0.2944(5) 0.374(10) Uiso 0.50 1 d PDU . .
F58D F 0.3077(5) 0.5616(5) 0.2682(4) 0.358(10) Uiso 0.50 1 d PDU . .
B59 B 0.6668(8) 0.5010(7) 0.8329(7) 0.40(3) Uiso 0.30 1 d PDU . .
F59A F 0.6667(8) 0.4702(6) 0.8323(8) 0.376(17) Uiso 0.30 1 d PDU . .
F59B F 0.6703(8) 0.5101(7) 0.8587(7) 0.350(15) Uiso 0.30 1 d PDU . .
F59C F 0.6891(7) 0.5140(6) 0.8314(7) 0.322(13) Uiso 0.30 1 d PDU . .
F59D F 0.6421(7) 0.5120(8) 0.8104(7) 0.396(19) Uiso 0.30 1 d PDU . .
B60 B 0.0647(8) 0.6371(8) -0.1150(9) 0.44(4) Uiso 0.30 1 d PDU . .
F60A F 0.0621(13) 0.6416(12) -0.1421(9) 0.60(4) Uiso 0.30 1 d PDU . .
F60B F 0.0392(8) 0.6348(8) -0.1146(9) 0.393(18) Uiso 0.30 1 d PDU . .
F60C F 0.0798(8) 0.6620(7) -0.0980(8) 0.364(16) Uiso 0.30 1 d PDU . .
F60D F 0.0779(9) 0.6088(7) -0.1061(9) 0.400(19) Uiso 0.30 1 d PDU . .
B61 B -0.0635(9) 0.6397(8) -0.1804(8) 0.42(4) Uiso 0.30 1 d PDU . .
F61A F -0.0580(12) 0.6489(11) -0.2024(10) 0.54(3) Uiso 0.30 1 d PDU . .
F61B F -0.0387(8) 0.6349(9) -0.1541(8) 0.43(2) Uiso 0.30 1 d PDU . .
F61C F -0.0782(9) 0.6118(7) -0.1870(9) 0.41(2) Uiso 0.30 1 d PDU . .
F61D F -0.0793(8) 0.6628(7) -0.1771(8) 0.379(17) Uiso 0.30 1 d PDU . .
B62 B 0.6134(9) 0.3610(8) 0.4344(8) 0.42(4) Uiso 0.30 1 d PDU . .
F62A F 0.6408(9) 0.3541(13) 0.4385(14) 0.64(4) Uiso 0.30 1 d PDU . .
F62B F 0.5959(8) 0.3366(7) 0.4193(8) 0.372(17) Uiso 0.30 1 d PDU . .
F62C F 0.6131(10) 0.3654(9) 0.4597(8) 0.42(2) Uiso 0.30 1 d PDU . .
F62D F 0.6042(9) 0.3884(7) 0.4192(8) 0.40(2) Uiso 0.30 1 d PDU . .
B63 B 0.6797(8) 0.3608(8) 0.5656(8) 0.39(3) Uiso 0.30 1 d PDU . .
F63A F 0.7026(10) 0.3500(11) 0.5628(12) 0.52(3) Uiso 0.30 1 d PDU . .
F63B F 0.6752(8) 0.3388(7) 0.5815(8) 0.379(17) Uiso 0.30 1 d PDU . .
F63C F 0.6556(8) 0.3667(9) 0.5394(8) 0.42(2) Uiso 0.30 1 d PDU . .
F63D F 0.6878(9) 0.3894(7) 0.5787(8) 0.395(19) Uiso 0.30 1 d PDU . .
B64 B 0.3198(9) 0.3608(8) 0.8855(9) 0.45(4) Uiso 0.30 1 d PDU . .
F64A F 0.2969(11) 0.3557(12) 0.8575(9) 0.60(4) Uiso 0.30 1 d PDU . .
F64B F 0.3218(9) 0.3360(7) 0.9029(8) 0.388(18) Uiso 0.30 1 d PDU . .
F64C F 0.3128(9) 0.3882(7) 0.8941(9) 0.41(2) Uiso 0.30 1 d PDU . .
F64D F 0.3454(8) 0.3675(9) 0.8858(9) 0.41(2) Uiso 0.30 1 d PDU . .
B65 B 0.3831(9) 0.3636(8) 0.8204(8) 0.43(4) Uiso 0.30 1 d PDU . .
F65A F 0.3549(9) 0.3580(11) 0.7984(10) 0.55(3) Uiso 0.30 1 d PDU . .
F65B F 0.3999(9) 0.3383(7) 0.8223(9) 0.398(19) Uiso 0.30 1 d PDU . .
F65C F 0.3863(9) 0.3692(8) 0.8473(7) 0.385(18) Uiso 0.30 1 d PDU . .
F65D F 0.3914(9) 0.3897(7) 0.8115(8) 0.387(19) Uiso 0.30 1 d PDU . .

loop_
_atom_site_aniso_label
_atom_site_aniso_U_11
_atom_site_aniso_U_22
_atom_site_aniso_U_33
_atom_site_aniso_U_23
_atom_site_aniso_U_13
_atom_site_aniso_U_12
N1 0.424(12) 0.202(8) 0.313(12) 0.031(9) 0.215(11) -0.019(9)
C1 0.440(13) 0.196(11) 0.313(12) 0.022(10) 0.224(11) -0.011(11)
C2 0.450(12) 0.223(10) 0.300(12) 0.007(10) 0.232(11) -0.004(10)
C3 0.425(11) 0.235(10) 0.310(12) 0.014(10) 0.234(10) 0.003(10)
C4 0.419(12) 0.223(11) 0.312(12) 0.016(10) 0.236(10) 0.002(11)
C5 0.425(12) 0.204(10) 0.304(13) 0.031(10) 0.226(11) -0.006(10)
N2 0.414(16) 0.237(17) 0.304(17) 0.000 0.231(13) 0.000
C6 0.425(12) 0.261(13) 0.301(14) -0.005(9) 0.231(11) 0.004(9)
C7 0.448(15) 0.300(16) 0.311(18) 0.003(11) 0.235(14) -0.003(10)
C8 0.457(19) 0.29(2) 0.32(2) 0.000 0.232(17) 0.000
N3 0.322(12) 0.204(9) 0.426(11) -0.026(9) 0.214(11) 0.035(10)
C9 0.313(12) 0.200(11) 0.454(13) -0.016(12) 0.225(11) 0.002(10)
C10 0.304(13) 0.217(10) 0.457(12) -0.014(10) 0.239(11) 0.004(10)
C11 0.299(12) 0.235(10) 0.436(11) 0.001(10) 0.239(10) 0.010(10)
C12 0.301(12) 0.226(11) 0.425(12) -0.008(11) 0.230(10) 0.038(10)
C13 0.305(13) 0.221(10) 0.425(12) -0.018(10) 0.225(12) 0.040(10)
N4 0.299(16) 0.260(17) 0.414(15) 0.000 0.240(13) 0.000
C14 0.290(14) 0.251(13) 0.436(11) 0.008(9) 0.241(11) 0.006(9)
C15 0.290(17) 0.276(15) 0.469(14) 0.008(10) 0.233(14) 0.008(11)
C16 0.30(2) 0.27(2) 0.475(19) 0.000 0.227(17) 0.000
N5 0.328(14) 0.285(12) 0.356(14) 0.059(9) 0.175(11) -0.003(10)
C17 0.328(15) 0.336(13) 0.377(15) 0.085(11) 0.174(13) -0.021(12)
C18 0.324(15) 0.354(12) 0.396(14) 0.098(11) 0.191(13) -0.044(12)
C19 0.335(13) 0.351(12) 0.400(13) 0.095(10) 0.196(11) -0.050(11)
C20 0.348(15) 0.307(11) 0.377(14) 0.075(10) 0.188(13) -0.019(12)
C21 0.334(15) 0.273(11) 0.360(14) 0.067(10) 0.186(12) -0.017(12)
N6 0.323(13) 0.402(13) 0.453(15) 0.105(11) 0.199(12) -0.050(11)
C22 0.324(12) 0.396(12) 0.441(14) 0.107(10) 0.214(11) -0.063(11)
C23 0.326(15) 0.449(14) 0.475(16) 0.117(12) 0.213(13) -0.060(13)
C24 0.341(15) 0.471(15) 0.494(17) 0.131(13) 0.205(14) -0.042(14)
C25 0.334(14) 0.462(16) 0.485(17) 0.128(13) 0.222(13) -0.048(13)
C26 0.317(13) 0.422(13) 0.471(14) 0.101(11) 0.218(12) -0.049(11)
N7 0.299(14) 0.364(12) 0.441(15) 0.060(11) 0.208(13) 0.010(12)
C27 0.290(14) 0.391(14) 0.448(16) 0.070(12) 0.222(13) 0.002(13)
C28 0.305(13) 0.406(15) 0.468(16) 0.092(12) 0.213(13) -0.021(12)
C29 0.304(13) 0.400(13) 0.470(15) 0.078(11) 0.212(12) -0.021(11)
C30 0.288(13) 0.386(15) 0.468(16) 0.065(12) 0.207(13) -0.012(12)
C31 0.276(13) 0.380(15) 0.460(16) 0.060(12) 0.215(13) 0.009(12)
N8 0.270(14) 0.400(14) 0.397(14) -0.059(12) 0.126(13) 0.000(12)
C32 0.289(14) 0.422(16) 0.407(15) -0.067(13) 0.134(13) -0.006(14)
C33 0.293(13) 0.432(16) 0.419(16) -0.077(13) 0.126(13) -0.025(13)
C34 0.285(13) 0.443(14) 0.433(14) -0.105(11) 0.120(12) -0.020(12)
C35 0.281(13) 0.436(16) 0.432(15) -0.108(13) 0.113(13) 0.010(13)
C36 0.275(14) 0.416(16) 0.427(16) -0.077(13) 0.103(13) -0.009(14)
N9 0.295(12) 0.474(15) 0.491(14) -0.134(13) 0.141(12) -0.050(12)
C37 0.300(13) 0.467(15) 0.483(14) -0.121(12) 0.113(13) -0.036(13)
C38 0.324(14) 0.482(17) 0.512(17) -0.142(15) 0.084(14) -0.042(15)
C39 0.328(15) 0.496(18) 0.533(17) -0.147(15) 0.084(15) -0.040(15)
C40 0.308(16) 0.491(16) 0.531(16) -0.144(14) 0.101(15) -0.046(14)
C41 0.295(12) 0.469(15) 0.506(14) -0.140(13) 0.138(12) -0.047(12)
N10 0.267(12) 0.432(16) 0.426(15) -0.120(13) 0.181(11) -0.058(12)
C42 0.285(13) 0.421(16) 0.426(15) -0.122(13) 0.166(13) -0.061(14)
C43 0.275(14) 0.426(15) 0.458(15) -0.128(13) 0.162(14) -0.068(13)
C44 0.290(12) 0.445(14) 0.486(14) -0.128(13) 0.162(12) -0.055(12)
C45 0.290(14) 0.442(16) 0.484(15) -0.120(14) 0.179(13) -0.067(13)
C46 0.292(15) 0.437(16) 0.465(16) -0.115(13) 0.168(14) -0.067(13)
N11 0.422(14) 0.289(12) 0.385(14) -0.031(12) 0.241(13) -0.048(12)
C47 0.437(14) 0.289(12) 0.371(16) -0.052(12) 0.229(14) -0.049(11)
C48 0.444(14) 0.277(12) 0.369(14) -0.029(12) 0.231(13) -0.063(12)
C49 0.455(13) 0.268(11) 0.370(13) -0.032(11) 0.228(12) -0.054(11)
C50 0.453(14) 0.275(11) 0.381(15) -0.045(12) 0.212(14) -0.065(11)
C51 0.446(14) 0.270(13) 0.405(15) -0.054(13) 0.203(14) -0.054(12)
N12 0.459(13) 0.252(9) 0.372(13) -0.014(9) 0.221(13) -0.054(9)
C52 0.482(12) 0.263(11) 0.387(13) -0.019(11) 0.222(13) -0.054(11)
C53 0.535(15) 0.275(12) 0.404(15) 0.007(13) 0.192(15) -0.054(13)
C54 0.549(15) 0.264(12) 0.407(16) -0.003(12) 0.188(16) -0.063(13)
C55 0.524(15) 0.243(12) 0.397(14) -0.009(12) 0.202(14) -0.059(13)
C56 0.468(12) 0.232(10) 0.375(12) -0.009(10) 0.225(12) -0.057(10)
N13 0.432(12) 0.218(9) 0.319(12) 0.012(10) 0.227(11) -0.023(9)
C57 0.455(13) 0.222(10) 0.342(14) -0.007(11) 0.205(13) -0.022(11)
C58 0.461(13) 0.214(11) 0.343(13) -0.013(10) 0.217(12) -0.039(12)
C59 0.454(12) 0.211(9) 0.350(12) 0.003(9) 0.227(12) -0.046(10)
C60 0.442(13) 0.204(10) 0.344(13) 0.011(10) 0.223(13) -0.036(10)
C61 0.429(13) 0.195(11) 0.330(13) 0.013(10) 0.216(12) -0.026(11)
N14 0.322(13) 0.261(10) 0.278(11) 0.067(8) 0.184(10) 0.014(9)
C62 0.326(14) 0.299(11) 0.281(12) 0.068(9) 0.176(11) 0.012(11)
C63 0.332(14) 0.318(11) 0.279(12) 0.088(10) 0.156(11) 0.006(11)
C64 0.337(12) 0.294(10) 0.295(11) 0.101(9) 0.145(10) 0.018(10)
C65 0.333(14) 0.259(10) 0.301(12) 0.099(9) 0.154(11) 0.018(11)
C66 0.329(14) 0.243(9) 0.285(13) 0.067(9) 0.175(11) 0.017(10)
N15 0.333(12) 0.330(11) 0.266(10) 0.085(9) 0.143(9) 0.025(10)
C67 0.339(12) 0.328(11) 0.294(11) 0.106(9) 0.135(10) 0.034(11)
C68 0.357(15) 0.362(12) 0.329(13) 0.132(11) 0.101(12) 0.029(13)
C69 0.354(15) 0.367(13) 0.342(13) 0.149(12) 0.084(13) 0.028(13)
C70 0.350(14) 0.353(14) 0.333(13) 0.131(12) 0.088(12) 0.029(12)
C71 0.330(13) 0.336(11) 0.273(11) 0.094(9) 0.120(10) 0.024(10)
N16 0.303(13) 0.308(10) 0.251(12) 0.047(9) 0.120(10) 0.022(10)
C72 0.307(14) 0.304(12) 0.259(12) 0.064(10) 0.112(11) 0.024(11)
C73 0.315(13) 0.309(13) 0.265(12) 0.071(11) 0.115(10) 0.010(11)
C74 0.313(12) 0.315(11) 0.255(11) 0.079(9) 0.122(9) 0.006(10)
C75 0.304(13) 0.328(13) 0.258(11) 0.071(10) 0.124(10) 0.004(11)
C76 0.301(13) 0.317(13) 0.251(12) 0.067(10) 0.119(10) 0.009(11)
N17 0.264(12) 0.314(10) 0.288(13) 0.034(10) 0.132(10) 0.057(10)
C77 0.264(12) 0.318(12) 0.294(13) 0.039(11) 0.132(10) 0.080(11)
C78 0.263(12) 0.310(13) 0.309(12) 0.028(11) 0.134(10) 0.083(11)
C79 0.269(11) 0.319(11) 0.314(12) 0.029(10) 0.136(10) 0.078(10)
C80 0.274(12) 0.325(13) 0.300(13) 0.012(11) 0.142(10) 0.061(11)
C81 0.266(13) 0.317(13) 0.293(12) 0.023(11) 0.133(10) 0.065(11)
N18 0.270(10) 0.319(11) 0.339(12) 0.032(10) 0.147(10) 0.090(9)
C82 0.283(11) 0.326(11) 0.338(12) 0.032(10) 0.132(10) 0.099(9)
C83 0.335(14) 0.351(14) 0.365(14) 0.021(12) 0.116(12) 0.122(12)
C84 0.349(14) 0.360(13) 0.376(15) 0.014(13) 0.094(13) 0.141(12)
C85 0.335(14) 0.349(12) 0.371(15) 0.019(12) 0.102(13) 0.125(11)
C86 0.296(11) 0.317(11) 0.348(12) 0.035(10) 0.133(10) 0.109(10)
N19 0.273(12) 0.254(10) 0.327(12) 0.018(9) 0.186(10) 0.060(8)
C87 0.279(12) 0.304(11) 0.329(14) 0.008(11) 0.178(11) 0.059(10)
C88 0.280(13) 0.324(11) 0.348(14) -0.003(12) 0.150(11) 0.086(10)
C89 0.291(12) 0.294(10) 0.352(12) 0.005(10) 0.136(10) 0.099(9)
C90 0.294(12) 0.261(10) 0.345(14) 0.001(11) 0.148(11) 0.093(9)
C91 0.278(13) 0.244(9) 0.336(14) 0.009(10) 0.175(11) 0.069(10)
N20 0.327(13) 0.216(9) 0.436(12) -0.016(9) 0.226(11) 0.002(10)
C92 0.344(15) 0.223(10) 0.471(13) -0.021(10) 0.214(14) -0.009(11)
C93 0.351(14) 0.220(11) 0.477(13) -0.046(12) 0.221(12) -0.009(11)
C94 0.354(12) 0.209(9) 0.456(11) -0.055(10) 0.234(12) -0.004(10)
C95 0.343(14) 0.198(9) 0.436(12) -0.048(10) 0.232(12) 0.004(10)
C96 0.337(13) 0.188(10) 0.421(13) -0.024(11) 0.224(12) 0.000(10)
N21 0.367(14) 0.239(9) 0.462(12) -0.046(9) 0.226(13) -0.017(9)
C97 0.376(13) 0.225(10) 0.476(12) -0.059(10) 0.232(12) -0.013(10)
C98 0.395(15) 0.245(12) 0.543(15) -0.058(13) 0.208(14) -0.029(12)
C99 0.408(17) 0.260(12) 0.572(16) -0.059(13) 0.191(16) -0.013(12)
C100 0.410(16) 0.279(12) 0.556(15) -0.050(13) 0.198(15) -0.002(13)
C101 0.390(13) 0.260(11) 0.494(12) -0.050(11) 0.228(13) -0.018(11)
N22 0.412(15) 0.288(12) 0.443(14) -0.039(12) 0.252(14) -0.033(13)
C102 0.383(17) 0.285(12) 0.459(14) -0.049(11) 0.243(15) -0.065(12)
C103 0.383(15) 0.276(12) 0.465(14) -0.064(12) 0.240(14) -0.041(12)
C104 0.381(14) 0.275(11) 0.475(13) -0.060(11) 0.239(13) -0.043(11)
C105 0.402(16) 0.290(12) 0.486(15) -0.068(12) 0.226(15) -0.051(12)
C106 0.425(16) 0.281(13) 0.476(15) -0.055(13) 0.220(15) -0.049(14)
N23 0.441(15) 0.420(16) 0.294(12) -0.070(12) 0.204(12) -0.135(13)
C107 0.442(15) 0.413(16) 0.303(13) -0.079(13) 0.195(13) -0.142(14)
C108 0.476(15) 0.422(14) 0.293(14) -0.087(13) 0.189(14) -0.158(13)
C109 0.501(14) 0.447(14) 0.303(12) -0.073(12) 0.177(12) -0.163(13)
C110 0.492(15) 0.429(15) 0.303(13) -0.085(13) 0.192(14) -0.153(14)
C111 0.475(16) 0.426(15) 0.302(15) -0.090(13) 0.189(14) -0.131(13)
N24 0.515(15) 0.479(15) 0.315(12) -0.055(12) 0.152(13) -0.169(13)
C112 0.530(15) 0.479(15) 0.320(12) -0.060(12) 0.140(13) -0.176(13)
C113 0.557(17) 0.505(16) 0.335(16) -0.055(14) 0.106(15) -0.182(15)
C114 0.556(18) 0.513(18) 0.343(15) -0.056(15) 0.109(15) -0.184(16)
C115 0.534(17) 0.500(18) 0.328(14) -0.052(14) 0.121(14) -0.181(15)
C116 0.509(15) 0.481(15) 0.313(13) -0.050(12) 0.139(13) -0.154(12)
N25 0.409(15) 0.423(14) 0.278(14) -0.005(12) 0.167(13) -0.079(12)
C117 0.418(15) 0.443(16) 0.283(13) 0.004(13) 0.165(13) -0.106(13)
C118 0.448(16) 0.462(17) 0.293(13) -0.026(13) 0.142(13) -0.113(14)
C119 0.464(14) 0.472(15) 0.300(13) -0.029(12) 0.151(12) -0.125(12)
C120 0.451(16) 0.456(16) 0.291(13) -0.007(13) 0.151(13) -0.109(14)
C121 0.437(16) 0.434(16) 0.296(14) -0.016(13) 0.144(13) -0.088(14)
N26 0.423(15) 0.367(12) 0.301(14) 0.004(12) 0.192(12) 0.060(11)
C122 0.436(17) 0.384(14) 0.288(13) 0.008(12) 0.201(13) 0.072(12)
C123 0.456(17) 0.397(15) 0.301(12) -0.014(12) 0.205(13) 0.095(12)
C124 0.458(15) 0.388(13) 0.301(12) -0.025(11) 0.203(12) 0.077(11)
C125 0.449(16) 0.382(14) 0.294(13) -0.018(12) 0.204(12) 0.068(12)
C126 0.436(16) 0.382(14) 0.279(12) 0.002(11) 0.215(12) 0.067(12)
N27 0.456(15) 0.388(12) 0.321(12) -0.041(11) 0.198(12) 0.087(11)
C127 0.469(15) 0.405(13) 0.319(12) -0.049(11) 0.205(12) 0.095(11)
C128 0.485(17) 0.440(15) 0.332(13) -0.047(12) 0.218(13) 0.121(13)
C129 0.493(17) 0.445(15) 0.342(15) -0.045(14) 0.197(14) 0.131(13)
C130 0.475(16) 0.432(14) 0.327(15) -0.060(13) 0.200(13) 0.120(12)
C131 0.447(14) 0.391(12) 0.327(12) -0.052(11) 0.195(12) 0.106(11)
N28 0.368(15) 0.281(12) 0.330(13) -0.014(10) 0.168(11) 0.072(10)
C132 0.386(15) 0.319(13) 0.326(14) -0.018(12) 0.172(13) 0.088(11)
C133 0.407(15) 0.340(12) 0.321(14) -0.038(12) 0.175(13) 0.094(11)
C134 0.411(14) 0.348(12) 0.334(12) -0.044(11) 0.177(12) 0.099(10)
C135 0.389(15) 0.305(12) 0.341(14) -0.023(12) 0.169(13) 0.084(11)
C136 0.368(14) 0.274(11) 0.334(15) -0.018(12) 0.178(12) 0.076(10)
N29 0.411(11) 0.212(9) 0.305(12) 0.057(9) 0.197(11) 0.019(9)
C137 0.432(13) 0.203(11) 0.288(12) 0.023(9) 0.205(10) 0.037(11)
C138 0.445(13) 0.225(10) 0.282(12) 0.017(10) 0.203(11) 0.019(10)
C139 0.423(11) 0.232(10) 0.278(11) 0.009(9) 0.206(10) 0.005(10)
C140 0.411(12) 0.216(11) 0.278(11) 0.033(9) 0.207(10) 0.005(11)
C141 0.410(12) 0.221(10) 0.292(13) 0.042(10) 0.199(11) 0.018(10)
N30 0.416(16) 0.251(16) 0.295(15) 0.000 0.201(13) 0.000
C142 0.427(12) 0.249(12) 0.288(12) 0.010(9) 0.211(10) -0.007(9)
C143 0.455(15) 0.273(15) 0.302(14) -0.004(11) 0.223(12) -0.004(10)
C144 0.468(19) 0.26(2) 0.313(18) 0.000 0.220(16) 0.000
N31 0.287(12) 0.213(9) 0.292(12) -0.046(9) 0.079(9) -0.020(9)
C145 0.297(12) 0.189(10) 0.300(12) -0.041(10) 0.057(10) -0.006(10)
C146 0.298(13) 0.218(10) 0.300(13) -0.035(10) 0.049(11) 0.000(10)
C147 0.286(12) 0.236(10) 0.277(11) -0.020(9) 0.069(10) -0.018(10)
C148 0.277(12) 0.223(11) 0.272(11) -0.034(10) 0.068(10) -0.016(10)
C149 0.279(13) 0.223(10) 0.285(13) -0.040(10) 0.081(10) -0.034(10)
N32 0.280(17) 0.253(17) 0.261(14) 0.000 0.077(13) 0.000
C150 0.279(15) 0.256(12) 0.265(12) -0.004(9) 0.074(11) -0.002(9)
C151 0.291(18) 0.283(15) 0.268(15) -0.002(10) 0.062(14) 0.007(10)
C152 0.31(2) 0.28(2) 0.269(18) 0.000 0.059(17) 0.000
N33 0.286(13) 0.413(15) 0.380(14) -0.090(12) 0.133(12) 0.041(12)
C153 0.296(13) 0.409(16) 0.397(16) -0.089(13) 0.140(12) 0.046(14)
C154 0.290(15) 0.412(14) 0.423(16) -0.085(13) 0.114(13) 0.048(13)
C155 0.306(13) 0.434(14) 0.439(14) -0.092(12) 0.102(12) 0.046(12)
C156 0.311(14) 0.426(15) 0.420(16) -0.088(13) 0.101(13) 0.047(13)
C157 0.293(15) 0.416(15) 0.398(15) -0.089(13) 0.122(14) 0.060(13)
N34 0.310(13) 0.484(15) 0.469(16) -0.106(13) 0.131(12) 0.055(13)
C158 0.314(13) 0.462(14) 0.481(15) -0.113(12) 0.101(12) 0.052(13)
C159 0.318(16) 0.491(16) 0.517(17) -0.131(14) 0.098(15) 0.052(14)
C160 0.319(15) 0.510(18) 0.526(18) -0.132(15) 0.113(14) 0.052(15)
C161 0.312(14) 0.520(18) 0.517(17) -0.118(15) 0.127(14) 0.048(15)
C162 0.302(13) 0.494(15) 0.485(15) -0.103(12) 0.142(12) 0.050(12)
N35 0.277(14) 0.445(14) 0.434(16) -0.083(13) 0.180(13) -0.011(13)
C163 0.296(14) 0.460(17) 0.441(18) -0.084(14) 0.162(13) -0.001(14)
C164 0.298(14) 0.484(17) 0.459(17) -0.078(14) 0.154(14) 0.019(14)
C165 0.289(13) 0.497(15) 0.466(15) -0.097(12) 0.163(12) 0.021(13)
C166 0.279(13) 0.491(17) 0.471(17) -0.105(14) 0.168(13) 0.006(14)
C167 0.279(14) 0.465(17) 0.460(17) -0.099(14) 0.178(14) -0.003(14)
N36 0.273(13) 0.358(12) 0.355(14) 0.070(11) 0.148(11) 0.009(11)
C168 0.275(14) 0.390(14) 0.356(14) 0.085(12) 0.113(12) 0.009(13)
C169 0.292(13) 0.400(15) 0.356(15) 0.103(12) 0.098(12) 0.025(12)
C170 0.298(13) 0.382(13) 0.351(13) 0.089(11) 0.107(11) 0.051(11)
C171 0.285(13) 0.378(14) 0.348(14) 0.077(12) 0.103(12) 0.047(12)
C172 0.269(13) 0.372(14) 0.353(15) 0.077(12) 0.112(12) 0.016(12)
N37 0.312(13) 0.367(12) 0.347(12) 0.106(10) 0.121(11) 0.047(11)
C173 0.318(13) 0.383(12) 0.356(13) 0.112(11) 0.103(11) 0.055(11)
C174 0.346(14) 0.419(15) 0.379(15) 0.142(13) 0.092(13) 0.021(13)
C175 0.355(16) 0.426(15) 0.388(15) 0.166(13) 0.087(14) 0.013(14)
C176 0.345(16) 0.427(14) 0.377(14) 0.155(12) 0.082(13) 0.030(14)
C177 0.329(13) 0.374(12) 0.352(12) 0.137(10) 0.108(11) 0.045(11)
N38 0.328(13) 0.280(12) 0.322(13) 0.086(9) 0.177(11) 0.024(10)
C178 0.334(15) 0.325(12) 0.330(13) 0.109(11) 0.144(12) 0.022(12)
C179 0.337(15) 0.347(12) 0.341(14) 0.131(11) 0.125(12) 0.032(12)
C180 0.330(13) 0.346(12) 0.342(12) 0.126(10) 0.134(11) 0.039(11)
C181 0.329(15) 0.300(11) 0.335(13) 0.098(10) 0.160(12) 0.020(12)
C182 0.327(15) 0.272(11) 0.317(14) 0.077(10) 0.169(12) 0.029(11)
N39 0.424(12) 0.212(9) 0.336(12) 0.043(9) 0.241(10) 0.012(9)
C183 0.450(13) 0.213(10) 0.363(14) 0.035(10) 0.242(12) 0.025(10)
C184 0.461(13) 0.190(10) 0.377(13) 0.033(10) 0.243(11) 0.043(11)
C185 0.460(12) 0.195(9) 0.374(12) 0.036(9) 0.238(11) 0.049(10)
C186 0.444(13) 0.193(9) 0.341(13) 0.035(10) 0.227(11) 0.039(10)
C187 0.425(13) 0.189(10) 0.339(12) 0.035(10) 0.229(11) 0.029(11)
N40 0.474(13) 0.236(9) 0.401(14) 0.030(9) 0.249(11) 0.044(9)
C188 0.481(12) 0.222(10) 0.392(13) 0.027(10) 0.245(11) 0.057(10)
C189 0.529(15) 0.249(12) 0.412(15) 0.026(12) 0.251(13) 0.066(13)
C190 0.557(16) 0.283(12) 0.429(16) 0.039(12) 0.238(14) 0.065(13)
C191 0.549(15) 0.289(12) 0.426(16) 0.049(13) 0.240(14) 0.050(13)
C192 0.510(13) 0.257(11) 0.404(13) 0.027(11) 0.243(11) 0.060(11)
N41 0.466(15) 0.285(12) 0.377(14) 0.026(12) 0.208(12) 0.052(12)
C193 0.454(15) 0.292(12) 0.373(15) 0.010(11) 0.234(13) 0.080(12)
C194 0.472(15) 0.275(12) 0.371(15) 0.027(12) 0.232(12) 0.079(12)
C195 0.487(13) 0.267(11) 0.386(13) 0.005(11) 0.238(11) 0.077(11)
C196 0.489(15) 0.273(11) 0.392(16) 0.008(11) 0.227(13) 0.087(12)
C197 0.482(15) 0.272(13) 0.395(16) 0.008(12) 0.216(13) 0.077(13)
N42 0.355(13) 0.241(10) 0.262(11) 0.052(8) 0.183(10) 0.006(9)
C198 0.337(14) 0.285(11) 0.276(12) 0.054(10) 0.184(11) 0.012(11)
C199 0.327(14) 0.307(10) 0.305(12) 0.080(9) 0.191(11) 0.001(11)
C200 0.323(12) 0.298(10) 0.333(12) 0.070(9) 0.180(10) -0.015(10)
C201 0.331(14) 0.255(10) 0.313(12) 0.069(9) 0.177(11) -0.009(11)
C202 0.349(15) 0.232(9) 0.275(11) 0.047(9) 0.182(11) 0.009(11)
N43 0.322(12) 0.328(11) 0.328(12) 0.054(9) 0.196(10) -0.030(10)
C203 0.326(12) 0.331(11) 0.362(12) 0.075(9) 0.184(11) -0.044(10)
C204 0.338(15) 0.368(12) 0.404(14) 0.098(11) 0.176(13) -0.043(12)
C205 0.335(15) 0.384(13) 0.413(15) 0.107(12) 0.186(13) -0.042(13)
C206 0.331(13) 0.375(14) 0.389(14) 0.085(12) 0.194(12) -0.029(12)
C207 0.324(12) 0.333(11) 0.349(11) 0.063(9) 0.203(10) -0.023(10)
N44 0.308(13) 0.316(11) 0.315(11) 0.026(9) 0.192(11) -0.003(10)
C208 0.311(14) 0.328(13) 0.316(12) 0.036(10) 0.200(11) -0.012(11)
C209 0.315(12) 0.316(13) 0.334(13) 0.053(10) 0.194(11) -0.005(11)
C210 0.318(12) 0.319(11) 0.338(11) 0.058(9) 0.197(10) -0.017(10)
C211 0.317(13) 0.318(13) 0.334(13) 0.051(10) 0.182(11) -0.009(11)
C212 0.305(13) 0.326(13) 0.325(13) 0.043(10) 0.189(11) -0.010(11)
N45 0.245(11) 0.289(10) 0.317(11) -0.034(9) 0.152(10) -0.031(9)
C213 0.250(12) 0.306(12) 0.330(13) -0.040(10) 0.155(10) -0.052(10)
C214 0.256(12) 0.312(13) 0.334(12) -0.056(10) 0.153(11) -0.049(10)
C215 0.259(11) 0.312(11) 0.344(11) -0.049(9) 0.148(10) -0.068(10)
C216 0.259(11) 0.311(13) 0.336(13) -0.036(10) 0.136(11) -0.046(11)
C217 0.246(12) 0.305(12) 0.321(12) -0.033(10) 0.148(11) -0.041(11)
N46 0.267(10) 0.326(11) 0.362(13) -0.067(9) 0.127(10) -0.102(9)
C218 0.271(11) 0.336(11) 0.365(12) -0.066(10) 0.146(10) -0.098(10)
C219 0.311(13) 0.375(14) 0.400(14) -0.090(12) 0.165(12) -0.114(12)
C220 0.312(13) 0.379(13) 0.420(16) -0.094(12) 0.179(12) -0.126(12)
C221 0.312(14) 0.363(12) 0.412(15) -0.083(12) 0.166(12) -0.124(11)
C222 0.287(11) 0.328(11) 0.378(12) -0.061(10) 0.143(10) -0.125(10)
N47 0.279(12) 0.241(10) 0.280(11) -0.060(8) 0.102(11) -0.060(9)
C223 0.274(12) 0.286(11) 0.291(13) -0.073(10) 0.118(11) -0.062(10)
C224 0.266(13) 0.302(10) 0.316(12) -0.082(10) 0.128(11) -0.082(10)
C225 0.280(11) 0.291(10) 0.338(12) -0.070(9) 0.136(10) -0.101(9)
C226 0.287(12) 0.249(10) 0.313(13) -0.062(10) 0.126(11) -0.091(9)
C227 0.278(13) 0.229(9) 0.291(12) -0.042(9) 0.114(11) -0.070(10)
N48 0.332(13) 0.215(9) 0.370(14) -0.022(10) 0.153(11) -0.005(10)
C228 0.354(15) 0.216(10) 0.413(15) -0.024(11) 0.133(13) 0.000(11)
C229 0.363(14) 0.204(11) 0.410(14) -0.030(11) 0.137(12) 0.013(11)
C230 0.369(13) 0.206(9) 0.397(13) -0.044(10) 0.160(11) 0.006(10)
C231 0.358(14) 0.193(9) 0.365(14) -0.046(10) 0.177(11) -0.001(10)
C232 0.336(13) 0.197(11) 0.362(13) -0.027(10) 0.173(11) -0.001(10)
N49 0.386(14) 0.236(9) 0.424(14) -0.039(9) 0.172(12) 0.001(10)
C233 0.385(13) 0.228(10) 0.425(14) -0.046(10) 0.165(11) 0.007(10)
C234 0.405(15) 0.223(11) 0.472(16) -0.034(12) 0.141(13) 0.014(12)
C235 0.414(17) 0.247(11) 0.494(17) -0.037(12) 0.128(14) 0.012(12)
C236 0.419(16) 0.263(11) 0.488(17) -0.042(12) 0.136(14) -0.001(13)
C237 0.400(14) 0.255(11) 0.446(14) -0.038(11) 0.158(12) 0.022(11)
N50 0.379(15) 0.297(12) 0.388(14) -0.014(11) 0.196(13) 0.034(12)
C238 0.369(16) 0.297(12) 0.401(15) -0.027(11) 0.190(14) 0.057(12)
C239 0.377(15) 0.274(12) 0.407(16) -0.042(12) 0.176(13) 0.052(12)
C240 0.383(14) 0.265(11) 0.425(14) -0.023(11) 0.168(12) 0.043(11)
C241 0.382(16) 0.274(11) 0.424(16) -0.015(11) 0.173(14) 0.060(12)
C242 0.389(15) 0.277(13) 0.420(16) -0.008(12) 0.182(13) 0.059(13)
N51 0.454(15) 0.455(17) 0.363(13) 0.053(12) 0.277(12) 0.130(14)
C243 0.454(15) 0.437(17) 0.384(15) 0.057(14) 0.263(13) 0.138(14)
C244 0.453(15) 0.451(15) 0.394(15) 0.054(13) 0.300(13) 0.145(13)
C245 0.478(14) 0.467(15) 0.413(14) 0.071(12) 0.298(12) 0.135(13)
C246 0.489(15) 0.465(16) 0.398(15) 0.058(13) 0.279(13) 0.130(14)
C247 0.475(16) 0.460(16) 0.385(16) 0.046(13) 0.274(14) 0.138(14)
N52 0.478(14) 0.489(15) 0.455(15) 0.081(13) 0.296(13) 0.146(13)
C248 0.488(14) 0.492(15) 0.443(14) 0.084(12) 0.313(12) 0.144(13)
C249 0.495(16) 0.513(16) 0.476(17) 0.101(14) 0.323(14) 0.148(14)
C250 0.490(16) 0.528(18) 0.500(18) 0.107(15) 0.321(15) 0.147(15)
C251 0.479(16) 0.520(17) 0.500(16) 0.108(14) 0.314(14) 0.151(15)
C252 0.461(14) 0.492(15) 0.470(15) 0.083(12) 0.310(13) 0.146(12)
N53 0.399(15) 0.422(14) 0.436(16) 0.107(12) 0.285(13) 0.080(12)
C253 0.414(15) 0.439(16) 0.440(17) 0.109(14) 0.282(14) 0.086(13)
C254 0.427(16) 0.463(16) 0.452(16) 0.088(13) 0.293(13) 0.120(13)
C255 0.432(14) 0.473(15) 0.455(15) 0.091(12) 0.300(13) 0.132(12)
C256 0.429(15) 0.456(16) 0.444(16) 0.112(14) 0.298(13) 0.115(13)
C257 0.417(16) 0.439(16) 0.442(16) 0.094(13) 0.297(13) 0.104(13)
N54 0.372(14) 0.356(12) 0.365(14) -0.066(11) 0.231(12) -0.090(11)
C258 0.381(15) 0.382(14) 0.349(13) -0.078(11) 0.252(12) -0.096(12)
C259 0.411(15) 0.400(14) 0.350(14) -0.113(12) 0.243(12) -0.089(12)
C260 0.419(14) 0.390(12) 0.352(12) -0.128(10) 0.244(11) -0.074(11)
C261 0.402(15) 0.372(14) 0.351(13) -0.112(11) 0.247(12) -0.062(12)
C262 0.392(14) 0.368(14) 0.353(15) -0.081(12) 0.234(13) -0.085(11)
N55 0.423(14) 0.405(13) 0.356(12) -0.138(10) 0.239(11) -0.091(11)
C263 0.440(14) 0.422(13) 0.361(12) -0.147(11) 0.235(12) -0.085(11)
C264 0.463(16) 0.452(15) 0.368(14) -0.150(13) 0.233(13) -0.127(13)
C265 0.471(17) 0.449(15) 0.380(14) -0.160(13) 0.235(13) -0.135(14)
C266 0.455(16) 0.432(14) 0.364(14) -0.168(12) 0.244(13) -0.115(13)
C267 0.428(14) 0.392(12) 0.360(12) -0.151(11) 0.227(11) -0.092(11)
N56 0.343(14) 0.278(12) 0.377(14) -0.093(10) 0.189(13) -0.070(10)
C268 0.370(16) 0.333(13) 0.371(14) -0.104(11) 0.212(13) -0.081(11)
C269 0.394(15) 0.353(12) 0.371(15) -0.133(11) 0.217(13) -0.085(11)
C270 0.396(14) 0.349(12) 0.369(13) -0.142(10) 0.206(11) -0.078(10)
C271 0.366(15) 0.309(12) 0.380(14) -0.115(11) 0.179(13) -0.082(11)
C272 0.348(14) 0.277(11) 0.371(15) -0.101(11) 0.179(13) -0.072(10)
N57 0.281(12) 0.215(9) 0.307(12) -0.021(9) 0.098(9) -0.046(9)
C273 0.288(12) 0.197(11) 0.313(12) -0.002(10) 0.072(10) -0.020(10)
C274 0.289(13) 0.220(10) 0.303(13) -0.004(10) 0.063(10) -0.012(10)
C275 0.273(12) 0.238(10) 0.291(12) -0.016(9) 0.080(9) -0.008(9)
C276 0.265(12) 0.225(11) 0.288(12) -0.027(10) 0.070(10) -0.036(10)
C277 0.279(13) 0.226(10) 0.289(13) -0.027(10) 0.075(10) -0.030(10)
N58 0.260(14) 0.249(15) 0.275(15) 0.000 0.088(12) 0.000
C278 0.272(12) 0.262(12) 0.280(13) -0.011(9) 0.078(10) 0.001(9)
C279 0.284(14) 0.287(14) 0.288(16) -0.006(10) 0.074(12) 0.004(10)
C280 0.295(18) 0.28(2) 0.302(19) 0.000 0.070(16) 0.000
N59 0.312(12) 0.202(8) 0.433(11) 0.029(9) 0.224(11) 0.049(9)
C281 0.305(12) 0.184(10) 0.455(13) 0.035(11) 0.223(11) 0.031(10)
C282 0.299(13) 0.212(10) 0.466(12) 0.031(10) 0.232(11) 0.023(10)
C283 0.295(12) 0.232(10) 0.446(11) 0.014(10) 0.231(10) 0.019(10)
C284 0.289(12) 0.226(11) 0.435(12) 0.016(11) 0.227(10) 0.038(10)
C285 0.293(13) 0.215(10) 0.438(12) 0.015(10) 0.229(11) 0.056(10)
N60 0.301(15) 0.253(16) 0.421(15) 0.000 0.227(13) 0.000
C286 0.296(13) 0.255(12) 0.438(12) 0.001(9) 0.238(10) 0.007(9)
C287 0.302(14) 0.276(14) 0.470(15) 0.003(10) 0.238(12) 0.003(11)
C288 0.308(18) 0.27(2) 0.49(2) 0.000 0.228(16) 0.000
N61 0.348(13) 0.272(12) 0.361(13) -0.077(9) 0.194(12) -0.071(10)
C289 0.345(14) 0.316(12) 0.391(15) -0.077(11) 0.209(12) -0.102(11)
C290 0.345(14) 0.339(12) 0.406(14) -0.075(11) 0.220(12) -0.116(11)
C291 0.342(13) 0.334(12) 0.408(13) -0.071(10) 0.203(11) -0.130(10)
C292 0.351(14) 0.302(12) 0.385(15) -0.071(11) 0.173(13) -0.092(11)
C293 0.343(15) 0.274(11) 0.366(14) -0.064(10) 0.177(13) -0.082(11)
N62 0.337(12) 0.385(12) 0.436(14) -0.097(11) 0.235(11) -0.129(10)
C294 0.335(12) 0.382(12) 0.443(14) -0.092(11) 0.223(11) -0.148(11)
C295 0.361(15) 0.431(14) 0.470(16) -0.118(13) 0.233(13) -0.156(12)
C296 0.374(15) 0.446(15) 0.485(17) -0.131(13) 0.229(14) -0.156(13)
C297 0.362(14) 0.429(15) 0.466(16) -0.131(13) 0.224(13) -0.152(13)
C298 0.346(13) 0.406(12) 0.449(14) -0.093(11) 0.236(11) -0.138(11)
N63 0.340(14) 0.367(12) 0.410(14) -0.093(11) 0.244(12) -0.073(11)
C299 0.329(14) 0.395(14) 0.422(16) -0.087(12) 0.250(12) -0.087(12)
C300 0.334(14) 0.398(14) 0.434(15) -0.090(12) 0.242(12) -0.115(12)
C301 0.340(12) 0.389(12) 0.436(14) -0.079(11) 0.245(11) -0.120(11)
C302 0.338(13) 0.381(14) 0.431(16) -0.077(12) 0.251(12) -0.105(11)
C303 0.338(15) 0.378(14) 0.425(15) -0.091(12) 0.248(13) -0.087(12)
N64 0.470(17) 0.426(14) 0.418(15) 0.077(12) 0.304(14) 0.121(13)
C304 0.472(18) 0.435(16) 0.422(15) 0.085(13) 0.303(14) 0.115(14)
C305 0.487(17) 0.463(17) 0.424(15) 0.110(13) 0.314(14) 0.097(14)
C306 0.492(15) 0.481(15) 0.429(13) 0.131(12) 0.324(13) 0.109(12)
C307 0.483(17) 0.470(16) 0.420(14) 0.110(13) 0.327(13) 0.134(14)
C308 0.489(17) 0.446(16) 0.420(16) 0.097(13) 0.311(14) 0.121(14)
N65 0.486(16) 0.496(15) 0.494(14) 0.165(13) 0.338(13) 0.092(13)
C309 0.501(15) 0.494(15) 0.472(14) 0.151(12) 0.345(13) 0.099(12)
C310 0.525(17) 0.521(17) 0.498(16) 0.158(15) 0.337(14) 0.122(15)
C311 0.528(18) 0.525(18) 0.511(16) 0.162(15) 0.343(15) 0.123(15)
C312 0.505(17) 0.515(16) 0.514(16) 0.161(14) 0.353(14) 0.115(14)
C313 0.472(15) 0.489(15) 0.502(14) 0.167(12) 0.346(12) 0.101(12)
N66 0.378(14) 0.453(17) 0.473(15) 0.145(14) 0.291(12) 0.078(13)
C314 0.400(16) 0.439(17) 0.474(15) 0.154(14) 0.290(13) 0.084(14)
C315 0.405(16) 0.437(15) 0.486(15) 0.167(13) 0.319(13) 0.078(13)
C316 0.423(14) 0.464(15) 0.505(14) 0.156(13) 0.318(12) 0.089(12)
C317 0.408(16) 0.460(16) 0.519(16) 0.154(14) 0.278(14) 0.075(14)
C318 0.398(16) 0.464(17) 0.499(17) 0.151(14) 0.272(14) 0.057(14)
N67 0.391(14) 0.271(12) 0.393(14) 0.034(12) 0.203(13) -0.016(11)
C319 0.406(16) 0.287(12) 0.370(16) 0.058(12) 0.186(14) -0.027(11)
C320 0.399(16) 0.278(12) 0.372(14) 0.041(12) 0.184(13) -0.038(12)
C321 0.408(14) 0.270(11) 0.374(13) 0.042(11) 0.176(12) -0.032(11)
C322 0.418(16) 0.268(11) 0.386(15) 0.065(12) 0.183(13) -0.034(11)
C323 0.419(16) 0.262(12) 0.405(15) 0.061(13) 0.195(13) -0.025(12)
N68 0.397(14) 0.247(9) 0.377(14) 0.012(9) 0.158(11) -0.043(9)
C324 0.421(14) 0.264(11) 0.396(13) 0.021(11) 0.147(12) -0.051(11)
C325 0.462(16) 0.294(12) 0.421(16) 0.010(13) 0.108(14) -0.060(13)
C326 0.473(17) 0.273(12) 0.423(17) 0.019(12) 0.089(15) -0.061(13)
C327 0.448(16) 0.252(12) 0.404(15) 0.026(12) 0.100(13) -0.048(13)
C328 0.398(13) 0.229(10) 0.380(13) 0.015(10) 0.140(11) -0.048(10)
N69 0.342(13) 0.217(9) 0.332(12) -0.019(10) 0.145(10) -0.030(10)
C329 0.372(15) 0.226(10) 0.347(15) -0.009(10) 0.128(12) -0.024(11)
C330 0.378(14) 0.208(11) 0.357(14) 0.008(11) 0.121(12) -0.027(11)
C331 0.373(13) 0.209(9) 0.365(12) 0.006(10) 0.134(11) -0.043(10)
C332 0.350(14) 0.194(9) 0.353(14) 0.002(10) 0.140(11) -0.042(10)
C333 0.339(13) 0.195(11) 0.338(13) -0.012(10) 0.157(11) -0.027(10)
N70 0.266(12) 0.250(10) 0.301(12) -0.065(9) 0.104(11) -0.051(8)
C334 0.275(14) 0.293(11) 0.291(12) -0.058(10) 0.108(11) -0.062(10)
C335 0.298(13) 0.314(11) 0.280(13) -0.082(10) 0.119(11) -0.083(10)
C336 0.324(12) 0.304(10) 0.285(11) -0.104(9) 0.134(10) -0.073(9)
C337 0.306(13) 0.262(10) 0.291(12) -0.099(9) 0.129(11) -0.060(10)
C338 0.275(12) 0.245(10) 0.292(13) -0.077(10) 0.118(11) -0.049(9)
N71 0.345(13) 0.339(11) 0.275(10) -0.112(9) 0.133(9) -0.079(10)
C339 0.355(12) 0.342(11) 0.296(11) -0.126(10) 0.144(10) -0.080(10)
C340 0.390(14) 0.380(13) 0.329(13) -0.128(11) 0.166(12) -0.107(12)
C341 0.402(16) 0.398(14) 0.331(13) -0.135(12) 0.172(12) -0.117(12)
C342 0.381(14) 0.387(14) 0.320(13) -0.120(12) 0.167(12) -0.101(12)
C343 0.351(12) 0.350(11) 0.280(11) -0.107(10) 0.140(10) -0.078(10)
N72 0.299(11) 0.312(10) 0.250(11) -0.035(9) 0.137(10) -0.018(9)
C344 0.303(13) 0.327(13) 0.258(11) -0.056(10) 0.150(10) -0.034(10)
C345 0.310(12) 0.324(13) 0.262(11) -0.066(10) 0.150(10) -0.064(10)
C346 0.326(11) 0.332(11) 0.263(11) -0.075(10) 0.155(10) -0.060(9)
C347 0.324(13) 0.324(13) 0.266(11) -0.054(10) 0.140(10) -0.051(10)
C348 0.308(13) 0.315(13) 0.251(12) -0.053(10) 0.137(11) -0.027(10)
N73 0.312(11) 0.302(10) 0.309(13) 0.001(10) 0.185(11) 0.020(9)
C349 0.317(13) 0.315(13) 0.302(13) -0.022(11) 0.189(11) 0.038(10)
C350 0.328(13) 0.314(13) 0.308(12) -0.015(10) 0.188(11) 0.051(10)
C351 0.330(12) 0.323(11) 0.318(12) -0.022(10) 0.188(10) 0.050(9)
C352 0.320(13) 0.319(13) 0.320(13) -0.007(11) 0.179(11) 0.038(10)
C353 0.315(13) 0.306(13) 0.307(12) -0.004(10) 0.190(11) 0.032(10)
N74 0.333(12) 0.327(11) 0.341(12) -0.041(10) 0.192(10) 0.068(9)
C354 0.355(12) 0.338(11) 0.333(12) -0.041(10) 0.194(11) 0.070(10)
C355 0.398(14) 0.375(14) 0.348(13) -0.051(12) 0.183(12) 0.100(12)
C356 0.417(15) 0.391(14) 0.349(14) -0.056(13) 0.179(13) 0.124(12)
C357 0.406(14) 0.375(13) 0.358(15) -0.053(12) 0.176(13) 0.109(12)
C358 0.358(12) 0.333(11) 0.349(12) -0.047(10) 0.187(11) 0.083(10)
N75 0.269(12) 0.245(10) 0.357(13) 0.008(9) 0.180(10) 0.062(8)
C359 0.283(13) 0.285(11) 0.345(14) 0.017(11) 0.176(12) 0.071(10)
C360 0.299(12) 0.308(10) 0.334(14) 0.012(11) 0.194(11) 0.092(10)
C361 0.321(12) 0.294(10) 0.332(12) -0.015(10) 0.192(10) 0.083(9)
C362 0.313(13) 0.264(10) 0.348(14) -0.007(11) 0.178(11) 0.077(10)
C363 0.275(12) 0.238(10) 0.358(15) -0.001(11) 0.177(11) 0.060(9)
N76 0.355(13) 0.226(9) 0.412(11) 0.021(9) 0.249(11) 0.039(10)
C364 0.375(15) 0.225(10) 0.436(13) 0.034(10) 0.253(12) 0.030(11)
C365 0.374(13) 0.205(11) 0.448(13) 0.053(11) 0.251(11) 0.028(10)
C366 0.378(13) 0.210(9) 0.450(11) 0.058(10) 0.242(11) 0.038(10)
C367 0.360(14) 0.213(10) 0.434(13) 0.045(10) 0.239(11) 0.045(10)
C368 0.352(13) 0.203(11) 0.409(12) 0.035(11) 0.243(11) 0.040(10)
N77 0.403(14) 0.227(9) 0.460(12) 0.058(9) 0.242(11) 0.047(9)
C369 0.405(13) 0.219(10) 0.474(12) 0.072(10) 0.237(11) 0.039(10)
C370 0.433(15) 0.240(12) 0.522(15) 0.064(13) 0.245(13) 0.028(12)
C371 0.443(17) 0.261(12) 0.547(15) 0.054(12) 0.247(14) 0.039(12)
C372 0.437(16) 0.273(12) 0.535(15) 0.047(13) 0.242(14) 0.050(13)
C373 0.408(14) 0.248(11) 0.493(12) 0.062(11) 0.243(11) 0.043(11)
N78 0.381(14) 0.277(12) 0.457(15) 0.054(12) 0.220(12) 0.023(12)
C374 0.385(16) 0.277(12) 0.445(15) 0.087(11) 0.242(12) 0.008(11)
C375 0.384(15) 0.265(12) 0.458(14) 0.082(12) 0.250(12) 0.027(12)
C376 0.396(14) 0.261(11) 0.471(13) 0.072(11) 0.252(11) 0.024(11)
C377 0.402(16) 0.279(11) 0.472(15) 0.075(11) 0.251(13) 0.018(11)
C378 0.406(16) 0.277(13) 0.471(15) 0.077(13) 0.226(13) 0.008(13)
N79 0.367(14) 0.441(16) 0.303(12) 0.068(13) 0.142(12) -0.089(12)
C379 0.381(16) 0.433(16) 0.309(13) 0.072(14) 0.147(12) -0.074(14)
C380 0.409(16) 0.434(15) 0.311(15) 0.076(13) 0.123(13) -0.081(13)
C381 0.427(14) 0.456(14) 0.321(13) 0.078(12) 0.121(12) -0.088(12)
C382 0.412(16) 0.454(16) 0.329(14) 0.087(13) 0.119(13) -0.094(14)
C383 0.393(15) 0.449(16) 0.320(15) 0.085(13) 0.132(14) -0.089(13)
N80 0.461(16) 0.485(15) 0.322(12) 0.082(12) 0.135(12) -0.094(13)
C384 0.460(15) 0.476(15) 0.318(12) 0.081(12) 0.127(12) -0.104(12)
C385 0.489(17) 0.503(16) 0.333(15) 0.075(14) 0.121(14) -0.115(14)
C386 0.498(18) 0.521(18) 0.340(15) 0.076(15) 0.131(14) -0.111(15)
C387 0.489(17) 0.521(18) 0.335(14) 0.073(14) 0.139(14) -0.106(15)
C388 0.461(15) 0.496(15) 0.311(13) 0.076(12) 0.144(12) -0.087(12)
N81 0.417(16) 0.450(14) 0.277(14) 0.005(12) 0.166(13) -0.070(13)
C389 0.414(17) 0.465(16) 0.284(13) 0.011(13) 0.164(13) -0.086(14)
C390 0.421(16) 0.480(17) 0.286(13) 0.033(13) 0.155(13) -0.078(14)
C391 0.427(15) 0.488(15) 0.286(12) 0.043(12) 0.167(12) -0.081(12)
C392 0.440(17) 0.486(17) 0.277(12) 0.029(13) 0.158(12) -0.089(14)
C393 0.439(16) 0.468(17) 0.276(13) 0.026(13) 0.168(13) -0.084(14)
N82 0.340(14) 0.385(12) 0.288(13) 0.009(12) 0.137(12) 0.076(11)
C394 0.341(14) 0.408(15) 0.288(14) 0.014(13) 0.117(13) 0.094(12)
C395 0.347(15) 0.422(15) 0.307(13) 0.030(12) 0.108(12) 0.104(13)
C396 0.342(13) 0.404(13) 0.312(12) 0.041(11) 0.109(11) 0.105(11)
C397 0.336(14) 0.396(15) 0.295(13) 0.038(12) 0.098(12) 0.086(12)
C398 0.339(16) 0.394(15) 0.287(13) 0.020(12) 0.102(12) 0.087(13)
N83 0.351(12) 0.390(13) 0.324(12) 0.043(11) 0.121(11) 0.141(10)
C399 0.354(13) 0.407(13) 0.339(13) 0.043(11) 0.099(12) 0.133(11)
C400 0.364(15) 0.423(15) 0.362(14) 0.015(13) 0.097(13) 0.147(13)
C401 0.382(15) 0.432(15) 0.374(16) 0.020(14) 0.085(14) 0.151(13)
C402 0.372(15) 0.419(14) 0.355(15) 0.034(13) 0.093(13) 0.150(12)
C403 0.353(13) 0.382(12) 0.339(12) 0.051(11) 0.118(11) 0.145(11)
N84 0.344(14) 0.285(11) 0.329(13) 0.032(10) 0.189(11) 0.108(10)
C404 0.350(14) 0.332(12) 0.329(15) 0.033(12) 0.169(12) 0.129(11)
C405 0.361(14) 0.357(12) 0.356(15) 0.041(12) 0.135(13) 0.145(11)
C406 0.348(13) 0.348(12) 0.352(13) 0.044(11) 0.143(11) 0.142(10)
C407 0.346(14) 0.304(11) 0.349(15) 0.024(12) 0.169(12) 0.124(10)
C408 0.348(15) 0.279(11) 0.343(15) 0.029(11) 0.173(13) 0.104(11)
Pd1 0.346(3) 0.361(3) 0.239(2) 0.000 0.122(2) 0.000
Pd2 0.2936(17) 0.2091(12) 0.365(2) -0.0148(12) 0.1868(17) 0.0243(11)
Pd3 0.236(2) 0.318(2) 0.2389(19) 0.000 0.1093(17) 0.000
Pd4 0.365(2) 0.2094(12) 0.2961(17) 0.0278(11) 0.1879(17) -0.0120(12)
Pd5 0.235(2) 0.360(3) 0.349(3) 0.000 0.122(2) 0.000
Pd6 0.350(2) 0.3250(18) 0.355(2) -0.0719(16) 0.196(2) -0.0698(16)
Pd7 0.345(3) 0.359(3) 0.349(3) 0.000 0.229(3) 0.000
Pd8 0.350(2) 0.3248(18) 0.319(2) -0.0029(16) 0.157(2) 0.0659(16)
Pd9 0.231(2) 0.370(3) 0.343(3) 0.000 0.116(2) 0.000
Pd10 0.356(2) 0.2067(12) 0.2929(17) 0.0385(11) 0.1779(17) 0.0119(12)
Pd11 0.234(2) 0.316(2) 0.258(2) 0.000 0.1278(17) 0.000
Pd12 0.2927(17) 0.2076(12) 0.2906(16) -0.0394(11) 0.1126(14) -0.0252(11)
Pd13 0.342(3) 0.366(3) 0.235(2) 0.000 0.119(2) 0.000
Pd14 0.2871(17) 0.2083(12) 0.361(2) 0.0126(12) 0.1782(17) 0.0389(11)
Pd15 0.251(2) 0.317(2) 0.2367(19) 0.000 0.1247(17) 0.000
Pd16 0.2860(17) 0.2073(12) 0.2949(16) -0.0254(11) 0.1099(14) -0.0381(11)
Pd17 0.342(3) 0.365(3) 0.344(3) 0.000 0.226(3) 0.000
Pd18 0.320(2) 0.3269(18) 0.351(2) 0.0676(16) 0.159(2) -0.0007(16)

_geom_special_details            
; 
 All esds (except the esd in the dihedral angle between two l.s. planes) 
 are estimated using the full covariance matrix.  The cell esds are taken 
 into account individually in the estimation of esds in distances, angles 
 and torsion angles; correlations between esds in cell parameters are only 
 used when they are defined by crystal symmetry.  An approximate (isotropic) 
 treatment of cell esds is used for estimating esds involving l.s. planes. 
;

loop_
_geom_bond_atom_site_label_1
_geom_bond_atom_site_label_2
_geom_bond_distance
_geom_bond_site_symmetry_2
_geom_bond_publ_flag
N1 C1 1.3900 . ?
N1 C5 1.3900 . ?
N1 Pd4 2.013(8) . ?
C1 C2 1.3900 . ?
C2 C3 1.3900 . ?
C3 C4 1.3900 . ?
C3 C6 1.52(2) . ?
C4 C5 1.3900 . ?
N2 C6 1.35(2) 4_565 ?
N2 C6 1.35(2) . ?
C6 C7 1.42(3) . ?
C7 C8 1.34(2) . ?
C8 C7 1.34(2) 4_565 ?
N3 C9 1.3900 . ?
N3 C13 1.3900 . ?
N3 Pd2 1.999(9) . ?
C9 C10 1.3900 . ?
C10 C11 1.3900 . ?
C11 C12 1.3900 . ?
C11 C14 1.47(2) . ?
C12 C13 1.3900 . ?
N4 C14 1.42(2) 4_565 ?
N4 C14 1.42(2) . ?
C14 C15 1.36(2) . ?
C15 C16 1.37(2) . ?
C16 C15 1.37(2) 4_565 ?
N5 C17 1.3900 . ?
N5 C21 1.3900 . ?
N5 Pd4 1.989(10) . ?
C17 C18 1.3900 . ?
C18 C19 1.3900 . ?
C19 C20 1.3900 . ?
C19 C22 1.444(15) . ?
C20 C21 1.3900 . ?
N6 C22 1.3900 . ?
N6 C26 1.3900 . ?
C22 C23 1.3900 . ?
C23 C24 1.3900 . ?
C24 C25 1.3900 . ?
C25 C26 1.3900 . ?
C26 C29 1.366(14) . ?
N7 C27 1.3900 . ?
N7 C31 1.3900 . ?
N7 Pd5 2.072(10) . ?
C27 C28 1.3900 . ?
C28 C29 1.3900 . ?
C29 C30 1.3900 . ?
C30 C31 1.3900 . ?
N8 C32 1.3900 . ?
N8 C36 1.3900 . ?
N8 Pd5 2.007(11) . ?
C32 C33 1.3900 . ?
C33 C34 1.3900 . ?
C34 C35 1.3900 . ?
C34 C37 1.492(15) . ?
C35 C36 1.3900 . ?
N9 C37 1.3900 . ?
N9 C41 1.3900 . ?
C37 C38 1.3900 . ?
C38 C39 1.3900 . ?
C39 C40 1.3900 . ?
C40 C41 1.3900 . ?
C41 C44 1.468(17) . ?
N10 C42 1.3900 . ?
N10 C46 1.3900 . ?
N10 Pd6 2.025(10) . ?
C42 C43 1.3900 . ?
C43 C44 1.3900 . ?
C44 C45 1.3900 . ?
C45 C46 1.3900 . ?
N11 C47 1.3900 . ?
N11 C51 1.3900 . ?
N11 Pd6 2.022(11) . ?
C47 C48 1.3900 . ?
C48 C49 1.3900 . ?
C49 C50 1.3900 . ?
C49 C52 1.398(15) . ?
C50 C51 1.3900 . ?
N12 C52 1.3900 . ?
N12 C56 1.3900 . ?
C52 C53 1.3900 . ?
C53 C54 1.3900 . ?
C54 C55 1.3900 . ?
C55 C56 1.3900 . ?
C56 C59 1.486(12) . ?
N13 C57 1.3900 . ?
N13 C61 1.3900 . ?
N13 Pd4 2.005(9) . ?
C57 C58 1.3900 . ?
C58 C59 1.3900 . ?
C59 C60 1.3900 . ?
C60 C61 1.3900 . ?
N14 C62 1.3900 . ?
N14 C66 1.3900 . ?
N14 Pd4 2.013(10) . ?
C62 C63 1.3900 . ?
C63 C64 1.3900 . ?
C64 C65 1.3900 . ?
C64 C67 1.424(13) . ?
C65 C66 1.3900 . ?
N15 C67 1.3900 . ?
N15 C71 1.3900 . ?
C67 C68 1.3900 . ?
C68 C69 1.3900 . ?
C69 C70 1.3900 . ?
C70 C71 1.3900 . ?
C71 C74 1.441(12) . ?
N16 C72 1.3900 . ?
N16 C76 1.3900 . ?
N16 Pd3 1.997(8) . ?
C72 C73 1.3900 . ?
C73 C74 1.3900 . ?
C74 C75 1.3900 . ?
C75 C76 1.3900 . ?
N17 C77 1.3900 . ?
N17 C81 1.3900 . ?
N17 Pd3 2.012(8) . ?
C77 C78 1.3900 . ?
C78 C79 1.3900 . ?
C79 C80 1.3900 . ?
C79 C82 1.444(12) . ?
C80 C81 1.3900 . ?
N18 C82 1.3900 . ?
N18 C86 1.3900 . ?
C82 C83 1.3900 . ?
C83 C84 1.3900 . ?
C84 C85 1.3900 . ?
C85 C86 1.3900 . ?
C86 C89 1.416(13) . ?
N19 C87 1.3900 . ?
N19 C91 1.3900 . ?
N19 Pd2 2.000(9) . ?
C87 C88 1.3900 . ?
C88 C89 1.3900 . ?
C89 C90 1.3900 . ?
C90 C91 1.3900 . ?
N20 C92 1.3900 . ?
N20 C96 1.3900 . ?
N20 Pd2 2.013(9) . ?
C92 C93 1.3900 . ?
C93 C94 1.3900 . ?
C94 C95 1.3900 . ?
C94 C97 1.444(13) . ?
C95 C96 1.3900 . ?
N21 C97 1.3900 . ?
N21 C101 1.3900 . ?
C97 C98 1.3900 . ?
C98 C99 1.3900 . ?
C99 C100 1.3900 . ?
C100 C101 1.3900 . ?
C101 C104 1.411(15) . ?
N22 C102 1.3900 . ?
N22 C106 1.3900 . ?
N22 Pd6 2.028(12) . ?
C102 C103 1.3900 . ?
C103 C104 1.3900 . ?
C104 C105 1.3900 . ?
C105 C106 1.3900 . ?
N23 C107 1.3900 . ?
N23 C111 1.3900 . ?
N23 Pd6 2.005(10) . ?
C107 C108 1.3900 . ?
C108 C109 1.3900 . ?
C109 C110 1.3900 . ?
C109 C112 1.505(16) . ?
C110 C111 1.3900 . ?
N24 C112 1.3900 . ?
N24 C116 1.3900 . ?
C112 C113 1.3900 . ?
C113 C114 1.3900 . ?
C114 C115 1.3900 . ?
C115 C116 1.3900 . ?
C116 C119 1.446(15) . ?
N25 C117 1.3900 . ?
N25 C121 1.3900 . ?
N25 Pd1 1.996(11) . ?
C117 C118 1.3900 . ?
C118 C119 1.3900 . ?
C119 C120 1.3900 . ?
C120 C121 1.3900 . ?
N26 C122 1.3900 . ?
N26 C126 1.3900 . ?
N26 Pd1 2.067(10) . ?
C122 C123 1.3900 . ?
C123 C124 1.3900 . ?
C124 C125 1.3900 . ?
C124 C127 1.418(15) . ?
C125 C126 1.3900 . ?
N27 C127 1.3900 . ?
N27 C131 1.3900 . ?
C127 C128 1.3900 . ?
C128 C129 1.3900 . ?
C129 C130 1.3900 . ?
C130 C131 1.3900 . ?
C131 C134 1.442(14) . ?
N28 C132 1.3900 . ?
N28 C136 1.3900 . ?
N28 Pd2 1.989(10) . ?
C132 C133 1.3900 . ?
C133 C134 1.3900 . ?
C134 C135 1.3900 . ?
C135 C136 1.3900 . ?
N29 C137 1.3900 . ?
N29 C141 1.3900 . ?
N29 Pd10 1.974(9) . ?
C137 C138 1.3900 . ?
C138 C139 1.3900 . ?
C139 C140 1.3900 . ?
C139 C142 1.49(2) . ?
C140 C141 1.3900 . ?
N30 C142 1.407(14) 4_565 ?
N30 C142 1.407(14) . ?
C142 C143 1.370(16) . ?
C143 C144 1.332(15) . ?
C144 C143 1.332(15) 4_565 ?
N31 C145 1.3900 . ?
N31 C149 1.3900 . ?
N31 Pd12 1.993(8) . ?
C145 C146 1.3900 . ?
C146 C147 1.3900 . ?
C147 C148 1.3900 . ?
C147 C150 1.51(2) . ?
C148 C149 1.3900 . ?
N32 C150 1.38(2) . ?
N32 C150 1.38(2) 4_565 ?
C150 C151 1.36(2) . ?
C151 C152 1.33(2) . ?
C152 C151 1.33(2) 4_565 ?
N33 C153 1.3900 . ?
N33 C157 1.3900 . ?
N33 Pd8 2.048(11) . ?
C153 C154 1.3900 . ?
C154 C155 1.3900 . ?
C155 C156 1.3900 . ?
C155 C158 1.407(16) . ?
C156 C157 1.3900 . ?
N34 C158 1.3900 . ?
N34 C162 1.3900 . ?
C158 C159 1.3900 . ?
C159 C160 1.3900 . ?
C160 C161 1.3900 . ?
C161 C162 1.3900 . ?
C162 C165 1.501(15) . ?
N35 C163 1.3900 . ?
N35 C167 1.3900 . ?
N35 Pd9 2.004(11) . ?
C163 C164 1.3900 . ?
C164 C165 1.3900 . ?
C165 C166 1.3900 . ?
C166 C167 1.3900 . ?
N36 C168 1.3900 . ?
N36 C172 1.3900 . ?
N36 Pd9 2.043(10) . ?
C168 C169 1.3900 . ?
C169 C170 1.3900 . ?
C170 C171 1.3900 . ?
C170 C173 1.400(14) . ?
C171 C172 1.3900 . ?
N37 C173 1.3900 . ?
N37 C177 1.3900 . ?
C173 C174 1.3900 . ?
C174 C175 1.3900 . ?
C175 C176 1.3900 . ?
C176 C177 1.3900 . ?
C177 C180 1.468(15) . ?
N38 C178 1.3900 . ?
N38 C182 1.3900 . ?
N38 Pd10 1.932(10) . ?
C178 C179 1.3900 . ?
C179 C180 1.3900 . ?
C180 C181 1.3900 . ?
C181 C182 1.3900 . ?
N39 C183 1.3900 . ?
N39 C187 1.3900 . ?
N39 Pd10 2.002(9) . ?
C183 C184 1.3900 . ?
C184 C185 1.3900 . ?
C185 C186 1.3900 . ?
C185 C188 1.489(13) . ?
C186 C187 1.3900 . ?
N40 C188 1.3900 . ?
N40 C192 1.3900 . ?
C188 C189 1.3900 . ?
C189 C190 1.3900 . ?
C190 C191 1.3900 . ?
C191 C192 1.3900 . ?
C192 C195 1.382(16) . ?
N41 C193 1.3900 . ?
N41 C197 1.3900 . ?
N41 Pd8 2.042(12) . ?
C193 C194 1.3900 . ?
C194 C195 1.3900 . ?
C195 C196 1.3900 . ?
C196 C197 1.3900 . ?
N42 C198 1.3900 . ?
N42 C202 1.3900 . ?
N42 Pd10 1.984(10) . ?
C198 C199 1.3900 . ?
C199 C200 1.3900 . ?
C200 C201 1.3900 . ?
C200 C203 1.424(13) . ?
C201 C202 1.3900 . ?
N43 C203 1.3900 . ?
N43 C207 1.3900 . ?
C203 C204 1.3900 . ?
C204 C205 1.3900 . ?
C205 C206 1.3900 . ?
C206 C207 1.3900 . ?
C207 C210 1.440(11) . ?
N44 C212 1.3900 . ?
N44 C208 1.3900 . ?
N44 Pd11 2.032(8) . ?
C208 C209 1.3900 . ?
C209 C210 1.3900 . ?
C210 C211 1.3900 . ?
C211 C212 1.3900 . ?
N45 C213 1.3900 . ?
N45 C217 1.3900 . ?
N45 Pd11 2.013(8) . ?
C213 C214 1.3900 . ?
C214 C215 1.3900 . ?
C215 C216 1.3900 . ?
C215 C218 1.404(11) . ?
C216 C217 1.3900 . ?
N46 C218 1.3900 . ?
N46 C222 1.3900 . ?
C218 C219 1.3900 . ?
C219 C220 1.3900 . ?
C220 C221 1.3900 . ?
C221 C222 1.3900 . ?
C222 C225 1.456(13) . ?
N47 C223 1.3900 . ?
N47 C227 1.3900 . ?
N47 Pd12 1.999(10) . ?
C223 C224 1.3900 . ?
C224 C225 1.3900 . ?
C225 C226 1.3900 . ?
C226 C227 1.3900 . ?
N48 C228 1.3900 . ?
N48 C232 1.3900 . ?
N48 Pd12 1.997(9) . ?
C228 C229 1.3900 . ?
C229 C230 1.3900 . ?
C230 C231 1.3900 . ?
C230 C233 1.533(13) . ?
C231 C232 1.3900 . ?
N49 C233 1.3900 . ?
N49 C237 1.3900 . ?
C233 C234 1.3900 . ?
C234 C235 1.3900 . ?
C235 C236 1.3900 . ?
C236 C237 1.3900 . ?
C237 C240 1.418(16) . ?
N50 C238 1.3900 . ?
N50 C242 1.3900 . ?
N50 Pd8 1.996(12) . ?
C238 C239 1.3900 . ?
C239 C240 1.3900 . ?
C240 C241 1.3900 . ?
C241 C242 1.3900 . ?
N51 C243 1.3900 . ?
N51 C247 1.3900 . ?
N51 Pd8 2.064(11) . ?
C243 C244 1.3900 . ?
C244 C245 1.3900 . ?
C245 C246 1.3900 . ?
C245 C248 1.426(16) . ?
C246 C247 1.3900 . ?
N52 C248 1.3900 . ?
N52 C252 1.3900 . ?
C248 C249 1.3900 . ?
C249 C250 1.3900 . ?
C250 C251 1.3900 . ?
C251 C252 1.3900 . ?
C252 C255 1.450(15) . ?
N53 C253 1.3900 . ?
N53 C257 1.3900 . ?
N53 Pd7 2.008(11) . ?
C253 C254 1.3900 . ?
C254 C255 1.3900 . ?
C255 C256 1.3900 . ?
C256 C257 1.3900 . ?
N54 C258 1.3900 . ?
N54 C262 1.3900 . ?
N54 Pd7 2.018(10) . ?
C258 C259 1.3900 . ?
C259 C260 1.3900 . ?
C260 C261 1.3900 . ?
C260 C263 1.398(14) . ?
C261 C262 1.3900 . ?
N55 C263 1.3900 . ?
N55 C267 1.3900 . ?
C263 C264 1.3900 . ?
C264 C265 1.3900 . ?
C265 C266 1.3900 . ?
C266 C267 1.3900 . ?
C267 C270 1.484(15) . ?
N56 C268 1.3900 . ?
N56 C272 1.3900 . ?
N56 Pd12 1.957(10) . ?
C268 C269 1.3900 . ?
C269 C270 1.3900 . ?
C270 C271 1.3900 . ?
C271 C272 1.3900 . ?
N57 C273 1.3900 . ?
N57 C277 1.3900 . ?
N57 Pd16 1.989(8) . ?
C273 C274 1.3900 . ?
C274 C275 1.3900 . ?
C275 C276 1.3900 . ?
C275 C278 1.52(2) . ?
C276 C277 1.3900 . ?
N58 C278 1.376(14) . ?
N58 C278 1.376(14) 4_575 ?
C278 C279 1.369(16) . ?
C279 C280 1.360(15) . ?
C280 C279 1.360(15) 4_575 ?
N59 C281 1.3900 . ?
N59 C285 1.3900 . ?
N59 Pd14 2.012(9) . ?
C281 C282 1.3900 . ?
C282 C283 1.3900 . ?
C283 C284 1.3900 . ?
C283 C286 1.45(2) . ?
C284 C285 1.3900 . ?
N60 C286 1.388(15) . ?
N60 C286 1.388(15) 4_575 ?
C286 C287 1.367(16) . ?
C287 C288 1.389(16) . ?
C288 C287 1.389(16) 4_575 ?
N61 C289 1.3900 . ?
N61 C293 1.3900 . ?
N61 Pd16 1.979(10) . ?
C289 C290 1.3900 . ?
C290 C291 1.3900 . ?
C291 C292 1.3900 . ?
C291 C294 1.482(15) . ?
C292 C293 1.3900 . ?
N62 C294 1.3900 . ?
N62 C298 1.3900 . ?
C294 C295 1.3900 . ?
C295 C296 1.3900 . ?
C296 C297 1.3900 . ?
C297 C298 1.3900 . ?
C298 C301 1.370(14) . ?
N63 C299 1.3900 . ?
N63 C303 1.3900 . ?
N63 Pd17 2.024(10) . ?
C299 C300 1.3900 . ?
C300 C301 1.3900 . ?
C301 C302 1.3900 . ?
C302 C303 1.3900 . ?
N64 C304 1.3900 . ?
N64 C308 1.3900 . ?
N64 Pd17 1.974(11) . ?
C304 C305 1.3900 . ?
C305 C306 1.3900 . ?
C306 C307 1.3900 . ?
C306 C309 1.477(15) . ?
C307 C308 1.3900 . ?
N65 C309 1.3900 . ?
N65 C313 1.3900 . ?
C309 C310 1.3900 . ?
C310 C311 1.3900 . ?
C311 C312 1.3900 . ?
C312 C313 1.3900 . ?
C313 C316 1.482(16) . ?
N66 C314 1.3900 . ?
N66 C318 1.3900 . ?
N66 Pd18 2.009(11) . ?
C314 C315 1.3900 . ?
C315 C316 1.3900 . ?
C316 C317 1.3900 . ?
C317 C318 1.3900 . ?
N67 C319 1.3900 . ?
N67 C323 1.3900 . ?
N67 Pd18 2.029(11) . ?
C319 C320 1.3900 . ?
C320 C321 1.3900 . ?
C321 C324 1.374(15) . ?
C321 C322 1.3900 . ?
C322 C323 1.3900 . ?
N68 C324 1.3900 . ?
N68 C328 1.3900 . ?
C324 C325 1.3900 . ?
C325 C326 1.3900 . ?
C326 C327 1.3900 . ?
C327 C328 1.3900 . ?
C328 C331 1.480(12) . ?
N69 C329 1.3900 . ?
N69 C333 1.3900 . ?
N69 Pd16 1.998(8) . ?
C329 C330 1.3900 . ?
C330 C331 1.3900 . ?
C331 C332 1.3900 . ?
C332 C333 1.3900 . ?
N70 C334 1.3900 . ?
N70 C338 1.3900 . ?
N70 Pd16 1.998(10) . ?
C334 C335 1.3900 . ?
C335 C336 1.3900 . ?
C336 C337 1.3900 . ?
C336 C339 1.426(13) . ?
C337 C338 1.3900 . ?
N71 C339 1.3900 . ?
N71 C343 1.3900 . ?
C339 C340 1.3900 . ?
C340 C341 1.3900 . ?
C341 C342 1.3900 . ?
C342 C343 1.3900 . ?
C343 C346 1.434(12) . ?
N72 C344 1.3900 . ?
N72 C348 1.3900 . ?
N72 Pd15 2.023(9) . ?
C344 C345 1.3900 . ?
C345 C346 1.3900 . ?
C346 C347 1.3900 . ?
C347 C348 1.3900 . ?
N73 C349 1.3900 . ?
N73 C353 1.3900 . ?
N73 Pd15 2.023(8) . ?
C349 C350 1.3900 . ?
C350 C351 1.3900 . ?
C351 C352 1.3900 . ?
C351 C354 1.433(12) . ?
C352 C353 1.3900 . ?
N74 C354 1.3900 . ?
N74 C358 1.3900 . ?
C354 C355 1.3900 . ?
C355 C356 1.3900 . ?
C356 C357 1.3900 . ?
C357 C358 1.3900 . ?
C358 C361 1.439(13) . ?
N75 C359 1.3900 . ?
N75 C363 1.3900 . ?
N75 Pd14 1.998(10) . ?
C359 C360 1.3900 . ?
C360 C361 1.3900 . ?
C361 C362 1.3900 . ?
C362 C363 1.3900 . ?
N76 C364 1.3900 . ?
N76 C368 1.3900 . ?
N76 Pd14 1.988(9) . ?
C364 C365 1.3900 . ?
C365 C366 1.3900 . ?
C366 C367 1.3900 . ?
C366 C369 1.505(13) . ?
C367 C368 1.3900 . ?
N77 C369 1.3900 . ?
N77 C373 1.3900 . ?
C369 C370 1.3900 . ?
C370 C371 1.3900 . ?
C371 C372 1.3900 . ?
C372 C373 1.3900 . ?
C373 C376 1.416(15) . ?
N78 C374 1.3900 . ?
N78 C378 1.3900 . ?
N78 Pd18 2.027(11) . ?
C374 C375 1.3900 . ?
C375 C376 1.3900 . ?
C376 C377 1.3900 . ?
C377 C378 1.3900 . ?
N79 C379 1.3900 . ?
N79 C383 1.3900 . ?
N79 Pd18 2.035(11) . ?
C379 C380 1.3900 . ?
C380 C381 1.3900 . ?
C381 C382 1.3900 . ?
C381 C384 1.441(16) . ?
C382 C383 1.3900 . ?
N80 C384 1.3900 . ?
N80 C388 1.3900 . ?
C384 C385 1.3900 . ?
C385 C386 1.3900 . ?
C386 C387 1.3900 . ?
C387 C388 1.3900 . ?
C388 C391 1.451(15) . ?
N81 C389 1.3900 . ?
N81 C393 1.3900 . ?
N81 Pd13 2.010(11) . ?
C389 C390 1.3900 . ?
C390 C391 1.3900 . ?
C391 C392 1.3900 . ?
C392 C393 1.3900 . ?
N82 C394 1.3900 . ?
N82 C398 1.3900 . ?
N82 Pd13 2.051(10) . ?
C394 C395 1.3900 . ?
C395 C396 1.3900 . ?
C396 C399 1.362(15) . ?
C396 C397 1.3900 . ?
C397 C398 1.3900 . ?
N83 C399 1.3900 . ?
N83 C403 1.3900 . ?
C399 C400 1.3900 . ?
C400 C401 1.3900 . ?
C401 C402 1.3900 . ?
C402 C403 1.3900 . ?
C403 C406 1.553(15) . ?
N84 C404 1.3900 . ?
N84 C408 1.3900 . ?
N84 Pd14 1.926(10) . ?
C404 C405 1.3900 . ?
C405 C406 1.3900 . ?
C406 C407 1.3900 . ?
C407 C408 1.3900 . ?
Pd1 N25 1.997(11) 4_565 ?
Pd1 N26 2.067(10) 4_565 ?
Pd3 N16 1.997(8) 4_565 ?
Pd3 N17 2.012(8) 4_565 ?
Pd5 N8 2.007(11) 4_565 ?
Pd5 N7 2.073(10) 4_565 ?
Pd7 N53 2.008(11) 4_565 ?
Pd7 N54 2.018(10) 4_565 ?
Pd9 N35 2.004(11) 4_565 ?
Pd9 N36 2.043(10) 4_565 ?
Pd11 N45 2.014(8) 4_565 ?
Pd11 N44 2.033(8) 4_565 ?
Pd13 N81 2.010(11) 4_575 ?
Pd13 N82 2.051(10) 4_575 ?
Pd15 N73 2.023(9) 4_575 ?
Pd15 N72 2.023(9) 4_575 ?
Pd17 N64 1.974(11) 4_575 ?
Pd17 N63 2.024(10) 4_575 ?
B1 F1D 1.39(2) . ?
B1 F1D 1.39(2) 4_565 ?
B1 F1A 1.40(2) . ?
B1 F1B 1.40(2) 4_565 ?
B1 F1B 1.40(2) . ?
B1 F1C 1.40(2) . ?
B1 F1C 1.41(2) 4_565 ?
B2 F2D 1.368(19) . ?
B2 F2D 1.368(19) 4_565 ?
B2 F2B 1.38(2) . ?
B2 F2B 1.38(2) 4_565 ?
B2 F2C 1.398(19) 4_565 ?
B2 F2C 1.398(19) . ?
B2 F2A 1.40(2) . ?
B3 F3D 1.389(19) . ?
B3 F3A 1.393(17) . ?
B3 F3H 1.398(19) . ?
B3 F3C 1.40(2) . ?
B3 F3G 1.41(2) . ?
B3 F3B 1.41(2) . ?
B3 F3F 1.41(2) . ?
B4 F4B 1.295(18) . ?
B4 F4F 1.353(18) . ?
B4 F4H 1.372(19) . ?
B4 F4C 1.39(2) . ?
B4 F4A 1.413(18) . ?
B4 F4D 1.415(19) . ?
B4 F4G 1.441(19) . ?
F4A F4B 1.744(17) . ?
B5 F5A 1.37(2) . ?
B5 F5C 1.37(2) 4_565 ?
B5 F5C 1.37(2) . ?
B5 F5D 1.41(2) 4_565 ?
B5 F5D 1.41(2) . ?
B5 F5B 1.41(2) 4_565 ?
B5 F5B 1.41(2) . ?
B6 F6C 1.390(19) 4_565 ?
B6 F6C 1.390(19) . ?
B6 F6B 1.400(19) 4_565 ?
B6 F6B 1.400(19) . ?
B6 F6A 1.42(2) . ?
B6 F6D 1.435(18) . ?
B6 F6D 1.435(18) 4_565 ?
B7 F7A 1.386(16) . ?
B7 F7C 1.39(2) . ?
B7 F7G 1.395(19) . ?
B7 F7F 1.396(19) . ?
B7 F7B 1.397(19) . ?
B7 F7D 1.411(19) . ?
B7 F7H 1.42(2) . ?
B8 F8H 1.230(18) . ?
B8 F8B 1.358(19) . ?
B8 F8A 1.400(19) . ?
B8 F8F 1.422(19) . ?
B8 F8G 1.42(2) . ?
B8 F8C 1.434(19) . ?
B8 F8D 1.440(19) . ?
F8A F8H 1.729(14) . ?
B9 F9B 1.39(2) . ?
B9 F9B 1.39(2) 4_565 ?
B9 F9A 1.40(2) . ?
B9 F9C 1.41(2) 4_565 ?
B9 F9C 1.41(2) . ?
B9 F9D 1.41(2) . ?
B9 F9D 1.41(2) 4_565 ?
B10 F10B 1.38(2) . ?
B10 F10B 1.38(2) 4_565 ?
B10 F10C 1.389(19) 4_565 ?
B10 F10C 1.389(19) . ?
B10 F10D 1.39(2) 4_565 ?
B10 F10D 1.39(2) . ?
B10 F10A 1.40(2) . ?
B11 F11A 1.37(2) . ?
B11 F11B 1.39(2) . ?
B11 F11D 1.40(2) . ?
B11 F11C 1.42(2) . ?
B12 F12D 1.394(19) . ?
B12 F12C 1.394(19) . ?
B12 F12A 1.400(17) . ?
B12 F12F 1.403(19) . ?
B12 F12H 1.407(19) . ?
B12 F12G 1.408(19) . ?
B12 F12B 1.435(19) . ?
B13 F13A 1.39(2) . ?
B13 F13C 1.39(2) . ?
B13 F13C 1.39(2) 4_565 ?
B13 F13D 1.40(2) 4_565 ?
B13 F13D 1.40(2) . ?
B13 F13B 1.40(2) . ?
B13 F13B 1.40(2) 4_565 ?
B14 F14D 1.388(19) 4_565 ?
B14 F14D 1.388(19) . ?
B14 F14C 1.39(2) 4_565 ?
B14 F14C 1.39(2) . ?
B14 F14A 1.40(2) . ?
B14 F14B 1.40(2) . ?
B14 F14B 1.40(2) 4_565 ?
B15 F15A 1.374(19) . ?
B15 F15G 1.39(2) . ?
B15 F15D 1.39(2) . ?
B15 F15B 1.40(2) . ?
B15 F15F 1.41(2) . ?
B15 F15C 1.42(2) . ?
B15 F15H 1.42(2) . ?
B16 F16A 1.397(17) . ?
B16 F16C 1.402(19) . ?
B16 F16F 1.403(19) . ?
B16 F16H 1.405(19) . ?
B16 F16D 1.406(19) . ?
B16 F16B 1.412(19) . ?
B16 F16G 1.433(19) . ?
B17 F17B 1.38(2) 4_565 ?
B17 F17B 1.38(2) . ?
B17 F17A 1.39(2) . ?
B17 F17C 1.41(2) 4_565 ?
B17 F17C 1.41(2) . ?
B17 F17D 1.42(2) . ?
B17 F17D 1.42(2) 4_565 ?
B18 F18D 1.39(2) . ?
B18 F18D 1.39(2) 4_565 ?
B18 F18B 1.392(19) 4_565 ?
B18 F18B 1.392(19) . ?
B18 F18C 1.40(2) 4_565 ?
B18 F18C 1.40(2) . ?
B18 F18A 1.40(2) . ?
B19 F19B 1.39(2) . ?
B19 F19H 1.39(2) . ?
B19 F19A 1.394(17) . ?
B19 F19D 1.39(2) . ?
B19 F19F 1.40(2) . ?
B19 F19G 1.40(2) . ?
B19 F19C 1.41(2) . ?
B20 F20D 1.230(18) . ?
B20 F20G 1.357(19) . ?
B20 F20A 1.398(19) . ?
B20 F20B 1.408(19) . ?
B20 F20C 1.411(19) . ?
B20 F20H 1.432(19) . ?
B20 F20F 1.445(19) . ?
F20A F20D 1.700(14) . ?
B21 F21A 1.36(2) . ?
B21 F21D 1.38(2) 4_565 ?
B21 F21D 1.38(2) . ?
B21 F21B 1.39(2) 4_565 ?
B21 F21B 1.39(2) . ?
B21 F21C 1.410(19) 4_565 ?
B21 F21C 1.411(19) . ?
B22 F22D 1.391(19) 4_565 ?
B22 F22D 1.391(19) . ?
B22 F22B 1.395(19) . ?
B22 F22B 1.395(19) 4_565 ?
B22 F22C 1.412(19) 4_565 ?
B22 F22C 1.412(19) . ?
B22 F22A 1.42(2) . ?
B23 F23A 1.376(18) . ?
B23 F23D 1.38(2) . ?
B23 F23F 1.39(2) . ?
B23 F23G 1.39(2) . ?
B23 F23B 1.40(2) . ?
B23 F23C 1.41(2) . ?
B23 F23H 1.41(2) . ?
B24 F24G 1.228(18) . ?
B24 F24D 1.365(19) . ?
B24 F24H 1.411(19) . ?
B24 F24F 1.416(19) . ?
B24 F24A 1.425(18) . ?
B24 F24B 1.441(19) . ?
B24 F24C 1.444(19) . ?
F24A F24G 1.720(15) . ?
B25 F25C 1.38(2) 4_575 ?
B25 F25C 1.38(2) . ?
B25 F25A 1.39(2) . ?
B25 F25B 1.40(2) . ?
B25 F25B 1.40(2) 4_575 ?
B25 F25D 1.409(19) . ?
B25 F25D 1.409(19) 4_575 ?
B26 F26C 1.39(2) 4_575 ?
B26 F26C 1.39(2) . ?
B26 F26B 1.39(2) . ?
B26 F26B 1.39(2) 4_575 ?
B26 F26A 1.41(2) . ?
B26 F26D 1.41(2) 4_575 ?
B26 F26D 1.41(2) . ?
B27 F27H 1.38(2) . ?
B27 F27A 1.395(18) . ?
B27 F27B 1.40(2) . ?
B27 F27C 1.40(2) . ?
B27 F27D 1.40(2) . ?
B27 F27F 1.40(2) . ?
B27 F27G 1.41(2) . ?
B28 F28H 1.233(18) . ?
B28 F28C 1.360(19) . ?
B28 F28G 1.397(19) . ?
B28 F28F 1.416(19) . ?
B28 F28A 1.420(19) . ?
B28 F28B 1.431(19) . ?
B28 F28D 1.447(19) . ?
F28A F28H 1.727(15) . ?
B29 F29D 1.38(2) . ?
B29 F29D 1.38(2) 4_575 ?
B29 F29A 1.38(2) . ?
B29 F29B 1.40(2) 4_575 ?
B29 F29B 1.40(2) . ?
B29 F29C 1.42(2) 4_575 ?
B29 F29C 1.42(2) . ?
B30 F30C 1.40(2) 4_575 ?
B30 F30C 1.40(2) . ?
B30 F30B 1.406(19) 4_575 ?
B30 F30B 1.406(19) . ?
B30 F30A 1.42(2) . ?
B30 F30D 1.431(18) . ?
B30 F30D 1.431(18) 4_575 ?
B31 F31A 1.388(17) . ?
B31 F31B 1.40(2) . ?
B31 F31H 1.40(2) . ?
B31 F31D 1.40(2) . ?
B31 F31G 1.40(2) . ?
B31 F31C 1.40(2) . ?
B31 F31F 1.41(2) . ?
B32 F32D 1.237(18) . ?
B32 F32G 1.369(19) . ?
B32 F32C 1.409(19) . ?
B32 F32B 1.42(2) . ?
B32 F32A 1.426(18) . ?
B32 F32F 1.438(19) . ?
B32 F32H 1.455(19) . ?
F32A F32D 1.727(15) . ?
B33 F33C 1.39(2) . ?
B33 F33C 1.39(2) 4_575 ?
B33 F33A 1.40(2) . ?
B33 F33D 1.41(2) 4_575 ?
B33 F33D 1.41(2) . ?
B33 F33B 1.408(19) . ?
B33 F33B 1.408(19) 4_575 ?
B34 F34C 1.383(19) . ?
B34 F34C 1.383(19) 4_575 ?
B34 F34B 1.387(19) . ?
B34 F34B 1.387(19) 4_575 ?
B34 F34A 1.40(2) . ?
B34 F34D 1.40(2) 4_575 ?
B34 F34D 1.40(2) . ?
B35 F35A 1.377(19) . ?
B35 F35C 1.39(2) . ?
B35 F35G 1.40(2) . ?
B35 F35H 1.40(2) . ?
B35 F35B 1.41(2) . ?
B35 F35D 1.41(2) . ?
B35 F35F 1.42(2) . ?
B36 F36C 1.390(19) . ?
B36 F36B 1.391(19) . ?
B36 F36G 1.393(19) . ?
B36 F36A 1.398(17) . ?
B36 F36H 1.407(19) . ?
B36 F36F 1.409(19) . ?
B36 F36D 1.423(19) . ?
B51 F51B 1.35(2) . ?
B51 F51C 1.37(2) . ?
B51 F51D 1.37(2) . ?
B51 F51A 1.39(2) . ?
B52 F52A 1.36(2) . ?
B52 F52C 1.36(2) . ?
B52 F52D 1.36(2) . ?
B52 F52B 1.36(2) . ?
B53 F53B 1.35(2) . ?
B53 F53C 1.37(2) . ?
B53 F53D 1.37(2) . ?
B53 F53A 1.39(2) . ?
B54 F54B 1.34(2) . ?
B54 F54C 1.37(2) . ?
B54 F54D 1.37(2) . ?
B54 F54A 1.38(2) . ?
B55 F55C 1.36(2) . ?
B55 F55D 1.36(2) . ?
B55 F55B 1.37(2) . ?
B55 F55A 1.37(2) . ?
B56 F56B 1.35(2) . ?
B56 F56D 1.375(19) . ?
B56 F56C 1.38(2) . ?
B56 F56A 1.40(2) . ?
B57 F57B 1.36(2) . ?
B57 F57D 1.38(2) . ?
B57 F57C 1.38(2) . ?
B57 F57A 1.40(2) . ?
B58 F58B 1.343(19) . ?
B58 F58D 1.368(19) . ?
B58 F58C 1.38(2) . ?
B58 F58A 1.39(2) . ?
B59 F59A 1.35(2) . ?
B59 F59D 1.36(2) . ?
B59 F59C 1.36(2) . ?
B59 F59B 1.36(2) . ?
B60 F60B 1.38(2) . ?
B60 F60C 1.39(2) . ?
B60 F60D 1.39(2) . ?
B60 F60A 1.40(2) . ?
B61 F61B 1.39(2) . ?
B61 F61D 1.39(2) . ?
B61 F61C 1.40(2) . ?
B61 F61A 1.41(2) . ?
B62 F62C 1.38(2) . ?
B62 F62B 1.39(2) . ?
B62 F62D 1.39(2) . ?
B62 F62A 1.40(2) . ?
B63 F63C 1.38(2) . ?
B63 F63B 1.38(2) . ?
B63 F63D 1.39(2) . ?
B63 F63A 1.40(2) . ?
B64 F64D 1.39(2) . ?
B64 F64B 1.40(2) . ?
B64 F64C 1.40(2) . ?
B64 F64A 1.40(2) . ?
B65 F65C 1.39(2) . ?
B65 F65B 1.40(2) . ?
B65 F65A 1.40(2) . ?
B65 F65D 1.40(2) . ?

loop_
_geom_angle_atom_site_label_1
_geom_angle_atom_site_label_2
_geom_angle_atom_site_label_3
_geom_angle
_geom_angle_site_symmetry_1
_geom_angle_site_symmetry_3
_geom_angle_publ_flag
C1 N1 C5 120.0 . . ?
C1 N1 Pd4 117.4(9) . . ?
C5 N1 Pd4 122.6(9) . . ?
N1 C1 C2 120.0 . . ?
C1 C2 C3 120.0 . . ?
C4 C3 C2 120.0 . . ?
C4 C3 C6 116.8(14) . . ?
C2 C3 C6 123.1(14) . . ?
C5 C4 C3 120.0 . . ?
C4 C5 N1 120.0 . . ?
C6 N2 C6 115(3) 4_565 . ?
N2 C6 C7 119(2) . . ?
N2 C6 C3 109(2) . . ?
C7 C6 C3 129(2) . . ?
C8 C7 C6 127(3) . . ?
C7 C8 C7 108(4) . 4_565 ?
C9 N3 C13 120.0 . . ?
C9 N3 Pd2 116.0(9) . . ?
C13 N3 Pd2 123.9(9) . . ?
N3 C9 C10 120.0 . . ?
C11 C10 C9 120.0 . . ?
C10 C11 C12 120.0 . . ?
C10 C11 C14 124.1(14) . . ?
C12 C11 C14 115.9(14) . . ?
C13 C12 C11 120.0 . . ?
C12 C13 N3 120.0 . . ?
C14 N4 C14 118(3) 4_565 . ?
C15 C14 N4 118(2) . . ?
C15 C14 C11 131(2) . . ?
N4 C14 C11 110(2) . . ?
C14 C15 C16 123(3) . . ?
C15 C16 C15 117(4) 4_565 . ?
C17 N5 C21 120.0 . . ?
C17 N5 Pd4 120.5(12) . . ?
C21 N5 Pd4 119.5(12) . . ?
N5 C17 C18 120.0 . . ?
C19 C18 C17 120.0 . . ?
C18 C19 C20 120.0 . . ?
C18 C19 C22 114.5(18) . . ?
C20 C19 C22 125.2(18) . . ?
C21 C20 C19 120.0 . . ?
C20 C21 N5 120.0 . . ?
C22 N6 C26 120.0 . . ?
N6 C22 C23 120.0 . . ?
N6 C22 C19 118.4(19) . . ?
C23 C22 C19 121.6(19) . . ?
C24 C23 C22 120.0 . . ?
C25 C24 C23 120.0 . . ?
C24 C25 C26 120.0 . . ?
C29 C26 C25 131(2) . . ?
C29 C26 N6 108(2) . . ?
C25 C26 N6 120.0 . . ?
C27 N7 C31 120.0 . . ?
C27 N7 Pd5 115.7(13) . . ?
C31 N7 Pd5 124.3(14) . . ?
C28 C27 N7 120.0 . . ?
C27 C28 C29 120.0 . . ?
C26 C29 C28 125(2) . . ?
C26 C29 C30 114(2) . . ?
C28 C29 C30 120.0 . . ?
C31 C30 C29 120.0 . . ?
C30 C31 N7 120.0 . . ?
C32 N8 C36 120.0 . . ?
C32 N8 Pd5 117.0(14) . . ?
C36 N8 Pd5 122.0(14) . . ?
C33 C32 N8 120.0 . . ?
C32 C33 C34 120.0 . . ?
C35 C34 C33 120.0 . . ?
C35 C34 C37 117(2) . . ?
C33 C34 C37 123(2) . . ?
C34 C35 C36 120.0 . . ?
C35 C36 N8 120.0 . . ?
C37 N9 C41 120.0 . . ?
N9 C37 C38 120.0 . . ?
N9 C37 C34 116(2) . . ?
C38 C37 C34 124(2) . . ?
C37 C38 C39 120.0 . . ?
C40 C39 C38 120.0 . . ?
C41 C40 C39 120.0 . . ?
C40 C41 N9 120.0 . . ?
C40 C41 C44 131(2) . . ?
N9 C41 C44 109(2) . . ?
C42 N10 C46 120.0 . . ?
C42 N10 Pd6 118.4(14) . . ?
C46 N10 Pd6 121.4(14) . . ?
N10 C42 C43 120.0 . . ?
C44 C43 C42 120.0 . . ?
C45 C44 C43 120.0 . . ?
C45 C44 C41 112(2) . . ?
C43 C44 C41 127(2) . . ?
C44 C45 C46 120.0 . . ?
C45 C46 N10 120.0 . . ?
C47 N11 C51 120.0 . . ?
C47 N11 Pd6 123.6(12) . . ?
C51 N11 Pd6 116.4(12) . . ?
N11 C47 C48 120.0 . . ?
C49 C48 C47 120.0 . . ?
C50 C49 C48 120.0 . . ?
C50 C49 C52 119.6(18) . . ?
C48 C49 C52 120.3(17) . . ?
C49 C50 C51 120.0 . . ?
C50 C51 N11 120.0 . . ?
C52 N12 C56 120.0 . . ?
N12 C52 C53 120.0 . . ?
N12 C52 C49 114.2(18) . . ?
C53 C52 C49 125.7(18) . . ?
C54 C53 C52 120.0 . . ?
C53 C54 C55 120.0 . . ?
C56 C55 C54 120.0 . . ?
C55 C56 N12 120.0 . . ?
C55 C56 C59 123.6(17) . . ?
N12 C56 C59 116.3(17) . . ?
C57 N13 C61 120.0 . . ?
C57 N13 Pd4 119.6(9) . . ?
C61 N13 Pd4 120.0(9) . . ?
C58 C57 N13 120.0 . . ?
C57 C58 C59 120.0 . . ?
C60 C59 C58 120.0 . . ?
C60 C59 C56 122.2(14) . . ?
C58 C59 C56 117.8(14) . . ?
C59 C60 C61 120.0 . . ?
C60 C61 N13 120.0 . . ?
C62 N14 C66 120.0 . . ?
C62 N14 Pd4 117.3(9) . . ?
C66 N14 Pd4 122.1(9) . . ?
N14 C62 C63 120.0 . . ?
C64 C63 C62 120.0 . . ?
C65 C64 C63 120.0 . . ?
C65 C64 C67 119.8(14) . . ?
C63 C64 C67 120.1(14) . . ?
C64 C65 C66 120.0 . . ?
C65 C66 N14 120.0 . . ?
C67 N15 C71 120.0 . . ?
N15 C67 C68 120.0 . . ?
N15 C67 C64 113.5(16) . . ?
C68 C67 C64 126.2(16) . . ?
C69 C68 C67 120.0 . . ?
C68 C69 C70 120.0 . . ?
C69 C70 C71 120.0 . . ?
C70 C71 N15 120.0 . . ?
C70 C71 C74 122.5(16) . . ?
N15 C71 C74 117.4(16) . . ?
C72 N16 C76 120.0 . . ?
C72 N16 Pd3 118.2(10) . . ?
C76 N16 Pd3 121.6(10) . . ?
C73 C72 N16 120.0 . . ?
C72 C73 C74 120.0 . . ?
C75 C74 C73 120.0 . . ?
C75 C74 C71 120.8(15) . . ?
C73 C74 C71 119.2(15) . . ?
C74 C75 C76 120.0 . . ?
C75 C76 N16 120.0 . . ?
C77 N17 C81 120.0 . . ?
C77 N17 Pd3 118.0(10) . . ?
C81 N17 Pd3 121.7(10) . . ?
N17 C77 C78 120.0 . . ?
C79 C78 C77 120.0 . . ?
C78 C79 C80 120.0 . . ?
C78 C79 C82 119.4(15) . . ?
C80 C79 C82 120.6(15) . . ?
C81 C80 C79 120.0 . . ?
C80 C81 N17 120.0 . . ?
C82 N18 C86 120.0 . . ?
C83 C82 N18 120.0 . . ?
C83 C82 C79 122.2(16) . . ?
N18 C82 C79 117.7(16) . . ?
C82 C83 C84 120.0 . . ?
C85 C84 C83 120.0 . . ?
C84 C85 C86 120.0 . . ?
C85 C86 N18 120.0 . . ?
C85 C86 C89 126.7(16) . . ?
N18 C86 C89 113.0(16) . . ?
C87 N19 C91 120.0 . . ?
C87 N19 Pd2 117.6(10) . . ?
C91 N19 Pd2 121.7(10) . . ?
C88 C87 N19 120.0 . . ?
C87 C88 C89 120.0 . . ?
C88 C89 C90 120.0 . . ?
C88 C89 C86 121.0(15) . . ?
C90 C89 C86 118.9(15) . . ?
C91 C90 C89 120.0 . . ?
C90 C91 N19 120.0 . . ?
C92 N20 C96 120.0 . . ?
C92 N20 Pd2 119.7(10) . . ?
C96 N20 Pd2 119.8(10) . . ?
N20 C92 C93 120.0 . . ?
C94 C93 C92 120.0 . . ?
C93 C94 C95 120.0 . . ?
C93 C94 C97 117.3(15) . . ?
C95 C94 C97 122.7(15) . . ?
C96 C95 C94 120.0 . . ?
C95 C96 N20 120.0 . . ?
C97 N21 C101 120.0 . . ?
C98 C97 N21 120.0 . . ?
C98 C97 C94 122.1(18) . . ?
N21 C97 C94 117.7(18) . . ?
C97 C98 C99 120.0 . . ?
C100 C99 C98 120.0 . . ?
C101 C100 C99 120.0 . . ?
C100 C101 N21 120.0 . . ?
C100 C101 C104 125.9(19) . . ?
N21 C101 C104 114.0(19) . . ?
C102 N22 C106 120.0 . . ?
C102 N22 Pd6 125.3(13) . . ?
C106 N22 Pd6 114.6(13) . . ?
C103 C102 N22 120.0 . . ?
C102 C103 C104 120.0 . . ?
C103 C104 C105 120.0 . . ?
C103 C104 C101 119.1(18) . . ?
C105 C104 C101 120.8(19) . . ?
C104 C105 C106 120.0 . . ?
C105 C106 N22 120.0 . . ?
C107 N23 C111 120.0 . . ?
C107 N23 Pd6 115.7(13) . . ?
C111 N23 Pd6 124.3(13) . . ?
C108 C107 N23 120.0 . . ?
C109 C108 C107 120.0 . . ?
C108 C109 C110 120.0 . . ?
C108 C109 C112 128(2) . . ?
C110 C109 C112 112(2) . . ?
C111 C110 C109 120.0 . . ?
C110 C111 N23 120.0 . . ?
C112 N24 C116 120.0 . . ?
N24 C112 C113 120.0 . . ?
N24 C112 C109 109(2) . . ?
C113 C112 C109 131(2) . . ?
C112 C113 C114 120.0 . . ?
C115 C114 C113 120.0 . . ?
C116 C115 C114 120.0 . . ?
C115 C116 N24 120.0 . . ?
C115 C116 C119 123(2) . . ?
N24 C116 C119 117(2) . . ?
C117 N25 C121 120.0 . . ?
C117 N25 Pd1 116.7(14) . . ?
C121 N25 Pd1 122.1(13) . . ?
N25 C117 C118 120.0 . . ?
C117 C118 C119 120.0 . . ?
C120 C119 C118 120.0 . . ?
C120 C119 C116 118(2) . . ?
C118 C119 C116 122(2) . . ?
C119 C120 C121 120.0 . . ?
C120 C121 N25 120.0 . . ?
C122 N26 C126 120.0 . . ?
C122 N26 Pd1 114.2(13) . . ?
C126 N26 Pd1 125.7(13) . . ?
N26 C122 C123 120.0 . . ?
C122 C123 C124 120.0 . . ?
C123 C124 C125 120.0 . . ?
C123 C124 C127 127.9(18) . . ?
C125 C124 C127 112.1(18) . . ?
C126 C125 C124 120.0 . . ?
C125 C126 N26 120.0 . . ?
C127 N27 C131 120.0 . . ?
N27 C127 C128 120.0 . . ?
N27 C127 C124 107.1(19) . . ?
C128 C127 C124 132.9(19) . . ?
C129 C128 C127 120.0 . . ?
C128 C129 C130 120.0 . . ?
C131 C130 C129 120.0 . . ?
C130 C131 N27 120.0 . . ?
C130 C131 C134 124.1(19) . . ?
N27 C131 C134 115.6(19) . . ?
C132 N28 C136 120.0 . . ?
C132 N28 Pd2 119.3(12) . . ?
C136 N28 Pd2 120.7(12) . . ?
C133 C132 N28 120.0 . . ?
C134 C133 C132 120.0 . . ?
C133 C134 C135 120.0 . . ?
C133 C134 C131 117.5(18) . . ?
C135 C134 C131 122.2(18) . . ?
C136 C135 C134 120.0 . . ?
C135 C136 N28 120.0 . . ?
C137 N29 C141 120.0 . . ?
C137 N29 Pd10 116.5(9) . . ?
C141 N29 Pd10 123.5(9) . . ?
N29 C137 C138 120.0 . . ?
C139 C138 C137 120.0 . . ?
C138 C139 C140 120.0 . . ?
C138 C139 C142 122.6(12) . . ?
C140 C139 C142 117.4(12) . . ?
C141 C140 C139 120.0 . . ?
C140 C141 N29 120.0 . . ?
C142 N30 C142 121(3) 4_565 . ?
C143 C142 N30 115(2) . . ?
C143 C142 C139 133.3(18) . . ?
N30 C142 C139 111.8(17) . . ?
C144 C143 C142 128(3) . . ?
C143 C144 C143 113(4) . 4_565 ?
C145 N31 C149 120.0 . . ?
C145 N31 Pd12 117.3(8) . . ?
C149 N31 Pd12 122.7(8) . . ?
C146 C145 N31 120.0 . . ?
C145 C146 C147 120.0 . . ?
C148 C147 C146 120.0 . . ?
C148 C147 C150 117.8(14) . . ?
C146 C147 C150 122.0(13) . . ?
C147 C148 C149 120.0 . . ?
C148 C149 N31 120.0 . . ?
C150 N32 C150 117(3) . 4_565 ?
C151 C150 N32 118(2) . . ?
C151 C150 C147 132(2) . . ?
N32 C150 C147 110(2) . . ?
C152 C151 C150 129(3) . . ?
C151 C152 C151 109(3) 4_565 . ?
C153 N33 C157 120.0 . . ?
C153 N33 Pd8 118.3(14) . . ?
C157 N33 Pd8 121.7(14) . . ?
N33 C153 C154 120.0 . . ?
C155 C154 C153 120.0 . . ?
C156 C155 C154 120.0 . . ?
C156 C155 C158 114(2) . . ?
C154 C155 C158 126(2) . . ?
C155 C156 C157 120.0 . . ?
C156 C157 N33 120.0 . . ?
C158 N34 C162 120.0 . . ?
N34 C158 C159 120.0 . . ?
N34 C158 C155 113(2) . . ?
C159 C158 C155 127(3) . . ?
C160 C159 C158 120.0 . . ?
C159 C160 C161 120.0 . . ?
C162 C161 C160 120.0 . . ?
C161 C162 N34 120.0 . . ?
C161 C162 C165 127(2) . . ?
N34 C162 C165 113(2) . . ?
C163 N35 C167 120.0 . . ?
C163 N35 Pd9 118.1(16) . . ?
C167 N35 Pd9 121.3(16) . . ?
C164 C163 N35 120.0 . . ?
C163 C164 C165 120.0 . . ?
C166 C165 C164 120.0 . . ?
C166 C165 C162 117(2) . . ?
C164 C165 C162 123(2) . . ?
C167 C166 C165 120.0 . . ?
C166 C167 N35 120.0 . . ?
C168 N36 C172 120.0 . . ?
C168 N36 Pd9 116.1(13) . . ?
C172 N36 Pd9 123.9(13) . . ?
N36 C168 C169 120.0 . . ?
C170 C169 C168 120.0 . . ?
C171 C170 C169 120.0 . . ?
C171 C170 C173 116.6(19) . . ?
C169 C170 C173 122.9(19) . . ?
C172 C171 C170 120.0 . . ?
C171 C172 N36 120.0 . . ?
C173 N37 C177 120.0 . . ?
N37 C173 C174 120.0 . . ?
N37 C173 C170 110(2) . . ?
C174 C173 C170 130(2) . . ?
C175 C174 C173 120.0 . . ?
C176 C175 C174 120.0 . . ?
C175 C176 C177 120.0 . . ?
C176 C177 N37 120.0 . . ?
C176 C177 C180 120.4(19) . . ?
N37 C177 C180 119.6(19) . . ?
C178 N38 C182 120.0 . . ?
C178 N38 Pd10 122.3(11) . . ?
C182 N38 Pd10 117.6(11) . . ?
N38 C178 C179 120.0 . . ?
C178 C179 C180 120.0 . . ?
C181 C180 C179 120.0 . . ?
C181 C180 C177 127.6(17) . . ?
C179 C180 C177 112.3(16) . . ?
C180 C181 C182 120.0 . . ?
C181 C182 N38 120.0 . . ?
C183 N39 C187 120.0 . . ?
C183 N39 Pd10 119.3(9) . . ?
C187 N39 Pd10 120.4(9) . . ?
N39 C183 C184 120.0 . . ?
C183 C184 C185 120.0 . . ?
C186 C185 C184 120.0 . . ?
C186 C185 C188 122.7(14) . . ?
C184 C185 C188 117.3(14) . . ?
C185 C186 C187 120.0 . . ?
C186 C187 N39 120.0 . . ?
C188 N40 C192 120.0 . . ?
C189 C188 N40 120.0 . . ?
C189 C188 C185 121.9(17) . . ?
N40 C188 C185 118.1(17) . . ?
C188 C189 C190 120.0 . . ?
C189 C190 C191 120.0 . . ?
C192 C191 C190 120.0 . . ?
C195 C192 C191 129.7(18) . . ?
C195 C192 N40 110.1(18) . . ?
C191 C192 N40 120.0 . . ?
C193 N41 C197 120.0 . . ?
C193 N41 Pd8 122.2(13) . . ?
C197 N41 Pd8 117.7(13) . . ?
N41 C193 C194 120.0 . . ?
C193 C194 C195 120.0 . . ?
C192 C195 C194 124.1(18) . . ?
C192 C195 C196 115.8(18) . . ?
C194 C195 C196 120.0 . . ?
C197 C196 C195 120.0 . . ?
C196 C197 N41 120.0 . . ?
C198 N42 C202 120.0 . . ?
C198 N42 Pd10 116.2(10) . . ?
C202 N42 Pd10 123.1(10) . . ?
C199 C198 N42 120.0 . . ?
C198 C199 C200 120.0 . . ?
C199 C200 C201 120.0 . . ?
C199 C200 C203 122.9(14) . . ?
C201 C200 C203 117.0(14) . . ?
C202 C201 C200 120.0 . . ?
C201 C202 N42 120.0 . . ?
C203 N43 C207 120.0 . . ?
N43 C203 C204 120.0 . . ?
N43 C203 C200 112.4(16) . . ?
C204 C203 C200 127.6(16) . . ?
C205 C204 C203 120.0 . . ?
C204 C205 C206 120.0 . . ?
C205 C206 C207 120.0 . . ?
C206 C207 N43 120.0 . . ?
C206 C207 C210 121.0(17) . . ?
N43 C207 C210 119.0(17) . . ?
C212 N44 C208 120.0 . . ?
C212 N44 Pd11 120.6(11) . . ?
C208 N44 Pd11 118.9(11) . . ?
C209 C208 N44 120.0 . . ?
C210 C209 C208 120.0 . . ?
C209 C210 C211 120.0 . . ?
C209 C210 C207 116.8(16) . . ?
C211 C210 C207 123.2(16) . . ?
C212 C211 C210 120.0 . . ?
C211 C212 N44 120.0 . . ?
C213 N45 C217 120.0 . . ?
C213 N45 Pd11 118.5(10) . . ?
C217 N45 Pd11 121.2(10) . . ?
C214 C213 N45 120.0 . . ?
C213 C214 C215 120.0 . . ?
C214 C215 C216 120.0 . . ?
C214 C215 C218 119.5(16) . . ?
C216 C215 C218 120.4(16) . . ?
C215 C216 C217 120.0 . . ?
C216 C217 N45 120.0 . . ?
C218 N46 C222 120.0 . . ?
N46 C218 C219 120.0 . . ?
N46 C218 C215 116.3(17) . . ?
C219 C218 C215 123.6(17) . . ?
C220 C219 C218 120.0 . . ?
C219 C220 C221 120.0 . . ?
C220 C221 C222 120.0 . . ?
C221 C222 N46 120.0 . . ?
C221 C222 C225 125.3(16) . . ?
N46 C222 C225 114.7(16) . . ?
C223 N47 C227 120.0 . . ?
C223 N47 Pd12 117.7(9) . . ?
C227 N47 Pd12 121.6(10) . . ?
C224 C223 N47 120.0 . . ?
C223 C224 C225 120.0 . . ?
C224 C225 C226 120.0 . . ?
C224 C225 C222 120.2(14) . . ?
C226 C225 C222 119.8(14) . . ?
C225 C226 C227 120.0 . . ?
C226 C227 N47 120.0 . . ?
C228 N48 C232 120.0 . . ?
C228 N48 Pd12 119.1(10) . . ?
C232 N48 Pd12 120.4(10) . . ?
N48 C228 C229 120.0 . . ?
C230 C229 C228 120.0 . . ?
C229 C230 C231 120.0 . . ?
C229 C230 C233 118.1(14) . . ?
C231 C230 C233 121.9(14) . . ?
C232 C231 C230 120.0 . . ?
C231 C232 N48 120.0 . . ?
C233 N49 C237 120.0 . . ?
C234 C233 N49 120.0 . . ?
C234 C233 C230 122.7(17) . . ?
N49 C233 C230 117.3(17) . . ?
C233 C234 C235 120.0 . . ?
C236 C235 C234 120.0 . . ?
C237 C236 C235 120.0 . . ?
C236 C237 N49 120.0 . . ?
C236 C237 C240 129.9(18) . . ?
N49 C237 C240 109.6(18) . . ?
C238 N50 C242 120.0 . . ?
C238 N50 Pd8 121.5(13) . . ?
C242 N50 Pd8 118.5(13) . . ?
N50 C238 C239 120.0 . . ?
C240 C239 C238 120.0 . . ?
C241 C240 C239 120.0 . . ?
C241 C240 C237 115.5(18) . . ?
C239 C240 C237 124.1(18) . . ?
C240 C241 C242 120.0 . . ?
C241 C242 N50 120.0 . . ?
C243 N51 C247 120.0 . . ?
C243 N51 Pd8 120.2(14) . . ?
C247 N51 Pd8 119.7(14) . . ?
C244 C243 N51 120.0 . . ?
C245 C244 C243 120.0 . . ?
C244 C245 C246 120.0 . . ?
C244 C245 C248 125(2) . . ?
C246 C245 C248 115(2) . . ?
C245 C246 C247 120.0 . . ?
C246 C247 N51 120.0 . . ?
C248 N52 C252 120.0 . . ?
N52 C248 C249 120.0 . . ?
N52 C248 C245 112(2) . . ?
C249 C248 C245 128(2) . . ?
C250 C249 C248 120.0 . . ?
C251 C250 C249 120.0 . . ?
C250 C251 C252 120.0 . . ?
C251 C252 N52 120.0 . . ?
C251 C252 C255 123(3) . . ?
N52 C252 C255 117(3) . . ?
C253 N53 C257 120.0 . . ?
C253 N53 Pd7 116.0(14) . . ?
C257 N53 Pd7 123.4(14) . . ?
C254 C253 N53 120.0 . . ?
C253 C254 C255 120.0 . . ?
C254 C255 C256 120.0 . . ?
C254 C255 C252 121(2) . . ?
C256 C255 C252 118(2) . . ?
C257 C256 C255 120.0 . . ?
C256 C257 N53 120.0 . . ?
C258 N54 C262 120.0 . . ?
C258 N54 Pd7 118.7(13) . . ?
C262 N54 Pd7 121.3(12) . . ?
C259 C258 N54 120.0 . . ?
C258 C259 C260 120.0 . . ?
C259 C260 C261 120.0 . . ?
C259 C260 C263 121.7(18) . . ?
C261 C260 C263 117.9(18) . . ?
C262 C261 C260 120.0 . . ?
C261 C262 N54 120.0 . . ?
C263 N55 C267 120.0 . . ?
C264 C263 N55 120.0 . . ?
C264 C263 C260 129.4(19) . . ?
N55 C263 C260 110.2(19) . . ?
C263 C264 C265 120.0 . . ?
C264 C265 C266 120.0 . . ?
C267 C266 C265 120.0 . . ?
C266 C267 N55 120.0 . . ?
C266 C267 C270 120.3(19) . . ?
N55 C267 C270 119.7(19) . . ?
C268 N56 C272 120.0 . . ?
C268 N56 Pd12 122.2(12) . . ?
C272 N56 Pd12 117.7(12) . . ?
N56 C268 C269 120.0 . . ?
C268 C269 C270 120.0 . . ?
C269 C270 C271 120.0 . . ?
C269 C270 C267 112.4(17) . . ?
C271 C270 C267 127.5(17) . . ?
C270 C271 C272 120.0 . . ?
C271 C272 N56 120.0 . . ?
C273 N57 C277 120.0 . . ?
C273 N57 Pd16 117.3(8) . . ?
C277 N57 Pd16 122.7(8) . . ?
C274 C273 N57 120.0 . . ?
C273 C274 C275 120.0 . . ?
C276 C275 C274 120.0 . . ?
C276 C275 C278 118.6(12) . . ?
C274 C275 C278 121.4(12) . . ?
C277 C276 C275 120.0 . . ?
C276 C277 N57 120.0 . . ?
C278 N58 C278 116(3) . 4_575 ?
C279 C278 N58 121(2) . . ?
C279 C278 C275 127.9(17) . . ?
N58 C278 C275 110.8(16) . . ?
C280 C279 C278 123(3) . . ?
C279 C280 C279 116(3) . 4_575 ?
C281 N59 C285 120.0 . . ?
C281 N59 Pd14 116.6(9) . . ?
C285 N59 Pd14 123.3(9) . . ?
N59 C281 C282 120.0 . . ?
C283 C282 C281 120.0 . . ?
C284 C283 C282 120.0 . . ?
C284 C283 C286 116.2(13) . . ?
C282 C283 C286 123.8(13) . . ?
C283 C284 C285 120.0 . . ?
C284 C285 N59 120.0 . . ?
C286 N60 C286 121(3) . 4_575 ?
C287 C286 N60 116(2) . . ?
C287 C286 C283 130.4(18) . . ?
N60 C286 C283 111.7(17) . . ?
C286 C287 C288 126(3) . . ?
C287 C288 C287 112(3) 4_575 . ?
C289 N61 C293 120.0 . . ?
C289 N61 Pd16 122.1(12) . . ?
C293 N61 Pd16 117.8(12) . . ?
N61 C289 C290 120.0 . . ?
C289 C290 C291 120.0 . . ?
C292 C291 C290 120.0 . . ?
C292 C291 C294 128.8(17) . . ?
C290 C291 C294 111.2(17) . . ?
C291 C292 C293 120.0 . . ?
C292 C293 N61 120.0 . . ?
C294 N62 C298 120.0 . . ?
N62 C294 C295 120.0 . . ?
N62 C294 C291 119.4(19) . . ?
C295 C294 C291 120.5(19) . . ?
C296 C295 C294 120.0 . . ?
C295 C296 C297 120.0 . . ?
C298 C297 C296 120.0 . . ?
C301 C298 C297 127(2) . . ?
C301 C298 N62 113(2) . . ?
C297 C298 N62 120.0 . . ?
C299 N63 C303 120.0 . . ?
C299 N63 Pd17 120.1(13) . . ?
C303 N63 Pd17 119.9(13) . . ?
N63 C299 C300 120.0 . . ?
C301 C300 C299 120.0 . . ?
C298 C301 C300 118.9(19) . . ?
C298 C301 C302 120.3(19) . . ?
C300 C301 C302 120.0 . . ?
C303 C302 C301 120.0 . . ?
C302 C303 N63 120.0 . . ?
C304 N64 C308 120.0 . . ?
C304 N64 Pd17 117.2(15) . . ?
C308 N64 Pd17 122.2(15) . . ?
N64 C304 C305 120.0 . . ?
C306 C305 C304 120.0 . . ?
C305 C306 C307 120.0 . . ?
C305 C306 C309 123(2) . . ?
C307 C306 C309 117(2) . . ?
C306 C307 C308 120.0 . . ?
C307 C308 N64 120.0 . . ?
C309 N65 C313 120.0 . . ?
N65 C309 C310 120.0 . . ?
N65 C309 C306 114(2) . . ?
C310 C309 C306 126(2) . . ?
C311 C310 C309 120.0 . . ?
C310 C311 C312 120.0 . . ?
C313 C312 C311 120.0 . . ?
C312 C313 N65 120.0 . . ?
C312 C313 C316 126(2) . . ?
N65 C313 C316 114(2) . . ?
C314 N66 C318 120.0 . . ?
C314 N66 Pd18 118.6(15) . . ?
C318 N66 Pd18 121.1(15) . . ?
C315 C314 N66 120.0 . . ?
C314 C315 C316 120.0 . . ?
C317 C316 C315 120.0 . . ?
C317 C316 C313 116(2) . . ?
C315 C316 C313 124(2) . . ?
C318 C317 C316 120.0 . . ?
C317 C318 N66 120.0 . . ?
C319 N67 C323 120.0 . . ?
C319 N67 Pd18 124.0(12) . . ?
C323 N67 Pd18 115.8(12) . . ?
C320 C319 N67 120.0 . . ?
C321 C320 C319 120.0 . . ?
C324 C321 C322 122.6(18) . . ?
C324 C321 C320 117.4(18) . . ?
C322 C321 C320 120.0 . . ?
C321 C322 C323 120.0 . . ?
C322 C323 N67 120.0 . . ?
C324 N68 C328 120.0 . . ?
C321 C324 N68 117.6(19) . . ?
C321 C324 C325 122.3(19) . . ?
N68 C324 C325 120.0 . . ?
C326 C325 C324 120.0 . . ?
C327 C326 C325 120.0 . . ?
C326 C327 C328 120.0 . . ?
C327 C328 N68 120.0 . . ?
C327 C328 C331 124.5(17) . . ?
N68 C328 C331 115.2(17) . . ?
C329 N69 C333 120.0 . . ?
C329 N69 Pd16 119.3(9) . . ?
C333 N69 Pd16 120.3(9) . . ?
N69 C329 C330 120.0 . . ?
C329 C330 C331 120.0 . . ?
C332 C331 C330 120.0 . . ?
C332 C331 C328 121.9(15) . . ?
C330 C331 C328 118.1(14) . . ?
C331 C332 C333 120.0 . . ?
C332 C333 N69 120.0 . . ?
C334 N70 C338 120.0 . . ?
C334 N70 Pd16 118.5(10) . . ?
C338 N70 Pd16 120.6(10) . . ?
N70 C334 C335 120.0 . . ?
C336 C335 C334 120.0 . . ?
C335 C336 C337 120.0 . . ?
C335 C336 C339 119.9(15) . . ?
C337 C336 C339 119.8(15) . . ?
C336 C337 C338 120.0 . . ?
C337 C338 N70 120.0 . . ?
C339 N71 C343 120.0 . . ?
N71 C339 C340 120.0 . . ?
N71 C339 C336 112.6(17) . . ?
C340 C339 C336 127.3(17) . . ?
C341 C340 C339 120.0 . . ?
C340 C341 C342 120.0 . . ?
C343 C342 C341 120.0 . . ?
C342 C343 N71 120.0 . . ?
C342 C343 C346 122.3(17) . . ?
N71 C343 C346 117.6(17) . . ?
C344 N72 C348 120.0 . . ?
C344 N72 Pd15 118.1(10) . . ?
C348 N72 Pd15 121.6(10) . . ?
C345 C344 N72 120.0 . . ?
C344 C345 C346 120.0 . . ?
C347 C346 C345 120.0 . . ?
C347 C346 C343 121.4(15) . . ?
C345 C346 C343 118.4(15) . . ?
C348 C347 C346 120.0 . . ?
C347 C348 N72 120.0 . . ?
C349 N73 C353 120.0 . . ?
C349 N73 Pd15 118.4(10) . . ?
C353 N73 Pd15 121.3(11) . . ?
C350 C349 N73 120.0 . . ?
C351 C350 C349 120.0 . . ?
C350 C351 C352 120.0 . . ?
C350 C351 C354 118.9(15) . . ?
C352 C351 C354 121.1(15) . . ?
C353 C352 C351 120.0 . . ?
C352 C353 N73 120.0 . . ?
C354 N74 C358 120.0 . . ?
N74 C354 C355 120.0 . . ?
N74 C354 C351 118.0(17) . . ?
C355 C354 C351 121.9(17) . . ?
C356 C355 C354 120.0 . . ?
C355 C356 C357 120.0 . . ?
C358 C357 C356 120.0 . . ?
C357 C358 N74 120.0 . . ?
C357 C358 C361 128.0(16) . . ?
N74 C358 C361 112.0(16) . . ?
C359 N75 C363 120.0 . . ?
C359 N75 Pd14 117.4(10) . . ?
C363 N75 Pd14 121.9(10) . . ?
C360 C359 N75 120.0 . . ?
C361 C360 C359 120.0 . . ?
C360 C361 C362 120.0 . . ?
C360 C361 C358 121.5(14) . . ?
C362 C361 C358 118.3(14) . . ?
C361 C362 C363 120.0 . . ?
C362 C363 N75 120.0 . . ?
C364 N76 C368 120.0 . . ?
C364 N76 Pd14 119.2(9) . . ?
C368 N76 Pd14 120.6(9) . . ?
C365 C364 N76 120.0 . . ?
C364 C365 C366 120.0 . . ?
C365 C366 C367 120.0 . . ?
C365 C366 C369 116.5(14) . . ?
C367 C366 C369 123.3(14) . . ?
C368 C367 C366 120.0 . . ?
C367 C368 N76 120.0 . . ?
C369 N77 C373 120.0 . . ?
C370 C369 N77 120.0 . . ?
C370 C369 C366 120.3(17) . . ?
N77 C369 C366 119.7(17) . . ?
C369 C370 C371 120.0 . . ?
C372 C371 C370 120.0 . . ?
C373 C372 C371 120.0 . . ?
C372 C373 N77 120.0 . . ?
C372 C373 C376 130.6(18) . . ?
N77 C373 C376 109.2(18) . . ?
C374 N78 C378 120.0 . . ?
C374 N78 Pd18 122.9(12) . . ?
C378 N78 Pd18 117.0(12) . . ?
N78 C374 C375 120.0 . . ?
C374 C375 C376 120.0 . . ?
C377 C376 C375 120.0 . . ?
C377 C376 C373 116.1(18) . . ?
C375 C376 C373 123.9(17) . . ?
C376 C377 C378 120.0 . . ?
C377 C378 N78 120.0 . . ?
C379 N79 C383 120.0 . . ?
C379 N79 Pd18 118.8(14) . . ?
C383 N79 Pd18 121.0(14) . . ?
N79 C379 C380 120.0 . . ?
C379 C380 C381 120.0 . . ?
C380 C381 C382 120.0 . . ?
C380 C381 C384 121(2) . . ?
C382 C381 C384 119(2) . . ?
C383 C382 C381 120.0 . . ?
C382 C383 N79 120.0 . . ?
C384 N80 C388 120.0 . . ?
N80 C384 C385 120.0 . . ?
N80 C384 C381 118(2) . . ?
C385 C384 C381 122(2) . . ?
C384 C385 C386 120.0 . . ?
C385 C386 C387 120.0 . . ?
C388 C387 C386 120.0 . . ?
C387 C388 N80 120.0 . . ?
C387 C388 C391 129(2) . . ?
N80 C388 C391 111(2) . . ?
C389 N81 C393 120.0 . . ?
C389 N81 Pd13 113.9(14) . . ?
C393 N81 Pd13 125.1(14) . . ?
N81 C389 C390 120.0 . . ?
C391 C390 C389 120.0 . . ?
C390 C391 C392 120.0 . . ?
C390 C391 C388 126(2) . . ?
C392 C391 C388 114(2) . . ?
C391 C392 C393 120.0 . . ?
C392 C393 N81 120.0 . . ?
C394 N82 C398 120.0 . . ?
C394 N82 Pd13 116.1(13) . . ?
C398 N82 Pd13 123.8(13) . . ?
N82 C394 C395 120.0 . . ?
C396 C395 C394 120.0 . . ?
C399 C396 C395 126(2) . . ?
C399 C396 C397 114(2) . . ?
C395 C396 C397 120.0 . . ?
C398 C397 C396 120.0 . . ?
C397 C398 N82 120.0 . . ?
C399 N83 C403 120.0 . . ?
C396 C399 N83 107(2) . . ?
C396 C399 C400 132(2) . . ?
N83 C399 C400 120.0 . . ?
C399 C400 C401 120.0 . . ?
C402 C401 C400 120.0 . . ?
C401 C402 C403 120.0 . . ?
C402 C403 N83 120.0 . . ?
C402 C403 C406 120.3(18) . . ?
N83 C403 C406 119.6(18) . . ?
C404 N84 C408 120.0 . . ?
C404 N84 Pd14 123.4(11) . . ?
C408 N84 Pd14 116.6(11) . . ?
C405 C404 N84 120.0 . . ?
C404 C405 C406 120.0 . . ?
C407 C406 C405 120.0 . . ?
C407 C406 C403 127.7(16) . . ?
C405 C406 C403 112.0(16) . . ?
C408 C407 C406 120.0 . . ?
C407 C408 N84 120.0 . . ?
N25 Pd1 N25 89.5(8) . 4_565 ?
N25 Pd1 N26 179.5(6) . 4_565 ?
N25 Pd1 N26 90.9(5) 4_565 4_565 ?
N25 Pd1 N26 90.9(5) . . ?
N25 Pd1 N26 179.5(6) 4_565 . ?
N26 Pd1 N26 88.6(7) 4_565 . ?
N28 Pd2 N3 90.5(5) . . ?
N28 Pd2 N19 177.4(7) . . ?
N3 Pd2 N19 89.0(5) . . ?
N28 Pd2 N20 89.2(5) . . ?
N3 Pd2 N20 178.0(6) . . ?
N19 Pd2 N20 91.2(5) . . ?
N16 Pd3 N16 92.2(6) . 4_565 ?
N16 Pd3 N17 176.9(7) . 4_565 ?
N16 Pd3 N17 87.8(4) 4_565 4_565 ?
N16 Pd3 N17 87.8(4) . . ?
N16 Pd3 N17 176.9(7) 4_565 . ?
N17 Pd3 N17 92.0(6) 4_565 . ?
N5 Pd4 N13 89.1(5) . . ?
N5 Pd4 N14 176.9(7) . . ?
N13 Pd4 N14 91.7(5) . . ?
N5 Pd4 N1 90.1(5) . . ?
N13 Pd4 N1 177.1(6) . . ?
N14 Pd4 N1 89.0(5) . . ?
N8 Pd5 N8 89.4(8) . 4_565 ?
N8 Pd5 N7 90.9(5) . . ?
N8 Pd5 N7 179.2(9) 4_565 . ?
N8 Pd5 N7 179.2(9) . 4_565 ?
N8 Pd5 N7 91.0(5) 4_565 4_565 ?
N7 Pd5 N7 88.7(7) . 4_565 ?
N23 Pd6 N11 179.1(9) . . ?
N23 Pd6 N10 87.5(7) . . ?
N11 Pd6 N10 92.5(6) . . ?
N23 Pd6 N22 91.0(6) . . ?
N11 Pd6 N22 89.0(6) . . ?
N10 Pd6 N22 177.9(7) . . ?
N53 Pd7 N53 90.9(8) 4_565 . ?
N53 Pd7 N54 178.8(8) 4_565 . ?
N53 Pd7 N54 89.9(5) . . ?
N53 Pd7 N54 89.9(5) 4_565 4_565 ?
N53 Pd7 N54 178.8(8) . 4_565 ?
N54 Pd7 N54 89.3(7) . 4_565 ?
N50 Pd8 N41 89.8(6) . . ?
N50 Pd8 N33 179.1(7) . . ?
N41 Pd8 N33 91.0(6) . . ?
N50 Pd8 N51 92.3(6) . . ?
N41 Pd8 N51 177.3(7) . . ?
N33 Pd8 N51 86.9(6) . . ?
N35 Pd9 N35 90.9(8) . 4_565 ?
N35 Pd9 N36 90.6(5) . . ?
N35 Pd9 N36 177.9(7) 4_565 . ?
N35 Pd9 N36 177.9(7) . 4_565 ?
N35 Pd9 N36 90.6(5) 4_565 4_565 ?
N36 Pd9 N36 87.8(7) . 4_565 ?
N38 Pd10 N29 90.1(5) . . ?
N38 Pd10 N42 176.7(7) . . ?
N29 Pd10 N42 90.1(5) . . ?
N38 Pd10 N39 87.2(5) . . ?
N29 Pd10 N39 176.9(5) . . ?
N42 Pd10 N39 92.5(5) . . ?
N45 Pd11 N45 91.9(6) . 4_565 ?
N45 Pd11 N44 88.7(4) . . ?
N45 Pd11 N44 177.3(7) 4_565 . ?
N45 Pd11 N44 177.3(7) . 4_565 ?
N45 Pd11 N44 88.7(4) 4_565 4_565 ?
N44 Pd11 N44 90.5(6) . 4_565 ?
N56 Pd12 N31 90.9(5) . . ?
N56 Pd12 N48 87.7(5) . . ?
N31 Pd12 N48 177.0(6) . . ?
N56 Pd12 N47 176.0(7) . . ?
N31 Pd12 N47 90.2(5) . . ?
N48 Pd12 N47 91.1(5) . . ?
N81 Pd13 N81 88.8(8) 4_575 . ?
N81 Pd13 N82 179.3(10) 4_575 . ?
N81 Pd13 N82 91.2(5) . . ?
N81 Pd13 N82 91.2(5) 4_575 4_575 ?
N81 Pd13 N82 179.3(10) . 4_575 ?
N82 Pd13 N82 88.9(7) . 4_575 ?
N84 Pd14 N76 87.0(5) . . ?
N84 Pd14 N75 175.3(7) . . ?
N76 Pd14 N75 92.4(5) . . ?
N84 Pd14 N59 91.3(5) . . ?
N76 Pd14 N59 177.5(5) . . ?
N75 Pd14 N59 89.1(5) . . ?
N73 Pd15 N73 91.5(6) 4_575 . ?
N73 Pd15 N72 177.1(7) 4_575 . ?
N73 Pd15 N72 88.2(4) . . ?
N73 Pd15 N72 88.2(4) 4_575 4_575 ?
N73 Pd15 N72 177.1(7) . 4_575 ?
N72 Pd15 N72 91.9(6) . 4_575 ?
N61 Pd16 N57 90.0(5) . . ?
N61 Pd16 N69 87.7(5) . . ?
N57 Pd16 N69 176.7(5) . . ?
N61 Pd16 N70 176.1(7) . . ?
N57 Pd16 N70 90.8(5) . . ?
N69 Pd16 N70 91.3(5) . . ?
N64 Pd17 N64 90.8(9) 4_575 . ?
N64 Pd17 N63 177.6(8) 4_575 . ?
N64 Pd17 N63 90.3(6) . . ?
N64 Pd17 N63 90.3(6) 4_575 4_575 ?
N64 Pd17 N63 177.6(8) . 4_575 ?
N63 Pd17 N63 88.5(7) . 4_575 ?
N66 Pd18 N78 178.8(7) . . ?
N66 Pd18 N67 89.8(6) . . ?
N78 Pd18 N67 91.3(6) . . ?
N66 Pd18 N79 89.3(7) . . ?
N78 Pd18 N79 89.6(6) . . ?
N67 Pd18 N79 179.0(7) . . ?
F1D B1 F1D 44(5) . 4_565 ?
F1D B1 F1A 108(3) . . ?
F1D B1 F1A 108(3) 4_565 . ?
F1D B1 F1B 69(4) . 4_565 ?
F1D B1 F1B 111(3) 4_565 4_565 ?
F1A B1 F1B 106(3) . 4_565 ?
F1D B1 F1B 111(3) . . ?
F1D B1 F1B 69(4) 4_565 . ?
F1A B1 F1B 106(3) . . ?
F1B B1 F1B 146(5) 4_565 . ?
F1D B1 F1C 115(3) . . ?
F1D B1 F1C 143(3) 4_565 . ?
F1A B1 F1C 107(3) . . ?
F1B B1 F1C 50(4) 4_565 . ?
F1B B1 F1C 109(3) . . ?
F1D B1 F1C 143(3) . 4_565 ?
F1D B1 F1C 115(3) 4_565 4_565 ?
F1A B1 F1C 107(3) . 4_565 ?
F1B B1 F1C 109(3) 4_565 4_565 ?
F1B B1 F1C 50(4) . 4_565 ?
F1C B1 F1C 61(4) . 4_565 ?
F2D B2 F2D 56(3) . 4_565 ?
F2D B2 F2B 108(3) . . ?
F2D B2 F2B 140(3) 4_565 . ?
F2D B2 F2B 140(3) . 4_565 ?
F2D B2 F2B 108(3) 4_565 4_565 ?
F2B B2 F2B 59(5) . 4_565 ?
F2D B2 F2C 56(3) . 4_565 ?
F2D B2 F2C 110(3) 4_565 4_565 ?
F2B B2 F2C 58(3) . 4_565 ?
F2B B2 F2C 115(3) 4_565 4_565 ?
F2D B2 F2C 110(3) . . ?
F2D B2 F2C 56(3) 4_565 . ?
F2B B2 F2C 115(3) . . ?
F2B B2 F2C 58(3) 4_565 . ?
F2C B2 F2C 153(5) 4_565 . ?
F2D B2 F2A 111(3) . . ?
F2D B2 F2A 111(3) 4_565 . ?
F2B B2 F2A 109(3) . . ?
F2B B2 F2A 109(3) 4_565 . ?
F2C B2 F2A 104(2) 4_565 . ?
F2C B2 F2A 104(2) . . ?
F3D B3 F3A 106(3) . . ?
F3D B3 F3H 57(3) . . ?
F3A B3 F3H 116(3) . . ?
F3D B3 F3C 112(3) . . ?
F3A B3 F3C 106(2) . . ?
F3H B3 F3C 55(3) . . ?
F3D B3 F3G 143(4) . . ?
F3A B3 F3G 111(3) . . ?
F3H B3 F3G 108(3) . . ?
F3C B3 F3G 61(3) . . ?
F3D B3 F3B 115(3) . . ?
F3A B3 F3B 111(3) . . ?
F3H B3 F3B 133(4) . . ?
F3C B3 F3B 106(3) . . ?
F3G B3 F3B 46(3) . . ?
F3D B3 F3F 56(3) . . ?
F3A B3 F3F 102(2) . . ?
F3H B3 F3F 109(3) . . ?
F3C B3 F3F 152(3) . . ?
F3G B3 F3F 111(3) . . ?
F3B B3 F3F 65(3) . . ?
F4B B4 F4F 36.8(9) . . ?
F4B B4 F4H 148(3) . . ?
F4F B4 F4H 116(3) . . ?
F4B B4 F4C 115(3) . . ?
F4F B4 F4C 147(4) . . ?
F4H B4 F4C 82(4) . . ?
F4B B4 F4A 80.1(12) . . ?
F4F B4 F4A 83.1(13) . . ?
F4H B4 F4A 120(3) . . ?
F4C B4 F4A 113(3) . . ?
F4B B4 F4D 98(2) . . ?
F4F B4 F4D 66.5(19) . . ?
F4H B4 F4D 50(3) . . ?
F4C B4 F4D 119(3) . . ?
F4A B4 F4D 123(3) . . ?
F4B B4 F4G 62.7(18) . . ?
F4F B4 F4G 93(2) . . ?
F4H B4 F4G 120(3) . . ?
F4C B4 F4G 54(3) . . ?
F4A B4 F4G 115(2) . . ?
F4D B4 F4G 115(3) . . ?
B4 F4A F4B 47.0(8) . . ?
B4 F4B F4A 52.9(10) . . ?
F5A B5 F5C 104(3) . 4_565 ?
F5A B5 F5C 104(3) . . ?
F5C B5 F5C 58(4) 4_565 . ?
F5A B5 F5D 105(3) . 4_565 ?
F5C B5 F5D 110(3) 4_565 4_565 ?
F5C B5 F5D 54(4) . 4_565 ?
F5A B5 F5D 105(3) . . ?
F5C B5 F5D 54(4) 4_565 . ?
F5C B5 F5D 110(3) . . ?
F5D B5 F5D 150(5) 4_565 . ?
F5A B5 F5B 112(3) . 4_565 ?
F5C B5 F5B 115(3) 4_565 4_565 ?
F5C B5 F5B 143(3) . 4_565 ?
F5D B5 F5B 110(3) 4_565 4_565 ?
F5D B5 F5B 66(4) . 4_565 ?
F5A B5 F5B 112(3) . . ?
F5C B5 F5B 143(3) 4_565 . ?
F5C B5 F5B 115(3) . . ?
F5D B5 F5B 66(4) 4_565 . ?
F5D B5 F5B 110(3) . . ?
F5B B5 F5B 46(5) 4_565 . ?
F6C B6 F6C 51(4) 4_565 . ?
F6C B6 F6B 123(2) 4_565 4_565 ?
F6C B6 F6B 154(3) . 4_565 ?
F6C B6 F6B 154(3) 4_565 . ?
F6C B6 F6B 123(2) . . ?
F6B B6 F6B 48(3) 4_565 . ?
F6C B6 F6A 104(3) 4_565 . ?
F6C B6 F6A 104(3) . . ?
F6B B6 F6A 102(2) 4_565 . ?
F6B B6 F6A 102(2) . . ?
F6C B6 F6D 62(3) 4_565 . ?
F6C B6 F6D 112(3) . . ?
F6B B6 F6D 63(2) 4_565 . ?
F6B B6 F6D 110(3) . . ?
F6A B6 F6D 104(2) . . ?
F6C B6 F6D 112(3) 4_565 4_565 ?
F6C B6 F6D 62(3) . 4_565 ?
F6B B6 F6D 110(3) 4_565 4_565 ?
F6B B6 F6D 63(2) . 4_565 ?
F6A B6 F6D 104(2) . 4_565 ?
F6D B6 F6D 152(4) . 4_565 ?
F7A B7 F7C 106(3) . . ?
F7A B7 F7G 109(2) . . ?
F7C B7 F7G 70(3) . . ?
F7A B7 F7F 107(2) . . ?
F7C B7 F7F 50(3) . . ?
F7G B7 F7F 116(3) . . ?
F7A B7 F7B 109(2) . . ?
F7C B7 F7B 110(3) . . ?
F7G B7 F7B 140(3) . . ?
F7F B7 F7B 63(3) . . ?
F7A B7 F7D 105(2) . . ?
F7C B7 F7D 115(3) . . ?
F7G B7 F7D 46(3) . . ?
F7F B7 F7D 148(3) . . ?
F7B B7 F7D 112(3) . . ?
F7A B7 F7H 111(3) . . ?
F7C B7 F7H 141(3) . . ?
F7G B7 F7H 108(3) . . ?
F7F B7 F7H 107(3) . . ?
F7B B7 F7H 46(3) . . ?
F7D B7 F7H 67(3) . . ?
F8H B8 F8B 156(3) . . ?
F8H B8 F8A 81.9(13) . . ?
F8B B8 F8A 115(3) . . ?
F8H B8 F8F 107(3) . . ?
F8B B8 F8F 51(4) . . ?
F8A B8 F8F 119(3) . . ?
F8H B8 F8G 110(3) . . ?
F8B B8 F8G 79(4) . . ?
F8A B8 F8G 113(3) . . ?
F8F B8 F8G 119(3) . . ?
F8H B8 F8C 57.0(15) . . ?
F8B B8 F8C 127(3) . . ?
F8A B8 F8C 103.9(19) . . ?
F8F B8 F8C 132(3) . . ?
F8G B8 F8C 53(3) . . ?
F8H B8 F8D 46.9(15) . . ?
F8B B8 F8D 113(3) . . ?
F8A B8 F8D 93.7(17) . . ?
F8F B8 F8D 61(2) . . ?
F8G B8 F8D 143(3) . . ?
F8C B8 F8D 97.3(19) . . ?
B8 F8A F8H 44.8(8) . . ?
B8 F8H F8A 53.3(10) . . ?
F9B B9 F9B 43(5) . 4_565 ?
F9B B9 F9A 101(3) . . ?
F9B B9 F9A 101(3) 4_565 . ?
F9B B9 F9C 72(4) . 4_565 ?
F9B B9 F9C 113(3) 4_565 4_565 ?
F9A B9 F9C 108(3) . 4_565 ?
F9B B9 F9C 113(3) . . ?
F9B B9 F9C 72(4) 4_565 . ?
F9A B9 F9C 108(3) . . ?
F9C B9 F9C 142(5) 4_565 . ?
F9B B9 F9D 116(3) . . ?
F9B B9 F9D 147(4) 4_565 . ?
F9A B9 F9D 109(3) . . ?
F9C B9 F9D 46(4) 4_565 . ?
F9C B9 F9D 110(3) . . ?
F9B B9 F9D 147(4) . 4_565 ?
F9B B9 F9D 116(3) 4_565 4_565 ?
F9A B9 F9D 109(3) . 4_565 ?
F9C B9 F9D 110(3) 4_565 4_565 ?
F9C B9 F9D 46(4) . 4_565 ?
F9D B9 F9D 66(5) . 4_565 ?
F10B B10 F10B 62(3) . 4_565 ?
F10B B10 F10C 50(3) . 4_565 ?
F10B B10 F10C 109(3) 4_565 4_565 ?
F10B B10 F10C 109(3) . . ?
F10B B10 F10C 50(3) 4_565 . ?
F10C B10 F10C 145(5) 4_565 . ?
F10B B10 F10D 141(4) . 4_565 ?
F10B B10 F10D 108(3) 4_565 4_565 ?
F10C B10 F10D 114(3) 4_565 4_565 ?
F10C B10 F10D 62(4) . 4_565 ?
F10B B10 F10D 108(3) . . ?
F10B B10 F10D 141(4) 4_565 . ?
F10C B10 F10D 62(4) 4_565 . ?
F10C B10 F10D 114(3) . . ?
F10D B10 F10D 55(5) 4_565 . ?
F10B B10 F10A 110(3) . . ?
F10B B10 F10A 110(3) 4_565 . ?
F10C B10 F10A 107(3) 4_565 . ?
F10C B10 F10A 107(3) . . ?
F10D B10 F10A 109(3) 4_565 . ?
F10D B10 F10A 109(3) . . ?
F11A B11 F11B 102(2) . . ?
F11A B11 F11D 108(3) . . ?
F11B B11 F11D 115(3) . . ?
F11A B11 F11C 110(3) . . ?
F11B B11 F11C 110(3) . . ?
F11D B11 F11C 111(3) . . ?
F12D B12 F12C 116(3) . . ?
F12D B12 F12A 112(2) . . ?
F12C B12 F12A 109(2) . . ?
F12D B12 F12F 133(3) . . ?
F12C B12 F12F 43(3) . . ?
F12A B12 F12F 115(3) . . ?
F12D B12 F12H 47(3) . . ?
F12C B12 F12H 137(3) . . ?
F12A B12 F12H 114(3) . . ?
F12F B12 F12H 112(3) . . ?
F12D B12 F12G 61(2) . . ?
F12C B12 F12G 67(3) . . ?
F12A B12 F12G 98(2) . . ?
F12F B12 F12G 108(3) . . ?
F12H B12 F12G 108(3) . . ?
F12D B12 F12B 107(3) . . ?
F12C B12 F12B 108(3) . . ?
F12A B12 F12B 104(2) . . ?
F12F B12 F12B 65(3) . . ?
F12H B12 F12B 60(3) . . ?
F12G B12 F12B 158(3) . . ?
F13A B13 F13C 105(3) . . ?
F13A B13 F13C 105(3) . 4_565 ?
F13C B13 F13C 36(6) . 4_565 ?
F13A B13 F13D 107(3) . 4_565 ?
F13C B13 F13D 80(5) . 4_565 ?
F13C B13 F13D 113(3) 4_565 4_565 ?
F13A B13 F13D 107(3) . . ?
F13C B13 F13D 113(3) . . ?
F13C B13 F13D 80(5) 4_565 . ?
F13D B13 F13D 138(6) 4_565 . ?
F13A B13 F13B 107(3) . . ?
F13C B13 F13B 114(3) . . ?
F13C B13 F13B 142(4) 4_565 . ?
F13D B13 F13B 36(5) 4_565 . ?
F13D B13 F13B 111(3) . . ?
F13A B13 F13B 107(3) . 4_565 ?
F13C B13 F13B 142(4) . 4_565 ?
F13C B13 F13B 114(3) 4_565 4_565 ?
F13D B13 F13B 111(3) 4_565 4_565 ?
F13D B13 F13B 36(5) . 4_565 ?
F13B B13 F13B 77(6) . 4_565 ?
F14D B14 F14D 145(5) 4_565 . ?
F14D B14 F14C 117(3) 4_565 4_565 ?
F14D B14 F14C 59(3) . 4_565 ?
F14D B14 F14C 59(3) 4_565 . ?
F14D B14 F14C 117(3) . . ?
F14C B14 F14C 62(4) 4_565 . ?
F14D B14 F14A 107(2) 4_565 . ?
F14D B14 F14A 107(2) . . ?
F14C B14 F14A 104(3) 4_565 . ?
F14C B14 F14A 104(3) . . ?
F14D B14 F14B 50(3) 4_565 . ?
F14D B14 F14B 109(3) . . ?
F14C B14 F14B 142(4) 4_565 . ?
F14C B14 F14B 105(2) . . ?
F14A B14 F14B 114(3) . . ?
F14D B14 F14B 109(3) 4_565 4_565 ?
F14D B14 F14B 50(3) . 4_565 ?
F14C B14 F14B 105(2) 4_565 4_565 ?
F14C B14 F14B 142(4) . 4_565 ?
F14A B14 F14B 114(3) . 4_565 ?
F14B B14 F14B 62(4) . 4_565 ?
F15A B15 F15G 108(3) . . ?
F15A B15 F15D 108(3) . . ?
F15G B15 F15D 48(4) . . ?
F15A B15 F15B 109(3) . . ?
F15G B15 F15B 142(4) . . ?
F15D B15 F15B 114(3) . . ?
F15A B15 F15F 109(3) . . ?
F15G B15 F15F 114(3) . . ?
F15D B15 F15F 142(4) . . ?
F15B B15 F15F 57(4) . . ?
F15A B15 F15C 105(3) . . ?
F15G B15 F15C 61(4) . . ?
F15D B15 F15C 107(3) . . ?
F15B B15 F15C 112(3) . . ?
F15F B15 F15C 57(4) . . ?
F15A B15 F15H 104(3) . . ?
F15G B15 F15H 111(3) . . ?
F15D B15 F15H 65(4) . . ?
F15B B15 F15H 55(4) . . ?
F15F B15 F15H 110(3) . . ?
F15C B15 F15H 150(4) . . ?
F16A B16 F16C 114(3) . . ?
F16A B16 F16F 109(2) . . ?
F16C B16 F16F 45(3) . . ?
F16A B16 F16H 108(2) . . ?
F16C B16 F16H 138(3) . . ?
F16F B16 F16H 116(3) . . ?
F16A B16 F16D 112(3) . . ?
F16C B16 F16D 114(3) . . ?
F16F B16 F16D 139(3) . . ?
F16H B16 F16D 51(3) . . ?
F16A B16 F16B 97(2) . . ?
F16C B16 F16B 108(3) . . ?
F16F B16 F16B 64(2) . . ?
F16H B16 F16B 61(2) . . ?
F16D B16 F16B 111(3) . . ?
F16A B16 F16G 101(2) . . ?
F16C B16 F16G 65(3) . . ?
F16F B16 F16G 111(3) . . ?
F16H B16 F16G 111(3) . . ?
F16D B16 F16G 60(3) . . ?
F16B B16 F16G 162(3) . . ?
F17B B17 F17B 45(5) 4_565 . ?
F17B B17 F17A 104(3) 4_565 . ?
F17B B17 F17A 104(3) . . ?
F17B B17 F17C 114(3) 4_565 4_565 ?
F17B B17 F17C 144(4) . 4_565 ?
F17A B17 F17C 111(3) . 4_565 ?
F17B B17 F17C 144(4) 4_565 . ?
F17B B17 F17C 114(3) . . ?
F17A B17 F17C 111(3) . . ?
F17C B17 F17C 62(5) 4_565 . ?
F17B B17 F17D 69(4) 4_565 . ?
F17B B17 F17D 112(3) . . ?
F17A B17 F17D 106(3) . . ?
F17C B17 F17D 49(4) 4_565 . ?
F17C B17 F17D 109(3) . . ?
F17B B17 F17D 112(3) 4_565 4_565 ?
F17B B17 F17D 69(4) . 4_565 ?
F17A B17 F17D 106(3) . 4_565 ?
F17C B17 F17D 109(3) 4_565 4_565 ?
F17C B17 F17D 49(4) . 4_565 ?
F17D B17 F17D 147(5) . 4_565 ?
F18D B18 F18D 56(4) . 4_565 ?
F18D B18 F18B 55(3) . 4_565 ?
F18D B18 F18B 110(3) 4_565 4_565 ?
F18D B18 F18B 110(3) . . ?
F18D B18 F18B 55(3) 4_565 . ?
F18B B18 F18B 153(5) 4_565 . ?
F18D B18 F18C 142(4) . 4_565 ?
F18D B18 F18C 109(3) 4_565 4_565 ?
F18B B18 F18C 116(3) 4_565 4_565 ?
F18B B18 F18C 59(3) . 4_565 ?
F18D B18 F18C 109(3) . . ?
F18D B18 F18C 142(4) 4_565 . ?
F18B B18 F18C 59(3) 4_565 . ?
F18B B18 F18C 116(3) . . ?
F18C B18 F18C 59(4) 4_565 . ?
F18D B18 F18A 112(3) . . ?
F18D B18 F18A 112(3) 4_565 . ?
F18B B18 F18A 104(2) 4_565 . ?
F18B B18 F18A 104(2) . . ?
F18C B18 F18A 106(3) 4_565 . ?
F18C B18 F18A 106(3) . . ?
F19B B19 F19H 144(4) . . ?
F19B B19 F19A 106(2) . . ?
F19H B19 F19A 109(3) . . ?
F19B B19 F19D 114(3) . . ?
F19H B19 F19D 48(3) . . ?
F19A B19 F19D 106(3) . . ?
F19B B19 F19F 46(3) . . ?
F19H B19 F19F 114(3) . . ?
F19A B19 F19F 107(3) . . ?
F19D B19 F19F 70(3) . . ?
F19B B19 F19G 69(3) . . ?
F19H B19 F19G 109(3) . . ?
F19A B19 F19G 104(2) . . ?
F19D B19 F19G 148(3) . . ?
F19F B19 F19G 113(3) . . ?
F19B B19 F19C 113(3) . . ?
F19H B19 F19C 62(3) . . ?
F19A B19 F19C 109(3) . . ?
F19D B19 F19C 109(3) . . ?
F19F B19 F19C 143(4) . . ?
F19G B19 F19C 48(3) . . ?
F20D B20 F20G 150(3) . . ?
F20D B20 F20A 80.3(12) . . ?
F20G B20 F20A 121(3) . . ?
F20D B20 F20B 123(3) . . ?
F20G B20 F20B 74(4) . . ?
F20A B20 F20B 106(3) . . ?
F20D B20 F20C 105(3) . . ?
F20G B20 F20C 47(4) . . ?
F20A B20 F20C 126(3) . . ?
F20B B20 F20C 114(3) . . ?
F20D B20 F20H 40.8(12) . . ?
F20G B20 F20H 114(3) . . ?
F20A B20 F20H 88.8(15) . . ?
F20B B20 F20H 157(4) . . ?
F20C B20 F20H 68(2) . . ?
F20D B20 F20F 59.3(16) . . ?
F20G B20 F20F 124(3) . . ?
F20A B20 F20F 106(2) . . ?
F20B B20 F20F 65(3) . . ?
F20C B20 F20F 122(3) . . ?
F20H B20 F20F 94.1(19) . . ?
B20 F20A F20D 45.5(8) . . ?
B20 F20D F20A 54.2(10) . . ?
F21A B21 F21D 99(2) . 4_565 ?
F21A B21 F21D 99(2) . . ?
F21D B21 F21D 49(4) 4_565 . ?
F21A B21 F21B 113(3) . 4_565 ?
F21D B21 F21B 116(3) 4_565 4_565 ?
F21D B21 F21B 147(4) . 4_565 ?
F21A B21 F21B 113(3) . . ?
F21D B21 F21B 147(4) 4_565 . ?
F21D B21 F21B 116(3) . . ?
F21B B21 F21B 57(5) 4_565 . ?
F21A B21 F21C 100(3) . 4_565 ?
F21D B21 F21C 114(3) 4_565 4_565 ?
F21D B21 F21C 66(3) . 4_565 ?
F21B B21 F21C 112(3) 4_565 4_565 ?
F21B B21 F21C 56(4) . 4_565 ?
F21A B21 F21C 100(3) . . ?
F21D B21 F21C 66(3) 4_565 . ?
F21D B21 F21C 114(3) . . ?
F21B B21 F21C 56(4) 4_565 . ?
F21B B21 F21C 112(3) . . ?
F21C B21 F21C 159(5) 4_565 . ?
F22D B22 F22D 57(4) 4_565 . ?
F22D B22 F22B 151(3) 4_565 . ?
F22D B22 F22B 122(2) . . ?
F22D B22 F22B 122(2) 4_565 4_565 ?
F22D B22 F22B 151(3) . 4_565 ?
F22B B22 F22B 43(3) . 4_565 ?
F22D B22 F22C 111(3) 4_565 4_565 ?
F22D B22 F22C 56(3) . 4_565 ?
F22B B22 F22C 67(2) . 4_565 ?
F22B B22 F22C 108(3) 4_565 4_565 ?
F22D B22 F22C 56(3) 4_565 . ?
F22D B22 F22C 111(3) . . ?
F22B B22 F22C 108(3) . . ?
F22B B22 F22C 67(2) 4_565 . ?
F22C B22 F22C 145(4) 4_565 . ?
F22D B22 F22A 105(2) 4_565 . ?
F22D B22 F22A 105(2) . . ?
F22B B22 F22A 103(2) . . ?
F22B B22 F22A 103(2) 4_565 . ?
F22C B22 F22A 107(2) 4_565 . ?
F22C B22 F22A 107(2) . . ?
F23A B23 F23D 111(3) . . ?
F23A B23 F23F 111(3) . . ?
F23D B23 F23F 137(4) . . ?
F23A B23 F23G 108(3) . . ?
F23D B23 F23G 62(3) . . ?
F23F B23 F23G 111(3) . . ?
F23A B23 F23B 113(3) . . ?
F23D B23 F23B 109(3) . . ?
F23F B23 F23B 45(3) . . ?
F23G B23 F23B 138(4) . . ?
F23A B23 F23C 97(2) . . ?
F23D B23 F23C 115(3) . . ?
F23F B23 F23C 66(3) . . ?
F23G B23 F23C 54(3) . . ?
F23B B23 F23C 111(3) . . ?
F23A B23 F23H 105(2) . . ?
F23D B23 F23H 52(3) . . ?
F23F B23 F23H 109(3) . . ?
F23G B23 F23H 113(3) . . ?
F23B B23 F23H 65(3) . . ?
F23C B23 F23H 158(3) . . ?
F24G B24 F24D 148(3) . . ?
F24G B24 F24H 121(3) . . ?
F24D B24 F24H 75(4) . . ?
F24G B24 F24F 105(3) . . ?
F24D B24 F24F 46(4) . . ?
F24H B24 F24F 116(3) . . ?
F24G B24 F24A 80.4(13) . . ?
F24D B24 F24A 124(3) . . ?
F24H B24 F24A 107(3) . . ?
F24F B24 F24A 123(3) . . ?
F24G B24 F24B 42.9(13) . . ?
F24D B24 F24B 111(3) . . ?
F24H B24 F24B 155(3) . . ?
F24F B24 F24B 65(2) . . ?
F24A B24 F24B 90.1(15) . . ?
F24G B24 F24C 59.6(16) . . ?
F24D B24 F24C 118(3) . . ?
F24H B24 F24C 64(3) . . ?
F24F B24 F24C 120(3) . . ?
F24A B24 F24C 111(2) . . ?
F24B B24 F24C 93.6(19) . . ?
B24 F24A F24G 44.8(8) . . ?
B24 F24G F24A 54.8(10) . . ?
F25C B25 F25C 47(5) 4_575 . ?
F25C B25 F25A 106(3) 4_575 . ?
F25C B25 F25A 106(3) . . ?
F25C B25 F25B 146(3) 4_575 . ?
F25C B25 F25B 118(3) . . ?
F25A B25 F25B 108(3) . . ?
F25C B25 F25B 118(3) 4_575 4_575 ?
F25C B25 F25B 146(3) . 4_575 ?
F25A B25 F25B 108(3) . 4_575 ?
F25B B25 F25B 54(4) . 4_575 ?
F25C B25 F25D 66(4) 4_575 . ?
F25C B25 F25D 111(3) . . ?
F25A B25 F25D 105(2) . . ?
F25B B25 F25D 108(3) . . ?
F25B B25 F25D 55(4) 4_575 . ?
F25C B25 F25D 111(3) 4_575 4_575 ?
F25C B25 F25D 66(4) . 4_575 ?
F25A B25 F25D 105(2) . 4_575 ?
F25B B25 F25D 55(4) . 4_575 ?
F25B B25 F25D 108(3) 4_575 4_575 ?
F25D B25 F25D 149(5) . 4_575 ?
F26C B26 F26C 51(4) 4_575 . ?
F26C B26 F26B 62(4) 4_575 . ?
F26C B26 F26B 111(3) . . ?
F26C B26 F26B 111(3) 4_575 4_575 ?
F26C B26 F26B 62(4) . 4_575 ?
F26B B26 F26B 141(5) . 4_575 ?
F26C B26 F26A 108(3) 4_575 . ?
F26C B26 F26A 108(3) . . ?
F26B B26 F26A 109(3) . . ?
F26B B26 F26A 109(3) 4_575 . ?
F26C B26 F26D 104(3) 4_575 4_575 ?
F26C B26 F26D 139(4) . 4_575 ?
F26B B26 F26D 45(4) . 4_575 ?
F26B B26 F26D 114(3) 4_575 4_575 ?
F26A B26 F26D 110(3) . 4_575 ?
F26C B26 F26D 139(4) 4_575 . ?
F26C B26 F26D 104(3) . . ?
F26B B26 F26D 114(3) . . ?
F26B B26 F26D 45(4) 4_575 . ?
F26A B26 F26D 110(3) . . ?
F26D B26 F26D 72(5) 4_575 . ?
F27H B27 F27A 110(3) . . ?
F27H B27 F27B 142(4) . . ?
F27A B27 F27B 106(3) . . ?
F27H B27 F27C 45(3) . . ?
F27A B27 F27C 113(3) . . ?
F27B B27 F27C 109(3) . . ?
F27H B27 F27D 68(3) . . ?
F27A B27 F27D 104(2) . . ?
F27B B27 F27D 114(3) . . ?
F27C B27 F27D 111(3) . . ?
F27H B27 F27F 114(3) . . ?
F27A B27 F27F 105(3) . . ?
F27B B27 F27F 65(3) . . ?
F27C B27 F27F 141(4) . . ?
F27D B27 F27F 50(3) . . ?
F27H B27 F27G 111(3) . . ?
F27A B27 F27G 103(2) . . ?
F27B B27 F27G 49(3) . . ?
F27C B27 F27G 66(3) . . ?
F27D B27 F27G 152(3) . . ?
F27F B27 F27G 113(3) . . ?
F28H B28 F28C 155(3) . . ?
F28H B28 F28G 106(3) . . ?
F28C B28 F28G 49(3) . . ?
F28H B28 F28F 117(3) . . ?
F28C B28 F28F 78(4) . . ?
F28G B28 F28F 116(3) . . ?
F28H B28 F28A 80.9(13) . . ?
F28C B28 F28A 116(3) . . ?
F28G B28 F28A 127(3) . . ?
F28F B28 F28A 105(3) . . ?
F28H B28 F28B 62.1(17) . . ?
F28C B28 F28B 123(3) . . ?
F28G B28 F28B 122(3) . . ?
F28F B28 F28B 56(3) . . ?
F28A B28 F28B 107(2) . . ?
F28H B28 F28D 41.3(11) . . ?
F28C B28 F28D 117(3) . . ?
F28G B28 F28D 69(2) . . ?
F28F B28 F28D 153(3) . . ?
F28A B28 F28D 88.9(15) . . ?
F28B B28 F28D 98(2) . . ?
B28 F28A F28H 44.8(8) . . ?
B28 F28H F28A 54.3(10) . . ?
F29D B29 F29D 44(5) . 4_575 ?
F29D B29 F29A 98(2) . . ?
F29D B29 F29A 98(2) 4_575 . ?
F29D B29 F29B 146(3) . 4_575 ?
F29D B29 F29B 120(3) 4_575 4_575 ?
F29A B29 F29B 116(3) . 4_575 ?
F29D B29 F29B 120(3) . . ?
F29D B29 F29B 146(3) 4_575 . ?
F29A B29 F29B 116(3) . . ?
F29B B29 F29B 51(5) 4_575 . ?
F29D B29 F29C 68(4) . 4_575 ?
F29D B29 F29C 112(3) 4_575 4_575 ?
F29A B29 F29C 101(3) . 4_575 ?
F29B B29 F29C 108(3) 4_575 4_575 ?
F29B B29 F29C 58(4) . 4_575 ?
F29D B29 F29C 112(3) . . ?
F29D B29 F29C 68(4) 4_575 . ?
F29A B29 F29C 101(3) . . ?
F29B B29 F29C 58(4) 4_575 . ?
F29B B29 F29C 108(3) . . ?
F29C B29 F29C 157(5) 4_575 . ?
F30C B30 F30C 58(4) 4_575 . ?
F30C B30 F30B 116(2) 4_575 4_575 ?
F30C B30 F30B 147(3) . 4_575 ?
F30C B30 F30B 147(3) 4_575 . ?
F30C B30 F30B 116(2) . . ?
F30B B30 F30B 49(3) 4_575 . ?
F30C B30 F30A 109(3) 4_575 . ?
F30C B30 F30A 109(3) . . ?
F30B B30 F30A 104(2) 4_575 . ?
F30B B30 F30A 104(2) . . ?
F30C B30 F30D 56(3) 4_575 . ?
F30C B30 F30D 112(3) . . ?
F30B B30 F30D 63(2) 4_575 . ?
F30B B30 F30D 110(3) . . ?
F30A B30 F30D 106(2) . . ?
F30C B30 F30D 112(3) 4_575 4_575 ?
F30C B30 F30D 56(3) . 4_575 ?
F30B B30 F30D 110(3) 4_575 4_575 ?
F30B B30 F30D 63(2) . 4_575 ?
F30A B30 F30D 106(2) . 4_575 ?
F30D B30 F30D 148(4) . 4_575 ?
F31A B31 F31B 110(3) . . ?
F31A B31 F31H 112(3) . . ?
F31B B31 F31H 138(4) . . ?
F31A B31 F31D 108(3) . . ?
F31B B31 F31D 113(3) . . ?
F31H B31 F31D 61(3) . . ?
F31A B31 F31G 108(3) . . ?
F31B B31 F31G 51(3) . . ?
F31H B31 F31G 108(3) . . ?
F31D B31 F31G 145(4) . . ?
F31A B31 F31C 103(2) . . ?
F31B B31 F31C 109(3) . . ?
F31H B31 F31C 54(3) . . ?
F31D B31 F31C 115(3) . . ?
F31G B31 F31C 60(3) . . ?
F31A B31 F31F 108(3) . . ?
F31B B31 F31F 66(3) . . ?
F31H B31 F31F 107(3) . . ?
F31D B31 F31F 50(3) . . ?
F31G B31 F31F 114(3) . . ?
F31C B31 F31F 149(4) . . ?
F32D B32 F32G 139(3) . . ?
F32D B32 F32C 106(3) . . ?
F32G B32 F32C 35(4) . . ?
F32D B32 F32B 113(3) . . ?
F32G B32 F32B 88(4) . . ?
F32C B32 F32B 115(3) . . ?
F32D B32 F32A 80.5(12) . . ?
F32G B32 F32A 127(3) . . ?
F32C B32 F32A 126(3) . . ?
F32B B32 F32A 110(3) . . ?
F32D B32 F32F 62.6(18) . . ?
F32G B32 F32F 119(3) . . ?
F32C B32 F32F 120(3) . . ?
F32B B32 F32F 51(3) . . ?
F32A B32 F32F 111(2) . . ?
F32D B32 F32H 39.3(12) . . ?
F32G B32 F32H 105(3) . . ?
F32C B32 F32H 71(2) . . ?
F32B B32 F32H 146(3) . . ?
F32A B32 F32H 87.2(15) . . ?
F32F B32 F32H 95(2) . . ?
B32 F32A F32D 45.0(8) . . ?
B32 F32D F32A 54.5(10) . . ?
F33C B33 F33C 45(5) . 4_575 ?
F33C B33 F33A 104(3) . . ?
F33C B33 F33A 104(3) 4_575 . ?
F33C B33 F33D 144(4) . 4_575 ?
F33C B33 F33D 114(3) 4_575 4_575 ?
F33A B33 F33D 110(3) . 4_575 ?
F33C B33 F33D 114(3) . . ?
F33C B33 F33D 144(4) 4_575 . ?
F33A B33 F33D 110(3) . . ?
F33D B33 F33D 63(5) 4_575 . ?
F33C B33 F33B 114(3) . . ?
F33C B33 F33B 71(4) 4_575 . ?
F33A B33 F33B 104(3) . . ?
F33D B33 F33B 47(4) 4_575 . ?
F33D B33 F33B 109(3) . . ?
F33C B33 F33B 71(4) . 4_575 ?
F33C B33 F33B 114(3) 4_575 4_575 ?
F33A B33 F33B 104(3) . 4_575 ?
F33D B33 F33B 109(3) 4_575 4_575 ?
F33D B33 F33B 47(4) . 4_575 ?
F33B B33 F33B 148(5) . 4_575 ?
F34C B34 F34C 143(5) . 4_575 ?
F34C B34 F34B 110(3) . . ?
F34C B34 F34B 53(3) 4_575 . ?
F34C B34 F34B 53(3) . 4_575 ?
F34C B34 F34B 110(3) 4_575 4_575 ?
F34B B34 F34B 60(3) . 4_575 ?
F34C B34 F34A 108(2) . . ?
F34C B34 F34A 108(2) 4_575 . ?
F34B B34 F34A 110(3) . . ?
F34B B34 F34A 110(3) 4_575 . ?
F34C B34 F34D 55(3) . 4_575 ?
F34C B34 F34D 117(3) 4_575 4_575 ?
F34B B34 F34D 144(3) . 4_575 ?
F34B B34 F34D 106(2) 4_575 4_575 ?
F34A B34 F34D 105(3) . 4_575 ?
F34C B34 F34D 117(3) . . ?
F34C B34 F34D 55(3) 4_575 . ?
F34B B34 F34D 106(2) . . ?
F34B B34 F34D 144(3) 4_575 . ?
F34A B34 F34D 105(3) . . ?
F34D B34 F34D 65(4) 4_575 . ?
F35A B35 F35C 109(3) . . ?
F35A B35 F35G 112(3) . . ?
F35C B35 F35G 54(4) . . ?
F35A B35 F35H 111(3) . . ?
F35C B35 F35H 140(4) . . ?
F35G B35 F35H 111(3) . . ?
F35A B35 F35B 109(3) . . ?
F35C B35 F35B 113(3) . . ?
F35G B35 F35B 139(4) . . ?
F35H B35 F35B 50(4) . . ?
F35A B35 F35D 109(3) . . ?
F35C B35 F35D 107(3) . . ?
F35G B35 F35D 54(4) . . ?
F35H B35 F35D 62(4) . . ?
F35B B35 F35D 110(3) . . ?
F35A B35 F35F 103(3) . . ?
F35C B35 F35F 57(4) . . ?
F35G B35 F35F 109(3) . . ?
F35H B35 F35F 110(3) . . ?
F35B B35 F35F 62(4) . . ?
F35D B35 F35F 147(4) . . ?
F36C B36 F36B 118(3) . . ?
F36C B36 F36G 49(3) . . ?
F36B B36 F36G 136(3) . . ?
F36C B36 F36A 109(2) . . ?
F36B B36 F36A 109(2) . . ?
F36G B36 F36A 115(3) . . ?
F36C B36 F36H 138(3) . . ?
F36B B36 F36H 45(3) . . ?
F36G B36 F36H 111(3) . . ?
F36A B36 F36H 114(3) . . ?
F36C B36 F36F 64(2) . . ?
F36B B36 F36F 64(3) . . ?
F36G B36 F36F 111(3) . . ?
F36A B36 F36F 97(2) . . ?
F36H B36 F36F 108(3) . . ?
F36C B36 F36D 107(3) . . ?
F36B B36 F36D 109(3) . . ?
F36G B36 F36D 58(3) . . ?
F36A B36 F36D 105(2) . . ?
F36H B36 F36D 64(3) . . ?
F36F B36 F36D 158(3) . . ?
F51B B51 F51C 108(2) . . ?
F51B B51 F51D 115(2) . . ?
F51C B51 F51D 112(2) . . ?
F51B B51 F51A 106(2) . . ?
F51C B51 F51A 106(2) . . ?
F51D B51 F51A 108(2) . . ?
F52A B52 F52C 112(2) . . ?
F52A B52 F52D 112(2) . . ?
F52C B52 F52D 107(2) . . ?
F52A B52 F52B 109(2) . . ?
F52C B52 F52B 111(2) . . ?
F52D B52 F52B 106(2) . . ?
F53B B53 F53C 111(2) . . ?
F53B B53 F53D 117(2) . . ?
F53C B53 F53D 110(2) . . ?
F53B B53 F53A 104(2) . . ?
F53C B53 F53A 108(2) . . ?
F53D B53 F53A 106(2) . . ?
F54B B54 F54C 111(2) . . ?
F54B B54 F54D 117(2) . . ?
F54C B54 F54D 112(2) . . ?
F54B B54 F54A 104(2) . . ?
F54C B54 F54A 106(2) . . ?
F54D B54 F54A 105(2) . . ?
F55C B55 F55D 108(2) . . ?
F55C B55 F55B 111(2) . . ?
F55D B55 F55B 113(2) . . ?
F55C B55 F55A 108(2) . . ?
F55D B55 F55A 110(2) . . ?
F55B B55 F55A 107(2) . . ?
F56B B56 F56D 120(2) . . ?
F56B B56 F56C 110(2) . . ?
F56D B56 F56C 112(2) . . ?
F56B B56 F56A 104(2) . . ?
F56D B56 F56A 107(2) . . ?
F56C B56 F56A 102(2) . . ?
F57B B57 F57D 118(2) . . ?
F57B B57 F57C 106(2) . . ?
F57D B57 F57C 110(2) . . ?
F57B B57 F57A 106(2) . . ?
F57D B57 F57A 110(2) . . ?
F57C B57 F57A 106(2) . . ?
F58B B58 F58D 122(2) . . ?
F58B B58 F58C 108(2) . . ?
F58D B58 F58C 109(2) . . ?
F58B B58 F58A 104(2) . . ?
F58D B58 F58A 108(2) . . ?
F58C B58 F58A 104(2) . . ?
F59A B59 F59D 110(3) . . ?
F59A B59 F59C 114(3) . . ?
F59D B59 F59C 107(3) . . ?
F59A B59 F59B 108(3) . . ?
F59D B59 F59B 112(3) . . ?
F59C B59 F59B 105(3) . . ?
F60B B60 F60C 108(3) . . ?
F60B B60 F60D 105(3) . . ?
F60C B60 F60D 116(3) . . ?
F60B B60 F60A 116(3) . . ?
F60C B60 F60A 107(3) . . ?
F60D B60 F60A 104(3) . . ?
F61B B61 F61D 108(3) . . ?
F61B B61 F61C 105(3) . . ?
F61D B61 F61C 112(3) . . ?
F61B B61 F61A 114(3) . . ?
F61D B61 F61A 107(3) . . ?
F61C B61 F61A 112(3) . . ?
F62C B62 F62B 110(3) . . ?
F62C B62 F62D 106(3) . . ?
F62B B62 F62D 113(3) . . ?
F62C B62 F62A 114(3) . . ?
F62B B62 F62A 106(3) . . ?
F62D B62 F62A 108(3) . . ?
F63C B63 F63B 113(3) . . ?
F63C B63 F63D 104(3) . . ?
F63B B63 F63D 115(3) . . ?
F63C B63 F63A 112(3) . . ?
F63B B63 F63A 105(3) . . ?
F63D B63 F63A 107(3) . . ?
F64D B64 F64B 114(3) . . ?
F64D B64 F64C 104(3) . . ?
F64B B64 F64C 113(3) . . ?
F64D B64 F64A 112(3) . . ?
F64B B64 F64A 109(3) . . ?
F64C B64 F64A 105(3) . . ?
F65C B65 F65B 109(3) . . ?
F65C B65 F65A 116(3) . . ?
F65B B65 F65A 108(3) . . ?
F65C B65 F65D 108(3) . . ?
F65B B65 F65D 112(3) . . ?
F65A B65 F65D 104(3) . . ?

loop_
_geom_torsion_atom_site_label_1
_geom_torsion_atom_site_label_2
_geom_torsion_atom_site_label_3
_geom_torsion_atom_site_label_4
_geom_torsion
_geom_torsion_site_symmetry_1
_geom_torsion_site_symmetry_2
_geom_torsion_site_symmetry_3
_geom_torsion_site_symmetry_4
_geom_torsion_publ_flag
C5 N1 C1 C2 0.0 . . . . ?
Pd4 N1 C1 C2 -178.7(8) . . . . ?
N1 C1 C2 C3 0.0 . . . . ?
C1 C2 C3 C4 0.0 . . . . ?
C1 C2 C3 C6 176.6(15) . . . . ?
C2 C3 C4 C5 0.0 . . . . ?
C6 C3 C4 C5 -176.8(14) . . . . ?
C3 C4 C5 N1 0.0 . . . . ?
C1 N1 C5 C4 0.0 . . . . ?
Pd4 N1 C5 C4 178.6(9) . . . . ?
C6 N2 C6 C7 16(4) 4_565 . . . ?
C6 N2 C6 C3 179.3(14) 4_565 . . . ?
C4 C3 C6 N2 171.1(16) . . . . ?
C2 C3 C6 N2 -6(2) . . . . ?
C4 C3 C6 C7 -27(3) . . . . ?
C2 C3 C6 C7 156.1(19) . . . . ?
N2 C6 C7 C8 0(4) . . . . ?
C3 C6 C7 C8 -160(3) . . . . ?
C6 C7 C8 C7 -14(5) . . . 4_565 ?
C13 N3 C9 C10 0.0 . . . . ?
Pd2 N3 C9 C10 177.8(8) . . . . ?
N3 C9 C10 C11 0.0 . . . . ?
C9 C10 C11 C12 0.0 . . . . ?
C9 C10 C11 C14 179.4(16) . . . . ?
C10 C11 C12 C13 0.0 . . . . ?
C14 C11 C12 C13 -179.4(14) . . . . ?
C11 C12 C13 N3 0.0 . . . . ?
C9 N3 C13 C12 0.0 . . . . ?
Pd2 N3 C13 C12 -177.6(9) . . . . ?
C14 N4 C14 C15 -9(4) 4_565 . . . ?
C14 N4 C14 C11 179.5(14) 4_565 . . . ?
C10 C11 C14 C15 -159(2) . . . . ?
C12 C11 C14 C15 21(3) . . . . ?
C10 C11 C14 N4 11(2) . . . . ?
C12 C11 C14 N4 -169.8(14) . . . . ?
N4 C14 C15 C16 -3(4) . . . . ?
C11 C14 C15 C16 166(2) . . . . ?
C14 C15 C16 C15 15(5) . . . 4_565 ?
C21 N5 C17 C18 0.0 . . . . ?
Pd4 N5 C17 C18 179.7(9) . . . . ?
N5 C17 C18 C19 0.0 . . . . ?
C17 C18 C19 C20 0.0 . . . . ?
C17 C18 C19 C22 -175.0(14) . . . . ?
C18 C19 C20 C21 0.0 . . . . ?
C22 C19 C20 C21 174.4(16) . . . . ?
C19 C20 C21 N5 0.0 . . . . ?
C17 N5 C21 C20 0.0 . . . . ?
Pd4 N5 C21 C20 -179.7(9) . . . . ?
C26 N6 C22 C23 0.0 . . . . ?
C26 N6 C22 C19 -176.6(16) . . . . ?
C18 C19 C22 N6 -3.4(15) . . . . ?
C20 C19 C22 N6 -178.1(8) . . . . ?
C18 C19 C22 C23 -179.9(8) . . . . ?
C20 C19 C22 C23 5.4(18) . . . . ?
N6 C22 C23 C24 0.0 . . . . ?
C19 C22 C23 C24 176.5(17) . . . . ?
C22 C23 C24 C25 0.0 . . . . ?
C23 C24 C25 C26 0.0 . . . . ?
C24 C25 C26 C29 -171.3(17) . . . . ?
C24 C25 C26 N6 0.0 . . . . ?
C22 N6 C26 C29 173.1(14) . . . . ?
C22 N6 C26 C25 0.0 . . . . ?
C31 N7 C27 C28 0.0 . . . . ?
Pd5 N7 C27 C28 -179.3(9) . . . . ?
N7 C27 C28 C29 0.0 . . . . ?
C25 C26 C29 C28 179.6(9) . . . . ?
N6 C26 C29 C28 7.5(16) . . . . ?
C25 C26 C29 C30 -10.4(17) . . . . ?
N6 C26 C29 C30 177.5(9) . . . . ?
C27 C28 C29 C26 169.5(15) . . . . ?
C27 C28 C29 C30 0.0 . . . . ?
C26 C29 C30 C31 -170.5(14) . . . . ?
C28 C29 C30 C31 0.0 . . . . ?
C29 C30 C31 N7 0.0 . . . . ?
C27 N7 C31 C30 0.0 . . . . ?
Pd5 N7 C31 C30 179.2(9) . . . . ?
C36 N8 C32 C33 0.0 . . . . ?
Pd5 N8 C32 C33 -168.7(10) . . . . ?
N8 C32 C33 C34 0.0 . . . . ?
C32 C33 C34 C35 0.0 . . . . ?
C32 C33 C34 C37 175.5(16) . . . . ?
C33 C34 C35 C36 0.0 . . . . ?
C37 C34 C35 C36 -175.7(15) . . . . ?
C34 C35 C36 N8 0.0 . . . . ?
C32 N8 C36 C35 0.0 . . . . ?
Pd5 N8 C36 C35 168.1(10) . . . . ?
C41 N9 C37 C38 0.0 . . . . ?
C41 N9 C37 C34 176.3(17) . . . . ?
C35 C34 C37 N9 170.1(11) . . . . ?
C33 C34 C37 N9 -5.5(19) . . . . ?
C35 C34 C37 C38 -13.8(18) . . . . ?
C33 C34 C37 C38 170.6(10) . . . . ?
N9 C37 C38 C39 0.0 . . . . ?
C34 C37 C38 C39 -176.0(19) . . . . ?
C37 C38 C39 C40 0.0 . . . . ?
C38 C39 C40 C41 0.0 . . . . ?
C39 C40 C41 N9 0.0 . . . . ?
C39 C40 C41 C44 -179(2) . . . . ?
C37 N9 C41 C40 0.0 . . . . ?
C37 N9 C41 C44 179.0(18) . . . . ?
C46 N10 C42 C43 0.0 . . . . ?
Pd6 N10 C42 C43 -176.0(11) . . . . ?
N10 C42 C43 C44 0.0 . . . . ?
C42 C43 C44 C45 0.0 . . . . ?
C42 C43 C44 C41 -176(2) . . . . ?
C40 C41 C44 C45 9(2) . . . . ?
N9 C41 C44 C45 -169.4(10) . . . . ?
C40 C41 C44 C43 -174.5(11) . . . . ?
N9 C41 C44 C43 7(2) . . . . ?
C43 C44 C45 C46 0.0 . . . . ?
C41 C44 C45 C46 176.4(17) . . . . ?
C44 C45 C46 N10 0.0 . . . . ?
C42 N10 C46 C45 0.0 . . . . ?
Pd6 N10 C46 C45 175.9(12) . . . . ?
C51 N11 C47 C48 0.0 . . . . ?
Pd6 N11 C47 C48 -179.9(10) . . . . ?
N11 C47 C48 C49 0.0 . . . . ?
C47 C48 C49 C50 0.0 . . . . ?
C47 C48 C49 C52 -176.4(16) . . . . ?
C48 C49 C50 C51 0.0 . . . . ?
C52 C49 C50 C51 176.5(16) . . . . ?
C49 C50 C51 N11 0.0 . . . . ?
C47 N11 C51 C50 0.0 . . . . ?
Pd6 N11 C51 C50 179.9(10) . . . . ?
C56 N12 C52 C53 0.0 . . . . ?
C56 N12 C52 C49 -176.6(16) . . . . ?
C50 C49 C52 N12 171.2(9) . . . . ?
C48 C49 C52 N12 -12.4(17) . . . . ?
C50 C49 C52 C53 -5.2(18) . . . . ?
C48 C49 C52 C53 171.2(9) . . . . ?
N12 C52 C53 C54 0.0 . . . . ?
C49 C52 C53 C54 176.2(18) . . . . ?
C52 C53 C54 C55 0.0 . . . . ?
C53 C54 C55 C56 0.0 . . . . ?
C54 C55 C56 N12 0.0 . . . . ?
C54 C55 C56 C59 -176.6(16) . . . . ?
C52 N12 C56 C55 0.0 . . . . ?
C52 N12 C56 C59 176.8(15) . . . . ?
C61 N13 C57 C58 0.0 . . . . ?
Pd4 N13 C57 C58 172.9(9) . . . . ?
N13 C57 C58 C59 0.0 . . . . ?
C57 C58 C59 C60 0.0 . . . . ?
C57 C58 C59 C56 -178.8(14) . . . . ?
C55 C56 C59 C60 5.1(17) . . . . ?
N12 C56 C59 C60 -171.6(9) . . . . ?
C55 C56 C59 C58 -176.2(8) . . . . ?
N12 C56 C59 C58 7.1(15) . . . . ?
C58 C59 C60 C61 0.0 . . . . ?
C56 C59 C60 C61 178.7(14) . . . . ?
C59 C60 C61 N13 0.0 . . . . ?
C57 N13 C61 C60 0.0 . . . . ?
Pd4 N13 C61 C60 -172.9(9) . . . . ?
C66 N14 C62 C63 0.0 . . . . ?
Pd4 N14 C62 C63 -171.1(7) . . . . ?
N14 C62 C63 C64 0.0 . . . . ?
C62 C63 C64 C65 0.0 . . . . ?
C62 C63 C64 C67 -176.2(13) . . . . ?
C63 C64 C65 C66 0.0 . . . . ?
C67 C64 C65 C66 176.3(13) . . . . ?
C64 C65 C66 N14 0.0 . . . . ?
C62 N14 C66 C65 0.0 . . . . ?
Pd4 N14 C66 C65 170.7(8) . . . . ?
C71 N15 C67 C68 0.0 . . . . ?
C71 N15 C67 C64 -174.0(14) . . . . ?
C65 C64 C67 N15 158.0(7) . . . . ?
C63 C64 C67 N15 -25.7(13) . . . . ?
C65 C64 C67 C68 -15.6(15) . . . . ?
C63 C64 C67 C68 160.7(7) . . . . ?
N15 C67 C68 C69 0.0 . . . . ?
C64 C67 C68 C69 173.2(16) . . . . ?
C67 C68 C69 C70 0.0 . . . . ?
C68 C69 C70 C71 0.0 . . . . ?
C69 C70 C71 N15 0.0 . . . . ?
C69 C70 C71 C74 178.6(13) . . . . ?
C67 N15 C71 C70 0.0 . . . . ?
C67 N15 C71 C74 -178.7(12) . . . . ?
C76 N16 C72 C73 0.0 . . . . ?
Pd3 N16 C72 C73 -174.4(7) . . . . ?
N16 C72 C73 C74 0.0 . . . . ?
C72 C73 C74 C75 0.0 . . . . ?
C72 C73 C74 C71 178.4(11) . . . . ?
C70 C71 C74 C75 18.0(13) . . . . ?
N15 C71 C74 C75 -163.3(8) . . . . ?
C70 C71 C74 C73 -160.3(7) . . . . ?
N15 C71 C74 C73 18.4(13) . . . . ?
C73 C74 C75 C76 0.0 . . . . ?
C71 C74 C75 C76 -178.3(12) . . . . ?
C74 C75 C76 N16 0.0 . . . . ?
C72 N16 C76 C75 0.0 . . . . ?
Pd3 N16 C76 C75 174.2(7) . . . . ?
C81 N17 C77 C78 0.0 . . . . ?
Pd3 N17 C77 C78 173.7(7) . . . . ?
N17 C77 C78 C79 0.0 . . . . ?
C77 C78 C79 C80 0.0 . . . . ?
C77 C78 C79 C82 179.5(11) . . . . ?
C78 C79 C80 C81 0.0 . . . . ?
C82 C79 C80 C81 -179.5(11) . . . . ?
C79 C80 C81 N17 0.0 . . . . ?
C77 N17 C81 C80 0.0 . . . . ?
Pd3 N17 C81 C80 -173.4(7) . . . . ?
C86 N18 C82 C83 0.0 . . . . ?
C86 N18 C82 C79 177.7(12) . . . . ?
C78 C79 C82 C83 161.1(7) . . . . ?
C80 C79 C82 C83 -19.4(13) . . . . ?
C78 C79 C82 N18 -16.5(13) . . . . ?
C80 C79 C82 N18 163.0(8) . . . . ?
N18 C82 C83 C84 0.0 . . . . ?
C79 C82 C83 C84 -177.6(13) . . . . ?
C82 C83 C84 C85 0.0 . . . . ?
C83 C84 C85 C86 0.0 . . . . ?
C84 C85 C86 N18 0.0 . . . . ?
C84 C85 C86 C89 -174.3(16) . . . . ?
C82 N18 C86 C85 0.0 . . . . ?
C82 N18 C86 C89 175.0(14) . . . . ?
C91 N19 C87 C88 0.0 . . . . ?
Pd2 N19 C87 C88 170.8(7) . . . . ?
N19 C87 C88 C89 0.0 . . . . ?
C87 C88 C89 C90 0.0 . . . . ?
C87 C88 C89 C86 176.8(13) . . . . ?
C85 C86 C89 C88 -159.8(8) . . . . ?
N18 C86 C89 C88 25.6(14) . . . . ?
C85 C86 C89 C90 17.1(15) . . . . ?
N18 C86 C89 C90 -157.6(7) . . . . ?
C88 C89 C90 C91 0.0 . . . . ?
C86 C89 C90 C91 -176.8(13) . . . . ?
C89 C90 C91 N19 0.0 . . . . ?
C87 N19 C91 C90 0.0 . . . . ?
Pd2 N19 C91 C90 -170.4(7) . . . . ?
C96 N20 C92 C93 0.0 . . . . ?
Pd2 N20 C92 C93 -171.9(9) . . . . ?
N20 C92 C93 C94 0.0 . . . . ?
C92 C93 C94 C95 0.0 . . . . ?
C92 C93 C94 C97 -179.9(14) . . . . ?
C93 C94 C95 C96 0.0 . . . . ?
C97 C94 C95 C96 179.9(14) . . . . ?
C94 C95 C96 N20 0.0 . . . . ?
C92 N20 C96 C95 0.0 . . . . ?
Pd2 N20 C96 C95 171.9(9) . . . . ?
C101 N21 C97 C98 0.0 . . . . ?
C101 N21 C97 C94 -174.7(15) . . . . ?
C93 C94 C97 C98 177.4(8) . . . . ?
C95 C94 C97 C98 -2.5(16) . . . . ?
C93 C94 C97 N21 -8.0(15) . . . . ?
C95 C94 C97 N21 172.1(9) . . . . ?
N21 C97 C98 C99 0.0 . . . . ?
C94 C97 C98 C99 174.5(16) . . . . ?
C97 C98 C99 C100 0.0 . . . . ?
C98 C99 C100 C101 0.0 . . . . ?
C99 C100 C101 N21 0.0 . . . . ?
C99 C100 C101 C104 177.7(18) . . . . ?
C97 N21 C101 C100 0.0 . . . . ?
C97 N21 C101 C104 -178.0(16) . . . . ?
C106 N22 C102 C103 0.0 . . . . ?
Pd6 N22 C102 C103 -176.8(11) . . . . ?
N22 C102 C103 C104 0.0 . . . . ?
C102 C103 C104 C105 0.0 . . . . ?
C102 C103 C104 C101 -176.9(16) . . . . ?
C100 C101 C104 C103 -172.2(9) . . . . ?
N21 C101 C104 C103 5.7(17) . . . . ?
C100 C101 C104 C105 11.0(19) . . . . ?
N21 C101 C104 C105 -171.2(9) . . . . ?
C103 C104 C105 C106 0.0 . . . . ?
C101 C104 C105 C106 176.9(17) . . . . ?
C104 C105 C106 N22 0.0 . . . . ?
C102 N22 C106 C105 0.0 . . . . ?
Pd6 N22 C106 C105 177.1(10) . . . . ?
C111 N23 C107 C108 0.0 . . . . ?
Pd6 N23 C107 C108 177.8(11) . . . . ?
N23 C107 C108 C109 0.0 . . . . ?
C107 C108 C109 C110 0.0 . . . . ?
C107 C108 C109 C112 -180(2) . . . . ?
C108 C109 C110 C111 0.0 . . . . ?
C112 C109 C110 C111 179.9(18) . . . . ?
C109 C110 C111 N23 0.0 . . . . ?
C107 N23 C111 C110 0.0 . . . . ?
Pd6 N23 C111 C110 -177.6(12) . . . . ?
C116 N24 C112 C113 0.0 . . . . ?
C116 N24 C112 C109 179.3(19) . . . . ?
C108 C109 C112 N24 -11(2) . . . . ?
C110 C109 C112 N24 168.7(10) . . . . ?
C108 C109 C112 C113 167.8(12) . . . . ?
C110 C109 C112 C113 -12(2) . . . . ?
N24 C112 C113 C114 0.0 . . . . ?
C109 C112 C113 C114 -179(2) . . . . ?
C112 C113 C114 C115 0.0 . . . . ?
C113 C114 C115 C116 0.0 . . . . ?
C114 C115 C116 N24 0.0 . . . . ?
C114 C115 C116 C119 -180(2) . . . . ?
C112 N24 C116 C115 0.0 . . . . ?
C112 N24 C116 C119 179.7(19) . . . . ?
C121 N25 C117 C118 0.0 . . . . ?
Pd1 N25 C117 C118 168.0(10) . . . . ?
N25 C117 C118 C119 0.0 . . . . ?
C117 C118 C119 C120 0.0 . . . . ?
C117 C118 C119 C116 -178.9(18) . . . . ?
C115 C116 C119 C120 12(2) . . . . ?
N24 C116 C119 C120 -167.4(11) . . . . ?
C115 C116 C119 C118 -168.8(11) . . . . ?
N24 C116 C119 C118 12(2) . . . . ?
C118 C119 C120 C121 0.0 . . . . ?
C116 C119 C120 C121 179.0(17) . . . . ?
C119 C120 C121 N25 0.0 . . . . ?
C117 N25 C121 C120 0.0 . . . . ?
Pd1 N25 C121 C120 -167.4(11) . . . . ?
C126 N26 C122 C123 0.0 . . . . ?
Pd1 N26 C122 C123 176.9(9) . . . . ?
N26 C122 C123 C124 0.0 . . . . ?
C122 C123 C124 C125 0.0 . . . . ?
C122 C123 C124 C127 -177.3(15) . . . . ?
C123 C124 C125 C126 0.0 . . . . ?
C127 C124 C125 C126 177.7(13) . . . . ?
C124 C125 C126 N26 0.0 . . . . ?
C122 N26 C126 C125 0.0 . . . . ?
Pd1 N26 C126 C125 -176.5(10) . . . . ?
C131 N27 C127 C128 0.0 . . . . ?
C131 N27 C127 C124 -178.9(13) . . . . ?
C123 C124 C127 N27 -1.6(16) . . . . ?
C125 C124 C127 N27 -179.1(8) . . . . ?
C123 C124 C127 C128 179.7(9) . . . . ?
C125 C124 C127 C128 2.2(17) . . . . ?
N27 C127 C128 C129 0.0 . . . . ?
C124 C127 C128 C129 178.6(17) . . . . ?
C127 C128 C129 C130 0.0 . . . . ?
C128 C129 C130 C131 0.0 . . . . ?
C129 C130 C131 N27 0.0 . . . . ?
C129 C130 C131 C134 -173.8(17) . . . . ?
C127 N27 C131 C130 0.0 . . . . ?
C127 N27 C131 C134 174.3(16) . . . . ?
C136 N28 C132 C133 0.0 . . . . ?
Pd2 N28 C132 C133 -178.9(9) . . . . ?
N28 C132 C133 C134 0.0 . . . . ?
C132 C133 C134 C135 0.0 . . . . ?
C132 C133 C134 C131 173.9(15) . . . . ?
C130 C131 C134 C133 -180.0(8) . . . . ?
N27 C131 C134 C133 6.0(15) . . . . ?
C130 C131 C134 C135 -6.2(18) . . . . ?
N27 C131 C134 C135 179.7(8) . . . . ?
C133 C134 C135 C136 0.0 . . . . ?
C131 C134 C135 C136 -173.6(15) . . . . ?
C134 C135 C136 N28 0.0 . . . . ?
C132 N28 C136 C135 0.0 . . . . ?
Pd2 N28 C136 C135 178.9(9) . . . . ?
C141 N29 C137 C138 0.0 . . . . ?
Pd10 N29 C137 C138 179.8(8) . . . . ?
N29 C137 C138 C139 0.0 . . . . ?
C137 C138 C139 C140 0.0 . . . . ?
C137 C138 C139 C142 177.9(14) . . . . ?
C138 C139 C140 C141 0.0 . . . . ?
C142 C139 C140 C141 -178.0(14) . . . . ?
C139 C140 C141 N29 0.0 . . . . ?
C137 N29 C141 C140 0.0 . . . . ?
Pd10 N29 C141 C140 -179.8(9) . . . . ?
C142 N30 C142 C143 -6(3) 4_565 . . . ?
C142 N30 C142 C139 179.4(14) 4_565 . . . ?
C138 C139 C142 C143 -158.4(17) . . . . ?
C140 C139 C142 C143 20(3) . . . . ?
C138 C139 C142 N30 14(2) . . . . ?
C140 C139 C142 N30 -167.5(14) . . . . ?
N30 C142 C143 C144 -1(3) . . . . ?
C139 C142 C143 C144 171(3) . . . . ?
C142 C143 C144 C143 8(4) . . . 4_565 ?
C149 N31 C145 C146 0.0 . . . . ?
Pd12 N31 C145 C146 -178.6(8) . . . . ?
N31 C145 C146 C147 0.0 . . . . ?
C145 C146 C147 C148 0.0 . . . . ?
C145 C146 C147 C150 -175.1(15) . . . . ?
C146 C147 C148 C149 0.0 . . . . ?
C150 C147 C148 C149 175.3(14) . . . . ?
C147 C148 C149 N31 0.0 . . . . ?
C145 N31 C149 C148 0.0 . . . . ?
Pd12 N31 C149 C148 178.5(9) . . . . ?
C150 N32 C150 C151 0(4) 4_565 . . . ?
C150 N32 C150 C147 179.2(13) 4_565 . . . ?
C148 C147 C150 C151 -14(3) . . . . ?
C146 C147 C150 C151 161(2) . . . . ?
C148 C147 C150 N32 166.2(15) . . . . ?
C146 C147 C150 N32 -19(2) . . . . ?
N32 C150 C151 C152 -1(4) . . . . ?
C147 C150 C151 C152 179(3) . . . . ?
C150 C151 C152 C151 2(5) . . . 4_565 ?
C157 N33 C153 C154 0.0 . . . . ?
Pd8 N33 C153 C154 177.2(11) . . . . ?
N33 C153 C154 C155 0.0 . . . . ?
C153 C154 C155 C156 0.0 . . . . ?
C153 C154 C155 C158 176(2) . . . . ?
C154 C155 C156 C157 0.0 . . . . ?
C158 C155 C156 C157 -176.1(18) . . . . ?
C155 C156 C157 N33 0.0 . . . . ?
C153 N33 C157 C156 0.0 . . . . ?
Pd8 N33 C157 C156 -177.1(12) . . . . ?
C162 N34 C158 C159 0.0 . . . . ?
C162 N34 C158 C155 177.5(19) . . . . ?
C156 C155 C158 N34 170.3(10) . . . . ?
C154 C155 C158 N34 -6(2) . . . . ?
C156 C155 C158 C159 -12(2) . . . . ?
C154 C155 C158 C159 171.7(12) . . . . ?
N34 C158 C159 C160 0.0 . . . . ?
C155 C158 C159 C160 -177(2) . . . . ?
C158 C159 C160 C161 0.0 . . . . ?
C159 C160 C161 C162 0.0 . . . . ?
C160 C161 C162 N34 0.0 . . . . ?
C160 C161 C162 C165 178(2) . . . . ?
C158 N34 C162 C161 0.0 . . . . ?
C158 N34 C162 C165 -178.5(18) . . . . ?
C167 N35 C163 C164 0.0 . . . . ?
Pd9 N35 C163 C164 171.0(11) . . . . ?
N35 C163 C164 C165 0.0 . . . . ?
C163 C164 C165 C166 0.0 . . . . ?
C163 C164 C165 C162 -173.0(17) . . . . ?
C161 C162 C165 C166 14(2) . . . . ?
N34 C162 C165 C166 -168.1(11) . . . . ?
C161 C162 C165 C164 -173.2(11) . . . . ?
N34 C162 C165 C164 5.1(19) . . . . ?
C164 C165 C166 C167 0.0 . . . . ?
C162 C165 C166 C167 173.4(16) . . . . ?
C165 C166 C167 N35 0.0 . . . . ?
C163 N35 C167 C166 0.0 . . . . ?
Pd9 N35 C167 C166 -170.7(11) . . . . ?
C172 N36 C168 C169 0.0 . . . . ?
Pd9 N36 C168 C169 179.5(8) . . . . ?
N36 C168 C169 C170 0.0 . . . . ?
C168 C169 C170 C171 0.0 . . . . ?
C168 C169 C170 C173 -171.4(14) . . . . ?
C169 C170 C171 C172 0.0 . . . . ?
C173 C170 C171 C172 171.9(13) . . . . ?
C170 C171 C172 N36 0.0 . . . . ?
C168 N36 C172 C171 0.0 . . . . ?
Pd9 N36 C172 C171 -179.4(9) . . . . ?
C177 N37 C173 C174 0.0 . . . . ?
C177 N37 C173 C170 -176.8(13) . . . . ?
C171 C170 C173 N37 -178.6(8) . . . . ?
C169 C170 C173 N37 -6.9(15) . . . . ?
C171 C170 C173 C174 5.0(16) . . . . ?
C169 C170 C173 C174 176.6(9) . . . . ?
N37 C173 C174 C175 0.0 . . . . ?
C170 C173 C174 C175 176.1(16) . . . . ?
C173 C174 C175 C176 0.0 . . . . ?
C174 C175 C176 C177 0.0 . . . . ?
C175 C176 C177 N37 0.0 . . . . ?
C175 C176 C177 C180 -178.7(16) . . . . ?
C173 N37 C177 C176 0.0 . . . . ?
C173 N37 C177 C180 178.7(16) . . . . ?
C182 N38 C178 C179 0.0 . . . . ?
Pd10 N38 C178 C179 -177.5(9) . . . . ?
N38 C178 C179 C180 0.0 . . . . ?
C178 C179 C180 C181 0.0 . . . . ?
C178 C179 C180 C177 176.5(14) . . . . ?
C176 C177 C180 C181 -0.7(17) . . . . ?
N37 C177 C180 C181 -179.4(8) . . . . ?
C176 C177 C180 C179 -176.8(8) . . . . ?
N37 C177 C180 C179 4.5(15) . . . . ?
C179 C180 C181 C182 0.0 . . . . ?
C177 C180 C181 C182 -175.9(16) . . . . ?
C180 C181 C182 N38 0.0 . . . . ?
C178 N38 C182 C181 0.0 . . . . ?
Pd10 N38 C182 C181 177.6(9) . . . . ?
C187 N39 C183 C184 0.0 . . . . ?
Pd10 N39 C183 C184 -174.4(9) . . . . ?
N39 C183 C184 C185 0.0 . . . . ?
C183 C184 C185 C186 0.0 . . . . ?
C183 C184 C185 C188 176.7(13) . . . . ?
C184 C185 C186 C187 0.0 . . . . ?
C188 C185 C186 C187 -176.5(14) . . . . ?
C185 C186 C187 N39 0.0 . . . . ?
C183 N39 C187 C186 0.0 . . . . ?
Pd10 N39 C187 C186 174.3(9) . . . . ?
C192 N40 C188 C189 0.0 . . . . ?
C192 N40 C188 C185 179.3(15) . . . . ?
C186 C185 C188 C189 -5.9(16) . . . . ?
C184 C185 C188 C189 177.5(8) . . . . ?
C186 C185 C188 N40 174.8(9) . . . . ?
C184 C185 C188 N40 -1.8(15) . . . . ?
N40 C188 C189 C190 0.0 . . . . ?
C185 C188 C189 C190 -179.2(15) . . . . ?
C188 C189 C190 C191 0.0 . . . . ?
C189 C190 C191 C192 0.0 . . . . ?
C190 C191 C192 C195 -173.2(19) . . . . ?
C190 C191 C192 N40 0.0 . . . . ?
C188 N40 C192 C195 174.5(16) . . . . ?
C188 N40 C192 C191 0.0 . . . . ?
C197 N41 C193 C194 0.0 . . . . ?
Pd8 N41 C193 C194 -177.2(11) . . . . ?
N41 C193 C194 C195 0.0 . . . . ?
C191 C192 C195 C194 -171.0(9) . . . . ?
N40 C192 C195 C194 15.2(17) . . . . ?
C191 C192 C195 C196 5.8(19) . . . . ?
N40 C192 C195 C196 -168.0(8) . . . . ?
C193 C194 C195 C192 176.6(17) . . . . ?
C193 C194 C195 C196 0.0 . . . . ?
C192 C195 C196 C197 -176.9(16) . . . . ?
C194 C195 C196 C197 0.0 . . . . ?
C195 C196 C197 N41 0.0 . . . . ?
C193 N41 C197 C196 0.0 . . . . ?
Pd8 N41 C197 C196 177.3(10) . . . . ?
C202 N42 C198 C199 0.0 . . . . ?
Pd10 N42 C198 C199 170.7(7) . . . . ?
N42 C198 C199 C200 0.0 . . . . ?
C198 C199 C200 C201 0.0 . . . . ?
C198 C199 C200 C203 177.4(13) . . . . ?
C199 C200 C201 C202 0.0 . . . . ?
C203 C200 C201 C202 -177.6(12) . . . . ?
C200 C201 C202 N42 0.0 . . . . ?
C198 N42 C202 C201 0.0 . . . . ?
Pd10 N42 C202 C201 -170.0(7) . . . . ?
C207 N43 C203 C204 0.0 . . . . ?
C207 N43 C203 C200 178.5(13) . . . . ?
C199 C200 C203 N43 22.6(14) . . . . ?
C201 C200 C203 N43 -159.9(7) . . . . ?
C199 C200 C203 C204 -159.0(8) . . . . ?
C201 C200 C203 C204 18.5(15) . . . . ?
N43 C203 C204 C205 0.0 . . . . ?
C200 C203 C204 C205 -178.2(16) . . . . ?
C203 C204 C205 C206 0.0 . . . . ?
C204 C205 C206 C207 0.0 . . . . ?
C205 C206 C207 N43 0.0 . . . . ?
C205 C206 C207 C210 179.3(12) . . . . ?
C203 N43 C207 C206 0.0 . . . . ?
C203 N43 C207 C210 -179.3(12) . . . . ?
C212 N44 C208 C209 0.0 . . . . ?
Pd11 N44 C208 C209 171.8(7) . . . . ?
N44 C208 C209 C210 0.0 . . . . ?
C208 C209 C210 C211 0.0 . . . . ?
C208 C209 C210 C207 179.7(11) . . . . ?
C206 C207 C210 C209 160.6(7) . . . . ?
N43 C207 C210 C209 -20.1(13) . . . . ?
C206 C207 C210 C211 -19.7(13) . . . . ?
N43 C207 C210 C211 159.6(8) . . . . ?
C209 C210 C211 C212 0.0 . . . . ?
C207 C210 C211 C212 -179.6(12) . . . . ?
C210 C211 C212 N44 0.0 . . . . ?
C208 N44 C212 C211 0.0 . . . . ?
Pd11 N44 C212 C211 -171.6(7) . . . . ?
C217 N45 C213 C214 0.0 . . . . ?
Pd11 N45 C213 C214 -173.8(7) . . . . ?
N45 C213 C214 C215 0.0 . . . . ?
C213 C214 C215 C216 0.0 . . . . ?
C213 C214 C215 C218 176.4(11) . . . . ?
C214 C215 C216 C217 0.0 . . . . ?
C218 C215 C216 C217 -176.4(11) . . . . ?
C215 C216 C217 N45 0.0 . . . . ?
C213 N45 C217 C216 0.0 . . . . ?
Pd11 N45 C217 C216 173.6(7) . . . . ?
C222 N46 C218 C219 0.0 . . . . ?
C222 N46 C218 C215 176.6(12) . . . . ?
C214 C215 C218 N46 23.4(13) . . . . ?
C216 C215 C218 N46 -160.1(8) . . . . ?
C214 C215 C218 C219 -160.0(7) . . . . ?
C216 C215 C218 C219 16.4(13) . . . . ?
N46 C218 C219 C220 0.0 . . . . ?
C215 C218 C219 C220 -176.4(13) . . . . ?
C218 C219 C220 C221 0.0 . . . . ?
C219 C220 C221 C222 0.0 . . . . ?
C220 C221 C222 N46 0.0 . . . . ?
C220 C221 C222 C225 -179.1(15) . . . . ?
C218 N46 C222 C221 0.0 . . . . ?
C218 N46 C222 C225 179.2(14) . . . . ?
C227 N47 C223 C224 0.0 . . . . ?
Pd12 N47 C223 C224 -170.1(7) . . . . ?
N47 C223 C224 C225 0.0 . . . . ?
C223 C224 C225 C226 0.0 . . . . ?
C223 C224 C225 C222 -179.5(13) . . . . ?
C221 C222 C225 C224 158.9(7) . . . . ?
N46 C222 C225 C224 -20.2(13) . . . . ?
C221 C222 C225 C226 -20.5(15) . . . . ?
N46 C222 C225 C226 160.4(7) . . . . ?
C224 C225 C226 C227 0.0 . . . . ?
C222 C225 C226 C227 179.5(13) . . . . ?
C225 C226 C227 N47 0.0 . . . . ?
C223 N47 C227 C226 0.0 . . . . ?
Pd12 N47 C227 C226 169.7(8) . . . . ?
C232 N48 C228 C229 0.0 . . . . ?
Pd12 N48 C228 C229 171.8(9) . . . . ?
N48 C228 C229 C230 0.0 . . . . ?
C228 C229 C230 C231 0.0 . . . . ?
C228 C229 C230 C233 179.9(13) . . . . ?
C229 C230 C231 C232 0.0 . . . . ?
C233 C230 C231 C232 -179.9(14) . . . . ?
C230 C231 C232 N48 0.0 . . . . ?
C228 N48 C232 C231 0.0 . . . . ?
Pd12 N48 C232 C231 -171.7(9) . . . . ?
C237 N49 C233 C234 0.0 . . . . ?
C237 N49 C233 C230 177.2(15) . . . . ?
C229 C230 C233 C234 -177.9(8) . . . . ?
C231 C230 C233 C234 2.0(16) . . . . ?
C229 C230 C233 N49 5.0(15) . . . . ?
C231 C230 C233 N49 -175.1(9) . . . . ?
N49 C233 C234 C235 0.0 . . . . ?
C230 C233 C234 C235 -177.0(16) . . . . ?
C233 C234 C235 C236 0.0 . . . . ?
C234 C235 C236 C237 0.0 . . . . ?
C235 C236 C237 N49 0.0 . . . . ?
C235 C236 C237 C240 171.3(19) . . . . ?
C233 N49 C237 C236 0.0 . . . . ?
C233 N49 C237 C240 -172.9(16) . . . . ?
C242 N50 C238 C239 0.0 . . . . ?
Pd8 N50 C238 C239 179.4(10) . . . . ?
N50 C238 C239 C240 0.0 . . . . ?
C238 C239 C240 C241 0.0 . . . . ?
C238 C239 C240 C237 -172.6(17) . . . . ?
C236 C237 C240 C241 -3.1(19) . . . . ?
N49 C237 C240 C241 168.9(9) . . . . ?
C236 C237 C240 C239 169.9(9) . . . . ?
N49 C237 C240 C239 -18.2(17) . . . . ?
C239 C240 C241 C242 0.0 . . . . ?
C237 C240 C241 C242 173.3(15) . . . . ?
C240 C241 C242 N50 0.0 . . . . ?
C238 N50 C242 C241 0.0 . . . . ?
Pd8 N50 C242 C241 -179.4(10) . . . . ?
C247 N51 C243 C244 0.0 . . . . ?
Pd8 N51 C243 C244 -177.9(11) . . . . ?
N51 C243 C244 C245 0.0 . . . . ?
C243 C244 C245 C246 0.0 . . . . ?
C243 C244 C245 C248 -176.0(19) . . . . ?
C244 C245 C246 C247 0.0 . . . . ?
C248 C245 C246 C247 176.4(18) . . . . ?
C245 C246 C247 N51 0.0 . . . . ?
C243 N51 C247 C246 0.0 . . . . ?
Pd8 N51 C247 C246 177.9(11) . . . . ?
C252 N52 C248 C249 0.0 . . . . ?
C252 N52 C248 C245 179.0(18) . . . . ?
C244 C245 C248 N52 8(2) . . . . ?
C246 C245 C248 N52 -168.3(9) . . . . ?
C244 C245 C248 C249 -173.2(11) . . . . ?
C246 C245 C248 C249 11(2) . . . . ?
N52 C248 C249 C250 0.0 . . . . ?
C245 C248 C249 C250 -179(2) . . . . ?
C248 C249 C250 C251 0.0 . . . . ?
C249 C250 C251 C252 0.0 . . . . ?
C250 C251 C252 N52 0.0 . . . . ?
C250 C251 C252 C255 -170.4(18) . . . . ?
C248 N52 C252 C251 0.0 . . . . ?
C248 N52 C252 C255 171.0(17) . . . . ?
C257 N53 C253 C254 0.0 . . . . ?
Pd7 N53 C253 C254 -171.5(10) . . . . ?
N53 C253 C254 C255 0.0 . . . . ?
C253 C254 C255 C256 0.0 . . . . ?
C253 C254 C255 C252 168.0(16) . . . . ?
C251 C252 C255 C254 174.6(10) . . . . ?
N52 C252 C255 C254 3.9(19) . . . . ?
C251 C252 C255 C256 -17.2(18) . . . . ?
N52 C252 C255 C256 172.1(10) . . . . ?
C254 C255 C256 C257 0.0 . . . . ?
C252 C255 C256 C257 -168.3(16) . . . . ?
C255 C256 C257 N53 0.0 . . . . ?
C253 N53 C257 C256 0.0 . . . . ?
Pd7 N53 C257 C256 170.9(11) . . . . ?
C262 N54 C258 C259 0.0 . . . . ?
Pd7 N54 C258 C259 -176.9(9) . . . . ?
N54 C258 C259 C260 0.0 . . . . ?
C258 C259 C260 C261 0.0 . . . . ?
C258 C259 C260 C263 173.5(14) . . . . ?
C259 C260 C261 C262 0.0 . . . . ?
C263 C260 C261 C262 -173.7(13) . . . . ?
C260 C261 C262 N54 0.0 . . . . ?
C258 N54 C262 C261 0.0 . . . . ?
Pd7 N54 C262 C261 176.8(9) . . . . ?
C267 N55 C263 C264 0.0 . . . . ?
C267 N55 C263 C260 173.9(13) . . . . ?
C259 C260 C263 C264 177.1(9) . . . . ?
C261 C260 C263 C264 -9.3(16) . . . . ?
C259 C260 C263 N55 3.9(15) . . . . ?
C261 C260 C263 N55 177.5(8) . . . . ?
N55 C263 C264 C265 0.0 . . . . ?
C260 C263 C264 C265 -172.6(16) . . . . ?
C263 C264 C265 C266 0.0 . . . . ?
C264 C265 C266 C267 0.0 . . . . ?
C265 C266 C267 N55 0.0 . . . . ?
C265 C266 C267 C270 179.4(16) . . . . ?
C263 N55 C267 C266 0.0 . . . . ?
C263 N55 C267 C270 -179.4(16) . . . . ?
C272 N56 C268 C269 0.0 . . . . ?
Pd12 N56 C268 C269 175.8(10) . . . . ?
N56 C268 C269 C270 0.0 . . . . ?
C268 C269 C270 C271 0.0 . . . . ?
C268 C269 C270 C267 -178.2(14) . . . . ?
C266 C267 C270 C269 -177.6(8) . . . . ?
N55 C267 C270 C269 1.8(15) . . . . ?
C266 C267 C270 C271 4.4(18) . . . . ?
N55 C267 C270 C271 -176.3(8) . . . . ?
C269 C270 C271 C272 0.0 . . . . ?
C267 C270 C271 C272 177.9(16) . . . . ?
C270 C271 C272 N56 0.0 . . . . ?
C268 N56 C272 C271 0.0 . . . . ?
Pd12 N56 C272 C271 -176.0(9) . . . . ?
C277 N57 C273 C274 0.0 . . . . ?
Pd16 N57 C273 C274 179.2(8) . . . . ?
N57 C273 C274 C275 0.0 . . . . ?
C273 C274 C275 C276 0.0 . . . . ?
C273 C274 C275 C278 -179.8(13) . . . . ?
C274 C275 C276 C277 0.0 . . . . ?
C278 C275 C276 C277 179.9(13) . . . . ?
C275 C276 C277 N57 0.0 . . . . ?
C273 N57 C277 C276 0.0 . . . . ?
Pd16 N57 C277 C276 -179.1(9) . . . . ?
C278 N58 C278 C279 7(3) 4_575 . . . ?
C278 N58 C278 C275 179.5(12) 4_575 . . . ?
C276 C275 C278 C279 -20(2) . . . . ?
C274 C275 C278 C279 159.7(14) . . . . ?
C276 C275 C278 N58 167.9(13) . . . . ?
C274 C275 C278 N58 -12(2) . . . . ?
N58 C278 C279 C280 1(3) . . . . ?
C275 C278 C279 C280 -171(2) . . . . ?
C278 C279 C280 C279 -8(4) . . . 4_575 ?
C285 N59 C281 C282 0.0 . . . . ?
Pd14 N59 C281 C282 177.8(8) . . . . ?
N59 C281 C282 C283 0.0 . . . . ?
C281 C282 C283 C284 0.0 . . . . ?
C281 C282 C283 C286 -179.2(15) . . . . ?
C282 C283 C284 C285 0.0 . . . . ?
C286 C283 C284 C285 179.3(14) . . . . ?
C283 C284 C285 N59 0.0 . . . . ?
C281 N59 C285 C284 0.0 . . . . ?
Pd14 N59 C285 C284 -177.7(9) . . . . ?
C286 N60 C286 C287 -13(3) 4_575 . . . ?
C286 N60 C286 C283 179.9(15) 4_575 . . . ?
C284 C283 C286 C287 24(2) . . . . ?
C282 C283 C286 C287 -156.5(16) . . . . ?
C284 C283 C286 N60 -170.7(14) . . . . ?
C282 C283 C286 N60 9(2) . . . . ?
N60 C286 C287 C288 -1(3) . . . . ?
C283 C286 C287 C288 163(2) . . . . ?
C286 C287 C288 C287 13(3) . . . 4_575 ?
C293 N61 C289 C290 0.0 . . . . ?
Pd16 N61 C289 C290 176.6(9) . . . . ?
N61 C289 C290 C291 0.0 . . . . ?
C289 C290 C291 C292 0.0 . . . . ?
C289 C290 C291 C294 -178.4(13) . . . . ?
C290 C291 C292 C293 0.0 . . . . ?
C294 C291 C292 C293 178.0(16) . . . . ?
C291 C292 C293 N61 0.0 . . . . ?
C289 N61 C293 C292 0.0 . . . . ?
Pd16 N61 C293 C292 -176.8(9) . . . . ?
C298 N62 C294 C295 0.0 . . . . ?
C298 N62 C294 C291 178.3(16) . . . . ?
C292 C291 C294 N62 -179.0(8) . . . . ?
C290 C291 C294 N62 -0.8(14) . . . . ?
C292 C291 C294 C295 -0.7(18) . . . . ?
C290 C291 C294 C295 177.5(8) . . . . ?
N62 C294 C295 C296 0.0 . . . . ?
C291 C294 C295 C296 -178.3(16) . . . . ?
C294 C295 C296 C297 0.0 . . . . ?
C295 C296 C297 C298 0.0 . . . . ?
C296 C297 C298 C301 -170.8(16) . . . . ?
C296 C297 C298 N62 0.0 . . . . ?
C294 N62 C298 C301 172.0(13) . . . . ?
C294 N62 C298 C297 0.0 . . . . ?
C303 N63 C299 C300 0.0 . . . . ?
Pd17 N63 C299 C300 -178.4(9) . . . . ?
N63 C299 C300 C301 0.0 . . . . ?
C297 C298 C301 C300 -179.8(9) . . . . ?
N62 C298 C301 C300 8.8(15) . . . . ?
C297 C298 C301 C302 -9.8(16) . . . . ?
N62 C298 C301 C302 178.8(9) . . . . ?
C299 C300 C301 C298 170.1(14) . . . . ?
C299 C300 C301 C302 0.0 . . . . ?
C298 C301 C302 C303 -169.9(14) . . . . ?
C300 C301 C302 C303 0.0 . . . . ?
C301 C302 C303 N63 0.0 . . . . ?
C299 N63 C303 C302 0.0 . . . . ?
Pd17 N63 C303 C302 178.4(9) . . . . ?
C308 N64 C304 C305 0.0 . . . . ?
Pd17 N64 C304 C305 -170.8(11) . . . . ?
N64 C304 C305 C306 0.0 . . . . ?
C304 C305 C306 C307 0.0 . . . . ?
C304 C305 C306 C309 173.4(17) . . . . ?
C305 C306 C307 C308 0.0 . . . . ?
C309 C306 C307 C308 -173.8(16) . . . . ?
C306 C307 C308 N64 0.0 . . . . ?
C304 N64 C308 C307 0.0 . . . . ?
Pd17 N64 C308 C307 170.3(11) . . . . ?
C313 N65 C309 C310 0.0 . . . . ?
C313 N65 C309 C306 176.6(17) . . . . ?
C305 C306 C309 N65 -6.2(19) . . . . ?
C307 C306 C309 N65 167.4(10) . . . . ?
C305 C306 C309 C310 170.1(11) . . . . ?
C307 C306 C309 C310 -16.2(19) . . . . ?
N65 C309 C310 C311 0.0 . . . . ?
C306 C309 C310 C311 -176.1(19) . . . . ?
C309 C310 C311 C312 0.0 . . . . ?
C310 C311 C312 C313 0.0 . . . . ?
C311 C312 C313 N65 0.0 . . . . ?
C311 C312 C313 C316 177(2) . . . . ?
C309 N65 C313 C312 0.0 . . . . ?
C309 N65 C313 C316 -177.7(19) . . . . ?
C318 N66 C314 C315 0.0 . . . . ?
Pd18 N66 C314 C315 -174.2(12) . . . . ?
N66 C314 C315 C316 0.0 . . . . ?
C314 C315 C316 C317 0.0 . . . . ?
C314 C315 C316 C313 -173.8(19) . . . . ?
C312 C313 C316 C317 15(2) . . . . ?
N65 C313 C316 C317 -167.4(10) . . . . ?
C312 C313 C316 C315 -170.9(11) . . . . ?
N65 C313 C316 C315 7(2) . . . . ?
C315 C316 C317 C318 0.0 . . . . ?
C313 C316 C317 C318 174.2(18) . . . . ?
C316 C317 C318 N66 0.0 . . . . ?
C314 N66 C318 C317 0.0 . . . . ?
Pd18 N66 C318 C317 174.1(12) . . . . ?
C323 N67 C319 C320 0.0 . . . . ?
Pd18 N67 C319 C320 176.1(11) . . . . ?
N67 C319 C320 C321 0.0 . . . . ?
C319 C320 C321 C324 177.1(16) . . . . ?
C319 C320 C321 C322 0.0 . . . . ?
C324 C321 C322 C323 -177.0(17) . . . . ?
C320 C321 C322 C323 0.0 . . . . ?
C321 C322 C323 N67 0.0 . . . . ?
C319 N67 C323 C322 0.0 . . . . ?
Pd18 N67 C323 C322 -176.4(10) . . . . ?
C322 C321 C324 N68 169.0(9) . . . . ?
C320 C321 C324 N68 -8.1(18) . . . . ?
C322 C321 C324 C325 -14.2(18) . . . . ?
C320 C321 C324 C325 168.7(9) . . . . ?
C328 N68 C324 C321 176.8(18) . . . . ?
C328 N68 C324 C325 0.0 . . . . ?
C321 C324 C325 C326 -176.7(18) . . . . ?
N68 C324 C325 C326 0.0 . . . . ?
C324 C325 C326 C327 0.0 . . . . ?
C325 C326 C327 C328 0.0 . . . . ?
C326 C327 C328 N68 0.0 . . . . ?
C326 C327 C328 C331 -173.4(17) . . . . ?
C324 N68 C328 C327 0.0 . . . . ?
C324 N68 C328 C331 174.0(15) . . . . ?
C333 N69 C329 C330 0.0 . . . . ?
Pd16 N69 C329 C330 172.2(9) . . . . ?
N69 C329 C330 C331 0.0 . . . . ?
C329 C330 C331 C332 0.0 . . . . ?
C329 C330 C331 C328 177.5(14) . . . . ?
C327 C328 C331 C332 2.2(17) . . . . ?
N68 C328 C331 C332 -171.5(9) . . . . ?
C327 C328 C331 C330 -175.2(9) . . . . ?
N68 C328 C331 C330 11.1(15) . . . . ?
C330 C331 C332 C333 0.0 . . . . ?
C328 C331 C332 C333 -177.4(14) . . . . ?
C331 C332 C333 N69 0.0 . . . . ?
C329 N69 C333 C332 0.0 . . . . ?
Pd16 N69 C333 C332 -172.2(9) . . . . ?
C338 N70 C334 C335 0.0 . . . . ?
Pd16 N70 C334 C335 -169.0(8) . . . . ?
N70 C334 C335 C336 0.0 . . . . ?
C334 C335 C336 C337 0.0 . . . . ?
C334 C335 C336 C339 -174.5(13) . . . . ?
C335 C336 C337 C338 0.0 . . . . ?
C339 C336 C337 C338 174.5(13) . . . . ?
C336 C337 C338 N70 0.0 . . . . ?
C334 N70 C338 C337 0.0 . . . . ?
Pd16 N70 C338 C337 168.8(8) . . . . ?
C343 N71 C339 C340 0.0 . . . . ?
C343 N71 C339 C336 -176.7(14) . . . . ?
C335 C336 C339 N71 -25.7(13) . . . . ?
C337 C336 C339 N71 159.8(7) . . . . ?
C335 C336 C339 C340 157.9(8) . . . . ?
C337 C336 C339 C340 -16.6(16) . . . . ?
N71 C339 C340 C341 0.0 . . . . ?
C336 C339 C340 C341 176.1(16) . . . . ?
C339 C340 C341 C342 0.0 . . . . ?
C340 C341 C342 C343 0.0 . . . . ?
C341 C342 C343 N71 0.0 . . . . ?
C341 C342 C343 C346 -176.6(13) . . . . ?
C339 N71 C343 C342 0.0 . . . . ?
C339 N71 C343 C346 176.7(12) . . . . ?
C348 N72 C344 C345 0.0 . . . . ?
Pd15 N72 C344 C345 -174.4(7) . . . . ?
N72 C344 C345 C346 0.0 . . . . ?
C344 C345 C346 C347 0.0 . . . . ?
C344 C345 C346 C343 175.3(11) . . . . ?
C342 C343 C346 C347 15.8(13) . . . . ?
N71 C343 C346 C347 -160.8(8) . . . . ?
C342 C343 C346 C345 -159.4(7) . . . . ?
N71 C343 C346 C345 23.9(13) . . . . ?
C345 C346 C347 C348 0.0 . . . . ?
C343 C346 C347 C348 -175.1(12) . . . . ?
C346 C347 C348 N72 0.0 . . . . ?
C344 N72 C348 C347 0.0 . . . . ?
Pd15 N72 C348 C347 174.2(7) . . . . ?
C353 N73 C349 C350 0.0 . . . . ?
Pd15 N73 C349 C350 173.0(7) . . . . ?
N73 C349 C350 C351 0.0 . . . . ?
C349 C350 C351 C352 0.0 . . . . ?
C349 C350 C351 C354 -179.7(12) . . . . ?
C350 C351 C352 C353 0.0 . . . . ?
C354 C351 C352 C353 179.7(12) . . . . ?
C351 C352 C353 N73 0.0 . . . . ?
C349 N73 C353 C352 0.0 . . . . ?
Pd15 N73 C353 C352 -172.7(7) . . . . ?
C358 N74 C354 C355 0.0 . . . . ?
C358 N74 C354 C351 178.7(13) . . . . ?
C350 C351 C354 N74 -19.9(14) . . . . ?
C352 C351 C354 N74 160.4(8) . . . . ?
C350 C351 C354 C355 158.7(8) . . . . ?
C352 C351 C354 C355 -20.9(13) . . . . ?
N74 C354 C355 C356 0.0 . . . . ?
C351 C354 C355 C356 -178.6(13) . . . . ?
C354 C355 C356 C357 0.0 . . . . ?
C355 C356 C357 C358 0.0 . . . . ?
C356 C357 C358 N74 0.0 . . . . ?
C356 C357 C358 C361 -176.2(16) . . . . ?
C354 N74 C358 C357 0.0 . . . . ?
C354 N74 C358 C361 176.8(14) . . . . ?
C363 N75 C359 C360 0.0 . . . . ?
Pd14 N75 C359 C360 170.3(7) . . . . ?
N75 C359 C360 C361 0.0 . . . . ?
C359 C360 C361 C362 0.0 . . . . ?
C359 C360 C361 C358 175.6(13) . . . . ?
C357 C358 C361 C360 -159.5(8) . . . . ?
N74 C358 C361 C360 24.0(14) . . . . ?
C357 C358 C361 C362 16.2(16) . . . . ?
N74 C358 C361 C362 -160.2(7) . . . . ?
C360 C361 C362 C363 0.0 . . . . ?
C358 C361 C362 C363 -175.8(13) . . . . ?
C361 C362 C363 N75 0.0 . . . . ?
C359 N75 C363 C362 0.0 . . . . ?
Pd14 N75 C363 C362 -169.9(8) . . . . ?
C368 N76 C364 C365 0.0 . . . . ?
Pd14 N76 C364 C365 -175.2(9) . . . . ?
N76 C364 C365 C366 0.0 . . . . ?
C364 C365 C366 C367 0.0 . . . . ?
C364 C365 C366 C369 175.6(13) . . . . ?
C365 C366 C367 C368 0.0 . . . . ?
C369 C366 C367 C368 -175.3(14) . . . . ?
C366 C367 C368 N76 0.0 . . . . ?
C364 N76 C368 C367 0.0 . . . . ?
Pd14 N76 C368 C367 175.1(9) . . . . ?
C373 N77 C369 C370 0.0 . . . . ?
C373 N77 C369 C366 179.7(15) . . . . ?
C365 C366 C369 C370 177.8(8) . . . . ?
C367 C366 C369 C370 -6.7(15) . . . . ?
C365 C366 C369 N77 -1.9(15) . . . . ?
C367 C366 C369 N77 173.6(9) . . . . ?
N77 C369 C370 C371 0.0 . . . . ?
C366 C369 C370 C371 -179.7(15) . . . . ?
C369 C370 C371 C372 0.0 . . . . ?
C370 C371 C372 C373 0.0 . . . . ?
C371 C372 C373 N77 0.0 . . . . ?
C371 C372 C373 C376 -173.3(19) . . . . ?
C369 N77 C373 C372 0.0 . . . . ?
C369 N77 C373 C376 174.6(15) . . . . ?
C378 N78 C374 C375 0.0 . . . . ?
Pd18 N78 C374 C375 -175.3(11) . . . . ?
N78 C374 C375 C376 0.0 . . . . ?
C374 C375 C376 C377 0.0 . . . . ?
C374 C375 C376 C373 177.9(17) . . . . ?
C372 C373 C376 C377 5.1(19) . . . . ?
N77 C373 C376 C377 -168.8(8) . . . . ?
C372 C373 C376 C375 -172.9(9) . . . . ?
N77 C373 C376 C375 13.2(16) . . . . ?
C375 C376 C377 C378 0.0 . . . . ?
C373 C376 C377 C378 -178.1(15) . . . . ?
C376 C377 C378 N78 0.0 . . . . ?
C374 N78 C378 C377 0.0 . . . . ?
Pd18 N78 C378 C377 175.5(10) . . . . ?
C383 N79 C379 C380 0.0 . . . . ?
Pd18 N79 C379 C380 174.9(11) . . . . ?
N79 C379 C380 C381 0.0 . . . . ?
C379 C380 C381 C382 0.0 . . . . ?
C379 C380 C381 C384 173.6(19) . . . . ?
C380 C381 C382 C383 0.0 . . . . ?
C384 C381 C382 C383 -173.7(19) . . . . ?
C381 C382 C383 N79 0.0 . . . . ?
C379 N79 C383 C382 0.0 . . . . ?
Pd18 N79 C383 C382 -174.8(12) . . . . ?
C388 N80 C384 C385 0.0 . . . . ?
C388 N80 C384 C381 177(2) . . . . ?
C380 C381 C384 N80 -5(2) . . . . ?
C382 C381 C384 N80 168.5(10) . . . . ?
C380 C381 C384 C385 172.2(11) . . . . ?
C382 C381 C384 C385 -14(2) . . . . ?
N80 C384 C385 C386 0.0 . . . . ?
C381 C384 C385 C386 -177(2) . . . . ?
C384 C385 C386 C387 0.0 . . . . ?
C385 C386 C387 C388 0.0 . . . . ?
C386 C387 C388 N80 0.0 . . . . ?
C386 C387 C388 C391 179(2) . . . . ?
C384 N80 C388 C387 0.0 . . . . ?
C384 N80 C388 C391 -178.8(17) . . . . ?
C393 N81 C389 C390 0.0 . . . . ?
Pd13 N81 C389 C390 169.2(10) . . . . ?
N81 C389 C390 C391 0.0 . . . . ?
C389 C390 C391 C392 0.0 . . . . ?
C389 C390 C391 C388 -175.2(18) . . . . ?
C387 C388 C391 C390 -172.8(11) . . . . ?
N80 C388 C391 C390 5.8(19) . . . . ?
C387 C388 C391 C392 12(2) . . . . ?
N80 C388 C391 C392 -169.6(10) . . . . ?
C390 C391 C392 C393 0.0 . . . . ?
C388 C391 C392 C393 175.7(15) . . . . ?
C391 C392 C393 N81 0.0 . . . . ?
C389 N81 C393 C392 0.0 . . . . ?
Pd13 N81 C393 C392 -167.9(11) . . . . ?
C398 N82 C394 C395 0.0 . . . . ?
Pd13 N82 C394 C395 178.2(9) . . . . ?
N82 C394 C395 C396 0.0 . . . . ?
C394 C395 C396 C399 -169.8(16) . . . . ?
C394 C395 C396 C397 0.0 . . . . ?
C399 C396 C397 C398 170.9(14) . . . . ?
C395 C396 C397 C398 0.0 . . . . ?
C396 C397 C398 N82 0.0 . . . . ?
C394 N82 C398 C397 0.0 . . . . ?
Pd13 N82 C398 C397 -178.0(10) . . . . ?
C395 C396 C399 N83 -8.6(16) . . . . ?
C397 C396 C399 N83 -178.9(9) . . . . ?
C395 C396 C399 C400 179.8(10) . . . . ?
C397 C396 C399 C400 9.5(18) . . . . ?
C403 N83 C399 C396 -172.8(14) . . . . ?
C403 N83 C399 C400 0.0 . . . . ?
C396 C399 C400 C401 170.7(18) . . . . ?
N83 C399 C400 C401 0.0 . . . . ?
C399 C400 C401 C402 0.0 . . . . ?
C400 C401 C402 C403 0.0 . . . . ?
C401 C402 C403 N83 0.0 . . . . ?
C401 C402 C403 C406 -179.2(16) . . . . ?
C399 N83 C403 C402 0.0 . . . . ?
C399 N83 C403 C406 179.2(16) . . . . ?
C408 N84 C404 C405 0.0 . . . . ?
Pd14 N84 C404 C405 -178.4(9) . . . . ?
N84 C404 C405 C406 0.0 . . . . ?
C404 C405 C406 C407 0.0 . . . . ?
C404 C405 C406 C403 174.7(13) . . . . ?
C402 C403 C406 C407 -6.5(17) . . . . ?
N83 C403 C406 C407 174.3(8) . . . . ?
C402 C403 C406 C405 179.3(8) . . . . ?
N83 C403 C406 C405 0.1(14) . . . . ?
C405 C406 C407 C408 0.0 . . . . ?
C403 C406 C407 C408 -173.8(16) . . . . ?
C406 C407 C408 N84 0.0 . . . . ?
C404 N84 C408 C407 0.0 . . . . ?
Pd14 N84 C408 C407 178.5(9) . . . . ?
C117 N25 Pd1 N25 92.5(9) . . . 4_565 ?
C121 N25 Pd1 N25 -99.8(9) . . . 4_565 ?
C117 N25 Pd1 N26 -88(95) . . . 4_565 ?
C121 N25 Pd1 N26 79(100) . . . 4_565 ?
C117 N25 Pd1 N26 -87.5(10) . . . . ?
C121 N25 Pd1 N26 80.2(10) . . . . ?
C122 N26 Pd1 N25 92.3(9) . . . . ?
C126 N26 Pd1 N25 -91.0(10) . . . . ?
C122 N26 Pd1 N25 -89(95) . . . 4_565 ?
C126 N26 Pd1 N25 88(100) . . . 4_565 ?
C122 N26 Pd1 N26 -87.7(9) . . . 4_565 ?
C126 N26 Pd1 N26 89.0(10) . . . 4_565 ?
C132 N28 Pd2 N3 88.0(8) . . . . ?
C136 N28 Pd2 N3 -90.9(8) . . . . ?
C132 N28 Pd2 N19 10(12) . . . . ?
C136 N28 Pd2 N19 -169(12) . . . . ?
C132 N28 Pd2 N20 -90.0(8) . . . . ?
C136 N28 Pd2 N20 91.1(8) . . . . ?
C9 N3 Pd2 N28 -92.0(8) . . . . ?
C13 N3 Pd2 N28 85.8(9) . . . . ?
C9 N3 Pd2 N19 85.5(7) . . . . ?
C13 N3 Pd2 N19 -96.8(8) . . . . ?
C9 N3 Pd2 N20 -11(15) . . . . ?
C13 N3 Pd2 N20 167(61) . . . . ?
C87 N19 Pd2 N28 -13(12) . . . . ?
C91 N19 Pd2 N28 158(12) . . . . ?
C87 N19 Pd2 N3 -90.8(7) . . . . ?
C91 N19 Pd2 N3 79.9(7) . . . . ?
C87 N19 Pd2 N20 87.2(7) . . . . ?
C91 N19 Pd2 N20 -102.1(7) . . . . ?
C92 N20 Pd2 N28 83.2(9) . . . . ?
C96 N20 Pd2 N28 -88.7(8) . . . . ?
C92 N20 Pd2 N3 2(15) . . . . ?
C96 N20 Pd2 N3 -170(61) . . . . ?
C92 N20 Pd2 N19 -94.2(8) . . . . ?
C96 N20 Pd2 N19 93.8(8) . . . . ?
C72 N16 Pd3 N16 -92.2(7) . . . 4_565 ?
C76 N16 Pd3 N16 93.4(7) . . . 4_565 ?
C72 N16 Pd3 N17 178(100) . . . 4_565 ?
C76 N16 Pd3 N17 4(8) . . . 4_565 ?
C72 N16 Pd3 N17 90.9(7) . . . . ?
C76 N16 Pd3 N17 -83.4(7) . . . . ?
C77 N17 Pd3 N16 -90.9(7) . . . . ?
C81 N17 Pd3 N16 82.7(7) . . . . ?
C77 N17 Pd3 N16 179(100) . . . 4_565 ?
C81 N17 Pd3 N16 -7(8) . . . 4_565 ?
C77 N17 Pd3 N17 92.3(7) . . . 4_565 ?
C81 N17 Pd3 N17 -94.2(7) . . . 4_565 ?
C17 N5 Pd4 N13 90.0(7) . . . . ?
C21 N5 Pd4 N13 -90.3(8) . . . . ?
C17 N5 Pd4 N14 -14(10) . . . . ?
C21 N5 Pd4 N14 165(10) . . . . ?
C17 N5 Pd4 N1 -87.2(7) . . . . ?
C21 N5 Pd4 N1 92.5(7) . . . . ?
C57 N13 Pd4 N5 -84.3(9) . . . . ?
C61 N13 Pd4 N5 88.5(8) . . . . ?
C57 N13 Pd4 N14 92.7(8) . . . . ?
C61 N13 Pd4 N14 -94.4(8) . . . . ?
C57 N13 Pd4 N1 -12(11) . . . . ?
C61 N13 Pd4 N1 161(10) . . . . ?
C62 N14 Pd4 N5 16(10) . . . . ?
C66 N14 Pd4 N5 -155(10) . . . . ?
C62 N14 Pd4 N13 -88.2(7) . . . . ?
C66 N14 Pd4 N13 100.9(7) . . . . ?
C62 N14 Pd4 N1 89.0(6) . . . . ?
C66 N14 Pd4 N1 -81.9(7) . . . . ?
C1 N1 Pd4 N5 91.1(8) . . . . ?
C5 N1 Pd4 N5 -87.5(8) . . . . ?
C1 N1 Pd4 N13 19(10) . . . . ?
C5 N1 Pd4 N13 -160(10) . . . . ?
C1 N1 Pd4 N14 -85.9(7) . . . . ?
C5 N1 Pd4 N14 95.4(8) . . . . ?
C32 N8 Pd5 N8 -91.7(9) . . . 4_565 ?
C36 N8 Pd5 N8 99.9(9) . . . 4_565 ?
C32 N8 Pd5 N7 87.6(10) . . . . ?
C36 N8 Pd5 N7 -80.9(10) . . . . ?
C32 N8 Pd5 N7 25(60) . . . 4_565 ?
C36 N8 Pd5 N7 -143(59) . . . 4_565 ?
C27 N7 Pd5 N8 -90.3(9) . . . . ?
C31 N7 Pd5 N8 90.5(10) . . . . ?
C27 N7 Pd5 N8 26(59) . . . 4_565 ?
C31 N7 Pd5 N8 -153(100) . . . 4_565 ?
C27 N7 Pd5 N7 89.0(9) . . . 4_565 ?
C31 N7 Pd5 N7 -90.3(10) . . . 4_565 ?
C107 N23 Pd6 N11 179(100) . . . . ?
C111 N23 Pd6 N11 -3(45) . . . . ?
C107 N23 Pd6 N10 -92.7(10) . . . . ?
C111 N23 Pd6 N10 85.0(11) . . . . ?
C107 N23 Pd6 N22 85.7(10) . . . . ?
C111 N23 Pd6 N22 -96.6(11) . . . . ?
C47 N11 Pd6 N23 175(100) . . . . ?
C51 N11 Pd6 N23 -5(45) . . . . ?
C47 N11 Pd6 N10 86.9(10) . . . . ?
C51 N11 Pd6 N10 -93.0(9) . . . . ?
C47 N11 Pd6 N22 -91.6(10) . . . . ?
C51 N11 Pd6 N22 88.5(9) . . . . ?
C42 N10 Pd6 N23 96.8(10) . . . . ?
C46 N10 Pd6 N23 -79.2(10) . . . . ?
C42 N10 Pd6 N11 -84.1(10) . . . . ?
C46 N10 Pd6 N11 100.0(10) . . . . ?
C42 N10 Pd6 N22 50(22) . . . . ?
C46 N10 Pd6 N22 -126(21) . . . . ?
C102 N22 Pd6 N23 -89.9(10) . . . . ?
C106 N22 Pd6 N23 93.2(9) . . . . ?
C102 N22 Pd6 N11 91.0(10) . . . . ?
C106 N22 Pd6 N11 -86.0(8) . . . . ?
C102 N22 Pd6 N10 -43(22) . . . . ?
C106 N22 Pd6 N10 140(21) . . . . ?
C253 N53 Pd7 N53 -93.7(9) . . . 4_565 ?
C257 N53 Pd7 N53 95.1(10) . . . 4_565 ?
C253 N53 Pd7 N54 85.3(10) . . . . ?
C257 N53 Pd7 N54 -85.9(10) . . . . ?
C253 N53 Pd7 N54 36(41) . . . 4_565 ?
C257 N53 Pd7 N54 -135(40) . . . 4_565 ?
C258 N54 Pd7 N53 39(40) . . . 4_565 ?
C262 N54 Pd7 N53 -137(40) . . . 4_565 ?
C258 N54 Pd7 N53 -90.5(9) . . . . ?
C262 N54 Pd7 N53 92.7(9) . . . . ?
C258 N54 Pd7 N54 88.6(9) . . . 4_565 ?
C262 N54 Pd7 N54 -88.3(9) . . . 4_565 ?
C238 N50 Pd8 N41 -90.1(9) . . . . ?
C242 N50 Pd8 N41 89.3(9) . . . . ?
C238 N50 Pd8 N33 116(51) . . . . ?
C242 N50 Pd8 N33 -65(52) . . . . ?
C238 N50 Pd8 N51 88.3(10) . . . . ?
C242 N50 Pd8 N51 -92.3(9) . . . . ?
C193 N41 Pd8 N50 91.2(10) . . . . ?
C197 N41 Pd8 N50 -86.1(9) . . . . ?
C193 N41 Pd8 N33 -89.2(10) . . . . ?
C197 N41 Pd8 N33 93.5(9) . . . . ?
C193 N41 Pd8 N51 -51(17) . . . . ?
C197 N41 Pd8 N51 132(17) . . . . ?
C153 N33 Pd8 N50 -119(51) . . . . ?
C157 N33 Pd8 N50 58(52) . . . . ?
C153 N33 Pd8 N41 86.6(10) . . . . ?
C157 N33 Pd8 N41 -96.3(10) . . . . ?
C153 N33 Pd8 N51 -91.7(10) . . . . ?
C157 N33 Pd8 N51 85.4(10) . . . . ?
C243 N51 Pd8 N50 -85.5(10) . . . . ?
C247 N51 Pd8 N50 96.6(10) . . . . ?
C243 N51 Pd8 N41 56(17) . . . . ?
C247 N51 Pd8 N41 -122(17) . . . . ?
C243 N51 Pd8 N33 94.9(10) . . . . ?
C247 N51 Pd8 N33 -82.9(10) . . . . ?
C163 N35 Pd9 N35 91.3(10) . . . 4_565 ?
C167 N35 Pd9 N35 -97.8(10) . . . 4_565 ?
C163 N35 Pd9 N36 -87.3(10) . . . . ?
C167 N35 Pd9 N36 83.6(10) . . . . ?
C163 N35 Pd9 N36 -45(25) . . . 4_565 ?
C167 N35 Pd9 N36 125(24) . . . 4_565 ?
C168 N36 Pd9 N35 88.9(10) . . . . ?
C172 N36 Pd9 N35 -91.6(10) . . . . ?
C168 N36 Pd9 N35 -48(24) . . . 4_565 ?
C172 N36 Pd9 N35 132(24) . . . 4_565 ?
C168 N36 Pd9 N36 -89.7(9) . . . 4_565 ?
C172 N36 Pd9 N36 89.8(9) . . . 4_565 ?
C178 N38 Pd10 N29 87.3(8) . . . . ?
C182 N38 Pd10 N29 -90.2(7) . . . . ?
C178 N38 Pd10 N42 -6(9) . . . . ?
C182 N38 Pd10 N42 176(100) . . . . ?
C178 N38 Pd10 N39 -91.1(8) . . . . ?
C182 N38 Pd10 N39 91.4(7) . . . . ?
C137 N29 Pd10 N38 -91.8(8) . . . . ?
C141 N29 Pd10 N38 88.0(8) . . . . ?
C137 N29 Pd10 N42 85.0(7) . . . . ?
C141 N29 Pd10 N42 -95.3(8) . . . . ?
C137 N29 Pd10 N39 -61(11) . . . . ?
C141 N29 Pd10 N39 119(11) . . . . ?
C198 N42 Pd10 N38 4(9) . . . . ?
C202 N42 Pd10 N38 174(73) . . . . ?
C198 N42 Pd10 N29 -89.7(6) . . . . ?
C202 N42 Pd10 N29 80.6(7) . . . . ?
C198 N42 Pd10 N39 88.5(6) . . . . ?
C202 N42 Pd10 N39 -101.1(7) . . . . ?
C183 N39 Pd10 N38 83.0(8) . . . . ?
C187 N39 Pd10 N38 -91.4(8) . . . . ?
C183 N39 Pd10 N29 52(11) . . . . ?
C187 N39 Pd10 N29 -122(11) . . . . ?
C183 N39 Pd10 N42 -93.8(8) . . . . ?
C187 N39 Pd10 N42 91.9(8) . . . . ?
C213 N45 Pd11 N45 -91.8(7) . . . 4_565 ?
C217 N45 Pd11 N45 94.5(7) . . . 4_565 ?
C213 N45 Pd11 N44 90.9(7) . . . . ?
C217 N45 Pd11 N44 -82.9(7) . . . . ?
C213 N45 Pd11 N44 165(10) . . . 4_565 ?
C217 N45 Pd11 N44 -9(10) . . . 4_565 ?
C212 N44 Pd11 N45 82.5(7) . . . . ?
C208 N44 Pd11 N45 -89.2(7) . . . . ?
C212 N44 Pd11 N45 -21(10) . . . 4_565 ?
C208 N44 Pd11 N45 167(10) . . . 4_565 ?
C212 N44 Pd11 N44 -94.9(7) . . . 4_565 ?
C208 N44 Pd11 N44 93.4(7) . . . 4_565 ?
C268 N56 Pd12 N31 -87.6(8) . . . . ?
C272 N56 Pd12 N31 88.4(7) . . . . ?
C268 N56 Pd12 N48 89.8(8) . . . . ?
C272 N56 Pd12 N48 -94.2(8) . . . . ?
C268 N56 Pd12 N47 18(7) . . . . ?
C272 N56 Pd12 N47 -166(7) . . . . ?
C145 N31 Pd12 N56 90.8(8) . . . . ?
C149 N31 Pd12 N56 -87.7(9) . . . . ?
C145 N31 Pd12 N48 30(10) . . . . ?
C149 N31 Pd12 N48 -149(10) . . . . ?
C145 N31 Pd12 N47 -85.4(7) . . . . ?
C149 N31 Pd12 N47 96.1(8) . . . . ?
C228 N48 Pd12 N56 -81.9(9) . . . . ?
C232 N48 Pd12 N56 89.9(8) . . . . ?
C228 N48 Pd12 N31 -21(10) . . . . ?
C232 N48 Pd12 N31 151(10) . . . . ?
C228 N48 Pd12 N47 94.4(8) . . . . ?
C232 N48 Pd12 N47 -93.9(8) . . . . ?
C223 N47 Pd12 N56 -17(7) . . . . ?
C227 N47 Pd12 N56 173(40) . . . . ?
C223 N47 Pd12 N31 88.7(6) . . . . ?
C227 N47 Pd12 N31 -81.2(6) . . . . ?
C223 N47 Pd12 N48 -88.6(7) . . . . ?
C227 N47 Pd12 N48 101.5(7) . . . . ?
C389 N81 Pd13 N81 94.6(8) . . . 4_575 ?
C393 N81 Pd13 N81 -96.9(9) . . . 4_575 ?
C389 N81 Pd13 N82 -86.1(10) . . . . ?
C393 N81 Pd13 N82 82.5(10) . . . . ?
C389 N81 Pd13 N82 -179(100) . . . 4_575 ?
C393 N81 Pd13 N82 -11(53) . . . 4_575 ?
C394 N82 Pd13 N81 176(100) . . . 4_575 ?
C398 N82 Pd13 N81 -5(53) . . . 4_575 ?
C394 N82 Pd13 N81 90.8(9) . . . . ?
C398 N82 Pd13 N81 -91.0(10) . . . . ?
C394 N82 Pd13 N82 -89.8(9) . . . 4_575 ?
C398 N82 Pd13 N82 88.3(9) . . . 4_575 ?
C404 N84 Pd14 N76 -88.0(8) . . . . ?
C408 N84 Pd14 N76 93.5(7) . . . . ?
C404 N84 Pd14 N75 -5(6) . . . . ?
C408 N84 Pd14 N75 176(73) . . . . ?
C404 N84 Pd14 N59 90.2(8) . . . . ?
C408 N84 Pd14 N59 -88.3(7) . . . . ?
C364 N76 Pd14 N84 83.4(8) . . . . ?
C368 N76 Pd14 N84 -91.8(8) . . . . ?
C364 N76 Pd14 N75 -92.0(8) . . . . ?
C368 N76 Pd14 N75 92.8(8) . . . . ?
C364 N76 Pd14 N59 37(14) . . . . ?
C368 N76 Pd14 N59 -138(14) . . . . ?
C359 N75 Pd14 N84 8(6) . . . . ?
C363 N75 Pd14 N84 178(100) . . . . ?
C359 N75 Pd14 N76 90.5(7) . . . . ?
C363 N75 Pd14 N76 -99.4(7) . . . . ?
C359 N75 Pd14 N59 -87.6(6) . . . . ?
C363 N75 Pd14 N59 82.5(7) . . . . ?
C281 N59 Pd14 N84 -89.6(8) . . . . ?
C285 N59 Pd14 N84 88.2(8) . . . . ?
C281 N59 Pd14 N76 -44(14) . . . . ?
C285 N59 Pd14 N76 134(14) . . . . ?
C281 N59 Pd14 N75 85.8(7) . . . . ?
C285 N59 Pd14 N75 -96.5(8) . . . . ?
C349 N73 Pd15 N73 92.9(7) . . . 4_575 ?
C353 N73 Pd15 N73 -94.2(7) . . . 4_575 ?
C349 N73 Pd15 N72 -90.0(7) . . . . ?
C353 N73 Pd15 N72 82.9(7) . . . . ?
C349 N73 Pd15 N72 177(100) . . . 4_575 ?
C353 N73 Pd15 N72 -10(8) . . . 4_575 ?
C344 N72 Pd15 N73 176(100) . . . 4_575 ?
C348 N72 Pd15 N73 1(8) . . . 4_575 ?
C344 N72 Pd15 N73 91.0(7) . . . . ?
C348 N72 Pd15 N73 -83.3(7) . . . . ?
C344 N72 Pd15 N72 -91.9(7) . . . 4_575 ?
C348 N72 Pd15 N72 93.8(7) . . . 4_575 ?
C289 N61 Pd16 N57 -85.8(8) . . . . ?
C293 N61 Pd16 N57 90.9(7) . . . . ?
C289 N61 Pd16 N69 91.8(8) . . . . ?
C293 N61 Pd16 N69 -91.5(7) . . . . ?
C289 N61 Pd16 N70 16(7) . . . . ?
C293 N61 Pd16 N70 -167(7) . . . . ?
C273 N57 Pd16 N61 91.6(8) . . . . ?
C277 N57 Pd16 N61 -89.2(8) . . . . ?
C273 N57 Pd16 N69 45(9) . . . . ?
C277 N57 Pd16 N69 -136(9) . . . . ?
C273 N57 Pd16 N70 -84.5(7) . . . . ?
C277 N57 Pd16 N70 94.6(8) . . . . ?
C329 N69 Pd16 N61 -82.0(8) . . . . ?
C333 N69 Pd16 N61 90.3(8) . . . . ?
C329 N69 Pd16 N57 -35(9) . . . . ?
C333 N69 Pd16 N57 137(9) . . . . ?
C329 N69 Pd16 N70 94.2(8) . . . . ?
C333 N69 Pd16 N70 -93.6(8) . . . . ?
C334 N70 Pd16 N61 -13(7) . . . . ?
C338 N70 Pd16 N61 178(100) . . . . ?
C334 N70 Pd16 N57 88.9(7) . . . . ?
C338 N70 Pd16 N57 -80.1(6) . . . . ?
C334 N70 Pd16 N69 -88.5(7) . . . . ?
C338 N70 Pd16 N69 102.5(7) . . . . ?
C304 N64 Pd17 N64 -91.2(9) . . . 4_575 ?
C308 N64 Pd17 N64 98.3(10) . . . 4_575 ?
C304 N64 Pd17 N63 86.7(10) . . . . ?
C308 N64 Pd17 N63 -83.9(10) . . . . ?
C304 N64 Pd17 N63 27(19) . . . 4_575 ?
C308 N64 Pd17 N63 -144(18) . . . 4_575 ?
C299 N63 Pd17 N64 29(19) . . . 4_575 ?
C303 N63 Pd17 N64 -150(18) . . . 4_575 ?
C299 N63 Pd17 N64 -89.3(10) . . . . ?
C303 N63 Pd17 N64 92.3(10) . . . . ?
C299 N63 Pd17 N63 88.6(9) . . . 4_575 ?
C303 N63 Pd17 N63 -89.8(9) . . . 4_575 ?
C314 N66 Pd18 N78 64(43) . . . . ?
C318 N66 Pd18 N78 -111(43) . . . . ?
C314 N66 Pd18 N67 -87.7(10) . . . . ?
C318 N66 Pd18 N67 98.2(10) . . . . ?
C314 N66 Pd18 N79 91.9(10) . . . . ?
C318 N66 Pd18 N79 -82.2(10) . . . . ?
C374 N78 Pd18 N66 -61(43) . . . . ?
C378 N78 Pd18 N66 123(43) . . . . ?
C374 N78 Pd18 N67 89.8(9) . . . . ?
C378 N78 Pd18 N67 -85.6(8) . . . . ?
C374 N78 Pd18 N79 -89.8(10) . . . . ?
C378 N78 Pd18 N79 94.8(9) . . . . ?
C319 N67 Pd18 N66 89.8(10) . . . . ?
C323 N67 Pd18 N66 -93.9(9) . . . . ?
C319 N67 Pd18 N78 -89.6(10) . . . . ?
C323 N67 Pd18 N78 86.7(8) . . . . ?
C319 N67 Pd18 N79 65(52) . . . . ?
C323 N67 Pd18 N79 -118(52) . . . . ?
C379 N79 Pd18 N66 -91.9(10) . . . . ?
C383 N79 Pd18 N66 83.0(11) . . . . ?
C379 N79 Pd18 N78 87.5(10) . . . . ?
C383 N79 Pd18 N78 -97.6(10) . . . . ?
C379 N79 Pd18 N67 -67(52) . . . . ?
C383 N79 Pd18 N67 108(52) . . . . ?
F4F B4 F4A F4B -37.1(9) . . . . ?
F4H B4 F4A F4B -153(4) . . . . ?
F4C B4 F4A F4B 113(4) . . . . ?
F4D B4 F4A F4B -93(3) . . . . ?
F4G B4 F4A F4B 54(2) . . . . ?
F4F B4 F4B F4A 91.7(17) . . . . ?
F4H B4 F4B F4A 132(6) . . . . ?
F4C B4 F4B F4A -111(3) . . . . ?
F4D B4 F4B F4A 122(3) . . . . ?
F4G B4 F4B F4A -125(2) . . . . ?
F8B B8 F8A F8H 163(4) . . . . ?
F8F B8 F8A F8H 105(3) . . . . ?
F8G B8 F8A F8H -108(3) . . . . ?
F8C B8 F8A F8H -53.0(16) . . . . ?
F8D B8 F8A F8H 45.5(15) . . . . ?
F8B B8 F8H F8A -139(8) . . . . ?
F8F B8 F8H F8A -118(3) . . . . ?
F8G B8 F8H F8A 112(3) . . . . ?
F8C B8 F8H F8A 112(2) . . . . ?
F8D B8 F8H F8A -102.9(19) . . . . ?
F20G B20 F20A F20D -157(4) . . . . ?
F20B B20 F20A F20D 122(4) . . . . ?
F20C B20 F20A F20D -101(3) . . . . ?
F20H B20 F20A F20D -40.2(12) . . . . ?
F20F B20 F20A F20D 53.8(17) . . . . ?
F20G B20 F20D F20A 138(7) . . . . ?
F20B B20 F20D F20A -102(3) . . . . ?
F20C B20 F20D F20A 125(3) . . . . ?
F20H B20 F20D F20A 99.5(19) . . . . ?
F20F B20 F20D F20A -116(2) . . . . ?
F24D B24 F24A F24G 157(4) . . . . ?
F24H B24 F24A F24G -120(3) . . . . ?
F24F B24 F24A F24G 102(3) . . . . ?
F24B B24 F24A F24G 42.0(12) . . . . ?
F24C B24 F24A F24G -51.9(17) . . . . ?
F24D B24 F24G F24A -142(6) . . . . ?
F24H B24 F24G F24A 104(3) . . . . ?
F24F B24 F24G F24A -122(3) . . . . ?
F24B B24 F24G F24A -100.6(18) . . . . ?
F24C B24 F24G F24A 122(2) . . . . ?
F28C B28 F28A F28H -160(4) . . . . ?
F28G B28 F28A F28H -103(3) . . . . ?
F28F B28 F28A F28H 116(3) . . . . ?
F28B B28 F28A F28H 56.9(18) . . . . ?
F28D B28 F28A F28H -40.7(11) . . . . ?
F28C B28 F28H F28A 136(7) . . . . ?
F28G B28 F28H F28A 127(3) . . . . ?
F28F B28 F28H F28A -102(3) . . . . ?
F28B B28 F28H F28A -115(2) . . . . ?
F28D B28 F28H F28A 98.8(17) . . . . ?
F32G B32 F32A F32D 146(4) . . . . ?
F32C B32 F32A F32D 103(3) . . . . ?
F32B B32 F32A F32D -111(3) . . . . ?
F32F B32 F32A F32D -56(2) . . . . ?
F32H B32 F32A F32D 38.9(12) . . . . ?
F32G B32 F32D F32A -137(5) . . . . ?
F32C B32 F32D F32A -125(3) . . . . ?
F32B B32 F32D F32A 108(3) . . . . ?
F32F B32 F32D F32A 119(2) . . . . ?
F32H B32 F32D F32A -97.3(19) . . . . ?

_diffrn_measured_fraction_theta_max 0.966
_diffrn_reflns_theta_full        15.56
_diffrn_measured_fraction_theta_full 0.966
_refine_diff_density_max         0.764
_refine_diff_density_min         -0.355
_refine_diff_density_rms         0.064

loop_
_platon_squeeze_void_nr
_platon_squeeze_void_average_x
_platon_squeeze_void_average_y
_platon_squeeze_void_average_z
_platon_squeeze_void_volume
_platon_squeeze_void_count_electrons
_platon_squeeze_void_content
1 -0.003 -0.001 -0.003 69786 16794 ' '
_platon_squeeze_details          ?

