# generated using pymatgen
data_B48H528Pd24C672N240O100.6F191.84
_symmetry_space_group_name_H-M   'P 1'
_cell_length_a   37.97600000
_cell_length_b   37.97800000
_cell_length_c   37.98200000
_cell_angle_alpha   78.98000000
_cell_angle_beta   78.97000000
_cell_angle_gamma   78.97000000
_symmetry_Int_Tables_number   1
_chemical_formula_structural   B48H528Pd24C672N240O100.6F191.84
_chemical_formula_sum   'B48 H528 Pd24 C672 N240 O100.6 F191.84'
_cell_volume   52090.97247534
_cell_formula_units_Z   1
loop_
 _symmetry_equiv_pos_site_id
 _symmetry_equiv_pos_as_xyz
  1  'x, y, z'
loop_
 _atom_site_type_symbol
 _atom_site_label
 _atom_site_symmetry_multiplicity
 _atom_site_fract_x
 _atom_site_fract_y
 _atom_site_fract_z
 _atom_site_occupancy
  B  B1  1  0.101400  0.982900  0.685800  1.0
  B  B2  1  0.898600  0.017100  0.314200  1.0
  B  B3  1  0.215300  0.971100  0.870000  1.0
  B  B4  1  0.784700  0.028900  0.130000  1.0
  B  B5  1  0.117900  0.796800  0.584700  1.0
  B  B6  1  0.882100  0.203200  0.415300  1.0
  B  B7  1  0.254000  0.585600  0.644400  1.0
  B  B8  1  0.746000  0.414400  0.355600  1.0
  B  B9  1  0.917200  0.880200  0.702700  1.0
  B  B10  1  0.082800  0.119800  0.297300  1.0
  B  B11  1  0.854700  0.748400  0.914600  1.0
  B  B12  1  0.145300  0.251600  0.085400  1.0
  B  B13  1  0.796600  0.083200  0.619800  1.0
  B  B14  1  0.203400  0.916800  0.380200  1.0
  B  B15  1  0.584900  0.149000  0.748000  1.0
  B  B16  1  0.415100  0.851000  0.252000  1.0
  B  B17  1  0.817600  0.874000  0.500900  1.0
  B  B18  1  0.182400  0.126000  0.499100  1.0
  B  B19  1  0.622700  0.793000  0.526500  1.0
  B  B20  1  0.377300  0.207000  0.473500  1.0
  B  B21  1  0.044500  0.803800  0.389800  1.0
  B  B22  1  0.955500  0.196200  0.610200  1.0
  B  B23  1  0.031300  0.623300  0.292200  1.0
  B  B24  1  0.968700  0.376700  0.707800  1.0
  B  B25  1  0.290600  0.429300  0.974700  1.0
  B  B26  1  0.709400  0.570700  0.025300  1.0
  B  B27  1  0.093500  0.346200  0.005500  1.0
  B  B28  1  0.906500  0.653800  0.994500  1.0
  B  B29  1  0.274400  0.612300  0.079500  1.0
  B  B30  1  0.725600  0.387700  0.920500  1.0
  B  B31  1  0.089000  0.767300  0.147500  1.0
  B  B32  1  0.911000  0.232700  0.852500  1.0
  B  B33  1  0.371000  0.430400  0.200800  1.0
  B  B34  1  0.629000  0.569600  0.799200  1.0
  B  B35  1  0.234400  0.351900  0.411100  1.0
  B  B36  1  0.765600  0.648100  0.588900  1.0
  B  B37  1  0.570800  0.298600  0.128100  1.0
  B  B38  1  0.429200  0.701400  0.871900  1.0
  B  B39  1  0.646900  0.089200  0.267000  1.0
  B  B40  1  0.353100  0.910800  0.733000  1.0
  B  B41  1  0.561900  0.522800  0.213800  1.0
  B  B42  1  0.438100  0.477200  0.786200  1.0
  B  B43  1  0.653300  0.493000  0.406800  1.0
  B  B44  1  0.346700  0.507000  0.593200  1.0
  B  B45  1  0.497800  0.697700  0.073700  1.0
  B  B46  1  0.502200  0.302300  0.926300  1.0
  B  B47  1  0.476000  0.910900  0.132800  1.0
  B  B48  1  0.524000  0.089100  0.867200  1.0
  H  H49  1  0.745800  0.062600  0.702900  1.0
  H  H50  1  0.254200  0.937400  0.297100  1.0
  H  H51  1  0.758600  0.018400  0.750100  1.0
  H  H52  1  0.241400  0.981600  0.249900  1.0
  H  H53  1  0.661800  0.056600  0.805600  1.0
  H  H54  1  0.338200  0.943400  0.194400  1.0
  H  H55  1  0.654700  0.102500  0.759500  1.0
  H  H56  1  0.345300  0.897500  0.240500  1.0
  H  H57  1  0.848900  0.889900  0.773300  1.0
  H  H58  1  0.151100  0.110100  0.226700  1.0
  H  H59  1  0.801300  0.938100  0.778800  1.0
  H  H60  1  0.198700  0.061900  0.221200  1.0
  H  H61  1  0.765800  0.883400  0.876900  1.0
  H  H62  1  0.234200  0.116600  0.123100  1.0
  H  H63  1  0.810400  0.835900  0.865300  1.0
  H  H64  1  0.189600  0.164100  0.134700  1.0
  H  H65  1  0.724400  0.913500  0.549800  1.0
  H  H66  1  0.275600  0.086500  0.450200  1.0
  H  H67  1  0.690200  0.960500  0.576900  1.0
  H  H68  1  0.309800  0.039500  0.423100  1.0
  H  H69  1  0.602500  0.924000  0.569200  1.0
  H  H70  1  0.397500  0.076000  0.430800  1.0
  H  H71  1  0.637900  0.878200  0.541200  1.0
  H  H72  1  0.362100  0.121800  0.458800  1.0
  H  H73  1  0.712000  0.067700  0.639000  1.0
  H  H74  1  0.288000  0.932300  0.361000  1.0
  H  H75  1  0.681800  0.031000  0.615400  1.0
  H  H76  1  0.318200  0.969000  0.384600  1.0
  H  H77  1  0.588600  0.078300  0.656800  1.0
  H  H78  1  0.411400  0.921700  0.343200  1.0
  H  H79  1  0.618000  0.116000  0.680100  1.0
  H  H80  1  0.382000  0.884000  0.319900  1.0
  H  H81  1  0.766500  0.840200  0.574900  1.0
  H  H82  1  0.233500  0.159800  0.425100  1.0
  H  H83  1  0.776300  0.812000  0.634600  1.0
  H  H84  1  0.223700  0.188000  0.365400  1.0
  H  H85  1  0.681300  0.776200  0.647200  1.0
  H  H86  1  0.318700  0.223800  0.352800  1.0
  H  H87  1  0.677900  0.799900  0.586800  1.0
  H  H88  1  0.322100  0.200100  0.413200  1.0
  H  H89  1  0.668600  0.715000  0.745800  1.0
  H  H90  1  0.331400  0.285000  0.254200  1.0
  H  H91  1  0.672800  0.729400  0.780500  1.0
  H  H92  1  0.327200  0.270600  0.219500  1.0
  H  H93  1  0.697800  0.694000  0.769600  1.0
  H  H94  1  0.302200  0.306000  0.230400  1.0
  H  H95  1  0.854200  0.822500  0.734200  1.0
  H  H96  1  0.145800  0.177500  0.265800  1.0
  H  H97  1  0.814400  0.805700  0.707100  1.0
  H  H98  1  0.185600  0.194300  0.292900  1.0
  H  H99  1  0.774500  0.750700  0.801000  1.0
  H  H100  1  0.225500  0.249300  0.199000  1.0
  H  H101  1  0.814600  0.770000  0.829100  1.0
  H  H102  1  0.185400  0.230000  0.170900  1.0
  H  H103  1  0.937900  0.797200  0.752600  1.0
  H  H104  1  0.062100  0.202800  0.247400  1.0
  H  H105  1  0.983100  0.749300  0.741700  1.0
  H  H106  1  0.016900  0.250700  0.258300  1.0
  H  H107  1  0.944900  0.695000  0.837200  1.0
  H  H108  1  0.055100  0.305000  0.162800  1.0
  H  H109  1  0.897000  0.740400  0.845000  1.0
  H  H110  1  0.103000  0.259600  0.155000  1.0
  H  H111  1  0.109100  0.726400  0.651000  1.0
  H  H112  1  0.890900  0.273600  0.349000  1.0
  H  H113  1  0.061700  0.720200  0.698000  1.0
  H  H114  1  0.938300  0.279800  0.302000  1.0
  H  H115  1  0.118200  0.625500  0.736200  1.0
  H  H116  1  0.881800  0.374500  0.263800  1.0
  H  H117  1  0.165600  0.635400  0.690700  1.0
  H  H118  1  0.834400  0.364600  0.309300  1.0
  H  H119  1  0.087200  0.949700  0.775600  1.0
  H  H120  1  0.912800  0.050300  0.224400  1.0
  H  H121  1  0.039900  0.924200  0.809200  1.0
  H  H122  1  0.960100  0.075800  0.190800  1.0
  H  H123  1  0.074700  0.932300  0.898400  1.0
  H  H124  1  0.925300  0.067700  0.101600  1.0
  H  H125  1  0.123100  0.957600  0.862700  1.0
  H  H126  1  0.876900  0.042400  0.137300  1.0
  H  H127  1  0.932200  0.859900  0.788600  1.0
  H  H128  1  0.067800  0.140100  0.211400  1.0
  H  H129  1  0.967800  0.884700  0.816300  1.0
  H  H130  1  0.032200  0.115300  0.183700  1.0
  H  H131  1  0.920400  0.842000  0.911300  1.0
  H  H132  1  0.079600  0.158000  0.088700  1.0
  H  H133  1  0.882600  0.820600  0.883200  1.0
  H  H134  1  0.117400  0.179400  0.116800  1.0
  H  H135  1  0.179200  0.765900  0.643900  1.0
  H  H136  1  0.820800  0.234100  0.356100  1.0
  H  H137  1  0.195200  0.793700  0.684700  1.0
  H  H138  1  0.804800  0.206300  0.315300  1.0
  H  H139  1  0.249200  0.699300  0.726100  1.0
  H  H140  1  0.750800  0.300700  0.273900  1.0
  H  H141  1  0.231300  0.671500  0.684900  1.0
  H  H142  1  0.768700  0.328500  0.315100  1.0
  H  H143  1  0.288300  0.714700  0.808800  1.0
  H  H144  1  0.711700  0.285300  0.191200  1.0
  H  H145  1  0.266600  0.737500  0.838600  1.0
  H  H146  1  0.733400  0.262500  0.161400  1.0
  H  H147  1  0.302400  0.748900  0.815000  1.0
  H  H148  1  0.697600  0.251100  0.185000  1.0
  H  H149  1  0.158100  0.923700  0.735300  1.0
  H  H150  1  0.841900  0.076300  0.264700  1.0
  H  H151  1  0.190800  0.866300  0.722900  1.0
  H  H152  1  0.809200  0.133700  0.277100  1.0
  H  H153  1  0.224700  0.854000  0.818000  1.0
  H  H154  1  0.775300  0.146000  0.182000  1.0
  H  H155  1  0.199700  0.913400  0.822500  1.0
  H  H156  1  0.800300  0.086600  0.177500  1.0
  H  H157  1  0.138700  0.711300  0.567700  1.0
  H  H158  1  0.861300  0.288700  0.432300  1.0
  H  H159  1  0.119100  0.684200  0.529200  1.0
  H  H160  1  0.880900  0.315800  0.470800  1.0
  H  H161  1  0.158300  0.588700  0.578100  1.0
  H  H162  1  0.841700  0.411300  0.421900  1.0
  H  H163  1  0.180500  0.616500  0.616300  1.0
  H  H164  1  0.819500  0.383500  0.383700  1.0
  H  H165  1  0.051500  0.725200  0.412300  1.0
  H  H166  1  0.948500  0.274800  0.587700  1.0
  H  H167  1  0.077800  0.690100  0.459900  1.0
  H  H168  1  0.922200  0.309900  0.540100  1.0
  H  H169  1  0.066000  0.602600  0.425600  1.0
  H  H170  1  0.934000  0.397400  0.574400  1.0
  H  H171  1  0.043000  0.636600  0.377200  1.0
  H  H172  1  0.957000  0.363400  0.622800  1.0
  H  H173  1  0.273200  0.847500  0.392300  1.0
  H  H174  1  0.726800  0.152500  0.607700  1.0
  H  H175  1  0.280700  0.801700  0.438500  1.0
  H  H176  1  0.719300  0.198300  0.561500  1.0
  H  H177  1  0.373800  0.764100  0.383200  1.0
  H  H178  1  0.626200  0.235900  0.616800  1.0
  H  H179  1  0.365500  0.810100  0.337000  1.0
  H  H180  1  0.634500  0.189900  0.663000  1.0
  H  H181  1  0.203000  0.747600  0.563600  1.0
  H  H182  1  0.797000  0.252400  0.436400  1.0
  H  H183  1  0.249400  0.757700  0.517900  1.0
  H  H184  1  0.750600  0.242300  0.482100  1.0
  H  H185  1  0.307200  0.664700  0.556500  1.0
  H  H186  1  0.692800  0.335300  0.443500  1.0
  H  H187  1  0.259600  0.653400  0.601300  1.0
  H  H188  1  0.740400  0.346600  0.398700  1.0
  H  H189  1  0.074800  0.768400  0.337300  1.0
  H  H190  1  0.925200  0.231600  0.662700  1.0
  H  H191  1  0.134900  0.775900  0.312200  1.0
  H  H192  1  0.865100  0.224100  0.687800  1.0
  H  H193  1  0.146800  0.682200  0.275500  1.0
  H  H194  1  0.853200  0.317800  0.724500  1.0
  H  H195  1  0.087100  0.678400  0.299400  1.0
  H  H196  1  0.912900  0.321600  0.700600  1.0
  H  H197  1  0.284400  0.690800  0.210600  1.0
  H  H198  1  0.715600  0.309200  0.789400  1.0
  H  H199  1  0.249500  0.684500  0.197900  1.0
  H  H200  1  0.750500  0.315500  0.802100  1.0
  H  H201  1  0.261800  0.661200  0.233400  1.0
  H  H202  1  0.738200  0.338800  0.766600  1.0
  H  H203  1  0.234000  0.857200  0.319800  1.0
  H  H204  1  0.766000  0.142800  0.680200  1.0
  H  H205  1  0.206300  0.814700  0.304600  1.0
  H  H206  1  0.793700  0.185300  0.695400  1.0
  H  H207  1  0.300400  0.774800  0.250200  1.0
  H  H208  1  0.699600  0.225200  0.749800  1.0
  H  H209  1  0.329200  0.815300  0.268500  1.0
  H  H210  1  0.670800  0.184700  0.731500  1.0
  H  H211  1  0.964200  0.750900  0.397100  1.0
  H  H212  1  0.035800  0.249100  0.602900  1.0
  H  H213  1  0.906300  0.745000  0.424000  1.0
  H  H214  1  0.093700  0.255000  0.576000  1.0
  H  H215  1  0.912900  0.657800  0.380000  1.0
  H  H216  1  0.087100  0.342200  0.620000  1.0
  H  H217  1  0.973400  0.665100  0.352900  1.0
  H  H218  1  0.026600  0.334900  0.647100  1.0
  H  H219  1  0.786500  0.624600  0.454800  1.0
  H  H220  1  0.213500  0.375400  0.545200  1.0
  H  H221  1  0.826900  0.606300  0.456600  1.0
  H  H222  1  0.173100  0.393700  0.543400  1.0
  H  H223  1  0.813300  0.617900  0.419000  1.0
  H  H224  1  0.186700  0.382100  0.581000  1.0
  H  H225  1  0.791900  0.825100  0.494400  1.0
  H  H226  1  0.208100  0.174900  0.505600  1.0
  H  H227  1  0.830300  0.777800  0.469100  1.0
  H  H228  1  0.169700  0.222200  0.530900  1.0
  H  H229  1  0.745000  0.725700  0.484700  1.0
  H  H230  1  0.255000  0.274300  0.515300  1.0
  H  H231  1  0.710000  0.774200  0.509800  1.0
  H  H232  1  0.290000  0.225800  0.490200  1.0
  H  H233  1  0.822800  0.997500  0.292600  1.0
  H  H234  1  0.177200  0.002500  0.707400  1.0
  H  H235  1  0.779400  0.965800  0.328800  1.0
  H  H236  1  0.220600  0.034200  0.671200  1.0
  H  H237  1  0.724900  0.986900  0.246100  1.0
  H  H238  1  0.275100  0.013100  0.753900  1.0
  H  H239  1  0.773400  0.011900  0.210800  1.0
  H  H240  1  0.226600  0.988100  0.789200  1.0
  H  H241  1  0.611800  0.924500  0.327000  1.0
  H  H242  1  0.388200  0.075500  0.673000  1.0
  H  H243  1  0.633200  0.926000  0.287300  1.0
  H  H244  1  0.366800  0.074000  0.712700  1.0
  H  H245  1  0.614500  0.962100  0.301900  1.0
  H  H246  1  0.385500  0.037900  0.698100  1.0
  H  H247  1  0.750200  0.898400  0.464200  1.0
  H  H248  1  0.249800  0.101600  0.535800  1.0
  H  H249  1  0.744300  0.924900  0.407000  1.0
  H  H250  1  0.255700  0.075100  0.593000  1.0
  H  H251  1  0.659300  0.877400  0.414900  1.0
  H  H252  1  0.340700  0.122600  0.585100  1.0
  H  H253  1  0.664700  0.853300  0.473100  1.0
  H  H254  1  0.335300  0.146700  0.526900  1.0
  H  H255  1  0.994600  0.792500  0.324900  1.0
  H  H256  1  0.005400  0.207500  0.675100  1.0
  H  H257  1  0.967300  0.829200  0.279000  1.0
  H  H258  1  0.032700  0.170800  0.721000  1.0
  H  H259  1  0.984100  0.744600  0.226200  1.0
  H  H260  1  0.015900  0.255400  0.773800  1.0
  H  H261  1  0.010100  0.710600  0.274300  1.0
  H  H262  1  0.989900  0.289400  0.725700  1.0
  H  H263  1  0.954800  0.783700  0.127400  1.0
  H  H264  1  0.045200  0.216300  0.872600  1.0
  H  H265  1  0.952600  0.823500  0.106200  1.0
  H  H266  1  0.047400  0.176500  0.893800  1.0
  H  H267  1  0.916800  0.807300  0.122500  1.0
  H  H268  1  0.083200  0.192700  0.877500  1.0
  H  H269  1  0.895400  0.964800  0.251300  1.0
  H  H270  1  0.104600  0.035200  0.748700  1.0
  H  H271  1  0.924500  0.906000  0.244000  1.0
  H  H272  1  0.075500  0.094000  0.756000  1.0
  H  H273  1  0.880400  0.914200  0.157900  1.0
  H  H274  1  0.119600  0.085800  0.842100  1.0
  H  H275  1  0.850000  0.973100  0.166400  1.0
  H  H276  1  0.150000  0.026900  0.833600  1.0
  H  H277  1  0.268100  0.705400  0.108000  1.0
  H  H278  1  0.731900  0.294600  0.892000  1.0
  H  H279  1  0.298300  0.745600  0.121900  1.0
  H  H280  1  0.701700  0.254400  0.878100  1.0
  H  H281  1  0.204900  0.792100  0.172600  1.0
  H  H282  1  0.795100  0.207900  0.827400  1.0
  H  H283  1  0.175300  0.753800  0.153400  1.0
  H  H284  1  0.824700  0.246200  0.846600  1.0
  H  H285  1  0.226600  0.877500  0.207100  1.0
  H  H286  1  0.773400  0.122500  0.792900  1.0
  H  H287  1  0.255900  0.901200  0.185900  1.0
  H  H288  1  0.744100  0.098800  0.814100  1.0
  H  H289  1  0.259600  0.880100  0.225100  1.0
  H  H290  1  0.740400  0.119900  0.774900  1.0
  H  H291  1  0.434500  0.764200  0.111800  1.0
  H  H292  1  0.565500  0.235800  0.888200  1.0
  H  H293  1  0.373300  0.770200  0.126800  1.0
  H  H294  1  0.626700  0.229800  0.873200  1.0
  H  H295  1  0.373900  0.854500  0.171600  1.0
  H  H296  1  0.626100  0.145500  0.828400  1.0
  H  H297  1  0.435700  0.847800  0.156100  1.0
  H  H298  1  0.564300  0.152200  0.843900  1.0
  H  H299  1  0.296800  0.462400  0.257500  1.0
  H  H300  1  0.703200  0.537600  0.742500  1.0
  H  H301  1  0.258700  0.514900  0.250600  1.0
  H  H302  1  0.741300  0.485100  0.749400  1.0
  H  H303  1  0.199800  0.485100  0.345100  1.0
  H  H304  1  0.800200  0.514900  0.654900  1.0
  H  H305  1  0.240300  0.430500  0.351900  1.0
  H  H306  1  0.759700  0.569500  0.648100  1.0
  H  H307  1  0.107300  0.611900  0.339100  1.0
  H  H308  1  0.892700  0.388100  0.660900  1.0
  H  H309  1  0.132100  0.589200  0.366900  1.0
  H  H310  1  0.867900  0.410800  0.633100  1.0
  H  H311  1  0.106100  0.570300  0.352000  1.0
  H  H312  1  0.893900  0.429700  0.648000  1.0
  H  H313  1  0.236700  0.633500  0.147500  1.0
  H  H314  1  0.763300  0.366500  0.852500  1.0
  H  H315  1  0.232200  0.593900  0.200700  1.0
  H  H316  1  0.767800  0.406100  0.799300  1.0
  H  H317  1  0.133100  0.647400  0.229900  1.0
  H  H318  1  0.866900  0.352600  0.770100  1.0
  H  H319  1  0.138700  0.685300  0.175700  1.0
  H  H320  1  0.861300  0.314700  0.824300  1.0
  H  H321  1  0.207800  0.629200  0.074300  1.0
  H  H322  1  0.792200  0.370800  0.925700  1.0
  H  H323  1  0.178800  0.591400  0.052800  1.0
  H  H324  1  0.821200  0.408600  0.947200  1.0
  H  H325  1  0.086600  0.652000  0.084500  1.0
  H  H326  1  0.913400  0.348000  0.915500  1.0
  H  H327  1  0.116400  0.689300  0.102300  1.0
  H  H328  1  0.883600  0.310700  0.897700  1.0
  H  H329  1  0.007500  0.566900  0.044100  1.0
  H  H330  1  0.992500  0.433100  0.955900  1.0
  H  H331  1  0.010700  0.608300  0.035000  1.0
  H  H332  1  0.989300  0.391700  0.965000  1.0
  H  H333  1  0.005300  0.589000  0.075500  1.0
  H  H334  1  0.994700  0.411000  0.924500  1.0
  H  H335  1  0.211200  0.458800  0.016900  1.0
  H  H336  1  0.788800  0.541200  0.983100  1.0
  H  H337  1  0.180200  0.513800  0.028700  1.0
  H  H338  1  0.819800  0.486200  0.971300  1.0
  H  H339  1  0.088100  0.480400  0.029100  1.0
  H  H340  1  0.911900  0.519600  0.970900  1.0
  H  H341  1  0.120500  0.425300  0.016300  1.0
  H  H342  1  0.879500  0.574700  0.983700  1.0
  H  H343  1  0.235500  0.388200  0.064600  1.0
  H  H344  1  0.764500  0.611800  0.935400  1.0
  H  H345  1  0.230000  0.373400  0.125600  1.0
  H  H346  1  0.770000  0.626600  0.874400  1.0
  H  H347  1  0.144600  0.328300  0.126500  1.0
  H  H348  1  0.855400  0.671700  0.873500  1.0
  H  H349  1  0.153500  0.343500  0.063100  1.0
  H  H350  1  0.846500  0.656500  0.936900  1.0
  H  H351  1  0.108400  0.289700  0.231600  1.0
  H  H352  1  0.891600  0.710300  0.768400  1.0
  H  H353  1  0.107400  0.310100  0.263900  1.0
  H  H354  1  0.892600  0.689900  0.736100  1.0
  H  H355  1  0.131900  0.272100  0.262100  1.0
  H  H356  1  0.868100  0.727900  0.737900  1.0
  H  H357  1  0.293900  0.393300  0.232300  1.0
  H  H358  1  0.706100  0.606700  0.767700  1.0
  H  H359  1  0.255900  0.376400  0.201500  1.0
  H  H360  1  0.744100  0.623600  0.798500  1.0
  H  H361  1  0.207700  0.326700  0.295300  1.0
  H  H362  1  0.792300  0.673300  0.704700  1.0
  H  H363  1  0.246800  0.346800  0.324500  1.0
  H  H364  1  0.753200  0.653200  0.675500  1.0
  H  H365  1  0.369300  0.427700  0.291800  1.0
  H  H366  1  0.630700  0.572300  0.708200  1.0
  H  H367  1  0.410000  0.444900  0.320300  1.0
  H  H368  1  0.590000  0.555100  0.679700  1.0
  H  H369  1  0.346000  0.417300  0.414300  1.0
  H  H370  1  0.654000  0.582700  0.585700  1.0
  H  H371  1  0.310000  0.397300  0.383900  1.0
  H  H372  1  0.690000  0.602700  0.616100  1.0
  H  H373  1  0.541500  0.484400  0.289000  1.0
  H  H374  1  0.458500  0.515600  0.711000  1.0
  H  H375  1  0.487200  0.469600  0.319500  1.0
  H  H376  1  0.512800  0.530400  0.680500  1.0
  H  H377  1  0.519400  0.472400  0.411500  1.0
  H  H378  1  0.480600  0.527600  0.588500  1.0
  H  H379  1  0.575600  0.482800  0.380100  1.0
  H  H380  1  0.424400  0.517200  0.619900  1.0
  H  H381  1  0.538400  0.242800  0.203300  1.0
  H  H382  1  0.461600  0.757200  0.796700  1.0
  H  H383  1  0.485600  0.249200  0.241600  1.0
  H  H384  1  0.514400  0.750800  0.758400  1.0
  H  H385  1  0.515100  0.153800  0.298600  1.0
  H  H386  1  0.484900  0.846200  0.701400  1.0
  H  H387  1  0.569600  0.148700  0.260800  1.0
  H  H388  1  0.430400  0.851300  0.739200  1.0
  H  H389  1  0.387100  0.160700  0.391800  1.0
  H  H390  1  0.612900  0.839300  0.608200  1.0
  H  H391  1  0.428200  0.144300  0.392100  1.0
  H  H392  1  0.571800  0.855700  0.607900  1.0
  H  H393  1  0.407100  0.133900  0.364900  1.0
  H  H394  1  0.592900  0.866100  0.635100  1.0
  H  H395  1  0.366700  0.352800  0.264800  1.0
  H  H396  1  0.633300  0.647200  0.735200  1.0
  H  H397  1  0.406100  0.299300  0.268200  1.0
  H  H398  1  0.593900  0.700700  0.731800  1.0
  H  H399  1  0.352300  0.269900  0.367200  1.0
  H  H400  1  0.647700  0.730100  0.632800  1.0
  H  H401  1  0.315400  0.324000  0.360200  1.0
  H  H402  1  0.684600  0.676000  0.639800  1.0
  H  H403  1  0.573400  0.207800  0.130500  1.0
  H  H404  1  0.426600  0.792200  0.869500  1.0
  H  H405  1  0.553600  0.179000  0.092100  1.0
  H  H406  1  0.446400  0.821000  0.907900  1.0
  H  H407  1  0.582200  0.086100  0.153700  1.0
  H  H408  1  0.417800  0.913900  0.846300  1.0
  H  H409  1  0.601300  0.116100  0.190600  1.0
  H  H410  1  0.398700  0.883900  0.809400  1.0
  H  H411  1  0.516900  0.211100  0.958600  1.0
  H  H412  1  0.483100  0.788900  0.041400  1.0
  H  H413  1  0.528900  0.180100  0.012900  1.0
  H  H414  1  0.471100  0.819900  0.987100  1.0
  H  H415  1  0.527700  0.088300  0.981400  1.0
  H  H416  1  0.472300  0.911700  0.018600  1.0
  H  H417  1  0.516100  0.119400  0.925800  1.0
  H  H418  1  0.483900  0.880600  0.074200  1.0
  H  H419  1  0.647200  0.235800  0.133300  1.0
  H  H420  1  0.352800  0.764200  0.866700  1.0
  H  H421  1  0.702000  0.231200  0.094200  1.0
  H  H422  1  0.298000  0.768800  0.905800  1.0
  H  H423  1  0.731300  0.132700  0.147000  1.0
  H  H424  1  0.268700  0.867300  0.853000  1.0
  H  H425  1  0.675500  0.139600  0.185800  1.0
  H  H426  1  0.324500  0.860400  0.814200  1.0
  H  H427  1  0.839200  0.106700  0.111800  1.0
  H  H428  1  0.160800  0.893300  0.888200  1.0
  H  H429  1  0.866700  0.132300  0.090600  1.0
  H  H430  1  0.133300  0.867700  0.909400  1.0
  H  H431  1  0.854100  0.105600  0.070500  1.0
  H  H432  1  0.145900  0.894400  0.929500  1.0
  H  H433  1  0.757200  0.296800  0.962800  1.0
  H  H434  1  0.242800  0.703200  0.037200  1.0
  H  H435  1  0.751700  0.257500  0.015400  1.0
  H  H436  1  0.248300  0.742500  0.984600  1.0
  H  H437  1  0.846600  0.200700  0.984800  1.0
  H  H438  1  0.153400  0.799300  0.015200  1.0
  H  H439  1  0.850200  0.239000  0.930400  1.0
  H  H440  1  0.149800  0.761000  0.069600  1.0
  H  H441  1  0.606600  0.267300  0.205600  1.0
  H  H442  1  0.393400  0.732700  0.794400  1.0
  H  H443  1  0.623600  0.298800  0.244000  1.0
  H  H444  1  0.376400  0.701200  0.756000  1.0
  H  H445  1  0.673400  0.204700  0.291900  1.0
  H  H446  1  0.326600  0.795300  0.708100  1.0
  H  H447  1  0.652800  0.175400  0.253600  1.0
  H  H448  1  0.347200  0.824600  0.746400  1.0
  H  H449  1  0.707800  0.226500  0.377700  1.0
  H  H450  1  0.292200  0.773500  0.622300  1.0
  H  H451  1  0.688400  0.256500  0.401200  1.0
  H  H452  1  0.311600  0.743500  0.598800  1.0
  H  H453  1  0.727000  0.259400  0.378300  1.0
  H  H454  1  0.273000  0.740600  0.621700  1.0
  H  H455  1  0.611100  0.435300  0.264100  1.0
  H  H456  1  0.388900  0.564700  0.735900  1.0
  H  H457  1  0.627800  0.373500  0.269700  1.0
  H  H458  1  0.372200  0.626500  0.730300  1.0
  H  H459  1  0.670700  0.374100  0.355200  1.0
  H  H460  1  0.329300  0.625900  0.644800  1.0
  H  H461  1  0.657800  0.437000  0.345900  1.0
  H  H462  1  0.342200  0.563000  0.654100  1.0
  H  H463  1  0.648300  0.510700  0.226900  1.0
  H  H464  1  0.351700  0.489300  0.773100  1.0
  H  H465  1  0.702000  0.524400  0.194400  1.0
  H  H466  1  0.298000  0.475600  0.805600  1.0
  H  H467  1  0.738400  0.518400  0.286400  1.0
  H  H468  1  0.261600  0.481600  0.713600  1.0
  H  H469  1  0.682500  0.505600  0.317600  1.0
  H  H470  1  0.317500  0.494400  0.682400  1.0
  H  H471  1  0.752900  0.577700  0.055100  1.0
  H  H472  1  0.247100  0.422300  0.944900  1.0
  H  H473  1  0.749100  0.557100  0.117000  1.0
  H  H474  1  0.250900  0.442900  0.883000  1.0
  H  H475  1  0.841500  0.590900  0.115300  1.0
  H  H476  1  0.158500  0.409100  0.884700  1.0
  H  H477  1  0.844300  0.609600  0.054900  1.0
  H  H478  1  0.155700  0.390400  0.945100  1.0
  H  H479  1  0.575600  0.555800  0.253600  1.0
  H  H480  1  0.424400  0.444200  0.746400  1.0
  H  H481  1  0.558100  0.615800  0.248000  1.0
  H  H482  1  0.441900  0.384200  0.752000  1.0
  H  H483  1  0.589100  0.615500  0.342200  1.0
  H  H484  1  0.410900  0.384500  0.657800  1.0
  H  H485  1  0.609700  0.555500  0.344300  1.0
  H  H486  1  0.390300  0.444500  0.655700  1.0
  H  H487  1  0.510900  0.725900  0.148700  1.0
  H  H488  1  0.489100  0.274100  0.851300  1.0
  H  H489  1  0.528600  0.694000  0.200600  1.0
  H  H490  1  0.471400  0.306000  0.799400  1.0
  H  H491  1  0.518500  0.786600  0.238700  1.0
  H  H492  1  0.481500  0.213400  0.761300  1.0
  H  H493  1  0.505900  0.816900  0.183600  1.0
  H  H494  1  0.494100  0.183100  0.816400  1.0
  H  H495  1  0.555200  0.754200  0.074500  1.0
  H  H496  1  0.444800  0.245800  0.925500  1.0
  H  H497  1  0.616500  0.748700  0.057700  1.0
  H  H498  1  0.383500  0.251300  0.942300  1.0
  H  H499  1  0.615600  0.842900  0.088800  1.0
  H  H500  1  0.384400  0.157100  0.911200  1.0
  H  H501  1  0.553300  0.843400  0.108800  1.0
  H  H502  1  0.446700  0.156600  0.891200  1.0
  H  H503  1  0.726700  0.649100  0.009900  1.0
  H  H504  1  0.273300  0.350900  0.990100  1.0
  H  H505  1  0.694300  0.701200  0.026700  1.0
  H  H506  1  0.305700  0.298800  0.973300  1.0
  H  H507  1  0.786700  0.737200  0.021100  1.0
  H  H508  1  0.213300  0.262800  0.978900  1.0
  H  H509  1  0.817600  0.683100  0.004100  1.0
  H  H510  1  0.182400  0.316900  0.995900  1.0
  H  H511  1  0.600500  0.766500  0.291400  0.267
  H  H512  1  0.399500  0.233500  0.708600  0.267
  H  H513  1  0.635200  0.737300  0.296400  0.267
  H  H514  1  0.364800  0.262700  0.703600  0.267
  H  H515  1  0.604800  0.743900  0.329800  0.267
  H  H516  1  0.395200  0.256100  0.670200  0.267
  H  H517  1  0.577400  0.022500  0.025900  0.28
  H  H518  1  0.422600  0.977500  0.974100  0.28
  H  H519  1  0.574200  0.002700  0.066300  0.28
  H  H520  1  0.425800  0.997300  0.933700  0.28
  H  H521  1  0.611200  0.014200  0.046000  0.28
  H  H522  1  0.388800  0.985800  0.954000  0.28
  H  H523  1  0.678600  0.967700  0.917200  0.3
  H  H524  1  0.321400  0.032300  0.082800  0.3
  H  H525  1  0.694300  0.002600  0.918700  0.3
  H  H526  1  0.305700  0.997400  0.081300  0.3
  H  H527  1  0.717700  0.964100  0.926800  0.3
  H  H528  1  0.282300  0.035900  0.073200  0.3
  H  H529  1  0.964200  0.954400  0.964400  0.323
  H  H530  1  0.035800  0.045600  0.035600  0.323
  H  H531  1  0.946500  0.919600  0.981000  0.323
  H  H532  1  0.053500  0.080400  0.019000  0.323
  H  H533  1  0.925900  0.951800  0.956400  0.323
  H  H534  1  0.074100  0.048200  0.043600  0.323
  H  H535  1  0.071800  0.542000  0.575400  0.329
  H  H536  1  0.928200  0.458000  0.424600  0.329
  H  H537  1  0.072200  0.520400  0.544000  0.329
  H  H538  1  0.927800  0.479600  0.456000  0.329
  H  H539  1  0.036800  0.546100  0.557800  0.329
  H  H540  1  0.963200  0.453900  0.442200  0.329
  H  H541  1  0.997100  0.585700  0.826300  0.35
  H  H542  1  0.002900  0.414300  0.173700  0.35
  H  H543  1  0.039700  0.578400  0.818800  0.35
  H  H544  1  0.960300  0.421600  0.181200  0.35
  H  H545  1  0.017600  0.571900  0.790400  0.35
  H  H546  1  0.982400  0.428100  0.209600  0.35
  H  H547  1  0.523800  0.072000  0.585900  0.36
  H  H548  1  0.476200  0.928000  0.414100  0.36
  H  H549  1  0.509100  0.037200  0.582400  0.36
  H  H550  1  0.490900  0.962800  0.417600  0.36
  H  H551  1  0.528900  0.059700  0.547900  0.36
  H  H552  1  0.471100  0.940300  0.452100  0.36
  H  H553  1  0.402200  0.659800  0.432900  0.38
  H  H554  1  0.597800  0.340200  0.567100  0.38
  H  H555  1  0.374300  0.633800  0.452100  0.38
  H  H556  1  0.625700  0.366200  0.547900  0.38
  H  H557  1  0.399400  0.645500  0.474700  0.38
  H  H558  1  0.600600  0.354500  0.525300  0.38
  H  H559  1  0.846800  0.593400  0.220400  0.42
  H  H560  1  0.153200  0.406600  0.779600  0.42
  H  H561  1  0.840400  0.559000  0.249500  0.42
  H  H562  1  0.159600  0.441000  0.750500  0.42
  H  H563  1  0.816900  0.596800  0.254900  0.42
  H  H564  1  0.183100  0.403200  0.745100  0.42
  H  H565  1  0.404200  0.413700  0.493700  0.43
  H  H566  1  0.595800  0.586300  0.506300  0.43
  H  H567  1  0.427600  0.441700  0.498700  0.43
  H  H568  1  0.572400  0.558300  0.501300  0.43
  H  H569  1  0.446200  0.402100  0.493100  0.43
  H  H570  1  0.553800  0.597900  0.506900  0.43
  H  H571  1  0.716400  0.848800  0.094000  0.43
  H  H572  1  0.283600  0.151200  0.906000  0.43
  H  H573  1  0.747200  0.845400  0.060200  0.43
  H  H574  1  0.252800  0.154600  0.939800  0.43
  H  H575  1  0.752500  0.821400  0.097800  0.43
  H  H576  1  0.247500  0.178600  0.902200  0.43
  H  H577  1  0.429100  0.470600  0.487400  0.57
  H  H578  1  0.570900  0.529400  0.512600  0.57
  H  H579  1  0.405500  0.439600  0.494000  0.57
  H  H580  1  0.594500  0.560400  0.506000  0.57
  H  H581  1  0.387700  0.480300  0.484400  0.57
  H  H582  1  0.612300  0.519700  0.515600  0.57
  H  H583  1  0.759400  0.842900  0.037400  0.57
  H  H584  1  0.240600  0.157100  0.962600  0.57
  H  H585  1  0.730000  0.857200  0.068700  0.57
  H  H586  1  0.270000  0.142800  0.931300  0.57
  H  H587  1  0.724800  0.870400  0.028000  0.57
  H  H588  1  0.275200  0.129600  0.972000  0.57
  H  H589  1  0.841300  0.542500  0.259500  0.58
  H  H590  1  0.158700  0.457500  0.740500  0.58
  H  H591  1  0.852000  0.575500  0.230300  0.58
  H  H592  1  0.148000  0.424500  0.769700  0.58
  H  H593  1  0.869500  0.535700  0.224500  0.58
  H  H594  1  0.130500  0.464300  0.775500  0.58
  H  H595  1  0.426600  0.678800  0.453100  0.62
  H  H596  1  0.573400  0.321200  0.546900  0.62
  H  H597  1  0.403700  0.649200  0.475100  0.62
  H  H598  1  0.596300  0.350800  0.524900  0.62
  H  H599  1  0.419000  0.673500  0.495700  0.62
  H  H600  1  0.581000  0.326500  0.504300  0.62
  H  H601  1  0.516600  0.998100  0.600000  0.64
  H  H602  1  0.483400  0.001900  0.400000  0.64
  H  H603  1  0.517500  0.039900  0.594400  0.64
  H  H604  1  0.482500  0.960100  0.405600  0.64
  H  H605  1  0.507700  0.018400  0.633600  0.64
  H  H606  1  0.492300  0.981600  0.366400  0.64
  H  H607  1  0.014300  0.607600  0.859000  0.65
  H  H608  1  0.985700  0.392400  0.141000  0.65
  H  H609  1  0.056700  0.598000  0.850600  0.65
  H  H610  1  0.943300  0.402000  0.149400  0.65
  H  H611  1  0.032600  0.581900  0.830600  0.65
  H  H612  1  0.967400  0.418100  0.169400  0.65
  H  H613  1  0.129900  0.512700  0.534000  0.671
  H  H614  1  0.870100  0.487300  0.466000  0.671
  H  H615  1  0.128000  0.514500  0.492800  0.671
  H  H616  1  0.872000  0.485500  0.507200  0.671
  H  H617  1  0.092300  0.516300  0.521400  0.671
  H  H618  1  0.907700  0.483700  0.478600  0.671
  H  H619  1  0.959100  0.874900  0.986500  0.677
  H  H620  1  0.040900  0.125100  0.013500  0.677
  H  H621  1  0.970100  0.913500  0.981800  0.677
  H  H622  1  0.029900  0.086500  0.018200  0.677
  H  H623  1  0.998300  0.878500  0.991200  0.677
  H  H624  1  0.001700  0.121500  0.008800  0.677
  H  H625  1  0.644400  0.986500  0.899700  0.7
  H  H626  1  0.355600  0.013500  0.100300  0.7
  H  H627  1  0.671900  0.960100  0.922500  0.7
  H  H628  1  0.328100  0.039900  0.077500  0.7
  H  H629  1  0.649700  0.944500  0.900000  0.7
  H  H630  1  0.350300  0.055500  0.100000  0.7
  H  H631  1  0.552300  0.008000  0.111200  0.72
  H  H632  1  0.447700  0.992000  0.888800  0.72
  H  H633  1  0.569900  0.006300  0.070500  0.72
  H  H634  1  0.430100  0.993700  0.929500  0.72
  H  H635  1  0.527600  0.009900  0.081900  0.72
  H  H636  1  0.472400  0.990100  0.918100  0.72
  H  H637  1  0.566100  0.715400  0.363900  0.733
  H  H638  1  0.433900  0.284600  0.636100  0.733
  H  H639  1  0.534800  0.747200  0.353800  0.733
  H  H640  1  0.465200  0.252800  0.646200  0.733
  H  H641  1  0.575200  0.750000  0.336200  0.733
  H  H642  1  0.424800  0.250000  0.663800  0.733
  Pd  Pd643  1  0.153510  0.974750  0.784145  1.0
  Pd  Pd644  1  0.846490  0.025250  0.215855  1.0
  Pd  Pd645  1  0.183430  0.691160  0.627140  1.0
  Pd  Pd646  1  0.816570  0.308840  0.372860  1.0
  Pd  Pd647  1  0.872740  0.816630  0.808860  1.0
  Pd  Pd648  1  0.127260  0.183370  0.191140  1.0
  Pd  Pd649  1  0.691070  0.127150  0.683440  1.0
  Pd  Pd650  1  0.308930  0.872850  0.316560  1.0
  Pd  Pd651  1  0.715770  0.846510  0.525234  1.0
  Pd  Pd652  1  0.284230  0.153490  0.474766  1.0
  Pd  Pd653  1  0.025229  0.715820  0.346480  1.0
  Pd  Pd654  1  0.974771  0.284180  0.653520  1.0
  Pd  Pd655  1  0.196608  0.387585  0.004840  1.0
  Pd  Pd656  1  0.803392  0.612415  0.995160  1.0
  Pd  Pd657  1  0.191577  0.695677  0.107880  1.0
  Pd  Pd658  1  0.808423  0.304323  0.892120  1.0
  Pd  Pd659  1  0.304402  0.392122  0.308388  1.0
  Pd  Pd660  1  0.695598  0.607878  0.691612  1.0
  Pd  Pd661  1  0.607847  0.191579  0.195609  1.0
  Pd  Pd662  1  0.392153  0.808421  0.804391  1.0
  Pd  Pd663  1  0.612450  0.495208  0.303349  1.0
  Pd  Pd664  1  0.387550  0.504792  0.696651  1.0
  Pd  Pd665  1  0.495213  0.803392  0.112429  1.0
  Pd  Pd666  1  0.504787  0.196608  0.887571  1.0
  C  C667  1  0.404600  0.440400  0.393400  0.43
  C  C668  1  0.595400  0.559600  0.606600  0.43
  C  C669  1  0.433800  0.434100  0.445700  0.43
  C  C670  1  0.566200  0.565900  0.554300  0.43
  C  C671  1  0.462800  0.459400  0.386700  0.43
  C  C672  1  0.537200  0.540600  0.613300  0.43
  C  C673  1  0.427400  0.421800  0.486600  0.43
  C  C674  1  0.572600  0.578200  0.513400  0.43
  C  C675  1  0.661600  0.791100  0.068500  0.43
  C  C676  1  0.338400  0.208900  0.931500  0.43
  C  C677  1  0.719600  0.805100  0.072900  0.43
  C  C678  1  0.280400  0.194900  0.927100  0.43
  C  C679  1  0.716700  0.753900  0.045400  0.43
  C  C680  1  0.283300  0.246100  0.954600  0.43
  C  C681  1  0.735200  0.832400  0.082000  0.43
  C  C682  1  0.264800  0.167600  0.918000  0.43
  C  C683  1  0.729300  0.061700  0.724500  1.0
  C  C684  1  0.270700  0.938300  0.275500  1.0
  C  C685  1  0.736700  0.034400  0.751700  1.0
  C  C686  1  0.263300  0.965600  0.248300  1.0
  C  C687  1  0.710400  0.031300  0.782000  1.0
  C  C688  1  0.289600  0.968700  0.218000  1.0
  C  C689  1  0.679300  0.057900  0.784800  1.0
  C  C690  1  0.320700  0.942100  0.215200  1.0
  C  C691  1  0.675300  0.084800  0.757400  1.0
  C  C692  1  0.324700  0.915200  0.242600  1.0
  C  C693  1  0.831200  0.888000  0.793800  1.0
  C  C694  1  0.168800  0.112000  0.206200  1.0
  C  C695  1  0.803300  0.917900  0.797000  1.0
  C  C696  1  0.196700  0.082100  0.203000  1.0
  C  C697  1  0.779000  0.915200  0.829200  1.0
  C  C698  1  0.221000  0.084800  0.170800  1.0
  C  C699  1  0.781900  0.884900  0.855100  1.0
  C  C700  1  0.218100  0.115100  0.144900  1.0
  C  C701  1  0.809100  0.856900  0.848000  1.0
  C  C702  1  0.190900  0.143100  0.152000  1.0
  C  C703  1  0.699300  0.915200  0.554300  1.0
  C  C704  1  0.300700  0.084800  0.445700  1.0
  C  C705  1  0.678900  0.943800  0.569900  1.0
  C  C706  1  0.321100  0.056200  0.430100  1.0
  C  C707  1  0.642300  0.947300  0.575000  1.0
  C  C708  1  0.357700  0.052700  0.425000  1.0
  C  C709  1  0.627700  0.922400  0.565300  1.0
  C  C710  1  0.372300  0.077600  0.434700  1.0
  C  C711  1  0.649100  0.894200  0.549300  1.0
  C  C712  1  0.350900  0.105800  0.450700  1.0
  C  C713  1  0.686700  0.070300  0.643500  1.0
  C  C714  1  0.313300  0.929700  0.356500  1.0
  C  C715  1  0.668200  0.048000  0.629500  1.0
  C  C716  1  0.331800  0.952000  0.370500  1.0
  C  C717  1  0.633600  0.050600  0.635600  1.0
  C  C718  1  0.366400  0.949400  0.364400  1.0
  C  C719  1  0.613800  0.075400  0.653300  1.0
  C  C720  1  0.386200  0.924600  0.346700  1.0
  C  C721  1  0.632000  0.098100  0.667400  1.0
  C  C722  1  0.368000  0.901900  0.332600  1.0
  C  C723  1  0.750100  0.826000  0.589200  1.0
  C  C724  1  0.249900  0.174000  0.410800  1.0
  C  C725  1  0.755700  0.809900  0.625800  1.0
  C  C726  1  0.244300  0.190100  0.374200  1.0
  C  C727  1  0.729000  0.791100  0.647200  1.0
  C  C728  1  0.271000  0.208900  0.352800  1.0
  C  C729  1  0.699700  0.788000  0.632900  1.0
  C  C730  1  0.300300  0.212000  0.367100  1.0
  C  C731  1  0.697500  0.802800  0.596700  1.0
  C  C732  1  0.302500  0.197200  0.403300  1.0
  C  C733  1  0.732500  0.774800  0.685100  1.0
  C  C734  1  0.267500  0.225200  0.314900  1.0
  C  C735  1  0.713000  0.740100  0.737900  1.0
  C  C736  1  0.287000  0.259900  0.262100  1.0
  C  C737  1  0.760700  0.768000  0.733700  1.0
  C  C738  1  0.239300  0.232000  0.266300  1.0
  C  C739  1  0.685500  0.717600  0.760500  1.0
  C  C740  1  0.314500  0.282400  0.239500  1.0
  C  C741  1  0.838000  0.807800  0.748100  1.0
  C  C742  1  0.162000  0.192200  0.251900  1.0
  C  C743  1  0.814200  0.797900  0.731800  1.0
  C  C744  1  0.185800  0.202100  0.268200  1.0
  C  C745  1  0.789900  0.776700  0.750700  1.0
  C  C746  1  0.210100  0.223300  0.249300  1.0
  C  C747  1  0.790600  0.765700  0.787300  1.0
  C  C748  1  0.209400  0.234300  0.212700  1.0
  C  C749  1  0.815200  0.776800  0.804100  1.0
  C  C750  1  0.184800  0.223200  0.195900  1.0
  C  C751  1  0.938900  0.776000  0.769600  1.0
  C  C752  1  0.061100  0.224000  0.230400  1.0
  C  C753  1  0.966300  0.747900  0.763100  1.0
  C  C754  1  0.033700  0.252100  0.236900  1.0
  C  C755  1  0.968400  0.717900  0.789100  1.0
  C  C756  1  0.031600  0.282100  0.210900  1.0
  C  C757  1  0.943000  0.715700  0.819500  1.0
  C  C758  1  0.057000  0.284300  0.180500  1.0
  C  C759  1  0.914800  0.743100  0.824600  1.0
  C  C760  1  0.085200  0.256900  0.175400  1.0
  C  C761  1  0.111500  0.705900  0.668800  1.0
  C  C762  1  0.888500  0.294100  0.331200  1.0
  C  C763  1  0.082200  0.702300  0.696600  1.0
  C  C764  1  0.917800  0.297700  0.303400  1.0
  C  C765  1  0.084500  0.671800  0.721800  1.0
  C  C766  1  0.915500  0.328200  0.278200  1.0
  C  C767  1  0.116100  0.646600  0.719100  1.0
  C  C768  1  0.883900  0.353400  0.280900  1.0
  C  C769  1  0.144500  0.652600  0.691400  1.0
  C  C770  1  0.855500  0.347400  0.308600  1.0
  C  C771  1  0.085300  0.945500  0.800800  1.0
  C  C772  1  0.914700  0.054500  0.199200  1.0
  C  C773  1  0.056700  0.930900  0.820600  1.0
  C  C774  1  0.943300  0.069100  0.179400  1.0
  C  C775  1  0.052700  0.926000  0.857600  1.0
  C  C776  1  0.947300  0.074000  0.142400  1.0
  C  C777  1  0.077100  0.935500  0.873200  1.0
  C  C778  1  0.922900  0.064500  0.126800  1.0
  C  C779  1  0.106500  0.950400  0.851500  1.0
  C  C780  1  0.893500  0.049600  0.148500  1.0
  C  C781  1  0.929600  0.856100  0.813800  1.0
  C  C782  1  0.070400  0.143900  0.186200  1.0
  C  C783  1  0.951300  0.870600  0.830700  1.0
  C  C784  1  0.048700  0.129400  0.169300  1.0
  C  C785  1  0.949700  0.865300  0.866100  1.0
  C  C786  1  0.050300  0.134700  0.133900  1.0
  C  C787  1  0.923200  0.846000  0.886100  1.0
  C  C788  1  0.076800  0.154000  0.113900  1.0
  C  C789  1  0.900900  0.832700  0.869200  1.0
  C  C790  1  0.099100  0.167300  0.130800  1.0
  C  C791  1  0.192800  0.751900  0.661100  1.0
  C  C792  1  0.807200  0.248100  0.338900  1.0
  C  C793  1  0.202300  0.768800  0.685200  1.0
  C  C794  1  0.797700  0.231200  0.314800  1.0
  C  C795  1  0.222600  0.748700  0.710300  1.0
  C  C796  1  0.777400  0.251300  0.289700  1.0
  C  C797  1  0.234200  0.712700  0.709900  1.0
  C  C798  1  0.765800  0.287300  0.290100  1.0
  C  C799  1  0.223600  0.696300  0.685000  1.0
  C  C800  1  0.776400  0.303700  0.315000  1.0
  C  C801  1  0.232100  0.766800  0.739300  1.0
  C  C802  1  0.767900  0.233200  0.260700  1.0
  C  C803  1  0.259400  0.762400  0.787200  1.0
  C  C804  1  0.740600  0.237600  0.212800  1.0
  C  C805  1  0.225400  0.815000  0.767000  1.0
  C  C806  1  0.774600  0.185000  0.233000  1.0
  C  C807  1  0.281200  0.738700  0.815000  1.0
  C  C808  1  0.718800  0.261300  0.185000  1.0
  C  C809  1  0.173600  0.910200  0.751000  1.0
  C  C810  1  0.826400  0.089800  0.249000  1.0
  C  C811  1  0.191500  0.874300  0.744400  1.0
  C  C812  1  0.808500  0.125700  0.255600  1.0
  C  C813  1  0.209400  0.852700  0.770700  1.0
  C  C814  1  0.790600  0.147300  0.229300  1.0
  C  C815  1  0.212300  0.867900  0.799900  1.0
  C  C816  1  0.787700  0.132100  0.200100  1.0
  C  C817  1  0.197000  0.903500  0.802800  1.0
  C  C818  1  0.803000  0.096500  0.197200  1.0
  C  C819  1  0.143600  0.686100  0.569700  1.0
  C  C820  1  0.856400  0.313900  0.430300  1.0
  C  C821  1  0.131100  0.669800  0.547400  1.0
  C  C822  1  0.868900  0.330200  0.452600  1.0
  C  C823  1  0.135200  0.633700  0.550200  1.0
  C  C824  1  0.864800  0.366300  0.449800  1.0
  C  C825  1  0.154200  0.613900  0.575700  1.0
  C  C826  1  0.845800  0.386100  0.424300  1.0
  C  C827  1  0.167900  0.630700  0.598500  1.0
  C  C828  1  0.832100  0.369300  0.401500  1.0
  C  C829  1  0.055100  0.700000  0.414300  1.0
  C  C830  1  0.944900  0.300000  0.585700  1.0
  C  C831  1  0.070500  0.679100  0.443300  1.0
  C  C832  1  0.929500  0.320900  0.556700  1.0
  C  C833  1  0.074700  0.642900  0.447000  1.0
  C  C834  1  0.925300  0.357100  0.553000  1.0
  C  C835  1  0.063800  0.627800  0.422600  1.0
  C  C836  1  0.936200  0.372200  0.577400  1.0
  C  C837  1  0.049800  0.648000  0.393900  1.0
  C  C838  1  0.950200  0.352000  0.606100  1.0
  C  C839  1  0.294100  0.830300  0.389600  1.0
  C  C840  1  0.705900  0.169700  0.610400  1.0
  C  C841  1  0.298300  0.803200  0.417800  1.0
  C  C842  1  0.701700  0.196800  0.582200  1.0
  C  C843  1  0.328900  0.778100  0.415200  1.0
  C  C844  1  0.671100  0.221900  0.584800  1.0
  C  C845  1  0.352800  0.781200  0.385300  1.0
  C  C846  1  0.647200  0.218800  0.614700  1.0
  C  C847  1  0.347400  0.809000  0.357400  1.0
  C  C848  1  0.652600  0.191000  0.642600  1.0
  C  C849  1  0.224000  0.730400  0.562100  1.0
  C  C850  1  0.776000  0.269600  0.437900  1.0
  C  C851  1  0.251300  0.736400  0.534600  1.0
  C  C852  1  0.748700  0.263600  0.465400  1.0
  C  C853  1  0.282700  0.709900  0.531400  1.0
  C  C854  1  0.717300  0.290100  0.468600  1.0
  C  C855  1  0.285600  0.681100  0.557200  1.0
  C  C856  1  0.714400  0.318900  0.442800  1.0
  C  C857  1  0.257500  0.674800  0.584600  1.0
  C  C858  1  0.742500  0.325200  0.415400  1.0
  C  C859  1  0.089500  0.750800  0.324700  1.0
  C  C860  1  0.910500  0.249200  0.675300  1.0
  C  C861  1  0.125700  0.755700  0.309300  1.0
  C  C862  1  0.874300  0.244300  0.690700  1.0
  C  C863  1  0.146900  0.729700  0.290100  1.0
  C  C864  1  0.853100  0.270300  0.709900  1.0
  C  C865  1  0.132700  0.700600  0.287500  1.0
  C  C866  1  0.867300  0.299400  0.712500  1.0
  C  C867  1  0.096800  0.698000  0.302700  1.0
  C  C868  1  0.903200  0.302000  0.697300  1.0
  C  C869  1  0.184900  0.733300  0.274500  1.0
  C  C870  1  0.815100  0.266700  0.725500  1.0
  C  C871  1  0.237700  0.712400  0.240300  1.0
  C  C872  1  0.762300  0.287600  0.759700  1.0
  C  C873  1  0.232400  0.761400  0.267700  1.0
  C  C874  1  0.767600  0.238600  0.732300  1.0
  C  C875  1  0.260400  0.684700  0.218600  1.0
  C  C876  1  0.739600  0.315300  0.781400  1.0
  C  C877  1  0.248100  0.839700  0.306800  1.0
  C  C878  1  0.751900  0.160300  0.693200  1.0
  C  C879  1  0.231100  0.814500  0.297200  1.0
  C  C880  1  0.768900  0.185500  0.702800  1.0
  C  C881  1  0.250800  0.789600  0.277200  1.0
  C  C882  1  0.749200  0.210400  0.722800  1.0
  C  C883  1  0.287100  0.790800  0.265500  1.0
  C  C884  1  0.712900  0.209200  0.734500  1.0
  C  C885  1  0.304500  0.815400  0.276100  1.0
  C  C886  1  0.695500  0.184600  0.723900  1.0
  C  C887  1  0.954100  0.731800  0.393100  1.0
  C  C888  1  0.045900  0.268200  0.606900  1.0
  C  C889  1  0.919700  0.728200  0.409700  1.0
  C  C890  1  0.080300  0.271800  0.590300  1.0
  C  C891  1  0.905600  0.700300  0.405200  1.0
  C  C892  1  0.094400  0.299700  0.594800  1.0
  C  C893  1  0.923300  0.676700  0.383900  1.0
  C  C894  1  0.076700  0.323300  0.616100  1.0
  C  C895  1  0.959800  0.681900  0.367200  1.0
  C  C896  1  0.040200  0.318100  0.632800  1.0
  C  C897  1  0.869820  0.696400  0.422000  1.0
  C  C898  1  0.130180  0.303600  0.578000  1.0
  C  C899  1  0.821600  0.660500  0.439400  1.0
  C  C900  1  0.178400  0.339500  0.560600  1.0
  C  C901  1  0.813300  0.719400  0.457300  1.0
  C  C902  1  0.186700  0.280600  0.542700  1.0
  C  C903  1  0.811100  0.624100  0.442700  1.0
  C  C904  1  0.188900  0.375900  0.557300  1.0
  C  C905  1  0.782500  0.804800  0.492500  1.0
  C  C906  1  0.217500  0.195200  0.507500  1.0
  C  C907  1  0.805700  0.776800  0.476800  1.0
  C  C908  1  0.194300  0.223200  0.523200  1.0
  C  C909  1  0.790700  0.747800  0.473300  1.0
  C  C910  1  0.209300  0.252200  0.526700  1.0
  C  C911  1  0.755100  0.745700  0.486100  1.0
  C  C912  1  0.244900  0.254300  0.513900  1.0
  C  C913  1  0.734600  0.774800  0.501400  1.0
  C  C914  1  0.265400  0.225200  0.498600  1.0
  C  C915  1  0.803900  0.993300  0.282400  1.0
  C  C916  1  0.196100  0.006700  0.717600  1.0
  C  C917  1  0.777100  0.975700  0.304900  1.0
  C  C918  1  0.222900  0.024300  0.695100  1.0
  C  C919  1  0.747500  0.973400  0.291000  1.0
  C  C920  1  0.252500  0.026600  0.709000  1.0
  C  C921  1  0.745300  0.987300  0.256000  1.0
  C  C922  1  0.254700  0.012700  0.744000  1.0
  C  C923  1  0.774700  0.002500  0.235100  1.0
  C  C924  1  0.225300  0.997500  0.764900  1.0
  C  C925  1  0.719900  0.956800  0.313100  1.0
  C  C926  1  0.280100  0.043200  0.686900  1.0
  C  C927  1  0.660700  0.939700  0.321600  1.0
  C  C928  1  0.339300  0.060300  0.678400  1.0
  C  C929  1  0.696200  0.922800  0.370080  1.0
  C  C930  1  0.303800  0.077200  0.629920  1.0
  C  C931  1  0.627100  0.937900  0.308300  1.0
  C  C932  1  0.372900  0.062100  0.691700  1.0
  C  C933  1  0.731400  0.893900  0.454000  1.0
  C  C934  1  0.268600  0.106100  0.546000  1.0
  C  C935  1  0.727800  0.910100  0.420100  1.0
  C  C936  1  0.272200  0.089900  0.579900  1.0
  C  C937  1  0.700600  0.905000  0.405400  1.0
  C  C938  1  0.299400  0.095000  0.594600  1.0
  C  C939  1  0.677800  0.882400  0.425100  1.0
  C  C940  1  0.322200  0.117600  0.574900  1.0
  C  C941  1  0.681900  0.867100  0.459600  1.0
  C  C942  1  0.318100  0.132900  0.540400  1.0
  C  C943  1  0.992400  0.782700  0.304900  1.0
  C  C944  1  0.007600  0.217300  0.695100  1.0
  C  C945  1  0.976500  0.804900  0.277400  1.0
  C  C946  1  0.023500  0.195100  0.722600  1.0
  C  C947  1  0.974200  0.790400  0.247000  1.0
  C  C948  1  0.025800  0.209600  0.753000  1.0
  C  C949  1  0.986000  0.755100  0.245700  1.0
  C  C950  1  0.014000  0.244900  0.754300  1.0
  C  C951  1  0.001400  0.735100  0.275000  1.0
  C  C952  1  0.998600  0.264900  0.725000  1.0
  C  C953  1  0.958500  0.813600  0.219000  1.0
  C  C954  1  0.041500  0.186400  0.781000  1.0
  C  C955  1  0.939600  0.821500  0.160600  1.0
  C  C956  1  0.060400  0.178500  0.839400  1.0
  C  C957  1  0.921300  0.869280  0.196900  1.0
  C  C958  1  0.078700  0.130720  0.803100  1.0
  C  C959  1  0.941100  0.807800  0.126200  1.0
  C  C960  1  0.058900  0.192200  0.873800  1.0
  C  C961  1  0.892100  0.954900  0.231800  1.0
  C  C962  1  0.107900  0.045100  0.768200  1.0
  C  C963  1  0.909600  0.919100  0.227600  1.0
  C  C964  1  0.090400  0.080900  0.772400  1.0
  C  C965  1  0.905000  0.905100  0.201200  1.0
  C  C966  1  0.095000  0.094900  0.798800  1.0
  C  C967  1  0.883500  0.924200  0.177400  1.0
  C  C968  1  0.116500  0.075800  0.822600  1.0
  C  C969  1  0.865600  0.960200  0.182200  1.0
  C  C970  1  0.134400  0.039800  0.817800  1.0
  C  C971  1  0.255000  0.724300  0.119800  1.0
  C  C972  1  0.745000  0.275700  0.880200  1.0
  C  C973  1  0.273300  0.747200  0.129200  1.0
  C  C974  1  0.726700  0.252800  0.870800  1.0
  C  C975  1  0.254700  0.772700  0.149700  1.0
  C  C976  1  0.745300  0.227300  0.850300  1.0
  C  C977  1  0.218100  0.775000  0.158600  1.0
  C  C978  1  0.781900  0.225000  0.841400  1.0
  C  C979  1  0.200400  0.752100  0.146900  1.0
  C  C980  1  0.799600  0.247900  0.853100  1.0
  C  C981  1  0.275600  0.797800  0.160900  1.0
  C  C982  1  0.724400  0.202200  0.839100  1.0
  C  C983  1  0.273800  0.846700  0.186500  1.0
  C  C984  1  0.726200  0.153300  0.813500  1.0
  C  C985  1  0.327500  0.816900  0.162000  1.0
  C  C986  1  0.672500  0.183100  0.838000  1.0
  C  C987  1  0.252000  0.879400  0.202600  1.0
  C  C988  1  0.748000  0.120600  0.797400  1.0
  C  C989  1  0.422100  0.783300  0.123700  1.0
  C  C990  1  0.577900  0.216700  0.876300  1.0
  C  C991  1  0.385700  0.786300  0.133300  1.0
  C  C992  1  0.614300  0.213700  0.866700  1.0
  C  C993  1  0.367400  0.812400  0.152200  1.0
  C  C994  1  0.632600  0.187600  0.847800  1.0
  C  C995  1  0.386100  0.835600  0.159500  1.0
  C  C996  1  0.613900  0.164400  0.840500  1.0
  C  C997  1  0.423100  0.832000  0.149500  1.0
  C  C998  1  0.576900  0.168000  0.850500  1.0
  C  C999  1  0.276700  0.466400  0.275300  1.0
  C  C1000  1  0.723300  0.533600  0.724700  1.0
  C  C1001  1  0.254100  0.497900  0.271300  1.0
  C  C1002  1  0.745900  0.502100  0.728700  1.0
  C  C1003  1  0.223900  0.506000  0.297400  1.0
  C  C1004  1  0.776100  0.494000  0.702600  1.0
  C  C1005  1  0.219400  0.480700  0.326700  1.0
  C  C1006  1  0.780600  0.519300  0.673300  1.0
  C  C1007  1  0.243700  0.447400  0.330800  1.0
  C  C1008  1  0.756300  0.552600  0.669200  1.0
  C  C1009  1  0.198500  0.540900  0.292500  1.0
  C  C1010  1  0.801500  0.459100  0.707500  1.0
  C  C1011  1  0.151700  0.579700  0.314500  1.0
  C  C1012  1  0.848300  0.420300  0.685500  1.0
  C  C1013  1  0.178900  0.592800  0.257100  1.0
  C  C1014  1  0.821100  0.407200  0.742900  1.0
  C  C1015  1  0.121500  0.588600  0.346100  1.0
  C  C1016  1  0.878500  0.411400  0.653900  1.0
  C  C1017  1  0.215500  0.635900  0.164300  1.0
  C  C1018  1  0.784500  0.364100  0.835700  1.0
  C  C1019  1  0.213100  0.612600  0.196200  1.0
  C  C1020  1  0.786900  0.387400  0.803800  1.0
  C  C1021  1  0.181900  0.616800  0.222100  1.0
  C  C1022  1  0.818100  0.383200  0.777900  1.0
  C  C1023  1  0.154500  0.644100  0.213300  1.0
  C  C1024  1  0.845500  0.355900  0.786700  1.0
  C  C1025  1  0.157800  0.666667  0.180800  1.0
  C  C1026  1  0.842200  0.333333  0.819200  1.0
  C  C1027  1  0.182600  0.634300  0.075800  1.0
  C  C1028  1  0.817400  0.365700  0.924200  1.0
  C  C1029  1  0.165400  0.610900  0.063500  1.0
  C  C1030  1  0.834600  0.389100  0.936500  1.0
  C  C1031  1  0.129500  0.617200  0.067300  1.0
  C  C1032  1  0.870500  0.382800  0.932700  1.0
  C  C1033  1  0.111800  0.647000  0.081900  1.0
  C  C1034  1  0.888200  0.353000  0.918100  1.0
  C  C1035  1  0.129600  0.669200  0.092500  1.0
  C  C1036  1  0.870400  0.330800  0.907500  1.0
  C  C1037  1  0.110700  0.593800  0.056900  1.0
  C  C1038  1  0.889300  0.406200  0.943100  1.0
  C  C1039  1  0.054920  0.577100  0.049400  1.0
  C  C1040  1  0.945080  0.422900  0.950600  1.0
  C  C1041  1  0.111200  0.535810  0.039900  1.0
  C  C1042  1  0.888800  0.464190  0.960100  1.0
  C  C1043  1  0.016500  0.586100  0.051100  1.0
  C  C1044  1  0.983500  0.413900  0.948900  1.0
  C  C1045  1  0.186000  0.463000  0.019200  1.0
  C  C1046  1  0.814000  0.537000  0.980800  1.0
  C  C1047  1  0.167600  0.495700  0.026600  1.0
  C  C1048  1  0.832400  0.504300  0.973400  1.0
  C  C1049  1  0.130400  0.502100  0.031000  1.0
  C  C1050  1  0.869600  0.497900  0.969000  1.0
  C  C1051  1  0.113400  0.476300  0.026800  1.0
  C  C1052  1  0.886600  0.523700  0.973200  1.0
  C  C1053  1  0.133000  0.443200  0.018900  1.0
  C  C1054  1  0.867000  0.556800  0.981100  1.0
  C  C1055  1  0.216300  0.376500  0.077100  1.0
  C  C1056  1  0.783700  0.623500  0.922900  1.0
  C  C1057  1  0.213600  0.366900  0.113600  1.0
  C  C1058  1  0.786400  0.633100  0.886400  1.0
  C  C1059  1  0.186800  0.347900  0.133400  1.0
  C  C1060  1  0.813200  0.652100  0.866600  1.0
  C  C1061  1  0.163700  0.340300  0.114500  1.0
  C  C1062  1  0.836300  0.659700  0.885500  1.0
  C  C1063  1  0.168500  0.350600  0.076200  1.0
  C  C1064  1  0.831500  0.649400  0.923800  1.0
  C  C1065  1  0.183300  0.338200  0.173200  1.0
  C  C1066  1  0.816700  0.661800  0.826800  1.0
  C  C1067  1  0.153500  0.312700  0.226800  1.0
  C  C1068  1  0.846500  0.687300  0.773200  1.0
  C  C1069  1  0.202100  0.339100  0.225100  1.0
  C  C1070  1  0.797900  0.660900  0.774900  1.0
  C  C1071  1  0.122500  0.294500  0.248000  1.0
  C  C1072  1  0.877500  0.705500  0.752000  1.0
  C  C1073  1  0.275600  0.380500  0.245200  1.0
  C  C1074  1  0.724400  0.619500  0.754800  1.0
  C  C1075  1  0.253400  0.370000  0.226700  1.0
  C  C1076  1  0.746600  0.630000  0.773300  1.0
  C  C1077  1  0.227500  0.350100  0.245200  1.0
  C  C1078  1  0.772500  0.649900  0.754800  1.0
  C  C1079  1  0.224700  0.340800  0.282100  1.0
  C  C1080  1  0.775300  0.659200  0.717900  1.0
  C  C1081  1  0.248300  0.353200  0.299400  1.0
  C  C1082  1  0.751700  0.646800  0.700600  1.0
  C  C1083  1  0.365400  0.424800  0.317000  1.0
  C  C1084  1  0.634600  0.575200  0.683000  1.0
  C  C1085  1  0.389700  0.435500  0.333800  1.0
  C  C1086  1  0.610300  0.564500  0.666200  1.0
  C  C1087  1  0.383100  0.431900  0.370700  1.0
  C  C1088  1  0.616900  0.568100  0.629300  1.0
  C  C1089  1  0.351900  0.418500  0.389200  1.0
  C  C1090  1  0.648100  0.581500  0.610800  1.0
  C  C1091  1  0.330100  0.407400  0.371000  1.0
  C  C1092  1  0.669900  0.592600  0.629000  1.0
  C  C1093  1  0.537400  0.481000  0.314200  1.0
  C  C1094  1  0.462600  0.519000  0.685800  1.0
  C  C1095  1  0.504800  0.472600  0.332100  1.0
  C  C1096  1  0.495200  0.527400  0.667900  1.0
  C  C1097  1  0.498500  0.468500  0.369300  1.0
  C  C1098  1  0.501500  0.531500  0.630700  1.0
  C  C1099  1  0.524100  0.473600  0.386400  1.0
  C  C1100  1  0.475900  0.526400  0.613600  1.0
  C  C1101  1  0.557500  0.480800  0.367500  1.0
  C  C1102  1  0.442500  0.519200  0.632500  1.0
  C  C1103  1  0.534100  0.224800  0.223100  1.0
  C  C1104  1  0.465900  0.775200  0.776900  1.0
  C  C1105  1  0.502500  0.228400  0.246000  1.0
  C  C1106  1  0.497500  0.771600  0.754000  1.0
  C  C1107  1  0.494000  0.202800  0.275800  1.0
  C  C1108  1  0.506000  0.797200  0.724200  1.0
  C  C1109  1  0.519800  0.172700  0.279700  1.0
  C  C1110  1  0.480200  0.827300  0.720300  1.0
  C  C1111  1  0.552300  0.169300  0.256800  1.0
  C  C1112  1  0.447700  0.830700  0.743200  1.0
  C  C1113  1  0.459100  0.207600  0.301300  1.0
  C  C1114  1  0.540900  0.792400  0.698700  1.0
  C  C1115  1  0.420600  0.185000  0.348900  1.0
  C  C1116  1  0.579400  0.815000  0.651100  1.0
  C  C1117  1  0.406900  0.243000  0.321100  1.0
  C  C1118  1  0.593100  0.757000  0.678900  1.0
  C  C1119  1  0.409800  0.153000  0.377100  1.0
  C  C1120  1  0.590200  0.847000  0.622900  1.0
  C  C1121  1  0.363700  0.335700  0.285800  1.0
  C  C1122  1  0.636300  0.664300  0.714200  1.0
  C  C1123  1  0.387400  0.303500  0.287400  1.0
  C  C1124  1  0.612600  0.696500  0.712600  1.0
  C  C1125  1  0.383200  0.278000  0.317700  1.0
  C  C1126  1  0.616800  0.722000  0.682300  1.0
  C  C1127  1  0.355700  0.286300  0.345700  1.0
  C  C1128  1  0.644300  0.713700  0.654300  1.0
  C  C1129  1  0.334100  0.318700  0.341200  1.0
  C  C1130  1  0.665900  0.681300  0.658800  1.0
  C  C1131  1  0.575600  0.182600  0.135100  1.0
  C  C1132  1  0.424400  0.817400  0.864900  1.0
  C  C1133  1  0.564200  0.165500  0.111700  1.0
  C  C1134  1  0.435800  0.834500  0.888300  1.0
  C  C1135  1  0.568400  0.129200  0.117100  1.0
  C  C1136  1  0.431600  0.870800  0.882900  1.0
  C  C1137  1  0.581000  0.111200  0.147900  1.0
  C  C1138  1  0.419000  0.888800  0.852100  1.0
  C  C1139  1  0.591800  0.129200  0.170200  1.0
  C  C1140  1  0.408200  0.870800  0.829800  1.0
  C  C1141  1  0.519300  0.185900  0.962700  1.0
  C  C1142  1  0.480700  0.814100  0.037300  1.0
  C  C1143  1  0.526700  0.167500  0.994900  1.0
  C  C1144  1  0.473300  0.832500  0.005100  1.0
  C  C1145  1  0.531200  0.130300  0.001600  1.0
  C  C1146  1  0.468800  0.869700  0.998400  1.0
  C  C1147  1  0.526200  0.113400  0.976700  1.0
  C  C1148  1  0.473800  0.886600  0.023300  1.0
  C  C1149  1  0.518800  0.132200  0.943500  1.0
  C  C1150  1  0.481200  0.867800  0.056500  1.0
  C  C1151  1  0.664100  0.214700  0.136200  1.0
  C  C1152  1  0.335900  0.785300  0.863800  1.0
  C  C1153  1  0.697100  0.212100  0.112700  1.0
  C  C1154  1  0.302900  0.787900  0.887300  1.0
  C  C1155  1  0.721700  0.181900  0.116800  1.0
  C  C1156  1  0.278300  0.818100  0.883200  1.0
  C  C1157  1  0.714500  0.153900  0.143800  1.0
  C  C1158  1  0.285500  0.846100  0.856200  1.0
  C  C1159  1  0.680700  0.158300  0.166900  1.0
  C  C1160  1  0.319300  0.841700  0.833100  1.0
  C  C1161  1  0.757100  0.178700  0.092900  1.0
  C  C1162  1  0.242900  0.821300  0.907100  1.0
  C  C1163  1  0.814900  0.150300  0.078500  1.0
  C  C1164  1  0.185100  0.849700  0.921500  1.0
  C  C1165  1  0.791700  0.199200  0.040400  1.0
  C  C1166  1  0.208300  0.800800  0.959600  1.0
  C  C1167  1  0.846700  0.121000  0.088800  1.0
  C  C1168  1  0.153300  0.879000  0.911200  1.0
  C  C1169  1  0.775300  0.276800  0.966500  1.0
  C  C1170  1  0.224700  0.723200  0.033500  1.0
  C  C1171  1  0.772400  0.253300  0.998200  1.0
  C  C1172  1  0.227600  0.746700  0.001800  1.0
  C  C1173  1  0.797400  0.224400  0.006000  1.0
  C  C1174  1  0.202600  0.775600  0.994000  1.0
  C  C1175  1  0.827600  0.219600  0.980400  1.0
  C  C1176  1  0.172400  0.780400  0.019600  1.0
  C  C1177  1  0.829800  0.243100  0.947900  1.0
  C  C1178  1  0.170200  0.756900  0.052100  1.0
  C  C1179  1  0.619300  0.254500  0.224000  1.0
  C  C1180  1  0.380700  0.745500  0.776000  1.0
  C  C1181  1  0.629900  0.273700  0.246500  1.0
  C  C1182  1  0.370100  0.726300  0.753500  1.0
  C  C1183  1  0.650000  0.254600  0.272800  1.0
  C  C1184  1  0.350000  0.745400  0.727200  1.0
  C  C1185  1  0.659100  0.218000  0.275000  1.0
  C  C1186  1  0.340900  0.782000  0.725000  1.0
  C  C1187  1  0.646700  0.200500  0.251800  1.0
  C  C1188  1  0.353300  0.799500  0.748200  1.0
  C  C1189  1  0.660500  0.275600  0.298200  1.0
  C  C1190  1  0.339500  0.724400  0.701800  1.0
  C  C1191  1  0.686600  0.273500  0.346700  1.0
  C  C1192  1  0.313400  0.726500  0.653300  1.0
  C  C1193  1  0.661100  0.327800  0.316400  1.0
  C  C1194  1  0.338900  0.672200  0.683600  1.0
  C  C1195  1  0.704100  0.252000  0.379000  1.0
  C  C1196  1  0.295900  0.748000  0.621000  1.0
  C  C1197  1  0.623100  0.423000  0.283200  1.0
  C  C1198  1  0.376900  0.577000  0.716800  1.0
  C  C1199  1  0.633700  0.385600  0.286300  1.0
  C  C1200  1  0.366300  0.614400  0.713700  1.0
  C  C1201  1  0.652400  0.366200  0.312500  1.0
  C  C1202  1  0.347600  0.633800  0.687500  1.0
  C  C1203  1  0.659200  0.386000  0.335600  1.0
  C  C1204  1  0.340800  0.614000  0.664400  1.0
  C  C1205  1  0.649800  0.424100  0.331300  1.0
  C  C1206  1  0.350200  0.575900  0.668700  1.0
  C  C1207  1  0.666667  0.512700  0.239200  1.0
  C  C1208  1  0.333333  0.487300  0.760800  1.0
  C  C1209  1  0.698100  0.522100  0.219600  1.0
  C  C1210  1  0.301900  0.477900  0.780400  1.0
  C  C1211  1  0.723700  0.528100  0.236900  1.0
  C  C1212  1  0.276300  0.471900  0.763100  1.0
  C  C1213  1  0.719600  0.518700  0.273900  1.0
  C  C1214  1  0.280400  0.481300  0.726100  1.0
  C  C1215  1  0.686500  0.509500  0.292300  1.0
  C  C1216  1  0.313500  0.490500  0.707700  1.0
  C  C1217  1  0.771300  0.579900  0.067200  1.0
  C  C1218  1  0.228700  0.420100  0.932800  1.0
  C  C1219  1  0.768600  0.568200  0.104300  1.0
  C  C1220  1  0.231400  0.431800  0.895700  1.0
  C  C1221  1  0.795200  0.573000  0.122300  1.0
  C  C1222  1  0.204800  0.427000  0.877700  1.0
  C  C1223  1  0.823100  0.587800  0.103700  1.0
  C  C1224  1  0.176900  0.412200  0.896300  1.0
  C  C1225  1  0.824700  0.598500  0.067400  1.0
  C  C1226  1  0.175300  0.401500  0.932600  1.0
  C  C1227  1  0.578900  0.567900  0.271400  1.0
  C  C1228  1  0.421100  0.432100  0.728600  1.0
  C  C1229  1  0.568400  0.603400  0.268100  1.0
  C  C1230  1  0.431600  0.396600  0.731900  1.0
  C  C1231  1  0.572700  0.622600  0.294800  1.0
  C  C1232  1  0.427300  0.377400  0.705200  1.0
  C  C1233  1  0.587000  0.603900  0.323400  1.0
  C  C1234  1  0.413000  0.396100  0.676600  1.0
  C  C1235  1  0.598400  0.567900  0.324900  1.0
  C  C1236  1  0.401600  0.432100  0.675100  1.0
  C  C1237  1  0.513400  0.738400  0.166700  1.0
  C  C1238  1  0.486600  0.261600  0.833300  1.0
  C  C1239  1  0.524000  0.719200  0.197500  1.0
  C  C1240  1  0.476000  0.280800  0.802500  1.0
  C  C1241  1  0.527900  0.737100  0.224000  1.0
  C  C1242  1  0.472100  0.262900  0.776000  1.0
  C  C1243  1  0.518700  0.774000  0.219900  1.0
  C  C1244  1  0.481300  0.226000  0.780100  1.0
  C  C1245  1  0.509700  0.791600  0.187300  1.0
  C  C1246  1  0.490300  0.208400  0.812700  1.0
  C  C1247  1  0.567400  0.771800  0.078400  1.0
  C  C1248  1  0.432600  0.228200  0.921600  1.0
  C  C1249  1  0.604000  0.768800  0.068000  1.0
  C  C1250  1  0.396000  0.231200  0.932000  1.0
  C  C1251  1  0.622700  0.794200  0.072300  1.0
  C  C1252  1  0.377300  0.205800  0.927700  1.0
  C  C1253  1  0.604300  0.824000  0.086600  1.0
  C  C1254  1  0.395700  0.176000  0.913400  1.0
  C  C1255  1  0.566500  0.824000  0.097700  1.0
  C  C1256  1  0.433500  0.176000  0.902300  1.0
  C  C1257  1  0.739100  0.667000  0.012700  1.0
  C  C1258  1  0.260900  0.333000  0.987300  1.0
  C  C1259  1  0.719600  0.697600  0.023200  1.0
  C  C1260  1  0.280400  0.302400  0.976800  1.0
  C  C1261  1  0.737700  0.723000  0.028600  1.0
  C  C1262  1  0.262300  0.277000  0.971400  1.0
  C  C1263  1  0.774100  0.718800  0.020000  1.0
  C  C1264  1  0.225900  0.281200  0.980000  1.0
  C  C1265  1  0.792300  0.686700  0.009300  1.0
  C  C1266  1  0.207700  0.313300  0.990700  1.0
  C  C1267  1  0.563900  0.663800  0.289100  0.267
  C  C1268  1  0.436100  0.336200  0.710900  0.267
  C  C1269  1  0.590200  0.714300  0.296300  0.267
  C  C1270  1  0.409800  0.285700  0.703700  0.267
  C  C1271  1  0.549600  0.722400  0.252800  0.267
  C  C1272  1  0.450400  0.277600  0.747200  0.267
  C  C1273  1  0.609500  0.743200  0.304000  0.267
  C  C1274  1  0.390500  0.256800  0.696000  0.267
  C  C1275  1  0.561900  0.103400  0.096500  0.28
  C  C1276  1  0.438100  0.896600  0.903500  0.28
  C  C1277  1  0.574900  0.054900  0.061100  0.28
  C  C1278  1  0.425100  0.945100  0.938900  0.28
  C  C1279  1  0.544700  0.113800  0.037100  0.28
  C  C1280  1  0.455300  0.886200  0.962900  0.28
  C  C1281  1  0.585300  0.020800  0.049000  0.28
  C  C1282  1  0.414700  0.979200  0.951000  0.28
  C  C1283  1  0.725000  0.011100  0.814500  0.3
  C  C1284  1  0.275000  0.988900  0.185500  0.3
  C  C1285  1  0.714700  0.980500  0.876300  0.3
  C  C1286  1  0.285300  0.019500  0.123700  0.3
  C  C1287  1  0.752800  0.948900  0.830100  0.3
  C  C1288  1  0.247200  0.051100  0.169900  0.3
  C  C1289  1  0.700000  0.978600  0.912500  0.3
  C  C1290  1  0.300000  0.021400  0.087500  0.3
  C  C1291  1  0.019700  0.919500  0.881700  0.323
  C  C1292  1  0.980300  0.080500  0.118300  0.323
  C  C1293  1  0.966600  0.921800  0.928000  0.323
  C  C1294  1  0.033400  0.078200  0.072000  0.323
  C  C1295  1  0.973500  0.883800  0.882400  0.323
  C  C1296  1  0.026500  0.116200  0.117600  0.323
  C  C1297  1  0.949300  0.938300  0.960200  0.323
  C  C1298  1  0.050700  0.061700  0.039800  0.323
  C  C1299  1  0.114700  0.612400  0.535300  0.329
  C  C1300  1  0.885300  0.387600  0.464700  0.329
  C  C1301  1  0.075200  0.573900  0.525700  0.329
  C  C1302  1  0.924800  0.426100  0.474300  0.329
  C  C1303  1  0.090000  0.624300  0.479700  0.329
  C  C1304  1  0.910000  0.375700  0.520300  0.329
  C  C1305  1  0.062900  0.542800  0.553200  0.329
  C  C1306  1  0.937100  0.457200  0.446800  0.329
  C  C1307  1  0.994700  0.687500  0.777400  0.35
  C  C1308  1  0.005300  0.312500  0.222600  0.35
  C  C1309  1  0.018400  0.623700  0.790200  0.35
  C  C1310  1  0.981600  0.376300  0.209800  0.35
  C  C1311  1  0.056000  0.664800  0.751800  0.35
  C  C1312  1  0.944000  0.335200  0.248200  0.35
  C  C1313  1  0.018200  0.586900  0.807900  0.35
  C  C1314  1  0.981800  0.413100  0.192100  0.35
  C  C1315  1  0.624400  0.981300  0.588300  0.36
  C  C1316  1  0.375600  0.018700  0.411700  0.36
  C  C1317  1  0.570100  0.024700  0.581300  0.36
  C  C1318  1  0.429900  0.975300  0.418700  0.36
  C  C1319  1  0.613800  0.036200  0.614200  0.36
  C  C1320  1  0.386200  0.963800  0.385800  0.36
  C  C1321  1  0.528200  0.051000  0.574000  0.36
  C  C1322  1  0.471800  0.949000  0.426000  0.36
  C  C1323  1  0.329800  0.742700  0.437100  0.38
  C  C1324  1  0.670200  0.257300  0.562900  0.38
  C  C1325  1  0.359200  0.683700  0.462000  0.38
  C  C1326  1  0.640800  0.316300  0.538000  0.38
  C  C1327  1  0.309300  0.716100  0.498700  0.38
  C  C1328  1  0.690700  0.283900  0.501300  0.38
  C  C1329  1  0.385900  0.653200  0.454800  0.38
  C  C1330  1  0.614100  0.346800  0.545200  0.38
  C  C1331  1  0.753700  0.546300  0.216400  0.42
  C  C1332  1  0.246300  0.453700  0.783600  0.42
  C  C1333  1  0.804300  0.574900  0.219400  0.42
  C  C1334  1  0.195700  0.425100  0.780600  0.42
  C  C1335  1  0.791100  0.569400  0.161300  0.42
  C  C1336  1  0.208900  0.430600  0.838700  0.42
  C  C1337  1  0.828800  0.581500  0.237300  0.42
  C  C1338  1  0.171200  0.418500  0.762700  0.42
  C  C1339  1  0.408200  0.444300  0.387600  0.57
  C  C1340  1  0.591800  0.555700  0.612400  0.57
  C  C1341  1  0.417700  0.460100  0.443100  0.57
  C  C1342  1  0.582300  0.539900  0.556900  0.57
  C  C1343  1  0.465400  0.460900  0.391200  0.57
  C  C1344  1  0.534600  0.539100  0.608800  0.57
  C  C1345  1  0.409400  0.462900  0.480100  0.57
  C  C1346  1  0.590600  0.537100  0.519900  0.57
  C  C1347  1  0.661000  0.791200  0.057900  0.57
  C  C1348  1  0.339000  0.208800  0.942100  0.57
  C  C1349  1  0.714500  0.819500  0.046800  0.57
  C  C1350  1  0.285500  0.180500  0.953200  0.57
  C  C1351  1  0.719400  0.758000  0.036500  0.57
  C  C1352  1  0.280600  0.242000  0.963500  0.57
  C  C1353  1  0.733900  0.850200  0.045100  0.57
  C  C1354  1  0.266100  0.149800  0.954900  0.57
  C  C1355  1  0.758200  0.536600  0.219400  0.58
  C  C1356  1  0.241800  0.463400  0.780600  0.58
  C  C1357  1  0.818700  0.549000  0.215500  0.58
  C  C1358  1  0.181300  0.451000  0.784500  0.58
  C  C1359  1  0.791800  0.558100  0.161300  0.58
  C  C1360  1  0.208200  0.441900  0.838700  0.58
  C  C1361  1  0.847800  0.550800  0.234000  0.58
  C  C1362  1  0.152200  0.449200  0.766000  0.58
  C  C1363  1  0.334700  0.750500  0.446400  0.62
  C  C1364  1  0.665300  0.249500  0.553600  0.62
  C  C1365  1  0.375300  0.700100  0.473000  0.62
  C  C1366  1  0.624700  0.299900  0.527000  0.62
  C  C1367  1  0.314800  0.716300  0.504700  0.62
  C  C1368  1  0.685200  0.283700  0.495300  0.62
  C  C1369  1  0.409100  0.673000  0.474400  0.62
  C  C1370  1  0.590900  0.327000  0.525600  0.62
  C  C1371  1  0.618300  0.975200  0.590700  0.64
  C  C1372  1  0.381700  0.024800  0.409300  0.64
  C  C1373  1  0.561300  0.009500  0.614000  0.64
  C  C1374  1  0.438700  0.990500  0.386000  0.64
  C  C1375  1  0.617600  0.024300  0.622700  0.64
  C  C1376  1  0.382400  0.975700  0.377300  0.64
  C  C1377  1  0.522300  0.017200  0.610200  0.64
  C  C1378  1  0.477700  0.982800  0.389800  0.64
  C  C1379  1  0.000100  0.689900  0.787100  0.65
  C  C1380  1  0.999900  0.310100  0.212900  0.65
  C  C1381  1  0.035700  0.634200  0.811500  0.65
  C  C1382  1  0.964300  0.365800  0.188500  0.65
  C  C1383  1  0.057100  0.666667  0.752700  0.65
  C  C1384  1  0.942900  0.333333  0.247300  0.65
  C  C1385  1  0.034800  0.602700  0.840400  0.65
  C  C1386  1  0.965200  0.397300  0.159600  0.65
  C  C1387  1  0.121300  0.618100  0.525200  0.671
  C  C1388  1  0.878700  0.381900  0.474800  0.671
  C  C1389  1  0.112700  0.562100  0.509600  0.671
  C  C1390  1  0.887300  0.437900  0.490400  0.671
  C  C1391  1  0.088800  0.619500  0.476300  0.671
  C  C1392  1  0.911200  0.380500  0.523700  0.671
  C  C1393  1  0.116000  0.523100  0.514900  0.671
  C  C1394  1  0.884000  0.476900  0.485100  0.671
  C  C1395  1  0.022900  0.908900  0.878400  0.677
  C  C1396  1  0.977100  0.091100  0.121600  0.677
  C  C1397  1  0.991500  0.888000  0.937800  0.677
  C  C1398  1  0.008500  0.112000  0.062200  0.677
  C  C1399  1  0.972100  0.877500  0.884500  0.677
  C  C1400  1  0.027900  0.122500  0.115500  0.677
  C  C1401  1  0.978600  0.888800  0.978000  0.677
  C  C1402  1  0.021400  0.111200  0.022000  0.677
  C  C1403  1  0.713200  0.999100  0.810400  0.7
  C  C1404  1  0.286800  0.000900  0.189600  0.7
  C  C1405  1  0.690600  0.967700  0.869200  0.7
  C  C1406  1  0.309400  0.032300  0.130800  0.7
  C  C1407  1  0.747000  0.942500  0.835300  0.7
  C  C1408  1  0.253000  0.057500  0.164700  0.7
  C  C1409  1  0.661700  0.964400  0.900500  0.7
  C  C1410  1  0.338300  0.035600  0.099500  0.7
  C  C1411  1  0.557500  0.111600  0.092000  0.72
  C  C1412  1  0.442500  0.888400  0.908000  0.72
  C  C1413  1  0.546300  0.055400  0.079300  0.72
  C  C1414  1  0.453700  0.944600  0.920700  0.72
  C  C1415  1  0.537800  0.110200  0.035800  0.72
  C  C1416  1  0.462200  0.889800  0.964200  0.72
  C  C1417  1  0.549300  0.016700  0.086300  0.72
  C  C1418  1  0.450700  0.983300  0.913700  0.72
  C  C1419  1  0.562500  0.660600  0.291300  0.733
  C  C1420  1  0.437500  0.339400  0.708700  0.733
  C  C1421  1  0.553700  0.716600  0.315100  0.733
  C  C1422  1  0.446300  0.283400  0.684900  0.733
  C  C1423  1  0.539200  0.716900  0.256000  0.733
  C  C1424  1  0.460800  0.283100  0.744000  0.733
  C  C1425  1  0.557800  0.733800  0.344800  0.733
  C  C1426  1  0.442200  0.266200  0.655200  0.733
  N  N1427  1  0.027700  0.693600  0.756000  0.35
  N  N1428  1  0.972300  0.306400  0.244000  0.35
  N  N1429  1  0.990100  0.652500  0.794400  0.35
  N  N1430  1  0.009900  0.347500  0.205600  0.35
  N  N1431  1  0.051400  0.629800  0.768800  0.35
  N  N1432  1  0.948600  0.370200  0.231200  0.35
  N  N1433  1  0.743300  0.971800  0.807400  0.7
  N  N1434  1  0.256700  0.028200  0.192600  0.7
  N  N1435  1  0.686900  0.997000  0.841300  0.7
  N  N1436  1  0.313100  0.003000  0.158700  0.7
  N  N1437  1  0.720700  0.940400  0.866200  0.7
  N  N1438  1  0.279300  0.059600  0.133800  0.7
  N  N1439  1  0.699900  0.087600  0.726400  1.0
  N  N1440  1  0.300100  0.912400  0.273600  1.0
  N  N1441  1  0.834600  0.857400  0.817400  1.0
  N  N1442  1  0.165400  0.142600  0.182600  1.0
  N  N1443  1  0.684300  0.889300  0.545100  1.0
  N  N1444  1  0.315700  0.110700  0.454900  1.0
  N  N1445  1  0.666900  0.094900  0.663100  1.0
  N  N1446  1  0.333100  0.905100  0.336900  1.0
  N  N1447  1  0.722900  0.821100  0.575630  1.0
  N  N1448  1  0.277100  0.178900  0.424370  1.0
  N  N1449  1  0.759400  0.782000  0.699700  1.0
  N  N1450  1  0.240600  0.218000  0.300300  1.0
  N  N1451  1  0.709200  0.753800  0.703700  1.0
  N  N1452  1  0.290800  0.246200  0.296300  1.0
  N  N1453  1  0.738200  0.747100  0.753900  1.0
  N  N1454  1  0.261800  0.252900  0.246100  1.0
  N  N1455  1  0.839600  0.797100  0.784900  1.0
  N  N1456  1  0.160400  0.202900  0.215100  1.0
  N  N1457  1  0.912400  0.774400  0.800300  1.0
  N  N1458  1  0.087600  0.225600  0.199700  1.0
  N  N1459  1  0.143500  0.682300  0.665100  1.0
  N  N1460  1  0.856500  0.317700  0.334900  1.0
  N  N1461  1  0.111300  0.954500  0.815400  1.0
  N  N1462  1  0.888700  0.045500  0.184600  1.0
  N  N1463  1  0.905000  0.836800  0.833500  1.0
  N  N1464  1  0.095000  0.163200  0.166500  1.0
  N  N1465  1  0.202000  0.715600  0.660500  1.0
  N  N1466  1  0.798000  0.284400  0.339500  1.0
  N  N1467  1  0.218400  0.800500  0.740000  1.0
  N  N1468  1  0.781600  0.199500  0.260000  1.0
  N  N1469  1  0.252400  0.745800  0.761400  1.0
  N  N1470  1  0.747600  0.254200  0.238600  1.0
  N  N1471  1  0.246100  0.797000  0.791300  1.0
  N  N1472  1  0.753900  0.203000  0.208700  1.0
  N  N1473  1  0.178100  0.924170  0.777500  1.0
  N  N1474  1  0.821900  0.075830  0.222500  1.0
  N  N1475  1  0.163200  0.666667  0.595200  1.0
  N  N1476  1  0.836800  0.333333  0.404800  1.0
  N  N1477  1  0.045300  0.684900  0.388900  1.0
  N  N1478  1  0.954700  0.315100  0.611100  1.0
  N  N1479  1  0.317700  0.835100  0.357000  1.0
  N  N1480  1  0.682300  0.164900  0.643000  1.0
  N  N1481  1  0.225800  0.700200  0.588000  1.0
  N  N1482  1  0.774200  0.299800  0.412000  1.0
  N  N1483  1  0.075700  0.722200  0.321700  1.0
  N  N1484  1  0.924300  0.277800  0.678300  1.0
  N  N1485  1  0.199600  0.759600  0.282100  1.0
  N  N1486  1  0.800400  0.240400  0.717900  1.0
  N  N1487  1  0.202900  0.708900  0.254000  1.0
  N  N1488  1  0.797100  0.291100  0.746000  1.0
  N  N1489  1  0.254300  0.738700  0.247000  1.0
  N  N1490  1  0.745700  0.261300  0.753000  1.0
  N  N1491  1  0.284700  0.839700  0.297800  1.0
  N  N1492  1  0.715300  0.160300  0.702200  1.0
  N  N1493  1  0.974600  0.708700  0.371000  1.0
  N  N1494  1  0.025400  0.291300  0.629000  1.0
  N  N1495  1  0.848200  0.723670  0.439800  1.0
  N  N1496  1  0.151800  0.276330  0.560200  1.0
  N  N1497  1  0.856500  0.664800  0.421800  1.0
  N  N1498  1  0.143500  0.335200  0.578200  1.0
  N  N1499  1  0.800000  0.687800  0.457100  1.0
  N  N1500  1  0.200000  0.312200  0.542900  1.0
  N  N1501  1  0.748300  0.803500  0.504600  1.0
  N  N1502  1  0.251700  0.196500  0.495400  1.0
  N  N1503  1  0.804000  0.004400  0.247400  1.0
  N  N1504  1  0.196000  0.995600  0.752600  1.0
  N  N1505  1  0.723910  0.939800  0.348300  1.0
  N  N1506  1  0.276090  0.060200  0.651700  1.0
  N  N1507  1  0.688300  0.956800  0.299800  1.0
  N  N1508  1  0.311700  0.043200  0.700200  1.0
  N  N1509  1  0.664600  0.922700  0.356800  1.0
  N  N1510  1  0.335400  0.077300  0.643200  1.0
  N  N1511  1  0.708400  0.870700  0.474700  1.0
  N  N1512  1  0.291600  0.129300  0.525300  1.0
  N  N1513  1  0.004800  0.748100  0.304100  1.0
  N  N1514  1  0.995200  0.251900  0.695900  1.0
  N  N1515  1  0.940000  0.848100  0.223730  1.0
  N  N1516  1  0.060000  0.151900  0.776270  1.0
  N  N1517  1  0.958300  0.800300  0.187400  1.0
  N  N1518  1  0.041700  0.199700  0.812600  1.0
  N  N1519  1  0.921100  0.856000  0.165400  1.0
  N  N1520  1  0.078900  0.144000  0.834600  1.0
  N  N1521  1  0.871000  0.974700  0.208500  1.0
  N  N1522  1  0.129000  0.025300  0.791500  1.0
  N  N1523  1  0.218300  0.727730  0.126760  1.0
  N  N1524  1  0.781700  0.272270  0.873240  1.0
  N  N1525  1  0.310400  0.792900  0.152600  1.0
  N  N1526  1  0.689600  0.207100  0.847400  1.0
  N  N1527  1  0.255000  0.824300  0.178800  1.0
  N  N1528  1  0.745000  0.175700  0.821200  1.0
  N  N1529  1  0.309600  0.844300  0.179100  1.0
  N  N1530  1  0.690400  0.155700  0.820900  1.0
  N  N1531  1  0.441110  0.806500  0.130600  1.0
  N  N1532  1  0.558890  0.193500  0.869400  1.0
  N  N1533  1  0.271410  0.440120  0.304530  1.0
  N  N1534  1  0.728590  0.559880  0.695470  1.0
  N  N1535  1  0.203300  0.562100  0.260500  1.0
  N  N1536  1  0.796700  0.437900  0.739500  1.0
  N  N1537  1  0.174100  0.548600  0.321300  1.0
  N  N1538  1  0.825900  0.451400  0.678700  1.0
  N  N1539  1  0.153100  0.603200  0.283400  1.0
  N  N1540  1  0.846900  0.396800  0.716600  1.0
  N  N1541  1  0.187300  0.662890  0.156300  1.0
  N  N1542  1  0.812700  0.337110  0.843700  1.0
  N  N1543  1  0.164800  0.663520  0.089400  1.0
  N  N1544  1  0.835200  0.336480  0.910600  1.0
  N  N1545  1  0.129660  0.560700  0.048100  1.0
  N  N1546  1  0.870340  0.439300  0.951900  1.0
  N  N1547  1  0.073400  0.602000  0.057600  1.0
  N  N1548  1  0.926600  0.398000  0.942400  1.0
  N  N1549  1  0.073800  0.544000  0.040500  1.0
  N  N1550  1  0.926200  0.456000  0.959500  1.0
  N  N1551  1  0.168800  0.436200  0.015200  1.0
  N  N1552  1  0.831200  0.563800  0.984800  1.0
  N  N1553  1  0.193600  0.370100  0.058690  1.0
  N  N1554  1  0.806400  0.629900  0.941310  1.0
  N  N1555  1  0.207230  0.347500  0.189500  1.0
  N  N1556  1  0.792770  0.652500  0.810500  1.0
  N  N1557  1  0.155700  0.321100  0.190800  1.0
  N  N1558  1  0.844300  0.678900  0.809200  1.0
  N  N1559  1  0.175500  0.321600  0.245600  1.0
  N  N1560  1  0.824500  0.678400  0.754400  1.0
  N  N1561  1  0.272070  0.373190  0.281800  1.0
  N  N1562  1  0.727930  0.626810  0.718200  1.0
  N  N1563  1  0.336580  0.410500  0.335200  1.0
  N  N1564  1  0.663420  0.589500  0.664800  1.0
  N  N1565  1  0.563900  0.484660  0.331200  1.0
  N  N1566  1  0.436100  0.515340  0.668800  1.0
  N  N1567  1  0.559300  0.195400  0.228640  1.0
  N  N1568  1  0.440700  0.804600  0.771360  1.0
  N  N1569  1  0.437900  0.239500  0.296200  1.0
  N  N1570  1  0.562100  0.760500  0.703800  1.0
  N  N1571  1  0.452000  0.178800  0.326300  1.0
  N  N1572  1  0.548000  0.821200  0.673700  1.0
  N  N1573  1  0.397300  0.216000  0.347300  1.0
  N  N1574  1  0.602700  0.784000  0.652700  1.0
  N  N1575  1  0.337320  0.343700  0.311780  1.0
  N  N1576  1  0.662680  0.656300  0.688220  1.0
  N  N1577  1  0.589330  0.164800  0.163680  1.0
  N  N1578  1  0.410670  0.835200  0.836320  1.0
  N  N1579  1  0.515200  0.168900  0.936300  1.0
  N  N1580  1  0.484800  0.831100  0.063700  1.0
  N  N1581  1  0.656200  0.187800  0.162790  1.0
  N  N1582  1  0.343800  0.812200  0.837210  1.0
  N  N1583  1  0.760200  0.203500  0.061500  1.0
  N  N1584  1  0.239800  0.796500  0.938500  1.0
  N  N1585  1  0.783400  0.152100  0.102500  1.0
  N  N1586  1  0.216600  0.847900  0.897500  1.0
  N  N1587  1  0.821600  0.173500  0.048300  1.0
  N  N1588  1  0.178400  0.826500  0.951700  1.0
  N  N1589  1  0.804100  0.271590  0.940190  1.0
  N  N1590  1  0.195900  0.728410  0.059810  1.0
  N  N1591  1  0.626700  0.218200  0.227540  1.0
  N  N1592  1  0.373300  0.781800  0.772460  1.0
  N  N1593  1  0.652000  0.310800  0.293190  1.0
  N  N1594  1  0.348000  0.689200  0.706810  1.0
  N  N1595  1  0.678400  0.254300  0.324600  1.0
  N  N1596  1  0.321600  0.745700  0.675400  1.0
  N  N1597  1  0.679300  0.309900  0.343600  1.0
  N  N1598  1  0.320700  0.690100  0.656400  1.0
  N  N1599  1  0.629700  0.441460  0.306830  1.0
  N  N1600  1  0.370300  0.558540  0.693170  1.0
  N  N1601  1  0.660800  0.506190  0.275600  1.0
  N  N1602  1  0.339200  0.493810  0.724400  1.0
  N  N1603  1  0.800400  0.594300  0.048700  1.0
  N  N1604  1  0.199600  0.405700  0.951300  1.0
  N  N1605  1  0.594400  0.548600  0.299900  1.0
  N  N1606  1  0.405600  0.451400  0.700100  1.0
  N  N1607  1  0.506090  0.775700  0.160600  1.0
  N  N1608  1  0.493910  0.224300  0.839400  1.0
  N  N1609  1  0.548700  0.800000  0.094100  1.0
  N  N1610  1  0.451300  0.200000  0.905900  1.0
  N  N1611  1  0.775000  0.660900  0.006200  1.0
  N  N1612  1  0.225000  0.339100  0.993800  1.0
  N  N1613  1  0.545600  0.686000  0.262600  0.267
  N  N1614  1  0.454400  0.314000  0.737400  0.267
  N  N1615  1  0.586200  0.678000  0.306000  0.267
  N  N1616  1  0.413800  0.322000  0.694000  0.267
  N  N1617  1  0.571900  0.736500  0.269700  0.267
  N  N1618  1  0.428100  0.263500  0.730300  0.267
  N  N1619  1  0.546100  0.126500  0.068700  0.28
  N  N1620  1  0.453900  0.873500  0.931300  0.28
  N  N1621  1  0.576300  0.067600  0.092700  0.28
  N  N1622  1  0.423700  0.932400  0.907300  0.28
  N  N1623  1  0.559100  0.078000  0.033300  0.28
  N  N1624  1  0.440900  0.922000  0.966700  0.28
  N  N1625  1  0.747000  0.979800  0.804300  0.3
  N  N1626  1  0.253000  0.020200  0.195700  0.3
  N  N1627  1  0.708800  0.011400  0.850500  0.3
  N  N1628  1  0.291200  0.988600  0.149500  0.3
  N  N1629  1  0.736700  0.949200  0.866100  0.3
  N  N1630  1  0.263300  0.050800  0.133900  0.3
  N  N1631  1  0.006600  0.894900  0.866800  0.323
  N  N1632  1  0.993400  0.105100  0.133200  0.323
  N  N1633  1  0.999700  0.933000  0.912400  0.323
  N  N1634  1  0.000300  0.067000  0.087600  0.323
  N  N1635  1  0.953500  0.897200  0.913100  0.323
  N  N1636  1  0.046500  0.102800  0.086900  0.323
  N  N1637  1  0.635500  0.003500  0.607900  0.36
  N  N1638  1  0.364500  0.996500  0.392100  0.36
  N  N1639  1  0.591700  0.991900  0.575000  0.36
  N  N1640  1  0.408300  0.008100  0.425000  0.36
  N  N1641  1  0.581100  0.046900  0.600900  0.36
  N  N1642  1  0.418900  0.953100  0.399100  0.36
  N  N1643  1  0.306300  0.744600  0.469900  0.38
  N  N1644  1  0.693700  0.255400  0.530100  0.38
  N  N1645  1  0.356200  0.712300  0.433200  0.38
  N  N1646  1  0.643800  0.287700  0.566800  0.38
  N  N1647  1  0.335700  0.685600  0.494800  0.38
  N  N1648  1  0.664300  0.314400  0.505200  0.38
  N  N1649  1  0.761800  0.552200  0.178700  0.42
  N  N1650  1  0.238200  0.447800  0.821300  0.42
  N  N1651  1  0.775000  0.557700  0.236800  0.42
  N  N1652  1  0.225000  0.442300  0.763200  0.42
  N  N1653  1  0.812300  0.580700  0.181700  0.42
  N  N1654  1  0.187700  0.419300  0.818300  0.42
  N  N1655  1  0.433600  0.455200  0.371500  0.43
  N  N1656  1  0.566400  0.544800  0.628500  0.43
  N  N1657  1  0.404600  0.429900  0.430500  0.43
  N  N1658  1  0.595400  0.570100  0.569500  0.43
  N  N1659  1  0.462900  0.448800  0.423800  0.43
  N  N1660  1  0.537100  0.551200  0.576200  0.43
  N  N1661  1  0.679000  0.761600  0.051600  0.43
  N  N1662  1  0.321000  0.238400  0.948400  0.43
  N  N1663  1  0.681900  0.812800  0.079200  0.43
  N  N1664  1  0.318100  0.187200  0.920800  0.43
  N  N1665  1  0.737000  0.775600  0.056000  0.43
  N  N1666  1  0.263000  0.224400  0.944000  0.43
  N  N1667  1  0.443200  0.450100  0.371500  0.57
  N  N1668  1  0.556800  0.549900  0.628500  0.57
  N  N1669  1  0.395500  0.449300  0.423400  0.57
  N  N1670  1  0.604500  0.550700  0.576600  0.57
  N  N1671  1  0.452600  0.465900  0.427000  0.57
  N  N1672  1  0.547400  0.534100  0.573000  0.57
  N  N1673  1  0.682100  0.759600  0.047400  0.57
  N  N1674  1  0.317900  0.240400  0.952600  0.57
  N  N1675  1  0.677300  0.821100  0.057600  0.57
  N  N1676  1  0.322700  0.178900  0.942400  0.57
  N  N1677  1  0.735600  0.787900  0.036200  0.57
  N  N1678  1  0.264400  0.212100  0.963800  0.57
  N  N1679  1  0.760400  0.546800  0.182000  0.58
  N  N1680  1  0.239600  0.453200  0.818000  0.58
  N  N1681  1  0.787300  0.537700  0.236100  0.58
  N  N1682  1  0.212700  0.462300  0.763900  0.58
  N  N1683  1  0.821000  0.559200  0.178100  0.58
  N  N1684  1  0.179000  0.440800  0.821900  0.58
  N  N1685  1  0.307900  0.744600  0.476400  0.62
  N  N1686  1  0.692100  0.255400  0.523600  0.62
  N  N1687  1  0.368400  0.728300  0.444700  0.62
  N  N1688  1  0.631600  0.271700  0.555300  0.62
  N  N1689  1  0.348500  0.694100  0.503000  0.62
  N  N1690  1  0.651500  0.305900  0.497000  0.62
  N  N1691  1  0.636800  0.996500  0.604300  0.64
  N  N1692  1  0.363200  0.003500  0.395700  0.64
  N  N1693  1  0.580600  0.981700  0.595500  0.64
  N  N1694  1  0.419400  0.018300  0.404500  0.64
  N  N1695  1  0.579800  0.030800  0.627600  0.64
  N  N1696  1  0.420200  0.969200  0.372400  0.64
  N  N1697  1  0.026200  0.692900  0.756000  0.65
  N  N1698  1  0.973800  0.307100  0.244000  0.65
  N  N1699  1  0.004800  0.660500  0.814800  0.65
  N  N1700  1  0.995200  0.339500  0.185200  0.65
  N  N1701  1  0.061800  0.637200  0.780400  0.65
  N  N1702  1  0.938200  0.362800  0.219600  0.65
  N  N1703  1  0.548100  0.129400  0.058800  0.72
  N  N1704  1  0.451900  0.870600  0.941200  0.72
  N  N1705  1  0.556600  0.074600  0.102300  0.72
  N  N1706  1  0.443400  0.925400  0.897700  0.72
  N  N1707  1  0.536900  0.073200  0.046000  0.72
  N  N1708  1  0.463100  0.926800  0.954000  0.72
  N  N1709  1  0.549900  0.679400  0.259900  0.733
  N  N1710  1  0.450100  0.320600  0.740100  0.733
  N  N1711  1  0.564400  0.679100  0.318900  0.733
  N  N1712  1  0.435600  0.320900  0.681100  0.733
  N  N1713  1  0.541100  0.735500  0.283600  0.733
  N  N1714  1  0.458900  0.264500  0.716400  0.733
  N  N1715  1  0.111400  0.633200  0.501400  0.329
  N  N1716  1  0.888600  0.366800  0.498600  0.329
  N  N1717  1  0.096600  0.582800  0.547500  0.329
  N  N1718  1  0.903400  0.417200  0.452500  0.329
  N  N1719  1  0.071800  0.594700  0.491800  0.329
  N  N1720  1  0.928200  0.405300  0.508200  0.329
  N  N1721  1  0.102500  0.637700  0.497800  0.671
  N  N1722  1  0.897500  0.362300  0.502200  0.671
  N  N1723  1  0.126400  0.580400  0.531100  0.671
  N  N1724  1  0.873600  0.419600  0.468900  0.671
  N  N1725  1  0.093900  0.581700  0.482200  0.671
  N  N1726  1  0.906100  0.418300  0.517800  0.671
  N  N1727  1  0.999500  0.894900  0.862700  0.677
  N  N1728  1  0.000500  0.105100  0.137300  0.677
  N  N1729  1  0.018800  0.905400  0.916000  0.677
  N  N1730  1  0.981200  0.094600  0.084000  0.677
  N  N1731  1  0.968100  0.874000  0.922100  0.677
  N  N1732  1  0.031900  0.126000  0.077900  0.677
  O  O1733  1  0.287500  0.864200  0.700000  1.0
  O  O1734  1  0.712500  0.135800  0.300000  1.0
  O  O1735  1  0.814100  0.723400  0.634300  1.0
  O  O1736  1  0.185900  0.276600  0.365700  1.0
  O  O1737  1  0.311500  0.576400  0.189000  1.0
  O  O1738  1  0.688500  0.423600  0.811000  1.0
  O  O1739  1  0.824200  0.989300  0.730900  1.0
  O  O1740  1  0.175800  0.010700  0.269100  1.0
  O  O1741  1  0.136100  0.817200  0.223600  1.0
  O  O1742  1  0.863900  0.182800  0.776400  1.0
  O  O1743  1  0.235100  0.823600  0.489400  1.0
  O  O1744  1  0.764900  0.176400  0.510600  1.0
  O  O1745  1  0.310600  0.344000  0.431500  1.0
  O  O1746  1  0.689400  0.656000  0.568500  1.0
  O  O1747  1  0.618200  0.404200  0.425600  1.0
  O  O1748  1  0.381800  0.595800  0.574400  1.0
  O  O1749  1  0.320000  0.669000  0.295000  0.4
  O  O1750  1  0.680000  0.331000  0.705000  0.4
  O  O1751  1  0.642100  0.728700  0.165000  0.4
  O  O1752  1  0.357900  0.271300  0.835000  0.4
  O  O1753  1  0.659000  0.695000  0.934000  0.4
  O  O1754  1  0.341000  0.305000  0.066000  0.4
  O  O1755  1  0.744000  0.845000  0.354000  0.4
  O  O1756  1  0.256000  0.155000  0.646000  0.4
  O  O1757  1  0.859000  0.454000  0.184000  0.4
  O  O1758  1  0.141000  0.546000  0.816000  0.4
  O  O1759  1  0.627000  0.124000  0.037000  0.4
  O  O1760  1  0.373000  0.876000  0.963000  0.4
  O  O1761  1  0.428000  0.337000  0.379000  0.4
  O  O1762  1  0.572000  0.663000  0.621000  0.4
  O  O1763  1  0.576000  0.926000  0.480000  0.4
  O  O1764  1  0.424000  0.074000  0.520000  0.4
  O  O1765  1  0.202000  0.659000  0.363000  0.4
  O  O1766  1  0.798000  0.341000  0.637000  0.4
  O  O1767  1  0.939000  0.949000  0.570000  0.4
  O  O1768  1  0.061000  0.051000  0.430000  0.4
  O  O1769  1  0.672300  0.580200  0.131100  0.5
  O  O1770  1  0.327700  0.419800  0.868900  0.5
  O  O1771  1  0.309100  0.282600  0.562000  0.5
  O  O1772  1  0.690900  0.717400  0.438000  0.5
  O  O1773  1  0.630200  0.697900  0.123400  0.5
  O  O1774  1  0.369800  0.302100  0.876600  0.5
  O  O1775  1  0.697000  0.516000  0.114000  0.5
  O  O1776  1  0.303000  0.484000  0.886000  0.5
  O  O1777  1  0.665000  0.629000  0.266000  0.5
  O  O1778  1  0.335000  0.371000  0.734000  0.5
  O  O1779  1  0.244800  0.825300  0.058500  0.5
  O  O1780  1  0.755200  0.174700  0.941500  0.5
  O  O1781  1  0.811000  0.779000  0.290000  0.5
  O  O1782  1  0.189000  0.221000  0.710000  0.5
  O  O1783  1  0.413000  0.512000  0.082000  0.5
  O  O1784  1  0.587000  0.488000  0.918000  0.5
  O  O1785  1  0.186000  0.638000  0.779000  0.5
  O  O1786  1  0.814000  0.362000  0.221000  0.5
  O  O1787  1  0.997000  0.765700  0.666100  0.7
  O  O1788  1  0.003000  0.234300  0.333900  0.7
  O  O1789  1  0.642300  0.401400  0.196500  0.7
  O  O1790  1  0.357700  0.598600  0.803500  0.7
  O  O1791  1  0.842800  0.722400  0.280200  0.7
  O  O1792  1  0.157200  0.277600  0.719800  0.7
  O  O1793  1  0.705000  0.057200  0.527500  0.7
  O  O1794  1  0.295000  0.942800  0.472500  0.7
  O  O1795  1  0.116100  0.825500  0.821200  0.7
  O  O1796  1  0.883900  0.174500  0.178800  0.7
  O  O1797  1  0.848900  0.733000  0.340500  0.7
  O  O1798  1  0.151100  0.267000  0.659500  0.7
  O  O1799  1  0.983100  0.909300  0.284400  0.7
  O  O1800  1  0.016900  0.090700  0.715600  0.7
  O  O1801  1  0.318200  0.704900  0.337400  0.7
  O  O1802  1  0.681800  0.295100  0.662600  0.7
  O  O1803  1  0.742400  0.659700  0.124800  0.7
  O  O1804  1  0.257600  0.340300  0.875200  0.7
  O  O1805  1  0.804200  0.970300  0.693300  0.7
  O  O1806  1  0.195800  0.029700  0.306700  0.7
  O  O1807  1  0.890100  0.797500  0.483200  0.7
  O  O1808  1  0.109900  0.202500  0.516800  0.7
  O  O1809  1  0.428000  0.300700  0.196700  0.8
  O  O1810  1  0.572000  0.699300  0.803300  0.8
  O  O1811  1  0.258600  0.592700  0.768700  0.8
  O  O1812  1  0.741400  0.407300  0.231300  0.8
  O  O1813  1  0.727600  0.732400  0.920000  0.8
  O  O1814  1  0.272400  0.267600  0.080000  0.8
  O  O1815  1  0.236200  0.543900  0.018200  0.8
  O  O1816  1  0.763800  0.456100  0.981800  0.8
  O  O1817  1  0.620000  0.704200  0.995100  0.8
  O  O1818  1  0.380000  0.295800  0.004900  0.8
  O  O1819  1  0.741800  0.008700  0.553600  0.8
  O  O1820  1  0.258200  0.991300  0.446400  0.8
  O  O1821  1  0.667800  0.303100  0.100900  0.8
  O  O1822  1  0.332200  0.696900  0.899100  0.8
  O  O1823  1  0.752200  0.975400  0.599900  0.8
  O  O1824  1  0.247800  0.024600  0.400100  0.8
  O  O1825  1  0.275700  0.871700  0.664900  0.8
  O  O1826  1  0.724300  0.128300  0.335100  0.8
  O  O1827  1  0.084000  0.746500  0.495400  0.8
  O  O1828  1  0.916000  0.253500  0.504600  0.8
  O  O1829  1  0.353700  0.686700  0.136800  0.8
  O  O1830  1  0.646300  0.313300  0.863200  0.8
  O  O1831  1  0.713600  0.314000  0.087400  0.8
  O  O1832  1  0.286400  0.686000  0.912600  0.8
  O  O1833  1  0.320000  0.364400  0.130000  0.9
  O  O1834  1  0.680000  0.635600  0.870000  0.9
  O  O1835  1  0.695600  0.296100  0.057500  0.9
  O  O1836  1  0.304400  0.703900  0.942500  0.9
  O  O1837  1  0.780200  0.996400  0.396900  0.9
  O  O1838  1  0.219800  0.003600  0.603100  0.9
  O  O1839  1  0.848600  0.821900  0.637900  0.9
  O  O1840  1  0.151400  0.178100  0.362100  0.9
  O  O1841  1  0.315000  0.301100  0.486100  0.9
  O  O1842  1  0.685000  0.698900  0.513900  0.9
  O  O1843  1  0.180600  0.872600  0.647800  0.9
  O  O1844  1  0.819400  0.127400  0.352200  0.9
  O  O1845  1  0.705800  0.014100  0.185600  0.9
  O  O1846  1  0.294200  0.985900  0.814400  0.9
  O  O1847  1  0.079600  0.027900  0.923600  0.9
  O  O1848  1  0.920400  0.972100  0.076400  0.9
  O  O1849  1  0.506800  0.236900  0.050900  0.9
  O  O1850  1  0.493200  0.763100  0.949100  0.9
  O  O1851  1  0.632700  0.370600  0.182700  0.9
  O  O1852  1  0.367300  0.629400  0.817300  0.9
  O  O1853  1  0.237700  0.846500  0.517600  0.9
  O  O1854  1  0.762300  0.153500  0.482400  0.9
  O  O1855  1  0.098800  0.563700  0.159500  0.6
  O  O1856  1  0.901200  0.436300  0.840500  0.6
  O  O1857  1  0.834700  0.310500  0.192500  0.6
  O  O1858  1  0.165300  0.689500  0.807500  0.6
  O  O1859  1  0.411500  0.728100  0.230300  0.6
  O  O1860  1  0.588500  0.271900  0.769700  0.6
  O  O1861  1  0.748000  0.322600  0.110000  0.6
  O  O1862  1  0.252000  0.677400  0.890000  0.6
  O  O1863  1  0.557400  0.294800  0.038000  0.6
  O  O1864  1  0.442600  0.705200  0.962000  0.6
  O  O1865  1  0.056300  0.413100  0.097400  0.6
  O  O1866  1  0.943700  0.586900  0.902600  0.6
  O  O1867  1  0.832800  0.744800  0.576900  0.6
  O  O1868  1  0.167200  0.255200  0.423100  0.6
  O  O1869  1  0.746000  0.372000  0.211000  0.6
  O  O1870  1  0.254000  0.628000  0.789000  0.6
  O  O1871  1  0.093300  0.439500  0.934300  0.6
  O  O1872  1  0.906700  0.560500  0.065700  0.6
  O  O1873  1  0.719500  0.720000  0.881000  0.6
  O  O1874  1  0.280500  0.280000  0.119000  0.6
  O  O1875  1  0.133100  0.836100  0.326700  0.6
  O  O1876  1  0.866900  0.163900  0.673300  0.6
  F  F1877  1  0.117600  0.980700  0.717600  1.0
  F  F1878  1  0.882400  0.019300  0.282400  1.0
  F  F1879  1  0.230500  0.614700  0.657000  1.0
  F  F1880  1  0.769500  0.385300  0.343000  1.0
  F  F1881  1  0.284300  0.595300  0.619500  1.0
  F  F1882  1  0.715700  0.404700  0.380500  1.0
  F  F1883  1  0.261700  0.563100  0.673900  1.0
  F  F1884  1  0.738300  0.436900  0.326100  1.0
  F  F1885  1  0.233700  0.574500  0.622500  1.0
  F  F1886  1  0.766300  0.425500  0.377500  1.0
  F  F1887  1  0.843200  0.771300  0.885300  1.0
  F  F1888  1  0.156800  0.228700  0.114700  1.0
  F  F1889  1  0.825500  0.739000  0.937300  1.0
  F  F1890  1  0.174500  0.261000  0.062700  1.0
  F  F1891  1  0.879300  0.716900  0.905600  1.0
  F  F1892  1  0.120700  0.283100  0.094400  1.0
  F  F1893  1  0.875900  0.767900  0.927000  1.0
  F  F1894  1  0.124100  0.232100  0.073000  1.0
  F  F1895  1  0.763400  0.097300  0.640100  1.0
  F  F1896  1  0.236600  0.902700  0.359900  1.0
  F  F1897  1  0.257800  0.648900  0.080000  0.25
  F  F1898  1  0.742200  0.351100  0.920000  0.25
  F  F1899  1  0.282400  0.591500  0.114300  0.25
  F  F1900  1  0.717600  0.408500  0.885700  0.25
  F  F1901  1  0.303700  0.628100  0.067300  0.25
  F  F1902  1  0.696300  0.371900  0.932700  0.25
  F  F1903  1  0.268000  0.587500  0.059800  0.25
  F  F1904  1  0.732000  0.412500  0.940200  0.25
  F  F1905  1  0.270500  0.645100  0.093700  0.25
  F  F1906  1  0.729500  0.354900  0.906300  0.25
  F  F1907  1  0.293300  0.580600  0.096400  0.25
  F  F1908  1  0.706700  0.419400  0.903600  0.25
  F  F1909  1  0.296000  0.630500  0.055700  0.25
  F  F1910  1  0.704000  0.369500  0.944300  0.25
  F  F1911  1  0.237300  0.608700  0.081400  0.25
  F  F1912  1  0.762700  0.391300  0.918600  0.25
  F  F1913  1  0.263500  0.651000  0.079100  0.25
  F  F1914  1  0.736500  0.349000  0.920900  0.25
  F  F1915  1  0.255600  0.585200  0.099200  0.25
  F  F1916  1  0.744400  0.414800  0.900800  0.25
  F  F1917  1  0.305800  0.621800  0.083600  0.25
  F  F1918  1  0.694200  0.378200  0.916400  0.25
  F  F1919  1  0.285600  0.610400  0.041800  0.25
  F  F1920  1  0.714400  0.389600  0.958200  0.25
  F  F1921  1  0.251400  0.622200  0.051400  0.25
  F  F1922  1  0.748600  0.377800  0.948600  0.25
  F  F1923  1  0.253200  0.607900  0.114600  0.25
  F  F1924  1  0.746800  0.392100  0.885400  0.25
  F  F1925  1  0.297300  0.634700  0.070700  0.25
  F  F1926  1  0.702700  0.365300  0.929300  0.25
  F  F1927  1  0.297100  0.579300  0.071400  0.25
  F  F1928  1  0.702900  0.420700  0.928600  0.25
  F  F1929  1  0.264700  0.419000  0.004000  0.33
  F  F1930  1  0.735300  0.581000  0.996000  0.33
  F  F1931  1  0.300200  0.464100  0.968400  0.33
  F  F1932  1  0.699800  0.535900  0.031600  0.33
  F  F1933  1  0.293300  0.408800  0.947600  0.33
  F  F1934  1  0.706700  0.591200  0.052400  0.33
  F  F1935  1  0.310900  0.416000  0.002700  0.33
  F  F1936  1  0.689100  0.584000  0.997300  0.33
  F  F1937  1  0.269100  0.410300  0.003900  0.33
  F  F1938  1  0.730900  0.589700  0.996100  0.33
  F  F1939  1  0.270700  0.441100  0.946100  0.33
  F  F1940  1  0.729300  0.558900  0.053900  0.33
  F  F1941  1  0.325600  0.407800  0.963200  0.33
  F  F1942  1  0.674400  0.592200  0.036800  0.33
  F  F1943  1  0.300700  0.437500  0.003800  0.33
  F  F1944  1  0.699300  0.562500  0.996200  0.33
  F  F1945  1  0.266800  0.404400  0.975900  0.33
  F  F1946  1  0.733200  0.595600  0.024100  0.33
  F  F1947  1  0.262300  0.462200  0.971500  0.33
  F  F1948  1  0.737700  0.537800  0.028500  0.33
  F  F1949  1  0.311200  0.437900  0.939800  0.33
  F  F1950  1  0.688800  0.562100  0.060200  0.33
  F  F1951  1  0.300400  0.425600  0.005500  0.33
  F  F1952  1  0.699600  0.574400  0.994500  0.33
  F  F1953  1  0.449000  0.934400  0.152000  0.33
  F  F1954  1  0.551000  0.065600  0.848000  0.33
  F  F1955  1  0.479400  0.927000  0.094900  0.33
  F  F1956  1  0.520600  0.073000  0.905100  0.33
  F  F1957  1  0.504500  0.912100  0.149500  0.33
  F  F1958  1  0.495500  0.087900  0.850500  0.33
  F  F1959  1  0.489300  0.873700  0.141600  0.33
  F  F1960  1  0.510700  0.126300  0.858400  0.33
  F  F1961  1  0.496200  0.903800  0.155400  0.33
  F  F1962  1  0.503800  0.096200  0.844600  0.33
  F  F1963  1  0.438600  0.903200  0.145300  0.33
  F  F1964  1  0.561400  0.096800  0.854700  0.33
  F  F1965  1  0.466100  0.949100  0.123500  0.33
  F  F1966  1  0.533900  0.050900  0.876500  0.33
  F  F1967  1  0.485900  0.885400  0.108400  0.33
  F  F1968  1  0.514100  0.114600  0.891600  0.33
  F  F1969  1  0.481500  0.908300  0.167800  0.33
  F  F1970  1  0.518500  0.091700  0.832200  0.33
  F  F1971  1  0.446700  0.921600  0.114600  0.33
  F  F1972  1  0.553300  0.078400  0.885400  0.33
  F  F1973  1  0.505800  0.932600  0.123200  0.33
  F  F1974  1  0.494200  0.067400  0.876800  0.33
  F  F1975  1  0.497000  0.874700  0.136600  0.33
  F  F1976  1  0.503000  0.125300  0.863400  0.33
  F  F1977  1  0.122600  0.958900  0.664200  0.5
  F  F1978  1  0.877400  0.041100  0.335800  0.5
  F  F1979  1  0.068600  0.969900  0.696300  0.5
  F  F1980  1  0.931400  0.030100  0.303700  0.5
  F  F1981  1  0.097600  0.017900  0.667500  0.5
  F  F1982  1  0.902400  0.982100  0.332500  0.5
  F  F1983  1  0.095300  0.948000  0.684800  0.5
  F  F1984  1  0.904700  0.052000  0.315200  0.5
  F  F1985  1  0.068100  0.003200  0.695800  0.5
  F  F1986  1  0.931900  0.996800  0.304200  0.5
  F  F1987  1  0.126400  0.996200  0.659000  0.5
  F  F1988  1  0.873600  0.003800  0.341000  0.5
  F  F1989  1  0.191400  0.962000  0.851500  0.5
  F  F1990  1  0.808600  0.038000  0.148500  0.5
  F  F1991  1  0.220700  0.007400  0.852500  0.5
  F  F1992  1  0.779300  0.992600  0.147500  0.5
  F  F1993  1  0.186300  0.980100  0.895900  0.5
  F  F1994  1  0.813700  0.019900  0.104100  0.5
  F  F1995  1  0.242000  0.952800  0.890600  0.5
  F  F1996  1  0.758000  0.047200  0.109400  0.5
  F  F1997  1  0.185600  0.972700  0.853300  0.5
  F  F1998  1  0.814400  0.027300  0.146700  0.5
  F  F1999  1  0.236200  0.996300  0.872600  0.5
  F  F2000  1  0.763800  0.003700  0.127400  0.5
  F  F2001  1  0.201400  0.959600  0.905500  0.5
  F  F2002  1  0.798600  0.040400  0.094500  0.5
  F  F2003  1  0.240500  0.943600  0.853200  0.5
  F  F2004  1  0.759500  0.056400  0.146800  0.5
  F  F2005  1  0.137600  0.761100  0.597300  0.5
  F  F2006  1  0.862400  0.238900  0.402700  0.5
  F  F2007  1  0.144400  0.817500  0.572600  0.5
  F  F2008  1  0.855600  0.182500  0.427400  0.5
  F  F2009  1  0.092100  0.793600  0.565800  0.5
  F  F2010  1  0.907900  0.206400  0.434200  0.5
  F  F2011  1  0.100900  0.809100  0.617800  0.5
  F  F2012  1  0.899100  0.190900  0.382200  0.5
  F  F2013  1  0.146700  0.773500  0.596300  0.5
  F  F2014  1  0.853300  0.226500  0.403700  0.5
  F  F2015  1  0.116900  0.831800  0.591300  0.5
  F  F2016  1  0.883100  0.168200  0.408700  0.5
  F  F2017  1  0.119700  0.798400  0.547400  0.5
  F  F2018  1  0.880300  0.201600  0.452600  0.5
  F  F2019  1  0.086200  0.782800  0.601400  0.5
  F  F2020  1  0.913800  0.217200  0.398600  0.5
  F  F2021  1  0.901200  0.858100  0.736200  0.5
  F  F2022  1  0.098800  0.141900  0.263800  0.5
  F  F2023  1  0.954300  0.872600  0.705500  0.5
  F  F2024  1  0.045700  0.127400  0.294500  0.5
  F  F2025  1  0.909400  0.871100  0.673100  0.5
  F  F2026  1  0.090600  0.128900  0.326900  0.5
  F  F2027  1  0.904900  0.915300  0.710000  0.5
  F  F2028  1  0.095100  0.084700  0.290000  0.5
  F  F2029  1  0.906700  0.860100  0.735600  0.5
  F  F2030  1  0.093300  0.139900  0.264400  0.5
  F  F2031  1  0.934900  0.856100  0.678400  0.5
  F  F2032  1  0.065100  0.143900  0.321600  0.5
  F  F2033  1  0.887100  0.895700  0.686800  0.5
  F  F2034  1  0.112900  0.104300  0.313200  0.5
  F  F2035  1  0.938600  0.903700  0.706600  0.5
  F  F2036  1  0.061400  0.096300  0.293400  0.5
  F  F2037  1  0.822700  0.075000  0.642600  0.5
  F  F2038  1  0.177300  0.925000  0.357400  0.5
  F  F2039  1  0.797200  0.054200  0.603500  0.5
  F  F2040  1  0.202800  0.945800  0.396500  0.5
  F  F2041  1  0.803800  0.113400  0.594300  0.5
  F  F2042  1  0.196200  0.886600  0.405700  0.5
  F  F2043  1  0.826500  0.097400  0.619400  0.5
  F  F2044  1  0.173500  0.902600  0.380600  0.5
  F  F2045  1  0.803800  0.045400  0.634800  0.5
  F  F2046  1  0.196200  0.954600  0.365200  0.5
  F  F2047  1  0.788400  0.081600  0.585800  0.5
  F  F2048  1  0.211600  0.918400  0.414200  0.5
  F  F2049  1  0.578400  0.170700  0.713100  0.5
  F  F2050  1  0.421600  0.829300  0.286900  0.5
  F  F2051  1  0.554400  0.164000  0.767300  0.5
  F  F2052  1  0.445600  0.836000  0.232700  0.5
  F  F2053  1  0.617600  0.157500  0.742800  0.5
  F  F2054  1  0.382400  0.842500  0.257200  0.5
  F  F2055  1  0.586000  0.113000  0.742900  0.5
  F  F2056  1  0.414000  0.887000  0.257100  0.5
  F  F2057  1  0.614500  0.154800  0.723200  0.5
  F  F2058  1  0.385500  0.845200  0.276800  0.5
  F  F2059  1  0.571100  0.182300  0.756700  0.5
  F  F2060  1  0.428900  0.817700  0.243300  0.5
  F  F2061  1  0.593600  0.125500  0.780300  0.5
  F  F2062  1  0.406400  0.874500  0.219700  0.5
  F  F2063  1  0.562200  0.133300  0.732600  0.5
  F  F2064  1  0.437800  0.866700  0.267400  0.5
  F  F2065  1  0.817400  0.896100  0.523700  0.5
  F  F2066  1  0.182600  0.103900  0.476300  0.5
  F  F2067  1  0.780300  0.885000  0.513300  0.5
  F  F2068  1  0.219700  0.115000  0.486700  0.5
  F  F2069  1  0.837200  0.891100  0.469200  0.5
  F  F2070  1  0.162800  0.108900  0.530800  0.5
  F  F2071  1  0.825200  0.835600  0.508800  0.5
  F  F2072  1  0.174800  0.164400  0.491200  0.5
  F  F2073  1  0.811400  0.906300  0.511100  0.5
  F  F2074  1  0.188600  0.093700  0.488900  0.5
  F  F2075  1  0.784500  0.875600  0.525200  0.5
  F  F2076  1  0.215500  0.124400  0.474800  0.5
  F  F2077  1  0.809400  0.869600  0.467400  0.5
  F  F2078  1  0.190600  0.130400  0.532600  0.5
  F  F2079  1  0.850600  0.863100  0.513300  0.5
  F  F2080  1  0.149400  0.136900  0.486700  0.5
  F  F2081  1  0.646500  0.815900  0.527400  0.5
  F  F2082  1  0.353500  0.184100  0.472600  0.5
  F  F2083  1  0.613500  0.778400  0.500200  0.5
  F  F2084  1  0.386500  0.221600  0.499800  0.5
  F  F2085  1  0.591400  0.808600  0.544500  0.5
  F  F2086  1  0.408600  0.191400  0.455500  0.5
  F  F2087  1  0.638400  0.764800  0.552400  0.5
  F  F2088  1  0.361600  0.235200  0.447600  0.5
  F  F2089  1  0.645200  0.811100  0.537500  0.5
  F  F2090  1  0.354800  0.188900  0.462500  0.5
  F  F2091  1  0.601900  0.769000  0.548800  0.5
  F  F2092  1  0.398100  0.231000  0.451200  0.5
  F  F2093  1  0.601600  0.820800  0.506700  0.5
  F  F2094  1  0.398400  0.179200  0.493300  0.5
  F  F2095  1  0.643000  0.776600  0.495400  0.5
  F  F2096  1  0.357000  0.223400  0.504600  0.5
  F  F2097  1  0.021700  0.785000  0.375900  0.5
  F  F2098  1  0.978300  0.215000  0.624100  0.5
  F  F2099  1  0.013000  0.810100  0.409400  0.5
  F  F2100  1  0.987000  0.189900  0.590600  0.5
  F  F2101  1  0.072500  0.784100  0.407700  0.5
  F  F2102  1  0.927500  0.215900  0.592300  0.5
  F  F2103  1  0.047900  0.840500  0.373900  0.5
  F  F2104  1  0.952100  0.159500  0.626100  0.5
  F  F2105  1  0.022300  0.777500  0.388900  0.5
  F  F2106  1  0.977700  0.222500  0.611100  0.5
  F  F2107  1  0.012100  0.822100  0.390900  0.5
  F  F2108  1  0.987900  0.177900  0.609100  0.5
  F  F2109  1  0.053600  0.815800  0.419500  0.5
  F  F2110  1  0.946400  0.184200  0.580500  0.5
  F  F2111  1  0.072700  0.806400  0.359500  0.5
  F  F2112  1  0.927300  0.193600  0.640500  0.5
  F  F2113  1  0.039300  0.646400  0.311000  0.5
  F  F2114  1  0.960700  0.353600  0.689000  0.5
  F  F2115  1  0.051400  0.604700  0.266000  0.5
  F  F2116  1  0.948600  0.395300  0.734000  0.5
  F  F2117  1  0.017700  0.598000  0.319600  0.5
  F  F2118  1  0.982300  0.402000  0.680400  0.5
  F  F2119  1  0.997200  0.644200  0.284800  0.5
  F  F2120  1  0.002800  0.355800  0.715200  0.5
  F  F2121  1  0.026200  0.647600  0.315300  0.5
  F  F2122  1  0.973800  0.352400  0.684700  0.5
  F  F2123  1  0.053700  0.643500  0.264500  0.5
  F  F2124  1  0.946300  0.356500  0.735500  0.5
  F  F2125  1  0.054700  0.592400  0.302100  0.5
  F  F2126  1  0.945300  0.407600  0.697900  0.5
  F  F2127  1  0.002300  0.612700  0.285900  0.5
  F  F2128  1  0.997700  0.387300  0.714100  0.5
  F  F2129  1  0.127300  0.361300  0.002600  0.5
  F  F2130  1  0.872700  0.638700  0.997400  0.5
  F  F2131  1  0.076600  0.350800  0.039100  0.5
  F  F2132  1  0.923400  0.649200  0.960900  0.5
  F  F2133  1  0.079600  0.366300  0.974900  0.5
  F  F2134  1  0.920400  0.633700  0.025100  0.5
  F  F2135  1  0.105100  0.311400  0.997500  0.5
  F  F2136  1  0.894900  0.688600  0.002500  0.5
  F  F2137  1  0.117700  0.361300  0.016400  0.5
  F  F2138  1  0.882300  0.638700  0.983600  0.5
  F  F2139  1  0.087300  0.311800  0.023000  0.5
  F  F2140  1  0.912700  0.688200  0.977000  0.5
  F  F2141  1  0.061300  0.367800  0.998200  0.5
  F  F2142  1  0.938700  0.632200  0.001800  0.5
  F  F2143  1  0.109700  0.340100  0.969400  0.5
  F  F2144  1  0.890300  0.659900  0.030600  0.5
  F  F2145  1  0.117500  0.740400  0.131500  0.5
  F  F2146  1  0.882500  0.259600  0.868500  0.5
  F  F2147  1  0.056400  0.767500  0.136100  0.5
  F  F2148  1  0.943600  0.232500  0.863900  0.5
  F  F2149  1  0.086200  0.759900  0.184900  0.5
  F  F2150  1  0.913800  0.240100  0.815100  0.5
  F  F2151  1  0.100500  0.800200  0.131900  0.5
  F  F2152  1  0.899500  0.199800  0.868100  0.5
  F  F2153  1  0.122200  0.746400  0.143800  0.5
  F  F2154  1  0.877800  0.253600  0.856200  0.5
  F  F2155  1  0.083600  0.773900  0.110200  0.5
  F  F2156  1  0.916400  0.226100  0.889800  0.5
  F  F2157  1  0.064000  0.742600  0.163300  0.5
  F  F2158  1  0.936000  0.257400  0.836700  0.5
  F  F2159  1  0.076800  0.799000  0.160800  0.5
  F  F2160  1  0.923200  0.201000  0.839200  0.5
  F  F2161  1  0.351100  0.416200  0.237500  0.5
  F  F2162  1  0.648900  0.583800  0.762500  0.5
  F  F2163  1  0.347000  0.457500  0.184900  0.5
  F  F2164  1  0.653000  0.542500  0.815100  0.5
  F  F2165  1  0.375700  0.400600  0.183800  0.5
  F  F2166  1  0.624300  0.599400  0.816200  0.5
  F  F2167  1  0.401400  0.439100  0.207900  0.5
  F  F2168  1  0.598600  0.560900  0.792100  0.5
  F  F2169  1  0.347000  0.423300  0.231300  0.5
  F  F2170  1  0.653000  0.576700  0.768700  0.5
  F  F2171  1  0.370800  0.468100  0.195200  0.5
  F  F2172  1  0.629200  0.531900  0.804800  0.5
  F  F2173  1  0.359500  0.422400  0.171200  0.5
  F  F2174  1  0.640500  0.577600  0.828800  0.5
  F  F2175  1  0.405000  0.410900  0.203700  0.5
  F  F2176  1  0.595000  0.589100  0.796300  0.5
  F  F2177  1  0.255800  0.367700  0.380000  0.5
  F  F2178  1  0.744200  0.632300  0.620000  0.5
  F  F2179  1  0.231800  0.370400  0.439800  0.5
  F  F2180  1  0.768200  0.629600  0.560200  0.5
  F  F2181  1  0.254100  0.315800  0.416400  0.5
  F  F2182  1  0.745900  0.684200  0.583600  0.5
  F  F2183  1  0.199100  0.350100  0.408600  0.5
  F  F2184  1  0.800900  0.649900  0.591400  0.5
  F  F2185  1  0.265800  0.358400  0.384000  0.5
  F  F2186  1  0.734200  0.641600  0.616000  0.5
  F  F2187  1  0.253100  0.347600  0.442300  0.5
  F  F2188  1  0.746900  0.652400  0.557700  0.5
  F  F2189  1  0.228700  0.318400  0.411100  0.5
  F  F2190  1  0.771300  0.681600  0.588900  0.5
  F  F2191  1  0.215200  0.386100  0.413200  0.5
  F  F2192  1  0.784800  0.613900  0.586800  0.5
  F  F2193  1  0.576900  0.267100  0.151100  0.5
  F  F2194  1  0.423100  0.732900  0.848900  0.5
  F  F2195  1  0.602300  0.314000  0.120300  0.5
  F  F2196  1  0.397700  0.686000  0.879700  0.5
  F  F2197  1  0.563000  0.291500  0.096300  0.5
  F  F2198  1  0.437000  0.708500  0.903700  0.5
  F  F2199  1  0.542100  0.322800  0.143800  0.5
  F  F2200  1  0.457900  0.677200  0.856200  0.5
  F  F2201  1  0.585100  0.263600  0.149000  0.5
  F  F2202  1  0.414900  0.736400  0.851000  0.5
  F  F2203  1  0.536800  0.297200  0.126900  0.5
  F  F2204  1  0.463200  0.702800  0.873100  0.5
  F  F2205  1  0.582500  0.327100  0.136300  0.5
  F  F2206  1  0.417500  0.672900  0.863700  0.5
  F  F2207  1  0.594800  0.291500  0.095200  0.5
  F  F2208  1  0.405200  0.708500  0.904800  0.5
  F  F2209  1  0.634900  0.121300  0.243700  0.5
  F  F2210  1  0.365100  0.878700  0.756300  0.5
  F  F2211  1  0.684700  0.082600  0.259900  0.5
  F  F2212  1  0.315300  0.917400  0.740100  0.5
  F  F2213  1  0.635700  0.097000  0.302400  0.5
  F  F2214  1  0.364300  0.903000  0.697600  0.5
  F  F2215  1  0.627700  0.062800  0.264300  0.5
  F  F2216  1  0.372300  0.937200  0.735700  0.5
  F  F2217  1  0.635400  0.113300  0.236000  0.5
  F  F2218  1  0.364600  0.886700  0.764000  0.5
  F  F2219  1  0.660000  0.056000  0.254500  0.5
  F  F2220  1  0.340000  0.944000  0.745500  0.5
  F  F2221  1  0.672500  0.105800  0.274900  0.5
  F  F2222  1  0.327500  0.894200  0.725100  0.5
  F  F2223  1  0.614100  0.086600  0.290000  0.5
  F  F2224  1  0.385900  0.913400  0.710000  0.5
  F  F2225  1  0.531900  0.528700  0.196000  0.5
  F  F2226  1  0.468100  0.471300  0.804000  0.5
  F  F2227  1  0.579800  0.493400  0.235300  0.5
  F  F2228  1  0.420200  0.506600  0.764700  0.5
  F  F2229  1  0.572200  0.552200  0.224900  0.5
  F  F2230  1  0.427800  0.447800  0.775100  0.5
  F  F2231  1  0.581200  0.498900  0.194000  0.5
  F  F2232  1  0.418800  0.501100  0.806000  0.5
  F  F2233  1  0.568400  0.492000  0.199800  0.5
  F  F2234  1  0.431600  0.508000  0.800200  0.5
  F  F2235  1  0.526300  0.524300  0.233300  0.5
  F  F2236  1  0.473700  0.475700  0.766700  0.5
  F  F2237  1  0.568400  0.547900  0.183100  0.5
  F  F2238  1  0.431600  0.452100  0.816900  0.5
  F  F2239  1  0.589500  0.502200  0.231700  0.5
  F  F2240  1  0.410500  0.497800  0.768300  0.5
  F  F2241  1  0.648400  0.491000  0.372500  0.5
  F  F2242  1  0.351600  0.509000  0.627500  0.5
  F  F2243  1  0.626900  0.471800  0.427000  0.5
  F  F2244  1  0.373100  0.528200  0.573000  0.5
  F  F2245  1  0.687800  0.483400  0.413300  0.5
  F  F2246  1  0.312200  0.516600  0.586700  0.5
  F  F2247  1  0.638200  0.528000  0.414100  0.5
  F  F2248  1  0.361800  0.472000  0.585900  0.5
  F  F2249  1  0.634700  0.495700  0.375800  0.5
  F  F2250  1  0.365300  0.504300  0.624200  0.5
  F  F2251  1  0.632000  0.511800  0.432500  0.5
  F  F2252  1  0.368000  0.488200  0.567500  0.5
  F  F2253  1  0.656600  0.455100  0.418700  0.5
  F  F2254  1  0.343400  0.544900  0.581300  0.5
  F  F2255  1  0.685400  0.505100  0.393400  0.5
  F  F2256  1  0.314600  0.494900  0.606600  0.5
  F  F2257  1  0.506900  0.728500  0.080900  0.5
  F  F2258  1  0.493100  0.271500  0.919100  0.5
  F  F2259  1  0.463400  0.691600  0.083700  0.5
  F  F2260  1  0.536600  0.308400  0.916300  0.5
  F  F2261  1  0.512100  0.695500  0.037700  0.5
  F  F2262  1  0.487900  0.304500  0.962300  0.5
  F  F2263  1  0.519000  0.670600  0.095200  0.5
  F  F2264  1  0.481000  0.329400  0.904800  0.5
  F  F2265  1  0.494200  0.733500  0.087300  0.5
  F  F2266  1  0.505800  0.266500  0.912700  0.5
  F  F2267  1  0.483700  0.675000  0.103300  0.5
  F  F2268  1  0.516300  0.325000  0.896700  0.5
  F  F2269  1  0.476400  0.701100  0.048700  0.5
  F  F2270  1  0.523600  0.298900  0.951300  0.5
  F  F2271  1  0.535200  0.692000  0.064600  0.5
  F  F2272  1  0.464800  0.308000  0.935400  0.5
