# generated using pymatgen
data_B2H22PdC30(N3F4)2
_symmetry_space_group_name_H-M   'P 1'
_cell_length_a   43.82400000
_cell_length_b   53.59039839
_cell_length_c   53.59900000
_cell_angle_alpha   119.99592595
_cell_angle_beta   90.00000000
_cell_angle_gamma   90.00000000
_symmetry_Int_Tables_number   1
_chemical_formula_structural   B2H22PdC30(N3F4)2
_chemical_formula_sum   'B108.0 H1188 Pd54 C1620 N324 F432'
_cell_volume   109019.49020951
_cell_formula_units_Z   54
loop_
 _symmetry_equiv_pos_site_id
 _symmetry_equiv_pos_as_xyz
  1  'x, y, z'
loop_
 _atom_site_type_symbol
 _atom_site_label
 _atom_site_symmetry_multiplicity
 _atom_site_fract_x
 _atom_site_fract_y
 _atom_site_fract_z
 _atom_site_occupancy
  B  B1  1  0.460600  0.661100  0.736300  1.0
  B  B2  1  0.960600  0.338900  0.263700  1.0
  B  B3  1  0.539400  0.338900  0.263700  1.0
  B  B4  1  0.039400  0.661100  0.736300  1.0
  B  B5  1  0.543800  0.761200  0.499100  1.0
  B  B6  1  0.043800  0.238800  0.500900  1.0
  B  B7  1  0.456200  0.238800  0.500900  1.0
  B  B8  1  0.956200  0.761200  0.499100  1.0
  B  B9  1  0.544600  0.237900  0.739000  1.0
  B  B10  1  0.044600  0.762100  0.261000  1.0
  B  B11  1  0.455400  0.762100  0.261000  1.0
  B  B12  1  0.955400  0.237900  0.739000  1.0
  B  B13  1  0.460300  0.342400  0.077700  1.0
  B  B14  1  0.960300  0.657600  0.922300  1.0
  B  B15  1  0.539700  0.657600  0.922300  1.0
  B  B16  1  0.039700  0.342400  0.077700  1.0
  B  B17  1  0.461100  0.576200  0.840400  1.0
  B  B18  1  0.961100  0.423800  0.159600  1.0
  B  B19  1  0.538900  0.423800  0.159600  1.0
  B  B20  1  0.038900  0.576200  0.840400  1.0
  B  B21  1  0.539700  0.235200  0.077700  1.0
  B  B22  1  0.039700  0.764800  0.922300  1.0
  B  B23  1  0.460300  0.764800  0.922300  1.0
  B  B24  1  0.960300  0.235200  0.077700  1.0
  B  B25  1  0.540100  0.764300  0.840400  1.0
  B  B26  1  0.040100  0.235700  0.159600  1.0
  B  B27  1  0.459900  0.235700  0.159600  1.0
  B  B28  1  0.959900  0.764300  0.840400  1.0
  B  B29  1  0.502100  0.666900  0.833400  0.3
  B  B30  1  0.002100  0.333100  0.166600  0.3
  B  B31  1  0.497900  0.333100  0.166600  0.3
  B  B32  1  0.997900  0.666900  0.833400  0.3
  B  B33  1  0.642600  0.067100  0.179100  0.3
  B  B34  1  0.142600  0.932900  0.820900  0.3
  B  B35  1  0.357400  0.932900  0.820900  0.3
  B  B36  1  0.857400  0.067100  0.179100  0.3
  B  B37  1  0.642800  0.933300  0.113700  0.3
  B  B38  1  0.142800  0.066700  0.886300  0.3
  B  B39  1  0.357200  0.066700  0.886300  0.3
  B  B40  1  0.857200  0.933300  0.113700  0.3
  B  B41  1  0.358000  0.612800  0.180700  0.3
  B  B42  1  0.858000  0.387200  0.819300  0.3
  B  B43  1  0.642000  0.387200  0.819300  0.3
  B  B44  1  0.142000  0.612800  0.180700  0.3
  B  B45  1  0.356800  0.680600  0.112300  0.3
  B  B46  1  0.856800  0.319400  0.887700  0.3
  B  B47  1  0.643200  0.319400  0.887700  0.3
  B  B48  1  0.143200  0.680600  0.112300  0.3
  B  B49  1  0.359600  0.321700  0.433000  0.3
  B  B50  1  0.859600  0.678300  0.567000  0.3
  B  B51  1  0.640400  0.678300  0.567000  0.3
  B  B52  1  0.140400  0.321700  0.433000  0.3
  B  B53  1  0.359800  0.388700  0.567100  0.3
  B  B54  1  0.859800  0.611300  0.432900  0.3
  B  B55  1  0.640200  0.611300  0.432900  0.3
  B  B56  1  0.140200  0.388700  0.567100  0.3
  B  B57  1  0.250000  0.704700  0.255300  0.4
  B  B58  1  0.750000  0.295300  0.744700  0.4
  B  B59  1  0.364600  0.697000  0.509200  0.5
  B  B60  1  0.864600  0.303000  0.490800  0.5
  B  B61  1  0.635400  0.303000  0.490800  0.5
  B  B62  1  0.135400  0.697000  0.509200  0.5
  B  B63  1  0.547800  0.461900  0.292900  0.5
  B  B64  1  0.047800  0.538100  0.707100  0.5
  B  B65  1  0.452200  0.538100  0.707100  0.5
  B  B66  1  0.952200  0.461900  0.292900  0.5
  B  B67  1  0.645800  0.333200  0.166900  0.5
  B  B68  1  0.145800  0.666800  0.833100  0.5
  B  B69  1  0.354200  0.666800  0.833100  0.5
  B  B70  1  0.854200  0.333200  0.166900  0.5
  B  B71  1  0.452200  0.461700  0.168900  0.5
  B  B72  1  0.952200  0.538300  0.831100  0.5
  B  B73  1  0.547800  0.538300  0.831100  0.5
  B  B74  1  0.047800  0.461700  0.168900  0.5
  B  B75  1  0.452400  0.793700  0.831200  0.5
  B  B76  1  0.952400  0.206300  0.168800  0.5
  B  B77  1  0.547600  0.206300  0.168800  0.5
  B  B78  1  0.047600  0.793700  0.831200  0.5
  B  B79  1  0.645500  0.666300  0.833400  0.5
  B  B80  1  0.145500  0.333700  0.166600  0.5
  B  B81  1  0.354500  0.333700  0.166600  0.5
  B  B82  1  0.854500  0.666300  0.833400  0.5
  B  B83  1  0.451500  0.331500  0.293800  0.5
  B  B84  1  0.951500  0.668500  0.706200  0.5
  B  B85  1  0.548500  0.668500  0.706200  0.5
  B  B86  1  0.048500  0.331500  0.293800  0.5
  B  B87  1  0.452000  0.207000  0.038200  0.5
  B  B88  1  0.952000  0.793000  0.961800  0.5
  B  B89  1  0.548000  0.793000  0.961800  0.5
  B  B90  1  0.048000  0.207000  0.038200  0.5
  B  B91  1  0.547900  0.330800  0.037800  0.5
  B  B92  1  0.047900  0.669200  0.962200  0.5
  B  B93  1  0.452100  0.669200  0.962200  0.5
  B  B94  1  0.952100  0.330800  0.037800  0.5
  B  B95  1  0.250000  0.632600  0.374600  0.6
  B  B96  1  0.750000  0.367400  0.625400  0.6
  B  B97  1  0.250000  0.522100  0.489600  0.6
  B  B98  1  0.750000  0.477900  0.510400  0.6
  B  B99  1  0.250000  0.757800  0.627600  0.6
  B  B100  1  0.750000  0.242200  0.372400  0.6
  B  B101  1  0.250000  0.941500  0.739000  0.6
  B  B102  1  0.750000  0.058500  0.261000  0.6
  B  B103  1  0.250000  0.366400  0.742300  0.6
  B  B104  1  0.750000  0.633600  0.257700  0.6
  B  B105  1  0.250000  0.297200  0.545600  0.6
  B  B106  1  0.750000  0.702800  0.454400  0.6
  B  B107  1  0.362800  0.307100  0.806700  0.6
  B  B108  1  0.862800  0.692900  0.193300  0.6
  B  B109  1  0.637200  0.692900  0.193300  0.6
  B  B110  1  0.137200  0.307100  0.806700  0.6
  B  B111  1  0.250000  0.243100  0.869500  0.6
  B  B112  1  0.750000  0.756900  0.130500  0.6
  B  B113  1  0.250000  0.048600  0.796700  0.6
  B  B114  1  0.750000  0.951400  0.203300  0.6
  B  B115  1  0.250000  0.467500  0.980500  0.6
  B  B116  1  0.750000  0.532500  0.019500  0.6
  B  B117  1  0.750000  0.127200  0.868300  0.6
  B  B118  1  0.250000  0.872800  0.131700  0.6
  B  B119  1  0.750000  0.246300  0.794400  0.6
  B  B120  1  0.250000  0.753700  0.205600  0.6
  B  B121  1  0.750000  0.873800  0.743400  0.6
  B  B122  1  0.250000  0.126200  0.256600  0.6
  B  B123  1  0.750000  0.753800  0.548000  0.6
  B  B124  1  0.250000  0.246200  0.452000  0.6
  B  B125  1  0.638200  0.998800  0.807900  0.6
  B  B126  1  0.138200  0.001200  0.192100  0.6
  B  B127  1  0.361800  0.001200  0.192100  0.6
  B  B128  1  0.861800  0.998800  0.807900  0.6
  B  B129  1  0.321300  0.538900  0.379800  0.8
  B  B130  1  0.821300  0.461100  0.620200  0.8
  B  B131  1  0.678700  0.461100  0.620200  0.8
  B  B132  1  0.178700  0.538900  0.379800  0.8
  B  B133  1  0.459900  0.424700  0.264600  0.8
  B  B134  1  0.959900  0.575300  0.735400  0.8
  B  B135  1  0.540100  0.575300  0.735400  0.8
  B  B136  1  0.040100  0.424700  0.264600  0.8
  B  B137  1  0.250000  0.366300  0.506900  0.8
  B  B138  1  0.750000  0.633700  0.493100  0.8
  B  B139  1  0.320900  0.660700  0.621900  0.8
  B  B140  1  0.820900  0.339300  0.378100  0.8
  B  B141  1  0.679100  0.339300  0.378100  0.8
  B  B142  1  0.179100  0.660700  0.621900  0.8
  B  B143  1  0.250000  0.639500  0.135500  0.8
  B  B144  1  0.750000  0.360500  0.864500  0.8
  B  B145  1  0.321200  0.462100  0.839400  0.8
  B  B146  1  0.821200  0.537900  0.160600  0.8
  B  B147  1  0.678800  0.537900  0.160600  0.8
  B  B148  1  0.178800  0.462100  0.839400  0.8
  B  B149  1  0.678100  0.120300  0.961200  0.8
  B  B150  1  0.178100  0.879700  0.038800  0.8
  B  B151  1  0.321900  0.879700  0.038800  0.8
  B  B152  1  0.821900  0.120300  0.961200  0.8
  B  B153  1  0.750000  0.010300  0.979400  0.8
  B  B154  1  0.250000  0.989700  0.020600  0.8
  B  B155  1  0.750000  0.995600  0.135500  0.8
  B  B156  1  0.250000  0.004400  0.864500  0.8
  B  B157  1  0.678100  0.877800  0.839500  0.8
  B  B158  1  0.178100  0.122200  0.160500  0.8
  B  B159  1  0.321900  0.122200  0.160500  0.8
  B  B160  1  0.821900  0.877800  0.839500  0.8
  B  B161  1  0.456300  0.999500  0.737300  0.8
  B  B162  1  0.956300  0.000500  0.262700  0.8
  B  B163  1  0.543700  0.000500  0.262700  0.8
  B  B164  1  0.043700  0.999500  0.737300  0.8
  B  B165  1  0.320600  0.340400  0.961400  0.9
  B  B166  1  0.820600  0.659600  0.038600  0.9
  B  B167  1  0.679400  0.659600  0.038600  0.9
  B  B168  1  0.179400  0.340400  0.961400  0.9
  H  H169  1  0.325600  0.651700  0.680500  1.0
  H  H170  1  0.825600  0.348300  0.319500  1.0
  H  H171  1  0.674400  0.348300  0.319500  1.0
  H  H172  1  0.174400  0.651700  0.680500  1.0
  H  H173  1  0.282700  0.647600  0.703600  1.0
  H  H174  1  0.782700  0.352400  0.296400  1.0
  H  H175  1  0.717300  0.352400  0.296400  1.0
  H  H176  1  0.217300  0.647600  0.703600  1.0
  H  H177  1  0.335400  0.655800  0.768700  1.0
  H  H178  1  0.835400  0.344200  0.231300  1.0
  H  H179  1  0.664600  0.344200  0.231300  1.0
  H  H180  1  0.164600  0.655800  0.768700  1.0
  H  H181  1  0.378200  0.659800  0.745500  1.0
  H  H182  1  0.878200  0.340200  0.254500  1.0
  H  H183  1  0.621800  0.340200  0.254500  1.0
  H  H184  1  0.121800  0.659800  0.745500  1.0
  H  H185  1  0.294300  0.639800  0.782200  1.0
  H  H186  1  0.794300  0.360200  0.217800  1.0
  H  H187  1  0.705700  0.360200  0.217800  1.0
  H  H188  1  0.205700  0.639800  0.782200  1.0
  H  H189  1  0.250000  0.627200  0.797300  1.0
  H  H190  1  0.750000  0.372800  0.202700  1.0
  H  H191  1  0.325200  0.470500  0.319900  1.0
  H  H192  1  0.825200  0.529500  0.680100  1.0
  H  H193  1  0.674800  0.529500  0.680100  1.0
  H  H194  1  0.174800  0.470500  0.319900  1.0
  H  H195  1  0.282400  0.443400  0.296400  1.0
  H  H196  1  0.782400  0.556600  0.703600  1.0
  H  H197  1  0.717600  0.556600  0.703600  1.0
  H  H198  1  0.217600  0.443400  0.296400  1.0
  H  H199  1  0.335200  0.387200  0.231000  1.0
  H  H200  1  0.835200  0.612800  0.769000  1.0
  H  H201  1  0.664800  0.612800  0.769000  1.0
  H  H202  1  0.164800  0.387200  0.231000  1.0
  H  H203  1  0.378000  0.414300  0.254400  1.0
  H  H204  1  0.878000  0.585700  0.745600  1.0
  H  H205  1  0.622000  0.585700  0.745600  1.0
  H  H206  1  0.122000  0.414300  0.254400  1.0
  H  H207  1  0.293800  0.357600  0.215700  1.0
  H  H208  1  0.793800  0.642400  0.784300  1.0
  H  H209  1  0.706200  0.642400  0.784300  1.0
  H  H210  1  0.206200  0.357600  0.215700  1.0
  H  H211  1  0.250000  0.330000  0.206000  1.0
  H  H212  1  0.750000  0.670000  0.794000  1.0
  H  H213  1  0.357000  0.705900  0.683800  1.0
  H  H214  1  0.857000  0.294100  0.316200  1.0
  H  H215  1  0.643000  0.294100  0.316200  1.0
  H  H216  1  0.143000  0.705900  0.683800  1.0
  H  H217  1  0.351400  0.755500  0.709900  1.0
  H  H218  1  0.851400  0.244500  0.290100  1.0
  H  H219  1  0.648600  0.244500  0.290100  1.0
  H  H220  1  0.148600  0.755500  0.709900  1.0
  H  H221  1  0.408100  0.759100  0.770600  1.0
  H  H222  1  0.908100  0.240900  0.229400  1.0
  H  H223  1  0.591900  0.240900  0.229400  1.0
  H  H224  1  0.091900  0.759100  0.770600  1.0
  H  H225  1  0.413700  0.709400  0.744400  1.0
  H  H226  1  0.913700  0.290600  0.255600  1.0
  H  H227  1  0.586300  0.290600  0.255600  1.0
  H  H228  1  0.086300  0.709400  0.744400  1.0
  H  H229  1  0.397100  0.803400  0.793400  1.0
  H  H230  1  0.897100  0.196600  0.206600  1.0
  H  H231  1  0.602900  0.196600  0.206600  1.0
  H  H232  1  0.102900  0.803400  0.793400  1.0
  H  H233  1  0.385600  0.852200  0.816800  1.0
  H  H234  1  0.885600  0.147800  0.183200  1.0
  H  H235  1  0.614400  0.147800  0.183200  1.0
  H  H236  1  0.114400  0.852200  0.816800  1.0
  H  H237  1  0.352700  0.870000  0.795400  1.0
  H  H238  1  0.852700  0.130000  0.204600  1.0
  H  H239  1  0.647300  0.130000  0.204600  1.0
  H  H240  1  0.147300  0.870000  0.795400  1.0
  H  H241  1  0.285100  0.808700  0.683400  1.0
  H  H242  1  0.785100  0.191300  0.316600  1.0
  H  H243  1  0.714900  0.191300  0.316600  1.0
  H  H244  1  0.214900  0.808700  0.683400  1.0
  H  H245  1  0.321200  0.797400  0.707900  1.0
  H  H246  1  0.821200  0.202600  0.292100  1.0
  H  H247  1  0.678800  0.202600  0.292100  1.0
  H  H248  1  0.178800  0.797400  0.707900  1.0
  H  H249  1  0.324500  0.880500  0.770300  1.0
  H  H250  1  0.824500  0.119500  0.229700  1.0
  H  H251  1  0.675500  0.119500  0.229700  1.0
  H  H252  1  0.175500  0.880500  0.770300  1.0
  H  H253  1  0.288400  0.891900  0.745900  1.0
  H  H254  1  0.788400  0.108100  0.254100  1.0
  H  H255  1  0.711600  0.108100  0.254100  1.0
  H  H256  1  0.211600  0.891900  0.745900  1.0
  H  H257  1  0.284500  0.822100  0.635300  1.0
  H  H258  1  0.784500  0.177900  0.364700  1.0
  H  H259  1  0.715500  0.177900  0.364700  1.0
  H  H260  1  0.215500  0.822100  0.635300  1.0
  H  H261  1  0.328500  0.825900  0.613400  1.0
  H  H262  1  0.828500  0.174100  0.386600  1.0
  H  H263  1  0.671500  0.174100  0.386600  1.0
  H  H264  1  0.171500  0.825900  0.613400  1.0
  H  H265  1  0.331800  0.910900  0.670100  1.0
  H  H266  1  0.831800  0.089100  0.329900  1.0
  H  H267  1  0.668200  0.089100  0.329900  1.0
  H  H268  1  0.168200  0.910900  0.670100  1.0
  H  H269  1  0.287800  0.907100  0.692000  1.0
  H  H270  1  0.787800  0.092900  0.308000  1.0
  H  H271  1  0.712200  0.092900  0.308000  1.0
  H  H272  1  0.212200  0.907100  0.692000  1.0
  H  H273  1  0.370700  0.915400  0.650500  1.0
  H  H274  1  0.870700  0.084600  0.349500  1.0
  H  H275  1  0.629300  0.084600  0.349500  1.0
  H  H276  1  0.129300  0.915400  0.650500  1.0
  H  H277  1  0.414500  0.916000  0.626500  1.0
  H  H278  1  0.914500  0.084000  0.373500  1.0
  H  H279  1  0.585500  0.084000  0.373500  1.0
  H  H280  1  0.085500  0.916000  0.626500  1.0
  H  H281  1  0.434200  0.873300  0.589400  1.0
  H  H282  1  0.934200  0.126700  0.410600  1.0
  H  H283  1  0.565800  0.126700  0.410600  1.0
  H  H284  1  0.065800  0.873300  0.589400  1.0
  H  H285  1  0.397900  0.748600  0.535400  1.0
  H  H286  1  0.897900  0.251400  0.464600  1.0
  H  H287  1  0.602100  0.251400  0.464600  1.0
  H  H288  1  0.102100  0.748600  0.535400  1.0
  H  H289  1  0.375700  0.792600  0.567100  1.0
  H  H290  1  0.875700  0.207400  0.432900  1.0
  H  H291  1  0.624300  0.207400  0.432900  1.0
  H  H292  1  0.124300  0.792600  0.567100  1.0
  H  H293  1  0.450500  0.833700  0.563100  1.0
  H  H294  1  0.950500  0.166300  0.436900  1.0
  H  H295  1  0.549500  0.166300  0.436900  1.0
  H  H296  1  0.049500  0.833700  0.563100  1.0
  H  H297  1  0.472800  0.789700  0.531400  1.0
  H  H298  1  0.972800  0.210300  0.468600  1.0
  H  H299  1  0.527200  0.210300  0.468600  1.0
  H  H300  1  0.027200  0.789700  0.531400  1.0
  H  H301  1  0.430500  0.702100  0.538200  1.0
  H  H302  1  0.930500  0.297900  0.461800  1.0
  H  H303  1  0.569500  0.297900  0.461800  1.0
  H  H304  1  0.069500  0.702100  0.538200  1.0
  H  H305  1  0.451700  0.692300  0.572100  1.0
  H  H306  1  0.951700  0.307700  0.427900  1.0
  H  H307  1  0.548300  0.307700  0.427900  1.0
  H  H308  1  0.048300  0.692300  0.572100  1.0
  H  H309  1  0.532400  0.722900  0.563700  1.0
  H  H310  1  0.032400  0.277100  0.436300  1.0
  H  H311  1  0.467600  0.277100  0.436300  1.0
  H  H312  1  0.967600  0.722900  0.563700  1.0
  H  H313  1  0.511300  0.732700  0.529800  1.0
  H  H314  1  0.011300  0.267300  0.470200  1.0
  H  H315  1  0.488700  0.267300  0.470200  1.0
  H  H316  1  0.988700  0.732700  0.529800  1.0
  H  H317  1  0.550000  0.708800  0.589300  1.0
  H  H318  1  0.050000  0.291200  0.410700  1.0
  H  H319  1  0.450000  0.291200  0.410700  1.0
  H  H320  1  0.950000  0.708800  0.589300  1.0
  H  H321  1  0.568000  0.698000  0.623500  1.0
  H  H322  1  0.068000  0.302000  0.376500  1.0
  H  H323  1  0.432000  0.302000  0.376500  1.0
  H  H324  1  0.932000  0.698000  0.623500  1.0
  H  H325  1  0.534300  0.683400  0.647100  1.0
  H  H326  1  0.034300  0.316600  0.352900  1.0
  H  H327  1  0.465700  0.316600  0.352900  1.0
  H  H328  1  0.965700  0.683400  0.647100  1.0
  H  H329  1  0.399200  0.666667  0.637467  1.0
  H  H330  1  0.899200  0.333333  0.362533  1.0
  H  H331  1  0.600800  0.333333  0.362533  1.0
  H  H332  1  0.100800  0.666667  0.637467  1.0
  H  H333  1  0.438500  0.677000  0.615000  1.0
  H  H334  1  0.938500  0.323000  0.385000  1.0
  H  H335  1  0.561500  0.323000  0.385000  1.0
  H  H336  1  0.061500  0.677000  0.615000  1.0
  H  H337  1  0.498300  0.677000  0.671800  1.0
  H  H338  1  0.998300  0.323000  0.328200  1.0
  H  H339  1  0.501700  0.323000  0.328200  1.0
  H  H340  1  0.001700  0.677000  0.671800  1.0
  H  H341  1  0.459000  0.666800  0.694400  1.0
  H  H342  1  0.959000  0.333200  0.305600  1.0
  H  H343  1  0.541000  0.333200  0.305600  1.0
  H  H344  1  0.041000  0.666800  0.694400  1.0
  H  H345  1  0.367300  0.613600  0.633800  1.0
  H  H346  1  0.867300  0.386400  0.366200  1.0
  H  H347  1  0.632700  0.386400  0.366200  1.0
  H  H348  1  0.132700  0.613600  0.633800  1.0
  H  H349  1  0.363300  0.563800  0.609500  1.0
  H  H350  1  0.863300  0.436200  0.390500  1.0
  H  H351  1  0.636700  0.436200  0.390500  1.0
  H  H352  1  0.136700  0.563800  0.609500  1.0
  H  H353  1  0.416100  0.561000  0.669400  1.0
  H  H354  1  0.916100  0.439000  0.330600  1.0
  H  H355  1  0.583900  0.439000  0.330600  1.0
  H  H356  1  0.083900  0.561000  0.669400  1.0
  H  H357  1  0.420100  0.610800  0.693600  1.0
  H  H358  1  0.920100  0.389200  0.306400  1.0
  H  H359  1  0.579900  0.389200  0.306400  1.0
  H  H360  1  0.079900  0.610800  0.693600  1.0
  H  H361  1  0.425900  0.515200  0.634000  1.0
  H  H362  1  0.925900  0.484800  0.366000  1.0
  H  H363  1  0.574100  0.484800  0.366000  1.0
  H  H364  1  0.074100  0.515200  0.634000  1.0
  H  H365  1  0.417900  0.465900  0.607600  1.0
  H  H366  1  0.917900  0.534100  0.392400  1.0
  H  H367  1  0.582100  0.534100  0.392400  1.0
  H  H368  1  0.082100  0.465900  0.607600  1.0
  H  H369  1  0.375600  0.447700  0.577700  1.0
  H  H370  1  0.875600  0.552300  0.422300  1.0
  H  H371  1  0.624400  0.552300  0.422300  1.0
  H  H372  1  0.124400  0.447700  0.577700  1.0
  H  H373  1  0.286100  0.497300  0.534700  1.0
  H  H374  1  0.786100  0.502700  0.465300  1.0
  H  H375  1  0.713900  0.502700  0.465300  1.0
  H  H376  1  0.213900  0.497300  0.534700  1.0
  H  H377  1  0.327000  0.512600  0.566400  1.0
  H  H378  1  0.827000  0.487400  0.433600  1.0
  H  H379  1  0.673000  0.487400  0.433600  1.0
  H  H380  1  0.173000  0.512600  0.566400  1.0
  H  H381  1  0.328100  0.436100  0.563300  1.0
  H  H382  1  0.828100  0.563900  0.436700  1.0
  H  H383  1  0.671900  0.563900  0.436700  1.0
  H  H384  1  0.171900  0.436100  0.563300  1.0
  H  H385  1  0.287200  0.420800  0.531600  1.0
  H  H386  1  0.787200  0.579200  0.468400  1.0
  H  H387  1  0.712800  0.579200  0.468400  1.0
  H  H388  1  0.212800  0.420800  0.531600  1.0
  H  H389  1  0.286300  0.463000  0.465500  1.0
  H  H390  1  0.786300  0.537000  0.534500  1.0
  H  H391  1  0.713700  0.537000  0.534500  1.0
  H  H392  1  0.213700  0.463000  0.465500  1.0
  H  H393  1  0.327500  0.446900  0.434100  1.0
  H  H394  1  0.827500  0.553100  0.565900  1.0
  H  H395  1  0.672500  0.553100  0.565900  1.0
  H  H396  1  0.172500  0.446900  0.434100  1.0
  H  H397  1  0.328800  0.373300  0.436800  1.0
  H  H398  1  0.828800  0.626700  0.563200  1.0
  H  H399  1  0.671200  0.626700  0.563200  1.0
  H  H400  1  0.171200  0.373300  0.436800  1.0
  H  H401  1  0.287500  0.389400  0.468200  1.0
  H  H402  1  0.787500  0.610600  0.531800  1.0
  H  H403  1  0.712500  0.610600  0.531800  1.0
  H  H404  1  0.212500  0.389400  0.468200  1.0
  H  H405  1  0.376600  0.370600  0.422500  1.0
  H  H406  1  0.876600  0.629400  0.577500  1.0
  H  H407  1  0.623400  0.629400  0.577500  1.0
  H  H408  1  0.123400  0.370600  0.422500  1.0
  H  H409  1  0.418600  0.358700  0.392300  1.0
  H  H410  1  0.918600  0.641300  0.607700  1.0
  H  H411  1  0.581400  0.641300  0.607700  1.0
  H  H412  1  0.081400  0.358700  0.392300  1.0
  H  H413  1  0.426400  0.381400  0.365600  1.0
  H  H414  1  0.926400  0.618600  0.634400  1.0
  H  H415  1  0.573600  0.618600  0.634400  1.0
  H  H416  1  0.073600  0.381400  0.365600  1.0
  H  H417  1  0.367600  0.480100  0.366400  1.0
  H  H418  1  0.867600  0.519900  0.633600  1.0
  H  H419  1  0.632400  0.519900  0.633600  1.0
  H  H420  1  0.132400  0.480100  0.366400  1.0
  H  H421  1  0.363500  0.454500  0.390600  1.0
  H  H422  1  0.863500  0.545500  0.609400  1.0
  H  H423  1  0.636500  0.545500  0.609400  1.0
  H  H424  1  0.136500  0.454500  0.390600  1.0
  H  H425  1  0.416100  0.391700  0.330600  1.0
  H  H426  1  0.916100  0.608300  0.669400  1.0
  H  H427  1  0.583900  0.608300  0.669400  1.0
  H  H428  1  0.083900  0.391700  0.330600  1.0
  H  H429  1  0.420200  0.417300  0.306400  1.0
  H  H430  1  0.920200  0.582700  0.693600  1.0
  H  H431  1  0.579800  0.582700  0.693600  1.0
  H  H432  1  0.079800  0.417300  0.306400  1.0
  H  H433  1  0.399300  0.528400  0.362800  1.0
  H  H434  1  0.899300  0.471600  0.637200  1.0
  H  H435  1  0.600700  0.471600  0.637200  1.0
  H  H436  1  0.100700  0.528400  0.362800  1.0
  H  H437  1  0.438500  0.561300  0.385000  1.0
  H  H438  1  0.938500  0.438700  0.615000  1.0
  H  H439  1  0.561500  0.438700  0.615000  1.0
  H  H440  1  0.061500  0.561300  0.385000  1.0
  H  H441  1  0.498000  0.504800  0.327300  1.0
  H  H442  1  0.998000  0.495200  0.672700  1.0
  H  H443  1  0.502000  0.495200  0.672700  1.0
  H  H444  1  0.002000  0.504800  0.327300  1.0
  H  H445  1  0.458700  0.472000  0.305100  1.0
  H  H446  1  0.958700  0.528000  0.694900  1.0
  H  H447  1  0.541300  0.528000  0.694900  1.0
  H  H448  1  0.041300  0.472000  0.305100  1.0
  H  H449  1  0.533000  0.536300  0.351800  1.0
  H  H450  1  0.033000  0.463700  0.648200  1.0
  H  H451  1  0.467000  0.463700  0.648200  1.0
  H  H452  1  0.967000  0.536300  0.351800  1.0
  H  H453  1  0.567600  0.573700  0.374500  1.0
  H  H454  1  0.067600  0.426300  0.625500  1.0
  H  H455  1  0.432400  0.426300  0.625500  1.0
  H  H456  1  0.932400  0.573700  0.374500  1.0
  H  H457  1  0.551000  0.619100  0.409400  1.0
  H  H458  1  0.051000  0.380900  0.590600  1.0
  H  H459  1  0.449000  0.380900  0.590600  1.0
  H  H460  1  0.949000  0.619100  0.409400  1.0
  H  H461  1  0.430500  0.664200  0.462800  1.0
  H  H462  1  0.930500  0.335800  0.537200  1.0
  H  H463  1  0.569500  0.335800  0.537200  1.0
  H  H464  1  0.069500  0.664200  0.462800  1.0
  H  H465  1  0.451500  0.620300  0.429000  1.0
  H  H466  1  0.951500  0.379700  0.571000  1.0
  H  H467  1  0.548500  0.379700  0.571000  1.0
  H  H468  1  0.048500  0.620300  0.429000  1.0
  H  H469  1  0.531600  0.659400  0.435200  1.0
  H  H470  1  0.031600  0.340600  0.564800  1.0
  H  H471  1  0.468400  0.340600  0.564800  1.0
  H  H472  1  0.968400  0.659400  0.435200  1.0
  H  H473  1  0.510600  0.703200  0.468900  1.0
  H  H474  1  0.010600  0.296800  0.531100  1.0
  H  H475  1  0.489400  0.296800  0.531100  1.0
  H  H476  1  0.989400  0.703200  0.468900  1.0
  H  H477  1  0.396300  0.715000  0.465900  1.0
  H  H478  1  0.896300  0.285000  0.534100  1.0
  H  H479  1  0.603700  0.285000  0.534100  1.0
  H  H480  1  0.103700  0.715000  0.465900  1.0
  H  H481  1  0.375200  0.725800  0.432700  1.0
  H  H482  1  0.875200  0.274200  0.567300  1.0
  H  H483  1  0.624800  0.274200  0.567300  1.0
  H  H484  1  0.124800  0.725800  0.432700  1.0
  H  H485  1  0.452100  0.767300  0.434200  1.0
  H  H486  1  0.952100  0.232700  0.565800  1.0
  H  H487  1  0.547900  0.232700  0.565800  1.0
  H  H488  1  0.047900  0.767300  0.434200  1.0
  H  H489  1  0.473200  0.756500  0.467400  1.0
  H  H490  1  0.973200  0.243500  0.532600  1.0
  H  H491  1  0.526800  0.243500  0.532600  1.0
  H  H492  1  0.026800  0.756500  0.467400  1.0
  H  H493  1  0.432400  0.784400  0.410000  1.0
  H  H494  1  0.932400  0.215600  0.590000  1.0
  H  H495  1  0.567600  0.215600  0.590000  1.0
  H  H496  1  0.067600  0.784400  0.410000  1.0
  H  H497  1  0.412700  0.788500  0.372000  1.0
  H  H498  1  0.912700  0.211500  0.628000  1.0
  H  H499  1  0.587300  0.211500  0.628000  1.0
  H  H500  1  0.087300  0.788500  0.372000  1.0
  H  H501  1  0.369300  0.762900  0.348100  1.0
  H  H502  1  0.869300  0.237100  0.651900  1.0
  H  H503  1  0.630700  0.237100  0.651900  1.0
  H  H504  1  0.130700  0.762900  0.348100  1.0
  H  H505  1  0.283800  0.686300  0.363600  1.0
  H  H506  1  0.783800  0.313700  0.636400  1.0
  H  H507  1  0.716200  0.313700  0.636400  1.0
  H  H508  1  0.216200  0.686300  0.363600  1.0
  H  H509  1  0.328100  0.711500  0.385700  1.0
  H  H510  1  0.828100  0.288500  0.614300  1.0
  H  H511  1  0.671900  0.288500  0.614300  1.0
  H  H512  1  0.171900  0.711500  0.385700  1.0
  H  H513  1  0.332000  0.740600  0.329700  1.0
  H  H514  1  0.832000  0.259400  0.670300  1.0
  H  H515  1  0.668000  0.259400  0.670300  1.0
  H  H516  1  0.168000  0.740600  0.329700  1.0
  H  H517  1  0.287700  0.715500  0.307700  1.0
  H  H518  1  0.787700  0.284500  0.692300  1.0
  H  H519  1  0.712300  0.284500  0.692300  1.0
  H  H520  1  0.212300  0.715500  0.307700  1.0
  H  H521  1  0.284800  0.625900  0.317400  1.0
  H  H522  1  0.784800  0.374100  0.682600  1.0
  H  H523  1  0.715200  0.374100  0.682600  1.0
  H  H524  1  0.215200  0.625900  0.317400  1.0
  H  H525  1  0.320900  0.590000  0.293000  1.0
  H  H526  1  0.820900  0.410000  0.707000  1.0
  H  H527  1  0.679100  0.410000  0.707000  1.0
  H  H528  1  0.179100  0.590000  0.293000  1.0
  H  H529  1  0.323300  0.609600  0.229800  1.0
  H  H530  1  0.823300  0.390400  0.770200  1.0
  H  H531  1  0.676700  0.390400  0.770200  1.0
  H  H532  1  0.176700  0.609600  0.229800  1.0
  H  H533  1  0.287300  0.645400  0.254100  1.0
  H  H534  1  0.787300  0.354600  0.745900  1.0
  H  H535  1  0.712700  0.354600  0.745900  1.0
  H  H536  1  0.212700  0.645400  0.254100  1.0
  H  H537  1  0.354900  0.576100  0.205300  1.0
  H  H538  1  0.854900  0.423900  0.794700  1.0
  H  H539  1  0.645100  0.423900  0.794700  1.0
  H  H540  1  0.145100  0.576100  0.205300  1.0
  H  H541  1  0.387100  0.536400  0.183100  1.0
  H  H542  1  0.887100  0.463600  0.816900  1.0
  H  H543  1  0.612900  0.463600  0.816900  1.0
  H  H544  1  0.112900  0.536400  0.183100  1.0
  H  H545  1  0.397400  0.509600  0.205300  1.0
  H  H546  1  0.897400  0.490400  0.794700  1.0
  H  H547  1  0.602600  0.490400  0.794700  1.0
  H  H548  1  0.102600  0.509600  0.205300  1.0
  H  H549  1  0.357400  0.521800  0.316400  1.0
  H  H550  1  0.857400  0.478200  0.683600  1.0
  H  H551  1  0.642600  0.478200  0.683600  1.0
  H  H552  1  0.142600  0.521800  0.316400  1.0
  H  H553  1  0.350600  0.544700  0.289800  1.0
  H  H554  1  0.850600  0.455300  0.710200  1.0
  H  H555  1  0.649400  0.455300  0.710200  1.0
  H  H556  1  0.149400  0.544700  0.289800  1.0
  H  H557  1  0.407600  0.488200  0.229100  1.0
  H  H558  1  0.907600  0.511800  0.770900  1.0
  H  H559  1  0.592400  0.511800  0.770900  1.0
  H  H560  1  0.092400  0.488200  0.229100  1.0
  H  H561  1  0.414500  0.465300  0.255800  1.0
  H  H562  1  0.914500  0.534700  0.744200  1.0
  H  H563  1  0.585500  0.534700  0.744200  1.0
  H  H564  1  0.085500  0.465300  0.255800  1.0
  H  H565  1  0.325600  0.347700  0.028600  1.0
  H  H566  1  0.825600  0.652300  0.971400  1.0
  H  H567  1  0.674400  0.652300  0.971400  1.0
  H  H568  1  0.174400  0.347700  0.028600  1.0
  H  H569  1  0.282600  0.351600  0.055500  1.0
  H  H570  1  0.782600  0.648400  0.944500  1.0
  H  H571  1  0.717400  0.648400  0.944500  1.0
  H  H572  1  0.217400  0.351600  0.055500  1.0
  H  H573  1  0.335000  0.344600  0.113200  1.0
  H  H574  1  0.835000  0.655400  0.886800  1.0
  H  H575  1  0.665000  0.655400  0.886800  1.0
  H  H576  1  0.165000  0.344600  0.113200  1.0
  H  H577  1  0.378000  0.340700  0.086300  1.0
  H  H578  1  0.878000  0.659300  0.913700  1.0
  H  H579  1  0.622000  0.659300  0.913700  1.0
  H  H580  1  0.122000  0.340700  0.086300  1.0
  H  H581  1  0.293500  0.359600  0.141700  1.0
  H  H582  1  0.793500  0.640400  0.858300  1.0
  H  H583  1  0.706500  0.640400  0.858300  1.0
  H  H584  1  0.206500  0.359600  0.141700  1.0
  H  H585  1  0.250000  0.371000  0.170400  1.0
  H  H586  1  0.750000  0.629000  0.829600  1.0
  H  H587  1  0.325500  0.528600  0.847300  1.0
  H  H588  1  0.825500  0.471400  0.152700  1.0
  H  H589  1  0.674500  0.471400  0.152700  1.0
  H  H590  1  0.174500  0.528600  0.847300  1.0
  H  H591  1  0.282500  0.555500  0.851000  1.0
  H  H592  1  0.782500  0.444500  0.149000  1.0
  H  H593  1  0.717500  0.444500  0.149000  1.0
  H  H594  1  0.217500  0.555500  0.851000  1.0
  H  H595  1  0.335200  0.613200  0.844200  1.0
  H  H596  1  0.835200  0.386800  0.155800  1.0
  H  H597  1  0.664800  0.386800  0.155800  1.0
  H  H598  1  0.164800  0.613200  0.844200  1.0
  H  H599  1  0.378100  0.586200  0.840400  1.0
  H  H600  1  0.878100  0.413800  0.159600  1.0
  H  H601  1  0.621900  0.413800  0.159600  1.0
  H  H602  1  0.121900  0.586200  0.840400  1.0
  H  H603  1  0.293700  0.640500  0.858900  1.0
  H  H604  1  0.793700  0.359500  0.141100  1.0
  H  H605  1  0.706300  0.359500  0.141100  1.0
  H  H606  1  0.206300  0.640500  0.858900  1.0
  H  H607  1  0.250000  0.669400  0.868700  1.0
  H  H608  1  0.750000  0.330600  0.131300  1.0
  H  H609  1  0.397200  0.251100  0.786400  1.0
  H  H610  1  0.897200  0.748900  0.213600  1.0
  H  H611  1  0.602800  0.748900  0.213600  1.0
  H  H612  1  0.102800  0.251100  0.786400  1.0
  H  H613  1  0.375200  0.207300  0.775100  1.0
  H  H614  1  0.875200  0.792700  0.224900  1.0
  H  H615  1  0.624800  0.792700  0.224900  1.0
  H  H616  1  0.124800  0.207300  0.775100  1.0
  H  H617  1  0.450100  0.166000  0.730400  1.0
  H  H618  1  0.950100  0.834000  0.269600  1.0
  H  H619  1  0.549900  0.834000  0.269600  1.0
  H  H620  1  0.049900  0.166000  0.730400  1.0
  H  H621  1  0.472100  0.209800  0.741700  1.0
  H  H622  1  0.972100  0.790200  0.258300  1.0
  H  H623  1  0.527900  0.790200  0.258300  1.0
  H  H624  1  0.027900  0.209800  0.741700  1.0
  H  H625  1  0.434400  0.126400  0.717400  1.0
  H  H626  1  0.934400  0.873600  0.282600  1.0
  H  H627  1  0.565600  0.873600  0.282600  1.0
  H  H628  1  0.065600  0.126400  0.717400  1.0
  H  H629  1  0.415000  0.084000  0.712800  1.0
  H  H630  1  0.915000  0.916000  0.287200  1.0
  H  H631  1  0.585000  0.916000  0.287200  1.0
  H  H632  1  0.085000  0.084000  0.712800  1.0
  H  H633  1  0.370500  0.084900  0.736700  1.0
  H  H634  1  0.870500  0.915100  0.263300  1.0
  H  H635  1  0.629500  0.915100  0.263300  1.0
  H  H636  1  0.129500  0.084900  0.736700  1.0
  H  H637  1  0.284400  0.177400  0.814000  1.0
  H  H638  1  0.784400  0.822600  0.186000  1.0
  H  H639  1  0.715600  0.822600  0.186000  1.0
  H  H640  1  0.215600  0.177400  0.814000  1.0
  H  H641  1  0.328100  0.173600  0.787900  1.0
  H  H642  1  0.828100  0.826400  0.212100  1.0
  H  H643  1  0.671900  0.826400  0.212100  1.0
  H  H644  1  0.171900  0.173600  0.787900  1.0
  H  H645  1  0.330600  0.088400  0.758400  1.0
  H  H646  1  0.830600  0.911600  0.241600  1.0
  H  H647  1  0.669400  0.911600  0.241600  1.0
  H  H648  1  0.169400  0.088400  0.758400  1.0
  H  H649  1  0.286900  0.092200  0.784500  1.0
  H  H650  1  0.786900  0.907800  0.215500  1.0
  H  H651  1  0.713100  0.907800  0.215500  1.0
  H  H652  1  0.213100  0.092200  0.784500  1.0
  H  H653  1  0.284700  0.191400  0.874600  1.0
  H  H654  1  0.784700  0.808600  0.125400  1.0
  H  H655  1  0.715300  0.808600  0.125400  1.0
  H  H656  1  0.215300  0.191400  0.874600  1.0
  H  H657  1  0.321400  0.202700  0.909900  1.0
  H  H658  1  0.821400  0.797300  0.090100  1.0
  H  H659  1  0.678600  0.797300  0.090100  1.0
  H  H660  1  0.178600  0.202700  0.909900  1.0
  H  H661  1  0.323600  0.119900  0.890300  1.0
  H  H662  1  0.823600  0.880100  0.109700  1.0
  H  H663  1  0.676400  0.880100  0.109700  1.0
  H  H664  1  0.176400  0.119900  0.890300  1.0
  H  H665  1  0.286900  0.108600  0.855000  1.0
  H  H666  1  0.786900  0.891400  0.145000  1.0
  H  H667  1  0.713100  0.891400  0.145000  1.0
  H  H668  1  0.213100  0.108600  0.855000  1.0
  H  H669  1  0.352400  0.129900  0.925700  1.0
  H  H670  1  0.852400  0.870100  0.074300  1.0
  H  H671  1  0.647600  0.870100  0.074300  1.0
  H  H672  1  0.147600  0.129900  0.925700  1.0
  H  H673  1  0.385300  0.147500  0.964900  1.0
  H  H674  1  0.885300  0.852500  0.035100  1.0
  H  H675  1  0.614700  0.852500  0.035100  1.0
  H  H676  1  0.114700  0.147500  0.964900  1.0
  H  H677  1  0.397700  0.196000  0.990000  1.0
  H  H678  1  0.897700  0.804000  0.010000  1.0
  H  H679  1  0.602300  0.804000  0.010000  1.0
  H  H680  1  0.102300  0.196000  0.990000  1.0
  H  H681  1  0.357100  0.294400  0.978000  1.0
  H  H682  1  0.857100  0.705600  0.022000  1.0
  H  H683  1  0.642900  0.705600  0.022000  1.0
  H  H684  1  0.142900  0.294400  0.978000  1.0
  H  H685  1  0.350600  0.244800  0.955400  1.0
  H  H686  1  0.850600  0.755200  0.044600  1.0
  H  H687  1  0.649400  0.755200  0.044600  1.0
  H  H688  1  0.149400  0.244800  0.955400  1.0
  H  H689  1  0.408100  0.241600  0.012200  1.0
  H  H690  1  0.908100  0.758400  0.987800  1.0
  H  H691  1  0.591900  0.758400  0.987800  1.0
  H  H692  1  0.091900  0.241600  0.012200  1.0
  H  H693  1  0.414500  0.291100  0.034700  1.0
  H  H694  1  0.914500  0.708900  0.965300  1.0
  H  H695  1  0.585500  0.708900  0.965300  1.0
  H  H696  1  0.085500  0.291100  0.034700  1.0
  H  H697  1  0.399100  0.333200  0.970700  1.0
  H  H698  1  0.899100  0.666800  0.029300  1.0
  H  H699  1  0.600900  0.666800  0.029300  1.0
  H  H700  1  0.100900  0.333200  0.970700  1.0
  H  H701  1  0.438400  0.323100  0.938000  1.0
  H  H702  1  0.938400  0.676900  0.062000  1.0
  H  H703  1  0.561600  0.676900  0.062000  1.0
  H  H704  1  0.061600  0.323100  0.938000  1.0
  H  H705  1  0.498100  0.322500  0.994600  1.0
  H  H706  1  0.998100  0.677500  0.005400  1.0
  H  H707  1  0.501900  0.677500  0.005400  1.0
  H  H708  1  0.001900  0.322500  0.994600  1.0
  H  H709  1  0.458800  0.332700  0.027400  1.0
  H  H710  1  0.958800  0.667300  0.972600  1.0
  H  H711  1  0.541200  0.667300  0.972600  1.0
  H  H712  1  0.041200  0.332700  0.027400  1.0
  H  H713  1  0.533700  0.315900  0.963600  1.0
  H  H714  1  0.033700  0.684100  0.036400  1.0
  H  H715  1  0.466300  0.684100  0.036400  1.0
  H  H716  1  0.966300  0.315900  0.963600  1.0
  H  H717  1  0.567900  0.301100  0.925700  1.0
  H  H718  1  0.067900  0.698900  0.074300  1.0
  H  H719  1  0.432100  0.698900  0.074300  1.0
  H  H720  1  0.932100  0.301100  0.925700  1.0
  H  H721  1  0.550600  0.290800  0.880600  1.0
  H  H722  1  0.050600  0.709200  0.119400  1.0
  H  H723  1  0.449400  0.709200  0.119400  1.0
  H  H724  1  0.949400  0.290800  0.880600  1.0
  H  H725  1  0.430400  0.299400  0.836700  1.0
  H  H726  1  0.930400  0.700600  0.163300  1.0
  H  H727  1  0.569600  0.700600  0.163300  1.0
  H  H728  1  0.069600  0.299400  0.836700  1.0
  H  H729  1  0.451500  0.308900  0.880200  1.0
  H  H730  1  0.951500  0.691100  0.119800  1.0
  H  H731  1  0.548500  0.691100  0.119800  1.0
  H  H732  1  0.048500  0.308900  0.880200  1.0
  H  H733  1  0.531400  0.275600  0.840600  1.0
  H  H734  1  0.031400  0.724400  0.159400  1.0
  H  H735  1  0.468600  0.724400  0.159400  1.0
  H  H736  1  0.968600  0.275600  0.840600  1.0
  H  H737  1  0.510200  0.266100  0.797000  1.0
  H  H738  1  0.010200  0.733900  0.203000  1.0
  H  H739  1  0.489800  0.733900  0.203000  1.0
  H  H740  1  0.989800  0.266100  0.797000  1.0
  H  H741  1  0.367000  0.386400  0.020400  1.0
  H  H742  1  0.867000  0.613600  0.979600  1.0
  H  H743  1  0.633000  0.613600  0.979600  1.0
  H  H744  1  0.133000  0.386400  0.020400  1.0
  H  H745  1  0.362900  0.436200  0.045900  1.0
  H  H746  1  0.862900  0.563800  0.954100  1.0
  H  H747  1  0.637100  0.563800  0.954100  1.0
  H  H748  1  0.137100  0.436200  0.045900  1.0
  H  H749  1  0.416500  0.439100  0.108100  1.0
  H  H750  1  0.916500  0.560900  0.891900  1.0
  H  H751  1  0.583500  0.560900  0.891900  1.0
  H  H752  1  0.083500  0.439100  0.108100  1.0
  H  H753  1  0.420600  0.389300  0.082600  1.0
  H  H754  1  0.920600  0.610700  0.917400  1.0
  H  H755  1  0.579400  0.610700  0.917400  1.0
  H  H756  1  0.079400  0.389300  0.082600  1.0
  H  H757  1  0.425600  0.484000  0.119000  1.0
  H  H758  1  0.925600  0.516000  0.881000  1.0
  H  H759  1  0.574400  0.516000  0.881000  1.0
  H  H760  1  0.074400  0.484000  0.119000  1.0
  H  H761  1  0.418200  0.533400  0.141300  1.0
  H  H762  1  0.918200  0.466600  0.858700  1.0
  H  H763  1  0.581800  0.466600  0.858700  1.0
  H  H764  1  0.081800  0.533400  0.141300  1.0
  H  H765  1  0.376600  0.551700  0.128800  1.0
  H  H766  1  0.876600  0.448300  0.871200  1.0
  H  H767  1  0.623400  0.448300  0.871200  1.0
  H  H768  1  0.123400  0.551700  0.128800  1.0
  H  H769  1  0.285700  0.503000  0.037300  1.0
  H  H770  1  0.785700  0.497000  0.962700  1.0
  H  H771  1  0.714300  0.497000  0.962700  1.0
  H  H772  1  0.214300  0.503000  0.037300  1.0
  H  H773  1  0.327400  0.487500  0.052600  1.0
  H  H774  1  0.827400  0.512500  0.947400  1.0
  H  H775  1  0.672600  0.512500  0.947400  1.0
  H  H776  1  0.172600  0.487500  0.052600  1.0
  H  H777  1  0.328800  0.563100  0.126800  1.0
  H  H778  1  0.828800  0.436900  0.873200  1.0
  H  H779  1  0.671200  0.436900  0.873200  1.0
  H  H780  1  0.171200  0.563100  0.126800  1.0
  H  H781  1  0.287000  0.578600  0.111500  1.0
  H  H782  1  0.787000  0.421400  0.888500  1.0
  H  H783  1  0.713000  0.421400  0.888500  1.0
  H  H784  1  0.213000  0.578600  0.111500  1.0
  H  H785  1  0.285700  0.537300  0.002700  1.0
  H  H786  1  0.785700  0.462700  0.997300  1.0
  H  H787  1  0.714300  0.462700  0.997300  1.0
  H  H788  1  0.214300  0.537300  0.002700  1.0
  H  H789  1  0.326900  0.553100  0.987200  1.0
  H  H790  1  0.826900  0.446900  0.012800  1.0
  H  H791  1  0.673100  0.446900  0.012800  1.0
  H  H792  1  0.173100  0.553100  0.987200  1.0
  H  H793  1  0.328200  0.627000  0.063200  1.0
  H  H794  1  0.828200  0.373000  0.936800  1.0
  H  H795  1  0.671800  0.373000  0.936800  1.0
  H  H796  1  0.171800  0.627000  0.063200  1.0
  H  H797  1  0.286900  0.611200  0.078700  1.0
  H  H798  1  0.786900  0.388800  0.921300  1.0
  H  H799  1  0.713100  0.388800  0.921300  1.0
  H  H800  1  0.213100  0.611200  0.078700  1.0
  H  H801  1  0.375900  0.629100  0.052700  1.0
  H  H802  1  0.875900  0.370900  0.947300  1.0
  H  H803  1  0.624100  0.370900  0.947300  1.0
  H  H804  1  0.124100  0.629100  0.052700  1.0
  H  H805  1  0.417500  0.641800  0.034600  1.0
  H  H806  1  0.917500  0.358200  0.965400  1.0
  H  H807  1  0.582500  0.358200  0.965400  1.0
  H  H808  1  0.082500  0.641800  0.034600  1.0
  H  H809  1  0.425100  0.619900  0.985300  1.0
  H  H810  1  0.925100  0.380100  0.014700  1.0
  H  H811  1  0.574900  0.380100  0.014700  1.0
  H  H812  1  0.074900  0.619900  0.985300  1.0
  H  H813  1  0.367000  0.519900  0.886700  1.0
  H  H814  1  0.867000  0.480100  0.113300  1.0
  H  H815  1  0.633000  0.480100  0.113300  1.0
  H  H816  1  0.133000  0.519900  0.886700  1.0
  H  H817  1  0.363500  0.545800  0.936700  1.0
  H  H818  1  0.863500  0.454200  0.063300  1.0
  H  H819  1  0.636500  0.454200  0.063300  1.0
  H  H820  1  0.136500  0.545800  0.936700  1.0
  H  H821  1  0.416500  0.607800  0.938500  1.0
  H  H822  1  0.916500  0.392200  0.061500  1.0
  H  H823  1  0.583500  0.392200  0.061500  1.0
  H  H824  1  0.083500  0.607800  0.938500  1.0
  H  H825  1  0.420000  0.582000  0.888600  1.0
  H  H826  1  0.920000  0.418000  0.111400  1.0
  H  H827  1  0.580000  0.418000  0.111400  1.0
  H  H828  1  0.080000  0.582000  0.888600  1.0
  H  H829  1  0.398600  0.471300  0.833500  1.0
  H  H830  1  0.898600  0.528700  0.166500  1.0
  H  H831  1  0.601400  0.528700  0.166500  1.0
  H  H832  1  0.101400  0.471300  0.833500  1.0
  H  H833  1  0.437500  0.438000  0.822400  1.0
  H  H834  1  0.937500  0.562000  0.177600  1.0
  H  H835  1  0.562500  0.562000  0.177600  1.0
  H  H836  1  0.062500  0.438000  0.822400  1.0
  H  H837  1  0.497800  0.494600  0.822500  1.0
  H  H838  1  0.997800  0.505400  0.177500  1.0
  H  H839  1  0.502200  0.505400  0.177500  1.0
  H  H840  1  0.002200  0.494600  0.822500  1.0
  H  H841  1  0.458800  0.527900  0.833600  1.0
  H  H842  1  0.958800  0.472100  0.166400  1.0
  H  H843  1  0.541200  0.472100  0.166400  1.0
  H  H844  1  0.041200  0.527900  0.833600  1.0
  H  H845  1  0.533500  0.463800  0.817100  1.0
  H  H846  1  0.033500  0.536200  0.182900  1.0
  H  H847  1  0.466500  0.536200  0.182900  1.0
  H  H848  1  0.966500  0.463800  0.817100  1.0
  H  H849  1  0.568200  0.426400  0.802700  1.0
  H  H850  1  0.068200  0.573600  0.197300  1.0
  H  H851  1  0.431800  0.573600  0.197300  1.0
  H  H852  1  0.931800  0.426400  0.802700  1.0
  H  H853  1  0.551400  0.380800  0.791200  1.0
  H  H854  1  0.051400  0.619200  0.208800  1.0
  H  H855  1  0.448600  0.619200  0.208800  1.0
  H  H856  1  0.948600  0.380800  0.791200  1.0
  H  H857  1  0.430900  0.336000  0.799300  1.0
  H  H858  1  0.930900  0.664000  0.200700  1.0
  H  H859  1  0.569100  0.664000  0.200700  1.0
  H  H860  1  0.069100  0.336000  0.799300  1.0
  H  H861  1  0.451400  0.379600  0.808100  1.0
  H  H862  1  0.951400  0.620400  0.191900  1.0
  H  H863  1  0.548600  0.620400  0.191900  1.0
  H  H864  1  0.048600  0.379600  0.808100  1.0
  H  H865  1  0.531300  0.340600  0.774400  1.0
  H  H866  1  0.031300  0.659400  0.225600  1.0
  H  H867  1  0.468700  0.659400  0.225600  1.0
  H  H868  1  0.968700  0.340600  0.774400  1.0
  H  H869  1  0.510900  0.297000  0.765600  1.0
  H  H870  1  0.010900  0.703000  0.234400  1.0
  H  H871  1  0.489100  0.703000  0.234400  1.0
  H  H872  1  0.989100  0.297000  0.765600  1.0
  H  H873  1  0.395600  0.286000  0.750300  1.0
  H  H874  1  0.895600  0.714000  0.249700  1.0
  H  H875  1  0.604400  0.714000  0.249700  1.0
  H  H876  1  0.104400  0.286000  0.750300  1.0
  H  H877  1  0.375000  0.274100  0.705900  1.0
  H  H878  1  0.875000  0.725900  0.294100  1.0
  H  H879  1  0.625000  0.725900  0.294100  1.0
  H  H880  1  0.125000  0.274100  0.705900  1.0
  H  H881  1  0.451400  0.230600  0.666900  1.0
  H  H882  1  0.951400  0.769400  0.333100  1.0
  H  H883  1  0.548600  0.769400  0.333100  1.0
  H  H884  1  0.048600  0.230600  0.666900  1.0
  H  H885  1  0.472000  0.242500  0.711300  1.0
  H  H886  1  0.972000  0.757500  0.288700  1.0
  H  H887  1  0.528000  0.757500  0.288700  1.0
  H  H888  1  0.028000  0.242500  0.711300  1.0
  H  H889  1  0.432600  0.215400  0.625000  1.0
  H  H890  1  0.932600  0.784600  0.375000  1.0
  H  H891  1  0.567400  0.784600  0.375000  1.0
  H  H892  1  0.067400  0.215400  0.625000  1.0
  H  H893  1  0.413100  0.212400  0.583300  1.0
  H  H894  1  0.913100  0.787600  0.416700  1.0
  H  H895  1  0.586900  0.787600  0.416700  1.0
  H  H896  1  0.086900  0.212400  0.583300  1.0
  H  H897  1  0.370000  0.238600  0.585600  1.0
  H  H898  1  0.870000  0.761400  0.414400  1.0
  H  H899  1  0.630000  0.761400  0.414400  1.0
  H  H900  1  0.130000  0.238600  0.585600  1.0
  H  H901  1  0.284900  0.314400  0.677200  1.0
  H  H902  1  0.784900  0.685600  0.322800  1.0
  H  H903  1  0.715100  0.685600  0.322800  1.0
  H  H904  1  0.215100  0.314400  0.677200  1.0
  H  H905  1  0.328300  0.288000  0.673600  1.0
  H  H906  1  0.828300  0.712000  0.326400  1.0
  H  H907  1  0.671700  0.712000  0.326400  1.0
  H  H908  1  0.171700  0.288000  0.673600  1.0
  H  H909  1  0.331000  0.257800  0.588300  1.0
  H  H910  1  0.831000  0.742200  0.411700  1.0
  H  H911  1  0.669000  0.742200  0.411700  1.0
  H  H912  1  0.169000  0.257800  0.588300  1.0
  H  H913  1  0.287600  0.284200  0.591900  1.0
  H  H914  1  0.787600  0.715800  0.408100  1.0
  H  H915  1  0.712400  0.715800  0.408100  1.0
  H  H916  1  0.212400  0.284200  0.591900  1.0
  H  H917  1  0.286400  0.374300  0.692300  1.0
  H  H918  1  0.786400  0.625700  0.307700  1.0
  H  H919  1  0.713600  0.625700  0.307700  1.0
  H  H920  1  0.213600  0.374300  0.692300  1.0
  H  H921  1  0.322100  0.410000  0.702300  1.0
  H  H922  1  0.822100  0.590000  0.297700  1.0
  H  H923  1  0.677900  0.590000  0.297700  1.0
  H  H924  1  0.177900  0.410000  0.702300  1.0
  H  H925  1  0.321700  0.389300  0.619200  1.0
  H  H926  1  0.821700  0.610700  0.380800  1.0
  H  H927  1  0.678300  0.610700  0.380800  1.0
  H  H928  1  0.178300  0.389300  0.619200  1.0
  H  H929  1  0.285900  0.353500  0.609100  1.0
  H  H930  1  0.785900  0.646500  0.390900  1.0
  H  H931  1  0.714100  0.646500  0.390900  1.0
  H  H932  1  0.214100  0.353500  0.609100  1.0
  H  H933  1  0.352900  0.425600  0.629800  1.0
  H  H934  1  0.852900  0.574400  0.370200  1.0
  H  H935  1  0.647100  0.574400  0.370200  1.0
  H  H936  1  0.147100  0.425600  0.629800  1.0
  H  H937  1  0.386800  0.464000  0.647700  1.0
  H  H938  1  0.886800  0.536000  0.352300  1.0
  H  H939  1  0.613200  0.536000  0.352300  1.0
  H  H940  1  0.113200  0.464000  0.647700  1.0
  H  H941  1  0.398700  0.488800  0.696400  1.0
  H  H942  1  0.898700  0.511200  0.303600  1.0
  H  H943  1  0.601300  0.511200  0.303600  1.0
  H  H944  1  0.101300  0.488800  0.696400  1.0
  H  H945  1  0.357600  0.477800  0.794400  1.0
  H  H946  1  0.857600  0.522200  0.205600  1.0
  H  H947  1  0.642400  0.522200  0.205600  1.0
  H  H948  1  0.142400  0.477800  0.794400  1.0
  H  H949  1  0.350600  0.455300  0.745000  1.0
  H  H950  1  0.850600  0.544700  0.255000  1.0
  H  H951  1  0.649400  0.544700  0.255000  1.0
  H  H952  1  0.149400  0.455300  0.745000  1.0
  H  H953  1  0.407400  0.512200  0.741300  1.0
  H  H954  1  0.907400  0.487800  0.258700  1.0
  H  H955  1  0.592600  0.487800  0.258700  1.0
  H  H956  1  0.092600  0.512200  0.741300  1.0
  H  H957  1  0.414300  0.534800  0.790800  1.0
  H  H958  1  0.914300  0.465200  0.209200  1.0
  H  H959  1  0.585700  0.465200  0.209200  1.0
  H  H960  1  0.085700  0.534800  0.790800  1.0
  H  H961  1  0.674500  0.819200  0.847600  1.0
  H  H962  1  0.174500  0.180800  0.152400  1.0
  H  H963  1  0.325500  0.180800  0.152400  1.0
  H  H964  1  0.825500  0.819200  0.847600  1.0
  H  H965  1  0.717400  0.796500  0.852200  1.0
  H  H966  1  0.217400  0.203500  0.147800  1.0
  H  H967  1  0.282600  0.203500  0.147800  1.0
  H  H968  1  0.782600  0.796500  0.852200  1.0
  H  H969  1  0.665200  0.731400  0.844400  1.0
  H  H970  1  0.165200  0.268600  0.155600  1.0
  H  H971  1  0.334800  0.268600  0.155600  1.0
  H  H972  1  0.834800  0.731400  0.844400  1.0
  H  H973  1  0.622200  0.754000  0.839800  1.0
  H  H974  1  0.122200  0.246000  0.160200  1.0
  H  H975  1  0.377800  0.246000  0.160200  1.0
  H  H976  1  0.877800  0.754000  0.839800  1.0
  H  H977  1  0.704700  0.717000  0.859200  1.0
  H  H978  1  0.204700  0.283000  0.140800  1.0
  H  H979  1  0.295300  0.283000  0.140800  1.0
  H  H980  1  0.795300  0.717000  0.859200  1.0
  H  H981  1  0.750000  0.702800  0.872200  1.0
  H  H982  1  0.250000  0.297200  0.127800  1.0
  H  H983  1  0.674800  0.180400  0.029300  1.0
  H  H984  1  0.174800  0.819600  0.970700  1.0
  H  H985  1  0.325200  0.819600  0.970700  1.0
  H  H986  1  0.825200  0.180400  0.029300  1.0
  H  H987  1  0.717700  0.203800  0.056400  1.0
  H  H988  1  0.217700  0.796200  0.943600  1.0
  H  H989  1  0.282300  0.796200  0.943600  1.0
  H  H990  1  0.782300  0.203800  0.056400  1.0
  H  H991  1  0.664900  0.268800  0.113100  1.0
  H  H992  1  0.164900  0.731200  0.886900  1.0
  H  H993  1  0.335100  0.731200  0.886900  1.0
  H  H994  1  0.835100  0.268800  0.113100  1.0
  H  H995  1  0.622100  0.245400  0.086000  1.0
  H  H996  1  0.122100  0.754600  0.914000  1.0
  H  H997  1  0.377900  0.754600  0.914000  1.0
  H  H998  1  0.877900  0.245400  0.086000  1.0
  H  H999  1  0.705800  0.282100  0.141500  1.0
  H  H1000  1  0.205800  0.717900  0.858500  1.0
  H  H1001  1  0.294200  0.717900  0.858500  1.0
  H  H1002  1  0.794200  0.282100  0.141500  1.0
  H  H1003  1  0.750000  0.297800  0.169300  1.0
  H  H1004  1  0.250000  0.702200  0.830700  1.0
  H  H1005  1  0.643100  0.816100  0.794200  1.0
  H  H1006  1  0.143100  0.183900  0.205800  1.0
  H  H1007  1  0.356900  0.183900  0.205800  1.0
  H  H1008  1  0.856900  0.816100  0.794200  1.0
  H  H1009  1  0.649800  0.789300  0.744700  1.0
  H  H1010  1  0.149800  0.210700  0.255300  1.0
  H  H1011  1  0.350200  0.210700  0.255300  1.0
  H  H1012  1  0.850200  0.789300  0.744700  1.0
  H  H1013  1  0.591900  0.729300  0.740900  1.0
  H  H1014  1  0.091900  0.270700  0.259100  1.0
  H  H1015  1  0.408100  0.270700  0.259100  1.0
  H  H1016  1  0.908100  0.729300  0.740900  1.0
  H  H1017  1  0.585200  0.756100  0.790400  1.0
  H  H1018  1  0.085200  0.243900  0.209600  1.0
  H  H1019  1  0.414800  0.243900  0.209600  1.0
  H  H1020  1  0.914800  0.756100  0.790400  1.0
  H  H1021  1  0.602100  0.706000  0.695000  1.0
  H  H1022  1  0.102100  0.294000  0.305000  1.0
  H  H1023  1  0.397900  0.294000  0.305000  1.0
  H  H1024  1  0.897900  0.706000  0.695000  1.0
  H  H1025  1  0.615400  0.683100  0.646700  1.0
  H  H1026  1  0.115400  0.316900  0.353300  1.0
  H  H1027  1  0.384600  0.316900  0.353300  1.0
  H  H1028  1  0.884600  0.683100  0.646700  1.0
  H  H1029  1  0.649000  0.705000  0.630100  1.0
  H  H1030  1  0.149000  0.295000  0.369900  1.0
  H  H1031  1  0.351000  0.295000  0.369900  1.0
  H  H1032  1  0.851000  0.705000  0.630100  1.0
  H  H1033  1  0.714500  0.817100  0.692400  1.0
  H  H1034  1  0.214500  0.182900  0.307600  1.0
  H  H1035  1  0.285500  0.182900  0.307600  1.0
  H  H1036  1  0.785500  0.817100  0.692400  1.0
  H  H1037  1  0.678500  0.791500  0.702300  1.0
  H  H1038  1  0.178500  0.208500  0.297700  1.0
  H  H1039  1  0.321500  0.208500  0.297700  1.0
  H  H1040  1  0.821500  0.791500  0.702300  1.0
  H  H1041  1  0.677700  0.730000  0.618800  1.0
  H  H1042  1  0.177700  0.270000  0.381200  1.0
  H  H1043  1  0.322300  0.270000  0.381200  1.0
  H  H1044  1  0.822300  0.730000  0.618800  1.0
  H  H1045  1  0.713700  0.755600  0.608900  1.0
  H  H1046  1  0.213700  0.244400  0.391100  1.0
  H  H1047  1  0.286300  0.244400  0.391100  1.0
  H  H1048  1  0.786300  0.755600  0.608900  1.0
  H  H1049  1  0.716500  0.863800  0.677200  1.0
  H  H1050  1  0.216500  0.136200  0.322800  1.0
  H  H1051  1  0.283500  0.136200  0.322800  1.0
  H  H1052  1  0.783500  0.863800  0.677200  1.0
  H  H1053  1  0.673500  0.887200  0.673800  1.0
  H  H1054  1  0.173500  0.112800  0.326200  1.0
  H  H1055  1  0.326500  0.112800  0.326200  1.0
  H  H1056  1  0.826500  0.887200  0.673800  1.0
  H  H1057  1  0.668000  0.830100  0.589100  1.0
  H  H1058  1  0.168000  0.169900  0.410900  1.0
  H  H1059  1  0.332000  0.169900  0.410900  1.0
  H  H1060  1  0.832000  0.830100  0.589100  1.0
  H  H1061  1  0.711000  0.806600  0.592400  1.0
  H  H1062  1  0.211000  0.193400  0.407600  1.0
  H  H1063  1  0.289000  0.193400  0.407600  1.0
  H  H1064  1  0.789000  0.806600  0.592400  1.0
  H  H1065  1  0.630600  0.848700  0.583900  1.0
  H  H1066  1  0.130600  0.151300  0.416100  1.0
  H  H1067  1  0.369400  0.151300  0.416100  1.0
  H  H1068  1  0.869400  0.848700  0.583900  1.0
  H  H1069  1  0.586300  0.872000  0.583200  1.0
  H  H1070  1  0.086300  0.128000  0.416800  1.0
  H  H1071  1  0.413700  0.128000  0.416800  1.0
  H  H1072  1  0.913700  0.872000  0.583200  1.0
  H  H1073  1  0.566600  0.909200  0.625900  1.0
  H  H1074  1  0.066600  0.090800  0.374100  1.0
  H  H1075  1  0.433400  0.090800  0.374100  1.0
  H  H1076  1  0.933400  0.909200  0.625900  1.0
  H  H1077  1  0.604000  0.964200  0.751000  1.0
  H  H1078  1  0.104000  0.035800  0.249000  1.0
  H  H1079  1  0.396000  0.035800  0.249000  1.0
  H  H1080  1  0.896000  0.964200  0.751000  1.0
  H  H1081  1  0.625400  0.932300  0.706600  1.0
  H  H1082  1  0.125400  0.067700  0.293400  1.0
  H  H1083  1  0.374600  0.067700  0.293400  1.0
  H  H1084  1  0.874600  0.932300  0.706600  1.0
  H  H1085  1  0.549400  0.936600  0.667000  1.0
  H  H1086  1  0.049400  0.063400  0.333000  1.0
  H  H1087  1  0.450600  0.063400  0.333000  1.0
  H  H1088  1  0.950600  0.936600  0.667000  1.0
  H  H1089  1  0.528000  0.968500  0.711300  1.0
  H  H1090  1  0.028000  0.031500  0.288700  1.0
  H  H1091  1  0.472000  0.031500  0.288700  1.0
  H  H1092  1  0.972000  0.968500  0.711300  1.0
  H  H1093  1  0.569100  0.962100  0.798400  1.0
  H  H1094  1  0.069100  0.037900  0.201600  1.0
  H  H1095  1  0.430900  0.037900  0.201600  1.0
  H  H1096  1  0.930900  0.962100  0.798400  1.0
  H  H1097  1  0.547500  0.929100  0.809200  1.0
  H  H1098  1  0.047500  0.070900  0.190800  1.0
  H  H1099  1  0.452500  0.070900  0.190800  1.0
  H  H1100  1  0.952500  0.929100  0.809200  1.0
  H  H1101  1  0.467600  0.935700  0.776300  1.0
  H  H1102  1  0.967600  0.064300  0.223700  1.0
  H  H1103  1  0.532400  0.064300  0.223700  1.0
  H  H1104  1  0.032400  0.935700  0.776300  1.0
  H  H1105  1  0.489100  0.968800  0.765600  1.0
  H  H1106  1  0.989100  0.031200  0.234400  1.0
  H  H1107  1  0.510900  0.031200  0.234400  1.0
  H  H1108  1  0.010900  0.968800  0.765600  1.0
  H  H1109  1  0.450000  0.910700  0.791000  1.0
  H  H1110  1  0.950000  0.089300  0.209000  1.0
  H  H1111  1  0.550000  0.089300  0.209000  1.0
  H  H1112  1  0.050000  0.910700  0.791000  1.0
  H  H1113  1  0.431700  0.877800  0.803500  1.0
  H  H1114  1  0.931700  0.122200  0.196500  1.0
  H  H1115  1  0.568300  0.122200  0.196500  1.0
  H  H1116  1  0.068300  0.877800  0.803500  1.0
  H  H1117  1  0.465200  0.854500  0.818600  1.0
  H  H1118  1  0.965200  0.145500  0.181400  1.0
  H  H1119  1  0.534800  0.145500  0.181400  1.0
  H  H1120  1  0.034800  0.854500  0.818600  1.0
  H  H1121  1  0.601000  0.862700  0.833800  1.0
  H  H1122  1  0.101000  0.137300  0.166200  1.0
  H  H1123  1  0.399000  0.137300  0.166200  1.0
  H  H1124  1  0.899000  0.862700  0.833800  1.0
  H  H1125  1  0.561800  0.885100  0.823300  1.0
  H  H1126  1  0.061800  0.114900  0.176700  1.0
  H  H1127  1  0.438200  0.114900  0.176700  1.0
  H  H1128  1  0.938200  0.885100  0.823300  1.0
  H  H1129  1  0.502100  0.827800  0.822500  1.0
  H  H1130  1  0.002100  0.172200  0.177500  1.0
  H  H1131  1  0.497900  0.172200  0.177500  1.0
  H  H1132  1  0.997900  0.827800  0.822500  1.0
  H  H1133  1  0.541300  0.805500  0.833100  1.0
  H  H1134  1  0.041300  0.194500  0.166900  1.0
  H  H1135  1  0.458700  0.194500  0.166900  1.0
  H  H1136  1  0.958700  0.805500  0.833100  1.0
  H  H1137  1  0.633100  0.867600  0.887700  1.0
  H  H1138  1  0.133100  0.132400  0.112300  1.0
  H  H1139  1  0.366900  0.132400  0.112300  1.0
  H  H1140  1  0.866900  0.867600  0.887700  1.0
  H  H1141  1  0.636800  0.890800  0.937500  1.0
  H  H1142  1  0.136800  0.109200  0.062500  1.0
  H  H1143  1  0.363200  0.109200  0.062500  1.0
  H  H1144  1  0.863200  0.890800  0.937500  1.0
  H  H1145  1  0.583900  0.829900  0.938200  1.0
  H  H1146  1  0.083900  0.170100  0.061800  1.0
  H  H1147  1  0.416100  0.170100  0.061800  1.0
  H  H1148  1  0.916100  0.829900  0.938200  1.0
  H  H1149  1  0.580200  0.806700  0.888400  1.0
  H  H1150  1  0.080200  0.193300  0.111600  1.0
  H  H1151  1  0.419800  0.193300  0.111600  1.0
  H  H1152  1  0.919800  0.806700  0.888400  1.0
  H  H1153  1  0.574000  0.865400  0.984900  1.0
  H  H1154  1  0.074000  0.134600  0.015100  1.0
  H  H1155  1  0.426000  0.134600  0.015100  1.0
  H  H1156  1  0.926000  0.865400  0.984900  1.0
  H  H1157  1  0.581900  0.893000  0.034200  1.0
  H  H1158  1  0.081900  0.107000  0.965800  1.0
  H  H1159  1  0.418100  0.107000  0.965800  1.0
  H  H1160  1  0.918100  0.893000  0.034200  1.0
  H  H1161  1  0.623800  0.923500  0.051900  1.0
  H  H1162  1  0.123800  0.076500  0.948100  1.0
  H  H1163  1  0.376200  0.076500  0.948100  1.0
  H  H1164  1  0.876200  0.923500  0.051900  1.0
  H  H1165  1  0.715100  0.965100  0.002800  1.0
  H  H1166  1  0.215100  0.034900  0.997200  1.0
  H  H1167  1  0.284900  0.034900  0.997200  1.0
  H  H1168  1  0.784900  0.965100  0.002800  1.0
  H  H1169  1  0.673900  0.933700  0.987100  1.0
  H  H1170  1  0.173900  0.066300  0.012900  1.0
  H  H1171  1  0.326100  0.066300  0.012900  1.0
  H  H1172  1  0.826100  0.933700  0.987100  1.0
  H  H1173  1  0.671900  0.936000  0.063100  1.0
  H  H1174  1  0.171900  0.064000  0.936900  1.0
  H  H1175  1  0.328100  0.064000  0.936900  1.0
  H  H1176  1  0.828100  0.936000  0.063100  1.0
  H  H1177  1  0.713100  0.967400  0.078900  1.0
  H  H1178  1  0.213100  0.032600  0.921100  1.0
  H  H1179  1  0.286900  0.032600  0.921100  1.0
  H  H1180  1  0.786900  0.967400  0.078900  1.0
  H  H1181  1  0.714100  0.033900  0.037200  1.0
  H  H1182  1  0.214100  0.966100  0.962800  1.0
  H  H1183  1  0.285900  0.966100  0.962800  1.0
  H  H1184  1  0.785900  0.033900  0.037200  1.0
  H  H1185  1  0.672700  0.065100  0.052900  1.0
  H  H1186  1  0.172700  0.934900  0.947100  1.0
  H  H1187  1  0.327300  0.934900  0.947100  1.0
  H  H1188  1  0.827300  0.065100  0.052900  1.0
  H  H1189  1  0.671600  0.063400  0.127000  1.0
  H  H1190  1  0.171600  0.936600  0.873000  1.0
  H  H1191  1  0.328400  0.936600  0.873000  1.0
  H  H1192  1  0.828400  0.063400  0.127000  1.0
  H  H1193  1  0.713000  0.032200  0.111300  1.0
  H  H1194  1  0.213000  0.967800  0.888700  1.0
  H  H1195  1  0.287000  0.967800  0.888700  1.0
  H  H1196  1  0.787000  0.032200  0.111300  1.0
  H  H1197  1  0.624400  0.076600  0.128500  1.0
  H  H1198  1  0.124400  0.923400  0.871500  1.0
  H  H1199  1  0.375600  0.923400  0.871500  1.0
  H  H1200  1  0.875600  0.076600  0.128500  1.0
  H  H1201  1  0.582600  0.107200  0.141600  1.0
  H  H1202  1  0.082600  0.892800  0.858400  1.0
  H  H1203  1  0.417400  0.892800  0.858400  1.0
  H  H1204  1  0.917400  0.107200  0.141600  1.0
  H  H1205  1  0.574500  0.134700  0.119800  1.0
  H  H1206  1  0.074500  0.865300  0.880200  1.0
  H  H1207  1  0.425500  0.865300  0.880200  1.0
  H  H1208  1  0.925500  0.134700  0.119800  1.0
  H  H1209  1  0.632800  0.133300  0.020100  1.0
  H  H1210  1  0.132800  0.866700  0.979900  1.0
  H  H1211  1  0.367200  0.866700  0.979900  1.0
  H  H1212  1  0.867200  0.133300  0.020100  1.0
  H  H1213  1  0.636800  0.109100  0.045700  1.0
  H  H1214  1  0.136800  0.890900  0.954300  1.0
  H  H1215  1  0.363200  0.890900  0.954300  1.0
  H  H1216  1  0.863200  0.109100  0.045700  1.0
  H  H1217  1  0.583700  0.168900  0.108100  1.0
  H  H1218  1  0.083700  0.831100  0.891900  1.0
  H  H1219  1  0.416300  0.831100  0.891900  1.0
  H  H1220  1  0.916300  0.168900  0.108100  1.0
  H  H1221  1  0.579700  0.193100  0.082500  1.0
  H  H1222  1  0.079700  0.806900  0.917500  1.0
  H  H1223  1  0.420300  0.806900  0.917500  1.0
  H  H1224  1  0.920300  0.193100  0.082500  1.0
  H  H1225  1  0.600800  0.137500  0.971300  1.0
  H  H1226  1  0.100800  0.862500  0.028700  1.0
  H  H1227  1  0.399200  0.862500  0.028700  1.0
  H  H1228  1  0.899200  0.137500  0.971300  1.0
  H  H1229  1  0.561600  0.114700  0.938600  1.0
  H  H1230  1  0.061600  0.885300  0.061400  1.0
  H  H1231  1  0.438400  0.885300  0.061400  1.0
  H  H1232  1  0.938400  0.114700  0.938600  1.0
  H  H1233  1  0.501900  0.172800  0.994300  1.0
  H  H1234  1  0.001900  0.827200  0.005700  1.0
  H  H1235  1  0.498100  0.827200  0.005700  1.0
  H  H1236  1  0.998100  0.172800  0.994300  1.0
  H  H1237  1  0.541100  0.195600  0.027000  1.0
  H  H1238  1  0.041100  0.804400  0.973000  1.0
  H  H1239  1  0.458900  0.804400  0.973000  1.0
  H  H1240  1  0.958900  0.195600  0.027000  1.0
  H  H1241  1  0.466100  0.149000  0.963300  1.0
  H  H1242  1  0.966100  0.851000  0.036700  1.0
  H  H1243  1  0.533900  0.851000  0.036700  1.0
  H  H1244  1  0.033900  0.149000  0.963300  1.0
  H  H1245  1  0.431700  0.125000  0.925700  1.0
  H  H1246  1  0.931700  0.875000  0.074300  1.0
  H  H1247  1  0.568300  0.875000  0.074300  1.0
  H  H1248  1  0.068300  0.125000  0.925700  1.0
  H  H1249  1  0.448700  0.089000  0.881100  1.0
  H  H1250  1  0.948700  0.911000  0.118900  1.0
  H  H1251  1  0.551300  0.911000  0.118900  1.0
  H  H1252  1  0.051300  0.089000  0.881100  1.0
  H  H1253  1  0.569600  0.038000  0.836500  1.0
  H  H1254  1  0.069600  0.962000  0.163500  1.0
  H  H1255  1  0.430400  0.962000  0.163500  1.0
  H  H1256  1  0.930400  0.038000  0.836500  1.0
  H  H1257  1  0.547800  0.071400  0.880100  1.0
  H  H1258  1  0.047800  0.928600  0.119900  1.0
  H  H1259  1  0.452200  0.928600  0.119900  1.0
  H  H1260  1  0.952200  0.071400  0.880100  1.0
  H  H1261  1  0.467900  0.063800  0.840100  1.0
  H  H1262  1  0.967900  0.936200  0.159900  1.0
  H  H1263  1  0.532100  0.936200  0.159900  1.0
  H  H1264  1  0.032100  0.063800  0.840100  1.0
  H  H1265  1  0.489700  0.030500  0.796500  1.0
  H  H1266  1  0.989700  0.969500  0.203500  1.0
  H  H1267  1  0.510300  0.969500  0.203500  1.0
  H  H1268  1  0.010300  0.030500  0.796500  1.0
  H  H1269  1  0.603700  0.035100  0.785700  1.0
  H  H1270  1  0.103700  0.964900  0.214300  1.0
  H  H1271  1  0.396300  0.964900  0.214300  1.0
  H  H1272  1  0.896300  0.035100  0.785700  1.0
  H  H1273  1  0.625300  0.067400  0.773900  1.0
  H  H1274  1  0.125300  0.932600  0.226100  1.0
  H  H1275  1  0.374700  0.932600  0.226100  1.0
  H  H1276  1  0.874700  0.067400  0.773900  1.0
  H  H1277  1  0.549600  0.063900  0.729900  1.0
  H  H1278  1  0.049600  0.936100  0.270100  1.0
  H  H1279  1  0.450400  0.936100  0.270100  1.0
  H  H1280  1  0.950400  0.063900  0.729900  1.0
  H  H1281  1  0.528000  0.031600  0.741700  1.0
  H  H1282  1  0.028000  0.968400  0.258300  1.0
  H  H1283  1  0.472000  0.968400  0.258300  1.0
  H  H1284  1  0.972000  0.031600  0.741700  1.0
  H  H1285  1  0.566600  0.089800  0.716800  1.0
  H  H1286  1  0.066600  0.910200  0.283200  1.0
  H  H1287  1  0.433400  0.910200  0.283200  1.0
  H  H1288  1  0.933400  0.089800  0.716800  1.0
  H  H1289  1  0.586000  0.126700  0.710700  1.0
  H  H1290  1  0.086000  0.873300  0.289300  1.0
  H  H1291  1  0.414000  0.873300  0.289300  1.0
  H  H1292  1  0.914000  0.126700  0.710700  1.0
  H  H1293  1  0.630300  0.150400  0.734500  1.0
  H  H1294  1  0.130300  0.849600  0.265500  1.0
  H  H1295  1  0.369700  0.849600  0.265500  1.0
  H  H1296  1  0.869700  0.150400  0.734500  1.0
  H  H1297  1  0.715600  0.137100  0.814200  1.0
  H  H1298  1  0.215600  0.862900  0.185800  1.0
  H  H1299  1  0.284400  0.862900  0.185800  1.0
  H  H1300  1  0.784400  0.137100  0.814200  1.0
  H  H1301  1  0.672000  0.114200  0.788000  1.0
  H  H1302  1  0.172000  0.885800  0.212000  1.0
  H  H1303  1  0.328000  0.885800  0.212000  1.0
  H  H1304  1  0.828000  0.114200  0.788000  1.0
  H  H1305  1  0.668900  0.169400  0.757800  1.0
  H  H1306  1  0.168900  0.830600  0.242200  1.0
  H  H1307  1  0.331100  0.830600  0.242200  1.0
  H  H1308  1  0.831100  0.169400  0.757800  1.0
  H  H1309  1  0.712400  0.192200  0.784000  1.0
  H  H1310  1  0.212400  0.807800  0.216000  1.0
  H  H1311  1  0.287600  0.807800  0.216000  1.0
  H  H1312  1  0.787600  0.192200  0.784000  1.0
  H  H1313  1  0.714900  0.182800  0.874200  1.0
  H  H1314  1  0.214900  0.817200  0.125800  1.0
  H  H1315  1  0.285100  0.817200  0.125800  1.0
  H  H1316  1  0.785100  0.182800  0.874200  1.0
  H  H1317  1  0.678600  0.207200  0.909800  1.0
  H  H1318  1  0.178600  0.792800  0.090200  1.0
  H  H1319  1  0.321400  0.792800  0.090200  1.0
  H  H1320  1  0.821400  0.207200  0.909800  1.0
  H  H1321  1  0.676900  0.270400  0.890200  1.0
  H  H1322  1  0.176900  0.729600  0.109800  1.0
  H  H1323  1  0.323100  0.729600  0.109800  1.0
  H  H1324  1  0.823100  0.270400  0.890200  1.0
  H  H1325  1  0.713100  0.246000  0.854600  1.0
  H  H1326  1  0.213100  0.754000  0.145400  1.0
  H  H1327  1  0.286900  0.754000  0.145400  1.0
  H  H1328  1  0.786900  0.246000  0.854600  1.0
  H  H1329  1  0.649000  0.296400  0.926100  1.0
  H  H1330  1  0.149000  0.703600  0.073900  1.0
  H  H1331  1  0.351000  0.703600  0.073900  1.0
  H  H1332  1  0.851000  0.296400  0.926100  1.0
  H  H1333  1  0.615600  0.317600  0.964700  1.0
  H  H1334  1  0.115600  0.682400  0.035300  1.0
  H  H1335  1  0.384400  0.682400  0.035300  1.0
  H  H1336  1  0.884400  0.317600  0.964700  1.0
  H  H1337  1  0.602400  0.293800  0.989300  1.0
  H  H1338  1  0.102400  0.706200  0.010700  1.0
  H  H1339  1  0.397600  0.706200  0.010700  1.0
  H  H1340  1  0.897600  0.293800  0.989300  1.0
  H  H1341  1  0.641700  0.182100  0.976200  1.0
  H  H1342  1  0.141700  0.817900  0.023800  1.0
  H  H1343  1  0.358300  0.817900  0.023800  1.0
  H  H1344  1  0.858300  0.182100  0.976200  1.0
  H  H1345  1  0.647300  0.209200  0.953700  1.0
  H  H1346  1  0.147300  0.790800  0.046300  1.0
  H  H1347  1  0.352700  0.790800  0.046300  1.0
  H  H1348  1  0.852700  0.209200  0.953700  1.0
  H  H1349  1  0.593000  0.270500  0.013200  1.0
  H  H1350  1  0.093000  0.729500  0.986800  1.0
  H  H1351  1  0.407000  0.729500  0.986800  1.0
  H  H1352  1  0.907000  0.270500  0.013200  1.0
  H  H1353  1  0.587300  0.243400  0.035700  1.0
  H  H1354  1  0.087300  0.756600  0.964300  1.0
  H  H1355  1  0.412700  0.756600  0.964300  1.0
  H  H1356  1  0.912700  0.243400  0.035700  1.0
  Pd  Pd1357  1  0.250000  0.669110  0.310730  1.0
  Pd  Pd1358  1  0.750000  0.330890  0.689270  1.0
  Pd  Pd1359  1  0.390960  0.470470  0.310260  1.0
  Pd  Pd1360  1  0.890960  0.529530  0.689740  1.0
  Pd  Pd1361  1  0.609040  0.529530  0.689740  1.0
  Pd  Pd1362  1  0.109040  0.470470  0.310260  1.0
  Pd  Pd1363  1  0.250000  0.443260  0.499970  1.0
  Pd  Pd1364  1  0.750000  0.556740  0.500030  1.0
  Pd  Pd1365  1  0.390920  0.660160  0.689730  1.0
  Pd  Pd1366  1  0.890920  0.339840  0.310270  1.0
  Pd  Pd1367  1  0.609080  0.339840  0.310270  1.0
  Pd  Pd1368  1  0.109080  0.660160  0.689730  1.0
  Pd  Pd1369  1  0.250000  0.858340  0.689230  1.0
  Pd  Pd1370  1  0.750000  0.141660  0.310770  1.0
  Pd  Pd1371  1  0.452580  0.726120  0.499950  1.0
  Pd  Pd1372  1  0.952580  0.273880  0.500050  1.0
  Pd  Pd1373  1  0.547420  0.273880  0.500050  1.0
  Pd  Pd1374  1  0.047420  0.726120  0.499950  1.0
  Pd  Pd1375  1  0.250000  0.331050  0.641820  1.0
  Pd  Pd1376  1  0.750000  0.668950  0.358180  1.0
  Pd  Pd1377  1  0.452510  0.273830  0.773920  1.0
  Pd  Pd1378  1  0.952510  0.726170  0.226080  1.0
  Pd  Pd1379  1  0.547490  0.726170  0.226080  1.0
  Pd  Pd1380  1  0.047490  0.273830  0.773920  1.0
  Pd  Pd1381  1  0.250000  0.141680  0.831070  1.0
  Pd  Pd1382  1  0.750000  0.858320  0.168930  1.0
  Pd  Pd1383  1  0.390930  0.339810  0.029550  1.0
  Pd  Pd1384  1  0.890930  0.660190  0.970450  1.0
  Pd  Pd1385  1  0.609070  0.660190  0.970450  1.0
  Pd  Pd1386  1  0.109070  0.339810  0.029550  1.0
  Pd  Pd1387  1  0.250000  0.556710  0.056760  1.0
  Pd  Pd1388  1  0.750000  0.443290  0.943240  1.0
  Pd  Pd1389  1  0.390920  0.529540  0.839810  1.0
  Pd  Pd1390  1  0.890920  0.470460  0.160190  1.0
  Pd  Pd1391  1  0.609080  0.470460  0.160190  1.0
  Pd  Pd1392  1  0.109080  0.529540  0.839810  1.0
  Pd  Pd1393  1  0.750000  0.189370  0.831060  1.0
  Pd  Pd1394  1  0.250000  0.810630  0.168940  1.0
  Pd  Pd1395  1  0.609090  0.189740  0.029580  1.0
  Pd  Pd1396  1  0.109090  0.810260  0.970420  1.0
  Pd  Pd1397  1  0.390910  0.810260  0.970420  1.0
  Pd  Pd1398  1  0.890910  0.189740  0.029580  1.0
  Pd  Pd1399  1  0.750000  0.999980  0.056670  1.0
  Pd  Pd1400  1  0.250000  0.000020  0.943330  1.0
  Pd  Pd1401  1  0.609040  0.810290  0.839780  1.0
  Pd  Pd1402  1  0.109040  0.189710  0.160220  1.0
  Pd  Pd1403  1  0.390960  0.189710  0.160220  1.0
  Pd  Pd1404  1  0.890960  0.810290  0.839780  1.0
  Pd  Pd1405  1  0.750000  0.810680  0.641720  1.0
  Pd  Pd1406  1  0.250000  0.189320  0.358280  1.0
  Pd  Pd1407  1  0.547410  0.000000  0.773810  1.0
  Pd  Pd1408  1  0.047410  0.000000  0.226190  1.0
  Pd  Pd1409  1  0.452590  0.000000  0.226190  1.0
  Pd  Pd1410  1  0.952590  0.000000  0.773810  1.0
  C  C1411  1  0.327500  0.652500  0.698200  1.0
  C  C1412  1  0.827500  0.347500  0.301800  1.0
  C  C1413  1  0.672500  0.347500  0.301800  1.0
  C  C1414  1  0.172500  0.652500  0.698200  1.0
  C  C1415  1  0.301900  0.650100  0.712000  1.0
  C  C1416  1  0.801900  0.349900  0.288000  1.0
  C  C1417  1  0.698100  0.349900  0.288000  1.0
  C  C1418  1  0.198100  0.650100  0.712000  1.0
  C  C1419  1  0.304800  0.651300  0.738400  1.0
  C  C1420  1  0.804800  0.348700  0.261600  1.0
  C  C1421  1  0.695200  0.348700  0.261600  1.0
  C  C1422  1  0.195200  0.651300  0.738400  1.0
  C  C1423  1  0.333400  0.655000  0.751000  1.0
  C  C1424  1  0.833400  0.345000  0.249000  1.0
  C  C1425  1  0.666600  0.345000  0.249000  1.0
  C  C1426  1  0.166600  0.655000  0.751000  1.0
  C  C1427  1  0.359100  0.657400  0.737100  1.0
  C  C1428  1  0.859100  0.342600  0.262900  1.0
  C  C1429  1  0.640900  0.342600  0.262900  1.0
  C  C1430  1  0.140900  0.657400  0.737100  1.0
  C  C1431  1  0.276600  0.650400  0.753500  1.0
  C  C1432  1  0.776600  0.349600  0.246500  1.0
  C  C1433  1  0.723400  0.349600  0.246500  1.0
  C  C1434  1  0.223400  0.650400  0.753500  1.0
  C  C1435  1  0.275700  0.641300  0.774700  1.0
  C  C1436  1  0.775700  0.358700  0.225300  1.0
  C  C1437  1  0.724300  0.358700  0.225300  1.0
  C  C1438  1  0.224300  0.641300  0.774700  1.0
  C  C1439  1  0.250000  0.634800  0.785100  1.0
  C  C1440  1  0.750000  0.365200  0.214900  1.0
  C  C1441  1  0.327200  0.453800  0.302000  1.0
  C  C1442  1  0.827200  0.546200  0.698000  1.0
  C  C1443  1  0.672800  0.546200  0.698000  1.0
  C  C1444  1  0.172800  0.453800  0.302000  1.0
  C  C1445  1  0.301600  0.437500  0.287900  1.0
  C  C1446  1  0.801600  0.562500  0.712100  1.0
  C  C1447  1  0.698400  0.562500  0.712100  1.0
  C  C1448  1  0.198400  0.437500  0.287900  1.0
  C  C1449  1  0.304600  0.412600  0.261400  1.0
  C  C1450  1  0.804600  0.587400  0.738600  1.0
  C  C1451  1  0.695400  0.587400  0.738600  1.0
  C  C1452  1  0.195400  0.412600  0.261400  1.0
  C  C1453  1  0.333200  0.403900  0.248800  1.0
  C  C1454  1  0.833200  0.596100  0.751200  1.0
  C  C1455  1  0.666800  0.596100  0.751200  1.0
  C  C1456  1  0.166800  0.403900  0.248800  1.0
  C  C1457  1  0.358800  0.420200  0.262900  1.0
  C  C1458  1  0.858800  0.579800  0.737100  1.0
  C  C1459  1  0.641200  0.579800  0.737100  1.0
  C  C1460  1  0.141200  0.420200  0.262900  1.0
  C  C1461  1  0.276800  0.396600  0.247100  1.0
  C  C1462  1  0.776800  0.603400  0.752900  1.0
  C  C1463  1  0.723200  0.603400  0.752900  1.0
  C  C1464  1  0.223200  0.396600  0.247100  1.0
  C  C1465  1  0.275600  0.366400  0.224900  1.0
  C  C1466  1  0.775600  0.633600  0.775100  1.0
  C  C1467  1  0.724400  0.633600  0.775100  1.0
  C  C1468  1  0.224400  0.366400  0.224900  1.0
  C  C1469  1  0.250000  0.350000  0.216400  1.0
  C  C1470  1  0.750000  0.650000  0.783600  1.0
  C  C1471  1  0.367200  0.716500  0.701200  1.0
  C  C1472  1  0.867200  0.283500  0.298800  1.0
  C  C1473  1  0.632800  0.283500  0.298800  1.0
  C  C1474  1  0.132800  0.716500  0.701200  1.0
  C  C1475  1  0.363900  0.746300  0.716900  1.0
  C  C1476  1  0.863900  0.253700  0.283100  1.0
  C  C1477  1  0.636100  0.253700  0.283100  1.0
  C  C1478  1  0.136100  0.746300  0.716900  1.0
  C  C1479  1  0.379200  0.762300  0.742900  1.0
  C  C1480  1  0.879200  0.237700  0.257100  1.0
  C  C1481  1  0.620800  0.237700  0.257100  1.0
  C  C1482  1  0.120800  0.762300  0.742900  1.0
  C  C1483  1  0.397800  0.748400  0.753100  1.0
  C  C1484  1  0.897800  0.251600  0.246900  1.0
  C  C1485  1  0.602200  0.251600  0.246900  1.0
  C  C1486  1  0.102200  0.748400  0.753100  1.0
  C  C1487  1  0.401200  0.718700  0.737500  1.0
  C  C1488  1  0.901200  0.281300  0.262500  1.0
  C  C1489  1  0.598800  0.281300  0.262500  1.0
  C  C1490  1  0.098800  0.718700  0.737500  1.0
  C  C1491  1  0.371200  0.792000  0.758100  1.0
  C  C1492  1  0.871200  0.208000  0.241900  1.0
  C  C1493  1  0.628800  0.208000  0.241900  1.0
  C  C1494  1  0.128800  0.792000  0.758100  1.0
  C  C1495  1  0.383900  0.810600  0.784900  1.0
  C  C1496  1  0.883900  0.189400  0.215100  1.0
  C  C1497  1  0.616100  0.189400  0.215100  1.0
  C  C1498  1  0.116100  0.810600  0.784900  1.0
  C  C1499  1  0.377000  0.839800  0.798900  1.0
  C  C1500  1  0.877000  0.160200  0.201100  1.0
  C  C1501  1  0.623000  0.160200  0.201100  1.0
  C  C1502  1  0.123000  0.839800  0.798900  1.0
  C  C1503  1  0.357300  0.850500  0.786100  1.0
  C  C1504  1  0.857300  0.149500  0.213900  1.0
  C  C1505  1  0.642700  0.149500  0.213900  1.0
  C  C1506  1  0.142700  0.850500  0.786100  1.0
  C  C1507  1  0.344500  0.831900  0.759300  1.0
  C  C1508  1  0.844500  0.168100  0.240700  1.0
  C  C1509  1  0.655500  0.168100  0.240700  1.0
  C  C1510  1  0.155500  0.831900  0.759300  1.0
  C  C1511  1  0.293000  0.823100  0.700800  1.0
  C  C1512  1  0.793000  0.176900  0.299200  1.0
  C  C1513  1  0.707000  0.176900  0.299200  1.0
  C  C1514  1  0.207000  0.823100  0.700800  1.0
  C  C1515  1  0.314600  0.816300  0.715500  1.0
  C  C1516  1  0.814600  0.183700  0.284500  1.0
  C  C1517  1  0.685400  0.183700  0.284500  1.0
  C  C1518  1  0.185400  0.816300  0.715500  1.0
  C  C1519  1  0.326400  0.837800  0.741500  1.0
  C  C1520  1  0.826400  0.162200  0.258500  1.0
  C  C1521  1  0.673600  0.162200  0.258500  1.0
  C  C1522  1  0.173600  0.837800  0.741500  1.0
  C  C1523  1  0.316600  0.866100  0.752900  1.0
  C  C1524  1  0.816600  0.133900  0.247100  1.0
  C  C1525  1  0.683400  0.133900  0.247100  1.0
  C  C1526  1  0.183400  0.866100  0.752900  1.0
  C  C1527  1  0.295000  0.872900  0.738200  1.0
  C  C1528  1  0.795000  0.127100  0.261800  1.0
  C  C1529  1  0.705000  0.127100  0.261800  1.0
  C  C1530  1  0.205000  0.872900  0.738200  1.0
  C  C1531  1  0.294000  0.839900  0.642300  1.0
  C  C1532  1  0.794000  0.160100  0.357700  1.0
  C  C1533  1  0.706000  0.160100  0.357700  1.0
  C  C1534  1  0.206000  0.839900  0.642300  1.0
  C  C1535  1  0.320300  0.842200  0.629200  1.0
  C  C1536  1  0.820300  0.157800  0.370800  1.0
  C  C1537  1  0.679700  0.157800  0.370800  1.0
  C  C1538  1  0.179700  0.842200  0.629200  1.0
  C  C1539  1  0.334500  0.868800  0.639600  1.0
  C  C1540  1  0.834500  0.131200  0.360400  1.0
  C  C1541  1  0.665500  0.131200  0.360400  1.0
  C  C1542  1  0.165500  0.868800  0.639600  1.0
  C  C1543  1  0.322300  0.893100  0.663100  1.0
  C  C1544  1  0.822300  0.106900  0.336900  1.0
  C  C1545  1  0.677700  0.106900  0.336900  1.0
  C  C1546  1  0.177700  0.893100  0.663100  1.0
  C  C1547  1  0.295900  0.890800  0.676200  1.0
  C  C1548  1  0.795900  0.109200  0.323800  1.0
  C  C1549  1  0.704100  0.109200  0.323800  1.0
  C  C1550  1  0.204100  0.890800  0.676200  1.0
  C  C1551  1  0.364100  0.872300  0.627800  1.0
  C  C1552  1  0.864100  0.127700  0.372200  1.0
  C  C1553  1  0.635900  0.127700  0.372200  1.0
  C  C1554  1  0.135900  0.872300  0.627800  1.0
  C  C1555  1  0.378600  0.898300  0.635700  1.0
  C  C1556  1  0.878600  0.101700  0.364300  1.0
  C  C1557  1  0.621400  0.101700  0.364300  1.0
  C  C1558  1  0.121400  0.898300  0.635700  1.0
  C  C1559  1  0.404800  0.898700  0.621300  1.0
  C  C1560  1  0.904800  0.101300  0.378700  1.0
  C  C1561  1  0.595200  0.101300  0.378700  1.0
  C  C1562  1  0.095200  0.898700  0.621300  1.0
  C  C1563  1  0.416600  0.873100  0.599100  1.0
  C  C1564  1  0.916600  0.126900  0.400900  1.0
  C  C1565  1  0.583400  0.126900  0.400900  1.0
  C  C1566  1  0.083400  0.873100  0.599100  1.0
  C  C1567  1  0.402100  0.847100  0.591200  1.0
  C  C1568  1  0.902100  0.152900  0.408800  1.0
  C  C1569  1  0.597900  0.152900  0.408800  1.0
  C  C1570  1  0.097900  0.847100  0.591200  1.0
  C  C1571  1  0.408500  0.765700  0.541000  1.0
  C  C1572  1  0.908500  0.234300  0.459000  1.0
  C  C1573  1  0.591500  0.234300  0.459000  1.0
  C  C1574  1  0.091500  0.765700  0.541000  1.0
  C  C1575  1  0.395100  0.792000  0.560000  1.0
  C  C1576  1  0.895100  0.208000  0.440000  1.0
  C  C1577  1  0.604900  0.208000  0.440000  1.0
  C  C1578  1  0.104900  0.792000  0.560000  1.0
  C  C1579  1  0.410900  0.817500  0.568300  1.0
  C  C1580  1  0.910900  0.182500  0.431700  1.0
  C  C1581  1  0.589100  0.182500  0.431700  1.0
  C  C1582  1  0.089100  0.817500  0.568300  1.0
  C  C1583  1  0.440000  0.816600  0.557500  1.0
  C  C1584  1  0.940000  0.183400  0.442500  1.0
  C  C1585  1  0.560000  0.183400  0.442500  1.0
  C  C1586  1  0.060000  0.816600  0.557500  1.0
  C  C1587  1  0.453400  0.790300  0.538600  1.0
  C  C1588  1  0.953400  0.209700  0.461400  1.0
  C  C1589  1  0.546600  0.209700  0.461400  1.0
  C  C1590  1  0.046600  0.790300  0.538600  1.0
  C  C1591  1  0.450900  0.706300  0.543300  1.0
  C  C1592  1  0.950900  0.293700  0.456700  1.0
  C  C1593  1  0.549100  0.293700  0.456700  1.0
  C  C1594  1  0.049100  0.706300  0.543300  1.0
  C  C1595  1  0.463600  0.700400  0.563600  1.0
  C  C1596  1  0.963600  0.299600  0.436400  1.0
  C  C1597  1  0.536400  0.299600  0.436400  1.0
  C  C1598  1  0.036400  0.700400  0.563600  1.0
  C  C1599  1  0.494100  0.706600  0.571200  1.0
  C  C1600  1  0.994100  0.293400  0.428800  1.0
  C  C1601  1  0.505900  0.293400  0.428800  1.0
  C  C1602  1  0.005900  0.706600  0.571200  1.0
  C  C1603  1  0.512000  0.718700  0.558600  1.0
  C  C1604  1  0.012000  0.281300  0.441400  1.0
  C  C1605  1  0.488000  0.281300  0.441400  1.0
  C  C1606  1  0.988000  0.718700  0.558600  1.0
  C  C1607  1  0.499300  0.724600  0.538300  1.0
  C  C1608  1  0.999300  0.275400  0.461700  1.0
  C  C1609  1  0.500700  0.275400  0.461700  1.0
  C  C1610  1  0.000700  0.724600  0.538300  1.0
  C  C1611  1  0.505500  0.700600  0.592400  1.0
  C  C1612  1  0.005500  0.299400  0.407600  1.0
  C  C1613  1  0.494500  0.299400  0.407600  1.0
  C  C1614  1  0.994500  0.700600  0.592400  1.0
  C  C1615  1  0.536500  0.702900  0.598800  1.0
  C  C1616  1  0.036500  0.297100  0.401200  1.0
  C  C1617  1  0.463500  0.297100  0.401200  1.0
  C  C1618  1  0.963500  0.702900  0.598800  1.0
  C  C1619  1  0.547300  0.696500  0.619300  1.0
  C  C1620  1  0.047300  0.303500  0.380700  1.0
  C  C1621  1  0.452700  0.303500  0.380700  1.0
  C  C1622  1  0.952700  0.696500  0.619300  1.0
  C  C1623  1  0.527100  0.687700  0.633400  1.0
  C  C1624  1  0.027100  0.312300  0.366600  1.0
  C  C1625  1  0.472900  0.312300  0.366600  1.0
  C  C1626  1  0.972900  0.687700  0.633400  1.0
  C  C1627  1  0.496100  0.685400  0.627000  1.0
  C  C1628  1  0.996100  0.314600  0.373000  1.0
  C  C1629  1  0.503900  0.314600  0.373000  1.0
  C  C1630  1  0.003900  0.685400  0.627000  1.0
  C  C1631  1  0.419100  0.668800  0.644400  1.0
  C  C1632  1  0.919100  0.331200  0.355600  1.0
  C  C1633  1  0.580900  0.331200  0.355600  1.0
  C  C1634  1  0.080900  0.668800  0.644400  1.0
  C  C1635  1  0.442600  0.674900  0.630900  1.0
  C  C1636  1  0.942600  0.325100  0.369100  1.0
  C  C1637  1  0.557400  0.325100  0.369100  1.0
  C  C1638  1  0.057400  0.674900  0.630900  1.0
  C  C1639  1  0.472300  0.678000  0.641200  1.0
  C  C1640  1  0.972300  0.322000  0.358800  1.0
  C  C1641  1  0.527700  0.322000  0.358800  1.0
  C  C1642  1  0.027700  0.678000  0.641200  1.0
  C  C1643  1  0.478400  0.675000  0.665000  1.0
  C  C1644  1  0.978400  0.325000  0.335000  1.0
  C  C1645  1  0.521600  0.325000  0.335000  1.0
  C  C1646  1  0.021600  0.675000  0.665000  1.0
  C  C1647  1  0.454900  0.668800  0.678400  1.0
  C  C1648  1  0.954900  0.331200  0.321600  1.0
  C  C1649  1  0.545100  0.331200  0.321600  1.0
  C  C1650  1  0.045100  0.668800  0.678400  1.0
  C  C1651  1  0.377100  0.603000  0.640900  1.0
  C  C1652  1  0.877100  0.397000  0.359100  1.0
  C  C1653  1  0.622900  0.397000  0.359100  1.0
  C  C1654  1  0.122900  0.603000  0.640900  1.0
  C  C1655  1  0.374700  0.573200  0.626400  1.0
  C  C1656  1  0.874700  0.426800  0.373600  1.0
  C  C1657  1  0.625300  0.426800  0.373600  1.0
  C  C1658  1  0.125300  0.573200  0.626400  1.0
  C  C1659  1  0.389300  0.557400  0.637000  1.0
  C  C1660  1  0.889300  0.442600  0.363000  1.0
  C  C1661  1  0.610700  0.442600  0.363000  1.0
  C  C1662  1  0.110700  0.557400  0.637000  1.0
  C  C1663  1  0.406300  0.571500  0.662200  1.0
  C  C1664  1  0.906300  0.428500  0.337800  1.0
  C  C1665  1  0.593700  0.428500  0.337800  1.0
  C  C1666  1  0.093700  0.571500  0.662200  1.0
  C  C1667  1  0.408700  0.601400  0.676800  1.0
  C  C1668  1  0.908700  0.398600  0.323200  1.0
  C  C1669  1  0.591300  0.398600  0.323200  1.0
  C  C1670  1  0.091300  0.601400  0.676800  1.0
  C  C1671  1  0.388400  0.526700  0.620200  1.0
  C  C1672  1  0.888400  0.473300  0.379800  1.0
  C  C1673  1  0.611600  0.473300  0.379800  1.0
  C  C1674  1  0.111600  0.526700  0.620200  1.0
  C  C1675  1  0.409000  0.508000  0.622200  1.0
  C  C1676  1  0.909000  0.492000  0.377800  1.0
  C  C1677  1  0.591000  0.492000  0.377800  1.0
  C  C1678  1  0.091000  0.508000  0.622200  1.0
  C  C1679  1  0.404200  0.478400  0.606200  1.0
  C  C1680  1  0.904200  0.521600  0.393800  1.0
  C  C1681  1  0.595800  0.521600  0.393800  1.0
  C  C1682  1  0.095800  0.478400  0.606200  1.0
  C  C1683  1  0.378800  0.467500  0.588300  1.0
  C  C1684  1  0.878800  0.532500  0.411700  1.0
  C  C1685  1  0.621200  0.532500  0.411700  1.0
  C  C1686  1  0.121200  0.467500  0.588300  1.0
  C  C1687  1  0.358300  0.486200  0.586400  1.0
  C  C1688  1  0.858300  0.513800  0.413600  1.0
  C  C1689  1  0.641700  0.513800  0.413600  1.0
  C  C1690  1  0.141700  0.486200  0.586400  1.0
  C  C1691  1  0.294500  0.485000  0.540400  1.0
  C  C1692  1  0.794500  0.515000  0.459600  1.0
  C  C1693  1  0.705500  0.515000  0.459600  1.0
  C  C1694  1  0.205500  0.485000  0.540400  1.0
  C  C1695  1  0.319000  0.494200  0.559400  1.0
  C  C1696  1  0.819000  0.505800  0.440600  1.0
  C  C1697  1  0.681000  0.505800  0.440600  1.0
  C  C1698  1  0.181000  0.494200  0.559400  1.0
  C  C1699  1  0.331600  0.475900  0.568000  1.0
  C  C1700  1  0.831600  0.524100  0.432000  1.0
  C  C1701  1  0.668400  0.524100  0.432000  1.0
  C  C1702  1  0.168400  0.475900  0.568000  1.0
  C  C1703  1  0.319700  0.448400  0.557600  1.0
  C  C1704  1  0.819700  0.551600  0.442400  1.0
  C  C1705  1  0.680300  0.551600  0.442400  1.0
  C  C1706  1  0.180300  0.448400  0.557600  1.0
  C  C1707  1  0.295100  0.439200  0.538600  1.0
  C  C1708  1  0.795100  0.560800  0.461400  1.0
  C  C1709  1  0.704900  0.560800  0.461400  1.0
  C  C1710  1  0.204900  0.439200  0.538600  1.0
  C  C1711  1  0.294800  0.445000  0.459700  1.0
  C  C1712  1  0.794800  0.555000  0.540300  1.0
  C  C1713  1  0.705200  0.555000  0.540300  1.0
  C  C1714  1  0.205200  0.445000  0.459700  1.0
  C  C1715  1  0.319500  0.435400  0.441000  1.0
  C  C1716  1  0.819500  0.564600  0.559000  1.0
  C  C1717  1  0.680500  0.564600  0.559000  1.0
  C  C1718  1  0.180500  0.435400  0.441000  1.0
  C  C1719  1  0.332200  0.408500  0.432400  1.0
  C  C1720  1  0.832200  0.591500  0.567600  1.0
  C  C1721  1  0.667800  0.591500  0.567600  1.0
  C  C1722  1  0.167800  0.408500  0.432400  1.0
  C  C1723  1  0.320300  0.391300  0.442600  1.0
  C  C1724  1  0.820300  0.608700  0.557400  1.0
  C  C1725  1  0.679700  0.608700  0.557400  1.0
  C  C1726  1  0.179700  0.391300  0.442600  1.0
  C  C1727  1  0.295600  0.400900  0.461400  1.0
  C  C1728  1  0.795600  0.599100  0.538600  1.0
  C  C1729  1  0.704400  0.599100  0.538600  1.0
  C  C1730  1  0.204400  0.400900  0.461400  1.0
  C  C1731  1  0.359100  0.400400  0.413800  1.0
  C  C1732  1  0.859100  0.599600  0.586200  1.0
  C  C1733  1  0.640900  0.599600  0.586200  1.0
  C  C1734  1  0.140900  0.400400  0.413800  1.0
  C  C1735  1  0.379700  0.379700  0.411800  1.0
  C  C1736  1  0.879700  0.620300  0.588200  1.0
  C  C1737  1  0.620300  0.620300  0.588200  1.0
  C  C1738  1  0.120300  0.379700  0.411800  1.0
  C  C1739  1  0.404900  0.372600  0.393700  1.0
  C  C1740  1  0.904900  0.627400  0.606300  1.0
  C  C1741  1  0.595100  0.627400  0.606300  1.0
  C  C1742  1  0.095100  0.372600  0.393700  1.0
  C  C1743  1  0.409500  0.386200  0.377700  1.0
  C  C1744  1  0.909500  0.613800  0.622300  1.0
  C  C1745  1  0.590500  0.613800  0.622300  1.0
  C  C1746  1  0.090500  0.386200  0.377700  1.0
  C  C1747  1  0.389000  0.406900  0.379800  1.0
  C  C1748  1  0.889000  0.593100  0.620200  1.0
  C  C1749  1  0.611000  0.593100  0.620200  1.0
  C  C1750  1  0.111000  0.406900  0.379800  1.0
  C  C1751  1  0.377300  0.462400  0.359300  1.0
  C  C1752  1  0.877300  0.537600  0.640700  1.0
  C  C1753  1  0.622700  0.537600  0.640700  1.0
  C  C1754  1  0.122700  0.462400  0.359300  1.0
  C  C1755  1  0.374800  0.447000  0.373700  1.0
  C  C1756  1  0.874800  0.553000  0.626300  1.0
  C  C1757  1  0.625200  0.553000  0.626300  1.0
  C  C1758  1  0.125200  0.447000  0.373700  1.0
  C  C1759  1  0.389400  0.420600  0.363100  1.0
  C  C1760  1  0.889400  0.579400  0.636900  1.0
  C  C1761  1  0.610600  0.579400  0.636900  1.0
  C  C1762  1  0.110600  0.420600  0.363100  1.0
  C  C1763  1  0.406400  0.409500  0.337900  1.0
  C  C1764  1  0.906400  0.590500  0.662100  1.0
  C  C1765  1  0.593600  0.590500  0.662100  1.0
  C  C1766  1  0.093600  0.409500  0.337900  1.0
  C  C1767  1  0.408800  0.424800  0.323300  1.0
  C  C1768  1  0.908800  0.575200  0.676700  1.0
  C  C1769  1  0.591200  0.575200  0.676700  1.0
  C  C1770  1  0.091200  0.424800  0.323300  1.0
  C  C1771  1  0.419000  0.523700  0.355700  1.0
  C  C1772  1  0.919000  0.476300  0.644300  1.0
  C  C1773  1  0.581000  0.476300  0.644300  1.0
  C  C1774  1  0.081000  0.523700  0.355700  1.0
  C  C1775  1  0.442600  0.543400  0.369000  1.0
  C  C1776  1  0.942600  0.456600  0.631000  1.0
  C  C1777  1  0.557400  0.456600  0.631000  1.0
  C  C1778  1  0.057400  0.543400  0.369000  1.0
  C  C1779  1  0.472100  0.536300  0.358300  1.0
  C  C1780  1  0.972100  0.463700  0.641700  1.0
  C  C1781  1  0.527900  0.463700  0.641700  1.0
  C  C1782  1  0.027900  0.536300  0.358300  1.0
  C  C1783  1  0.478200  0.509600  0.334500  1.0
  C  C1784  1  0.978200  0.490400  0.665500  1.0
  C  C1785  1  0.521800  0.490400  0.665500  1.0
  C  C1786  1  0.021800  0.509600  0.334500  1.0
  C  C1787  1  0.454700  0.489900  0.321200  1.0
  C  C1788  1  0.954700  0.510100  0.678800  1.0
  C  C1789  1  0.545300  0.510100  0.678800  1.0
  C  C1790  1  0.045300  0.489900  0.321200  1.0
  C  C1791  1  0.495500  0.559100  0.373000  1.0
  C  C1792  1  0.995500  0.440900  0.627000  1.0
  C  C1793  1  0.504500  0.440900  0.627000  1.0
  C  C1794  1  0.004500  0.559100  0.373000  1.0
  C  C1795  1  0.526300  0.554400  0.365700  1.0
  C  C1796  1  0.026300  0.445600  0.634300  1.0
  C  C1797  1  0.473700  0.445600  0.634300  1.0
  C  C1798  1  0.973700  0.554400  0.365700  1.0
  C  C1799  1  0.547100  0.576900  0.379400  1.0
  C  C1800  1  0.047100  0.423100  0.620600  1.0
  C  C1801  1  0.452900  0.423100  0.620600  1.0
  C  C1802  1  0.952900  0.576900  0.379400  1.0
  C  C1803  1  0.537100  0.604000  0.400200  1.0
  C  C1804  1  0.037100  0.396000  0.599800  1.0
  C  C1805  1  0.462900  0.396000  0.599800  1.0
  C  C1806  1  0.962900  0.604000  0.400200  1.0
  C  C1807  1  0.506300  0.608700  0.407400  1.0
  C  C1808  1  0.006300  0.391300  0.592600  1.0
  C  C1809  1  0.493700  0.391300  0.592600  1.0
  C  C1810  1  0.993700  0.608700  0.407400  1.0
  C  C1811  1  0.450700  0.663200  0.457200  1.0
  C  C1812  1  0.950700  0.336800  0.542800  1.0
  C  C1813  1  0.549300  0.336800  0.542800  1.0
  C  C1814  1  0.049300  0.663200  0.457200  1.0
  C  C1815  1  0.463300  0.637000  0.437100  1.0
  C  C1816  1  0.963300  0.363000  0.562900  1.0
  C  C1817  1  0.536700  0.363000  0.562900  1.0
  C  C1818  1  0.036700  0.637000  0.437100  1.0
  C  C1819  1  0.493600  0.635500  0.428700  1.0
  C  C1820  1  0.993600  0.364500  0.571300  1.0
  C  C1821  1  0.506400  0.364500  0.571300  1.0
  C  C1822  1  0.006400  0.635500  0.428700  1.0
  C  C1823  1  0.511400  0.660300  0.440700  1.0
  C  C1824  1  0.011400  0.339700  0.559300  1.0
  C  C1825  1  0.488600  0.339700  0.559300  1.0
  C  C1826  1  0.988600  0.660300  0.440700  1.0
  C  C1827  1  0.498800  0.686600  0.460900  1.0
  C  C1828  1  0.998800  0.313400  0.539100  1.0
  C  C1829  1  0.501200  0.313400  0.539100  1.0
  C  C1830  1  0.001200  0.686600  0.460900  1.0
  C  C1831  1  0.407500  0.725500  0.459600  1.0
  C  C1832  1  0.907500  0.274500  0.540400  1.0
  C  C1833  1  0.592500  0.274500  0.540400  1.0
  C  C1834  1  0.092500  0.725500  0.459600  1.0
  C  C1835  1  0.394800  0.732000  0.439700  1.0
  C  C1836  1  0.894800  0.268000  0.560300  1.0
  C  C1837  1  0.605200  0.268000  0.560300  1.0
  C  C1838  1  0.105200  0.732000  0.439700  1.0
  C  C1839  1  0.411600  0.747700  0.430200  1.0
  C  C1840  1  0.911600  0.252300  0.569800  1.0
  C  C1841  1  0.588400  0.252300  0.569800  1.0
  C  C1842  1  0.088400  0.747700  0.430200  1.0
  C  C1843  1  0.440900  0.756800  0.440500  1.0
  C  C1844  1  0.940900  0.243200  0.559500  1.0
  C  C1845  1  0.559100  0.243200  0.559500  1.0
  C  C1846  1  0.059100  0.756800  0.440500  1.0
  C  C1847  1  0.453600  0.750300  0.460400  1.0
  C  C1848  1  0.953600  0.249700  0.539600  1.0
  C  C1849  1  0.546400  0.249700  0.539600  1.0
  C  C1850  1  0.046400  0.750300  0.460400  1.0
  C  C1851  1  0.400800  0.756300  0.408800  1.0
  C  C1852  1  0.900800  0.243700  0.591200  1.0
  C  C1853  1  0.599200  0.243700  0.591200  1.0
  C  C1854  1  0.099200  0.756300  0.408800  1.0
  C  C1855  1  0.415000  0.774100  0.400400  1.0
  C  C1856  1  0.915000  0.225900  0.599600  1.0
  C  C1857  1  0.585000  0.225900  0.599600  1.0
  C  C1858  1  0.085000  0.774100  0.400400  1.0
  C  C1859  1  0.403200  0.776600  0.377700  1.0
  C  C1860  1  0.903200  0.223400  0.622300  1.0
  C  C1861  1  0.596800  0.223400  0.622300  1.0
  C  C1862  1  0.096800  0.776600  0.377700  1.0
  C  C1863  1  0.377200  0.761300  0.363400  1.0
  C  C1864  1  0.877200  0.238700  0.636600  1.0
  C  C1865  1  0.622800  0.238700  0.636600  1.0
  C  C1866  1  0.122800  0.761300  0.363400  1.0
  C  C1867  1  0.363000  0.743400  0.371700  1.0
  C  C1868  1  0.863000  0.256600  0.628300  1.0
  C  C1869  1  0.637000  0.256600  0.628300  1.0
  C  C1870  1  0.137000  0.743400  0.371700  1.0
  C  C1871  1  0.293500  0.697200  0.356800  1.0
  C  C1872  1  0.793500  0.302800  0.643200  1.0
  C  C1873  1  0.706500  0.302800  0.643200  1.0
  C  C1874  1  0.206500  0.697200  0.356800  1.0
  C  C1875  1  0.320000  0.712300  0.370100  1.0
  C  C1876  1  0.820000  0.287700  0.629900  1.0
  C  C1877  1  0.680000  0.287700  0.629900  1.0
  C  C1878  1  0.180000  0.712300  0.370100  1.0
  C  C1879  1  0.334500  0.728500  0.359800  1.0
  C  C1880  1  0.834500  0.271500  0.640200  1.0
  C  C1881  1  0.665500  0.271500  0.640200  1.0
  C  C1882  1  0.165500  0.728500  0.359800  1.0
  C  C1883  1  0.322400  0.729700  0.336500  1.0
  C  C1884  1  0.822400  0.270300  0.663500  1.0
  C  C1885  1  0.677600  0.270300  0.663500  1.0
  C  C1886  1  0.177600  0.729700  0.336500  1.0
  C  C1887  1  0.295800  0.714700  0.323400  1.0
  C  C1888  1  0.795800  0.285300  0.676600  1.0
  C  C1889  1  0.704200  0.285300  0.676600  1.0
  C  C1890  1  0.204200  0.714700  0.323400  1.0
  C  C1891  1  0.292500  0.622600  0.299800  1.0
  C  C1892  1  0.792500  0.377400  0.700200  1.0
  C  C1893  1  0.707500  0.377400  0.700200  1.0
  C  C1894  1  0.207500  0.622600  0.299800  1.0
  C  C1895  1  0.314100  0.601100  0.285200  1.0
  C  C1896  1  0.814100  0.398900  0.714800  1.0
  C  C1897  1  0.685900  0.398900  0.714800  1.0
  C  C1898  1  0.185900  0.601100  0.285200  1.0
  C  C1899  1  0.325700  0.596200  0.259000  1.0
  C  C1900  1  0.825700  0.403800  0.741000  1.0
  C  C1901  1  0.674300  0.403800  0.741000  1.0
  C  C1902  1  0.174300  0.596200  0.259000  1.0
  C  C1903  1  0.315600  0.612800  0.247300  1.0
  C  C1904  1  0.815600  0.387200  0.752700  1.0
  C  C1905  1  0.684400  0.387200  0.752700  1.0
  C  C1906  1  0.184400  0.612800  0.247300  1.0
  C  C1907  1  0.294000  0.634300  0.261900  1.0
  C  C1908  1  0.794000  0.365700  0.738100  1.0
  C  C1909  1  0.706000  0.365700  0.738100  1.0
  C  C1910  1  0.206000  0.634300  0.261900  1.0
  C  C1911  1  0.346000  0.573000  0.240600  1.0
  C  C1912  1  0.846000  0.427000  0.759400  1.0
  C  C1913  1  0.654000  0.427000  0.759400  1.0
  C  C1914  1  0.154000  0.573000  0.240600  1.0
  C  C1915  1  0.359100  0.565300  0.214100  1.0
  C  C1916  1  0.859100  0.434700  0.785900  1.0
  C  C1917  1  0.640900  0.434700  0.785900  1.0
  C  C1918  1  0.140900  0.565300  0.214100  1.0
  C  C1919  1  0.378300  0.541600  0.200900  1.0
  C  C1920  1  0.878300  0.458400  0.799100  1.0
  C  C1921  1  0.621700  0.458400  0.799100  1.0
  C  C1922  1  0.121700  0.541600  0.200900  1.0
  C  C1923  1  0.384500  0.525500  0.214100  1.0
  C  C1924  1  0.884500  0.474500  0.785900  1.0
  C  C1925  1  0.615500  0.474500  0.785900  1.0
  C  C1926  1  0.115500  0.525500  0.214100  1.0
  C  C1927  1  0.371400  0.533200  0.240700  1.0
  C  C1928  1  0.871400  0.466800  0.759300  1.0
  C  C1929  1  0.628600  0.466800  0.759300  1.0
  C  C1930  1  0.128600  0.533200  0.240700  1.0
  C  C1931  1  0.367500  0.515000  0.298900  1.0
  C  C1932  1  0.867500  0.485000  0.701100  1.0
  C  C1933  1  0.632500  0.485000  0.701100  1.0
  C  C1934  1  0.132500  0.515000  0.298900  1.0
  C  C1935  1  0.363400  0.528800  0.283000  1.0
  C  C1936  1  0.863400  0.471200  0.717000  1.0
  C  C1937  1  0.636600  0.471200  0.717000  1.0
  C  C1938  1  0.136600  0.528800  0.283000  1.0
  C  C1939  1  0.378400  0.518700  0.256800  1.0
  C  C1940  1  0.878400  0.481300  0.743200  1.0
  C  C1941  1  0.621600  0.481300  0.743200  1.0
  C  C1942  1  0.121600  0.518700  0.256800  1.0
  C  C1943  1  0.397600  0.494900  0.246600  1.0
  C  C1944  1  0.897600  0.505100  0.753400  1.0
  C  C1945  1  0.602400  0.505100  0.753400  1.0
  C  C1946  1  0.102400  0.494900  0.246600  1.0
  C  C1947  1  0.401700  0.481200  0.262600  1.0
  C  C1948  1  0.901700  0.518800  0.737400  1.0
  C  C1949  1  0.598300  0.518800  0.737400  1.0
  C  C1950  1  0.098300  0.481200  0.262600  1.0
  C  C1951  1  0.327500  0.347100  0.045600  1.0
  C  C1952  1  0.827500  0.652900  0.954400  1.0
  C  C1953  1  0.672500  0.652900  0.954400  1.0
  C  C1954  1  0.172500  0.347100  0.045600  1.0
  C  C1955  1  0.301700  0.349400  0.061700  1.0
  C  C1956  1  0.801700  0.650600  0.938300  1.0
  C  C1957  1  0.698300  0.650600  0.938300  1.0
  C  C1958  1  0.198300  0.349400  0.061700  1.0
  C  C1959  1  0.304500  0.348500  0.087100  1.0
  C  C1960  1  0.804500  0.651500  0.912900  1.0
  C  C1961  1  0.695500  0.651500  0.912900  1.0
  C  C1962  1  0.195500  0.348500  0.087100  1.0
  C  C1963  1  0.333100  0.345200  0.096300  1.0
  C  C1964  1  0.833100  0.654800  0.903700  1.0
  C  C1965  1  0.666900  0.654800  0.903700  1.0
  C  C1966  1  0.166900  0.345200  0.096300  1.0
  C  C1967  1  0.358900  0.342900  0.080100  1.0
  C  C1968  1  0.858900  0.657100  0.919900  1.0
  C  C1969  1  0.641100  0.657100  0.919900  1.0
  C  C1970  1  0.141100  0.342900  0.080100  1.0
  C  C1971  1  0.276900  0.351500  0.104200  1.0
  C  C1972  1  0.776900  0.648500  0.895800  1.0
  C  C1973  1  0.723100  0.648500  0.895800  1.0
  C  C1974  1  0.223100  0.351500  0.104200  1.0
  C  C1975  1  0.274800  0.358700  0.133000  1.0
  C  C1976  1  0.774800  0.641300  0.867000  1.0
  C  C1977  1  0.725200  0.641300  0.867000  1.0
  C  C1978  1  0.225200  0.358700  0.133000  1.0
  C  C1979  1  0.250000  0.364500  0.150700  1.0
  C  C1980  1  0.750000  0.635500  0.849300  1.0
  C  C1981  1  0.327400  0.545500  0.846700  1.0
  C  C1982  1  0.827400  0.454500  0.153300  1.0
  C  C1983  1  0.672600  0.454500  0.153300  1.0
  C  C1984  1  0.172600  0.545500  0.846700  1.0
  C  C1985  1  0.301700  0.561700  0.848900  1.0
  C  C1986  1  0.801700  0.438300  0.151100  1.0
  C  C1987  1  0.698300  0.438300  0.151100  1.0
  C  C1988  1  0.198300  0.561700  0.848900  1.0
  C  C1989  1  0.304600  0.587000  0.847900  1.0
  C  C1990  1  0.804600  0.413000  0.152100  1.0
  C  C1991  1  0.695400  0.413000  0.152100  1.0
  C  C1992  1  0.195400  0.587000  0.847900  1.0
  C  C1993  1  0.333200  0.596200  0.844800  1.0
  C  C1994  1  0.833200  0.403800  0.155200  1.0
  C  C1995  1  0.666800  0.403800  0.155200  1.0
  C  C1996  1  0.166800  0.596200  0.844800  1.0
  C  C1997  1  0.359000  0.580100  0.842600  1.0
  C  C1998  1  0.859000  0.419900  0.157400  1.0
  C  C1999  1  0.641000  0.419900  0.157400  1.0
  C  C2000  1  0.141000  0.580100  0.842600  1.0
  C  C2001  1  0.276000  0.602800  0.850700  1.0
  C  C2002  1  0.776000  0.397200  0.149300  1.0
  C  C2003  1  0.724000  0.397200  0.149300  1.0
  C  C2004  1  0.224000  0.602800  0.850700  1.0
  C  C2005  1  0.274800  0.632000  0.857600  1.0
  C  C2006  1  0.774800  0.368000  0.142400  1.0
  C  C2007  1  0.725200  0.368000  0.142400  1.0
  C  C2008  1  0.225200  0.632000  0.857600  1.0
  C  C2009  1  0.250000  0.649900  0.862900  1.0
  C  C2010  1  0.750000  0.350100  0.137100  1.0
  C  C2011  1  0.407800  0.234100  0.775300  1.0
  C  C2012  1  0.907800  0.765900  0.224700  1.0
  C  C2013  1  0.592200  0.765900  0.224700  1.0
  C  C2014  1  0.092200  0.234100  0.775300  1.0
  C  C2015  1  0.394600  0.207800  0.768400  1.0
  C  C2016  1  0.894600  0.792200  0.231600  1.0
  C  C2017  1  0.605400  0.792200  0.231600  1.0
  C  C2018  1  0.105400  0.207800  0.768400  1.0
  C  C2019  1  0.410500  0.182300  0.751700  1.0
  C  C2020  1  0.910500  0.817700  0.248300  1.0
  C  C2021  1  0.589500  0.817700  0.248300  1.0
  C  C2022  1  0.089500  0.182300  0.751700  1.0
  C  C2023  1  0.439500  0.183000  0.741600  1.0
  C  C2024  1  0.939500  0.817000  0.258400  1.0
  C  C2025  1  0.560500  0.817000  0.258400  1.0
  C  C2026  1  0.060500  0.183000  0.741600  1.0
  C  C2027  1  0.452700  0.209300  0.748400  1.0
  C  C2028  1  0.952700  0.790700  0.251600  1.0
  C  C2029  1  0.547300  0.790700  0.251600  1.0
  C  C2030  1  0.047300  0.209300  0.748400  1.0
  C  C2031  1  0.401500  0.152700  0.744000  1.0
  C  C2032  1  0.901500  0.847300  0.256000  1.0
  C  C2033  1  0.598500  0.847300  0.256000  1.0
  C  C2034  1  0.098500  0.152700  0.744000  1.0
  C  C2035  1  0.416600  0.126700  0.726900  1.0
  C  C2036  1  0.916600  0.873300  0.273100  1.0
  C  C2037  1  0.583400  0.873300  0.273100  1.0
  C  C2038  1  0.083400  0.126700  0.726900  1.0
  C  C2039  1  0.405000  0.101400  0.724300  1.0
  C  C2040  1  0.905000  0.898600  0.275700  1.0
  C  C2041  1  0.595000  0.898600  0.275700  1.0
  C  C2042  1  0.095000  0.101400  0.724300  1.0
  C  C2043  1  0.378300  0.101900  0.738500  1.0
  C  C2044  1  0.878300  0.898100  0.261500  1.0
  C  C2045  1  0.621700  0.898100  0.261500  1.0
  C  C2046  1  0.121700  0.101900  0.738500  1.0
  C  C2047  1  0.363200  0.127800  0.755500  1.0
  C  C2048  1  0.863200  0.872200  0.244500  1.0
  C  C2049  1  0.636800  0.872200  0.244500  1.0
  C  C2050  1  0.136800  0.127800  0.755500  1.0
  C  C2051  1  0.293700  0.159600  0.802900  1.0
  C  C2052  1  0.793700  0.840400  0.197100  1.0
  C  C2053  1  0.706300  0.840400  0.197100  1.0
  C  C2054  1  0.206300  0.159600  0.802900  1.0
  C  C2055  1  0.319900  0.157300  0.787200  1.0
  C  C2056  1  0.819900  0.842700  0.212800  1.0
  C  C2057  1  0.680100  0.842700  0.212800  1.0
  C  C2058  1  0.180100  0.157300  0.787200  1.0
  C  C2059  1  0.333700  0.130600  0.770500  1.0
  C  C2060  1  0.833700  0.869400  0.229500  1.0
  C  C2061  1  0.666300  0.869400  0.229500  1.0
  C  C2062  1  0.166300  0.130600  0.770500  1.0
  C  C2063  1  0.321400  0.106200  0.769500  1.0
  C  C2064  1  0.821400  0.893800  0.230500  1.0
  C  C2065  1  0.678600  0.893800  0.230500  1.0
  C  C2066  1  0.178600  0.106200  0.769500  1.0
  C  C2067  1  0.295200  0.108500  0.785200  1.0
  C  C2068  1  0.795200  0.891500  0.214800  1.0
  C  C2069  1  0.704800  0.891500  0.214800  1.0
  C  C2070  1  0.204800  0.108500  0.785200  1.0
  C  C2071  1  0.292500  0.177100  0.877700  1.0
  C  C2072  1  0.792500  0.822900  0.122300  1.0
  C  C2073  1  0.707500  0.822900  0.122300  1.0
  C  C2074  1  0.207500  0.177100  0.877700  1.0
  C  C2075  1  0.314500  0.183800  0.898800  1.0
  C  C2076  1  0.814500  0.816200  0.101200  1.0
  C  C2077  1  0.685500  0.816200  0.101200  1.0
  C  C2078  1  0.185500  0.183800  0.898800  1.0
  C  C2079  1  0.326100  0.162400  0.903600  1.0
  C  C2080  1  0.826100  0.837600  0.096400  1.0
  C  C2081  1  0.673900  0.837600  0.096400  1.0
  C  C2082  1  0.173900  0.162400  0.903600  1.0
  C  C2083  1  0.315800  0.134200  0.887100  1.0
  C  C2084  1  0.815800  0.865800  0.112900  1.0
  C  C2085  1  0.684200  0.865800  0.112900  1.0
  C  C2086  1  0.184200  0.134200  0.887100  1.0
  C  C2087  1  0.293800  0.127400  0.865900  1.0
  C  C2088  1  0.793800  0.872600  0.134100  1.0
  C  C2089  1  0.706200  0.872600  0.134100  1.0
  C  C2090  1  0.206200  0.127400  0.865900  1.0
  C  C2091  1  0.345100  0.168000  0.927400  1.0
  C  C2092  1  0.845100  0.832000  0.072600  1.0
  C  C2093  1  0.654900  0.832000  0.072600  1.0
  C  C2094  1  0.154900  0.168000  0.927400  1.0
  C  C2095  1  0.357400  0.149400  0.935800  1.0
  C  C2096  1  0.857400  0.850600  0.064200  1.0
  C  C2097  1  0.642600  0.850600  0.064200  1.0
  C  C2098  1  0.142600  0.149400  0.935800  1.0
  C  C2099  1  0.377100  0.159900  0.959300  1.0
  C  C2100  1  0.877100  0.840100  0.040700  1.0
  C  C2101  1  0.622900  0.840100  0.040700  1.0
  C  C2102  1  0.122900  0.159900  0.959300  1.0
  C  C2103  1  0.384500  0.189000  0.974300  1.0
  C  C2104  1  0.884500  0.811000  0.025700  1.0
  C  C2105  1  0.615500  0.811000  0.025700  1.0
  C  C2106  1  0.115500  0.189000  0.974300  1.0
  C  C2107  1  0.372300  0.207600  0.965900  1.0
  C  C2108  1  0.872300  0.792400  0.034100  1.0
  C  C2109  1  0.627700  0.792400  0.034100  1.0
  C  C2110  1  0.127700  0.207600  0.965900  1.0
  C  C2111  1  0.367300  0.283800  0.984900  1.0
  C  C2112  1  0.867300  0.716200  0.015100  1.0
  C  C2113  1  0.632700  0.716200  0.015100  1.0
  C  C2114  1  0.132700  0.283800  0.984900  1.0
  C  C2115  1  0.363400  0.254100  0.971300  1.0
  C  C2116  1  0.863400  0.745900  0.028700  1.0
  C  C2117  1  0.636600  0.745900  0.028700  1.0
  C  C2118  1  0.136600  0.254100  0.971300  1.0
  C  C2119  1  0.378700  0.238300  0.981600  1.0
  C  C2120  1  0.878700  0.761700  0.018400  1.0
  C  C2121  1  0.621300  0.761700  0.018400  1.0
  C  C2122  1  0.121300  0.238300  0.981600  1.0
  C  C2123  1  0.397800  0.252100  0.005300  1.0
  C  C2124  1  0.897800  0.747900  0.994700  1.0
  C  C2125  1  0.602200  0.747900  0.994700  1.0
  C  C2126  1  0.102200  0.252100  0.005300  1.0
  C  C2127  1  0.401700  0.281800  0.018800  1.0
  C  C2128  1  0.901700  0.718200  0.981200  1.0
  C  C2129  1  0.598300  0.718200  0.981200  1.0
  C  C2130  1  0.098300  0.281800  0.018800  1.0
  C  C2131  1  0.418900  0.331100  0.975500  1.0
  C  C2132  1  0.918900  0.668900  0.024500  1.0
  C  C2133  1  0.581100  0.668900  0.024500  1.0
  C  C2134  1  0.081100  0.331100  0.975500  1.0
  C  C2135  1  0.442500  0.325000  0.955900  1.0
  C  C2136  1  0.942500  0.675000  0.044100  1.0
  C  C2137  1  0.557500  0.675000  0.044100  1.0
  C  C2138  1  0.057500  0.325000  0.955900  1.0
  C  C2139  1  0.472100  0.321800  0.963100  1.0
  C  C2140  1  0.972100  0.678200  0.036900  1.0
  C  C2141  1  0.527900  0.678200  0.036900  1.0
  C  C2142  1  0.027900  0.321800  0.963100  1.0
  C  C2143  1  0.478300  0.324700  0.989900  1.0
  C  C2144  1  0.978300  0.675300  0.010100  1.0
  C  C2145  1  0.521700  0.675300  0.010100  1.0
  C  C2146  1  0.021700  0.324700  0.989900  1.0
  C  C2147  1  0.454700  0.330700  0.009400  1.0
  C  C2148  1  0.954700  0.669300  0.990600  1.0
  C  C2149  1  0.545300  0.669300  0.990600  1.0
  C  C2150  1  0.045300  0.330700  0.009400  1.0
  C  C2151  1  0.495900  0.314400  0.941200  1.0
  C  C2152  1  0.995900  0.685600  0.058800  1.0
  C  C2153  1  0.504100  0.685600  0.058800  1.0
  C  C2154  1  0.004100  0.314400  0.941200  1.0
  C  C2155  1  0.526800  0.311700  0.945500  1.0
  C  C2156  1  0.026800  0.688300  0.054500  1.0
  C  C2157  1  0.473200  0.688300  0.054500  1.0
  C  C2158  1  0.973200  0.311700  0.945500  1.0
  C  C2159  1  0.547200  0.302900  0.922800  1.0
  C  C2160  1  0.047200  0.697100  0.077200  1.0
  C  C2161  1  0.452800  0.697100  0.077200  1.0
  C  C2162  1  0.952800  0.302900  0.922800  1.0
  C  C2163  1  0.536900  0.296700  0.895800  1.0
  C  C2164  1  0.036900  0.703300  0.104200  1.0
  C  C2165  1  0.463100  0.703300  0.104200  1.0
  C  C2166  1  0.963100  0.296700  0.895800  1.0
  C  C2167  1  0.506100  0.299300  0.891400  1.0
  C  C2168  1  0.006100  0.700700  0.108600  1.0
  C  C2169  1  0.493900  0.700700  0.108600  1.0
  C  C2170  1  0.993900  0.299300  0.891400  1.0
  C  C2171  1  0.450600  0.294600  0.837400  1.0
  C  C2172  1  0.950600  0.705400  0.162600  1.0
  C  C2173  1  0.549400  0.705400  0.162600  1.0
  C  C2174  1  0.049400  0.294600  0.837400  1.0
  C  C2175  1  0.463300  0.300300  0.863500  1.0
  C  C2176  1  0.963300  0.699700  0.136500  1.0
  C  C2177  1  0.536700  0.699700  0.136500  1.0
  C  C2178  1  0.036700  0.300300  0.863500  1.0
  C  C2179  1  0.493500  0.293200  0.864700  1.0
  C  C2180  1  0.993500  0.706800  0.135300  1.0
  C  C2181  1  0.506500  0.706800  0.135300  1.0
  C  C2182  1  0.006500  0.293200  0.864700  1.0
  C  C2183  1  0.511100  0.280300  0.839700  1.0
  C  C2184  1  0.011100  0.719700  0.160300  1.0
  C  C2185  1  0.488900  0.719700  0.160300  1.0
  C  C2186  1  0.988900  0.280300  0.839700  1.0
  C  C2187  1  0.498500  0.274700  0.813700  1.0
  C  C2188  1  0.998500  0.725300  0.186300  1.0
  C  C2189  1  0.501500  0.725300  0.186300  1.0
  C  C2190  1  0.001500  0.274700  0.813700  1.0
  C  C2191  1  0.376900  0.396900  0.037900  1.0
  C  C2192  1  0.876900  0.603100  0.962100  1.0
  C  C2193  1  0.623100  0.603100  0.962100  1.0
  C  C2194  1  0.123100  0.396900  0.037900  1.0
  C  C2195  1  0.374500  0.426800  0.053200  1.0
  C  C2196  1  0.874500  0.573200  0.946800  1.0
  C  C2197  1  0.625500  0.573200  0.946800  1.0
  C  C2198  1  0.125500  0.426800  0.053200  1.0
  C  C2199  1  0.389300  0.442600  0.079500  1.0
  C  C2200  1  0.889300  0.557400  0.920500  1.0
  C  C2201  1  0.610700  0.557400  0.920500  1.0
  C  C2202  1  0.110700  0.442600  0.079500  1.0
  C  C2203  1  0.406600  0.428600  0.090600  1.0
  C  C2204  1  0.906600  0.571400  0.909400  1.0
  C  C2205  1  0.593400  0.571400  0.909400  1.0
  C  C2206  1  0.093400  0.428600  0.090600  1.0
  C  C2207  1  0.409000  0.398700  0.075200  1.0
  C  C2208  1  0.909000  0.601300  0.924800  1.0
  C  C2209  1  0.591000  0.601300  0.924800  1.0
  C  C2210  1  0.091000  0.398700  0.075200  1.0
  C  C2211  1  0.388400  0.472700  0.093200  1.0
  C  C2212  1  0.888400  0.527300  0.906800  1.0
  C  C2213  1  0.611600  0.527300  0.906800  1.0
  C  C2214  1  0.111600  0.472700  0.093200  1.0
  C  C2215  1  0.408900  0.491300  0.114000  1.0
  C  C2216  1  0.908900  0.508700  0.886000  1.0
  C  C2217  1  0.591100  0.508700  0.886000  1.0
  C  C2218  1  0.091100  0.491300  0.114000  1.0
  C  C2219  1  0.404500  0.520900  0.127300  1.0
  C  C2220  1  0.904500  0.479100  0.872700  1.0
  C  C2221  1  0.595500  0.479100  0.872700  1.0
  C  C2222  1  0.095500  0.520900  0.127300  1.0
  C  C2223  1  0.379600  0.531900  0.119900  1.0
  C  C2224  1  0.879600  0.468100  0.880100  1.0
  C  C2225  1  0.620400  0.468100  0.880100  1.0
  C  C2226  1  0.120400  0.531900  0.119900  1.0
  C  C2227  1  0.359100  0.513300  0.099200  1.0
  C  C2228  1  0.859100  0.486700  0.900800  1.0
  C  C2229  1  0.640900  0.486700  0.900800  1.0
  C  C2230  1  0.140900  0.513300  0.099200  1.0
  C  C2231  1  0.294300  0.515000  0.055200  1.0
  C  C2232  1  0.794300  0.485000  0.944800  1.0
  C  C2233  1  0.705700  0.485000  0.944800  1.0
  C  C2234  1  0.205700  0.515000  0.055200  1.0
  C  C2235  1  0.319300  0.505700  0.064300  1.0
  C  C2236  1  0.819300  0.494300  0.935700  1.0
  C  C2237  1  0.680700  0.494300  0.935700  1.0
  C  C2238  1  0.180700  0.505700  0.064300  1.0
  C  C2239  1  0.332200  0.523800  0.091200  1.0
  C  C2240  1  0.832200  0.476200  0.908800  1.0
  C  C2241  1  0.667800  0.476200  0.908800  1.0
  C  C2242  1  0.167800  0.523800  0.091200  1.0
  C  C2243  1  0.320100  0.551100  0.108900  1.0
  C  C2244  1  0.820100  0.448900  0.891100  1.0
  C  C2245  1  0.679900  0.448900  0.891100  1.0
  C  C2246  1  0.179900  0.551100  0.108900  1.0
  C  C2247  1  0.295100  0.560300  0.099700  1.0
  C  C2248  1  0.795100  0.439700  0.900300  1.0
  C  C2249  1  0.704900  0.439700  0.900300  1.0
  C  C2250  1  0.204900  0.560300  0.099700  1.0
  C  C2251  1  0.294200  0.555300  0.014900  1.0
  C  C2252  1  0.794200  0.444700  0.985100  1.0
  C  C2253  1  0.705800  0.444700  0.985100  1.0
  C  C2254  1  0.205800  0.555300  0.014900  1.0
  C  C2255  1  0.318900  0.564800  0.005600  1.0
  C  C2256  1  0.818900  0.435200  0.994400  1.0
  C  C2257  1  0.681100  0.435200  0.994400  1.0
  C  C2258  1  0.181100  0.564800  0.005600  1.0
  C  C2259  1  0.331700  0.591700  0.023700  1.0
  C  C2260  1  0.831700  0.408300  0.976300  1.0
  C  C2261  1  0.668300  0.408300  0.976300  1.0
  C  C2262  1  0.168300  0.591700  0.023700  1.0
  C  C2263  1  0.319700  0.609000  0.051000  1.0
  C  C2264  1  0.819700  0.391000  0.949000  1.0
  C  C2265  1  0.680300  0.391000  0.949000  1.0
  C  C2266  1  0.180300  0.609000  0.051000  1.0
  C  C2267  1  0.295000  0.599600  0.060400  1.0
  C  C2268  1  0.795000  0.400400  0.939600  1.0
  C  C2269  1  0.705000  0.400400  0.939600  1.0
  C  C2270  1  0.205000  0.599600  0.060400  1.0
  C  C2271  1  0.358600  0.599500  0.014200  1.0
  C  C2272  1  0.858600  0.400500  0.985800  1.0
  C  C2273  1  0.641400  0.400500  0.985800  1.0
  C  C2274  1  0.141400  0.599500  0.014200  1.0
  C  C2275  1  0.378900  0.620300  0.032900  1.0
  C  C2276  1  0.878900  0.379700  0.967100  1.0
  C  C2277  1  0.621100  0.379700  0.967100  1.0
  C  C2278  1  0.121100  0.620300  0.032900  1.0
  C  C2279  1  0.403800  0.627900  0.022100  1.0
  C  C2280  1  0.903800  0.372100  0.977900  1.0
  C  C2281  1  0.596200  0.372100  0.977900  1.0
  C  C2282  1  0.096200  0.627900  0.022100  1.0
  C  C2283  1  0.408400  0.614700  0.992500  1.0
  C  C2284  1  0.908400  0.385300  0.007500  1.0
  C  C2285  1  0.591600  0.385300  0.007500  1.0
  C  C2286  1  0.091600  0.614700  0.992500  1.0
  C  C2287  1  0.388000  0.593900  0.973700  1.0
  C  C2288  1  0.888000  0.406100  0.026300  1.0
  C  C2289  1  0.612000  0.406100  0.026300  1.0
  C  C2290  1  0.112000  0.593900  0.973700  1.0
  C  C2291  1  0.376900  0.537500  0.897100  1.0
  C  C2292  1  0.876900  0.462500  0.102900  1.0
  C  C2293  1  0.623100  0.462500  0.102900  1.0
  C  C2294  1  0.123100  0.537500  0.897100  1.0
  C  C2295  1  0.374800  0.553000  0.927000  1.0
  C  C2296  1  0.874800  0.447000  0.073000  1.0
  C  C2297  1  0.625200  0.447000  0.073000  1.0
  C  C2298  1  0.125200  0.553000  0.927000  1.0
  C  C2299  1  0.389600  0.579300  0.942500  1.0
  C  C2300  1  0.889600  0.420700  0.057500  1.0
  C  C2301  1  0.610400  0.420700  0.057500  1.0
  C  C2302  1  0.110400  0.579300  0.942500  1.0
  C  C2303  1  0.406600  0.590200  0.928100  1.0
  C  C2304  1  0.906600  0.409800  0.071900  1.0
  C  C2305  1  0.593400  0.409800  0.071900  1.0
  C  C2306  1  0.093400  0.590200  0.928100  1.0
  C  C2307  1  0.408700  0.574700  0.898200  1.0
  C  C2308  1  0.908700  0.425300  0.101800  1.0
  C  C2309  1  0.591300  0.425300  0.101800  1.0
  C  C2310  1  0.091300  0.574700  0.898200  1.0
  C  C2311  1  0.418500  0.476000  0.831300  1.0
  C  C2312  1  0.918500  0.524000  0.168700  1.0
  C  C2313  1  0.581500  0.524000  0.168700  1.0
  C  C2314  1  0.081500  0.476000  0.831300  1.0
  C  C2315  1  0.441800  0.456000  0.824600  1.0
  C  C2316  1  0.941800  0.544000  0.175400  1.0
  C  C2317  1  0.558200  0.544000  0.175400  1.0
  C  C2318  1  0.058200  0.456000  0.824600  1.0
  C  C2319  1  0.471500  0.463000  0.821300  1.0
  C  C2320  1  0.971500  0.537000  0.178700  1.0
  C  C2321  1  0.528500  0.537000  0.178700  1.0
  C  C2322  1  0.028500  0.463000  0.821300  1.0
  C  C2323  1  0.477900  0.489900  0.824600  1.0
  C  C2324  1  0.977900  0.510100  0.175400  1.0
  C  C2325  1  0.522100  0.510100  0.175400  1.0
  C  C2326  1  0.022100  0.489900  0.824600  1.0
  C  C2327  1  0.454600  0.509900  0.831400  1.0
  C  C2328  1  0.954600  0.490100  0.168600  1.0
  C  C2329  1  0.545400  0.490100  0.168600  1.0
  C  C2330  1  0.045400  0.509900  0.831400  1.0
  C  C2331  1  0.495900  0.440700  0.814300  1.0
  C  C2332  1  0.995900  0.559300  0.185700  1.0
  C  C2333  1  0.504100  0.559300  0.185700  1.0
  C  C2334  1  0.004100  0.440700  0.814300  1.0
  C  C2335  1  0.526800  0.445500  0.812500  1.0
  C  C2336  1  0.026800  0.554500  0.187500  1.0
  C  C2337  1  0.473200  0.554500  0.187500  1.0
  C  C2338  1  0.973200  0.445500  0.812500  1.0
  C  C2339  1  0.547600  0.423100  0.803800  1.0
  C  C2340  1  0.047600  0.576900  0.196200  1.0
  C  C2341  1  0.452400  0.576900  0.196200  1.0
  C  C2342  1  0.952400  0.423100  0.803800  1.0
  C  C2343  1  0.537500  0.395800  0.797000  1.0
  C  C2344  1  0.037500  0.604200  0.203000  1.0
  C  C2345  1  0.462500  0.604200  0.203000  1.0
  C  C2346  1  0.962500  0.395800  0.797000  1.0
  C  C2347  1  0.506600  0.390900  0.798700  1.0
  C  C2348  1  0.006600  0.609100  0.201300  1.0
  C  C2349  1  0.493400  0.609100  0.201300  1.0
  C  C2350  1  0.993400  0.390900  0.798700  1.0
  C  C2351  1  0.451100  0.337000  0.794400  1.0
  C  C2352  1  0.951100  0.663000  0.205600  1.0
  C  C2353  1  0.548900  0.663000  0.205600  1.0
  C  C2354  1  0.048900  0.337000  0.794400  1.0
  C  C2355  1  0.463300  0.363100  0.799600  1.0
  C  C2356  1  0.963300  0.636900  0.200400  1.0
  C  C2357  1  0.536700  0.636900  0.200400  1.0
  C  C2358  1  0.036700  0.363100  0.799600  1.0
  C  C2359  1  0.493400  0.364400  0.792100  1.0
  C  C2360  1  0.993400  0.635600  0.207900  1.0
  C  C2361  1  0.506600  0.635600  0.207900  1.0
  C  C2362  1  0.006600  0.364400  0.792100  1.0
  C  C2363  1  0.511200  0.339700  0.779400  1.0
  C  C2364  1  0.011200  0.660300  0.220600  1.0
  C  C2365  1  0.488800  0.660300  0.220600  1.0
  C  C2366  1  0.988800  0.339700  0.779400  1.0
  C  C2367  1  0.499000  0.313600  0.774200  1.0
  C  C2368  1  0.999000  0.686400  0.225800  1.0
  C  C2369  1  0.501000  0.686400  0.225800  1.0
  C  C2370  1  0.001000  0.313600  0.774200  1.0
  C  C2371  1  0.406700  0.274900  0.733600  1.0
  C  C2372  1  0.906700  0.725100  0.266400  1.0
  C  C2373  1  0.593300  0.725100  0.266400  1.0
  C  C2374  1  0.093300  0.274900  0.733600  1.0
  C  C2375  1  0.394400  0.267700  0.706900  1.0
  C  C2376  1  0.894400  0.732300  0.293100  1.0
  C  C2377  1  0.605600  0.732300  0.293100  1.0
  C  C2378  1  0.105600  0.267700  0.706900  1.0
  C  C2379  1  0.411100  0.251100  0.681900  1.0
  C  C2380  1  0.911100  0.748900  0.318100  1.0
  C  C2381  1  0.588900  0.748900  0.318100  1.0
  C  C2382  1  0.088900  0.251100  0.681900  1.0
  C  C2383  1  0.440200  0.241700  0.683600  1.0
  C  C2384  1  0.940200  0.758300  0.316400  1.0
  C  C2385  1  0.559800  0.758300  0.316400  1.0
  C  C2386  1  0.059800  0.241700  0.683600  1.0
  C  C2387  1  0.452600  0.248900  0.710300  1.0
  C  C2388  1  0.952600  0.751100  0.289700  1.0
  C  C2389  1  0.547400  0.751100  0.289700  1.0
  C  C2390  1  0.047400  0.248900  0.710300  1.0
  C  C2391  1  0.401200  0.243400  0.652200  1.0
  C  C2392  1  0.901200  0.756600  0.347800  1.0
  C  C2393  1  0.598800  0.756600  0.347800  1.0
  C  C2394  1  0.098800  0.243400  0.652200  1.0
  C  C2395  1  0.415300  0.225900  0.625900  1.0
  C  C2396  1  0.915300  0.774100  0.374100  1.0
  C  C2397  1  0.584700  0.774100  0.374100  1.0
  C  C2398  1  0.084700  0.225900  0.625900  1.0
  C  C2399  1  0.403600  0.224100  0.600900  1.0
  C  C2400  1  0.903600  0.775900  0.399100  1.0
  C  C2401  1  0.596400  0.775900  0.399100  1.0
  C  C2402  1  0.096400  0.224100  0.600900  1.0
  C  C2403  1  0.377800  0.239800  0.602300  1.0
  C  C2404  1  0.877800  0.760200  0.397700  1.0
  C  C2405  1  0.622200  0.760200  0.397700  1.0
  C  C2406  1  0.122200  0.239800  0.602300  1.0
  C  C2407  1  0.363700  0.257400  0.628700  1.0
  C  C2408  1  0.863700  0.742600  0.371300  1.0
  C  C2409  1  0.636300  0.742600  0.371300  1.0
  C  C2410  1  0.136300  0.257400  0.628700  1.0
  C  C2411  1  0.294100  0.303000  0.659300  1.0
  C  C2412  1  0.794100  0.697000  0.340700  1.0
  C  C2413  1  0.705900  0.697000  0.340700  1.0
  C  C2414  1  0.205900  0.303000  0.659300  1.0
  C  C2415  1  0.320200  0.287200  0.657200  1.0
  C  C2416  1  0.820200  0.712800  0.342800  1.0
  C  C2417  1  0.679800  0.712800  0.342800  1.0
  C  C2418  1  0.179800  0.287200  0.657200  1.0
  C  C2419  1  0.334000  0.270300  0.630600  1.0
  C  C2420  1  0.834000  0.729700  0.369400  1.0
  C  C2421  1  0.666000  0.729700  0.369400  1.0
  C  C2422  1  0.166000  0.270300  0.630600  1.0
  C  C2423  1  0.321800  0.269200  0.606200  1.0
  C  C2424  1  0.821800  0.730800  0.393800  1.0
  C  C2425  1  0.678200  0.730800  0.393800  1.0
  C  C2426  1  0.178200  0.269200  0.606200  1.0
  C  C2427  1  0.295700  0.284900  0.608200  1.0
  C  C2428  1  0.795700  0.715100  0.391800  1.0
  C  C2429  1  0.704300  0.715100  0.391800  1.0
  C  C2430  1  0.204300  0.284900  0.608200  1.0
  C  C2431  1  0.293500  0.377300  0.677600  1.0
  C  C2432  1  0.793500  0.622700  0.322400  1.0
  C  C2433  1  0.706500  0.622700  0.322400  1.0
  C  C2434  1  0.206500  0.377300  0.677600  1.0
  C  C2435  1  0.314900  0.398700  0.683600  1.0
  C  C2436  1  0.814900  0.601300  0.316400  1.0
  C  C2437  1  0.685100  0.601300  0.316400  1.0
  C  C2438  1  0.185100  0.398700  0.683600  1.0
  C  C2439  1  0.325400  0.403200  0.661800  1.0
  C  C2440  1  0.825400  0.596800  0.338200  1.0
  C  C2441  1  0.674600  0.596800  0.338200  1.0
  C  C2442  1  0.174600  0.403200  0.661800  1.0
  C  C2443  1  0.314600  0.386300  0.633900  1.0
  C  C2444  1  0.814600  0.613700  0.366100  1.0
  C  C2445  1  0.685400  0.613700  0.366100  1.0
  C  C2446  1  0.185400  0.386300  0.633900  1.0
  C  C2447  1  0.293200  0.364900  0.627800  1.0
  C  C2448  1  0.793200  0.635100  0.372200  1.0
  C  C2449  1  0.706800  0.635100  0.372200  1.0
  C  C2450  1  0.206800  0.364900  0.627800  1.0
  C  C2451  1  0.344600  0.427300  0.667700  1.0
  C  C2452  1  0.844600  0.572700  0.332300  1.0
  C  C2453  1  0.655400  0.572700  0.332300  1.0
  C  C2454  1  0.155400  0.427300  0.667700  1.0
  C  C2455  1  0.357700  0.435500  0.649300  1.0
  C  C2456  1  0.857700  0.564500  0.350700  1.0
  C  C2457  1  0.642300  0.564500  0.350700  1.0
  C  C2458  1  0.142300  0.435500  0.649300  1.0
  C  C2459  1  0.378000  0.458500  0.660000  1.0
  C  C2460  1  0.878000  0.541500  0.340000  1.0
  C  C2461  1  0.622000  0.541500  0.340000  1.0
  C  C2462  1  0.122000  0.458500  0.660000  1.0
  C  C2463  1  0.385200  0.473400  0.689200  1.0
  C  C2464  1  0.885200  0.526600  0.310800  1.0
  C  C2465  1  0.614800  0.526600  0.310800  1.0
  C  C2466  1  0.114800  0.473400  0.689200  1.0
  C  C2467  1  0.372100  0.465200  0.707700  1.0
  C  C2468  1  0.872100  0.534800  0.292300  1.0
  C  C2469  1  0.627900  0.534800  0.292300  1.0
  C  C2470  1  0.127900  0.465200  0.707700  1.0
  C  C2471  1  0.367600  0.484700  0.783800  1.0
  C  C2472  1  0.867600  0.515300  0.216200  1.0
  C  C2473  1  0.632400  0.515300  0.216200  1.0
  C  C2474  1  0.132400  0.484700  0.783800  1.0
  C  C2475  1  0.363400  0.471200  0.754200  1.0
  C  C2476  1  0.863400  0.528800  0.245800  1.0
  C  C2477  1  0.636600  0.528800  0.245800  1.0
  C  C2478  1  0.136600  0.471200  0.754200  1.0
  C  C2479  1  0.378300  0.481500  0.738200  1.0
  C  C2480  1  0.878300  0.518500  0.261800  1.0
  C  C2481  1  0.621700  0.518500  0.261800  1.0
  C  C2482  1  0.121700  0.481500  0.738200  1.0
  C  C2483  1  0.397400  0.505300  0.751900  1.0
  C  C2484  1  0.897400  0.494700  0.248100  1.0
  C  C2485  1  0.602600  0.494700  0.248100  1.0
  C  C2486  1  0.102600  0.505300  0.751900  1.0
  C  C2487  1  0.401600  0.518900  0.781600  1.0
  C  C2488  1  0.901600  0.481100  0.218400  1.0
  C  C2489  1  0.598400  0.481100  0.218400  1.0
  C  C2490  1  0.098400  0.518900  0.781600  1.0
  C  C2491  1  0.672600  0.801600  0.847000  1.0
  C  C2492  1  0.172600  0.198400  0.153000  1.0
  C  C2493  1  0.327400  0.198400  0.153000  1.0
  C  C2494  1  0.827400  0.801600  0.847000  1.0
  C  C2495  1  0.698400  0.788000  0.849700  1.0
  C  C2496  1  0.198400  0.212000  0.150300  1.0
  C  C2497  1  0.301600  0.212000  0.150300  1.0
  C  C2498  1  0.801600  0.788000  0.849700  1.0
  C  C2499  1  0.695600  0.761700  0.848800  1.0
  C  C2500  1  0.195600  0.238300  0.151200  1.0
  C  C2501  1  0.304400  0.238300  0.151200  1.0
  C  C2502  1  0.804400  0.761700  0.848800  1.0
  C  C2503  1  0.667100  0.749000  0.845100  1.0
  C  C2504  1  0.167100  0.251000  0.154900  1.0
  C  C2505  1  0.332900  0.251000  0.154900  1.0
  C  C2506  1  0.832900  0.749000  0.845100  1.0
  C  C2507  1  0.641300  0.762500  0.842200  1.0
  C  C2508  1  0.141300  0.237500  0.157800  1.0
  C  C2509  1  0.358700  0.237500  0.157800  1.0
  C  C2510  1  0.858700  0.762500  0.842200  1.0
  C  C2511  1  0.723300  0.746500  0.850800  1.0
  C  C2512  1  0.223300  0.253500  0.149200  1.0
  C  C2513  1  0.276700  0.253500  0.149200  1.0
  C  C2514  1  0.776700  0.746500  0.850800  1.0
  C  C2515  1  0.723300  0.725000  0.858300  1.0
  C  C2516  1  0.223300  0.275000  0.141700  1.0
  C  C2517  1  0.276700  0.275000  0.141700  1.0
  C  C2518  1  0.776700  0.725000  0.858300  1.0
  C  C2519  1  0.750000  0.715000  0.864500  1.0
  C  C2520  1  0.250000  0.285000  0.135500  1.0
  C  C2521  1  0.672900  0.198100  0.046100  1.0
  C  C2522  1  0.172900  0.801900  0.953900  1.0
  C  C2523  1  0.327100  0.801900  0.953900  1.0
  C  C2524  1  0.827100  0.198100  0.046100  1.0
  C  C2525  1  0.698500  0.212100  0.062300  1.0
  C  C2526  1  0.198500  0.787900  0.937700  1.0
  C  C2527  1  0.301500  0.787900  0.937700  1.0
  C  C2528  1  0.801500  0.212100  0.062300  1.0
  C  C2529  1  0.695600  0.238600  0.087400  1.0
  C  C2530  1  0.195600  0.761400  0.912600  1.0
  C  C2531  1  0.304400  0.761400  0.912600  1.0
  C  C2532  1  0.804400  0.238600  0.087400  1.0
  C  C2533  1  0.666900  0.251100  0.096300  1.0
  C  C2534  1  0.166900  0.748900  0.903700  1.0
  C  C2535  1  0.333100  0.748900  0.903700  1.0
  C  C2536  1  0.833100  0.251100  0.096300  1.0
  C  C2537  1  0.641200  0.237100  0.080100  1.0
  C  C2538  1  0.141200  0.762900  0.919900  1.0
  C  C2539  1  0.358800  0.762900  0.919900  1.0
  C  C2540  1  0.858800  0.237100  0.080100  1.0
  C  C2541  1  0.722700  0.252900  0.103600  1.0
  C  C2542  1  0.222700  0.747100  0.896400  1.0
  C  C2543  1  0.277300  0.747100  0.896400  1.0
  C  C2544  1  0.777300  0.252900  0.103600  1.0
  C  C2545  1  0.724300  0.274200  0.132500  1.0
  C  C2546  1  0.224300  0.725800  0.867500  1.0
  C  C2547  1  0.275700  0.725800  0.867500  1.0
  C  C2548  1  0.775700  0.274200  0.132500  1.0
  C  C2549  1  0.750000  0.285200  0.149600  1.0
  C  C2550  1  0.250000  0.714800  0.850400  1.0
  C  C2551  1  0.632800  0.798700  0.783500  1.0
  C  C2552  1  0.132800  0.201300  0.216500  1.0
  C  C2553  1  0.367200  0.201300  0.216500  1.0
  C  C2554  1  0.867200  0.798700  0.783500  1.0
  C  C2555  1  0.636900  0.782600  0.753800  1.0
  C  C2556  1  0.136900  0.217400  0.246200  1.0
  C  C2557  1  0.363100  0.217400  0.246200  1.0
  C  C2558  1  0.863100  0.782600  0.753800  1.0
  C  C2559  1  0.621500  0.756700  0.737900  1.0
  C  C2560  1  0.121500  0.243300  0.262100  1.0
  C  C2561  1  0.378500  0.243300  0.262100  1.0
  C  C2562  1  0.878500  0.756700  0.737900  1.0
  C  C2563  1  0.602200  0.746700  0.751600  1.0
  C  C2564  1  0.102200  0.253300  0.248400  1.0
  C  C2565  1  0.397800  0.253300  0.248400  1.0
  C  C2566  1  0.897800  0.746700  0.751600  1.0
  C  C2567  1  0.598200  0.762800  0.781300  1.0
  C  C2568  1  0.098200  0.237200  0.218700  1.0
  C  C2569  1  0.401800  0.237200  0.218700  1.0
  C  C2570  1  0.901800  0.762800  0.781300  1.0
  C  C2571  1  0.627700  0.741700  0.707400  1.0
  C  C2572  1  0.127700  0.258300  0.292600  1.0
  C  C2573  1  0.372300  0.258300  0.292600  1.0
  C  C2574  1  0.872300  0.741700  0.707400  1.0
  C  C2575  1  0.615600  0.714800  0.688400  1.0
  C  C2576  1  0.115600  0.285200  0.311600  1.0
  C  C2577  1  0.384400  0.285200  0.311600  1.0
  C  C2578  1  0.884400  0.714800  0.688400  1.0
  C  C2579  1  0.623500  0.701100  0.659400  1.0
  C  C2580  1  0.123500  0.298900  0.340600  1.0
  C  C2581  1  0.376500  0.298900  0.340600  1.0
  C  C2582  1  0.876500  0.701100  0.659400  1.0
  C  C2583  1  0.643700  0.714200  0.649500  1.0
  C  C2584  1  0.143700  0.285800  0.350500  1.0
  C  C2585  1  0.356300  0.285800  0.350500  1.0
  C  C2586  1  0.856300  0.714200  0.649500  1.0
  C  C2587  1  0.655800  0.741100  0.668500  1.0
  C  C2588  1  0.155800  0.258900  0.331500  1.0
  C  C2589  1  0.344200  0.258900  0.331500  1.0
  C  C2590  1  0.844200  0.741100  0.668500  1.0
  C  C2591  1  0.707100  0.799600  0.677600  1.0
  C  C2592  1  0.207100  0.200400  0.322400  1.0
  C  C2593  1  0.292900  0.200400  0.322400  1.0
  C  C2594  1  0.792900  0.799600  0.677600  1.0
  C  C2595  1  0.685500  0.784300  0.683600  1.0
  C  C2596  1  0.185500  0.215700  0.316400  1.0
  C  C2597  1  0.314500  0.215700  0.316400  1.0
  C  C2598  1  0.814500  0.784300  0.683600  1.0
  C  C2599  1  0.674500  0.758200  0.661500  1.0
  C  C2600  1  0.174500  0.241800  0.338500  1.0
  C  C2601  1  0.325500  0.241800  0.338500  1.0
  C  C2602  1  0.825500  0.758200  0.661500  1.0
  C  C2603  1  0.685100  0.747500  0.633600  1.0
  C  C2604  1  0.185100  0.252500  0.366400  1.0
  C  C2605  1  0.314900  0.252500  0.366400  1.0
  C  C2606  1  0.814900  0.747500  0.633600  1.0
  C  C2607  1  0.706600  0.762800  0.627600  1.0
  C  C2608  1  0.206600  0.237200  0.372400  1.0
  C  C2609  1  0.293400  0.237200  0.372400  1.0
  C  C2610  1  0.793400  0.762800  0.627600  1.0
  C  C2611  1  0.706800  0.857000  0.659500  1.0
  C  C2612  1  0.206800  0.143000  0.340500  1.0
  C  C2613  1  0.293200  0.143000  0.340500  1.0
  C  C2614  1  0.793200  0.857000  0.659500  1.0
  C  C2615  1  0.681000  0.871100  0.657600  1.0
  C  C2616  1  0.181000  0.128900  0.342400  1.0
  C  C2617  1  0.319000  0.128900  0.342400  1.0
  C  C2618  1  0.819000  0.871100  0.657600  1.0
  C  C2619  1  0.666500  0.861000  0.631200  1.0
  C  C2620  1  0.166500  0.139000  0.368800  1.0
  C  C2621  1  0.333500  0.139000  0.368800  1.0
  C  C2622  1  0.833500  0.861000  0.631200  1.0
  C  C2623  1  0.677700  0.836800  0.606700  1.0
  C  C2624  1  0.177700  0.163200  0.393300  1.0
  C  C2625  1  0.322300  0.163200  0.393300  1.0
  C  C2626  1  0.822300  0.836800  0.606700  1.0
  C  C2627  1  0.703500  0.822800  0.608800  1.0
  C  C2628  1  0.203500  0.177200  0.391200  1.0
  C  C2629  1  0.296500  0.177200  0.391200  1.0
  C  C2630  1  0.796500  0.822800  0.608800  1.0
  C  C2631  1  0.637500  0.871900  0.627000  1.0
  C  C2632  1  0.137500  0.128100  0.373000  1.0
  C  C2633  1  0.362500  0.128100  0.373000  1.0
  C  C2634  1  0.862500  0.871900  0.627000  1.0
  C  C2635  1  0.622700  0.863600  0.601000  1.0
  C  C2636  1  0.122700  0.136400  0.399000  1.0
  C  C2637  1  0.377300  0.136400  0.399000  1.0
  C  C2638  1  0.877300  0.863600  0.601000  1.0
  C  C2639  1  0.596200  0.877600  0.600700  1.0
  C  C2640  1  0.096200  0.122400  0.399300  1.0
  C  C2641  1  0.403800  0.122400  0.399300  1.0
  C  C2642  1  0.903800  0.877600  0.600700  1.0
  C  C2643  1  0.584300  0.899800  0.626100  1.0
  C  C2644  1  0.084300  0.100200  0.373900  1.0
  C  C2645  1  0.415700  0.100200  0.373900  1.0
  C  C2646  1  0.915700  0.899800  0.626100  1.0
  C  C2647  1  0.599100  0.908100  0.652100  1.0
  C  C2648  1  0.099100  0.091900  0.347900  1.0
  C  C2649  1  0.400900  0.091900  0.347900  1.0
  C  C2650  1  0.900900  0.908100  0.652100  1.0
  C  C2651  1  0.593000  0.958700  0.734200  1.0
  C  C2652  1  0.093000  0.041300  0.265800  1.0
  C  C2653  1  0.407000  0.041300  0.265800  1.0
  C  C2654  1  0.907000  0.958700  0.734200  1.0
  C  C2655  1  0.605900  0.939600  0.707600  1.0
  C  C2656  1  0.105900  0.060400  0.292400  1.0
  C  C2657  1  0.394100  0.060400  0.292400  1.0
  C  C2658  1  0.894100  0.939600  0.707600  1.0
  C  C2659  1  0.589500  0.931300  0.682400  1.0
  C  C2660  1  0.089500  0.068700  0.317600  1.0
  C  C2661  1  0.410500  0.068700  0.317600  1.0
  C  C2662  1  0.910500  0.931300  0.682400  1.0
  C  C2663  1  0.560300  0.942100  0.683800  1.0
  C  C2664  1  0.060300  0.057900  0.316200  1.0
  C  C2665  1  0.439700  0.057900  0.316200  1.0
  C  C2666  1  0.939700  0.942100  0.683800  1.0
  C  C2667  1  0.547500  0.961200  0.710400  1.0
  C  C2668  1  0.047500  0.038800  0.289600  1.0
  C  C2669  1  0.452500  0.038800  0.289600  1.0
  C  C2670  1  0.952500  0.961200  0.710400  1.0
  C  C2671  1  0.548700  0.956800  0.794000  1.0
  C  C2672  1  0.048700  0.043200  0.206000  1.0
  C  C2673  1  0.451300  0.043200  0.206000  1.0
  C  C2674  1  0.951300  0.956800  0.794000  1.0
  C  C2675  1  0.535800  0.937000  0.800400  1.0
  C  C2676  1  0.035800  0.063000  0.199600  1.0
  C  C2677  1  0.464200  0.063000  0.199600  1.0
  C  C2678  1  0.964200  0.937000  0.800400  1.0
  C  C2679  1  0.505400  0.929100  0.793800  1.0
  C  C2680  1  0.005400  0.070900  0.206200  1.0
  C  C2681  1  0.494600  0.070900  0.206200  1.0
  C  C2682  1  0.994600  0.929100  0.793800  1.0
  C  C2683  1  0.487900  0.941000  0.780700  1.0
  C  C2684  1  0.987900  0.059000  0.219300  1.0
  C  C2685  1  0.512100  0.059000  0.219300  1.0
  C  C2686  1  0.012100  0.941000  0.780700  1.0
  C  C2687  1  0.500800  0.960800  0.774300  1.0
  C  C2688  1  0.000800  0.039200  0.225700  1.0
  C  C2689  1  0.499200  0.039200  0.225700  1.0
  C  C2690  1  0.999200  0.960800  0.774300  1.0
  C  C2691  1  0.494500  0.907100  0.798600  1.0
  C  C2692  1  0.994500  0.092900  0.201400  1.0
  C  C2693  1  0.505500  0.092900  0.201400  1.0
  C  C2694  1  0.005500  0.907100  0.798600  1.0
  C  C2695  1  0.463400  0.901400  0.797100  1.0
  C  C2696  1  0.963400  0.098600  0.202900  1.0
  C  C2697  1  0.536600  0.098600  0.202900  1.0
  C  C2698  1  0.036600  0.901400  0.797100  1.0
  C  C2699  1  0.452500  0.881700  0.804600  1.0
  C  C2700  1  0.952500  0.118300  0.195400  1.0
  C  C2701  1  0.547500  0.118300  0.195400  1.0
  C  C2702  1  0.047500  0.881700  0.804600  1.0
  C  C2703  1  0.472600  0.867700  0.813600  1.0
  C  C2704  1  0.972600  0.132300  0.186400  1.0
  C  C2705  1  0.527400  0.132300  0.186400  1.0
  C  C2706  1  0.027400  0.867700  0.813600  1.0
  C  C2707  1  0.503700  0.873400  0.815100  1.0
  C  C2708  1  0.003700  0.126600  0.184900  1.0
  C  C2709  1  0.496300  0.126600  0.184900  1.0
  C  C2710  1  0.996300  0.873400  0.815100  1.0
  C  C2711  1  0.581200  0.855700  0.831500  1.0
  C  C2712  1  0.081200  0.144300  0.168500  1.0
  C  C2713  1  0.418800  0.144300  0.168500  1.0
  C  C2714  1  0.918800  0.855700  0.831500  1.0
  C  C2715  1  0.557700  0.869100  0.825200  1.0
  C  C2716  1  0.057700  0.130900  0.174800  1.0
  C  C2717  1  0.442300  0.130900  0.174800  1.0
  C  C2718  1  0.942300  0.869100  0.825200  1.0
  C  C2719  1  0.528100  0.858700  0.821900  1.0
  C  C2720  1  0.028100  0.141300  0.178100  1.0
  C  C2721  1  0.471900  0.141300  0.178100  1.0
  C  C2722  1  0.971900  0.858700  0.821900  1.0
  C  C2723  1  0.521900  0.834800  0.824800  1.0
  C  C2724  1  0.021900  0.165200  0.175200  1.0
  C  C2725  1  0.478100  0.165200  0.175200  1.0
  C  C2726  1  0.978100  0.834800  0.824800  1.0
  C  C2727  1  0.545400  0.821400  0.831100  1.0
  C  C2728  1  0.045400  0.178600  0.168900  1.0
  C  C2729  1  0.454600  0.178600  0.168900  1.0
  C  C2730  1  0.954600  0.821400  0.831100  1.0
  C  C2731  1  0.623200  0.860000  0.897800  1.0
  C  C2732  1  0.123200  0.140000  0.102200  1.0
  C  C2733  1  0.376800  0.140000  0.102200  1.0
  C  C2734  1  0.876800  0.860000  0.897800  1.0
  C  C2735  1  0.625400  0.873900  0.927600  1.0
  C  C2736  1  0.125400  0.126100  0.072400  1.0
  C  C2737  1  0.374600  0.126100  0.072400  1.0
  C  C2738  1  0.874600  0.873900  0.927600  1.0
  C  C2739  1  0.610700  0.862600  0.942700  1.0
  C  C2740  1  0.110700  0.137400  0.057300  1.0
  C  C2741  1  0.389300  0.137400  0.057300  1.0
  C  C2742  1  0.889300  0.862600  0.942700  1.0
  C  C2743  1  0.593800  0.837400  0.928000  1.0
  C  C2744  1  0.093800  0.162600  0.072000  1.0
  C  C2745  1  0.406200  0.162600  0.072000  1.0
  C  C2746  1  0.906200  0.837400  0.928000  1.0
  C  C2747  1  0.591600  0.823500  0.898200  1.0
  C  C2748  1  0.091600  0.176500  0.101800  1.0
  C  C2749  1  0.408400  0.176500  0.101800  1.0
  C  C2750  1  0.908400  0.823500  0.898200  1.0
  C  C2751  1  0.611200  0.879300  0.973000  1.0
  C  C2752  1  0.111200  0.120700  0.027000  1.0
  C  C2753  1  0.388800  0.120700  0.027000  1.0
  C  C2754  1  0.888800  0.879300  0.973000  1.0
  C  C2755  1  0.590800  0.877600  0.991900  1.0
  C  C2756  1  0.090800  0.122400  0.008100  1.0
  C  C2757  1  0.409200  0.122400  0.008100  1.0
  C  C2758  1  0.909200  0.877600  0.991900  1.0
  C  C2759  1  0.595500  0.894200  0.021600  1.0
  C  C2760  1  0.095500  0.105800  0.978400  1.0
  C  C2761  1  0.404500  0.105800  0.978400  1.0
  C  C2762  1  0.904500  0.894200  0.021600  1.0
  C  C2763  1  0.620600  0.912400  0.032100  1.0
  C  C2764  1  0.120600  0.087600  0.967900  1.0
  C  C2765  1  0.379400  0.087600  0.967900  1.0
  C  C2766  1  0.879400  0.912400  0.032100  1.0
  C  C2767  1  0.641000  0.914100  0.013100  1.0
  C  C2768  1  0.141000  0.085900  0.986900  1.0
  C  C2769  1  0.359000  0.085900  0.986900  1.0
  C  C2770  1  0.859000  0.914100  0.013100  1.0
  C  C2771  1  0.706500  0.959300  0.014900  1.0
  C  C2772  1  0.206500  0.040700  0.985100  1.0
  C  C2773  1  0.293500  0.040700  0.985100  1.0
  C  C2774  1  0.793500  0.959300  0.014900  1.0
  C  C2775  1  0.681800  0.940500  0.005500  1.0
  C  C2776  1  0.181800  0.059500  0.994500  1.0
  C  C2777  1  0.318200  0.059500  0.994500  1.0
  C  C2778  1  0.818200  0.940500  0.005500  1.0
  C  C2779  1  0.668800  0.931800  0.023600  1.0
  C  C2780  1  0.168800  0.068200  0.976400  1.0
  C  C2781  1  0.331200  0.068200  0.976400  1.0
  C  C2782  1  0.831200  0.931800  0.023600  1.0
  C  C2783  1  0.680600  0.941800  0.051000  1.0
  C  C2784  1  0.180600  0.058200  0.949000  1.0
  C  C2785  1  0.319400  0.058200  0.949000  1.0
  C  C2786  1  0.819400  0.941800  0.051000  1.0
  C  C2787  1  0.705300  0.960700  0.060500  1.0
  C  C2788  1  0.205300  0.039300  0.939500  1.0
  C  C2789  1  0.294700  0.039300  0.939500  1.0
  C  C2790  1  0.794700  0.960700  0.060500  1.0
  C  C2791  1  0.705600  0.039800  0.055100  1.0
  C  C2792  1  0.205600  0.960200  0.944900  1.0
  C  C2793  1  0.294400  0.960200  0.944900  1.0
  C  C2794  1  0.794400  0.039800  0.055100  1.0
  C  C2795  1  0.680800  0.058500  0.064600  1.0
  C  C2796  1  0.180800  0.941500  0.935400  1.0
  C  C2797  1  0.319200  0.941500  0.935400  1.0
  C  C2798  1  0.819200  0.058500  0.064600  1.0
  C  C2799  1  0.668000  0.067300  0.091400  1.0
  C  C2800  1  0.168000  0.932700  0.908600  1.0
  C  C2801  1  0.332000  0.932700  0.908600  1.0
  C  C2802  1  0.832000  0.067300  0.091400  1.0
  C  C2803  1  0.680100  0.057500  0.109000  1.0
  C  C2804  1  0.180100  0.942500  0.891000  1.0
  C  C2805  1  0.319900  0.942500  0.891000  1.0
  C  C2806  1  0.819900  0.057500  0.109000  1.0
  C  C2807  1  0.704900  0.038800  0.099600  1.0
  C  C2808  1  0.204900  0.961200  0.900400  1.0
  C  C2809  1  0.295100  0.961200  0.900400  1.0
  C  C2810  1  0.795100  0.038800  0.099600  1.0
  C  C2811  1  0.641300  0.085800  0.098900  1.0
  C  C2812  1  0.141300  0.914200  0.901100  1.0
  C  C2813  1  0.358700  0.914200  0.901100  1.0
  C  C2814  1  0.858700  0.085800  0.098900  1.0
  C  C2815  1  0.621100  0.087600  0.119800  1.0
  C  C2816  1  0.121100  0.912400  0.880200  1.0
  C  C2817  1  0.378900  0.912400  0.880200  1.0
  C  C2818  1  0.878900  0.087600  0.119800  1.0
  C  C2819  1  0.596100  0.105900  0.127600  1.0
  C  C2820  1  0.096100  0.894100  0.872400  1.0
  C  C2821  1  0.403900  0.894100  0.872400  1.0
  C  C2822  1  0.903900  0.105900  0.127600  1.0
  C  C2823  1  0.591300  0.122400  0.114500  1.0
  C  C2824  1  0.091300  0.877600  0.885500  1.0
  C  C2825  1  0.408700  0.877600  0.885500  1.0
  C  C2826  1  0.908700  0.122400  0.114500  1.0
  C  C2827  1  0.611400  0.120600  0.093700  1.0
  C  C2828  1  0.111400  0.879400  0.906300  1.0
  C  C2829  1  0.388600  0.879400  0.906300  1.0
  C  C2830  1  0.888600  0.120600  0.093700  1.0
  C  C2831  1  0.623000  0.140400  0.037700  1.0
  C  C2832  1  0.123000  0.859600  0.962300  1.0
  C  C2833  1  0.377000  0.859600  0.962300  1.0
  C  C2834  1  0.877000  0.140400  0.037700  1.0
  C  C2835  1  0.625400  0.125900  0.053100  1.0
  C  C2836  1  0.125400  0.874100  0.946900  1.0
  C  C2837  1  0.374600  0.874100  0.946900  1.0
  C  C2838  1  0.874600  0.125900  0.053100  1.0
  C  C2839  1  0.610700  0.136600  0.079500  1.0
  C  C2840  1  0.110700  0.863400  0.920500  1.0
  C  C2841  1  0.389300  0.863400  0.920500  1.0
  C  C2842  1  0.889300  0.136600  0.079500  1.0
  C  C2843  1  0.593600  0.161800  0.090500  1.0
  C  C2844  1  0.093600  0.838200  0.909500  1.0
  C  C2845  1  0.406400  0.838200  0.909500  1.0
  C  C2846  1  0.906400  0.161800  0.090500  1.0
  C  C2847  1  0.591100  0.176200  0.075100  1.0
  C  C2848  1  0.091100  0.823800  0.924900  1.0
  C  C2849  1  0.408900  0.823800  0.924900  1.0
  C  C2850  1  0.908900  0.176200  0.075100  1.0
  C  C2851  1  0.581000  0.144600  0.976000  1.0
  C  C2852  1  0.081000  0.855400  0.024000  1.0
  C  C2853  1  0.419000  0.855400  0.024000  1.0
  C  C2854  1  0.919000  0.144600  0.976000  1.0
  C  C2855  1  0.557500  0.130900  0.956300  1.0
  C  C2856  1  0.057500  0.869100  0.043700  1.0
  C  C2857  1  0.442500  0.869100  0.043700  1.0
  C  C2858  1  0.942500  0.130900  0.956300  1.0
  C  C2859  1  0.527900  0.141500  0.963200  1.0
  C  C2860  1  0.027900  0.858500  0.036800  1.0
  C  C2861  1  0.472100  0.858500  0.036800  1.0
  C  C2862  1  0.972100  0.141500  0.963200  1.0
  C  C2863  1  0.521700  0.165700  0.989600  1.0
  C  C2864  1  0.021700  0.834300  0.010400  1.0
  C  C2865  1  0.478300  0.834300  0.010400  1.0
  C  C2866  1  0.978300  0.165700  0.989600  1.0
  C  C2867  1  0.545200  0.179400  0.009300  1.0
  C  C2868  1  0.045200  0.820600  0.990700  1.0
  C  C2869  1  0.454800  0.820600  0.990700  1.0
  C  C2870  1  0.954800  0.179400  0.009300  1.0
  C  C2871  1  0.503700  0.127400  0.941100  1.0
  C  C2872  1  0.003700  0.872600  0.058900  1.0
  C  C2873  1  0.496300  0.872600  0.058900  1.0
  C  C2874  1  0.996300  0.127400  0.941100  1.0
  C  C2875  1  0.472900  0.134600  0.945400  1.0
  C  C2876  1  0.972900  0.865400  0.054600  1.0
  C  C2877  1  0.527100  0.865400  0.054600  1.0
  C  C2878  1  0.027100  0.134600  0.945400  1.0
  C  C2879  1  0.452300  0.120200  0.922900  1.0
  C  C2880  1  0.952300  0.879800  0.077100  1.0
  C  C2881  1  0.547700  0.879800  0.077100  1.0
  C  C2882  1  0.047700  0.120200  0.922900  1.0
  C  C2883  1  0.462500  0.098700  0.896200  1.0
  C  C2884  1  0.962500  0.901300  0.103800  1.0
  C  C2885  1  0.537500  0.901300  0.103800  1.0
  C  C2886  1  0.037500  0.098700  0.896200  1.0
  C  C2887  1  0.493300  0.091500  0.891900  1.0
  C  C2888  1  0.993300  0.908500  0.108100  1.0
  C  C2889  1  0.506700  0.908500  0.108100  1.0
  C  C2890  1  0.006700  0.091500  0.891900  1.0
  C  C2891  1  0.549200  0.043200  0.837200  1.0
  C  C2892  1  0.049200  0.956800  0.162800  1.0
  C  C2893  1  0.450800  0.956800  0.162800  1.0
  C  C2894  1  0.950800  0.043200  0.837200  1.0
  C  C2895  1  0.536100  0.063200  0.863300  1.0
  C  C2896  1  0.036100  0.936800  0.136700  1.0
  C  C2897  1  0.463900  0.936800  0.136700  1.0
  C  C2898  1  0.963900  0.063200  0.863300  1.0
  C  C2899  1  0.505700  0.070900  0.864400  1.0
  C  C2900  1  0.005700  0.929100  0.135600  1.0
  C  C2901  1  0.494300  0.929100  0.135600  1.0
  C  C2902  1  0.994300  0.070900  0.864400  1.0
  C  C2903  1  0.488300  0.058600  0.839300  1.0
  C  C2904  1  0.988300  0.941400  0.160700  1.0
  C  C2905  1  0.511700  0.941400  0.160700  1.0
  C  C2906  1  0.011700  0.058600  0.839300  1.0
  C  C2907  1  0.501300  0.038700  0.813300  1.0
  C  C2908  1  0.001300  0.961300  0.186700  1.0
  C  C2909  1  0.498700  0.961300  0.186700  1.0
  C  C2910  1  0.998700  0.038700  0.813300  1.0
  C  C2911  1  0.592900  0.040900  0.774500  1.0
  C  C2912  1  0.092900  0.959100  0.225500  1.0
  C  C2913  1  0.407100  0.959100  0.225500  1.0
  C  C2914  1  0.907100  0.040900  0.774500  1.0
  C  C2915  1  0.605800  0.060200  0.767400  1.0
  C  C2916  1  0.105800  0.939800  0.232600  1.0
  C  C2917  1  0.394200  0.939800  0.232600  1.0
  C  C2918  1  0.894200  0.060200  0.767400  1.0
  C  C2919  1  0.589600  0.068800  0.750700  1.0
  C  C2920  1  0.089600  0.931200  0.249300  1.0
  C  C2921  1  0.410400  0.931200  0.249300  1.0
  C  C2922  1  0.910400  0.068800  0.750700  1.0
  C  C2923  1  0.560500  0.058100  0.741100  1.0
  C  C2924  1  0.060500  0.941900  0.258900  1.0
  C  C2925  1  0.439500  0.941900  0.258900  1.0
  C  C2926  1  0.939500  0.058100  0.741100  1.0
  C  C2927  1  0.547500  0.038800  0.748200  1.0
  C  C2928  1  0.047500  0.961200  0.251800  1.0
  C  C2929  1  0.452500  0.961200  0.251800  1.0
  C  C2930  1  0.952500  0.038800  0.748200  1.0
  C  C2931  1  0.599200  0.091500  0.744300  1.0
  C  C2932  1  0.099200  0.908500  0.255700  1.0
  C  C2933  1  0.400800  0.908500  0.255700  1.0
  C  C2934  1  0.900800  0.091500  0.744300  1.0
  C  C2935  1  0.584300  0.099300  0.726300  1.0
  C  C2936  1  0.084300  0.900700  0.273700  1.0
  C  C2937  1  0.415700  0.900700  0.273700  1.0
  C  C2938  1  0.915700  0.099300  0.726300  1.0
  C  C2939  1  0.595900  0.121400  0.722700  1.0
  C  C2940  1  0.095900  0.878600  0.277300  1.0
  C  C2941  1  0.404100  0.878600  0.277300  1.0
  C  C2942  1  0.904100  0.121400  0.722700  1.0
  C  C2943  1  0.622500  0.135600  0.736900  1.0
  C  C2944  1  0.122500  0.864400  0.263100  1.0
  C  C2945  1  0.377500  0.864400  0.263100  1.0
  C  C2946  1  0.877500  0.135600  0.736900  1.0
  C  C2947  1  0.637300  0.127700  0.754800  1.0
  C  C2948  1  0.137300  0.872300  0.245200  1.0
  C  C2949  1  0.362700  0.872300  0.245200  1.0
  C  C2950  1  0.862700  0.127700  0.754800  1.0
  C  C2951  1  0.706200  0.143500  0.802800  1.0
  C  C2952  1  0.206200  0.856500  0.197200  1.0
  C  C2953  1  0.293800  0.856500  0.197200  1.0
  C  C2954  1  0.793800  0.143500  0.802800  1.0
  C  C2955  1  0.680100  0.129900  0.787200  1.0
  C  C2956  1  0.180100  0.870100  0.212800  1.0
  C  C2957  1  0.319900  0.870100  0.212800  1.0
  C  C2958  1  0.819900  0.129900  0.787200  1.0
  C  C2959  1  0.666100  0.139600  0.770400  1.0
  C  C2960  1  0.166100  0.860400  0.229600  1.0
  C  C2961  1  0.333900  0.860400  0.229600  1.0
  C  C2962  1  0.833900  0.139600  0.770400  1.0
  C  C2963  1  0.678200  0.162900  0.769100  1.0
  C  C2964  1  0.178200  0.837100  0.230900  1.0
  C  C2965  1  0.321800  0.837100  0.230900  1.0
  C  C2966  1  0.821800  0.162900  0.769100  1.0
  C  C2967  1  0.704300  0.176600  0.784800  1.0
  C  C2968  1  0.204300  0.823400  0.215200  1.0
  C  C2969  1  0.295700  0.823400  0.215200  1.0
  C  C2970  1  0.795700  0.176600  0.784800  1.0
  C  C2971  1  0.707200  0.200300  0.877400  1.0
  C  C2972  1  0.207200  0.799700  0.122600  1.0
  C  C2973  1  0.292800  0.799700  0.122600  1.0
  C  C2974  1  0.792800  0.200300  0.877400  1.0
  C  C2975  1  0.685500  0.215000  0.898800  1.0
  C  C2976  1  0.185500  0.785000  0.101200  1.0
  C  C2977  1  0.314500  0.785000  0.101200  1.0
  C  C2978  1  0.814500  0.215000  0.898800  1.0
  C  C2979  1  0.674100  0.241200  0.903500  1.0
  C  C2980  1  0.174100  0.758800  0.096500  1.0
  C  C2981  1  0.325900  0.758800  0.096500  1.0
  C  C2982  1  0.825900  0.241200  0.903500  1.0
  C  C2983  1  0.684500  0.252800  0.886900  1.0
  C  C2984  1  0.184500  0.747200  0.113100  1.0
  C  C2985  1  0.315500  0.747200  0.113100  1.0
  C  C2986  1  0.815500  0.252800  0.886900  1.0
  C  C2987  1  0.706200  0.238200  0.865600  1.0
  C  C2988  1  0.206200  0.761800  0.134400  1.0
  C  C2989  1  0.293800  0.761800  0.134400  1.0
  C  C2990  1  0.793800  0.238200  0.865600  1.0
  C  C2991  1  0.655900  0.259800  0.927400  1.0
  C  C2992  1  0.155900  0.740200  0.072600  1.0
  C  C2993  1  0.344100  0.740200  0.072600  1.0
  C  C2994  1  0.844100  0.259800  0.927400  1.0
  C  C2995  1  0.643800  0.286800  0.935900  1.0
  C  C2996  1  0.143800  0.713200  0.064100  1.0
  C  C2997  1  0.356200  0.713200  0.064100  1.0
  C  C2998  1  0.856200  0.286800  0.935900  1.0
  C  C2999  1  0.623700  0.299500  0.959000  1.0
  C  C3000  1  0.123700  0.700500  0.041000  1.0
  C  C3001  1  0.376300  0.700500  0.041000  1.0
  C  C3002  1  0.876300  0.299500  0.959000  1.0
  C  C3003  1  0.615800  0.285200  0.973700  1.0
  C  C3004  1  0.115800  0.714800  0.026300  1.0
  C  C3005  1  0.384200  0.714800  0.026300  1.0
  C  C3006  1  0.884200  0.285200  0.973700  1.0
  C  C3007  1  0.628000  0.258200  0.965300  1.0
  C  C3008  1  0.128000  0.741800  0.034700  1.0
  C  C3009  1  0.372000  0.741800  0.034700  1.0
  C  C3010  1  0.872000  0.258200  0.965300  1.0
  C  C3011  1  0.631900  0.199800  0.983600  1.0
  C  C3012  1  0.131900  0.800200  0.016400  1.0
  C  C3013  1  0.368100  0.800200  0.016400  1.0
  C  C3014  1  0.868100  0.199800  0.983600  1.0
  C  C3015  1  0.635300  0.216100  0.970200  1.0
  C  C3016  1  0.135300  0.783900  0.029800  1.0
  C  C3017  1  0.364700  0.783900  0.029800  1.0
  C  C3018  1  0.864700  0.216100  0.970200  1.0
  C  C3019  1  0.620700  0.242600  0.981300  1.0
  C  C3020  1  0.120700  0.757400  0.018700  1.0
  C  C3021  1  0.379300  0.757400  0.018700  1.0
  C  C3022  1  0.879300  0.242600  0.981300  1.0
  C  C3023  1  0.602700  0.252800  0.005800  1.0
  C  C3024  1  0.102700  0.747200  0.994200  1.0
  C  C3025  1  0.397300  0.747200  0.994200  1.0
  C  C3026  1  0.897300  0.252800  0.005800  1.0
  C  C3027  1  0.599300  0.236500  0.019200  1.0
  C  C3028  1  0.099300  0.763500  0.980800  1.0
  C  C3029  1  0.400700  0.763500  0.980800  1.0
  C  C3030  1  0.900700  0.236500  0.019200  1.0
  N  N3031  1  0.356200  0.656200  0.710800  1.0
  N  N3032  1  0.856200  0.343800  0.289200  1.0
  N  N3033  1  0.643800  0.343800  0.289200  1.0
  N  N3034  1  0.143800  0.656200  0.710800  1.0
  N  N3035  1  0.250000  0.651500  0.742200  1.0
  N  N3036  1  0.750000  0.348500  0.257800  1.0
  N  N3037  1  0.355800  0.445100  0.289500  1.0
  N  N3038  1  0.855800  0.554900  0.710500  1.0
  N  N3039  1  0.644200  0.554900  0.710500  1.0
  N  N3040  1  0.144200  0.445100  0.289500  1.0
  N  N3041  1  0.250000  0.409900  0.258000  1.0
  N  N3042  1  0.750000  0.590100  0.742000  1.0
  N  N3043  1  0.385900  0.702700  0.711500  1.0
  N  N3044  1  0.885900  0.297300  0.288500  1.0
  N  N3045  1  0.614100  0.297300  0.288500  1.0
  N  N3046  1  0.114100  0.702700  0.711500  1.0
  N  N3047  1  0.351500  0.802700  0.745400  1.0
  N  N3048  1  0.851500  0.197300  0.254600  1.0
  N  N3049  1  0.648500  0.197300  0.254600  1.0
  N  N3050  1  0.148500  0.802700  0.745400  1.0
  N  N3051  1  0.283200  0.851400  0.712200  1.0
  N  N3052  1  0.783200  0.148600  0.287800  1.0
  N  N3053  1  0.716800  0.148600  0.287800  1.0
  N  N3054  1  0.216800  0.851400  0.712200  1.0
  N  N3055  1  0.281800  0.864200  0.665800  1.0
  N  N3056  1  0.781800  0.135800  0.334200  1.0
  N  N3057  1  0.718200  0.135800  0.334200  1.0
  N  N3058  1  0.218200  0.864200  0.665800  1.0
  N  N3059  1  0.375900  0.846700  0.605500  1.0
  N  N3060  1  0.875900  0.153300  0.394500  1.0
  N  N3061  1  0.624100  0.153300  0.394500  1.0
  N  N3062  1  0.124100  0.846700  0.605500  1.0
  N  N3063  1  0.437600  0.764800  0.530300  1.0
  N  N3064  1  0.937600  0.235200  0.469700  1.0
  N  N3065  1  0.562400  0.235200  0.469700  1.0
  N  N3066  1  0.062400  0.764800  0.530300  1.0
  N  N3067  1  0.468800  0.718400  0.530700  1.0
  N  N3068  1  0.968800  0.281600  0.469300  1.0
  N  N3069  1  0.531200  0.281600  0.469300  1.0
  N  N3070  1  0.031200  0.718400  0.530700  1.0
  N  N3071  1  0.485400  0.691800  0.606500  1.0
  N  N3072  1  0.985400  0.308200  0.393500  1.0
  N  N3073  1  0.514600  0.308200  0.393500  1.0
  N  N3074  1  0.014600  0.691800  0.606500  1.0
  N  N3075  1  0.425200  0.665800  0.668300  1.0
  N  N3076  1  0.925200  0.334200  0.331700  1.0
  N  N3077  1  0.574800  0.334200  0.331700  1.0
  N  N3078  1  0.074800  0.665800  0.668300  1.0
  N  N3079  1  0.394100  0.617100  0.666100  1.0
  N  N3080  1  0.894100  0.382900  0.333900  1.0
  N  N3081  1  0.605900  0.382900  0.333900  1.0
  N  N3082  1  0.105900  0.617100  0.666100  1.0
  N  N3083  1  0.363100  0.515800  0.602300  1.0
  N  N3084  1  0.863100  0.484200  0.397700  1.0
  N  N3085  1  0.636900  0.484200  0.397700  1.0
  N  N3086  1  0.136900  0.515800  0.602300  1.0
  N  N3087  1  0.282600  0.457500  0.530000  1.0
  N  N3088  1  0.782600  0.542500  0.470000  1.0
  N  N3089  1  0.717400  0.542500  0.470000  1.0
  N  N3090  1  0.217400  0.457500  0.530000  1.0
  N  N3091  1  0.282800  0.427800  0.470000  1.0
  N  N3092  1  0.782800  0.572200  0.530000  1.0
  N  N3093  1  0.717200  0.572200  0.530000  1.0
  N  N3094  1  0.217200  0.427800  0.470000  1.0
  N  N3095  1  0.363800  0.414000  0.397800  1.0
  N  N3096  1  0.863800  0.586000  0.602200  1.0
  N  N3097  1  0.636200  0.586000  0.602200  1.0
  N  N3098  1  0.136200  0.414000  0.397800  1.0
  N  N3099  1  0.394300  0.451300  0.334100  1.0
  N  N3100  1  0.894300  0.548700  0.665900  1.0
  N  N3101  1  0.605700  0.548700  0.665900  1.0
  N  N3102  1  0.105700  0.451300  0.334100  1.0
  N  N3103  1  0.425100  0.497000  0.331800  1.0
  N  N3104  1  0.925100  0.503000  0.668200  1.0
  N  N3105  1  0.574900  0.503000  0.668200  1.0
  N  N3106  1  0.074900  0.497000  0.331800  1.0
  N  N3107  1  0.485500  0.586300  0.393900  1.0
  N  N3108  1  0.985500  0.413700  0.606100  1.0
  N  N3109  1  0.514500  0.413700  0.606100  1.0
  N  N3110  1  0.014500  0.586300  0.393900  1.0
  N  N3111  1  0.468500  0.688000  0.469100  1.0
  N  N3112  1  0.968500  0.312000  0.530900  1.0
  N  N3113  1  0.531500  0.312000  0.530900  1.0
  N  N3114  1  0.031500  0.688000  0.469100  1.0
  N  N3115  1  0.436800  0.734600  0.469900  1.0
  N  N3116  1  0.936800  0.265400  0.530100  1.0
  N  N3117  1  0.563200  0.265400  0.530100  1.0
  N  N3118  1  0.063200  0.734600  0.469900  1.0
  N  N3119  1  0.374800  0.740900  0.394400  1.0
  N  N3120  1  0.874800  0.259100  0.605600  1.0
  N  N3121  1  0.625200  0.259100  0.605600  1.0
  N  N3122  1  0.125200  0.740900  0.394400  1.0
  N  N3123  1  0.281400  0.698400  0.333500  1.0
  N  N3124  1  0.781400  0.301600  0.666500  1.0
  N  N3125  1  0.718600  0.301600  0.666500  1.0
  N  N3126  1  0.218600  0.698400  0.333500  1.0
  N  N3127  1  0.282500  0.639200  0.288100  1.0
  N  N3128  1  0.782500  0.360800  0.711900  1.0
  N  N3129  1  0.717500  0.360800  0.711900  1.0
  N  N3130  1  0.217500  0.639200  0.288100  1.0
  N  N3131  1  0.352200  0.556900  0.253900  1.0
  N  N3132  1  0.852200  0.443100  0.746100  1.0
  N  N3133  1  0.647800  0.443100  0.746100  1.0
  N  N3134  1  0.147800  0.556900  0.253900  1.0
  N  N3135  1  0.386700  0.491200  0.288700  1.0
  N  N3136  1  0.886700  0.508800  0.711300  1.0
  N  N3137  1  0.613300  0.508800  0.711300  1.0
  N  N3138  1  0.113300  0.491200  0.288700  1.0
  N  N3139  1  0.356100  0.343800  0.054800  1.0
  N  N3140  1  0.856100  0.656200  0.945200  1.0
  N  N3141  1  0.643900  0.656200  0.945200  1.0
  N  N3142  1  0.143900  0.343800  0.054800  1.0
  N  N3143  1  0.250000  0.348800  0.089900  1.0
  N  N3144  1  0.750000  0.651200  0.910100  1.0
  N  N3145  1  0.356100  0.554700  0.843500  1.0
  N  N3146  1  0.856100  0.445300  0.156500  1.0
  N  N3147  1  0.643900  0.445300  0.156500  1.0
  N  N3148  1  0.143900  0.554700  0.843500  1.0
  N  N3149  1  0.250000  0.590100  0.848700  1.0
  N  N3150  1  0.750000  0.409900  0.151300  1.0
  N  N3151  1  0.436800  0.234800  0.765200  1.0
  N  N3152  1  0.936800  0.765200  0.234800  1.0
  N  N3153  1  0.563200  0.765200  0.234800  1.0
  N  N3154  1  0.063200  0.234800  0.765200  1.0
  N  N3155  1  0.374800  0.153200  0.758200  1.0
  N  N3156  1  0.874800  0.846800  0.241800  1.0
  N  N3157  1  0.625200  0.846800  0.241800  1.0
  N  N3158  1  0.125200  0.153200  0.758200  1.0
  N  N3159  1  0.281400  0.135200  0.801867  1.0
  N  N3160  1  0.781400  0.864800  0.198133  1.0
  N  N3161  1  0.718600  0.864800  0.198133  1.0
  N  N3162  1  0.218600  0.135200  0.801867  1.0
  N  N3163  1  0.282200  0.148900  0.861300  1.0
  N  N3164  1  0.782200  0.851100  0.138700  1.0
  N  N3165  1  0.717800  0.851100  0.138700  1.0
  N  N3166  1  0.217800  0.148900  0.861300  1.0
  N  N3167  1  0.352600  0.197100  0.942500  1.0
  N  N3168  1  0.852600  0.802900  0.057500  1.0
  N  N3169  1  0.647400  0.802900  0.057500  1.0
  N  N3170  1  0.147400  0.197100  0.942500  1.0
  N  N3171  1  0.386400  0.297700  0.008700  1.0
  N  N3172  1  0.886400  0.702300  0.991300  1.0
  N  N3173  1  0.613600  0.702300  0.991300  1.0
  N  N3174  1  0.113600  0.297700  0.008700  1.0
  N  N3175  1  0.425100  0.334000  0.002300  1.0
  N  N3176  1  0.925100  0.666000  0.997700  1.0
  N  N3177  1  0.574900  0.666000  0.997700  1.0
  N  N3178  1  0.074900  0.334000  0.002300  1.0
  N  N3179  1  0.485600  0.308200  0.914200  1.0
  N  N3180  1  0.985600  0.691800  0.085800  1.0
  N  N3181  1  0.514400  0.691800  0.085800  1.0
  N  N3182  1  0.014400  0.308200  0.914200  1.0
  N  N3183  1  0.468200  0.281800  0.812500  1.0
  N  N3184  1  0.968200  0.718200  0.187500  1.0
  N  N3185  1  0.531800  0.718200  0.187500  1.0
  N  N3186  1  0.031800  0.281800  0.812500  1.0
  N  N3187  1  0.394200  0.382900  0.048900  1.0
  N  N3188  1  0.894200  0.617100  0.951100  1.0
  N  N3189  1  0.605800  0.617100  0.951100  1.0
  N  N3190  1  0.105800  0.382900  0.048900  1.0
  N  N3191  1  0.363500  0.483700  0.085800  1.0
  N  N3192  1  0.863500  0.516300  0.914200  1.0
  N  N3193  1  0.636500  0.516300  0.914200  1.0
  N  N3194  1  0.136500  0.483700  0.085800  1.0
  N  N3195  1  0.282200  0.542300  0.072900  1.0
  N  N3196  1  0.782200  0.457700  0.927100  1.0
  N  N3197  1  0.717800  0.457700  0.927100  1.0
  N  N3198  1  0.217800  0.542300  0.072900  1.0
  N  N3199  1  0.282200  0.572700  0.042300  1.0
  N  N3200  1  0.782200  0.427300  0.957700  1.0
  N  N3201  1  0.717800  0.427300  0.957700  1.0
  N  N3202  1  0.217800  0.572700  0.042300  1.0
  N  N3203  1  0.363100  0.586300  0.984600  1.0
  N  N3204  1  0.863100  0.413700  0.015400  1.0
  N  N3205  1  0.636900  0.413700  0.015400  1.0
  N  N3206  1  0.136900  0.586300  0.984600  1.0
  N  N3207  1  0.393900  0.548400  0.882800  1.0
  N  N3208  1  0.893900  0.451600  0.117200  1.0
  N  N3209  1  0.606100  0.451600  0.117200  1.0
  N  N3210  1  0.106100  0.548400  0.882800  1.0
  N  N3211  1  0.424800  0.502900  0.834600  1.0
  N  N3212  1  0.924800  0.497100  0.165400  1.0
  N  N3213  1  0.575200  0.497100  0.165400  1.0
  N  N3214  1  0.075200  0.502900  0.834600  1.0
  N  N3215  1  0.485800  0.413400  0.807500  1.0
  N  N3216  1  0.985800  0.586600  0.192500  1.0
  N  N3217  1  0.514200  0.586600  0.192500  1.0
  N  N3218  1  0.014200  0.413400  0.807500  1.0
  N  N3219  1  0.468900  0.312200  0.781600  1.0
  N  N3220  1  0.968900  0.687800  0.218400  1.0
  N  N3221  1  0.531100  0.687800  0.218400  1.0
  N  N3222  1  0.031100  0.312200  0.781600  1.0
  N  N3223  1  0.435800  0.265400  0.735200  1.0
  N  N3224  1  0.935800  0.734600  0.264800  1.0
  N  N3225  1  0.564200  0.734600  0.264800  1.0
  N  N3226  1  0.064200  0.265400  0.735200  1.0
  N  N3227  1  0.375400  0.259200  0.653700  1.0
  N  N3228  1  0.875400  0.740800  0.346300  1.0
  N  N3229  1  0.624600  0.740800  0.346300  1.0
  N  N3230  1  0.124600  0.259200  0.653700  1.0
  N  N3231  1  0.281900  0.301900  0.634900  1.0
  N  N3232  1  0.781900  0.698100  0.365100  1.0
  N  N3233  1  0.718100  0.698100  0.365100  1.0
  N  N3234  1  0.218100  0.301900  0.634900  1.0
  N  N3235  1  0.282600  0.360400  0.649700  1.0
  N  N3236  1  0.782600  0.639600  0.350300  1.0
  N  N3237  1  0.717400  0.639600  0.350300  1.0
  N  N3238  1  0.217400  0.360400  0.649700  1.0
  N  N3239  1  0.351800  0.442100  0.696800  1.0
  N  N3240  1  0.851800  0.557900  0.303200  1.0
  N  N3241  1  0.648200  0.557900  0.303200  1.0
  N  N3242  1  0.148200  0.442100  0.696800  1.0
  N  N3243  1  0.386700  0.508600  0.797600  1.0
  N  N3244  1  0.886700  0.491400  0.202400  1.0
  N  N3245  1  0.613300  0.491400  0.202400  1.0
  N  N3246  1  0.113300  0.508600  0.797600  1.0
  N  N3247  1  0.644100  0.788800  0.843200  1.0
  N  N3248  1  0.144100  0.211200  0.156800  1.0
  N  N3249  1  0.355900  0.211200  0.156800  1.0
  N  N3250  1  0.855900  0.788800  0.843200  1.0
  N  N3251  1  0.750000  0.758900  0.848700  1.0
  N  N3252  1  0.250000  0.241100  0.151300  1.0
  N  N3253  1  0.644200  0.210600  0.055000  1.0
  N  N3254  1  0.144200  0.789400  0.945000  1.0
  N  N3255  1  0.355800  0.789400  0.945000  1.0
  N  N3256  1  0.855800  0.210600  0.055000  1.0
  N  N3257  1  0.750000  0.241700  0.090100  1.0
  N  N3258  1  0.250000  0.758300  0.909900  1.0
  N  N3259  1  0.613500  0.788800  0.797200  1.0
  N  N3260  1  0.113500  0.211200  0.202800  1.0
  N  N3261  1  0.386500  0.211200  0.202800  1.0
  N  N3262  1  0.886500  0.788800  0.797200  1.0
  N  N3263  1  0.647800  0.754900  0.697500  1.0
  N  N3264  1  0.147800  0.245100  0.302500  1.0
  N  N3265  1  0.352200  0.245100  0.302500  1.0
  N  N3266  1  0.852200  0.754900  0.697500  1.0
  N  N3267  1  0.717700  0.788900  0.649700  1.0
  N  N3268  1  0.217700  0.211100  0.350300  1.0
  N  N3269  1  0.282300  0.211100  0.350300  1.0
  N  N3270  1  0.782300  0.788900  0.649700  1.0
  N  N3271  1  0.718000  0.832900  0.635200  1.0
  N  N3272  1  0.218000  0.167100  0.364800  1.0
  N  N3273  1  0.282000  0.167100  0.364800  1.0
  N  N3274  1  0.782000  0.832900  0.635200  1.0
  N  N3275  1  0.625700  0.894200  0.652600  1.0
  N  N3276  1  0.125700  0.105800  0.347400  1.0
  N  N3277  1  0.374300  0.105800  0.347400  1.0
  N  N3278  1  0.874300  0.894200  0.652600  1.0
  N  N3279  1  0.563900  0.969500  0.735600  1.0
  N  N3280  1  0.063900  0.030500  0.264400  1.0
  N  N3281  1  0.436100  0.030500  0.264400  1.0
  N  N3282  1  0.936100  0.969500  0.735600  1.0
  N  N3283  1  0.531300  0.968700  0.780900  1.0
  N  N3284  1  0.031300  0.031300  0.219100  1.0
  N  N3285  1  0.468700  0.031300  0.219100  1.0
  N  N3286  1  0.968700  0.968700  0.780900  1.0
  N  N3287  1  0.514600  0.893100  0.807600  1.0
  N  N3288  1  0.014600  0.106900  0.192400  1.0
  N  N3289  1  0.485400  0.106900  0.192400  1.0
  N  N3290  1  0.985400  0.893100  0.807600  1.0
  N  N3291  1  0.575000  0.831900  0.834500  1.0
  N  N3292  1  0.075000  0.168100  0.165500  1.0
  N  N3293  1  0.425000  0.168100  0.165500  1.0
  N  N3294  1  0.925000  0.831900  0.834500  1.0
  N  N3295  1  0.606300  0.834800  0.883000  1.0
  N  N3296  1  0.106300  0.165200  0.117000  1.0
  N  N3297  1  0.393700  0.165200  0.117000  1.0
  N  N3298  1  0.893700  0.834800  0.883000  1.0
  N  N3299  1  0.636300  0.897600  0.983600  1.0
  N  N3300  1  0.136300  0.102400  0.016400  1.0
  N  N3301  1  0.363700  0.102400  0.016400  1.0
  N  N3302  1  0.863700  0.897600  0.983600  1.0
  N  N3303  1  0.718200  0.969400  0.042400  1.0
  N  N3304  1  0.218200  0.030600  0.957600  1.0
  N  N3305  1  0.281800  0.030600  0.957600  1.0
  N  N3306  1  0.781800  0.969400  0.042400  1.0
  N  N3307  1  0.717600  0.030000  0.072700  1.0
  N  N3308  1  0.217600  0.970000  0.927300  1.0
  N  N3309  1  0.282400  0.970000  0.927300  1.0
  N  N3310  1  0.782400  0.030000  0.072700  1.0
  N  N3311  1  0.636500  0.102300  0.085900  1.0
  N  N3312  1  0.136500  0.897700  0.914100  1.0
  N  N3313  1  0.363500  0.897700  0.914100  1.0
  N  N3314  1  0.863500  0.102300  0.085900  1.0
  N  N3315  1  0.605800  0.165600  0.048700  1.0
  N  N3316  1  0.105800  0.834400  0.951300  1.0
  N  N3317  1  0.394200  0.834400  0.951300  1.0
  N  N3318  1  0.894200  0.165600  0.048700  1.0
  N  N3319  1  0.574800  0.168800  0.002400  1.0
  N  N3320  1  0.074800  0.831200  0.997600  1.0
  N  N3321  1  0.425200  0.831200  0.997600  1.0
  N  N3322  1  0.925200  0.168800  0.002400  1.0
  N  N3323  1  0.513900  0.105800  0.914300  1.0
  N  N3324  1  0.013900  0.894200  0.085700  1.0
  N  N3325  1  0.486100  0.894200  0.085700  1.0
  N  N3326  1  0.986100  0.105800  0.914300  1.0
  N  N3327  1  0.531800  0.030900  0.812100  1.0
  N  N3328  1  0.031800  0.969100  0.187900  1.0
  N  N3329  1  0.468200  0.969100  0.187900  1.0
  N  N3330  1  0.968200  0.030900  0.812100  1.0
  N  N3331  1  0.563700  0.030200  0.764900  1.0
  N  N3332  1  0.063700  0.969800  0.235100  1.0
  N  N3333  1  0.436300  0.969800  0.235100  1.0
  N  N3334  1  0.936300  0.030200  0.764900  1.0
  N  N3335  1  0.625700  0.105700  0.758500  1.0
  N  N3336  1  0.125700  0.894300  0.241500  1.0
  N  N3337  1  0.374300  0.894300  0.241500  1.0
  N  N3338  1  0.874300  0.105700  0.758500  1.0
  N  N3339  1  0.718300  0.166900  0.801700  1.0
  N  N3340  1  0.218300  0.833100  0.198300  1.0
  N  N3341  1  0.281700  0.833100  0.198300  1.0
  N  N3342  1  0.781700  0.166900  0.801700  1.0
  N  N3343  1  0.717600  0.212000  0.860900  1.0
  N  N3344  1  0.217600  0.788000  0.139100  1.0
  N  N3345  1  0.282400  0.788000  0.139100  1.0
  N  N3346  1  0.782400  0.212000  0.860900  1.0
  N  N3347  1  0.648100  0.245500  0.942200  1.0
  N  N3348  1  0.148100  0.754500  0.057800  1.0
  N  N3349  1  0.351900  0.754500  0.057800  1.0
  N  N3350  1  0.851900  0.245500  0.942200  1.0
  N  N3351  1  0.613900  0.210100  0.008200  1.0
  N  N3352  1  0.113900  0.789900  0.991800  1.0
  N  N3353  1  0.386100  0.789900  0.991800  1.0
  N  N3354  1  0.886100  0.210100  0.008200  1.0
  F  F3355  1  0.333500  0.357000  0.950400  0.45
  F  F3356  1  0.833500  0.643000  0.049600  0.45
  F  F3357  1  0.666500  0.643000  0.049600  0.45
  F  F3358  1  0.166500  0.357000  0.950400  0.45
  F  F3359  1  0.293100  0.353000  0.974000  0.45
  F  F3360  1  0.793100  0.647000  0.026000  0.45
  F  F3361  1  0.706900  0.647000  0.026000  0.45
  F  F3362  1  0.206900  0.353000  0.974000  0.45
  F  F3363  1  0.314000  0.312600  0.939000  0.45
  F  F3364  1  0.814000  0.687400  0.061000  0.45
  F  F3365  1  0.686000  0.687400  0.061000  0.45
  F  F3366  1  0.186000  0.312600  0.939000  0.45
  F  F3367  1  0.335400  0.333000  0.935100  0.45
  F  F3368  1  0.835400  0.667000  0.064900  0.45
  F  F3369  1  0.664600  0.667000  0.064900  0.45
  F  F3370  1  0.164600  0.333000  0.935100  0.45
  F  F3371  1  0.307000  0.367500  0.972200  0.45
  F  F3372  1  0.807000  0.632500  0.027800  0.45
  F  F3373  1  0.693000  0.632500  0.027800  0.45
  F  F3374  1  0.193000  0.367500  0.972200  0.45
  F  F3375  1  0.298200  0.320000  0.956500  0.45
  F  F3376  1  0.798200  0.680000  0.043500  0.45
  F  F3377  1  0.701800  0.680000  0.043500  0.45
  F  F3378  1  0.201800  0.320000  0.956500  0.45
  F  F3379  1  0.341000  0.339400  0.980700  0.9
  F  F3380  1  0.841000  0.660600  0.019300  0.9
  F  F3381  1  0.659000  0.660600  0.019300  0.9
  F  F3382  1  0.159000  0.339400  0.980700  0.9
  F  F3383  1  0.429800  0.661500  0.729500  1.0
  F  F3384  1  0.929800  0.338500  0.270500  1.0
  F  F3385  1  0.570200  0.338500  0.270500  1.0
  F  F3386  1  0.070200  0.661500  0.729500  1.0
  F  F3387  1  0.514500  0.751400  0.499400  1.0
  F  F3388  1  0.014500  0.248600  0.500600  1.0
  F  F3389  1  0.485500  0.248600  0.500600  1.0
  F  F3390  1  0.985500  0.751400  0.499400  1.0
  F  F3391  1  0.515100  0.248200  0.747600  1.0
  F  F3392  1  0.015100  0.751800  0.252400  1.0
  F  F3393  1  0.484900  0.751800  0.252400  1.0
  F  F3394  1  0.984900  0.248200  0.747600  1.0
  F  F3395  1  0.430100  0.339000  0.068400  1.0
  F  F3396  1  0.930100  0.661000  0.931600  1.0
  F  F3397  1  0.569900  0.661000  0.931600  1.0
  F  F3398  1  0.069900  0.339000  0.068400  1.0
  F  F3399  1  0.430300  0.568200  0.839100  1.0
  F  F3400  1  0.930300  0.431800  0.160900  1.0
  F  F3401  1  0.569700  0.431800  0.160900  1.0
  F  F3402  1  0.069700  0.568200  0.839100  1.0
  F  F3403  1  0.569500  0.228600  0.066800  1.0
  F  F3404  1  0.069500  0.771400  0.933200  1.0
  F  F3405  1  0.430500  0.771400  0.933200  1.0
  F  F3406  1  0.930500  0.228600  0.066800  1.0
  F  F3407  1  0.570400  0.771000  0.838500  1.0
  F  F3408  1  0.070400  0.229000  0.161500  1.0
  F  F3409  1  0.429600  0.229000  0.161500  1.0
  F  F3410  1  0.929600  0.771000  0.838500  1.0
  F  F3411  1  0.265200  0.729400  0.276000  0.2
  F  F3412  1  0.765200  0.270600  0.724000  0.2
  F  F3413  1  0.734800  0.270600  0.724000  0.2
  F  F3414  1  0.234800  0.729400  0.276000  0.2
  F  F3415  1  0.219400  0.711000  0.253000  0.2
  F  F3416  1  0.719400  0.289000  0.747000  0.2
  F  F3417  1  0.780600  0.289000  0.747000  0.2
  F  F3418  1  0.280600  0.711000  0.253000  0.2
  F  F3419  1  0.264100  0.694600  0.228800  0.2
  F  F3420  1  0.764100  0.305400  0.771200  0.2
  F  F3421  1  0.735900  0.305400  0.771200  0.2
  F  F3422  1  0.235900  0.694600  0.228800  0.2
  F  F3423  1  0.280500  0.628300  0.379200  0.3
  F  F3424  1  0.780500  0.371700  0.620800  0.3
  F  F3425  1  0.719500  0.371700  0.620800  0.3
  F  F3426  1  0.219500  0.628300  0.379200  0.3
  F  F3427  1  0.235100  0.606300  0.358200  0.3
  F  F3428  1  0.735100  0.393700  0.641800  0.3
  F  F3429  1  0.764900  0.393700  0.641800  0.3
  F  F3430  1  0.264900  0.606300  0.358200  0.3
  F  F3431  1  0.234200  0.649100  0.400300  0.3
  F  F3432  1  0.734200  0.350900  0.599700  0.3
  F  F3433  1  0.765800  0.350900  0.599700  0.3
  F  F3434  1  0.265800  0.649100  0.400300  0.3
  F  F3435  1  0.260800  0.506700  0.461100  0.3
  F  F3436  1  0.760800  0.493300  0.538900  0.3
  F  F3437  1  0.739200  0.493300  0.538900  0.3
  F  F3438  1  0.239200  0.506700  0.461100  0.3
  F  F3439  1  0.267000  0.546600  0.507100  0.3
  F  F3440  1  0.767000  0.453400  0.492900  0.3
  F  F3441  1  0.733000  0.453400  0.492900  0.3
  F  F3442  1  0.233000  0.546600  0.507100  0.3
  F  F3443  1  0.219600  0.531000  0.489800  0.3
  F  F3444  1  0.719600  0.469000  0.510200  0.3
  F  F3445  1  0.780400  0.469000  0.510200  0.3
  F  F3446  1  0.280400  0.531000  0.489800  0.3
  F  F3447  1  0.236000  0.745900  0.600800  0.3
  F  F3448  1  0.736000  0.254100  0.399200  0.3
  F  F3449  1  0.764000  0.254100  0.399200  0.3
  F  F3450  1  0.264000  0.745900  0.600800  0.3
  F  F3451  1  0.280600  0.749000  0.625000  0.3
  F  F3452  1  0.780600  0.251000  0.375000  0.3
  F  F3453  1  0.719400  0.251000  0.375000  0.3
  F  F3454  1  0.219400  0.749000  0.625000  0.3
  F  F3455  1  0.234500  0.750300  0.645600  0.3
  F  F3456  1  0.734500  0.249700  0.354400  0.3
  F  F3457  1  0.765500  0.249700  0.354400  0.3
  F  F3458  1  0.265500  0.750300  0.645600  0.3
  F  F3459  1  0.263100  0.962700  0.764700  0.3
  F  F3460  1  0.763100  0.037300  0.235300  0.3
  F  F3461  1  0.736900  0.037300  0.235300  0.3
  F  F3462  1  0.236900  0.962700  0.764700  0.3
  F  F3463  1  0.220100  0.949600  0.737300  0.3
  F  F3464  1  0.720100  0.050400  0.262700  0.3
  F  F3465  1  0.779900  0.050400  0.262700  0.3
  F  F3466  1  0.279900  0.949600  0.737300  0.3
  F  F3467  1  0.268200  0.938000  0.715600  0.3
  F  F3468  1  0.768200  0.062000  0.284400  0.3
  F  F3469  1  0.731800  0.062000  0.284400  0.3
  F  F3470  1  0.231800  0.938000  0.715600  0.3
  F  F3471  1  0.232500  0.391600  0.753000  0.3
  F  F3472  1  0.732500  0.608400  0.247000  0.3
  F  F3473  1  0.767500  0.608400  0.247000  0.3
  F  F3474  1  0.267500  0.391600  0.753000  0.3
  F  F3475  1  0.235800  0.347900  0.750100  0.3
  F  F3476  1  0.735800  0.652100  0.249900  0.3
  F  F3477  1  0.764200  0.652100  0.249900  0.3
  F  F3478  1  0.264200  0.347900  0.750100  0.3
  F  F3479  1  0.280100  0.372300  0.752200  0.3
  F  F3480  1  0.780100  0.627700  0.247800  0.3
  F  F3481  1  0.719900  0.627700  0.247800  0.3
  F  F3482  1  0.219900  0.372300  0.752200  0.3
  F  F3483  1  0.236000  0.311100  0.532400  0.3
  F  F3484  1  0.736000  0.688900  0.467600  0.3
  F  F3485  1  0.764000  0.688900  0.467600  0.3
  F  F3486  1  0.264000  0.311100  0.532400  0.3
  F  F3487  1  0.233100  0.272300  0.538300  0.3
  F  F3488  1  0.733100  0.727700  0.461700  0.3
  F  F3489  1  0.766900  0.727700  0.461700  0.3
  F  F3490  1  0.266900  0.272300  0.538300  0.3
  F  F3491  1  0.280100  0.290500  0.535500  0.3
  F  F3492  1  0.780100  0.709500  0.464500  0.3
  F  F3493  1  0.719900  0.709500  0.464500  0.3
  F  F3494  1  0.219900  0.290500  0.535500  0.3
  F  F3495  1  0.345700  0.295000  0.782000  0.3
  F  F3496  1  0.845700  0.705000  0.218000  0.3
  F  F3497  1  0.654300  0.705000  0.218000  0.3
  F  F3498  1  0.154300  0.295000  0.782000  0.3
  F  F3499  1  0.354000  0.293000  0.822200  0.3
  F  F3500  1  0.854000  0.707000  0.177800  0.3
  F  F3501  1  0.646000  0.707000  0.177800  0.3
  F  F3502  1  0.146000  0.293000  0.822200  0.3
  F  F3503  1  0.360300  0.336500  0.825500  0.3
  F  F3504  1  0.860300  0.663500  0.174500  0.3
  F  F3505  1  0.639700  0.663500  0.174500  0.3
  F  F3506  1  0.139700  0.336500  0.825500  0.3
  F  F3507  1  0.344100  0.283000  0.792000  0.3
  F  F3508  1  0.844100  0.717000  0.208000  0.3
  F  F3509  1  0.655900  0.717000  0.208000  0.3
  F  F3510  1  0.155900  0.283000  0.792000  0.3
  F  F3511  1  0.357500  0.324000  0.836000  0.3
  F  F3512  1  0.857500  0.676000  0.164000  0.3
  F  F3513  1  0.642500  0.676000  0.164000  0.3
  F  F3514  1  0.142500  0.324000  0.836000  0.3
  F  F3515  1  0.359000  0.325000  0.794200  0.3
  F  F3516  1  0.859000  0.675000  0.205800  0.3
  F  F3517  1  0.641000  0.675000  0.205800  0.3
  F  F3518  1  0.141000  0.325000  0.794200  0.3
  F  F3519  1  0.235400  0.254000  0.853900  0.3
  F  F3520  1  0.735400  0.746000  0.146100  0.3
  F  F3521  1  0.764600  0.746000  0.146100  0.3
  F  F3522  1  0.264600  0.254000  0.853900  0.3
  F  F3523  1  0.234500  0.250800  0.895200  0.3
  F  F3524  1  0.734500  0.749200  0.104800  0.3
  F  F3525  1  0.765500  0.749200  0.104800  0.3
  F  F3526  1  0.265500  0.250800  0.895200  0.3
  F  F3527  1  0.280200  0.252800  0.875800  0.3
  F  F3528  1  0.780200  0.747200  0.124200  0.3
  F  F3529  1  0.719800  0.747200  0.124200  0.3
  F  F3530  1  0.219800  0.252800  0.875800  0.3
  F  F3531  1  0.280000  0.039400  0.788400  0.3
  F  F3532  1  0.780000  0.960600  0.211600  0.3
  F  F3533  1  0.720000  0.960600  0.211600  0.3
  F  F3534  1  0.220000  0.039400  0.788400  0.3
  F  F3535  1  0.231600  0.044000  0.773000  0.3
  F  F3536  1  0.731600  0.956000  0.227000  0.3
  F  F3537  1  0.768400  0.956000  0.227000  0.3
  F  F3538  1  0.268400  0.044000  0.773000  0.3
  F  F3539  1  0.237300  0.032900  0.808600  0.3
  F  F3540  1  0.737300  0.967100  0.191400  0.3
  F  F3541  1  0.762700  0.967100  0.191400  0.3
  F  F3542  1  0.262700  0.032900  0.808600  0.3
  F  F3543  1  0.263800  0.456600  0.996900  0.3
  F  F3544  1  0.763800  0.543400  0.003100  0.3
  F  F3545  1  0.736200  0.543400  0.003100  0.3
  F  F3546  1  0.236200  0.456600  0.996900  0.3
  F  F3547  1  0.220100  0.457400  0.973400  0.3
  F  F3548  1  0.720100  0.542600  0.026600  0.3
  F  F3549  1  0.779900  0.542600  0.026600  0.3
  F  F3550  1  0.279900  0.457400  0.973400  0.3
  F  F3551  1  0.268100  0.460100  0.956100  0.3
  F  F3552  1  0.768100  0.539900  0.043900  0.3
  F  F3553  1  0.731900  0.539900  0.043900  0.3
  F  F3554  1  0.231900  0.460100  0.956100  0.3
  F  F3555  1  0.765400  0.144400  0.894300  0.3
  F  F3556  1  0.265400  0.855600  0.105700  0.3
  F  F3557  1  0.234600  0.855600  0.105700  0.3
  F  F3558  1  0.734600  0.144400  0.894300  0.3
  F  F3559  1  0.765500  0.101400  0.852300  0.3
  F  F3560  1  0.265500  0.898600  0.147700  0.3
  F  F3561  1  0.234500  0.898600  0.147700  0.3
  F  F3562  1  0.734500  0.101400  0.852300  0.3
  F  F3563  1  0.719500  0.123000  0.873100  0.3
  F  F3564  1  0.219500  0.877000  0.126900  0.3
  F  F3565  1  0.280500  0.877000  0.126900  0.3
  F  F3566  1  0.780500  0.123000  0.873100  0.3
  F  F3567  1  0.780000  0.246000  0.785300  0.3
  F  F3568  1  0.280000  0.754000  0.214700  0.3
  F  F3569  1  0.220000  0.754000  0.214700  0.3
  F  F3570  1  0.720000  0.246000  0.785300  0.3
  F  F3571  1  0.737600  0.273800  0.805200  0.3
  F  F3572  1  0.237600  0.726200  0.194800  0.3
  F  F3573  1  0.262400  0.726200  0.194800  0.3
  F  F3574  1  0.762400  0.273800  0.805200  0.3
  F  F3575  1  0.731600  0.227000  0.771000  0.3
  F  F3576  1  0.231600  0.773000  0.229000  0.3
  F  F3577  1  0.268400  0.773000  0.229000  0.3
  F  F3578  1  0.768400  0.227000  0.771000  0.3
  F  F3579  1  0.719700  0.875400  0.752400  0.3
  F  F3580  1  0.219700  0.124600  0.247600  0.3
  F  F3581  1  0.280300  0.124600  0.247600  0.3
  F  F3582  1  0.780300  0.875400  0.752400  0.3
  F  F3583  1  0.762900  0.901100  0.755100  0.3
  F  F3584  1  0.262900  0.098900  0.244900  0.3
  F  F3585  1  0.237100  0.098900  0.244900  0.3
  F  F3586  1  0.737100  0.901100  0.755100  0.3
  F  F3587  1  0.767200  0.856500  0.750900  0.3
  F  F3588  1  0.267200  0.143500  0.249100  0.3
  F  F3589  1  0.232800  0.143500  0.249100  0.3
  F  F3590  1  0.732800  0.856500  0.750900  0.3
  F  F3591  1  0.735200  0.727500  0.531400  0.3
  F  F3592  1  0.235200  0.272500  0.468600  0.3
  F  F3593  1  0.264800  0.272500  0.468600  0.3
  F  F3594  1  0.764800  0.727500  0.531400  0.3
  F  F3595  1  0.779900  0.752000  0.538500  0.3
  F  F3596  1  0.279900  0.248000  0.461500  0.3
  F  F3597  1  0.220100  0.248000  0.461500  0.3
  F  F3598  1  0.720100  0.752000  0.538500  0.3
  F  F3599  1  0.733300  0.774900  0.545600  0.3
  F  F3600  1  0.233300  0.225100  0.454400  0.3
  F  F3601  1  0.266700  0.225100  0.454400  0.3
  F  F3602  1  0.766700  0.774900  0.545600  0.3
  F  F3603  1  0.654600  0.986000  0.783000  0.3
  F  F3604  1  0.154600  0.014000  0.217000  0.3
  F  F3605  1  0.345400  0.014000  0.217000  0.3
  F  F3606  1  0.845400  0.986000  0.783000  0.3
  F  F3607  1  0.642000  0.987000  0.825500  0.3
  F  F3608  1  0.142000  0.013000  0.174500  0.3
  F  F3609  1  0.358000  0.013000  0.174500  0.3
  F  F3610  1  0.858000  0.987000  0.825500  0.3
  F  F3611  1  0.647100  0.028200  0.824200  0.3
  F  F3612  1  0.147100  0.971800  0.175800  0.3
  F  F3613  1  0.352900  0.971800  0.175800  0.3
  F  F3614  1  0.852900  0.028200  0.824200  0.3
  F  F3615  1  0.642000  0.968400  0.795400  0.3
  F  F3616  1  0.142000  0.031600  0.204600  0.3
  F  F3617  1  0.358000  0.031600  0.204600  0.3
  F  F3618  1  0.858000  0.968400  0.795400  0.3
  F  F3619  1  0.644500  0.011000  0.837000  0.3
  F  F3620  1  0.144500  0.989000  0.163000  0.3
  F  F3621  1  0.355500  0.989000  0.163000  0.3
  F  F3622  1  0.855500  0.011000  0.837000  0.3
  F  F3623  1  0.656000  0.008000  0.792500  0.3
  F  F3624  1  0.156000  0.992000  0.207500  0.3
  F  F3625  1  0.344000  0.992000  0.207500  0.3
  F  F3626  1  0.844000  0.008000  0.792500  0.3
  F  F3627  1  0.470400  0.668300  0.834800  0.3
  F  F3628  1  0.970400  0.331700  0.165200  0.3
  F  F3629  1  0.529600  0.331700  0.165200  0.3
  F  F3630  1  0.029600  0.668300  0.834800  0.3
  F  F3631  1  0.511600  0.669100  0.809800  0.3
  F  F3632  1  0.011600  0.330900  0.190200  0.3
  F  F3633  1  0.488400  0.330900  0.190200  0.3
  F  F3634  1  0.988400  0.669100  0.809800  0.3
  F  F3635  1  0.514100  0.689800  0.858700  0.3
  F  F3636  1  0.014100  0.310200  0.141300  0.3
  F  F3637  1  0.485900  0.310200  0.141300  0.3
  F  F3638  1  0.985900  0.689800  0.858700  0.3
  F  F3639  1  0.511200  0.640600  0.830400  0.3
  F  F3640  1  0.011200  0.359400  0.169600  0.3
  F  F3641  1  0.488800  0.359400  0.169600  0.3
  F  F3642  1  0.988800  0.640600  0.830400  0.3
  F  F3643  1  0.649400  0.065000  0.203400  0.3
  F  F3644  1  0.149400  0.935000  0.796600  0.3
  F  F3645  1  0.350600  0.935000  0.796600  0.3
  F  F3646  1  0.850600  0.065000  0.203400  0.3
  F  F3647  1  0.642800  0.040000  0.154200  0.3
  F  F3648  1  0.142800  0.960000  0.845800  0.3
  F  F3649  1  0.357200  0.960000  0.845800  0.3
  F  F3650  1  0.857200  0.040000  0.154200  0.3
  F  F3651  1  0.665600  0.084300  0.177600  0.3
  F  F3652  1  0.165600  0.915700  0.822400  0.3
  F  F3653  1  0.334400  0.915700  0.822400  0.3
  F  F3654  1  0.834400  0.084300  0.177600  0.3
  F  F3655  1  0.613400  0.078600  0.180500  0.3
  F  F3656  1  0.113400  0.921400  0.819500  0.3
  F  F3657  1  0.386600  0.921400  0.819500  0.3
  F  F3658  1  0.886600  0.078600  0.180500  0.3
  F  F3659  1  0.652100  0.937100  0.140200  0.3
  F  F3660  1  0.152100  0.062900  0.859800  0.3
  F  F3661  1  0.347900  0.062900  0.859800  0.3
  F  F3662  1  0.847900  0.937100  0.140200  0.3
  F  F3663  1  0.641200  0.959700  0.114700  0.3
  F  F3664  1  0.141200  0.040300  0.885300  0.3
  F  F3665  1  0.358800  0.040300  0.885300  0.3
  F  F3666  1  0.858800  0.959700  0.114700  0.3
  F  F3667  1  0.613800  0.920500  0.105600  0.3
  F  F3668  1  0.113800  0.079500  0.894400  0.3
  F  F3669  1  0.386200  0.079500  0.894400  0.3
  F  F3670  1  0.886200  0.920500  0.105600  0.3
  F  F3671  1  0.664800  0.916100  0.093800  0.3
  F  F3672  1  0.164800  0.083900  0.906200  0.3
  F  F3673  1  0.335200  0.083900  0.906200  0.3
  F  F3674  1  0.835200  0.916100  0.093800  0.3
  F  F3675  1  0.349900  0.639100  0.204700  0.3
  F  F3676  1  0.849900  0.360900  0.795300  0.3
  F  F3677  1  0.650100  0.360900  0.795300  0.3
  F  F3678  1  0.150100  0.639100  0.204700  0.3
  F  F3679  1  0.334800  0.593400  0.177000  0.3
  F  F3680  1  0.834800  0.406600  0.823000  0.3
  F  F3681  1  0.665200  0.406600  0.823000  0.3
  F  F3682  1  0.165200  0.593400  0.177000  0.3
  F  F3683  1  0.360100  0.615100  0.156000  0.3
  F  F3684  1  0.860100  0.384900  0.844000  0.3
  F  F3685  1  0.639900  0.384900  0.844000  0.3
  F  F3686  1  0.139900  0.615100  0.156000  0.3
  F  F3687  1  0.386300  0.602700  0.184300  0.3
  F  F3688  1  0.886300  0.397300  0.815700  0.3
  F  F3689  1  0.613700  0.397300  0.815700  0.3
  F  F3690  1  0.113700  0.602700  0.184300  0.3
  F  F3691  1  0.347100  0.704700  0.137600  0.3
  F  F3692  1  0.847100  0.295300  0.862400  0.3
  F  F3693  1  0.652900  0.295300  0.862400  0.3
  F  F3694  1  0.152900  0.704700  0.137600  0.3
  F  F3695  1  0.334700  0.675800  0.091800  0.3
  F  F3696  1  0.834700  0.324200  0.908200  0.3
  F  F3697  1  0.665300  0.324200  0.908200  0.3
  F  F3698  1  0.165300  0.675800  0.091800  0.3
  F  F3699  1  0.359000  0.656900  0.116300  0.3
  F  F3700  1  0.859000  0.343100  0.883700  0.3
  F  F3701  1  0.641000  0.343100  0.883700  0.3
  F  F3702  1  0.141000  0.656900  0.116300  0.3
  F  F3703  1  0.385600  0.684800  0.103500  0.3
  F  F3704  1  0.885600  0.315200  0.896500  0.3
  F  F3705  1  0.614400  0.315200  0.896500  0.3
  F  F3706  1  0.114400  0.684800  0.103500  0.3
  F  F3707  1  0.355700  0.298600  0.437800  0.3
  F  F3708  1  0.855700  0.701400  0.562200  0.3
  F  F3709  1  0.644300  0.701400  0.562200  0.3
  F  F3710  1  0.144300  0.298600  0.437800  0.3
  F  F3711  1  0.333800  0.321900  0.417900  0.3
  F  F3712  1  0.833800  0.678100  0.582100  0.3
  F  F3713  1  0.666200  0.678100  0.582100  0.3
  F  F3714  1  0.166200  0.321900  0.417900  0.3
  F  F3715  1  0.386500  0.318500  0.417400  0.3
  F  F3716  1  0.886500  0.681500  0.582600  0.3
  F  F3717  1  0.613500  0.681500  0.582600  0.3
  F  F3718  1  0.113500  0.318500  0.417400  0.3
  F  F3719  1  0.362300  0.347600  0.459000  0.3
  F  F3720  1  0.862300  0.652400  0.541000  0.3
  F  F3721  1  0.637700  0.652400  0.541000  0.3
  F  F3722  1  0.137700  0.347600  0.459000  0.3
  F  F3723  1  0.353300  0.361000  0.561900  0.3
  F  F3724  1  0.853300  0.639000  0.438100  0.3
  F  F3725  1  0.646700  0.639000  0.438100  0.3
  F  F3726  1  0.146700  0.361000  0.561900  0.3
  F  F3727  1  0.335400  0.406100  0.583200  0.3
  F  F3728  1  0.835400  0.593900  0.416800  0.3
  F  F3729  1  0.664600  0.593900  0.416800  0.3
  F  F3730  1  0.164600  0.406100  0.583200  0.3
  F  F3731  1  0.362800  0.389100  0.541500  0.3
  F  F3732  1  0.862800  0.610900  0.458500  0.3
  F  F3733  1  0.637200  0.610900  0.458500  0.3
  F  F3734  1  0.137200  0.389100  0.541500  0.3
  F  F3735  1  0.387400  0.398100  0.582100  0.3
  F  F3736  1  0.887400  0.601900  0.417900  0.3
  F  F3737  1  0.612600  0.601900  0.417900  0.3
  F  F3738  1  0.112600  0.398100  0.582100  0.3
  F  F3739  1  0.250000  0.683500  0.263300  0.4
  F  F3740  1  0.750000  0.316500  0.736700  0.4
  F  F3741  1  0.336300  0.564900  0.397900  0.4
  F  F3742  1  0.836300  0.435100  0.602100  0.4
  F  F3743  1  0.663700  0.435100  0.602100  0.4
  F  F3744  1  0.163700  0.564900  0.397900  0.4
  F  F3745  1  0.309000  0.528600  0.397000  0.4
  F  F3746  1  0.809000  0.471400  0.603000  0.4
  F  F3747  1  0.691000  0.471400  0.603000  0.4
  F  F3748  1  0.191000  0.528600  0.397000  0.4
  F  F3749  1  0.298300  0.544000  0.365000  0.4
  F  F3750  1  0.798300  0.456000  0.635000  0.4
  F  F3751  1  0.701700  0.456000  0.635000  0.4
  F  F3752  1  0.201700  0.544000  0.365000  0.4
  F  F3753  1  0.315000  0.561300  0.374400  0.4
  F  F3754  1  0.815000  0.438700  0.625600  0.4
  F  F3755  1  0.685000  0.438700  0.625600  0.4
  F  F3756  1  0.185000  0.561300  0.374400  0.4
  F  F3757  1  0.334700  0.550000  0.407000  0.4
  F  F3758  1  0.834700  0.450000  0.593000  0.4
  F  F3759  1  0.665300  0.450000  0.593000  0.4
  F  F3760  1  0.165300  0.550000  0.407000  0.4
  F  F3761  1  0.293500  0.526400  0.380400  0.4
  F  F3762  1  0.793500  0.473600  0.619600  0.4
  F  F3763  1  0.706500  0.473600  0.619600  0.4
  F  F3764  1  0.206500  0.526400  0.380400  0.4
  F  F3765  1  0.450500  0.406500  0.237200  0.4
  F  F3766  1  0.950500  0.593500  0.762800  0.4
  F  F3767  1  0.549500  0.593500  0.762800  0.4
  F  F3768  1  0.049500  0.406500  0.237200  0.4
  F  F3769  1  0.478600  0.447400  0.268800  0.4
  F  F3770  1  0.978600  0.552600  0.731200  0.4
  F  F3771  1  0.521400  0.552600  0.731200  0.4
  F  F3772  1  0.021400  0.447400  0.268800  0.4
  F  F3773  1  0.473400  0.404700  0.270800  0.4
  F  F3774  1  0.973400  0.595300  0.729200  0.4
  F  F3775  1  0.526600  0.595300  0.729200  0.4
  F  F3776  1  0.026600  0.404700  0.270800  0.4
  F  F3777  1  0.450200  0.397200  0.245000  0.4
  F  F3778  1  0.950200  0.602800  0.755000  0.4
  F  F3779  1  0.549800  0.602800  0.755000  0.4
  F  F3780  1  0.049800  0.397200  0.245000  0.4
  F  F3781  1  0.474600  0.432500  0.246000  0.4
  F  F3782  1  0.974600  0.567500  0.754000  0.4
  F  F3783  1  0.525400  0.567500  0.754000  0.4
  F  F3784  1  0.025400  0.432500  0.246000  0.4
  F  F3785  1  0.477500  0.427400  0.287100  0.4
  F  F3786  1  0.977500  0.572600  0.712900  0.4
  F  F3787  1  0.522500  0.572600  0.712900  0.4
  F  F3788  1  0.022500  0.427400  0.287100  0.4
  F  F3789  1  0.235800  0.344500  0.482900  0.4
  F  F3790  1  0.735800  0.655500  0.517100  0.4
  F  F3791  1  0.764200  0.655500  0.517100  0.4
  F  F3792  1  0.264200  0.344500  0.482900  0.4
  F  F3793  1  0.237000  0.373600  0.533200  0.4
  F  F3794  1  0.737000  0.626400  0.466800  0.4
  F  F3795  1  0.763000  0.626400  0.466800  0.4
  F  F3796  1  0.263000  0.373600  0.533200  0.4
  F  F3797  1  0.280700  0.358700  0.507100  0.4
  F  F3798  1  0.780700  0.641300  0.492900  0.4
  F  F3799  1  0.719300  0.641300  0.492900  0.4
  F  F3800  1  0.219300  0.358700  0.507100  0.4
  F  F3801  1  0.311000  0.633000  0.602000  0.4
  F  F3802  1  0.811000  0.367000  0.398000  0.4
  F  F3803  1  0.689000  0.367000  0.398000  0.4
  F  F3804  1  0.189000  0.633000  0.602000  0.4
  F  F3805  1  0.333100  0.674000  0.607400  0.4
  F  F3806  1  0.833100  0.326000  0.392600  0.4
  F  F3807  1  0.666900  0.326000  0.392600  0.4
  F  F3808  1  0.166900  0.674000  0.607400  0.4
  F  F3809  1  0.296100  0.677000  0.639000  0.4
  F  F3810  1  0.796100  0.323000  0.361000  0.4
  F  F3811  1  0.703900  0.323000  0.361000  0.4
  F  F3812  1  0.203900  0.677000  0.639000  0.4
  F  F3813  1  0.333333  0.648000  0.594000  0.4
  F  F3814  1  0.833333  0.352000  0.406000  0.4
  F  F3815  1  0.666667  0.352000  0.406000  0.4
  F  F3816  1  0.166667  0.648000  0.594000  0.4
  F  F3817  1  0.313000  0.689200  0.630200  0.4
  F  F3818  1  0.813000  0.310800  0.369800  0.4
  F  F3819  1  0.687000  0.310800  0.369800  0.4
  F  F3820  1  0.187000  0.689200  0.630200  0.4
  F  F3821  1  0.294500  0.645000  0.620000  0.4
  F  F3822  1  0.794500  0.355000  0.380000  0.4
  F  F3823  1  0.705500  0.355000  0.380000  0.4
  F  F3824  1  0.205500  0.645000  0.620000  0.4
  F  F3825  1  0.262200  0.636400  0.157400  0.4
  F  F3826  1  0.762200  0.363600  0.842600  0.4
  F  F3827  1  0.737800  0.363600  0.842600  0.4
  F  F3828  1  0.237800  0.636400  0.157400  0.4
  F  F3829  1  0.219300  0.647900  0.142400  0.4
  F  F3830  1  0.719300  0.352100  0.857600  0.4
  F  F3831  1  0.780700  0.352100  0.857600  0.4
  F  F3832  1  0.280700  0.647900  0.142400  0.4
  F  F3833  1  0.264600  0.659200  0.130100  0.4
  F  F3834  1  0.764600  0.340800  0.869900  0.4
  F  F3835  1  0.735400  0.340800  0.869900  0.4
  F  F3836  1  0.235400  0.659200  0.130100  0.4
  F  F3837  1  0.293400  0.476700  0.849700  0.4
  F  F3838  1  0.793400  0.523300  0.150300  0.4
  F  F3839  1  0.706600  0.523300  0.150300  0.4
  F  F3840  1  0.206600  0.476700  0.849700  0.4
  F  F3841  1  0.331000  0.453000  0.858300  0.4
  F  F3842  1  0.831000  0.547000  0.141700  0.4
  F  F3843  1  0.669000  0.547000  0.141700  0.4
  F  F3844  1  0.169000  0.453000  0.858300  0.4
  F  F3845  1  0.316000  0.439000  0.812000  0.4
  F  F3846  1  0.816000  0.561000  0.188000  0.4
  F  F3847  1  0.684000  0.561000  0.188000  0.4
  F  F3848  1  0.184000  0.439000  0.812000  0.4
  F  F3849  1  0.307000  0.473000  0.866000  0.4
  F  F3850  1  0.807000  0.527000  0.134000  0.4
  F  F3851  1  0.693000  0.527000  0.134000  0.4
  F  F3852  1  0.193000  0.473000  0.866000  0.4
  F  F3853  1  0.335800  0.436200  0.833200  0.4
  F  F3854  1  0.835800  0.563800  0.166800  0.4
  F  F3855  1  0.664200  0.563800  0.166800  0.4
  F  F3856  1  0.164200  0.436200  0.833200  0.4
  F  F3857  1  0.300000  0.457000  0.817600  0.4
  F  F3858  1  0.800000  0.543000  0.182400  0.4
  F  F3859  1  0.700000  0.543000  0.182400  0.4
  F  F3860  1  0.200000  0.457000  0.817600  0.4
  F  F3861  1  0.684000  0.126000  0.939100  0.4
  F  F3862  1  0.184000  0.874000  0.060900  0.4
  F  F3863  1  0.316000  0.874000  0.060900  0.4
  F  F3864  1  0.816000  0.126000  0.939100  0.4
  F  F3865  1  0.705900  0.121000  0.975000  0.4
  F  F3866  1  0.205900  0.879000  0.025000  0.4
  F  F3867  1  0.294100  0.879000  0.025000  0.4
  F  F3868  1  0.794100  0.121000  0.975000  0.4
  F  F3869  1  0.665600  0.092800  0.950800  0.4
  F  F3870  1  0.165600  0.907200  0.049200  0.4
  F  F3871  1  0.334400  0.907200  0.049200  0.4
  F  F3872  1  0.834400  0.092800  0.950800  0.4
  F  F3873  1  0.662300  0.103000  0.936000  0.4
  F  F3874  1  0.162300  0.897000  0.064000  0.4
  F  F3875  1  0.337700  0.897000  0.064000  0.4
  F  F3876  1  0.837700  0.103000  0.936000  0.4
  F  F3877  1  0.700700  0.135500  0.956500  0.4
  F  F3878  1  0.200700  0.864500  0.043500  0.4
  F  F3879  1  0.299300  0.864500  0.043500  0.4
  F  F3880  1  0.799300  0.135500  0.956500  0.4
  F  F3881  1  0.690000  0.103000  0.971400  0.4
  F  F3882  1  0.190000  0.897000  0.028600  0.4
  F  F3883  1  0.310000  0.897000  0.028600  0.4
  F  F3884  1  0.810000  0.103000  0.971400  0.4
  F  F3885  1  0.739200  0.038900  0.994200  0.4
  F  F3886  1  0.239200  0.961100  0.005800  0.4
  F  F3887  1  0.260800  0.961100  0.005800  0.4
  F  F3888  1  0.760800  0.038900  0.994200  0.4
  F  F3889  1  0.780200  0.010000  0.970500  0.4
  F  F3890  1  0.280200  0.990000  0.029500  0.4
  F  F3891  1  0.219800  0.990000  0.029500  0.4
  F  F3892  1  0.719800  0.010000  0.970500  0.4
  F  F3893  1  0.732000  0.991900  0.955800  0.4
  F  F3894  1  0.232000  0.008100  0.044200  0.4
  F  F3895  1  0.268000  0.008100  0.044200  0.4
  F  F3896  1  0.768000  0.991900  0.955800  0.4
  F  F3897  1  0.764200  0.020100  0.156900  0.4
  F  F3898  1  0.264200  0.979900  0.843100  0.4
  F  F3899  1  0.235800  0.979900  0.843100  0.4
  F  F3900  1  0.735800  0.020100  0.156900  0.4
  F  F3901  1  0.763200  0.969800  0.130000  0.4
  F  F3902  1  0.263200  0.030200  0.870000  0.4
  F  F3903  1  0.236800  0.030200  0.870000  0.4
  F  F3904  1  0.736800  0.969800  0.130000  0.4
  F  F3905  1  0.719300  0.995900  0.143600  0.4
  F  F3906  1  0.219300  0.004100  0.856400  0.4
  F  F3907  1  0.280700  0.004100  0.856400  0.4
  F  F3908  1  0.780700  0.995900  0.143600  0.4
  F  F3909  1  0.669000  0.890000  0.823100  0.4
  F  F3910  1  0.169000  0.110000  0.176900  0.4
  F  F3911  1  0.331000  0.110000  0.176900  0.4
  F  F3912  1  0.831000  0.890000  0.823100  0.4
  F  F3913  1  0.683000  0.899000  0.868000  0.4
  F  F3914  1  0.183000  0.101000  0.132000  0.4
  F  F3915  1  0.317000  0.101000  0.132000  0.4
  F  F3916  1  0.817000  0.899000  0.868000  0.4
  F  F3917  1  0.705000  0.861800  0.827800  0.4
  F  F3918  1  0.205000  0.138200  0.172200  0.4
  F  F3919  1  0.295000  0.138200  0.172200  0.4
  F  F3920  1  0.795000  0.861800  0.827800  0.4
  F  F3921  1  0.688000  0.867000  0.811000  0.4
  F  F3922  1  0.188000  0.133000  0.189000  0.4
  F  F3923  1  0.312000  0.133000  0.189000  0.4
  F  F3924  1  0.812000  0.867000  0.811000  0.4
  F  F3925  1  0.663600  0.904400  0.849400  0.4
  F  F3926  1  0.163600  0.095600  0.150600  0.4
  F  F3927  1  0.336400  0.095600  0.150600  0.4
  F  F3928  1  0.836400  0.904400  0.849400  0.4
  F  F3929  1  0.703000  0.882000  0.858000  0.4
  F  F3930  1  0.203000  0.118000  0.142000  0.4
  F  F3931  1  0.297000  0.118000  0.142000  0.4
  F  F3932  1  0.797000  0.882000  0.858000  0.4
  F  F3933  1  0.456800  0.985000  0.708000  0.4
  F  F3934  1  0.956800  0.015000  0.292000  0.4
  F  F3935  1  0.543200  0.015000  0.292000  0.4
  F  F3936  1  0.043200  0.985000  0.708000  0.4
  F  F3937  1  0.450000  0.028900  0.747900  0.4
  F  F3938  1  0.950000  0.971100  0.252100  0.4
  F  F3939  1  0.550000  0.971100  0.252100  0.4
  F  F3940  1  0.050000  0.028900  0.747900  0.4
  F  F3941  1  0.434400  0.988000  0.747600  0.4
  F  F3942  1  0.934400  0.012000  0.252400  0.4
  F  F3943  1  0.565600  0.012000  0.252400  0.4
  F  F3944  1  0.065600  0.988000  0.747600  0.4
  F  F3945  1  0.458500  0.012000  0.720100  0.4
  F  F3946  1  0.958500  0.988000  0.279900  0.4
  F  F3947  1  0.541500  0.988000  0.279900  0.4
  F  F3948  1  0.041500  0.012000  0.720100  0.4
  F  F3949  1  0.435500  0.014000  0.760000  0.4
  F  F3950  1  0.935500  0.986000  0.240000  0.4
  F  F3951  1  0.564500  0.986000  0.240000  0.4
  F  F3952  1  0.064500  0.014000  0.760000  0.4
  F  F3953  1  0.447000  0.970500  0.720500  0.4
  F  F3954  1  0.947000  0.029500  0.279500  0.4
  F  F3955  1  0.553000  0.029500  0.279500  0.4
  F  F3956  1  0.053000  0.970500  0.720500  0.4
  F  F3957  1  0.480500  0.656000  0.714600  0.5
  F  F3958  1  0.980500  0.344000  0.285400  0.5
  F  F3959  1  0.519500  0.344000  0.285400  0.5
  F  F3960  1  0.019500  0.656000  0.714600  0.5
  F  F3961  1  0.466400  0.685700  0.763600  0.5
  F  F3962  1  0.966400  0.314300  0.236400  0.5
  F  F3963  1  0.533600  0.314300  0.236400  0.5
  F  F3964  1  0.033600  0.685700  0.763600  0.5
  F  F3965  1  0.460500  0.639300  0.744200  0.5
  F  F3966  1  0.960500  0.360700  0.255800  0.5
  F  F3967  1  0.539500  0.360700  0.255800  0.5
  F  F3968  1  0.039500  0.639300  0.744200  0.5
  F  F3969  1  0.476200  0.635400  0.718900  0.5
  F  F3970  1  0.976200  0.364600  0.281100  0.5
  F  F3971  1  0.523800  0.364600  0.281100  0.5
  F  F3972  1  0.023800  0.635400  0.718900  0.5
  F  F3973  1  0.475300  0.685800  0.739600  0.5
  F  F3974  1  0.975300  0.314200  0.260400  0.5
  F  F3975  1  0.524700  0.314200  0.260400  0.5
  F  F3976  1  0.024700  0.685800  0.739600  0.5
  F  F3977  1  0.449900  0.662800  0.760000  0.5
  F  F3978  1  0.949900  0.337200  0.240000  0.5
  F  F3979  1  0.550100  0.337200  0.240000  0.5
  F  F3980  1  0.050100  0.662800  0.760000  0.5
  F  F3981  1  0.391500  0.697200  0.496300  0.5
  F  F3982  1  0.891500  0.302800  0.503700  0.5
  F  F3983  1  0.608500  0.302800  0.503700  0.5
  F  F3984  1  0.108500  0.697200  0.496300  0.5
  F  F3985  1  0.358000  0.668100  0.497900  0.5
  F  F3986  1  0.858000  0.331900  0.502100  0.5
  F  F3987  1  0.642000  0.331900  0.502100  0.5
  F  F3988  1  0.142000  0.668100  0.497900  0.5
  F  F3989  1  0.369500  0.710200  0.538900  0.5
  F  F3990  1  0.869500  0.289800  0.461100  0.5
  F  F3991  1  0.630500  0.289800  0.461100  0.5
  F  F3992  1  0.130500  0.710200  0.538900  0.5
  F  F3993  1  0.344200  0.712800  0.502400  0.5
  F  F3994  1  0.844200  0.287200  0.497600  0.5
  F  F3995  1  0.655800  0.287200  0.497600  0.5
  F  F3996  1  0.155800  0.712800  0.502400  0.5
  F  F3997  1  0.564400  0.740000  0.496000  0.5
  F  F3998  1  0.064400  0.260000  0.504000  0.5
  F  F3999  1  0.435600  0.260000  0.504000  0.5
  F  F4000  1  0.935600  0.740000  0.496000  0.5
  F  F4001  1  0.547400  0.765000  0.475500  0.5
  F  F4002  1  0.047400  0.235000  0.524500  0.5
  F  F4003  1  0.452600  0.235000  0.524500  0.5
  F  F4004  1  0.952600  0.765000  0.475500  0.5
  F  F4005  1  0.550000  0.786000  0.525000  0.5
  F  F4006  1  0.050000  0.214000  0.475000  0.5
  F  F4007  1  0.450000  0.214000  0.475000  0.5
  F  F4008  1  0.950000  0.786000  0.525000  0.5
  F  F4009  1  0.558000  0.743000  0.472000  0.5
  F  F4010  1  0.058000  0.257000  0.528000  0.5
  F  F4011  1  0.442000  0.257000  0.528000  0.5
  F  F4012  1  0.942000  0.743000  0.472000  0.5
  F  F4013  1  0.540000  0.788700  0.502700  0.5
  F  F4014  1  0.040000  0.211300  0.497300  0.5
  F  F4015  1  0.460000  0.211300  0.497300  0.5
  F  F4016  1  0.960000  0.788700  0.502700  0.5
  F  F4017  1  0.561400  0.764000  0.521800  0.5
  F  F4018  1  0.061400  0.236000  0.478200  0.5
  F  F4019  1  0.438600  0.236000  0.478200  0.5
  F  F4020  1  0.938600  0.764000  0.521800  0.5
  F  F4021  1  0.542000  0.214000  0.712000  0.5
  F  F4022  1  0.042000  0.786000  0.288000  0.5
  F  F4023  1  0.458000  0.786000  0.288000  0.5
  F  F4024  1  0.958000  0.214000  0.712000  0.5
  F  F4025  1  0.563400  0.258500  0.738500  0.5
  F  F4026  1  0.063400  0.741500  0.261500  0.5
  F  F4027  1  0.436600  0.741500  0.261500  0.5
  F  F4028  1  0.936600  0.258500  0.738500  0.5
  F  F4029  1  0.557000  0.230000  0.758000  0.5
  F  F4030  1  0.057000  0.770000  0.242000  0.5
  F  F4031  1  0.443000  0.770000  0.242000  0.5
  F  F4032  1  0.943000  0.230000  0.758000  0.5
  F  F4033  1  0.550000  0.240000  0.714500  0.5
  F  F4034  1  0.050000  0.760000  0.285500  0.5
  F  F4035  1  0.450000  0.760000  0.285500  0.5
  F  F4036  1  0.950000  0.240000  0.714500  0.5
  F  F4037  1  0.565600  0.255000  0.760000  0.5
  F  F4038  1  0.065600  0.745000  0.240000  0.5
  F  F4039  1  0.434400  0.745000  0.240000  0.5
  F  F4040  1  0.934400  0.255000  0.760000  0.5
  F  F4041  1  0.547000  0.209900  0.733900  0.5
  F  F4042  1  0.047000  0.790100  0.266100  0.5
  F  F4043  1  0.453000  0.790100  0.266100  0.5
  F  F4044  1  0.953000  0.209900  0.733900  0.5
  F  F4045  1  0.478900  0.321800  0.055900  0.5
  F  F4046  1  0.978900  0.678200  0.944100  0.5
  F  F4047  1  0.521100  0.678200  0.944100  0.5
  F  F4048  1  0.021100  0.321800  0.055900  0.5
  F  F4049  1  0.473200  0.369900  0.092900  0.5
  F  F4050  1  0.973200  0.630100  0.907100  0.5
  F  F4051  1  0.526800  0.630100  0.907100  0.5
  F  F4052  1  0.026800  0.369900  0.092900  0.5
  F  F4053  1  0.449900  0.335900  0.096500  0.5
  F  F4054  1  0.949900  0.664100  0.903500  0.5
  F  F4055  1  0.550100  0.664100  0.903500  0.5
  F  F4056  1  0.050100  0.335900  0.096500  0.5
  F  F4057  1  0.471300  0.316500  0.075900  0.5
  F  F4058  1  0.971300  0.683500  0.924100  0.5
  F  F4059  1  0.528700  0.683500  0.924100  0.5
  F  F4060  1  0.028700  0.316500  0.075900  0.5
  F  F4061  1  0.480100  0.356300  0.069000  0.5
  F  F4062  1  0.980100  0.643700  0.931000  0.5
  F  F4063  1  0.519900  0.643700  0.931000  0.5
  F  F4064  1  0.019900  0.356300  0.069000  0.5
  F  F4065  1  0.453600  0.358100  0.107800  0.5
  F  F4066  1  0.953600  0.641900  0.892200  0.5
  F  F4067  1  0.546400  0.641900  0.892200  0.5
  F  F4068  1  0.046400  0.358100  0.107800  0.5
  F  F4069  1  0.456800  0.606400  0.859300  0.5
  F  F4070  1  0.956800  0.393600  0.140700  0.5
  F  F4071  1  0.543200  0.393600  0.140700  0.5
  F  F4072  1  0.043200  0.606400  0.859300  0.5
  F  F4073  1  0.469700  0.577000  0.815200  0.5
  F  F4074  1  0.969700  0.423000  0.184800  0.5
  F  F4075  1  0.530300  0.423000  0.184800  0.5
  F  F4076  1  0.030300  0.577000  0.815200  0.5
  F  F4077  1  0.483200  0.564600  0.849800  0.5
  F  F4078  1  0.983200  0.435400  0.150200  0.5
  F  F4079  1  0.516800  0.435400  0.150200  0.5
  F  F4080  1  0.016800  0.564600  0.849800  0.5
  F  F4081  1  0.476400  0.587500  0.866700  0.5
  F  F4082  1  0.976400  0.412500  0.133300  0.5
  F  F4083  1  0.523600  0.412500  0.133300  0.5
  F  F4084  1  0.023600  0.587500  0.866700  0.5
  F  F4085  1  0.450000  0.596800  0.836700  0.5
  F  F4086  1  0.950000  0.403200  0.163300  0.5
  F  F4087  1  0.550000  0.403200  0.163300  0.5
  F  F4088  1  0.050000  0.596800  0.836700  0.5
  F  F4089  1  0.478600  0.555100  0.817700  0.5
  F  F4090  1  0.978600  0.444900  0.182300  0.5
  F  F4091  1  0.521400  0.444900  0.182300  0.5
  F  F4092  1  0.021400  0.555100  0.817700  0.5
  F  F4093  1  0.527100  0.257600  0.074100  0.5
  F  F4094  1  0.027100  0.742400  0.925900  0.5
  F  F4095  1  0.472900  0.742400  0.925900  0.5
  F  F4096  1  0.972900  0.257600  0.074100  0.5
  F  F4097  1  0.520100  0.213000  0.072300  0.5
  F  F4098  1  0.020100  0.787000  0.927700  0.5
  F  F4099  1  0.479900  0.787000  0.927700  0.5
  F  F4100  1  0.979900  0.213000  0.072300  0.5
  F  F4101  1  0.547500  0.251600  0.107400  0.5
  F  F4102  1  0.047500  0.748400  0.892600  0.5
  F  F4103  1  0.452500  0.748400  0.892600  0.5
  F  F4104  1  0.952500  0.251600  0.107400  0.5
  F  F4105  1  0.519400  0.233800  0.056900  0.5
  F  F4106  1  0.019400  0.766200  0.943100  0.5
  F  F4107  1  0.480600  0.766200  0.943100  0.5
  F  F4108  1  0.980600  0.233800  0.056900  0.5
  F  F4109  1  0.528400  0.222500  0.093100  0.5
  F  F4110  1  0.028400  0.777500  0.906900  0.5
  F  F4111  1  0.471600  0.777500  0.906900  0.5
  F  F4112  1  0.971600  0.222500  0.093100  0.5
  F  F4113  1  0.550100  0.261000  0.096100  0.5
  F  F4114  1  0.050100  0.739000  0.903900  0.5
  F  F4115  1  0.449900  0.739000  0.903900  0.5
  F  F4116  1  0.949900  0.261000  0.096100  0.5
  F  F4117  1  0.523100  0.764100  0.818200  0.5
  F  F4118  1  0.023100  0.235900  0.181800  0.5
  F  F4119  1  0.476900  0.235900  0.181800  0.5
  F  F4120  1  0.976900  0.764100  0.818200  0.5
  F  F4121  1  0.526300  0.778600  0.867500  0.5
  F  F4122  1  0.026300  0.221400  0.132500  0.5
  F  F4123  1  0.473700  0.221400  0.132500  0.5
  F  F4124  1  0.973700  0.778600  0.867500  0.5
  F  F4125  1  0.550100  0.739300  0.835800  0.5
  F  F4126  1  0.050100  0.260700  0.164200  0.5
  F  F4127  1  0.449900  0.260700  0.164200  0.5
  F  F4128  1  0.949900  0.739300  0.835800  0.5
  F  F4129  1  0.529400  0.740200  0.814500  0.5
  F  F4130  1  0.029400  0.259800  0.185500  0.5
  F  F4131  1  0.470600  0.259800  0.185500  0.5
  F  F4132  1  0.970600  0.740200  0.814500  0.5
  F  F4133  1  0.520200  0.787000  0.854000  0.5
  F  F4134  1  0.020200  0.213000  0.146000  0.5
  F  F4135  1  0.479800  0.213000  0.146000  0.5
  F  F4136  1  0.979800  0.787000  0.854000  0.5
  F  F4137  1  0.545700  0.750100  0.856600  0.5
  F  F4138  1  0.045700  0.249900  0.143400  0.5
  F  F4139  1  0.454300  0.249900  0.143400  0.5
  F  F4140  1  0.954300  0.750100  0.856600  0.5
  F  F4141  1  0.516300  0.459700  0.289400  0.5
  F  F4142  1  0.016300  0.540300  0.710600  0.5
  F  F4143  1  0.483700  0.540300  0.710600  0.5
  F  F4144  1  0.983700  0.459700  0.289400  0.5
  F  F4145  1  0.554000  0.486500  0.318700  0.5
  F  F4146  1  0.054000  0.513500  0.681300  0.5
  F  F4147  1  0.446000  0.513500  0.681300  0.5
  F  F4148  1  0.946000  0.486500  0.318700  0.5
  F  F4149  1  0.557200  0.438100  0.294700  0.5
  F  F4150  1  0.057200  0.561900  0.705300  0.5
  F  F4151  1  0.442800  0.561900  0.705300  0.5
  F  F4152  1  0.942800  0.438100  0.294700  0.5
  F  F4153  1  0.560500  0.461400  0.268500  0.5
  F  F4154  1  0.060500  0.538600  0.731500  0.5
  F  F4155  1  0.439500  0.538600  0.731500  0.5
  F  F4156  1  0.939500  0.461400  0.268500  0.5
  F  F4157  1  0.677100  0.332900  0.166400  0.5
  F  F4158  1  0.177100  0.667100  0.833600  0.5
  F  F4159  1  0.322900  0.667100  0.833600  0.5
  F  F4160  1  0.822900  0.332900  0.166400  0.5
  F  F4161  1  0.636300  0.306600  0.144700  0.5
  F  F4162  1  0.136300  0.693400  0.855300  0.5
  F  F4163  1  0.363700  0.693400  0.855300  0.5
  F  F4164  1  0.863700  0.306600  0.144700  0.5
  F  F4165  1  0.636500  0.338400  0.193900  0.5
  F  F4166  1  0.136500  0.661600  0.806100  0.5
  F  F4167  1  0.363500  0.661600  0.806100  0.5
  F  F4168  1  0.863500  0.338400  0.193900  0.5
  F  F4169  1  0.636900  0.355100  0.161700  0.5
  F  F4170  1  0.136900  0.644900  0.838300  0.5
  F  F4171  1  0.363100  0.644900  0.838300  0.5
  F  F4172  1  0.863100  0.355100  0.161700  0.5
  F  F4173  1  0.483800  0.460800  0.171100  0.5
  F  F4174  1  0.983800  0.539200  0.828900  0.5
  F  F4175  1  0.516200  0.539200  0.828900  0.5
  F  F4176  1  0.016200  0.460800  0.171100  0.5
  F  F4177  1  0.445700  0.486900  0.168700  0.5
  F  F4178  1  0.945700  0.513100  0.831300  0.5
  F  F4179  1  0.554300  0.513100  0.831300  0.5
  F  F4180  1  0.054300  0.486900  0.168700  0.5
  F  F4181  1  0.444500  0.437600  0.142800  0.5
  F  F4182  1  0.944500  0.562400  0.857200  0.5
  F  F4183  1  0.555500  0.562400  0.857200  0.5
  F  F4184  1  0.055500  0.437600  0.142800  0.5
  F  F4185  1  0.440100  0.460500  0.192500  0.5
  F  F4186  1  0.940100  0.539500  0.807500  0.5
  F  F4187  1  0.559900  0.539500  0.807500  0.5
  F  F4188  1  0.059900  0.460500  0.192500  0.5
  F  F4189  1  0.483800  0.789800  0.828900  0.5
  F  F4190  1  0.983800  0.210200  0.171100  0.5
  F  F4191  1  0.516200  0.210200  0.171100  0.5
  F  F4192  1  0.016200  0.789800  0.828900  0.5
  F  F4193  1  0.446700  0.820100  0.833400  0.5
  F  F4194  1  0.946700  0.179900  0.166600  0.5
  F  F4195  1  0.553300  0.179900  0.166600  0.5
  F  F4196  1  0.053300  0.820100  0.833400  0.5
  F  F4197  1  0.445400  0.794600  0.856900  0.5
  F  F4198  1  0.945400  0.205400  0.143100  0.5
  F  F4199  1  0.554600  0.205400  0.143100  0.5
  F  F4200  1  0.054600  0.794600  0.856900  0.5
  F  F4201  1  0.439700  0.769300  0.807500  0.5
  F  F4202  1  0.939700  0.230700  0.192500  0.5
  F  F4203  1  0.560300  0.230700  0.192500  0.5
  F  F4204  1  0.060300  0.769300  0.807500  0.5
  F  F4205  1  0.676800  0.666100  0.832800  0.5
  F  F4206  1  0.176800  0.333900  0.167200  0.5
  F  F4207  1  0.323200  0.333900  0.167200  0.5
  F  F4208  1  0.823200  0.666100  0.832800  0.5
  F  F4209  1  0.635900  0.645000  0.806200  0.5
  F  F4210  1  0.135900  0.355000  0.193800  0.5
  F  F4211  1  0.364100  0.355000  0.193800  0.5
  F  F4212  1  0.864100  0.645000  0.806200  0.5
  F  F4213  1  0.636200  0.693700  0.839600  0.5
  F  F4214  1  0.136200  0.306300  0.160400  0.5
  F  F4215  1  0.363800  0.306300  0.160400  0.5
  F  F4216  1  0.863800  0.693700  0.839600  0.5
  F  F4217  1  0.636100  0.660800  0.855000  0.5
  F  F4218  1  0.136100  0.339200  0.145000  0.5
  F  F4219  1  0.363900  0.339200  0.145000  0.5
  F  F4220  1  0.863900  0.660800  0.855000  0.5
  F  F4221  1  0.483100  0.329800  0.290200  0.5
  F  F4222  1  0.983100  0.670200  0.709800  0.5
  F  F4223  1  0.516900  0.670200  0.709800  0.5
  F  F4224  1  0.016900  0.329800  0.290200  0.5
  F  F4225  1  0.446300  0.332300  0.319600  0.5
  F  F4226  1  0.946300  0.667700  0.680400  0.5
  F  F4227  1  0.553700  0.667700  0.680400  0.5
  F  F4228  1  0.053700  0.332300  0.319600  0.5
  F  F4229  1  0.445000  0.358000  0.296100  0.5
  F  F4230  1  0.945000  0.642000  0.703900  0.5
  F  F4231  1  0.555000  0.642000  0.703900  0.5
  F  F4232  1  0.055000  0.358000  0.296100  0.5
  F  F4233  1  0.439700  0.308100  0.268800  0.5
  F  F4234  1  0.939700  0.691900  0.731200  0.5
  F  F4235  1  0.560300  0.691900  0.731200  0.5
  F  F4236  1  0.060300  0.308100  0.268800  0.5
  F  F4237  1  0.483800  0.210400  0.039600  0.5
  F  F4238  1  0.983800  0.789600  0.960400  0.5
  F  F4239  1  0.516200  0.789600  0.960400  0.5
  F  F4240  1  0.016200  0.210400  0.039600  0.5
  F  F4241  1  0.446000  0.180900  0.013800  0.5
  F  F4242  1  0.946000  0.819100  0.986200  0.5
  F  F4243  1  0.554000  0.819100  0.986200  0.5
  F  F4244  1  0.054000  0.180900  0.013800  0.5
  F  F4245  1  0.443900  0.205300  0.062400  0.5
  F  F4246  1  0.943900  0.794700  0.937600  0.5
  F  F4247  1  0.556100  0.794700  0.937600  0.5
  F  F4248  1  0.056100  0.205300  0.062400  0.5
  F  F4249  1  0.439500  0.231700  0.039500  0.5
  F  F4250  1  0.939500  0.768300  0.960500  0.5
  F  F4251  1  0.560500  0.768300  0.960500  0.5
  F  F4252  1  0.060500  0.231700  0.039500  0.5
  F  F4253  1  0.516200  0.329900  0.039600  0.5
  F  F4254  1  0.016200  0.670100  0.960400  0.5
  F  F4255  1  0.483800  0.670100  0.960400  0.5
  F  F4256  1  0.983800  0.329900  0.039600  0.5
  F  F4257  1  0.553800  0.332800  0.013400  0.5
  F  F4258  1  0.053800  0.667200  0.986600  0.5
  F  F4259  1  0.446200  0.667200  0.986600  0.5
  F  F4260  1  0.946200  0.332800  0.013400  0.5
  F  F4261  1  0.557300  0.356200  0.062200  0.5
  F  F4262  1  0.057300  0.643800  0.937800  0.5
  F  F4263  1  0.442700  0.643800  0.937800  0.5
  F  F4264  1  0.942700  0.356200  0.062200  0.5
  F  F4265  1  0.560500  0.307000  0.038500  0.5
  F  F4266  1  0.060500  0.693000  0.961500  0.5
  F  F4267  1  0.439500  0.693000  0.961500  0.5
  F  F4268  1  0.939500  0.307000  0.038500  0.5
  F  F4269  1  0.250000  0.646800  0.358900  0.6
  F  F4270  1  0.750000  0.353200  0.641100  0.6
  F  F4271  1  0.250000  0.503900  0.501100  0.6
  F  F4272  1  0.750000  0.496100  0.498900  0.6
  F  F4273  1  0.250000  0.787600  0.640100  0.6
  F  F4274  1  0.750000  0.212400  0.359900  0.6
  F  F4275  1  0.250000  0.915300  0.738600  0.6
  F  F4276  1  0.750000  0.084700  0.261400  0.6
  F  F4277  1  0.250000  0.352900  0.712400  0.6
  F  F4278  1  0.750000  0.647100  0.287600  0.6
  F  F4279  1  0.250000  0.315100  0.575500  0.6
  F  F4280  1  0.750000  0.684900  0.424500  0.6
  F  F4281  1  0.392900  0.299700  0.800800  0.6
  F  F4282  1  0.892900  0.700300  0.199200  0.6
  F  F4283  1  0.607100  0.700300  0.199200  0.6
  F  F4284  1  0.107100  0.299700  0.800800  0.6
  F  F4285  1  0.250000  0.213200  0.853000  0.6
  F  F4286  1  0.750000  0.786800  0.147000  0.6
  F  F4287  1  0.250000  0.078000  0.817100  0.6
  F  F4288  1  0.750000  0.922000  0.182900  0.6
  F  F4289  1  0.250000  0.497500  0.996400  0.6
  F  F4290  1  0.750000  0.502500  0.003600  0.6
  F  F4291  1  0.750000  0.142100  0.853300  0.6
  F  F4292  1  0.250000  0.857900  0.146700  0.6
  F  F4293  1  0.750000  0.238900  0.816000  0.6
  F  F4294  1  0.250000  0.761100  0.184000  0.6
  F  F4295  1  0.750000  0.860700  0.713500  0.6
  F  F4296  1  0.250000  0.139300  0.286500  0.6
  F  F4297  1  0.750000  0.761000  0.577000  0.6
  F  F4298  1  0.250000  0.239000  0.423000  0.6
  F  F4299  1  0.607800  0.001000  0.803300  0.6
  F  F4300  1  0.107800  0.999000  0.196700  0.6
  F  F4301  1  0.392200  0.999000  0.196700  0.6
  F  F4302  1  0.892200  0.001000  0.803300  0.6
  F  F4303  1  0.341300  0.519100  0.359200  0.8
  F  F4304  1  0.841300  0.480900  0.640800  0.8
  F  F4305  1  0.658700  0.480900  0.640800  0.8
  F  F4306  1  0.158700  0.519100  0.359200  0.8
  F  F4307  1  0.429900  0.433700  0.272100  0.8
  F  F4308  1  0.929900  0.566300  0.727900  0.8
  F  F4309  1  0.570100  0.566300  0.727900  0.8
  F  F4310  1  0.070100  0.433700  0.272100  0.8
  F  F4311  1  0.250000  0.389200  0.501600  0.8
  F  F4312  1  0.750000  0.610800  0.498400  0.8
  F  F4313  1  0.342100  0.660100  0.640800  0.8
  F  F4314  1  0.842100  0.339900  0.359200  0.8
  F  F4315  1  0.657900  0.339900  0.359200  0.8
  F  F4316  1  0.157900  0.660100  0.640800  0.8
  F  F4317  1  0.250000  0.612000  0.111300  0.8
  F  F4318  1  0.750000  0.388000  0.888700  0.8
  F  F4319  1  0.342900  0.481000  0.839400  0.8
  F  F4320  1  0.842900  0.519000  0.160600  0.8
  F  F4321  1  0.657100  0.519000  0.160600  0.8
  F  F4322  1  0.157100  0.481000  0.839400  0.8
  F  F4323  1  0.658200  0.141000  0.981300  0.8
  F  F4324  1  0.158200  0.859000  0.018700  0.8
  F  F4325  1  0.341800  0.859000  0.018700  0.8
  F  F4326  1  0.841800  0.141000  0.981300  0.8
  F  F4327  1  0.750000  0.999800  0.998500  0.8
  F  F4328  1  0.250000  0.000200  0.001500  0.8
  F  F4329  1  0.750000  0.998700  0.111100  0.8
  F  F4330  1  0.250000  0.001300  0.888900  0.8
  F  F4331  1  0.656600  0.858500  0.839200  0.8
  F  F4332  1  0.156600  0.141500  0.160800  0.8
  F  F4333  1  0.343400  0.141500  0.160800  0.8
  F  F4334  1  0.843400  0.858500  0.839200  0.8
  F  F4335  1  0.484800  0.998800  0.748100  0.8
  F  F4336  1  0.984800  0.001200  0.251900  0.8
  F  F4337  1  0.515200  0.001200  0.251900  0.8
  F  F4338  1  0.015200  0.998800  0.748100  0.8
