
#######################################################################
#
#                 Cambridge Crystallographic Data Centre
#                                CCDC 
#
#######################################################################
#
# If this CIF has been generated from an entry in the Cambridge 
# Structural Database, then it will include bibliographic, chemical, 
# crystal, experimental, refinement or atomic coordinate data resulting 
# from the CCDC's data processing and validation procedures.
#
#######################################################################

data_QUBDUO
_chemical_formula_moiety         'C336 H312 Fe4 N48 Ni6 8+,8(C1 F3 O3 S1 1-)'
_chemical_name_systematic        
'hexakis(\m~3~-2,8,12,18-tetraethyl-3,7,13,17-tetramethyl-5,15-bis(4-((pyridin-2-ylmethylidene)amino)phenyl)porphyrin-21,23-diyl)-tetra-iron-hexa-nickel octakis(trifluoromethanesulfonate)'
_symmetry_cell_setting           cubic
_symmetry_space_group_name_H-M   'F -4 3 c'
_symmetry_Int_Tables_number      219
_space_group_name_Hall           'F -4a 2 3'
loop_
_symmetry_equiv_pos_site_id
_symmetry_equiv_pos_as_xyz
1 x,y,z
2 -x,-y,z
3 -x,y,-z
4 x,-y,-z
5 z,x,y
6 z,-x,-y
7 -z,-x,y
8 -z,x,-y
9 y,z,x
10 -y,z,-x
11 y,-z,-x
12 -y,-z,x
13 1/2+y,1/2+x,1/2+z
14 1/2-y,1/2-x,1/2+z
15 1/2+y,1/2-x,1/2-z
16 1/2-y,1/2+x,1/2-z
17 1/2+x,1/2+z,1/2+y
18 1/2-x,1/2+z,1/2-y
19 1/2-x,1/2-z,1/2+y
20 1/2+x,1/2-z,1/2-y
21 1/2+z,1/2+y,1/2+x
22 1/2+z,1/2-y,1/2-x
23 1/2-z,1/2+y,1/2-x
24 1/2-z,1/2-y,1/2+x
25 x,1/2+y,1/2+z
26 -x,1/2-y,1/2+z
27 -x,1/2+y,1/2-z
28 x,1/2-y,1/2-z
29 z,1/2+x,1/2+y
30 z,1/2-x,1/2-y
31 -z,1/2-x,1/2+y
32 -z,1/2+x,1/2-y
33 y,1/2+z,1/2+x
34 -y,1/2+z,1/2-x
35 y,1/2-z,1/2-x
36 -y,1/2-z,1/2+x
37 1/2+y,x,z
38 1/2-y,-x,z
39 1/2+y,-x,-z
40 1/2-y,x,-z
41 1/2+x,z,y
42 1/2-x,z,-y
43 1/2-x,-z,y
44 1/2+x,-z,-y
45 1/2+z,y,x
46 1/2+z,-y,-x
47 1/2-z,y,-x
48 1/2-z,-y,x
49 1/2+x,y,1/2+z
50 1/2-x,-y,1/2+z
51 1/2-x,y,1/2-z
52 1/2+x,-y,1/2-z
53 1/2+z,x,1/2+y
54 1/2+z,-x,1/2-y
55 1/2-z,-x,1/2+y
56 1/2-z,x,1/2-y
57 1/2+y,z,1/2+x
58 1/2-y,z,1/2-x
59 1/2+y,-z,1/2-x
60 1/2-y,-z,1/2+x
61 y,1/2+x,z
62 -y,1/2-x,z
63 y,1/2-x,-z
64 -y,1/2+x,-z
65 x,1/2+z,y
66 -x,1/2+z,-y
67 -x,1/2-z,y
68 x,1/2-z,-y
69 z,1/2+y,x
70 z,1/2-y,-x
71 -z,1/2+y,-x
72 -z,1/2-y,x
73 1/2+x,1/2+y,z
74 1/2-x,1/2-y,z
75 1/2-x,1/2+y,-z
76 1/2+x,1/2-y,-z
77 1/2+z,1/2+x,y
78 1/2+z,1/2-x,-y
79 1/2-z,1/2-x,y
80 1/2-z,1/2+x,-y
81 1/2+y,1/2+z,x
82 1/2-y,1/2+z,-x
83 1/2+y,1/2-z,-x
84 1/2-y,1/2-z,x
85 y,x,1/2+z
86 -y,-x,1/2+z
87 y,-x,1/2-z
88 -y,x,1/2-z
89 x,z,1/2+y
90 -x,z,1/2-y
91 -x,-z,1/2+y
92 x,-z,1/2-y
93 z,y,1/2+x
94 z,-y,1/2-x
95 -z,y,1/2-x
96 -z,-y,1/2+x
_cell_length_a                   45.5634(10)
_cell_length_b                   45.5634(10)
_cell_length_c                   45.5634(10)
_cell_angle_alpha                90
_cell_angle_beta                 90
_cell_angle_gamma                90
_cell_volume                     94590.7
_exptl_crystal_colour            'dark brown'
_exptl_crystal_description       cube
_cell_formula_units_Z            8
_exptl_crystal_recrystallization_method 'diethyl ether/ acetonitrile'
loop_
_atom_site_label
_atom_site_type_symbol
_atom_site_fract_x
_atom_site_fract_y
_atom_site_fract_z
Fe1 Fe 0.15550(4) 0.15550(4) 0.15550(4)
Ni1 Ni 0.0000 0.21047(5) 0.0000
N1 N 0.19856(15) 0.1569(2) 0.15098(19)
N2 N 0.1566(2) 0.15935(19) 0.1117(2)
N3 N 0.0087(2) 0.2099(2) 0.04181(19)
N4 N 0.0413(2) 0.20949(19) -0.0077(2)
C1 C 0.2195(2) 0.1535(3) 0.17140(18)
H1 H 0.2136 0.1507 0.1912
C2 C 0.24923(19) 0.1539(3) 0.1652(2)
H2 H 0.2634 0.1528 0.1805
C3 C 0.25766(18) 0.1558(3) 0.1363(2)
H3 H 0.2779 0.1550 0.1312
C4 C 0.2366(2) 0.1590(3) 0.11477(19)
H4 H 0.2421 0.1612 0.0948
C5 C 0.20717(19) 0.1588(3) 0.12270(19)
C6 C 0.1837(3) 0.1622(3) 0.1016(3)
H5 H 0.1875 0.1664 0.0815
C7 C 0.13355(15) 0.16788(15) 0.09251(18)
C8 C 0.11396(16) 0.14745(12) 0.08114(18)
H6 H 0.1165 0.1272 0.0852
C9 C 0.09062(15) 0.15669(15) 0.06381(16)
H7 H 0.0772 0.1427 0.0560
C10 C 0.08687(15) 0.18637(16) 0.05784(17)
C11 C 0.10646(18) 0.20681(12) 0.06921(19)
H8 H 0.1039 0.2271 0.0651
C12 C 0.12980(16) 0.19756(14) 0.08655(18)
H9 H 0.1432 0.2115 0.0943
C13 C 0.0543(3) 0.2190(3) -0.0327(3)
C14 C 0.0851(3) 0.2147(3) -0.0332(3)
C15 C 0.0915(3) 0.2034(3) -0.0053(3)
C16 C 0.0635(3) 0.2018(3) 0.0106(3)
C17 C 0.0601(3) 0.1969(3) 0.0402(3)
C18 C 0.0341(3) 0.2015(3) 0.0555(3)
C19 C 0.0306(3) 0.2032(3) 0.0876(3)
C20 C 0.0035(3) 0.2132(3) 0.0920(3)
C21 C -0.0102(3) 0.2190(3) 0.0614(3)
C22 C 0.0391(3) 0.2228(3) -0.0597(3)
H10 H 0.0498 0.2282 -0.0768
C23 C 0.1055(3) 0.2190(4) -0.0576(3)
H11 H 0.1239 0.2275 -0.0497
H12 H 0.0969 0.2336 -0.0712
C24 C 0.1132(5) 0.1922(6) -0.0749(4)
H13 H 0.1221 0.1776 -0.0619
H14 H 0.1272 0.1975 -0.0904
H15 H 0.0954 0.1841 -0.0838
C25 C 0.1219(3) 0.1944(4) 0.0031(4)
H16 H 0.1354 0.1989 -0.0131
H17 H 0.1223 0.1733 0.0072
H18 H 0.1280 0.2052 0.0207
C26 C 0.0522(3) 0.1956(4) 0.1110(3)
H19 H 0.0633 0.2132 0.1165
H20 H 0.0657 0.1806 0.1037
H21 H 0.0417 0.1882 0.1283
C27 C -0.0112(4) 0.2205(4) 0.1200(3)
H22 H -0.0281 0.2337 0.1164
H23 H 0.0026 0.2305 0.1334
C28 C -0.0213(5) 0.1922(5) 0.1330(4)
H24 H -0.0410 0.1876 0.1257
H25 H -0.0219 0.1940 0.1545
H26 H -0.0077 0.1765 0.1275
N1B N -0.19856(15) 0.1569(2) -0.15098(19)
N2B N -0.1566(2) 0.15935(19) -0.1117(2)
N3B N -0.0087(2) 0.2099(2) -0.04181(19)
N4B N -0.0413(2) 0.20949(19) 0.0077(2)
C1B C -0.2195(2) 0.1535(3) -0.17140(18)
H1B H -0.2136 0.1507 -0.1912
C2B C -0.24923(19) 0.1539(3) -0.1652(2)
H2B H -0.2634 0.1528 -0.1805
C3B C -0.25766(18) 0.1558(3) -0.1363(2)
H3B H -0.2779 0.1550 -0.1312
C4B C -0.2366(2) 0.1590(3) -0.11477(19)
H4B H -0.2421 0.1612 -0.0948
C5B C -0.20717(19) 0.1588(3) -0.12270(19)
C6B C -0.1837(3) 0.1622(3) -0.1016(3)
H5B H -0.1875 0.1664 -0.0815
C7B C -0.13355(15) 0.16788(15) -0.09251(18)
C8B C -0.11396(16) 0.14745(12) -0.08114(18)
H6B H -0.1165 0.1272 -0.0852
C9B C -0.09062(15) 0.15669(15) -0.06381(16)
H7B H -0.0772 0.1427 -0.0560
C10B C -0.08687(15) 0.18637(16) -0.05784(17)
C11B C -0.10646(18) 0.20681(12) -0.06921(19)
H8B H -0.1039 0.2271 -0.0651
C12B C -0.12980(16) 0.19756(14) -0.08655(18)
H9B H -0.1432 0.2115 -0.0943
C13B C -0.0543(3) 0.2190(3) 0.0327(3)
C14B C -0.0851(3) 0.2147(3) 0.0332(3)
C15B C -0.0915(3) 0.2034(3) 0.0053(3)
C16B C -0.0635(3) 0.2018(3) -0.0106(3)
C17B C -0.0601(3) 0.1969(3) -0.0402(3)
C18B C -0.0341(3) 0.2015(3) -0.0555(3)
C19B C -0.0306(3) 0.2032(3) -0.0876(3)
C20B C -0.0035(3) 0.2132(3) -0.0920(3)
C21B C 0.0102(3) 0.2190(3) -0.0614(3)
C22B C -0.0391(3) 0.2228(3) 0.0597(3)
H10B H -0.0498 0.2282 0.0768
C23B C -0.1055(3) 0.2190(4) 0.0576(3)
H11B H -0.1239 0.2275 0.0497
H12B H -0.0969 0.2336 0.0712
C24B C -0.1132(5) 0.1922(6) 0.0749(4)
H13B H -0.1221 0.1776 0.0619
H14B H -0.1272 0.1975 0.0904
H15B H -0.0954 0.1841 0.0838
C25B C -0.1219(3) 0.1944(4) -0.0031(4)
H16B H -0.1354 0.1989 0.0131
H17B H -0.1223 0.1733 -0.0072
H18B H -0.1280 0.2052 -0.0207
C26B C -0.0522(3) 0.1956(4) -0.1110(3)
H19B H -0.0633 0.2132 -0.1165
H20B H -0.0657 0.1806 -0.1037
H21B H -0.0417 0.1882 -0.1283
C27B C 0.0112(4) 0.2205(4) -0.1200(3)
H22B H 0.0281 0.2337 -0.1164
H23B H -0.0026 0.2305 -0.1334
C28B C 0.0213(5) 0.1922(5) -0.1330(4)
H24B H 0.0410 0.1876 -0.1257
H25B H 0.0219 0.1940 -0.1545
H26B H 0.0077 0.1765 -0.1275
Fe1B Fe -0.15550(4) 0.15550(4) -0.15550(4)
Ni1D Ni 0.0000 0.0000 0.21047(5)
N1D N 0.15098(19) 0.19856(15) 0.1569(2)
N2D N 0.1117(2) 0.1566(2) 0.15935(19)
N3D N 0.04181(19) 0.0087(2) 0.2099(2)
N4D N -0.0077(2) 0.0413(2) 0.20949(19)
C1D C 0.17140(18) 0.2195(2) 0.1535(3)
H1D H 0.1912 0.2136 0.1507
C2D C 0.1652(2) 0.24923(19) 0.1539(3)
H2D H 0.1805 0.2634 0.1528
C3D C 0.1363(2) 0.25766(18) 0.1558(3)
H3D H 0.1312 0.2779 0.1550
C4D C 0.11477(19) 0.2366(2) 0.1590(3)
H4D H 0.0948 0.2421 0.1612
C5D C 0.12270(19) 0.20717(19) 0.1588(3)
C6D C 0.1016(3) 0.1837(3) 0.1622(3)
H5D H 0.0815 0.1875 0.1664
C7D C 0.09251(18) 0.13355(15) 0.16788(15)
C8D C 0.08114(18) 0.11396(16) 0.14745(12)
H6D H 0.0852 0.1165 0.1272
C9D C 0.06381(16) 0.09062(15) 0.15669(15)
H7D H 0.0560 0.0772 0.1427
C10D C 0.05784(17) 0.08687(15) 0.18637(16)
C11D C 0.06921(19) 0.10646(18) 0.20681(12)
H8D H 0.0651 0.1039 0.2271
C12D C 0.08655(18) 0.12980(16) 0.19756(14)
H9D H 0.0943 0.1432 0.2115
C13D C -0.0327(3) 0.0543(3) 0.2190(3)
C14D C -0.0332(3) 0.0851(3) 0.2147(3)
C15D C -0.0053(3) 0.0915(3) 0.2034(3)
C16D C 0.0106(3) 0.0635(3) 0.2018(3)
C17D C 0.0402(3) 0.0601(3) 0.1969(3)
C18D C 0.0555(3) 0.0341(3) 0.2015(3)
C19D C 0.0876(3) 0.0306(3) 0.2032(3)
C20D C 0.0920(3) 0.0035(3) 0.2132(3)
C21D C 0.0614(3) -0.0102(3) 0.2190(3)
C22D C -0.0597(3) 0.0391(3) 0.2228(3)
H10D H -0.0768 0.0498 0.2282
C23D C -0.0576(3) 0.1055(3) 0.2190(4)
H11D H -0.0497 0.1239 0.2275
H12D H -0.0712 0.0969 0.2336
C24D C -0.0749(4) 0.1132(5) 0.1922(6)
H13D H -0.0619 0.1221 0.1776
H14D H -0.0904 0.1272 0.1975
H15D H -0.0838 0.0954 0.1841
C25D C 0.0031(4) 0.1219(3) 0.1944(4)
H16D H -0.0131 0.1354 0.1989
H17D H 0.0072 0.1223 0.1733
H18D H 0.0207 0.1280 0.2052
C26D C 0.1110(3) 0.0522(3) 0.1956(4)
H19D H 0.1165 0.0633 0.2132
H20D H 0.1037 0.0657 0.1806
H21D H 0.1283 0.0417 0.1882
C27D C 0.1200(3) -0.0112(4) 0.2205(4)
H22D H 0.1164 -0.0281 0.2337
H23D H 0.1334 0.0026 0.2305
C28D C 0.1330(4) -0.0213(5) 0.1922(5)
H24D H 0.1257 -0.0410 0.1876
H25D H 0.1545 -0.0219 0.1940
H26D H 0.1275 -0.0077 0.1765
N1F N -0.15098(19) -0.19856(15) 0.1569(2)
N2F N -0.1117(2) -0.1566(2) 0.15935(19)
N3F N -0.04181(19) -0.0087(2) 0.2099(2)
N4F N 0.0077(2) -0.0413(2) 0.20949(19)
C1F C -0.17140(18) -0.2195(2) 0.1535(3)
H1F H -0.1912 -0.2136 0.1507
C2F C -0.1652(2) -0.24923(19) 0.1539(3)
H2F H -0.1805 -0.2634 0.1528
C3F C -0.1363(2) -0.25766(18) 0.1558(3)
H3F H -0.1312 -0.2779 0.1550
C4F C -0.11477(19) -0.2366(2) 0.1590(3)
H4F H -0.0948 -0.2421 0.1612
C5F C -0.12270(19) -0.20717(19) 0.1588(3)
C6F C -0.1016(3) -0.1837(3) 0.1622(3)
H5F H -0.0815 -0.1875 0.1664
C7F C -0.09251(18) -0.13355(15) 0.16788(15)
C8F C -0.08114(18) -0.11396(16) 0.14745(12)
H6F H -0.0852 -0.1165 0.1272
C9F C -0.06381(16) -0.09062(15) 0.15669(15)
H7F H -0.0560 -0.0772 0.1427
C10F C -0.05784(17) -0.08687(15) 0.18637(16)
C11F C -0.06921(19) -0.10646(18) 0.20681(12)
H8F H -0.0651 -0.1039 0.2271
C12F C -0.08655(18) -0.12980(16) 0.19756(14)
H9F H -0.0943 -0.1432 0.2115
C13F C 0.0327(3) -0.0543(3) 0.2190(3)
C14F C 0.0332(3) -0.0851(3) 0.2147(3)
C15F C 0.0053(3) -0.0915(3) 0.2034(3)
C16F C -0.0106(3) -0.0635(3) 0.2018(3)
C17F C -0.0402(3) -0.0601(3) 0.1969(3)
C18F C -0.0555(3) -0.0341(3) 0.2015(3)
C19F C -0.0876(3) -0.0306(3) 0.2032(3)
C20F C -0.0920(3) -0.0035(3) 0.2132(3)
C21F C -0.0614(3) 0.0102(3) 0.2190(3)
C22F C 0.0597(3) -0.0391(3) 0.2228(3)
H10F H 0.0768 -0.0498 0.2282
C23F C 0.0576(3) -0.1055(3) 0.2190(4)
H11F H 0.0497 -0.1239 0.2275
H12F H 0.0712 -0.0969 0.2336
C24F C 0.0749(4) -0.1132(5) 0.1922(6)
H13F H 0.0619 -0.1221 0.1776
H14F H 0.0904 -0.1272 0.1975
H15F H 0.0838 -0.0954 0.1841
C25F C -0.0031(4) -0.1219(3) 0.1944(4)
H16F H 0.0131 -0.1354 0.1989
H17F H -0.0072 -0.1223 0.1733
H18F H -0.0207 -0.1280 0.2052
C26F C -0.1110(3) -0.0522(3) 0.1956(4)
H19F H -0.1165 -0.0633 0.2132
H20F H -0.1037 -0.0657 0.1806
H21F H -0.1283 -0.0417 0.1882
C27F C -0.1200(3) 0.0112(4) 0.2205(4)
H22F H -0.1164 0.0281 0.2337
H23F H -0.1334 -0.0026 0.2305
C28F C -0.1330(4) 0.0213(5) 0.1922(5)
H24F H -0.1257 0.0410 0.1876
H25F H -0.1545 0.0219 0.1940
H26F H -0.1275 0.0077 0.1765
Fe1C Fe 0.15550(4) -0.15550(4) -0.15550(4)
Ni1E Ni 0.0000 0.0000 -0.21047(5)
N1E N 0.15098(19) -0.19856(15) -0.1569(2)
N2E N 0.1117(2) -0.1566(2) -0.15935(19)
N3E N 0.04181(19) -0.0087(2) -0.2099(2)
N4E N -0.0077(2) -0.0413(2) -0.20949(19)
C1E C 0.17140(18) -0.2195(2) -0.1535(3)
H1E H 0.1912 -0.2136 -0.1507
C2E C 0.1652(2) -0.24923(19) -0.1539(3)
H2E H 0.1805 -0.2634 -0.1528
C3E C 0.1363(2) -0.25766(18) -0.1558(3)
H3E H 0.1312 -0.2779 -0.1550
C4E C 0.11477(19) -0.2366(2) -0.1590(3)
H4E H 0.0948 -0.2421 -0.1612
C5E C 0.12270(19) -0.20717(19) -0.1588(3)
C6E C 0.1016(3) -0.1837(3) -0.1622(3)
H5E H 0.0815 -0.1875 -0.1664
C7E C 0.09251(18) -0.13355(15) -0.16788(15)
C8E C 0.08114(18) -0.11396(16) -0.14745(12)
H6E H 0.0852 -0.1165 -0.1272
C9E C 0.06381(16) -0.09062(15) -0.15669(15)
H7E H 0.0560 -0.0772 -0.1427
C10E C 0.05784(17) -0.08687(15) -0.18637(16)
C11E C 0.06921(19) -0.10646(18) -0.20681(12)
H8E H 0.0651 -0.1039 -0.2271
C12E C 0.08655(18) -0.12980(16) -0.19756(14)
H9E H 0.0943 -0.1432 -0.2115
C13E C -0.0327(3) -0.0543(3) -0.2190(3)
C14E C -0.0332(3) -0.0851(3) -0.2147(3)
C15E C -0.0053(3) -0.0915(3) -0.2034(3)
C16E C 0.0106(3) -0.0635(3) -0.2018(3)
C17E C 0.0402(3) -0.0601(3) -0.1969(3)
C18E C 0.0555(3) -0.0341(3) -0.2015(3)
C19E C 0.0876(3) -0.0306(3) -0.2032(3)
C20E C 0.0920(3) -0.0035(3) -0.2132(3)
C21E C 0.0614(3) 0.0102(3) -0.2190(3)
C22E C -0.0597(3) -0.0391(3) -0.2228(3)
H10E H -0.0768 -0.0498 -0.2282
C23E C -0.0576(3) -0.1055(3) -0.2190(4)
H11E H -0.0497 -0.1239 -0.2275
H12E H -0.0712 -0.0969 -0.2336
C24E C -0.0749(4) -0.1132(5) -0.1922(6)
H13E H -0.0619 -0.1221 -0.1776
H14E H -0.0904 -0.1272 -0.1975
H15E H -0.0838 -0.0954 -0.1841
C25E C 0.0031(4) -0.1219(3) -0.1944(4)
H16E H -0.0131 -0.1354 -0.1989
H17E H 0.0072 -0.1223 -0.1733
H18E H 0.0207 -0.1280 -0.2052
C26E C 0.1110(3) -0.0522(3) -0.1956(4)
H19E H 0.1165 -0.0633 -0.2132
H20E H 0.1037 -0.0657 -0.1806
H21E H 0.1283 -0.0417 -0.1882
C27E C 0.1200(3) 0.0112(4) -0.2205(4)
H22E H 0.1164 0.0281 -0.2337
H23E H 0.1334 -0.0026 -0.2305
C28E C 0.1330(4) 0.0213(5) -0.1922(5)
H24E H 0.1257 0.0410 -0.1876
H25E H 0.1545 0.0219 -0.1940
H26E H 0.1275 0.0077 -0.1765
N1G N -0.15098(19) 0.19856(15) -0.1569(2)
N2G N -0.1117(2) 0.1566(2) -0.15935(19)
N3G N -0.04181(19) 0.0087(2) -0.2099(2)
N4G N 0.0077(2) 0.0413(2) -0.20949(19)
C1G C -0.17140(18) 0.2195(2) -0.1535(3)
H1G H -0.1912 0.2136 -0.1507
C2G C -0.1652(2) 0.24923(19) -0.1539(3)
H2G H -0.1805 0.2634 -0.1528
C3G C -0.1363(2) 0.25766(18) -0.1558(3)
H3G H -0.1312 0.2779 -0.1550
C4G C -0.11477(19) 0.2366(2) -0.1590(3)
H4G H -0.0948 0.2421 -0.1612
C5G C -0.12270(19) 0.20717(19) -0.1588(3)
C6G C -0.1016(3) 0.1837(3) -0.1622(3)
H5G H -0.0815 0.1875 -0.1664
C7G C -0.09251(18) 0.13355(15) -0.16788(15)
C8G C -0.08114(18) 0.11396(16) -0.14745(12)
H6G H -0.0852 0.1165 -0.1272
C9G C -0.06381(16) 0.09062(15) -0.15669(15)
H7G H -0.0560 0.0772 -0.1427
C10G C -0.05784(17) 0.08687(15) -0.18637(16)
C11G C -0.06921(19) 0.10646(18) -0.20681(12)
H8G H -0.0651 0.1039 -0.2271
C12G C -0.08655(18) 0.12980(16) -0.19756(14)
H9G H -0.0943 0.1432 -0.2115
C13G C 0.0327(3) 0.0543(3) -0.2190(3)
C14G C 0.0332(3) 0.0851(3) -0.2147(3)
C15G C 0.0053(3) 0.0915(3) -0.2034(3)
C16G C -0.0106(3) 0.0635(3) -0.2018(3)
C17G C -0.0402(3) 0.0601(3) -0.1969(3)
C18G C -0.0555(3) 0.0341(3) -0.2015(3)
C19G C -0.0876(3) 0.0306(3) -0.2032(3)
C20G C -0.0920(3) 0.0035(3) -0.2132(3)
C21G C -0.0614(3) -0.0102(3) -0.2190(3)
C22G C 0.0597(3) 0.0391(3) -0.2228(3)
H10G H 0.0768 0.0498 -0.2282
C23G C 0.0576(3) 0.1055(3) -0.2190(4)
H11G H 0.0497 0.1239 -0.2275
H12G H 0.0712 0.0969 -0.2336
C24G C 0.0749(4) 0.1132(5) -0.1922(6)
H13G H 0.0619 0.1221 -0.1776
H14G H 0.0904 0.1272 -0.1975
H15G H 0.0838 0.0954 -0.1841
C25G C -0.0031(4) 0.1219(3) -0.1944(4)
H16G H 0.0131 0.1354 -0.1989
H17G H -0.0072 0.1223 -0.1733
H18G H -0.0207 0.1280 -0.2052
C26G C -0.1110(3) 0.0522(3) -0.1956(4)
H19G H -0.1165 0.0633 -0.2132
H20G H -0.1037 0.0657 -0.1806
H21G H -0.1283 0.0417 -0.1882
C27G C -0.1200(3) -0.0112(4) -0.2205(4)
H22G H -0.1164 -0.0281 -0.2337
H23G H -0.1334 0.0026 -0.2305
C28G C -0.1330(4) -0.0213(5) -0.1922(5)
H24G H -0.1257 -0.0410 -0.1876
H25G H -0.1545 -0.0219 -0.1940
H26G H -0.1275 -0.0077 -0.1765
Fe1A Fe -0.15550(4) -0.15550(4) 0.15550(4)
Ni1H Ni 0.21047(5) 0.0000 0.0000
N1H N 0.1569(2) 0.15098(19) 0.19856(15)
N2H N 0.15935(19) 0.1117(2) 0.1566(2)
N3H N 0.2099(2) 0.04181(19) 0.0087(2)
N4H N 0.20949(19) -0.0077(2) 0.0413(2)
C1H C 0.1535(3) 0.17140(18) 0.2195(2)
H1H H 0.1507 0.1912 0.2136
C2H C 0.1539(3) 0.1652(2) 0.24923(19)
H2H H 0.1528 0.1805 0.2634
C3H C 0.1558(3) 0.1363(2) 0.25766(18)
H3H H 0.1550 0.1312 0.2779
C4H C 0.1590(3) 0.11477(19) 0.2366(2)
H4H H 0.1612 0.0948 0.2421
C5H C 0.1588(3) 0.12270(19) 0.20717(19)
C6H C 0.1622(3) 0.1016(3) 0.1837(3)
H5H H 0.1664 0.0815 0.1875
C7H C 0.16788(15) 0.09251(18) 0.13355(15)
C8H C 0.14745(12) 0.08114(18) 0.11396(16)
H6H H 0.1272 0.0852 0.1165
C9H C 0.15669(15) 0.06381(16) 0.09062(15)
H7H H 0.1427 0.0560 0.0772
C10H C 0.18637(16) 0.05784(17) 0.08687(15)
C11H C 0.20681(12) 0.06921(19) 0.10646(18)
H8H H 0.2271 0.0651 0.1039
C12H C 0.19756(14) 0.08655(18) 0.12980(16)
H9H H 0.2115 0.0943 0.1432
C13H C 0.2190(3) -0.0327(3) 0.0543(3)
C14H C 0.2147(3) -0.0332(3) 0.0851(3)
C15H C 0.2034(3) -0.0053(3) 0.0915(3)
C16H C 0.2018(3) 0.0106(3) 0.0635(3)
C17H C 0.1969(3) 0.0402(3) 0.0601(3)
C18H C 0.2015(3) 0.0555(3) 0.0341(3)
C19H C 0.2032(3) 0.0876(3) 0.0306(3)
C20H C 0.2132(3) 0.0920(3) 0.0035(3)
C21H C 0.2190(3) 0.0614(3) -0.0102(3)
C22H C 0.2228(3) -0.0597(3) 0.0391(3)
H10H H 0.2282 -0.0768 0.0498
C23H C 0.2190(4) -0.0576(3) 0.1055(3)
H11H H 0.2275 -0.0497 0.1239
H12H H 0.2336 -0.0712 0.0969
C24H C 0.1922(6) -0.0749(4) 0.1132(5)
H13H H 0.1776 -0.0619 0.1221
H14H H 0.1975 -0.0904 0.1272
H15H H 0.1841 -0.0838 0.0954
C25H C 0.1944(4) 0.0031(4) 0.1219(3)
H16H H 0.1989 -0.0131 0.1354
H17H H 0.1733 0.0072 0.1223
H18H H 0.2052 0.0207 0.1280
C26H C 0.1956(4) 0.1110(3) 0.0522(3)
H19H H 0.2132 0.1165 0.0633
H20H H 0.1806 0.1037 0.0657
H21H H 0.1882 0.1283 0.0417
C27H C 0.2205(4) 0.1200(3) -0.0112(4)
H22H H 0.2337 0.1164 -0.0281
H23H H 0.2305 0.1334 0.0026
C28H C 0.1922(5) 0.1330(4) -0.0213(5)
H24H H 0.1876 0.1257 -0.0410
H25H H 0.1940 0.1545 -0.0219
H26H H 0.1765 0.1275 -0.0077
N1J N 0.1569(2) -0.15098(19) -0.19856(15)
N2J N 0.15935(19) -0.1117(2) -0.1566(2)
N3J N 0.2099(2) -0.04181(19) -0.0087(2)
N4J N 0.20949(19) 0.0077(2) -0.0413(2)
C1J C 0.1535(3) -0.17140(18) -0.2195(2)
H1J H 0.1507 -0.1912 -0.2136
C2J C 0.1539(3) -0.1652(2) -0.24923(19)
H2J H 0.1528 -0.1805 -0.2634
C3J C 0.1558(3) -0.1363(2) -0.25766(18)
H3J H 0.1550 -0.1312 -0.2779
C4J C 0.1590(3) -0.11477(19) -0.2366(2)
H4J H 0.1612 -0.0948 -0.2421
C5J C 0.1588(3) -0.12270(19) -0.20717(19)
C6J C 0.1622(3) -0.1016(3) -0.1837(3)
H5J H 0.1664 -0.0815 -0.1875
C7J C 0.16788(15) -0.09251(18) -0.13355(15)
C8J C 0.14745(12) -0.08114(18) -0.11396(16)
H6J H 0.1272 -0.0852 -0.1165
C9J C 0.15669(15) -0.06381(16) -0.09062(15)
H7J H 0.1427 -0.0560 -0.0772
C10J C 0.18637(16) -0.05784(17) -0.08687(15)
C11J C 0.20681(12) -0.06921(19) -0.10646(18)
H8J H 0.2271 -0.0651 -0.1039
C12J C 0.19756(14) -0.08655(18) -0.12980(16)
H9J H 0.2115 -0.0943 -0.1432
C13J C 0.2190(3) 0.0327(3) -0.0543(3)
C14J C 0.2147(3) 0.0332(3) -0.0851(3)
C15J C 0.2034(3) 0.0053(3) -0.0915(3)
C16J C 0.2018(3) -0.0106(3) -0.0635(3)
C17J C 0.1969(3) -0.0402(3) -0.0601(3)
C18J C 0.2015(3) -0.0555(3) -0.0341(3)
C19J C 0.2032(3) -0.0876(3) -0.0306(3)
C20J C 0.2132(3) -0.0920(3) -0.0035(3)
C21J C 0.2190(3) -0.0614(3) 0.0102(3)
C22J C 0.2228(3) 0.0597(3) -0.0391(3)
H10J H 0.2282 0.0768 -0.0498
C23J C 0.2190(4) 0.0576(3) -0.1055(3)
H11J H 0.2275 0.0497 -0.1239
H12J H 0.2336 0.0712 -0.0969
C24J C 0.1922(6) 0.0749(4) -0.1132(5)
H13J H 0.1776 0.0619 -0.1221
H14J H 0.1975 0.0904 -0.1272
H15J H 0.1841 0.0838 -0.0954
C25J C 0.1944(4) -0.0031(4) -0.1219(3)
H16J H 0.1989 0.0131 -0.1354
H17J H 0.1733 -0.0072 -0.1223
H18J H 0.2052 -0.0207 -0.1280
C26J C 0.1956(4) -0.1110(3) -0.0522(3)
H19J H 0.2132 -0.1165 -0.0633
H20J H 0.1806 -0.1037 -0.0657
H21J H 0.1882 -0.1283 -0.0417
C27J C 0.2205(4) -0.1200(3) 0.0112(4)
H22J H 0.2337 -0.1164 0.0281
H23J H 0.2305 -0.1334 -0.0026
C28J C 0.1922(5) -0.1330(4) 0.0213(5)
H24J H 0.1876 -0.1257 0.0410
H25J H 0.1940 -0.1545 0.0219
H26J H 0.1765 -0.1275 0.0077
Ni1I Ni -0.21047(5) 0.0000 0.0000
N1I N -0.1569(2) 0.15098(19) -0.19856(15)
N2I N -0.15935(19) 0.1117(2) -0.1566(2)
N3I N -0.2099(2) 0.04181(19) -0.0087(2)
N4I N -0.20949(19) -0.0077(2) -0.0413(2)
C1I C -0.1535(3) 0.17140(18) -0.2195(2)
H1I H -0.1507 0.1912 -0.2136
C2I C -0.1539(3) 0.1652(2) -0.24923(19)
H2I H -0.1528 0.1805 -0.2634
C3I C -0.1558(3) 0.1363(2) -0.25766(18)
H3I H -0.1550 0.1312 -0.2779
C4I C -0.1590(3) 0.11477(19) -0.2366(2)
H4I H -0.1612 0.0948 -0.2421
C5I C -0.1588(3) 0.12270(19) -0.20717(19)
C6I C -0.1622(3) 0.1016(3) -0.1837(3)
H5I H -0.1664 0.0815 -0.1875
C7I C -0.16788(15) 0.09251(18) -0.13355(15)
C8I C -0.14745(12) 0.08114(18) -0.11396(16)
H6I H -0.1272 0.0852 -0.1165
C9I C -0.15669(15) 0.06381(16) -0.09062(15)
H7I H -0.1427 0.0560 -0.0772
C10I C -0.18637(16) 0.05784(17) -0.08687(15)
C11I C -0.20681(12) 0.06921(19) -0.10646(18)
H8I H -0.2271 0.0651 -0.1039
C12I C -0.19756(14) 0.08655(18) -0.12980(16)
H9I H -0.2115 0.0943 -0.1432
C13I C -0.2190(3) -0.0327(3) -0.0543(3)
C14I C -0.2147(3) -0.0332(3) -0.0851(3)
C15I C -0.2034(3) -0.0053(3) -0.0915(3)
C16I C -0.2018(3) 0.0106(3) -0.0635(3)
C17I C -0.1969(3) 0.0402(3) -0.0601(3)
C18I C -0.2015(3) 0.0555(3) -0.0341(3)
C19I C -0.2032(3) 0.0876(3) -0.0306(3)
C20I C -0.2132(3) 0.0920(3) -0.0035(3)
C21I C -0.2190(3) 0.0614(3) 0.0102(3)
C22I C -0.2228(3) -0.0597(3) -0.0391(3)
H10I H -0.2282 -0.0768 -0.0498
C23I C -0.2190(4) -0.0576(3) -0.1055(3)
H11I H -0.2275 -0.0497 -0.1239
H12I H -0.2336 -0.0712 -0.0969
C24I C -0.1922(6) -0.0749(4) -0.1132(5)
H13I H -0.1776 -0.0619 -0.1221
H14I H -0.1975 -0.0904 -0.1272
H15I H -0.1841 -0.0838 -0.0954
C25I C -0.1944(4) 0.0031(4) -0.1219(3)
H16I H -0.1989 -0.0131 -0.1354
H17I H -0.1733 0.0072 -0.1223
H18I H -0.2052 0.0207 -0.1280
C26I C -0.1956(4) 0.1110(3) -0.0522(3)
H19I H -0.2132 0.1165 -0.0633
H20I H -0.1806 0.1037 -0.0657
H21I H -0.1882 0.1283 -0.0417
C27I C -0.2205(4) 0.1200(3) 0.0112(4)
H22I H -0.2337 0.1164 0.0281
H23I H -0.2305 0.1334 -0.0026
C28I C -0.1922(5) 0.1330(4) 0.0213(5)
H24I H -0.1876 0.1257 0.0410
H25I H -0.1940 0.1545 0.0219
H26I H -0.1765 0.1275 0.0077
N1K N -0.1569(2) -0.15098(19) 0.19856(15)
N2K N -0.15935(19) -0.1117(2) 0.1566(2)
N3K N -0.2099(2) -0.04181(19) 0.0087(2)
N4K N -0.20949(19) 0.0077(2) 0.0413(2)
C1K C -0.1535(3) -0.17140(18) 0.2195(2)
H1K H -0.1507 -0.1912 0.2136
C2K C -0.1539(3) -0.1652(2) 0.24923(19)
H2K H -0.1528 -0.1805 0.2634
C3K C -0.1558(3) -0.1363(2) 0.25766(18)
H3K H -0.1550 -0.1312 0.2779
C4K C -0.1590(3) -0.11477(19) 0.2366(2)
H4K H -0.1612 -0.0948 0.2421
C5K C -0.1588(3) -0.12270(19) 0.20717(19)
C6K C -0.1622(3) -0.1016(3) 0.1837(3)
H5K H -0.1664 -0.0815 0.1875
C7K C -0.16788(15) -0.09251(18) 0.13355(15)
C8K C -0.14745(12) -0.08114(18) 0.11396(16)
H6K H -0.1272 -0.0852 0.1165
C9K C -0.15669(15) -0.06381(16) 0.09062(15)
H7K H -0.1427 -0.0560 0.0772
C10K C -0.18637(16) -0.05784(17) 0.08687(15)
C11K C -0.20681(12) -0.06921(19) 0.10646(18)
H8K H -0.2271 -0.0651 0.1039
C12K C -0.19756(14) -0.08655(18) 0.12980(16)
H9K H -0.2115 -0.0943 0.1432
C13K C -0.2190(3) 0.0327(3) 0.0543(3)
C14K C -0.2147(3) 0.0332(3) 0.0851(3)
C15K C -0.2034(3) 0.0053(3) 0.0915(3)
C16K C -0.2018(3) -0.0106(3) 0.0635(3)
C17K C -0.1969(3) -0.0402(3) 0.0601(3)
C18K C -0.2015(3) -0.0555(3) 0.0341(3)
C19K C -0.2032(3) -0.0876(3) 0.0306(3)
C20K C -0.2132(3) -0.0920(3) 0.0035(3)
C21K C -0.2190(3) -0.0614(3) -0.0102(3)
C22K C -0.2228(3) 0.0597(3) 0.0391(3)
H10K H -0.2282 0.0768 0.0498
C23K C -0.2190(4) 0.0576(3) 0.1055(3)
H11K H -0.2275 0.0497 0.1239
H12K H -0.2336 0.0712 0.0969
C24K C -0.1922(6) 0.0749(4) 0.1132(5)
H13K H -0.1776 0.0619 0.1221
H14K H -0.1975 0.0904 0.1272
H15K H -0.1841 0.0838 0.0954
C25K C -0.1944(4) -0.0031(4) 0.1219(3)
H16K H -0.1989 0.0131 0.1354
H17K H -0.1733 -0.0072 0.1223
H18K H -0.2052 -0.0207 0.1280
C26K C -0.1956(4) -0.1110(3) 0.0522(3)
H19K H -0.2132 -0.1165 0.0633
H20K H -0.1806 -0.1037 0.0657
H21K H -0.1882 -0.1283 0.0417
C27K C -0.2205(4) -0.1200(3) -0.0112(4)
H22K H -0.2337 -0.1164 -0.0281
H23K H -0.2305 -0.1334 0.0026
C28K C -0.1922(5) -0.1330(4) -0.0213(5)
H24K H -0.1876 -0.1257 -0.0410
H25K H -0.1940 -0.1545 -0.0219
H26K H -0.1765 -0.1275 -0.0077
Ni1A Ni 0.0000 -0.21047(5) 0.0000
N1A N -0.19856(15) -0.1569(2) 0.15098(19)
N2A N -0.1566(2) -0.15935(19) 0.1117(2)
N3A N -0.0087(2) -0.2099(2) 0.04181(19)
N4A N -0.0413(2) -0.20949(19) -0.0077(2)
C1A C -0.2195(2) -0.1535(3) 0.17140(18)
H1A H -0.2136 -0.1507 0.1912
C2A C -0.24923(19) -0.1539(3) 0.1652(2)
H2A H -0.2634 -0.1528 0.1805
C3A C -0.25766(18) -0.1558(3) 0.1363(2)
H3A H -0.2779 -0.1550 0.1312
C4A C -0.2366(2) -0.1590(3) 0.11477(19)
H4A H -0.2421 -0.1612 0.0948
C5A C -0.20717(19) -0.1588(3) 0.12270(19)
C6A C -0.1837(3) -0.1622(3) 0.1016(3)
H5A H -0.1875 -0.1664 0.0815
C7A C -0.13355(15) -0.16788(15) 0.09251(18)
C8A C -0.11396(16) -0.14745(12) 0.08114(18)
H6A H -0.1165 -0.1272 0.0852
C9A C -0.09062(15) -0.15669(15) 0.06381(16)
H7A H -0.0772 -0.1427 0.0560
C10A C -0.08687(15) -0.18637(16) 0.05784(17)
C11A C -0.10646(18) -0.20681(12) 0.06921(19)
H8A H -0.1039 -0.2271 0.0651
C12A C -0.12980(16) -0.19756(14) 0.08655(18)
H9A H -0.1432 -0.2115 0.0943
C13A C -0.0543(3) -0.2190(3) -0.0327(3)
C14A C -0.0851(3) -0.2147(3) -0.0332(3)
C15A C -0.0915(3) -0.2034(3) -0.0053(3)
C16A C -0.0635(3) -0.2018(3) 0.0106(3)
C17A C -0.0601(3) -0.1969(3) 0.0402(3)
C18A C -0.0341(3) -0.2015(3) 0.0555(3)
C19A C -0.0306(3) -0.2032(3) 0.0876(3)
C20A C -0.0035(3) -0.2132(3) 0.0920(3)
C21A C 0.0102(3) -0.2190(3) 0.0614(3)
C22A C -0.0391(3) -0.2228(3) -0.0597(3)
H10A H -0.0498 -0.2282 -0.0768
C23A C -0.1055(3) -0.2190(4) -0.0576(3)
H11A H -0.1239 -0.2275 -0.0497
H12A H -0.0969 -0.2336 -0.0712
C24A C -0.1132(5) -0.1922(6) -0.0749(4)
H13A H -0.1221 -0.1776 -0.0619
H14A H -0.1272 -0.1975 -0.0904
H15A H -0.0954 -0.1841 -0.0838
C25A C -0.1219(3) -0.1944(4) 0.0031(4)
H16A H -0.1354 -0.1989 -0.0131
H17A H -0.1223 -0.1733 0.0072
H18A H -0.1280 -0.2052 0.0207
C26A C -0.0522(3) -0.1956(4) 0.1110(3)
H19A H -0.0633 -0.2132 0.1165
H20A H -0.0657 -0.1806 0.1037
H21A H -0.0417 -0.1882 0.1283
C27A C 0.0112(4) -0.2205(4) 0.1200(3)
H22A H 0.0281 -0.2337 0.1164
H23A H -0.0026 -0.2305 0.1334
C28A C 0.0213(5) -0.1922(5) 0.1330(4)
H24A H 0.0410 -0.1876 0.1257
H25A H 0.0219 -0.1940 0.1545
H26A H 0.0077 -0.1765 0.1275
N1C N 0.19856(15) -0.1569(2) -0.15098(19)
N2C N 0.1566(2) -0.15935(19) -0.1117(2)
N3C N 0.0087(2) -0.2099(2) -0.04181(19)
N4C N 0.0413(2) -0.20949(19) 0.0077(2)
C1C C 0.2195(2) -0.1535(3) -0.17140(18)
H1C H 0.2136 -0.1507 -0.1912
C2C C 0.24923(19) -0.1539(3) -0.1652(2)
H2C H 0.2634 -0.1528 -0.1805
C3C C 0.25766(18) -0.1558(3) -0.1363(2)
H3C H 0.2779 -0.1550 -0.1312
C4C C 0.2366(2) -0.1590(3) -0.11477(19)
H4C H 0.2421 -0.1612 -0.0948
C5C C 0.20717(19) -0.1588(3) -0.12270(19)
C6C C 0.1837(3) -0.1622(3) -0.1016(3)
H5C H 0.1875 -0.1664 -0.0815
C7C C 0.13355(15) -0.16788(15) -0.09251(18)
C8C C 0.11396(16) -0.14745(12) -0.08114(18)
H6C H 0.1165 -0.1272 -0.0852
C9C C 0.09062(15) -0.15669(15) -0.06381(16)
H7C H 0.0772 -0.1427 -0.0560
C10C C 0.08687(15) -0.18637(16) -0.05784(17)
C11C C 0.10646(18) -0.20681(12) -0.06921(19)
H8C H 0.1039 -0.2271 -0.0651
C12C C 0.12980(16) -0.19756(14) -0.08655(18)
H9C H 0.1432 -0.2115 -0.0943
C13C C 0.0543(3) -0.2190(3) 0.0327(3)
C14C C 0.0851(3) -0.2147(3) 0.0332(3)
C15C C 0.0915(3) -0.2034(3) 0.0053(3)
C16C C 0.0635(3) -0.2018(3) -0.0106(3)
C17C C 0.0601(3) -0.1969(3) -0.0402(3)
C18C C 0.0341(3) -0.2015(3) -0.0555(3)
C19C C 0.0306(3) -0.2032(3) -0.0876(3)
C20C C 0.0035(3) -0.2132(3) -0.0920(3)
C21C C -0.0102(3) -0.2190(3) -0.0614(3)
C22C C 0.0391(3) -0.2228(3) 0.0597(3)
H10C H 0.0498 -0.2282 0.0768
C23C C 0.1055(3) -0.2190(4) 0.0576(3)
H11C H 0.1239 -0.2275 0.0497
H12C H 0.0969 -0.2336 0.0712
C24C C 0.1132(5) -0.1922(6) 0.0749(4)
H13C H 0.1221 -0.1776 0.0619
H14C H 0.1272 -0.1975 0.0904
H15C H 0.0954 -0.1841 0.0838
C25C C 0.1219(3) -0.1944(4) -0.0031(4)
H16C H 0.1354 -0.1989 0.0131
H17C H 0.1223 -0.1733 -0.0072
H18C H 0.1280 -0.2052 -0.0207
C26C C 0.0522(3) -0.1956(4) -0.1110(3)
H19C H 0.0633 -0.2132 -0.1165
H20C H 0.0657 -0.1806 -0.1037
H21C H 0.0417 -0.1882 -0.1283
C27C C -0.0112(4) -0.2205(4) -0.1200(3)
H22C H -0.0281 -0.2337 -0.1164
H23C H 0.0026 -0.2305 -0.1334
C28C C -0.0213(5) -0.1922(5) -0.1330(4)
H24C H -0.0410 -0.1876 -0.1257
H25C H -0.0219 -0.1940 -0.1545
H26C H -0.0077 -0.1765 -0.1275
loop_
_geom_bond_atom_site_label_1
_geom_bond_atom_site_label_2
_geom_bond_site_symmetry_1
_geom_bond_site_symmetry_2
Fe1 N1 1_555 1_555
Ni1 N3 1_555 1_555
N1 C1 1_555 1_555
N2 Fe1 1_555 1_555
N3 C18 1_555 1_555
N4 Ni1 1_555 1_555
C1 H1 1_555 1_555
C2 C1 1_555 1_555
H2 C2 1_555 1_555
C3 C2 1_555 1_555
H3 C3 1_555 1_555
C4 C3 1_555 1_555
H4 C4 1_555 1_555
C5 N1 1_555 1_555
C6 N2 1_555 1_555
H5 C6 1_555 1_555
C7 N2 1_555 1_555
C8 C7 1_555 1_555
H6 C8 1_555 1_555
C9 C8 1_555 1_555
H7 C9 1_555 1_555
C10 C9 1_555 1_555
C11 C10 1_555 1_555
H8 C11 1_555 1_555
C12 C7 1_555 1_555
H9 C12 1_555 1_555
C13 N4 1_555 1_555
C14 C13 1_555 1_555
C15 C14 1_555 1_555
C16 N4 1_555 1_555
C17 C10 1_555 1_555
C18 C17 1_555 1_555
C19 C18 1_555 1_555
C20 C19 1_555 1_555
C21 N3 1_555 1_555
C22 C13 1_555 1_555
H10 C22 1_555 1_555
C23 C14 1_555 1_555
H11 C23 1_555 1_555
H12 C23 1_555 1_555
C24 C23 1_555 1_555
H13 C24 1_555 1_555
H14 C24 1_555 1_555
H15 C24 1_555 1_555
C25 C15 1_555 1_555
H16 C25 1_555 1_555
H17 C25 1_555 1_555
H18 C25 1_555 1_555
C26 C19 1_555 1_555
H19 C26 1_555 1_555
H20 C26 1_555 1_555
H21 C26 1_555 1_555
C27 C20 1_555 1_555
H22 C27 1_555 1_555
H23 C27 1_555 1_555
C28 C27 1_555 1_555
H24 C28 1_555 1_555
H25 C28 1_555 1_555
H26 C28 1_555 1_555
N1B C1B 1_555 1_555
N2B C6B 1_555 1_555
N3B Ni1 1_555 1_555
N4B Ni1 1_555 1_555
C1B H1B 1_555 1_555
C2B C1B 1_555 1_555
H2B C2B 1_555 1_555
C3B C2B 1_555 1_555
H3B C3B 1_555 1_555
C4B C3B 1_555 1_555
H4B C4B 1_555 1_555
C5B N1B 1_555 1_555
C6B C5B 1_555 1_555
H5B C6B 1_555 1_555
C7B N2B 1_555 1_555
C8B C7B 1_555 1_555
H6B C8B 1_555 1_555
C9B C8B 1_555 1_555
H7B C9B 1_555 1_555
C10B C9B 1_555 1_555
C11B C10B 1_555 1_555
H8B C11B 1_555 1_555
C12B C7B 1_555 1_555
H9B C12B 1_555 1_555
C13B N4B 1_555 1_555
C14B C13B 1_555 1_555
C15B C14B 1_555 1_555
C16B N4B 1_555 1_555
C17B C10B 1_555 1_555
C18B N3B 1_555 1_555
C19B C18B 1_555 1_555
C20B C19B 1_555 1_555
C21B C22 1_555 1_555
C22B C21 1_555 1_555
H10B C22B 1_555 1_555
C23B C14B 1_555 1_555
H11B C23B 1_555 1_555
H12B C23B 1_555 1_555
C24B C23B 1_555 1_555
H13B C24B 1_555 1_555
H14B C24B 1_555 1_555
H15B C24B 1_555 1_555
C25B C15B 1_555 1_555
H16B C25B 1_555 1_555
H17B C25B 1_555 1_555
H18B C25B 1_555 1_555
C26B C19B 1_555 1_555
H19B C26B 1_555 1_555
H20B C26B 1_555 1_555
H21B C26B 1_555 1_555
C27B C20B 1_555 1_555
H22B C27B 1_555 1_555
H23B C27B 1_555 1_555
C28B C27B 1_555 1_555
H24B C28B 1_555 1_555
H25B C28B 1_555 1_555
H26B C28B 1_555 1_555
Fe1B N1B 1_555 1_555
Ni1D N3D 1_555 1_555
N1D Fe1 1_555 1_555
N2D Fe1 1_555 1_555
N3D C18D 1_555 1_555
N4D Ni1D 1_555 1_555
C1D N1D 1_555 1_555
H1D C1D 1_555 1_555
C2D C1D 1_555 1_555
H2D C2D 1_555 1_555
C3D C2D 1_555 1_555
H3D C3D 1_555 1_555
C4D C3D 1_555 1_555
H4D C4D 1_555 1_555
C5D N1D 1_555 1_555
C6D N2D 1_555 1_555
H5D C6D 1_555 1_555
C7D N2D 1_555 1_555
C8D C7D 1_555 1_555
H6D C8D 1_555 1_555
C9D C8D 1_555 1_555
H7D C9D 1_555 1_555
C10D C9D 1_555 1_555
C11D C10D 1_555 1_555
H8D C11D 1_555 1_555
C12D C7D 1_555 1_555
H9D C12D 1_555 1_555
C13D N4D 1_555 1_555
C14D C13D 1_555 1_555
C15D C14D 1_555 1_555
C16D N4D 1_555 1_555
C17D C10D 1_555 1_555
C18D C17D 1_555 1_555
C19D C18D 1_555 1_555
C20D C19D 1_555 1_555
C21D N3D 1_555 1_555
C22D C13D 1_555 1_555
H10D C22D 1_555 1_555
C23D C14D 1_555 1_555
H11D C23D 1_555 1_555
H12D C23D 1_555 1_555
C24D C23D 1_555 1_555
H13D C24D 1_555 1_555
H14D C24D 1_555 1_555
H15D C24D 1_555 1_555
C25D C15D 1_555 1_555
H16D C25D 1_555 1_555
H17D C25D 1_555 1_555
H18D C25D 1_555 1_555
C26D C19D 1_555 1_555
H19D C26D 1_555 1_555
H20D C26D 1_555 1_555
H21D C26D 1_555 1_555
C27D C20D 1_555 1_555
H22D C27D 1_555 1_555
H23D C27D 1_555 1_555
C28D C27D 1_555 1_555
H24D C28D 1_555 1_555
H25D C28D 1_555 1_555
H26D C28D 1_555 1_555
N1F C1F 1_555 1_555
N2F C6F 1_555 1_555
N3F Ni1D 1_555 1_555
N4F Ni1D 1_555 1_555
C1F H1F 1_555 1_555
C2F C1F 1_555 1_555
H2F C2F 1_555 1_555
C3F C2F 1_555 1_555
H3F C3F 1_555 1_555
C4F C3F 1_555 1_555
H4F C4F 1_555 1_555
C5F N1F 1_555 1_555
C6F C5F 1_555 1_555
H5F C6F 1_555 1_555
C7F N2F 1_555 1_555
C8F C7F 1_555 1_555
H6F C8F 1_555 1_555
C9F C8F 1_555 1_555
H7F C9F 1_555 1_555
C10F C9F 1_555 1_555
C11F C10F 1_555 1_555
H8F C11F 1_555 1_555
C12F C7F 1_555 1_555
H9F C12F 1_555 1_555
C13F N4F 1_555 1_555
C14F C13F 1_555 1_555
C15F C14F 1_555 1_555
C16F N4F 1_555 1_555
C17F C10F 1_555 1_555
C18F N3F 1_555 1_555
C19F C18F 1_555 1_555
C20F C19F 1_555 1_555
C21F C22D 1_555 1_555
C22F C21D 1_555 1_555
H10F C22F 1_555 1_555
C23F C14F 1_555 1_555
H11F C23F 1_555 1_555
H12F C23F 1_555 1_555
C24F C23F 1_555 1_555
H13F C24F 1_555 1_555
H14F C24F 1_555 1_555
H15F C24F 1_555 1_555
C25F C15F 1_555 1_555
H16F C25F 1_555 1_555
H17F C25F 1_555 1_555
H18F C25F 1_555 1_555
C26F C19F 1_555 1_555
H19F C26F 1_555 1_555
H20F C26F 1_555 1_555
H21F C26F 1_555 1_555
C27F C20F 1_555 1_555
H22F C27F 1_555 1_555
H23F C27F 1_555 1_555
C28F C27F 1_555 1_555
H24F C28F 1_555 1_555
H25F C28F 1_555 1_555
H26F C28F 1_555 1_555
Fe1C N1E 1_555 1_555
Ni1E N3E 1_555 1_555
N1E C1E 1_555 1_555
N2E Fe1C 1_555 1_555
N3E C18E 1_555 1_555
N4E Ni1E 1_555 1_555
C1E H1E 1_555 1_555
C2E C1E 1_555 1_555
H2E C2E 1_555 1_555
C3E C2E 1_555 1_555
H3E C3E 1_555 1_555
C4E C3E 1_555 1_555
H4E C4E 1_555 1_555
C5E N1E 1_555 1_555
C6E N2E 1_555 1_555
H5E C6E 1_555 1_555
C7E N2E 1_555 1_555
C8E C7E 1_555 1_555
H6E C8E 1_555 1_555
C9E C8E 1_555 1_555
H7E C9E 1_555 1_555
C10E C9E 1_555 1_555
C11E C10E 1_555 1_555
H8E C11E 1_555 1_555
C12E C7E 1_555 1_555
H9E C12E 1_555 1_555
C13E N4E 1_555 1_555
C14E C13E 1_555 1_555
C15E C14E 1_555 1_555
C16E N4E 1_555 1_555
C17E C10E 1_555 1_555
C18E C17E 1_555 1_555
C19E C18E 1_555 1_555
C20E C19E 1_555 1_555
C21E N3E 1_555 1_555
C22E C13E 1_555 1_555
H10E C22E 1_555 1_555
C23E C14E 1_555 1_555
H11E C23E 1_555 1_555
H12E C23E 1_555 1_555
C24E C23E 1_555 1_555
H13E C24E 1_555 1_555
H14E C24E 1_555 1_555
H15E C24E 1_555 1_555
C25E C15E 1_555 1_555
H16E C25E 1_555 1_555
H17E C25E 1_555 1_555
H18E C25E 1_555 1_555
C26E C19E 1_555 1_555
H19E C26E 1_555 1_555
H20E C26E 1_555 1_555
H21E C26E 1_555 1_555
C27E C20E 1_555 1_555
H22E C27E 1_555 1_555
H23E C27E 1_555 1_555
C28E C27E 1_555 1_555
H24E C28E 1_555 1_555
H25E C28E 1_555 1_555
H26E C28E 1_555 1_555
N1G Fe1B 1_555 1_555
N2G Fe1B 1_555 1_555
N3G Ni1E 1_555 1_555
N4G Ni1E 1_555 1_555
C1G N1G 1_555 1_555
H1G C1G 1_555 1_555
C2G C1G 1_555 1_555
H2G C2G 1_555 1_555
C3G C2G 1_555 1_555
H3G C3G 1_555 1_555
C4G C3G 1_555 1_555
H4G C4G 1_555 1_555
C5G N1G 1_555 1_555
C6G N2G 1_555 1_555
H5G C6G 1_555 1_555
C7G N2G 1_555 1_555
C8G C7G 1_555 1_555
H6G C8G 1_555 1_555
C9G C8G 1_555 1_555
H7G C9G 1_555 1_555
C10G C9G 1_555 1_555
C11G C10G 1_555 1_555
H8G C11G 1_555 1_555
C12G C7G 1_555 1_555
H9G C12G 1_555 1_555
C13G N4G 1_555 1_555
C14G C13G 1_555 1_555
C15G C14G 1_555 1_555
C16G N4G 1_555 1_555
C17G C10G 1_555 1_555
C18G N3G 1_555 1_555
C19G C18G 1_555 1_555
C20G C19G 1_555 1_555
C21G C22E 1_555 1_555
C22G C21E 1_555 1_555
H10G C22G 1_555 1_555
C23G C14G 1_555 1_555
H11G C23G 1_555 1_555
H12G C23G 1_555 1_555
C24G C23G 1_555 1_555
H13G C24G 1_555 1_555
H14G C24G 1_555 1_555
H15G C24G 1_555 1_555
C25G C15G 1_555 1_555
H16G C25G 1_555 1_555
H17G C25G 1_555 1_555
H18G C25G 1_555 1_555
C26G C19G 1_555 1_555
H19G C26G 1_555 1_555
H20G C26G 1_555 1_555
H21G C26G 1_555 1_555
C27G C20G 1_555 1_555
H22G C27G 1_555 1_555
H23G C27G 1_555 1_555
C28G C27G 1_555 1_555
H24G C28G 1_555 1_555
H25G C28G 1_555 1_555
H26G C28G 1_555 1_555
Fe1A N1F 1_555 1_555
Ni1H N3H 1_555 1_555
N1H Fe1 1_555 1_555
N2H Fe1 1_555 1_555
N3H C18H 1_555 1_555
N4H Ni1H 1_555 1_555
C1H N1H 1_555 1_555
H1H C1H 1_555 1_555
C2H C1H 1_555 1_555
H2H C2H 1_555 1_555
C3H C2H 1_555 1_555
H3H C3H 1_555 1_555
C4H C3H 1_555 1_555
H4H C4H 1_555 1_555
C5H N1H 1_555 1_555
C6H N2H 1_555 1_555
H5H C6H 1_555 1_555
C7H N2H 1_555 1_555
C8H C7H 1_555 1_555
H6H C8H 1_555 1_555
C9H C8H 1_555 1_555
H7H C9H 1_555 1_555
C10H C9H 1_555 1_555
C11H C10H 1_555 1_555
H8H C11H 1_555 1_555
C12H C7H 1_555 1_555
H9H C12H 1_555 1_555
C13H N4H 1_555 1_555
C14H C13H 1_555 1_555
C15H C14H 1_555 1_555
C16H N4H 1_555 1_555
C17H C10H 1_555 1_555
C18H C17H 1_555 1_555
C19H C18H 1_555 1_555
C20H C19H 1_555 1_555
C21H N3H 1_555 1_555
C22H C13H 1_555 1_555
H10H C22H 1_555 1_555
C23H C14H 1_555 1_555
H11H C23H 1_555 1_555
H12H C23H 1_555 1_555
C24H C23H 1_555 1_555
H13H C24H 1_555 1_555
H14H C24H 1_555 1_555
H15H C24H 1_555 1_555
C25H C15H 1_555 1_555
H16H C25H 1_555 1_555
H17H C25H 1_555 1_555
H18H C25H 1_555 1_555
C26H C19H 1_555 1_555
H19H C26H 1_555 1_555
H20H C26H 1_555 1_555
H21H C26H 1_555 1_555
C27H C20H 1_555 1_555
H22H C27H 1_555 1_555
H23H C27H 1_555 1_555
C28H C27H 1_555 1_555
H24H C28H 1_555 1_555
H25H C28H 1_555 1_555
H26H C28H 1_555 1_555
N1J Fe1C 1_555 1_555
N2J Fe1C 1_555 1_555
N3J Ni1H 1_555 1_555
N4J Ni1H 1_555 1_555
C1J N1J 1_555 1_555
H1J C1J 1_555 1_555
C2J C1J 1_555 1_555
H2J C2J 1_555 1_555
C3J C2J 1_555 1_555
H3J C3J 1_555 1_555
C4J C3J 1_555 1_555
H4J C4J 1_555 1_555
C5J N1J 1_555 1_555
C6J N2J 1_555 1_555
H5J C6J 1_555 1_555
C7J N2J 1_555 1_555
C8J C7J 1_555 1_555
H6J C8J 1_555 1_555
C9J C8J 1_555 1_555
H7J C9J 1_555 1_555
C10J C9J 1_555 1_555
C11J C10J 1_555 1_555
H8J C11J 1_555 1_555
C12J C7J 1_555 1_555
H9J C12J 1_555 1_555
C13J N4J 1_555 1_555
C14J C13J 1_555 1_555
C15J C14J 1_555 1_555
C16J N4J 1_555 1_555
C17J C10J 1_555 1_555
C18J N3J 1_555 1_555
C19J C18J 1_555 1_555
C20J C19J 1_555 1_555
C21J C22H 1_555 1_555
C22J C21H 1_555 1_555
H10J C22J 1_555 1_555
C23J C14J 1_555 1_555
H11J C23J 1_555 1_555
H12J C23J 1_555 1_555
C24J C23J 1_555 1_555
H13J C24J 1_555 1_555
H14J C24J 1_555 1_555
H15J C24J 1_555 1_555
C25J C15J 1_555 1_555
H16J C25J 1_555 1_555
H17J C25J 1_555 1_555
H18J C25J 1_555 1_555
C26J C19J 1_555 1_555
H19J C26J 1_555 1_555
H20J C26J 1_555 1_555
H21J C26J 1_555 1_555
C27J C20J 1_555 1_555
H22J C27J 1_555 1_555
H23J C27J 1_555 1_555
C28J C27J 1_555 1_555
H24J C28J 1_555 1_555
H25J C28J 1_555 1_555
H26J C28J 1_555 1_555
Ni1I N3I 1_555 1_555
N1I Fe1B 1_555 1_555
N2I Fe1B 1_555 1_555
N3I C18I 1_555 1_555
N4I Ni1I 1_555 1_555
C1I N1I 1_555 1_555
H1I C1I 1_555 1_555
C2I C1I 1_555 1_555
H2I C2I 1_555 1_555
C3I C2I 1_555 1_555
H3I C3I 1_555 1_555
C4I C3I 1_555 1_555
H4I C4I 1_555 1_555
C5I N1I 1_555 1_555
C6I N2I 1_555 1_555
H5I C6I 1_555 1_555
C7I N2I 1_555 1_555
C8I C7I 1_555 1_555
H6I C8I 1_555 1_555
C9I C8I 1_555 1_555
H7I C9I 1_555 1_555
C10I C9I 1_555 1_555
C11I C10I 1_555 1_555
H8I C11I 1_555 1_555
C12I C7I 1_555 1_555
H9I C12I 1_555 1_555
C13I N4I 1_555 1_555
C14I C13I 1_555 1_555
C15I C14I 1_555 1_555
C16I N4I 1_555 1_555
C17I C10I 1_555 1_555
C18I C17I 1_555 1_555
C19I C18I 1_555 1_555
C20I C19I 1_555 1_555
C21I N3I 1_555 1_555
C22I C13I 1_555 1_555
H10I C22I 1_555 1_555
C23I C14I 1_555 1_555
H11I C23I 1_555 1_555
H12I C23I 1_555 1_555
C24I C23I 1_555 1_555
H13I C24I 1_555 1_555
H14I C24I 1_555 1_555
H15I C24I 1_555 1_555
C25I C15I 1_555 1_555
H16I C25I 1_555 1_555
H17I C25I 1_555 1_555
H18I C25I 1_555 1_555
C26I C19I 1_555 1_555
H19I C26I 1_555 1_555
H20I C26I 1_555 1_555
H21I C26I 1_555 1_555
C27I C20I 1_555 1_555
H22I C27I 1_555 1_555
H23I C27I 1_555 1_555
C28I C27I 1_555 1_555
H24I C28I 1_555 1_555
H25I C28I 1_555 1_555
H26I C28I 1_555 1_555
N1K Fe1A 1_555 1_555
N2K Fe1A 1_555 1_555
N3K Ni1I 1_555 1_555
N4K Ni1I 1_555 1_555
C1K N1K 1_555 1_555
H1K C1K 1_555 1_555
C2K C1K 1_555 1_555
H2K C2K 1_555 1_555
C3K C2K 1_555 1_555
H3K C3K 1_555 1_555
C4K C3K 1_555 1_555
H4K C4K 1_555 1_555
C5K N1K 1_555 1_555
C6K N2K 1_555 1_555
H5K C6K 1_555 1_555
C7K N2K 1_555 1_555
C8K C7K 1_555 1_555
H6K C8K 1_555 1_555
C9K C8K 1_555 1_555
H7K C9K 1_555 1_555
C10K C9K 1_555 1_555
C11K C10K 1_555 1_555
H8K C11K 1_555 1_555
C12K C7K 1_555 1_555
H9K C12K 1_555 1_555
C13K N4K 1_555 1_555
C14K C13K 1_555 1_555
C15K C14K 1_555 1_555
C16K N4K 1_555 1_555
C17K C10K 1_555 1_555
C18K N3K 1_555 1_555
C19K C18K 1_555 1_555
C20K C19K 1_555 1_555
C21K C22I 1_555 1_555
C22K C21I 1_555 1_555
H10K C22K 1_555 1_555
C23K C14K 1_555 1_555
H11K C23K 1_555 1_555
H12K C23K 1_555 1_555
C24K C23K 1_555 1_555
H13K C24K 1_555 1_555
H14K C24K 1_555 1_555
H15K C24K 1_555 1_555
C25K C15K 1_555 1_555
H16K C25K 1_555 1_555
H17K C25K 1_555 1_555
H18K C25K 1_555 1_555
C26K C19K 1_555 1_555
H19K C26K 1_555 1_555
H20K C26K 1_555 1_555
H21K C26K 1_555 1_555
C27K C20K 1_555 1_555
H22K C27K 1_555 1_555
H23K C27K 1_555 1_555
C28K C27K 1_555 1_555
H24K C28K 1_555 1_555
H25K C28K 1_555 1_555
H26K C28K 1_555 1_555
Ni1A N3A 1_555 1_555
N1A Fe1A 1_555 1_555
N2A Fe1A 1_555 1_555
N3A C18A 1_555 1_555
N4A Ni1A 1_555 1_555
C1A N1A 1_555 1_555
H1A C1A 1_555 1_555
C2A C1A 1_555 1_555
H2A C2A 1_555 1_555
C3A C2A 1_555 1_555
H3A C3A 1_555 1_555
C4A C3A 1_555 1_555
H4A C4A 1_555 1_555
C5A N1A 1_555 1_555
C6A N2A 1_555 1_555
H5A C6A 1_555 1_555
C7A N2A 1_555 1_555
C8A C7A 1_555 1_555
H6A C8A 1_555 1_555
C9A C8A 1_555 1_555
H7A C9A 1_555 1_555
C10A C9A 1_555 1_555
C11A C10A 1_555 1_555
H8A C11A 1_555 1_555
C12A C7A 1_555 1_555
H9A C12A 1_555 1_555
C13A N4A 1_555 1_555
C14A C13A 1_555 1_555
C15A C14A 1_555 1_555
C16A N4A 1_555 1_555
C17A C10A 1_555 1_555
C18A C17A 1_555 1_555
C19A C18A 1_555 1_555
C20A C19A 1_555 1_555
C21A N3A 1_555 1_555
C22A C13A 1_555 1_555
H10A C22A 1_555 1_555
C23A C14A 1_555 1_555
H11A C23A 1_555 1_555
H12A C23A 1_555 1_555
C24A C23A 1_555 1_555
H13A C24A 1_555 1_555
H14A C24A 1_555 1_555
H15A C24A 1_555 1_555
C25A C15A 1_555 1_555
H16A C25A 1_555 1_555
H17A C25A 1_555 1_555
H18A C25A 1_555 1_555
C26A C19A 1_555 1_555
H19A C26A 1_555 1_555
H20A C26A 1_555 1_555
H21A C26A 1_555 1_555
C27A C20A 1_555 1_555
H22A C27A 1_555 1_555
H23A C27A 1_555 1_555
C28A C27A 1_555 1_555
H24A C28A 1_555 1_555
H25A C28A 1_555 1_555
H26A C28A 1_555 1_555
N1C Fe1C 1_555 1_555
N2C Fe1C 1_555 1_555
N3C Ni1A 1_555 1_555
N4C Ni1A 1_555 1_555
C1C N1C 1_555 1_555
H1C C1C 1_555 1_555
C2C C1C 1_555 1_555
H2C C2C 1_555 1_555
C3C C2C 1_555 1_555
H3C C3C 1_555 1_555
C4C C3C 1_555 1_555
H4C C4C 1_555 1_555
C5C N1C 1_555 1_555
C6C N2C 1_555 1_555
H5C C6C 1_555 1_555
C7C N2C 1_555 1_555
C8C C7C 1_555 1_555
H6C C8C 1_555 1_555
C9C C8C 1_555 1_555
H7C C9C 1_555 1_555
C10C C9C 1_555 1_555
C11C C10C 1_555 1_555
H8C C11C 1_555 1_555
C12C C7C 1_555 1_555
H9C C12C 1_555 1_555
C13C N4C 1_555 1_555
C14C C13C 1_555 1_555
C15C C14C 1_555 1_555
C16C N4C 1_555 1_555
C17C C10C 1_555 1_555
C18C N3C 1_555 1_555
C19C C18C 1_555 1_555
C20C C19C 1_555 1_555
C21C C22A 1_555 1_555
C22C C21A 1_555 1_555
H10C C22C 1_555 1_555
C23C C14C 1_555 1_555
H11C C23C 1_555 1_555
H12C C23C 1_555 1_555
C24C C23C 1_555 1_555
H13C C24C 1_555 1_555
H14C C24C 1_555 1_555
H15C C24C 1_555 1_555
C25C C15C 1_555 1_555
H16C C25C 1_555 1_555
H17C C25C 1_555 1_555
H18C C25C 1_555 1_555
C26C C19C 1_555 1_555
H19C C26C 1_555 1_555
H20C C26C 1_555 1_555
H21C C26C 1_555 1_555
C27C C20C 1_555 1_555
H22C C27C 1_555 1_555
H23C C27C 1_555 1_555
C28C C27C 1_555 1_555
H24C C28C 1_555 1_555
H25C C28C 1_555 1_555
H26C C28C 1_555 1_555
C4 C5 1_555 1_555
C5 C6 1_555 1_555
C11 C12 1_555 1_555
C15 C16 1_555 1_555
C16 C17 1_555 1_555
C20 C21 1_555 1_555
N2B Fe1B 1_555 1_555
N3B C21B 1_555 1_555
C4B C5B 1_555 1_555
C11B C12B 1_555 1_555
C13B C22B 1_555 1_555
C15B C16B 1_555 1_555
C16B C17B 1_555 1_555
C17B C18B 1_555 1_555
C20B C21B 1_555 1_555
C4D C5D 1_555 1_555
C5D C6D 1_555 1_555
C11D C12D 1_555 1_555
C15D C16D 1_555 1_555
C16D C17D 1_555 1_555
C20D C21D 1_555 1_555
N2F Fe1A 1_555 1_555
N3F C21F 1_555 1_555
C4F C5F 1_555 1_555
C11F C12F 1_555 1_555
C13F C22F 1_555 1_555
C15F C16F 1_555 1_555
C16F C17F 1_555 1_555
C17F C18F 1_555 1_555
C20F C21F 1_555 1_555
C4E C5E 1_555 1_555
C5E C6E 1_555 1_555
C11E C12E 1_555 1_555
C15E C16E 1_555 1_555
C16E C17E 1_555 1_555
C20E C21E 1_555 1_555
N3G C21G 1_555 1_555
C4G C5G 1_555 1_555
C5G C6G 1_555 1_555
C11G C12G 1_555 1_555
C13G C22G 1_555 1_555
C15G C16G 1_555 1_555
C16G C17G 1_555 1_555
C17G C18G 1_555 1_555
C20G C21G 1_555 1_555
C4H C5H 1_555 1_555
C5H C6H 1_555 1_555
C11H C12H 1_555 1_555
C15H C16H 1_555 1_555
C16H C17H 1_555 1_555
C20H C21H 1_555 1_555
N3J C21J 1_555 1_555
C4J C5J 1_555 1_555
C5J C6J 1_555 1_555
C11J C12J 1_555 1_555
C13J C22J 1_555 1_555
C15J C16J 1_555 1_555
C16J C17J 1_555 1_555
C17J C18J 1_555 1_555
C20J C21J 1_555 1_555
C4I C5I 1_555 1_555
C5I C6I 1_555 1_555
C11I C12I 1_555 1_555
C15I C16I 1_555 1_555
C16I C17I 1_555 1_555
C20I C21I 1_555 1_555
N3K C21K 1_555 1_555
C4K C5K 1_555 1_555
C5K C6K 1_555 1_555
C11K C12K 1_555 1_555
C13K C22K 1_555 1_555
C15K C16K 1_555 1_555
C16K C17K 1_555 1_555
C17K C18K 1_555 1_555
C20K C21K 1_555 1_555
C4A C5A 1_555 1_555
C5A C6A 1_555 1_555
C11A C12A 1_555 1_555
C15A C16A 1_555 1_555
C16A C17A 1_555 1_555
C20A C21A 1_555 1_555
N3C C21C 1_555 1_555
C4C C5C 1_555 1_555
C5C C6C 1_555 1_555
C11C C12C 1_555 1_555
C13C C22C 1_555 1_555
C15C C16C 1_555 1_555
C16C C17C 1_555 1_555
C17C C18C 1_555 1_555
C20C C21C 1_555 1_555

#END
