# generated using pymatgen
data_Fe2Ni3H156(C7N)24
_symmetry_space_group_name_H-M   'P 1'
_cell_length_a   32.21818911
_cell_length_b   32.21818911
_cell_length_c   32.21818911
_cell_angle_alpha   60.00000000
_cell_angle_beta   60.00000000
_cell_angle_gamma   60.00000000
_symmetry_Int_Tables_number   1
_chemical_formula_structural   Fe2Ni3H156(C7N)24
_chemical_formula_sum   'Fe8 Ni12 H624 C672 N96'
_cell_volume   23647.67136870
_cell_formula_units_Z   4
loop_
 _symmetry_equiv_pos_site_id
 _symmetry_equiv_pos_as_xyz
  1  'x, y, z'
loop_
 _atom_site_type_symbol
 _atom_site_label
 _atom_site_symmetry_multiplicity
 _atom_site_fract_x
 _atom_site_fract_y
 _atom_site_fract_z
 _atom_site_occupancy
  C  C1  1  0.798400  0.762600  0.894600  1.0
  C  C2  1  0.544400  0.894600  0.762600  1.0
  C  C3  1  0.894600  0.544400  0.798400  1.0
  C  C4  1  0.762600  0.798400  0.544400  1.0
  C  C5  1  0.762600  0.894600  0.798400  1.0
  C  C6  1  0.894600  0.762600  0.544400  1.0
  C  C7  1  0.544400  0.798400  0.894600  1.0
  C  C8  1  0.798400  0.544400  0.762600  1.0
  C  C9  1  0.894600  0.798400  0.762600  1.0
  C  C10  1  0.762600  0.544400  0.894600  1.0
  C  C11  1  0.798400  0.894600  0.544400  1.0
  C  C12  1  0.544400  0.762600  0.798400  1.0
  C  C13  1  0.298400  0.394600  0.262600  1.0
  C  C14  1  0.044400  0.262600  0.394600  1.0
  C  C15  1  0.394600  0.298400  0.044400  1.0
  C  C16  1  0.262600  0.044400  0.298400  1.0
  C  C17  1  0.262600  0.298400  0.394600  1.0
  C  C18  1  0.394600  0.044400  0.262600  1.0
  C  C19  1  0.044400  0.394600  0.298400  1.0
  C  C20  1  0.298400  0.262600  0.044400  1.0
  C  C21  1  0.394600  0.262600  0.298400  1.0
  C  C22  1  0.262600  0.394600  0.044400  1.0
  C  C23  1  0.298400  0.044400  0.394600  1.0
  C  C24  1  0.044400  0.298400  0.262600  1.0
  C  C25  1  0.762070  0.739470  0.930130  1.0
  C  C26  1  0.568330  0.930130  0.739470  1.0
  C  C27  1  0.930130  0.568330  0.762070  1.0
  C  C28  1  0.739470  0.762070  0.568330  1.0
  C  C29  1  0.739470  0.930130  0.762070  1.0
  C  C30  1  0.930130  0.739470  0.568330  1.0
  C  C31  1  0.568330  0.762070  0.930130  1.0
  C  C32  1  0.762070  0.568330  0.739470  1.0
  C  C33  1  0.930130  0.762070  0.739470  1.0
  C  C34  1  0.739470  0.568330  0.930130  1.0
  C  C35  1  0.762070  0.930130  0.568330  1.0
  C  C36  1  0.568330  0.739470  0.762070  1.0
  C  C37  1  0.262070  0.430130  0.239470  1.0
  C  C38  1  0.068330  0.239470  0.430130  1.0
  C  C39  1  0.430130  0.262070  0.068330  1.0
  C  C40  1  0.239470  0.068330  0.262070  1.0
  C  C41  1  0.239470  0.262070  0.430130  1.0
  C  C42  1  0.430130  0.068330  0.239470  1.0
  C  C43  1  0.068330  0.430130  0.262070  1.0
  C  C44  1  0.262070  0.239470  0.068330  1.0
  C  C45  1  0.430130  0.239470  0.262070  1.0
  C  C46  1  0.239470  0.430130  0.068330  1.0
  C  C47  1  0.262070  0.068330  0.430130  1.0
  C  C48  1  0.068330  0.262070  0.239470  1.0
  C  C49  1  0.722840  0.761840  0.965560  1.0
  C  C50  1  0.549760  0.965560  0.761840  1.0
  C  C51  1  0.965560  0.549760  0.722840  1.0
  C  C52  1  0.761840  0.722840  0.549760  1.0
  C  C53  1  0.761840  0.965560  0.722840  1.0
  C  C54  1  0.965560  0.761840  0.549760  1.0
  C  C55  1  0.549760  0.722840  0.965560  1.0
  C  C56  1  0.722840  0.549760  0.761840  1.0
  C  C57  1  0.965560  0.722840  0.761840  1.0
  C  C58  1  0.761840  0.549760  0.965560  1.0
  C  C59  1  0.722840  0.965560  0.549760  1.0
  C  C60  1  0.549760  0.761840  0.722840  1.0
  C  C61  1  0.222840  0.465560  0.261840  1.0
  C  C62  1  0.049760  0.261840  0.465560  1.0
  C  C63  1  0.465560  0.222840  0.049760  1.0
  C  C64  1  0.261840  0.049760  0.222840  1.0
  C  C65  1  0.261840  0.222840  0.465560  1.0
  C  C66  1  0.465560  0.049760  0.261840  1.0
  C  C67  1  0.049760  0.465560  0.222840  1.0
  C  C68  1  0.222840  0.261840  0.049760  1.0
  C  C69  1  0.465560  0.261840  0.222840  1.0
  C  C70  1  0.261840  0.465560  0.049760  1.0
  C  C71  1  0.222840  0.049760  0.465560  1.0
  C  C72  1  0.049760  0.222840  0.261840  1.0
  C  C73  1  0.719170  0.807630  0.962830  1.0
  C  C74  1  0.510370  0.962830  0.807630  1.0
  C  C75  1  0.962830  0.510370  0.719170  1.0
  C  C76  1  0.807630  0.719170  0.510370  1.0
  C  C77  1  0.807630  0.962830  0.719170  1.0
  C  C78  1  0.962830  0.807630  0.510370  1.0
  C  C79  1  0.510370  0.719170  0.962830  1.0
  C  C80  1  0.719170  0.510370  0.807630  1.0
  C  C81  1  0.962830  0.719170  0.807630  1.0
  C  C82  1  0.807630  0.510370  0.962830  1.0
  C  C83  1  0.719170  0.962830  0.510370  1.0
  C  C84  1  0.510370  0.807630  0.719170  1.0
  C  C85  1  0.219170  0.462830  0.307630  1.0
  C  C86  1  0.010370  0.307630  0.462830  1.0
  C  C87  1  0.462830  0.219170  0.010370  1.0
  C  C88  1  0.307630  0.010370  0.219170  1.0
  C  C89  1  0.307630  0.219170  0.462830  1.0
  C  C90  1  0.462830  0.010370  0.307630  1.0
  C  C91  1  0.010370  0.462830  0.219170  1.0
  C  C92  1  0.219170  0.307630  0.010370  1.0
  C  C93  1  0.462830  0.307630  0.219170  1.0
  C  C94  1  0.307630  0.462830  0.010370  1.0
  C  C95  1  0.219170  0.010370  0.462830  1.0
  C  C96  1  0.010370  0.219170  0.307630  1.0
  C  C97  1  0.756730  0.828930  0.925670  1.0
  C  C98  1  0.488670  0.925670  0.828930  1.0
  C  C99  1  0.925670  0.488670  0.756730  1.0
  C  C100  1  0.828930  0.756730  0.488670  1.0
  C  C101  1  0.828930  0.925670  0.756730  1.0
  C  C102  1  0.925670  0.828930  0.488670  1.0
  C  C103  1  0.488670  0.756730  0.925670  1.0
  C  C104  1  0.756730  0.488670  0.828930  1.0
  C  C105  1  0.925670  0.756730  0.828930  1.0
  C  C106  1  0.828930  0.488670  0.925670  1.0
  C  C107  1  0.756730  0.925670  0.488670  1.0
  C  C108  1  0.488670  0.828930  0.756730  1.0
  C  C109  1  0.256730  0.425670  0.328930  1.0
  C  C110  1  0.988670  0.328930  0.425670  1.0
  C  C111  1  0.425670  0.256730  0.988670  1.0
  C  C112  1  0.328930  0.988670  0.256730  1.0
  C  C113  1  0.328930  0.256730  0.425670  1.0
  C  C114  1  0.425670  0.988670  0.328930  1.0
  C  C115  1  0.988670  0.425670  0.256730  1.0
  C  C116  1  0.256730  0.328930  0.988670  1.0
  C  C117  1  0.425670  0.328930  0.256730  1.0
  C  C118  1  0.328930  0.425670  0.988670  1.0
  C  C119  1  0.256730  0.988670  0.425670  1.0
  C  C120  1  0.988670  0.256730  0.328930  1.0
  C  C121  1  0.755700  0.876900  0.919900  1.0
  C  C122  1  0.447500  0.919900  0.876900  1.0
  C  C123  1  0.919900  0.447500  0.755700  1.0
  C  C124  1  0.876900  0.755700  0.447500  1.0
  C  C125  1  0.876900  0.919900  0.755700  1.0
  C  C126  1  0.919900  0.876900  0.447500  1.0
  C  C127  1  0.447500  0.755700  0.919900  1.0
  C  C128  1  0.755700  0.447500  0.876900  1.0
  C  C129  1  0.919900  0.755700  0.876900  1.0
  C  C130  1  0.876900  0.447500  0.919900  1.0
  C  C131  1  0.755700  0.919900  0.447500  1.0
  C  C132  1  0.447500  0.876900  0.755700  1.0
  C  C133  1  0.255700  0.419900  0.376900  1.0
  C  C134  1  0.947500  0.376900  0.419900  1.0
  C  C135  1  0.419900  0.255700  0.947500  1.0
  C  C136  1  0.376900  0.947500  0.255700  1.0
  C  C137  1  0.376900  0.255700  0.419900  1.0
  C  C138  1  0.419900  0.947500  0.376900  1.0
  C  C139  1  0.947500  0.419900  0.255700  1.0
  C  C140  1  0.255700  0.376900  0.947500  1.0
  C  C141  1  0.419900  0.376900  0.255700  1.0
  C  C142  1  0.376900  0.419900  0.947500  1.0
  C  C143  1  0.255700  0.947500  0.419900  1.0
  C  C144  1  0.947500  0.255700  0.376900  1.0
  C  C145  1  0.791080  0.941820  0.873160  1.0
  C  C146  1  0.393940  0.873160  0.941820  1.0
  C  C147  1  0.873160  0.393940  0.791080  1.0
  C  C148  1  0.941820  0.791080  0.393940  1.0
  C  C149  1  0.941820  0.873160  0.791080  1.0
  C  C150  1  0.873160  0.941820  0.393940  1.0
  C  C151  1  0.393940  0.791080  0.873160  1.0
  C  C152  1  0.791080  0.393940  0.941820  1.0
  C  C153  1  0.873160  0.791080  0.941820  1.0
  C  C154  1  0.941820  0.393940  0.873160  1.0
  C  C155  1  0.791080  0.873160  0.393940  1.0
  C  C156  1  0.393940  0.941820  0.791080  1.0
  C  C157  1  0.291080  0.373160  0.441820  1.0
  C  C158  1  0.893940  0.441820  0.373160  1.0
  C  C159  1  0.373160  0.291080  0.893940  1.0
  C  C160  1  0.441820  0.893940  0.291080  1.0
  C  C161  1  0.441820  0.291080  0.373160  1.0
  C  C162  1  0.373160  0.893940  0.441820  1.0
  C  C163  1  0.893940  0.373160  0.291080  1.0
  C  C164  1  0.291080  0.441820  0.893940  1.0
  C  C165  1  0.373160  0.441820  0.291080  1.0
  C  C166  1  0.441820  0.373160  0.893940  1.0
  C  C167  1  0.291080  0.893940  0.373160  1.0
  C  C168  1  0.893940  0.291080  0.441820  1.0
  C  C169  1  0.819730  0.952350  0.885370  1.0
  C  C170  1  0.342550  0.885370  0.952350  1.0
  C  C171  1  0.885370  0.342550  0.819730  1.0
  C  C172  1  0.952350  0.819730  0.342550  1.0
  C  C173  1  0.952350  0.885370  0.819730  1.0
  C  C174  1  0.885370  0.952350  0.342550  1.0
  C  C175  1  0.342550  0.819730  0.885370  1.0
  C  C176  1  0.819730  0.342550  0.952350  1.0
  C  C177  1  0.885370  0.819730  0.952350  1.0
  C  C178  1  0.952350  0.342550  0.885370  1.0
  C  C179  1  0.819730  0.885370  0.342550  1.0
  C  C180  1  0.342550  0.952350  0.819730  1.0
  C  C181  1  0.319730  0.385370  0.452350  1.0
  C  C182  1  0.842550  0.452350  0.385370  1.0
  C  C183  1  0.385370  0.319730  0.842550  1.0
  C  C184  1  0.452350  0.842550  0.319730  1.0
  C  C185  1  0.452350  0.319730  0.385370  1.0
  C  C186  1  0.385370  0.842550  0.452350  1.0
  C  C187  1  0.842550  0.385370  0.319730  1.0
  C  C188  1  0.319730  0.452350  0.842550  1.0
  C  C189  1  0.385370  0.452350  0.319730  1.0
  C  C190  1  0.452350  0.385370  0.842550  1.0
  C  C191  1  0.319730  0.842550  0.385370  1.0
  C  C192  1  0.842550  0.319730  0.452350  1.0
  C  C193  1  0.816500  0.002260  0.870120  1.0
  C  C194  1  0.311120  0.870120  0.002260  1.0
  C  C195  1  0.870120  0.311120  0.816500  1.0
  C  C196  1  0.002260  0.816500  0.311120  1.0
  C  C197  1  0.002260  0.870120  0.816500  1.0
  C  C198  1  0.870120  0.002260  0.311120  1.0
  C  C199  1  0.311120  0.816500  0.870120  1.0
  C  C200  1  0.816500  0.311120  0.002260  1.0
  C  C201  1  0.870120  0.816500  0.002260  1.0
  C  C202  1  0.002260  0.311120  0.870120  1.0
  C  C203  1  0.816500  0.870120  0.311120  1.0
  C  C204  1  0.311120  0.002260  0.816500  1.0
  C  C205  1  0.316500  0.370120  0.502260  1.0
  C  C206  1  0.811120  0.502260  0.370120  1.0
  C  C207  1  0.370120  0.316500  0.811120  1.0
  C  C208  1  0.502260  0.811120  0.316500  1.0
  C  C209  1  0.502260  0.316500  0.370120  1.0
  C  C210  1  0.370120  0.811120  0.502260  1.0
  C  C211  1  0.811120  0.370120  0.316500  1.0
  C  C212  1  0.316500  0.502260  0.811120  1.0
  C  C213  1  0.370120  0.502260  0.316500  1.0
  C  C214  1  0.502260  0.370120  0.811120  1.0
  C  C215  1  0.316500  0.811120  0.370120  1.0
  C  C216  1  0.811120  0.316500  0.502260  1.0
  C  C217  1  0.784600  0.041660  0.842660  1.0
  C  C218  1  0.331080  0.842660  0.041660  1.0
  C  C219  1  0.842660  0.331080  0.784600  1.0
  C  C220  1  0.041660  0.784600  0.331080  1.0
  C  C221  1  0.041660  0.842660  0.784600  1.0
  C  C222  1  0.842660  0.041660  0.331080  1.0
  C  C223  1  0.331080  0.784600  0.842660  1.0
  C  C224  1  0.784600  0.331080  0.041660  1.0
  C  C225  1  0.842660  0.784600  0.041660  1.0
  C  C226  1  0.041660  0.331080  0.842660  1.0
  C  C227  1  0.784600  0.842660  0.331080  1.0
  C  C228  1  0.331080  0.041660  0.784600  1.0
  C  C229  1  0.284600  0.342660  0.541660  1.0
  C  C230  1  0.831080  0.541660  0.342660  1.0
  C  C231  1  0.342660  0.284600  0.831080  1.0
  C  C232  1  0.541660  0.831080  0.284600  1.0
  C  C233  1  0.541660  0.284600  0.342660  1.0
  C  C234  1  0.342660  0.831080  0.541660  1.0
  C  C235  1  0.831080  0.342660  0.284600  1.0
  C  C236  1  0.284600  0.541660  0.831080  1.0
  C  C237  1  0.342660  0.541660  0.284600  1.0
  C  C238  1  0.541660  0.342660  0.831080  1.0
  C  C239  1  0.284600  0.831080  0.342660  1.0
  C  C240  1  0.831080  0.284600  0.541660  1.0
  C  C241  1  0.755940  0.031140  0.830440  1.0
  C  C242  1  0.382480  0.830440  0.031140  1.0
  C  C243  1  0.830440  0.382480  0.755940  1.0
  C  C244  1  0.031140  0.755940  0.382480  1.0
  C  C245  1  0.031140  0.830440  0.755940  1.0
  C  C246  1  0.830440  0.031140  0.382480  1.0
  C  C247  1  0.382480  0.755940  0.830440  1.0
  C  C248  1  0.755940  0.382480  0.031140  1.0
  C  C249  1  0.830440  0.755940  0.031140  1.0
  C  C250  1  0.031140  0.382480  0.830440  1.0
  C  C251  1  0.755940  0.830440  0.382480  1.0
  C  C252  1  0.382480  0.031140  0.755940  1.0
  C  C253  1  0.255940  0.330440  0.531140  1.0
  C  C254  1  0.882480  0.531140  0.330440  1.0
  C  C255  1  0.330440  0.255940  0.882480  1.0
  C  C256  1  0.531140  0.882480  0.255940  1.0
  C  C257  1  0.531140  0.255940  0.330440  1.0
  C  C258  1  0.330440  0.882480  0.531140  1.0
  C  C259  1  0.882480  0.330440  0.255940  1.0
  C  C260  1  0.255940  0.531140  0.882480  1.0
  C  C261  1  0.330440  0.531140  0.255940  1.0
  C  C262  1  0.531140  0.330440  0.882480  1.0
  C  C263  1  0.255940  0.882480  0.330440  1.0
  C  C264  1  0.882480  0.255940  0.531140  1.0
  C  C265  1  0.759190  0.981210  0.845690  1.0
  C  C266  1  0.413910  0.845690  0.981210  1.0
  C  C267  1  0.845690  0.413910  0.759190  1.0
  C  C268  1  0.981210  0.759190  0.413910  1.0
  C  C269  1  0.981210  0.845690  0.759190  1.0
  C  C270  1  0.845690  0.981210  0.413910  1.0
  C  C271  1  0.413910  0.759190  0.845690  1.0
  C  C272  1  0.759190  0.413910  0.981210  1.0
  C  C273  1  0.845690  0.759190  0.981210  1.0
  C  C274  1  0.981210  0.413910  0.845690  1.0
  C  C275  1  0.759190  0.845690  0.413910  1.0
  C  C276  1  0.413910  0.981210  0.759190  1.0
  C  C277  1  0.259190  0.345690  0.481210  1.0
  C  C278  1  0.913910  0.481210  0.345690  1.0
  C  C279  1  0.345690  0.259190  0.913910  1.0
  C  C280  1  0.481210  0.913910  0.259190  1.0
  C  C281  1  0.481210  0.259190  0.345690  1.0
  C  C282  1  0.345690  0.913910  0.481210  1.0
  C  C283  1  0.913910  0.345690  0.259190  1.0
  C  C284  1  0.259190  0.481210  0.913910  1.0
  C  C285  1  0.345690  0.481210  0.259190  1.0
  C  C286  1  0.481210  0.345690  0.913910  1.0
  C  C287  1  0.259190  0.913910  0.345690  1.0
  C  C288  1  0.913910  0.259190  0.481210  1.0
  C  C289  1  0.694000  0.197400  0.868000  1.0
  C  C290  1  0.240600  0.868000  0.197400  1.0
  C  C291  1  0.868000  0.240600  0.694000  1.0
  C  C292  1  0.197400  0.694000  0.240600  1.0
  C  C293  1  0.197400  0.868000  0.694000  1.0
  C  C294  1  0.868000  0.197400  0.240600  1.0
  C  C295  1  0.240600  0.694000  0.868000  1.0
  C  C296  1  0.694000  0.240600  0.197400  1.0
  C  C297  1  0.868000  0.694000  0.197400  1.0
  C  C298  1  0.197400  0.240600  0.868000  1.0
  C  C299  1  0.694000  0.868000  0.240600  1.0
  C  C300  1  0.240600  0.197400  0.694000  1.0
  C  C301  1  0.194000  0.368000  0.697400  1.0
  C  C302  1  0.740600  0.697400  0.368000  1.0
  C  C303  1  0.368000  0.194000  0.740600  1.0
  C  C304  1  0.697400  0.740600  0.194000  1.0
  C  C305  1  0.697400  0.194000  0.368000  1.0
  C  C306  1  0.368000  0.740600  0.697400  1.0
  C  C307  1  0.740600  0.368000  0.194000  1.0
  C  C308  1  0.194000  0.697400  0.740600  1.0
  C  C309  1  0.368000  0.697400  0.194000  1.0
  C  C310  1  0.697400  0.368000  0.740600  1.0
  C  C311  1  0.194000  0.740600  0.368000  1.0
  C  C312  1  0.740600  0.194000  0.697400  1.0
  C  C313  1  0.667000  0.162800  0.903600  1.0
  C  C314  1  0.266600  0.903600  0.162800  1.0
  C  C315  1  0.903600  0.266600  0.667000  1.0
  C  C316  1  0.162800  0.667000  0.266600  1.0
  C  C317  1  0.162800  0.903600  0.667000  1.0
  C  C318  1  0.903600  0.162800  0.266600  1.0
  C  C319  1  0.266600  0.667000  0.903600  1.0
  C  C320  1  0.667000  0.266600  0.162800  1.0
  C  C321  1  0.903600  0.667000  0.162800  1.0
  C  C322  1  0.162800  0.266600  0.903600  1.0
  C  C323  1  0.667000  0.903600  0.266600  1.0
  C  C324  1  0.266600  0.162800  0.667000  1.0
  C  C325  1  0.167000  0.403600  0.662800  1.0
  C  C326  1  0.766600  0.662800  0.403600  1.0
  C  C327  1  0.403600  0.167000  0.766600  1.0
  C  C328  1  0.662800  0.766600  0.167000  1.0
  C  C329  1  0.662800  0.167000  0.403600  1.0
  C  C330  1  0.403600  0.766600  0.662800  1.0
  C  C331  1  0.766600  0.403600  0.167000  1.0
  C  C332  1  0.167000  0.662800  0.766600  1.0
  C  C333  1  0.403600  0.662800  0.167000  1.0
  C  C334  1  0.662800  0.403600  0.766600  1.0
  C  C335  1  0.167000  0.766600  0.403600  1.0
  C  C336  1  0.766600  0.167000  0.662800  1.0
  C  C337  1  0.699800  0.117200  0.893400  1.0
  C  C338  1  0.289600  0.893400  0.117200  1.0
  C  C339  1  0.893400  0.289600  0.699800  1.0
  C  C340  1  0.117200  0.699800  0.289600  1.0
  C  C341  1  0.117200  0.893400  0.699800  1.0
  C  C342  1  0.893400  0.117200  0.289600  1.0
  C  C343  1  0.289600  0.699800  0.893400  1.0
  C  C344  1  0.699800  0.289600  0.117200  1.0
  C  C345  1  0.893400  0.699800  0.117200  1.0
  C  C346  1  0.117200  0.289600  0.893400  1.0
  C  C347  1  0.699800  0.893400  0.289600  1.0
  C  C348  1  0.289600  0.117200  0.699800  1.0
  C  C349  1  0.199800  0.393400  0.617200  1.0
  C  C350  1  0.789600  0.617200  0.393400  1.0
  C  C351  1  0.393400  0.199800  0.789600  1.0
  C  C352  1  0.617200  0.789600  0.199800  1.0
  C  C353  1  0.617200  0.199800  0.393400  1.0
  C  C354  1  0.393400  0.789600  0.617200  1.0
  C  C355  1  0.789600  0.393400  0.199800  1.0
  C  C356  1  0.199800  0.617200  0.789600  1.0
  C  C357  1  0.393400  0.617200  0.199800  1.0
  C  C358  1  0.617200  0.393400  0.789600  1.0
  C  C359  1  0.199800  0.789600  0.393400  1.0
  C  C360  1  0.789600  0.199800  0.617200  1.0
  C  C361  1  0.745300  0.127700  0.851100  1.0
  C  C362  1  0.275900  0.851100  0.127700  1.0
  C  C363  1  0.851100  0.275900  0.745300  1.0
  C  C364  1  0.127700  0.745300  0.275900  1.0
  C  C365  1  0.127700  0.851100  0.745300  1.0
  C  C366  1  0.851100  0.127700  0.275900  1.0
  C  C367  1  0.275900  0.745300  0.851100  1.0
  C  C368  1  0.745300  0.275900  0.127700  1.0
  C  C369  1  0.851100  0.745300  0.127700  1.0
  C  C370  1  0.127700  0.275900  0.851100  1.0
  C  C371  1  0.745300  0.851100  0.275900  1.0
  C  C372  1  0.275900  0.127700  0.745300  1.0
  C  C373  1  0.245300  0.351100  0.627700  1.0
  C  C374  1  0.775900  0.627700  0.351100  1.0
  C  C375  1  0.351100  0.245300  0.775900  1.0
  C  C376  1  0.627700  0.775900  0.245300  1.0
  C  C377  1  0.627700  0.245300  0.351100  1.0
  C  C378  1  0.351100  0.775900  0.627700  1.0
  C  C379  1  0.775900  0.351100  0.245300  1.0
  C  C380  1  0.245300  0.627700  0.775900  1.0
  C  C381  1  0.351100  0.627700  0.245300  1.0
  C  C382  1  0.627700  0.351100  0.775900  1.0
  C  C383  1  0.245300  0.775900  0.351100  1.0
  C  C384  1  0.775900  0.245300  0.627700  1.0
  C  C385  1  0.783200  0.096600  0.823000  1.0
  C  C386  1  0.297200  0.823000  0.096600  1.0
  C  C387  1  0.823000  0.297200  0.783200  1.0
  C  C388  1  0.096600  0.783200  0.297200  1.0
  C  C389  1  0.096600  0.823000  0.783200  1.0
  C  C390  1  0.823000  0.096600  0.297200  1.0
  C  C391  1  0.297200  0.783200  0.823000  1.0
  C  C392  1  0.783200  0.297200  0.096600  1.0
  C  C393  1  0.823000  0.783200  0.096600  1.0
  C  C394  1  0.096600  0.297200  0.823000  1.0
  C  C395  1  0.783200  0.823000  0.297200  1.0
  C  C396  1  0.297200  0.096600  0.783200  1.0
  C  C397  1  0.283200  0.323000  0.596600  1.0
  C  C398  1  0.797200  0.596600  0.323000  1.0
  C  C399  1  0.323000  0.283200  0.797200  1.0
  C  C400  1  0.596600  0.797200  0.283200  1.0
  C  C401  1  0.596600  0.283200  0.323000  1.0
  C  C402  1  0.323000  0.797200  0.596600  1.0
  C  C403  1  0.797200  0.323000  0.283200  1.0
  C  C404  1  0.283200  0.596600  0.797200  1.0
  C  C405  1  0.323000  0.596600  0.283200  1.0
  C  C406  1  0.596600  0.323000  0.797200  1.0
  C  C407  1  0.283200  0.797200  0.323000  1.0
  C  C408  1  0.797200  0.283200  0.596600  1.0
  C  C409  1  0.819900  0.111900  0.777100  1.0
  C  C410  1  0.291100  0.777100  0.111900  1.0
  C  C411  1  0.777100  0.291100  0.819900  1.0
  C  C412  1  0.111900  0.819900  0.291100  1.0
  C  C413  1  0.111900  0.777100  0.819900  1.0
  C  C414  1  0.777100  0.111900  0.291100  1.0
  C  C415  1  0.291100  0.819900  0.777100  1.0
  C  C416  1  0.819900  0.291100  0.111900  1.0
  C  C417  1  0.777100  0.819900  0.111900  1.0
  C  C418  1  0.111900  0.291100  0.777100  1.0
  C  C419  1  0.819900  0.777100  0.291100  1.0
  C  C420  1  0.291100  0.111900  0.819900  1.0
  C  C421  1  0.319900  0.277100  0.611900  1.0
  C  C422  1  0.791100  0.611900  0.277100  1.0
  C  C423  1  0.277100  0.319900  0.791100  1.0
  C  C424  1  0.611900  0.791100  0.319900  1.0
  C  C425  1  0.611900  0.319900  0.277100  1.0
  C  C426  1  0.277100  0.791100  0.611900  1.0
  C  C427  1  0.791100  0.277100  0.319900  1.0
  C  C428  1  0.319900  0.611900  0.791100  1.0
  C  C429  1  0.277100  0.611900  0.319900  1.0
  C  C430  1  0.611900  0.277100  0.791100  1.0
  C  C431  1  0.319900  0.791100  0.277100  1.0
  C  C432  1  0.791100  0.319900  0.611900  1.0
  C  C433  1  0.853800  0.085000  0.739800  1.0
  C  C434  1  0.321400  0.739800  0.085000  1.0
  C  C435  1  0.739800  0.321400  0.853800  1.0
  C  C436  1  0.085000  0.853800  0.321400  1.0
  C  C437  1  0.085000  0.739800  0.853800  1.0
  C  C438  1  0.739800  0.085000  0.321400  1.0
  C  C439  1  0.321400  0.853800  0.739800  1.0
  C  C440  1  0.853800  0.321400  0.085000  1.0
  C  C441  1  0.739800  0.853800  0.085000  1.0
  C  C442  1  0.085000  0.321400  0.739800  1.0
  C  C443  1  0.853800  0.739800  0.321400  1.0
  C  C444  1  0.321400  0.085000  0.853800  1.0
  C  C445  1  0.353800  0.239800  0.585000  1.0
  C  C446  1  0.821400  0.585000  0.239800  1.0
  C  C447  1  0.239800  0.353800  0.821400  1.0
  C  C448  1  0.585000  0.821400  0.353800  1.0
  C  C449  1  0.585000  0.353800  0.239800  1.0
  C  C450  1  0.239800  0.821400  0.585000  1.0
  C  C451  1  0.821400  0.239800  0.353800  1.0
  C  C452  1  0.353800  0.585000  0.821400  1.0
  C  C453  1  0.239800  0.585000  0.353800  1.0
  C  C454  1  0.585000  0.239800  0.821400  1.0
  C  C455  1  0.353800  0.821400  0.239800  1.0
  C  C456  1  0.821400  0.353800  0.585000  1.0
  C  C457  1  0.875300  0.117700  0.698300  1.0
  C  C458  1  0.308700  0.698300  0.117700  1.0
  C  C459  1  0.698300  0.308700  0.875300  1.0
  C  C460  1  0.117700  0.875300  0.308700  1.0
  C  C461  1  0.117700  0.698300  0.875300  1.0
  C  C462  1  0.698300  0.117700  0.308700  1.0
  C  C463  1  0.308700  0.875300  0.698300  1.0
  C  C464  1  0.875300  0.308700  0.117700  1.0
  C  C465  1  0.698300  0.875300  0.117700  1.0
  C  C466  1  0.117700  0.308700  0.698300  1.0
  C  C467  1  0.875300  0.698300  0.308700  1.0
  C  C468  1  0.308700  0.117700  0.875300  1.0
  C  C469  1  0.375300  0.198300  0.617700  1.0
  C  C470  1  0.808700  0.617700  0.198300  1.0
  C  C471  1  0.198300  0.375300  0.808700  1.0
  C  C472  1  0.617700  0.808700  0.375300  1.0
  C  C473  1  0.617700  0.375300  0.198300  1.0
  C  C474  1  0.198300  0.808700  0.617700  1.0
  C  C475  1  0.808700  0.198300  0.375300  1.0
  C  C476  1  0.375300  0.617700  0.808700  1.0
  C  C477  1  0.198300  0.617700  0.375300  1.0
  C  C478  1  0.617700  0.198300  0.808700  1.0
  C  C479  1  0.375300  0.808700  0.198300  1.0
  C  C480  1  0.808700  0.375300  0.617700  1.0
  C  C481  1  0.852600  0.167800  0.709400  1.0
  C  C482  1  0.270200  0.709400  0.167800  1.0
  C  C483  1  0.709400  0.270200  0.852600  1.0
  C  C484  1  0.167800  0.852600  0.270200  1.0
  C  C485  1  0.167800  0.709400  0.852600  1.0
  C  C486  1  0.709400  0.167800  0.270200  1.0
  C  C487  1  0.270200  0.852600  0.709400  1.0
  C  C488  1  0.852600  0.270200  0.167800  1.0
  C  C489  1  0.709400  0.852600  0.167800  1.0
  C  C490  1  0.167800  0.270200  0.709400  1.0
  C  C491  1  0.852600  0.709400  0.270200  1.0
  C  C492  1  0.270200  0.167800  0.852600  1.0
  C  C493  1  0.352600  0.209400  0.667800  1.0
  C  C494  1  0.770200  0.667800  0.209400  1.0
  C  C495  1  0.209400  0.352600  0.770200  1.0
  C  C496  1  0.667800  0.770200  0.352600  1.0
  C  C497  1  0.667800  0.352600  0.209400  1.0
  C  C498  1  0.209400  0.770200  0.667800  1.0
  C  C499  1  0.770200  0.209400  0.352600  1.0
  C  C500  1  0.352600  0.667800  0.770200  1.0
  C  C501  1  0.209400  0.667800  0.352600  1.0
  C  C502  1  0.667800  0.209400  0.770200  1.0
  C  C503  1  0.352600  0.770200  0.209400  1.0
  C  C504  1  0.770200  0.352600  0.667800  1.0
  C  C505  1  0.678400  0.243400  0.876000  1.0
  C  C506  1  0.202200  0.876000  0.243400  1.0
  C  C507  1  0.876000  0.202200  0.678400  1.0
  C  C508  1  0.243400  0.678400  0.202200  1.0
  C  C509  1  0.243400  0.876000  0.678400  1.0
  C  C510  1  0.876000  0.243400  0.202200  1.0
  C  C511  1  0.202200  0.678400  0.876000  1.0
  C  C512  1  0.678400  0.202200  0.243400  1.0
  C  C513  1  0.876000  0.678400  0.243400  1.0
  C  C514  1  0.243400  0.202200  0.876000  1.0
  C  C515  1  0.678400  0.876000  0.202200  1.0
  C  C516  1  0.202200  0.243400  0.678400  1.0
  C  C517  1  0.178400  0.376000  0.743400  1.0
  C  C518  1  0.702200  0.743400  0.376000  1.0
  C  C519  1  0.376000  0.178400  0.702200  1.0
  C  C520  1  0.743400  0.702200  0.178400  1.0
  C  C521  1  0.743400  0.178400  0.376000  1.0
  C  C522  1  0.376000  0.702200  0.743400  1.0
  C  C523  1  0.702200  0.376000  0.178400  1.0
  C  C524  1  0.178400  0.743400  0.702200  1.0
  C  C525  1  0.376000  0.743400  0.178400  1.0
  C  C526  1  0.743400  0.376000  0.702200  1.0
  C  C527  1  0.178400  0.702200  0.376000  1.0
  C  C528  1  0.702200  0.178400  0.743400  1.0
  C  C529  1  0.617900  0.171100  0.944100  1.0
  C  C530  1  0.266900  0.944100  0.171100  1.0
  C  C531  1  0.944100  0.266900  0.617900  1.0
  C  C532  1  0.171100  0.617900  0.266900  1.0
  C  C533  1  0.171100  0.944100  0.617900  1.0
  C  C534  1  0.944100  0.171100  0.266900  1.0
  C  C535  1  0.266900  0.617900  0.944100  1.0
  C  C536  1  0.617900  0.266900  0.171100  1.0
  C  C537  1  0.944100  0.617900  0.171100  1.0
  C  C538  1  0.171100  0.266900  0.944100  1.0
  C  C539  1  0.617900  0.944100  0.266900  1.0
  C  C540  1  0.266900  0.171100  0.617900  1.0
  C  C541  1  0.117900  0.444100  0.671100  1.0
  C  C542  1  0.766900  0.671100  0.444100  1.0
  C  C543  1  0.444100  0.117900  0.766900  1.0
  C  C544  1  0.671100  0.766900  0.117900  1.0
  C  C545  1  0.671100  0.117900  0.444100  1.0
  C  C546  1  0.444100  0.766900  0.671100  1.0
  C  C547  1  0.766900  0.444100  0.117900  1.0
  C  C548  1  0.117900  0.671100  0.766900  1.0
  C  C549  1  0.444100  0.671100  0.117900  1.0
  C  C550  1  0.671100  0.444100  0.766900  1.0
  C  C551  1  0.117900  0.766900  0.444100  1.0
  C  C552  1  0.766900  0.117900  0.671100  1.0
  C  C553  1  0.619700  0.153900  0.995900  1.0
  C  C554  1  0.230500  0.995900  0.153900  1.0
  C  C555  1  0.995900  0.230500  0.619700  1.0
  C  C556  1  0.153900  0.619700  0.230500  1.0
  C  C557  1  0.153900  0.995900  0.619700  1.0
  C  C558  1  0.995900  0.153900  0.230500  1.0
  C  C559  1  0.230500  0.619700  0.995900  1.0
  C  C560  1  0.619700  0.230500  0.153900  1.0
  C  C561  1  0.995900  0.619700  0.153900  1.0
  C  C562  1  0.153900  0.230500  0.995900  1.0
  C  C563  1  0.619700  0.995900  0.230500  1.0
  C  C564  1  0.230500  0.153900  0.619700  1.0
  C  C565  1  0.119700  0.495900  0.653900  1.0
  C  C566  1  0.730500  0.653900  0.495900  1.0
  C  C567  1  0.495900  0.119700  0.730500  1.0
  C  C568  1  0.653900  0.730500  0.119700  1.0
  C  C569  1  0.653900  0.119700  0.495900  1.0
  C  C570  1  0.495900  0.730500  0.653900  1.0
  C  C571  1  0.730500  0.495900  0.119700  1.0
  C  C572  1  0.119700  0.653900  0.730500  1.0
  C  C573  1  0.495900  0.653900  0.119700  1.0
  C  C574  1  0.653900  0.495900  0.730500  1.0
  C  C575  1  0.119700  0.730500  0.495900  1.0
  C  C576  1  0.730500  0.119700  0.653900  1.0
  C  C577  1  0.686800  0.069400  0.924400  1.0
  C  C578  1  0.319400  0.924400  0.069400  1.0
  C  C579  1  0.924400  0.319400  0.686800  1.0
  C  C580  1  0.069400  0.686800  0.319400  1.0
  C  C581  1  0.069400  0.924400  0.686800  1.0
  C  C582  1  0.924400  0.069400  0.319400  1.0
  C  C583  1  0.319400  0.686800  0.924400  1.0
  C  C584  1  0.686800  0.319400  0.069400  1.0
  C  C585  1  0.924400  0.686800  0.069400  1.0
  C  C586  1  0.069400  0.319400  0.924400  1.0
  C  C587  1  0.686800  0.924400  0.319400  1.0
  C  C588  1  0.319400  0.069400  0.686800  1.0
  C  C589  1  0.186800  0.424400  0.569400  1.0
  C  C590  1  0.819400  0.569400  0.424400  1.0
  C  C591  1  0.424400  0.186800  0.819400  1.0
  C  C592  1  0.569400  0.819400  0.186800  1.0
  C  C593  1  0.569400  0.186800  0.424400  1.0
  C  C594  1  0.424400  0.819400  0.569400  1.0
  C  C595  1  0.819400  0.424400  0.186800  1.0
  C  C596  1  0.186800  0.569400  0.819400  1.0
  C  C597  1  0.424400  0.569400  0.186800  1.0
  C  C598  1  0.569400  0.424400  0.819400  1.0
  C  C599  1  0.186800  0.819400  0.424400  1.0
  C  C600  1  0.819400  0.186800  0.569400  1.0
  C  C601  1  0.863200  0.032400  0.745600  1.0
  C  C602  1  0.358800  0.745600  0.032400  1.0
  C  C603  1  0.745600  0.358800  0.863200  1.0
  C  C604  1  0.032400  0.863200  0.358800  1.0
  C  C605  1  0.032400  0.745600  0.863200  1.0
  C  C606  1  0.745600  0.032400  0.358800  1.0
  C  C607  1  0.358800  0.863200  0.745600  1.0
  C  C608  1  0.863200  0.358800  0.032400  1.0
  C  C609  1  0.745600  0.863200  0.032400  1.0
  C  C610  1  0.032400  0.358800  0.745600  1.0
  C  C611  1  0.863200  0.745600  0.358800  1.0
  C  C612  1  0.358800  0.032400  0.863200  1.0
  C  C613  1  0.363200  0.245600  0.532400  1.0
  C  C614  1  0.858800  0.532400  0.245600  1.0
  C  C615  1  0.245600  0.363200  0.858800  1.0
  C  C616  1  0.532400  0.858800  0.363200  1.0
  C  C617  1  0.532400  0.363200  0.245600  1.0
  C  C618  1  0.245600  0.858800  0.532400  1.0
  C  C619  1  0.858800  0.245600  0.363200  1.0
  C  C620  1  0.363200  0.532400  0.858800  1.0
  C  C621  1  0.245600  0.532400  0.363200  1.0
  C  C622  1  0.532400  0.245600  0.858800  1.0
  C  C623  1  0.363200  0.858800  0.245600  1.0
  C  C624  1  0.858800  0.363200  0.532400  1.0
  C  C625  1  0.910700  0.111700  0.648300  1.0
  C  C626  1  0.329300  0.648300  0.111700  1.0
  C  C627  1  0.648300  0.329300  0.910700  1.0
  C  C628  1  0.111700  0.910700  0.329300  1.0
  C  C629  1  0.111700  0.648300  0.910700  1.0
  C  C630  1  0.648300  0.111700  0.329300  1.0
  C  C631  1  0.329300  0.910700  0.648300  1.0
  C  C632  1  0.910700  0.329300  0.111700  1.0
  C  C633  1  0.648300  0.910700  0.111700  1.0
  C  C634  1  0.111700  0.329300  0.648300  1.0
  C  C635  1  0.910700  0.648300  0.329300  1.0
  C  C636  1  0.329300  0.111700  0.910700  1.0
  C  C637  1  0.410700  0.148300  0.611700  1.0
  C  C638  1  0.829300  0.611700  0.148300  1.0
  C  C639  1  0.148300  0.410700  0.829300  1.0
  C  C640  1  0.611700  0.829300  0.410700  1.0
  C  C641  1  0.611700  0.410700  0.148300  1.0
  C  C642  1  0.148300  0.829300  0.611700  1.0
  C  C643  1  0.829300  0.148300  0.410700  1.0
  C  C644  1  0.410700  0.611700  0.829300  1.0
  C  C645  1  0.148300  0.611700  0.410700  1.0
  C  C646  1  0.611700  0.148300  0.829300  1.0
  C  C647  1  0.410700  0.829300  0.148300  1.0
  C  C648  1  0.829300  0.410700  0.611700  1.0
  C  C649  1  0.962100  0.080500  0.653500  1.0
  C  C650  1  0.303900  0.653500  0.080500  1.0
  C  C651  1  0.653500  0.303900  0.962100  1.0
  C  C652  1  0.080500  0.962100  0.303900  1.0
  C  C653  1  0.080500  0.653500  0.962100  1.0
  C  C654  1  0.653500  0.080500  0.303900  1.0
  C  C655  1  0.303900  0.962100  0.653500  1.0
  C  C656  1  0.962100  0.303900  0.080500  1.0
  C  C657  1  0.653500  0.962100  0.080500  1.0
  C  C658  1  0.080500  0.303900  0.653500  1.0
  C  C659  1  0.962100  0.653500  0.303900  1.0
  C  C660  1  0.303900  0.080500  0.962100  1.0
  C  C661  1  0.462100  0.153500  0.580500  1.0
  C  C662  1  0.803900  0.580500  0.153500  1.0
  C  C663  1  0.153500  0.462100  0.803900  1.0
  C  C664  1  0.580500  0.803900  0.462100  1.0
  C  C665  1  0.580500  0.462100  0.153500  1.0
  C  C666  1  0.153500  0.803900  0.580500  1.0
  C  C667  1  0.803900  0.153500  0.462100  1.0
  C  C668  1  0.462100  0.580500  0.803900  1.0
  C  C669  1  0.153500  0.580500  0.462100  1.0
  C  C670  1  0.580500  0.153500  0.803900  1.0
  C  C671  1  0.462100  0.803900  0.153500  1.0
  C  C672  1  0.803900  0.462100  0.580500  1.0
  Fe  Fe673  1  0.844500  0.844500  0.844500  1.0
  Fe  Fe674  1  0.466500  0.844500  0.844500  1.0
  Fe  Fe675  1  0.844500  0.466500  0.844500  1.0
  Fe  Fe676  1  0.844500  0.844500  0.466500  1.0
  Fe  Fe677  1  0.344500  0.344500  0.344500  1.0
  Fe  Fe678  1  0.966500  0.344500  0.344500  1.0
  Fe  Fe679  1  0.344500  0.344500  0.966500  1.0
  Fe  Fe680  1  0.344500  0.966500  0.344500  1.0
  H  H681  1  0.826900  0.745900  0.871700  1.0
  H  H682  1  0.555500  0.871700  0.745900  1.0
  H  H683  1  0.871700  0.555500  0.826900  1.0
  H  H684  1  0.745900  0.826900  0.555500  1.0
  H  H685  1  0.745900  0.871700  0.826900  1.0
  H  H686  1  0.871700  0.745900  0.555500  1.0
  H  H687  1  0.555500  0.826900  0.871700  1.0
  H  H688  1  0.826900  0.555500  0.745900  1.0
  H  H689  1  0.871700  0.826900  0.745900  1.0
  H  H690  1  0.745900  0.555500  0.871700  1.0
  H  H691  1  0.826900  0.871700  0.555500  1.0
  H  H692  1  0.555500  0.745900  0.826900  1.0
  H  H693  1  0.326900  0.371700  0.245900  1.0
  H  H694  1  0.055500  0.245900  0.371700  1.0
  H  H695  1  0.371700  0.326900  0.055500  1.0
  H  H696  1  0.245900  0.055500  0.326900  1.0
  H  H697  1  0.245900  0.326900  0.371700  1.0
  H  H698  1  0.371700  0.055500  0.245900  1.0
  H  H699  1  0.055500  0.371700  0.326900  1.0
  H  H700  1  0.326900  0.245900  0.055500  1.0
  H  H701  1  0.371700  0.245900  0.326900  1.0
  H  H702  1  0.245900  0.371700  0.055500  1.0
  H  H703  1  0.326900  0.055500  0.371700  1.0
  H  H704  1  0.055500  0.326900  0.245900  1.0
  H  H705  1  0.764300  0.708900  0.930100  1.0
  H  H706  1  0.596700  0.930100  0.708900  1.0
  H  H707  1  0.930100  0.596700  0.764300  1.0
  H  H708  1  0.708900  0.764300  0.596700  1.0
  H  H709  1  0.708900  0.930100  0.764300  1.0
  H  H710  1  0.930100  0.708900  0.596700  1.0
  H  H711  1  0.596700  0.764300  0.930100  1.0
  H  H712  1  0.764300  0.596700  0.708900  1.0
  H  H713  1  0.930100  0.764300  0.708900  1.0
  H  H714  1  0.708900  0.596700  0.930100  1.0
  H  H715  1  0.764300  0.930100  0.596700  1.0
  H  H716  1  0.596700  0.708900  0.764300  1.0
  H  H717  1  0.264300  0.430100  0.208900  1.0
  H  H718  1  0.096700  0.208900  0.430100  1.0
  H  H719  1  0.430100  0.264300  0.096700  1.0
  H  H720  1  0.208900  0.096700  0.264300  1.0
  H  H721  1  0.208900  0.264300  0.430100  1.0
  H  H722  1  0.430100  0.096700  0.208900  1.0
  H  H723  1  0.096700  0.430100  0.264300  1.0
  H  H724  1  0.264300  0.208900  0.096700  1.0
  H  H725  1  0.430100  0.208900  0.264300  1.0
  H  H726  1  0.208900  0.430100  0.096700  1.0
  H  H727  1  0.264300  0.096700  0.430100  1.0
  H  H728  1  0.096700  0.264300  0.208900  1.0
  H  H729  1  0.698300  0.745900  0.991700  1.0
  H  H730  1  0.564100  0.991700  0.745900  1.0
  H  H731  1  0.991700  0.564100  0.698300  1.0
  H  H732  1  0.745900  0.698300  0.564100  1.0
  H  H733  1  0.745900  0.991700  0.698300  1.0
  H  H734  1  0.991700  0.745900  0.564100  1.0
  H  H735  1  0.564100  0.698300  0.991700  1.0
  H  H736  1  0.698300  0.564100  0.745900  1.0
  H  H737  1  0.991700  0.698300  0.745900  1.0
  H  H738  1  0.745900  0.564100  0.991700  1.0
  H  H739  1  0.698300  0.991700  0.564100  1.0
  H  H740  1  0.564100  0.745900  0.698300  1.0
  H  H741  1  0.198300  0.491700  0.245900  1.0
  H  H742  1  0.064100  0.245900  0.491700  1.0
  H  H743  1  0.491700  0.198300  0.064100  1.0
  H  H744  1  0.245900  0.064100  0.198300  1.0
  H  H745  1  0.245900  0.198300  0.491700  1.0
  H  H746  1  0.491700  0.064100  0.245900  1.0
  H  H747  1  0.064100  0.491700  0.198300  1.0
  H  H748  1  0.198300  0.245900  0.064100  1.0
  H  H749  1  0.491700  0.245900  0.198300  1.0
  H  H750  1  0.245900  0.491700  0.064100  1.0
  H  H751  1  0.198300  0.064100  0.491700  1.0
  H  H752  1  0.064100  0.198300  0.245900  1.0
  H  H753  1  0.691500  0.824300  0.986100  1.0
  H  H754  1  0.498100  0.986100  0.824300  1.0
  H  H755  1  0.986100  0.498100  0.691500  1.0
  H  H756  1  0.824300  0.691500  0.498100  1.0
  H  H757  1  0.824300  0.986100  0.691500  1.0
  H  H758  1  0.986100  0.824300  0.498100  1.0
  H  H759  1  0.498100  0.691500  0.986100  1.0
  H  H760  1  0.691500  0.498100  0.824300  1.0
  H  H761  1  0.986100  0.691500  0.824300  1.0
  H  H762  1  0.824300  0.498100  0.986100  1.0
  H  H763  1  0.691500  0.986100  0.498100  1.0
  H  H764  1  0.498100  0.824300  0.691500  1.0
  H  H765  1  0.191500  0.486100  0.324300  1.0
  H  H766  1  0.998100  0.324300  0.486100  1.0
  H  H767  1  0.486100  0.191500  0.998100  1.0
  H  H768  1  0.324300  0.998100  0.191500  1.0
  H  H769  1  0.324300  0.191500  0.486100  1.0
  H  H770  1  0.486100  0.998100  0.324300  1.0
  H  H771  1  0.998100  0.486100  0.191500  1.0
  H  H772  1  0.191500  0.324300  0.998100  1.0
  H  H773  1  0.486100  0.324300  0.191500  1.0
  H  H774  1  0.324300  0.486100  0.998100  1.0
  H  H775  1  0.191500  0.998100  0.486100  1.0
  H  H776  1  0.998100  0.191500  0.324300  1.0
  H  H777  1  0.727600  0.897400  0.939600  1.0
  H  H778  1  0.435400  0.939600  0.897400  1.0
  H  H779  1  0.939600  0.435400  0.727600  1.0
  H  H780  1  0.897400  0.727600  0.435400  1.0
  H  H781  1  0.897400  0.939600  0.727600  1.0
  H  H782  1  0.939600  0.897400  0.435400  1.0
  H  H783  1  0.435400  0.727600  0.939600  1.0
  H  H784  1  0.727600  0.435400  0.897400  1.0
  H  H785  1  0.939600  0.727600  0.897400  1.0
  H  H786  1  0.897400  0.435400  0.939600  1.0
  H  H787  1  0.727600  0.939600  0.435400  1.0
  H  H788  1  0.435400  0.897400  0.727600  1.0
  H  H789  1  0.227600  0.439600  0.397400  1.0
  H  H790  1  0.935400  0.397400  0.439600  1.0
  H  H791  1  0.439600  0.227600  0.935400  1.0
  H  H792  1  0.397400  0.935400  0.227600  1.0
  H  H793  1  0.397400  0.227600  0.439600  1.0
  H  H794  1  0.439600  0.935400  0.397400  1.0
  H  H795  1  0.935400  0.439600  0.227600  1.0
  H  H796  1  0.227600  0.397400  0.935400  1.0
  H  H797  1  0.439600  0.397400  0.227600  1.0
  H  H798  1  0.397400  0.439600  0.935400  1.0
  H  H799  1  0.227600  0.935400  0.439600  1.0
  H  H800  1  0.935400  0.227600  0.397400  1.0
  H  H801  1  0.841500  0.925500  0.904100  1.0
  H  H802  1  0.328900  0.904100  0.925500  1.0
  H  H803  1  0.904100  0.328900  0.841500  1.0
  H  H804  1  0.925500  0.841500  0.328900  1.0
  H  H805  1  0.925500  0.904100  0.841500  1.0
  H  H806  1  0.904100  0.925500  0.328900  1.0
  H  H807  1  0.328900  0.841500  0.904100  1.0
  H  H808  1  0.841500  0.328900  0.925500  1.0
  H  H809  1  0.904100  0.841500  0.925500  1.0
  H  H810  1  0.925500  0.328900  0.904100  1.0
  H  H811  1  0.841500  0.904100  0.328900  1.0
  H  H812  1  0.328900  0.925500  0.841500  1.0
  H  H813  1  0.341500  0.404100  0.425500  1.0
  H  H814  1  0.828900  0.425500  0.404100  1.0
  H  H815  1  0.404100  0.341500  0.828900  1.0
  H  H816  1  0.425500  0.828900  0.341500  1.0
  H  H817  1  0.425500  0.341500  0.404100  1.0
  H  H818  1  0.404100  0.828900  0.425500  1.0
  H  H819  1  0.828900  0.404100  0.341500  1.0
  H  H820  1  0.341500  0.425500  0.828900  1.0
  H  H821  1  0.404100  0.425500  0.341500  1.0
  H  H822  1  0.425500  0.404100  0.828900  1.0
  H  H823  1  0.341500  0.828900  0.404100  1.0
  H  H824  1  0.828900  0.341500  0.425500  1.0
  H  H825  1  0.836100  0.009500  0.878500  1.0
  H  H826  1  0.275900  0.878500  0.009500  1.0
  H  H827  1  0.878500  0.275900  0.836100  1.0
  H  H828  1  0.009500  0.836100  0.275900  1.0
  H  H829  1  0.009500  0.878500  0.836100  1.0
  H  H830  1  0.878500  0.009500  0.275900  1.0
  H  H831  1  0.275900  0.836100  0.878500  1.0
  H  H832  1  0.836100  0.275900  0.009500  1.0
  H  H833  1  0.878500  0.836100  0.009500  1.0
  H  H834  1  0.009500  0.275900  0.878500  1.0
  H  H835  1  0.836100  0.878500  0.275900  1.0
  H  H836  1  0.275900  0.009500  0.836100  1.0
  H  H837  1  0.336100  0.378500  0.509500  1.0
  H  H838  1  0.775900  0.509500  0.378500  1.0
  H  H839  1  0.378500  0.336100  0.775900  1.0
  H  H840  1  0.509500  0.775900  0.336100  1.0
  H  H841  1  0.509500  0.336100  0.378500  1.0
  H  H842  1  0.378500  0.775900  0.509500  1.0
  H  H843  1  0.775900  0.378500  0.336100  1.0
  H  H844  1  0.336100  0.509500  0.775900  1.0
  H  H845  1  0.378500  0.509500  0.336100  1.0
  H  H846  1  0.509500  0.378500  0.775900  1.0
  H  H847  1  0.336100  0.775900  0.378500  1.0
  H  H848  1  0.775900  0.336100  0.509500  1.0
  H  H849  1  0.734100  0.058100  0.811700  1.0
  H  H850  1  0.396100  0.811700  0.058100  1.0
  H  H851  1  0.811700  0.396100  0.734100  1.0
  H  H852  1  0.058100  0.734100  0.396100  1.0
  H  H853  1  0.058100  0.811700  0.734100  1.0
  H  H854  1  0.811700  0.058100  0.396100  1.0
  H  H855  1  0.396100  0.734100  0.811700  1.0
  H  H856  1  0.734100  0.396100  0.058100  1.0
  H  H857  1  0.811700  0.734100  0.058100  1.0
  H  H858  1  0.058100  0.396100  0.811700  1.0
  H  H859  1  0.734100  0.811700  0.396100  1.0
  H  H860  1  0.396100  0.058100  0.734100  1.0
  H  H861  1  0.234100  0.311700  0.558100  1.0
  H  H862  1  0.896100  0.558100  0.311700  1.0
  H  H863  1  0.311700  0.234100  0.896100  1.0
  H  H864  1  0.558100  0.896100  0.234100  1.0
  H  H865  1  0.558100  0.234100  0.311700  1.0
  H  H866  1  0.311700  0.896100  0.558100  1.0
  H  H867  1  0.896100  0.311700  0.234100  1.0
  H  H868  1  0.234100  0.558100  0.896100  1.0
  H  H869  1  0.311700  0.558100  0.234100  1.0
  H  H870  1  0.558100  0.311700  0.896100  1.0
  H  H871  1  0.234100  0.896100  0.311700  1.0
  H  H872  1  0.896100  0.234100  0.558100  1.0
  H  H873  1  0.739600  0.974000  0.837400  1.0
  H  H874  1  0.449000  0.837400  0.974000  1.0
  H  H875  1  0.837400  0.449000  0.739600  1.0
  H  H876  1  0.974000  0.739600  0.449000  1.0
  H  H877  1  0.974000  0.837400  0.739600  1.0
  H  H878  1  0.837400  0.974000  0.449000  1.0
  H  H879  1  0.449000  0.739600  0.837400  1.0
  H  H880  1  0.739600  0.449000  0.974000  1.0
  H  H881  1  0.837400  0.739600  0.974000  1.0
  H  H882  1  0.974000  0.449000  0.837400  1.0
  H  H883  1  0.739600  0.837400  0.449000  1.0
  H  H884  1  0.449000  0.974000  0.739600  1.0
  H  H885  1  0.239600  0.337400  0.474000  1.0
  H  H886  1  0.949000  0.474000  0.337400  1.0
  H  H887  1  0.337400  0.239600  0.949000  1.0
  H  H888  1  0.474000  0.949000  0.239600  1.0
  H  H889  1  0.474000  0.239600  0.337400  1.0
  H  H890  1  0.337400  0.949000  0.474000  1.0
  H  H891  1  0.949000  0.337400  0.239600  1.0
  H  H892  1  0.239600  0.474000  0.949000  1.0
  H  H893  1  0.337400  0.474000  0.239600  1.0
  H  H894  1  0.474000  0.337400  0.949000  1.0
  H  H895  1  0.239600  0.949000  0.337400  1.0
  H  H896  1  0.949000  0.239600  0.474000  1.0
  H  H897  1  0.645200  0.255200  0.898400  1.0
  H  H898  1  0.201200  0.898400  0.255200  1.0
  H  H899  1  0.898400  0.201200  0.645200  1.0
  H  H900  1  0.255200  0.645200  0.201200  1.0
  H  H901  1  0.255200  0.898400  0.645200  1.0
  H  H902  1  0.898400  0.255200  0.201200  1.0
  H  H903  1  0.201200  0.645200  0.898400  1.0
  H  H904  1  0.645200  0.201200  0.255200  1.0
  H  H905  1  0.898400  0.645200  0.255200  1.0
  H  H906  1  0.255200  0.201200  0.898400  1.0
  H  H907  1  0.645200  0.898400  0.201200  1.0
  H  H908  1  0.201200  0.255200  0.645200  1.0
  H  H909  1  0.145200  0.398400  0.755200  1.0
  H  H910  1  0.701200  0.755200  0.398400  1.0
  H  H911  1  0.398400  0.145200  0.701200  1.0
  H  H912  1  0.755200  0.701200  0.145200  1.0
  H  H913  1  0.755200  0.145200  0.398400  1.0
  H  H914  1  0.398400  0.701200  0.755200  1.0
  H  H915  1  0.701200  0.398400  0.145200  1.0
  H  H916  1  0.145200  0.755200  0.701200  1.0
  H  H917  1  0.398400  0.755200  0.145200  1.0
  H  H918  1  0.755200  0.398400  0.701200  1.0
  H  H919  1  0.145200  0.701200  0.398400  1.0
  H  H920  1  0.701200  0.145200  0.755200  1.0
  H  H921  1  0.598900  0.153300  0.946100  1.0
  H  H922  1  0.301700  0.946100  0.153300  1.0
  H  H923  1  0.946100  0.301700  0.598900  1.0
  H  H924  1  0.153300  0.598900  0.301700  1.0
  H  H925  1  0.153300  0.946100  0.598900  1.0
  H  H926  1  0.946100  0.153300  0.301700  1.0
  H  H927  1  0.301700  0.598900  0.946100  1.0
  H  H928  1  0.598900  0.301700  0.153300  1.0
  H  H929  1  0.946100  0.598900  0.153300  1.0
  H  H930  1  0.153300  0.301700  0.946100  1.0
  H  H931  1  0.598900  0.946100  0.301700  1.0
  H  H932  1  0.301700  0.153300  0.598900  1.0
  H  H933  1  0.098900  0.446100  0.653300  1.0
  H  H934  1  0.801700  0.653300  0.446100  1.0
  H  H935  1  0.446100  0.098900  0.801700  1.0
  H  H936  1  0.653300  0.801700  0.098900  1.0
  H  H937  1  0.653300  0.098900  0.446100  1.0
  H  H938  1  0.446100  0.801700  0.653300  1.0
  H  H939  1  0.801700  0.446100  0.098900  1.0
  H  H940  1  0.098900  0.653300  0.801700  1.0
  H  H941  1  0.446100  0.653300  0.098900  1.0
  H  H942  1  0.653300  0.446100  0.801700  1.0
  H  H943  1  0.098900  0.801700  0.446100  1.0
  H  H944  1  0.801700  0.098900  0.653300  1.0
  H  H945  1  0.598300  0.207900  0.934500  1.0
  H  H946  1  0.259300  0.934500  0.207900  1.0
  H  H947  1  0.934500  0.259300  0.598300  1.0
  H  H948  1  0.207900  0.598300  0.259300  1.0
  H  H949  1  0.207900  0.934500  0.598300  1.0
  H  H950  1  0.934500  0.207900  0.259300  1.0
  H  H951  1  0.259300  0.598300  0.934500  1.0
  H  H952  1  0.598300  0.259300  0.207900  1.0
  H  H953  1  0.934500  0.598300  0.207900  1.0
  H  H954  1  0.207900  0.259300  0.934500  1.0
  H  H955  1  0.598300  0.934500  0.259300  1.0
  H  H956  1  0.259300  0.207900  0.598300  1.0
  H  H957  1  0.098300  0.434500  0.707900  1.0
  H  H958  1  0.759300  0.707900  0.434500  1.0
  H  H959  1  0.434500  0.098300  0.759300  1.0
  H  H960  1  0.707900  0.759300  0.098300  1.0
  H  H961  1  0.707900  0.098300  0.434500  1.0
  H  H962  1  0.434500  0.759300  0.707900  1.0
  H  H963  1  0.759300  0.434500  0.098300  1.0
  H  H964  1  0.098300  0.707900  0.759300  1.0
  H  H965  1  0.434500  0.707900  0.098300  1.0
  H  H966  1  0.707900  0.434500  0.759300  1.0
  H  H967  1  0.098300  0.759300  0.434500  1.0
  H  H968  1  0.759300  0.098300  0.707900  1.0
  H  H969  1  0.638400  0.117400  0.006400  1.0
  H  H970  1  0.237800  0.006400  0.117400  1.0
  H  H971  1  0.006400  0.237800  0.638400  1.0
  H  H972  1  0.117400  0.638400  0.237800  1.0
  H  H973  1  0.117400  0.006400  0.638400  1.0
  H  H974  1  0.006400  0.117400  0.237800  1.0
  H  H975  1  0.237800  0.638400  0.006400  1.0
  H  H976  1  0.638400  0.237800  0.117400  1.0
  H  H977  1  0.006400  0.638400  0.117400  1.0
  H  H978  1  0.117400  0.237800  0.006400  1.0
  H  H979  1  0.638400  0.006400  0.237800  1.0
  H  H980  1  0.237800  0.117400  0.638400  1.0
  H  H981  1  0.138400  0.506400  0.617400  1.0
  H  H982  1  0.737800  0.617400  0.506400  1.0
  H  H983  1  0.506400  0.138400  0.737800  1.0
  H  H984  1  0.617400  0.737800  0.138400  1.0
  H  H985  1  0.617400  0.138400  0.506400  1.0
  H  H986  1  0.506400  0.737800  0.617400  1.0
  H  H987  1  0.737800  0.506400  0.138400  1.0
  H  H988  1  0.138400  0.617400  0.737800  1.0
  H  H989  1  0.506400  0.617400  0.138400  1.0
  H  H990  1  0.617400  0.506400  0.737800  1.0
  H  H991  1  0.138400  0.737800  0.506400  1.0
  H  H992  1  0.737800  0.138400  0.617400  1.0
  H  H993  1  0.584900  0.160700  0.020100  1.0
  H  H994  1  0.234300  0.020100  0.160700  1.0
  H  H995  1  0.020100  0.234300  0.584900  1.0
  H  H996  1  0.160700  0.584900  0.234300  1.0
  H  H997  1  0.160700  0.020100  0.584900  1.0
  H  H998  1  0.020100  0.160700  0.234300  1.0
  H  H999  1  0.234300  0.584900  0.020100  1.0
  H  H1000  1  0.584900  0.234300  0.160700  1.0
  H  H1001  1  0.020100  0.584900  0.160700  1.0
  H  H1002  1  0.160700  0.234300  0.020100  1.0
  H  H1003  1  0.584900  0.020100  0.234300  1.0
  H  H1004  1  0.234300  0.160700  0.584900  1.0
  H  H1005  1  0.084900  0.520100  0.660700  1.0
  H  H1006  1  0.734300  0.660700  0.520100  1.0
  H  H1007  1  0.520100  0.084900  0.734300  1.0
  H  H1008  1  0.660700  0.734300  0.084900  1.0
  H  H1009  1  0.660700  0.084900  0.520100  1.0
  H  H1010  1  0.520100  0.734300  0.660700  1.0
  H  H1011  1  0.734300  0.520100  0.084900  1.0
  H  H1012  1  0.084900  0.660700  0.734300  1.0
  H  H1013  1  0.520100  0.660700  0.084900  1.0
  H  H1014  1  0.660700  0.520100  0.734300  1.0
  H  H1015  1  0.084900  0.734300  0.520100  1.0
  H  H1016  1  0.734300  0.084900  0.660700  1.0
  H  H1017  1  0.636700  0.172500  0.995100  1.0
  H  H1018  1  0.195700  0.995100  0.172500  1.0
  H  H1019  1  0.995100  0.195700  0.636700  1.0
  H  H1020  1  0.172500  0.636700  0.195700  1.0
  H  H1021  1  0.172500  0.995100  0.636700  1.0
  H  H1022  1  0.995100  0.172500  0.195700  1.0
  H  H1023  1  0.195700  0.636700  0.995100  1.0
  H  H1024  1  0.636700  0.195700  0.172500  1.0
  H  H1025  1  0.995100  0.636700  0.172500  1.0
  H  H1026  1  0.172500  0.195700  0.995100  1.0
  H  H1027  1  0.636700  0.995100  0.195700  1.0
  H  H1028  1  0.195700  0.172500  0.636700  1.0
  H  H1029  1  0.136700  0.495100  0.672500  1.0
  H  H1030  1  0.695700  0.672500  0.495100  1.0
  H  H1031  1  0.495100  0.136700  0.695700  1.0
  H  H1032  1  0.672500  0.695700  0.136700  1.0
  H  H1033  1  0.672500  0.136700  0.495100  1.0
  H  H1034  1  0.495100  0.695700  0.672500  1.0
  H  H1035  1  0.695700  0.495100  0.136700  1.0
  H  H1036  1  0.136700  0.672500  0.695700  1.0
  H  H1037  1  0.495100  0.672500  0.136700  1.0
  H  H1038  1  0.672500  0.495100  0.695700  1.0
  H  H1039  1  0.136700  0.695700  0.495100  1.0
  H  H1040  1  0.695700  0.136700  0.672500  1.0
  H  H1041  1  0.652600  0.076600  0.949600  1.0
  H  H1042  1  0.321200  0.949600  0.076600  1.0
  H  H1043  1  0.949600  0.321200  0.652600  1.0
  H  H1044  1  0.076600  0.652600  0.321200  1.0
  H  H1045  1  0.076600  0.949600  0.652600  1.0
  H  H1046  1  0.949600  0.076600  0.321200  1.0
  H  H1047  1  0.321200  0.652600  0.949600  1.0
  H  H1048  1  0.652600  0.321200  0.076600  1.0
  H  H1049  1  0.949600  0.652600  0.076600  1.0
  H  H1050  1  0.076600  0.321200  0.949600  1.0
  H  H1051  1  0.652600  0.949600  0.321200  1.0
  H  H1052  1  0.321200  0.076600  0.652600  1.0
  H  H1053  1  0.152600  0.449600  0.576600  1.0
  H  H1054  1  0.821200  0.576600  0.449600  1.0
  H  H1055  1  0.449600  0.152600  0.821200  1.0
  H  H1056  1  0.576600  0.821200  0.152600  1.0
  H  H1057  1  0.576600  0.152600  0.449600  1.0
  H  H1058  1  0.449600  0.821200  0.576600  1.0
  H  H1059  1  0.821200  0.449600  0.152600  1.0
  H  H1060  1  0.152600  0.576600  0.821200  1.0
  H  H1061  1  0.449600  0.576600  0.152600  1.0
  H  H1062  1  0.576600  0.449600  0.821200  1.0
  H  H1063  1  0.152600  0.821200  0.449600  1.0
  H  H1064  1  0.821200  0.152600  0.576600  1.0
  H  H1065  1  0.711600  0.043800  0.941800  1.0
  H  H1066  1  0.302800  0.941800  0.043800  1.0
  H  H1067  1  0.941800  0.302800  0.711600  1.0
  H  H1068  1  0.043800  0.711600  0.302800  1.0
  H  H1069  1  0.043800  0.941800  0.711600  1.0
  H  H1070  1  0.941800  0.043800  0.302800  1.0
  H  H1071  1  0.302800  0.711600  0.941800  1.0
  H  H1072  1  0.711600  0.302800  0.043800  1.0
  H  H1073  1  0.941800  0.711600  0.043800  1.0
  H  H1074  1  0.043800  0.302800  0.941800  1.0
  H  H1075  1  0.711600  0.941800  0.302800  1.0
  H  H1076  1  0.302800  0.043800  0.711600  1.0
  H  H1077  1  0.211600  0.441800  0.543800  1.0
  H  H1078  1  0.802800  0.543800  0.441800  1.0
  H  H1079  1  0.441800  0.211600  0.802800  1.0
  H  H1080  1  0.543800  0.802800  0.211600  1.0
  H  H1081  1  0.543800  0.211600  0.441800  1.0
  H  H1082  1  0.441800  0.802800  0.543800  1.0
  H  H1083  1  0.802800  0.441800  0.211600  1.0
  H  H1084  1  0.211600  0.543800  0.802800  1.0
  H  H1085  1  0.441800  0.543800  0.211600  1.0
  H  H1086  1  0.543800  0.441800  0.802800  1.0
  H  H1087  1  0.211600  0.802800  0.441800  1.0
  H  H1088  1  0.802800  0.211600  0.543800  1.0
  H  H1089  1  0.687500  0.056500  0.902100  1.0
  H  H1090  1  0.353900  0.902100  0.056500  1.0
  H  H1091  1  0.902100  0.353900  0.687500  1.0
  H  H1092  1  0.056500  0.687500  0.353900  1.0
  H  H1093  1  0.056500  0.902100  0.687500  1.0
  H  H1094  1  0.902100  0.056500  0.353900  1.0
  H  H1095  1  0.353900  0.687500  0.902100  1.0
  H  H1096  1  0.687500  0.353900  0.056500  1.0
  H  H1097  1  0.902100  0.687500  0.056500  1.0
  H  H1098  1  0.056500  0.353900  0.902100  1.0
  H  H1099  1  0.687500  0.902100  0.353900  1.0
  H  H1100  1  0.353900  0.056500  0.687500  1.0
  H  H1101  1  0.187500  0.402100  0.556500  1.0
  H  H1102  1  0.853900  0.556500  0.402100  1.0
  H  H1103  1  0.402100  0.187500  0.853900  1.0
  H  H1104  1  0.556500  0.853900  0.187500  1.0
  H  H1105  1  0.556500  0.187500  0.402100  1.0
  H  H1106  1  0.402100  0.853900  0.556500  1.0
  H  H1107  1  0.853900  0.402100  0.187500  1.0
  H  H1108  1  0.187500  0.556500  0.853900  1.0
  H  H1109  1  0.402100  0.556500  0.187500  1.0
  H  H1110  1  0.556500  0.402100  0.853900  1.0
  H  H1111  1  0.187500  0.853900  0.402100  1.0
  H  H1112  1  0.853900  0.187500  0.556500  1.0
  H  H1113  1  0.840000  0.033400  0.733600  1.0
  H  H1114  1  0.393000  0.733600  0.033400  1.0
  H  H1115  1  0.733600  0.393000  0.840000  1.0
  H  H1116  1  0.033400  0.840000  0.393000  1.0
  H  H1117  1  0.033400  0.733600  0.840000  1.0
  H  H1118  1  0.733600  0.033400  0.393000  1.0
  H  H1119  1  0.393000  0.840000  0.733600  1.0
  H  H1120  1  0.840000  0.393000  0.033400  1.0
  H  H1121  1  0.733600  0.840000  0.033400  1.0
  H  H1122  1  0.033400  0.393000  0.733600  1.0
  H  H1123  1  0.840000  0.733600  0.393000  1.0
  H  H1124  1  0.393000  0.033400  0.840000  1.0
  H  H1125  1  0.340000  0.233600  0.533400  1.0
  H  H1126  1  0.893000  0.533400  0.233600  1.0
  H  H1127  1  0.233600  0.340000  0.893000  1.0
  H  H1128  1  0.533400  0.893000  0.340000  1.0
  H  H1129  1  0.533400  0.340000  0.233600  1.0
  H  H1130  1  0.233600  0.893000  0.533400  1.0
  H  H1131  1  0.893000  0.233600  0.340000  1.0
  H  H1132  1  0.340000  0.533400  0.893000  1.0
  H  H1133  1  0.233600  0.533400  0.340000  1.0
  H  H1134  1  0.533400  0.233600  0.893000  1.0
  H  H1135  1  0.340000  0.893000  0.233600  1.0
  H  H1136  1  0.893000  0.340000  0.533400  1.0
  H  H1137  1  0.857400  0.011200  0.781400  1.0
  H  H1138  1  0.350000  0.781400  0.011200  1.0
  H  H1139  1  0.781400  0.350000  0.857400  1.0
  H  H1140  1  0.011200  0.857400  0.350000  1.0
  H  H1141  1  0.011200  0.781400  0.857400  1.0
  H  H1142  1  0.781400  0.011200  0.350000  1.0
  H  H1143  1  0.350000  0.857400  0.781400  1.0
  H  H1144  1  0.857400  0.350000  0.011200  1.0
  H  H1145  1  0.781400  0.857400  0.011200  1.0
  H  H1146  1  0.011200  0.350000  0.781400  1.0
  H  H1147  1  0.857400  0.781400  0.350000  1.0
  H  H1148  1  0.350000  0.011200  0.857400  1.0
  H  H1149  1  0.357400  0.281400  0.511200  1.0
  H  H1150  1  0.850000  0.511200  0.281400  1.0
  H  H1151  1  0.281400  0.357400  0.850000  1.0
  H  H1152  1  0.511200  0.850000  0.357400  1.0
  H  H1153  1  0.511200  0.357400  0.281400  1.0
  H  H1154  1  0.281400  0.850000  0.511200  1.0
  H  H1155  1  0.850000  0.281400  0.357400  1.0
  H  H1156  1  0.357400  0.511200  0.850000  1.0
  H  H1157  1  0.281400  0.511200  0.357400  1.0
  H  H1158  1  0.511200  0.281400  0.850000  1.0
  H  H1159  1  0.357400  0.850000  0.281400  1.0
  H  H1160  1  0.850000  0.357400  0.511200  1.0
  H  H1161  1  0.898400  0.018200  0.725200  1.0
  H  H1162  1  0.358200  0.725200  0.018200  1.0
  H  H1163  1  0.725200  0.358200  0.898400  1.0
  H  H1164  1  0.018200  0.898400  0.358200  1.0
  H  H1165  1  0.018200  0.725200  0.898400  1.0
  H  H1166  1  0.725200  0.018200  0.358200  1.0
  H  H1167  1  0.358200  0.898400  0.725200  1.0
  H  H1168  1  0.898400  0.358200  0.018200  1.0
  H  H1169  1  0.725200  0.898400  0.018200  1.0
  H  H1170  1  0.018200  0.358200  0.725200  1.0
  H  H1171  1  0.898400  0.725200  0.358200  1.0
  H  H1172  1  0.358200  0.018200  0.898400  1.0
  H  H1173  1  0.398400  0.225200  0.518200  1.0
  H  H1174  1  0.858200  0.518200  0.225200  1.0
  H  H1175  1  0.225200  0.398400  0.858200  1.0
  H  H1176  1  0.518200  0.858200  0.398400  1.0
  H  H1177  1  0.518200  0.398400  0.225200  1.0
  H  H1178  1  0.225200  0.858200  0.518200  1.0
  H  H1179  1  0.858200  0.225200  0.398400  1.0
  H  H1180  1  0.398400  0.518200  0.858200  1.0
  H  H1181  1  0.225200  0.518200  0.398400  1.0
  H  H1182  1  0.518200  0.225200  0.858200  1.0
  H  H1183  1  0.398400  0.858200  0.225200  1.0
  H  H1184  1  0.858200  0.398400  0.518200  1.0
  H  H1185  1  0.910800  0.145400  0.621800  1.0
  H  H1186  1  0.322000  0.621800  0.145400  1.0
  H  H1187  1  0.621800  0.322000  0.910800  1.0
  H  H1188  1  0.145400  0.910800  0.322000  1.0
  H  H1189  1  0.145400  0.621800  0.910800  1.0
  H  H1190  1  0.621800  0.145400  0.322000  1.0
  H  H1191  1  0.322000  0.910800  0.621800  1.0
  H  H1192  1  0.910800  0.322000  0.145400  1.0
  H  H1193  1  0.621800  0.910800  0.145400  1.0
  H  H1194  1  0.145400  0.322000  0.621800  1.0
  H  H1195  1  0.910800  0.621800  0.322000  1.0
  H  H1196  1  0.322000  0.145400  0.910800  1.0
  H  H1197  1  0.410800  0.121800  0.645400  1.0
  H  H1198  1  0.822000  0.645400  0.121800  1.0
  H  H1199  1  0.121800  0.410800  0.822000  1.0
  H  H1200  1  0.645400  0.822000  0.410800  1.0
  H  H1201  1  0.645400  0.410800  0.121800  1.0
  H  H1202  1  0.121800  0.822000  0.645400  1.0
  H  H1203  1  0.822000  0.121800  0.410800  1.0
  H  H1204  1  0.410800  0.645400  0.822000  1.0
  H  H1205  1  0.121800  0.645400  0.410800  1.0
  H  H1206  1  0.645400  0.121800  0.822000  1.0
  H  H1207  1  0.410800  0.822000  0.121800  1.0
  H  H1208  1  0.822000  0.410800  0.645400  1.0
  H  H1209  1  0.900300  0.094500  0.638700  1.0
  H  H1210  1  0.366500  0.638700  0.094500  1.0
  H  H1211  1  0.638700  0.366500  0.900300  1.0
  H  H1212  1  0.094500  0.900300  0.366500  1.0
  H  H1213  1  0.094500  0.638700  0.900300  1.0
  H  H1214  1  0.638700  0.094500  0.366500  1.0
  H  H1215  1  0.366500  0.900300  0.638700  1.0
  H  H1216  1  0.900300  0.366500  0.094500  1.0
  H  H1217  1  0.638700  0.900300  0.094500  1.0
  H  H1218  1  0.094500  0.366500  0.638700  1.0
  H  H1219  1  0.900300  0.638700  0.366500  1.0
  H  H1220  1  0.366500  0.094500  0.900300  1.0
  H  H1221  1  0.400300  0.138700  0.594500  1.0
  H  H1222  1  0.866500  0.594500  0.138700  1.0
  H  H1223  1  0.138700  0.400300  0.866500  1.0
  H  H1224  1  0.594500  0.866500  0.400300  1.0
  H  H1225  1  0.594500  0.400300  0.138700  1.0
  H  H1226  1  0.138700  0.866500  0.594500  1.0
  H  H1227  1  0.866500  0.138700  0.400300  1.0
  H  H1228  1  0.400300  0.594500  0.866500  1.0
  H  H1229  1  0.138700  0.594500  0.400300  1.0
  H  H1230  1  0.594500  0.138700  0.866500  1.0
  H  H1231  1  0.400300  0.866500  0.138700  1.0
  H  H1232  1  0.866500  0.400300  0.594500  1.0
  H  H1233  1  0.979100  0.102900  0.645700  1.0
  H  H1234  1  0.272300  0.645700  0.102900  1.0
  H  H1235  1  0.645700  0.272300  0.979100  1.0
  H  H1236  1  0.102900  0.979100  0.272300  1.0
  H  H1237  1  0.102900  0.645700  0.979100  1.0
  H  H1238  1  0.645700  0.102900  0.272300  1.0
  H  H1239  1  0.272300  0.979100  0.645700  1.0
  H  H1240  1  0.979100  0.272300  0.102900  1.0
  H  H1241  1  0.645700  0.979100  0.102900  1.0
  H  H1242  1  0.102900  0.272300  0.645700  1.0
  H  H1243  1  0.979100  0.645700  0.272300  1.0
  H  H1244  1  0.272300  0.102900  0.979100  1.0
  H  H1245  1  0.479100  0.145700  0.602900  1.0
  H  H1246  1  0.772300  0.602900  0.145700  1.0
  H  H1247  1  0.145700  0.479100  0.772300  1.0
  H  H1248  1  0.602900  0.772300  0.479100  1.0
  H  H1249  1  0.602900  0.479100  0.145700  1.0
  H  H1250  1  0.145700  0.772300  0.602900  1.0
  H  H1251  1  0.772300  0.145700  0.479100  1.0
  H  H1252  1  0.479100  0.602900  0.772300  1.0
  H  H1253  1  0.145700  0.602900  0.479100  1.0
  H  H1254  1  0.602900  0.145700  0.772300  1.0
  H  H1255  1  0.479100  0.772300  0.145700  1.0
  H  H1256  1  0.772300  0.479100  0.602900  1.0
  H  H1257  1  0.982400  0.061400  0.629600  1.0
  H  H1258  1  0.326600  0.629600  0.061400  1.0
  H  H1259  1  0.629600  0.326600  0.982400  1.0
  H  H1260  1  0.061400  0.982400  0.326600  1.0
  H  H1261  1  0.061400  0.629600  0.982400  1.0
  H  H1262  1  0.629600  0.061400  0.326600  1.0
  H  H1263  1  0.326600  0.982400  0.629600  1.0
  H  H1264  1  0.982400  0.326600  0.061400  1.0
  H  H1265  1  0.629600  0.982400  0.061400  1.0
  H  H1266  1  0.061400  0.326600  0.629600  1.0
  H  H1267  1  0.982400  0.629600  0.326600  1.0
  H  H1268  1  0.326600  0.061400  0.982400  1.0
  H  H1269  1  0.482400  0.129600  0.561400  1.0
  H  H1270  1  0.826600  0.561400  0.129600  1.0
  H  H1271  1  0.129600  0.482400  0.826600  1.0
  H  H1272  1  0.561400  0.826600  0.482400  1.0
  H  H1273  1  0.561400  0.482400  0.129600  1.0
  H  H1274  1  0.129600  0.826600  0.561400  1.0
  H  H1275  1  0.826600  0.129600  0.482400  1.0
  H  H1276  1  0.482400  0.561400  0.826600  1.0
  H  H1277  1  0.129600  0.561400  0.482400  1.0
  H  H1278  1  0.561400  0.129600  0.826600  1.0
  H  H1279  1  0.482400  0.826600  0.129600  1.0
  H  H1280  1  0.826600  0.482400  0.561400  1.0
  H  H1281  1  0.958700  0.056700  0.688300  1.0
  H  H1282  1  0.296300  0.688300  0.056700  1.0
  H  H1283  1  0.688300  0.296300  0.958700  1.0
  H  H1284  1  0.056700  0.958700  0.296300  1.0
  H  H1285  1  0.056700  0.688300  0.958700  1.0
  H  H1286  1  0.688300  0.056700  0.296300  1.0
  H  H1287  1  0.296300  0.958700  0.688300  1.0
  H  H1288  1  0.958700  0.296300  0.056700  1.0
  H  H1289  1  0.688300  0.958700  0.056700  1.0
  H  H1290  1  0.056700  0.296300  0.688300  1.0
  H  H1291  1  0.958700  0.688300  0.296300  1.0
  H  H1292  1  0.296300  0.056700  0.958700  1.0
  H  H1293  1  0.458700  0.188300  0.556700  1.0
  H  H1294  1  0.796300  0.556700  0.188300  1.0
  H  H1295  1  0.188300  0.458700  0.796300  1.0
  H  H1296  1  0.556700  0.796300  0.458700  1.0
  H  H1297  1  0.556700  0.458700  0.188300  1.0
  H  H1298  1  0.188300  0.796300  0.556700  1.0
  H  H1299  1  0.796300  0.188300  0.458700  1.0
  H  H1300  1  0.458700  0.556700  0.796300  1.0
  H  H1301  1  0.188300  0.556700  0.458700  1.0
  H  H1302  1  0.556700  0.188300  0.796300  1.0
  H  H1303  1  0.458700  0.796300  0.188300  1.0
  H  H1304  1  0.796300  0.458700  0.556700  1.0
  N  N1305  1  0.795520  0.807360  0.890680  1.0
  N  N1306  1  0.506440  0.890680  0.807360  1.0
  N  N1307  1  0.890680  0.506440  0.795520  1.0
  N  N1308  1  0.807360  0.795520  0.506440  1.0
  N  N1309  1  0.807360  0.890680  0.795520  1.0
  N  N1310  1  0.890680  0.807360  0.506440  1.0
  N  N1311  1  0.506440  0.795520  0.890680  1.0
  N  N1312  1  0.795520  0.506440  0.807360  1.0
  N  N1313  1  0.890680  0.795520  0.807360  1.0
  N  N1314  1  0.807360  0.506440  0.890680  1.0
  N  N1315  1  0.795520  0.890680  0.506440  1.0
  N  N1316  1  0.506440  0.807360  0.795520  1.0
  N  N1317  1  0.295520  0.390680  0.307360  1.0
  N  N1318  1  0.006440  0.307360  0.390680  1.0
  N  N1319  1  0.390680  0.295520  0.006440  1.0
  N  N1320  1  0.307360  0.006440  0.295520  1.0
  N  N1321  1  0.307360  0.295520  0.390680  1.0
  N  N1322  1  0.390680  0.006440  0.307360  1.0
  N  N1323  1  0.006440  0.390680  0.295520  1.0
  N  N1324  1  0.295520  0.307360  0.006440  1.0
  N  N1325  1  0.390680  0.307360  0.295520  1.0
  N  N1326  1  0.307360  0.390680  0.006440  1.0
  N  N1327  1  0.295520  0.006440  0.390680  1.0
  N  N1328  1  0.006440  0.295520  0.307360  1.0
  N  N1329  1  0.795750  0.891050  0.885550  1.0
  N  N1330  1  0.427650  0.885550  0.891050  1.0
  N  N1331  1  0.885550  0.427650  0.795750  1.0
  N  N1332  1  0.891050  0.795750  0.427650  1.0
  N  N1333  1  0.891050  0.885550  0.795750  1.0
  N  N1334  1  0.885550  0.891050  0.427650  1.0
  N  N1335  1  0.427650  0.795750  0.885550  1.0
  N  N1336  1  0.795750  0.427650  0.891050  1.0
  N  N1337  1  0.885550  0.795750  0.891050  1.0
  N  N1338  1  0.891050  0.427650  0.885550  1.0
  N  N1339  1  0.795750  0.885550  0.427650  1.0
  N  N1340  1  0.427650  0.891050  0.795750  1.0
  N  N1341  1  0.295750  0.385550  0.391050  1.0
  N  N1342  1  0.927650  0.391050  0.385550  1.0
  N  N1343  1  0.385550  0.295750  0.927650  1.0
  N  N1344  1  0.391050  0.927650  0.295750  1.0
  N  N1345  1  0.391050  0.295750  0.385550  1.0
  N  N1346  1  0.385550  0.927650  0.391050  1.0
  N  N1347  1  0.927650  0.385550  0.295750  1.0
  N  N1348  1  0.295750  0.391050  0.927650  1.0
  N  N1349  1  0.385550  0.391050  0.295750  1.0
  N  N1350  1  0.391050  0.385550  0.927650  1.0
  N  N1351  1  0.295750  0.927650  0.385550  1.0
  N  N1352  1  0.927650  0.295750  0.391050  1.0
  N  N1353  1  0.823210  0.159390  0.756990  1.0
  N  N1354  1  0.260410  0.756990  0.159390  1.0
  N  N1355  1  0.756990  0.260410  0.823210  1.0
  N  N1356  1  0.159390  0.823210  0.260410  1.0
  N  N1357  1  0.159390  0.756990  0.823210  1.0
  N  N1358  1  0.756990  0.159390  0.260410  1.0
  N  N1359  1  0.260410  0.823210  0.756990  1.0
  N  N1360  1  0.823210  0.260410  0.159390  1.0
  N  N1361  1  0.756990  0.823210  0.159390  1.0
  N  N1362  1  0.159390  0.260410  0.756990  1.0
  N  N1363  1  0.823210  0.756990  0.260410  1.0
  N  N1364  1  0.260410  0.159390  0.823210  1.0
  N  N1365  1  0.323210  0.256990  0.659390  1.0
  N  N1366  1  0.760410  0.659390  0.256990  1.0
  N  N1367  1  0.256990  0.323210  0.760410  1.0
  N  N1368  1  0.659390  0.760410  0.323210  1.0
  N  N1369  1  0.659390  0.323210  0.256990  1.0
  N  N1370  1  0.256990  0.760410  0.659390  1.0
  N  N1371  1  0.760410  0.256990  0.323210  1.0
  N  N1372  1  0.323210  0.659390  0.760410  1.0
  N  N1373  1  0.256990  0.659390  0.323210  1.0
  N  N1374  1  0.659390  0.256990  0.760410  1.0
  N  N1375  1  0.323210  0.760410  0.256990  1.0
  N  N1376  1  0.760410  0.323210  0.659390  1.0
  N  N1377  1  0.741510  0.175890  0.839510  1.0
  N  N1378  1  0.243090  0.839510  0.175890  1.0
  N  N1379  1  0.839510  0.243090  0.741510  1.0
  N  N1380  1  0.175890  0.741510  0.243090  1.0
  N  N1381  1  0.175890  0.839510  0.741510  1.0
  N  N1382  1  0.839510  0.175890  0.243090  1.0
  N  N1383  1  0.243090  0.741510  0.839510  1.0
  N  N1384  1  0.741510  0.243090  0.175890  1.0
  N  N1385  1  0.839510  0.741510  0.175890  1.0
  N  N1386  1  0.175890  0.243090  0.839510  1.0
  N  N1387  1  0.741510  0.839510  0.243090  1.0
  N  N1388  1  0.243090  0.175890  0.741510  1.0
  N  N1389  1  0.241510  0.339510  0.675890  1.0
  N  N1390  1  0.743090  0.675890  0.339510  1.0
  N  N1391  1  0.339510  0.241510  0.743090  1.0
  N  N1392  1  0.675890  0.743090  0.241510  1.0
  N  N1393  1  0.675890  0.241510  0.339510  1.0
  N  N1394  1  0.339510  0.743090  0.675890  1.0
  N  N1395  1  0.743090  0.339510  0.241510  1.0
  N  N1396  1  0.241510  0.675890  0.743090  1.0
  N  N1397  1  0.339510  0.675890  0.241510  1.0
  N  N1398  1  0.675890  0.339510  0.743090  1.0
  N  N1399  1  0.241510  0.743090  0.339510  1.0
  N  N1400  1  0.743090  0.241510  0.675890  1.0
  Ni  Ni1401  1  0.789530  0.210470  0.789530  1.0
  Ni  Ni1402  1  0.210470  0.789530  0.210470  1.0
  Ni  Ni1403  1  0.210470  0.789530  0.789530  1.0
  Ni  Ni1404  1  0.789530  0.210470  0.210470  1.0
  Ni  Ni1405  1  0.789530  0.789530  0.210470  1.0
  Ni  Ni1406  1  0.210470  0.210470  0.789530  1.0
  Ni  Ni1407  1  0.289530  0.289530  0.710470  1.0
  Ni  Ni1408  1  0.710470  0.710470  0.289530  1.0
  Ni  Ni1409  1  0.710470  0.289530  0.289530  1.0
  Ni  Ni1410  1  0.289530  0.710470  0.710470  1.0
  Ni  Ni1411  1  0.289530  0.710470  0.289530  1.0
  Ni  Ni1412  1  0.710470  0.289530  0.710470  1.0
