# generated using pymatgen
data_Co7Cu6H78C78(NO5)12
_symmetry_space_group_name_H-M   'P 1'
_cell_length_a   15.41250000
_cell_length_b   36.21720000
_cell_length_c   36.21720000
_cell_angle_alpha   90.00000000
_cell_angle_beta   90.00000000
_cell_angle_gamma   90.00000000
_symmetry_Int_Tables_number   1
_chemical_formula_structural   Co7Cu6H78C78(NO5)12
_chemical_formula_sum   'Co28 Cu24 H312 C312 N48 O240'
_cell_volume   20216.35393763
_cell_formula_units_Z   4
loop_
 _symmetry_equiv_pos_site_id
 _symmetry_equiv_pos_as_xyz
  1  'x, y, z'
loop_
 _atom_site_type_symbol
 _atom_site_label
 _atom_site_symmetry_multiplicity
 _atom_site_fract_x
 _atom_site_fract_y
 _atom_site_fract_z
 _atom_site_occupancy
  Co  Co1  1  0.249990  0.148290  0.645030  1
  Co  Co2  1  0.249990  0.354970  0.148290  1
  Co  Co3  1  0.249990  0.851710  0.354970  1
  Co  Co4  1  0.249990  0.645030  0.851710  1
  Co  Co5  1  0.750010  0.148290  0.354970  1
  Co  Co6  1  0.750010  0.851710  0.645030  1
  Co  Co7  1  0.750010  0.645030  0.148290  1
  Co  Co8  1  0.750010  0.354970  0.851710  1
  Co  Co9  1  0.750010  0.851710  0.354970  1
  Co  Co10  1  0.750010  0.645030  0.851710  1
  Co  Co11  1  0.750010  0.148290  0.645030  1
  Co  Co12  1  0.750010  0.354970  0.148290  1
  Co  Co13  1  0.249990  0.851710  0.645030  1
  Co  Co14  1  0.249990  0.148290  0.354970  1
  Co  Co15  1  0.249990  0.354970  0.851710  1
  Co  Co16  1  0.249990  0.645030  0.148290  1
  Co  Co17  1  0.000000  0.074000  0.539700  1
  Co  Co18  1  1.000000  0.460300  0.074000  1
  Co  Co19  1  0.000000  0.926000  0.460300  1
  Co  Co20  1  0.000000  0.539700  0.926000  1
  Co  Co21  1  1.000000  0.074000  0.460300  1
  Co  Co22  1  0.000000  0.926000  0.539700  1
  Co  Co23  1  0.000000  0.539700  0.074000  1
  Co  Co24  1  1.000000  0.460300  0.926000  1
  Co  Co25  1  0.500000  0.189600  0.810400  1
  Co  Co26  1  0.500000  0.189600  0.189600  1
  Co  Co27  1  0.500000  0.810400  0.189600  1
  Co  Co28  1  0.500000  0.810400  0.810400  1
  Cu  Cu29  1  0.274260  0.170360  0.500000  1.0
  Cu  Cu30  1  0.274260  0.500000  0.170360  1.0
  Cu  Cu31  1  0.274260  0.829640  0.500000  1.0
  Cu  Cu32  1  0.274260  0.500000  0.829640  1.0
  Cu  Cu33  1  0.725740  0.170360  0.500000  1.0
  Cu  Cu34  1  0.725740  0.829640  0.500000  1.0
  Cu  Cu35  1  0.725740  0.500000  0.170360  1.0
  Cu  Cu36  1  0.725740  0.500000  0.829640  1.0
  Cu  Cu37  1  0.225490  0.255810  0.744190  1.0
  Cu  Cu38  1  0.225490  0.255810  0.255810  1.0
  Cu  Cu39  1  0.225490  0.744190  0.255810  1.0
  Cu  Cu40  1  0.225490  0.744190  0.744190  1.0
  Cu  Cu41  1  0.774510  0.255810  0.255810  1.0
  Cu  Cu42  1  0.774510  0.744190  0.744190  1.0
  Cu  Cu43  1  0.774510  0.744190  0.255810  1.0
  Cu  Cu44  1  0.774510  0.255810  0.744190  1.0
  Cu  Cu45  1  0.271600  0.000000  0.648590  1.0
  Cu  Cu46  1  0.271600  0.351410  0.000000  1.0
  Cu  Cu47  1  0.271600  0.000000  0.351410  1.0
  Cu  Cu48  1  0.271600  0.648590  0.000000  1.0
  Cu  Cu49  1  0.728400  0.000000  0.351410  1.0
  Cu  Cu50  1  0.728400  0.000000  0.648590  1.0
  Cu  Cu51  1  0.728400  0.648590  0.000000  1.0
  Cu  Cu52  1  0.728400  0.351410  0.000000  1.0
  H  H53  1  0.941700  0.197200  0.732500  1
  H  H54  1  0.941700  0.267500  0.197200  1
  H  H55  1  0.941700  0.802800  0.267500  1
  H  H56  1  0.941700  0.732500  0.802800  1
  H  H57  1  0.058300  0.197200  0.267500  1
  H  H58  1  0.058300  0.802800  0.732500  1
  H  H59  1  0.058300  0.732500  0.197200  1
  H  H60  1  0.058300  0.267500  0.802800  1
  H  H61  1  0.058300  0.802800  0.267500  1
  H  H62  1  0.058300  0.732500  0.802800  1
  H  H63  1  0.058300  0.197200  0.732500  1
  H  H64  1  0.058300  0.267500  0.197200  1
  H  H65  1  0.941700  0.802800  0.732500  1
  H  H66  1  0.941700  0.197200  0.267500  1
  H  H67  1  0.941700  0.267500  0.802800  1
  H  H68  1  0.941700  0.732500  0.197200  1
  H  H69  1  0.022700  0.216000  0.750700  1
  H  H70  1  0.022700  0.249300  0.216000  1
  H  H71  1  0.022700  0.784000  0.249300  1
  H  H72  1  0.022700  0.750700  0.784000  1
  H  H73  1  0.977300  0.216000  0.249300  1
  H  H74  1  0.977300  0.784000  0.750700  1
  H  H75  1  0.977300  0.750700  0.216000  1
  H  H76  1  0.977300  0.249300  0.784000  1
  H  H77  1  0.977300  0.784000  0.249300  1
  H  H78  1  0.977300  0.750700  0.784000  1
  H  H79  1  0.977300  0.216000  0.750700  1
  H  H80  1  0.977300  0.249300  0.216000  1
  H  H81  1  0.022700  0.784000  0.750700  1
  H  H82  1  0.022700  0.216000  0.249300  1
  H  H83  1  0.022700  0.249300  0.784000  1
  H  H84  1  0.022700  0.750700  0.216000  1
  H  H85  1  0.035600  0.185200  0.720800  1
  H  H86  1  0.035600  0.279200  0.185200  1
  H  H87  1  0.035600  0.814800  0.279200  1
  H  H88  1  0.035600  0.720800  0.814800  1
  H  H89  1  0.964400  0.185200  0.279200  1
  H  H90  1  0.964400  0.814800  0.720800  1
  H  H91  1  0.964400  0.720800  0.185200  1
  H  H92  1  0.964400  0.279200  0.814800  1
  H  H93  1  0.964400  0.814800  0.279200  1
  H  H94  1  0.964400  0.720800  0.814800  1
  H  H95  1  0.964400  0.185200  0.720800  1
  H  H96  1  0.964400  0.279200  0.185200  1
  H  H97  1  0.035600  0.814800  0.720800  1
  H  H98  1  0.035600  0.185200  0.279200  1
  H  H99  1  0.035600  0.279200  0.814800  1
  H  H100  1  0.035600  0.720800  0.185200  1
  H  H101  1  0.558700  0.040700  0.681900  1
  H  H102  1  0.558700  0.318100  0.040700  1
  H  H103  1  0.558700  0.959300  0.318100  1
  H  H104  1  0.558700  0.681900  0.959300  1
  H  H105  1  0.441300  0.040700  0.318100  1
  H  H106  1  0.441300  0.959300  0.681900  1
  H  H107  1  0.441300  0.681900  0.040700  1
  H  H108  1  0.441300  0.318100  0.959300  1
  H  H109  1  0.441300  0.959300  0.318100  1
  H  H110  1  0.441300  0.681900  0.959300  1
  H  H111  1  0.441300  0.040700  0.681900  1
  H  H112  1  0.441300  0.318100  0.040700  1
  H  H113  1  0.558700  0.959300  0.681900  1
  H  H114  1  0.558700  0.040700  0.318100  1
  H  H115  1  0.558700  0.318100  0.959300  1
  H  H116  1  0.558700  0.681900  0.040700  1
  H  H117  1  0.470100  0.019500  0.680400  1
  H  H118  1  0.470100  0.319600  0.019500  1
  H  H119  1  0.470100  0.980500  0.319600  1
  H  H120  1  0.470100  0.680400  0.980500  1
  H  H121  1  0.529900  0.019500  0.319600  1
  H  H122  1  0.529900  0.980500  0.680400  1
  H  H123  1  0.529900  0.680400  0.019500  1
  H  H124  1  0.529900  0.319600  0.980500  1
  H  H125  1  0.529900  0.980500  0.319600  1
  H  H126  1  0.529900  0.680400  0.980500  1
  H  H127  1  0.529900  0.019500  0.680400  1
  H  H128  1  0.529900  0.319600  0.019500  1
  H  H129  1  0.470100  0.980500  0.680400  1
  H  H130  1  0.470100  0.019500  0.319600  1
  H  H131  1  0.470100  0.319600  0.980500  1
  H  H132  1  0.470100  0.680400  0.019500  1
  H  H133  1  0.471200  0.062700  0.683500  1
  H  H134  1  0.471200  0.316500  0.062700  1
  H  H135  1  0.471200  0.937300  0.316500  1
  H  H136  1  0.471200  0.683500  0.937300  1
  H  H137  1  0.528800  0.062700  0.316500  1
  H  H138  1  0.528800  0.937300  0.683500  1
  H  H139  1  0.528800  0.683500  0.062700  1
  H  H140  1  0.528800  0.316500  0.937300  1
  H  H141  1  0.528800  0.937300  0.316500  1
  H  H142  1  0.528800  0.683500  0.937300  1
  H  H143  1  0.528800  0.062700  0.683500  1
  H  H144  1  0.528800  0.316500  0.062700  1
  H  H145  1  0.471200  0.937300  0.683500  1
  H  H146  1  0.471200  0.062700  0.316500  1
  H  H147  1  0.471200  0.316500  0.937300  1
  H  H148  1  0.471200  0.683500  0.062700  1
  H  H149  1  0.441400  0.131200  0.541200  1
  H  H150  1  0.441400  0.458800  0.131200  1
  H  H151  1  0.441400  0.868800  0.458800  1
  H  H152  1  0.441400  0.541200  0.868800  1
  H  H153  1  0.558600  0.131200  0.458800  1
  H  H154  1  0.558600  0.868800  0.541200  1
  H  H155  1  0.558600  0.541200  0.131200  1
  H  H156  1  0.558600  0.458800  0.868800  1
  H  H157  1  0.558600  0.868800  0.458800  1
  H  H158  1  0.558600  0.541200  0.868800  1
  H  H159  1  0.558600  0.131200  0.541200  1
  H  H160  1  0.558600  0.458800  0.131200  1
  H  H161  1  0.441400  0.868800  0.541200  1
  H  H162  1  0.441400  0.131200  0.458800  1
  H  H163  1  0.441400  0.458800  0.868800  1
  H  H164  1  0.441400  0.541200  0.131200  1
  H  H165  1  0.532300  0.128400  0.560400  1
  H  H166  1  0.532300  0.439600  0.128400  1
  H  H167  1  0.532300  0.871600  0.439600  1
  H  H168  1  0.532300  0.560400  0.871600  1
  H  H169  1  0.467700  0.128400  0.439600  1
  H  H170  1  0.467700  0.871600  0.560400  1
  H  H171  1  0.467700  0.560400  0.128400  1
  H  H172  1  0.467700  0.439600  0.871600  1
  H  H173  1  0.467700  0.871600  0.439600  1
  H  H174  1  0.467700  0.560400  0.871600  1
  H  H175  1  0.467700  0.128400  0.560400  1
  H  H176  1  0.467700  0.439600  0.128400  1
  H  H177  1  0.532300  0.871600  0.560400  1
  H  H178  1  0.532300  0.128400  0.439600  1
  H  H179  1  0.532300  0.439600  0.871600  1
  H  H180  1  0.532300  0.560400  0.128400  1
  H  H181  1  0.526400  0.134600  0.517700  1
  H  H182  1  0.526400  0.482300  0.134600  1
  H  H183  1  0.526400  0.865400  0.482300  1
  H  H184  1  0.526400  0.517700  0.865400  1
  H  H185  1  0.473600  0.134600  0.482300  1
  H  H186  1  0.473600  0.865400  0.517700  1
  H  H187  1  0.473600  0.517700  0.134600  1
  H  H188  1  0.473600  0.482300  0.865400  1
  H  H189  1  0.473600  0.865400  0.482300  1
  H  H190  1  0.473600  0.517700  0.865400  1
  H  H191  1  0.473600  0.134600  0.517700  1
  H  H192  1  0.473600  0.482300  0.134600  1
  H  H193  1  0.526400  0.865400  0.517700  1
  H  H194  1  0.526400  0.134600  0.482300  1
  H  H195  1  0.526400  0.482300  0.865400  1
  H  H196  1  0.526400  0.517700  0.134600  1
  H  H197  1  0.500000  0.285300  0.554400  1.0
  H  H198  1  0.500000  0.445600  0.285300  1.0
  H  H199  1  0.500000  0.714700  0.445600  1.0
  H  H200  1  0.500000  0.554400  0.714700  1.0
  H  H201  1  0.500000  0.285300  0.445600  1.0
  H  H202  1  0.500000  0.714700  0.554400  1.0
  H  H203  1  0.500000  0.554400  0.285300  1.0
  H  H204  1  0.500000  0.445600  0.714700  1.0
  H  H205  1  0.000000  0.301900  0.627700  1.0
  H  H206  1  0.000000  0.372300  0.301900  1.0
  H  H207  1  0.000000  0.698100  0.372300  1.0
  H  H208  1  0.000000  0.627700  0.698100  1.0
  H  H209  1  0.000000  0.301900  0.372300  1.0
  H  H210  1  0.000000  0.698100  0.627700  1.0
  H  H211  1  0.000000  0.627700  0.301900  1.0
  H  H212  1  0.000000  0.372300  0.698100  1.0
  H  H213  1  0.500000  0.045500  0.531800  1.0
  H  H214  1  0.500000  0.468200  0.045500  1.0
  H  H215  1  0.500000  0.954500  0.468200  1.0
  H  H216  1  0.500000  0.531800  0.954500  1.0
  H  H217  1  0.500000  0.045500  0.468200  1.0
  H  H218  1  0.500000  0.954500  0.531800  1.0
  H  H219  1  0.500000  0.531800  0.045500  1.0
  H  H220  1  0.500000  0.468200  0.954500  1.0
  H  H221  1  0.353800  0.287900  0.551600  1.0
  H  H222  1  0.353800  0.448400  0.287900  1.0
  H  H223  1  0.353800  0.712100  0.448400  1.0
  H  H224  1  0.353800  0.551600  0.712100  1.0
  H  H225  1  0.646200  0.287900  0.448400  1.0
  H  H226  1  0.646200  0.712100  0.551600  1.0
  H  H227  1  0.646200  0.551600  0.287900  1.0
  H  H228  1  0.646200  0.448400  0.712100  1.0
  H  H229  1  0.646200  0.712100  0.448400  1.0
  H  H230  1  0.646200  0.551600  0.712100  1.0
  H  H231  1  0.646200  0.287900  0.551600  1.0
  H  H232  1  0.646200  0.448400  0.287900  1.0
  H  H233  1  0.353800  0.712100  0.551600  1.0
  H  H234  1  0.353800  0.287900  0.448400  1.0
  H  H235  1  0.353800  0.448400  0.712100  1.0
  H  H236  1  0.353800  0.551600  0.287900  1.0
  H  H237  1  0.315800  0.255800  0.575700  1.0
  H  H238  1  0.315800  0.424300  0.255800  1.0
  H  H239  1  0.315800  0.744200  0.424300  1.0
  H  H240  1  0.315800  0.575700  0.744200  1.0
  H  H241  1  0.684200  0.255800  0.424300  1.0
  H  H242  1  0.684200  0.744200  0.575700  1.0
  H  H243  1  0.684200  0.575700  0.255800  1.0
  H  H244  1  0.684200  0.424300  0.744200  1.0
  H  H245  1  0.684200  0.744200  0.424300  1.0
  H  H246  1  0.684200  0.575700  0.744200  1.0
  H  H247  1  0.684200  0.255800  0.575700  1.0
  H  H248  1  0.684200  0.424300  0.255800  1.0
  H  H249  1  0.315800  0.744200  0.575700  1.0
  H  H250  1  0.315800  0.255800  0.424300  1.0
  H  H251  1  0.315800  0.424300  0.744200  1.0
  H  H252  1  0.315800  0.575700  0.255800  1.0
  H  H253  1  0.303300  0.255400  0.532700  1.0
  H  H254  1  0.303300  0.467300  0.255400  1.0
  H  H255  1  0.303300  0.744600  0.467300  1.0
  H  H256  1  0.303300  0.532700  0.744600  1.0
  H  H257  1  0.696700  0.255400  0.467300  1.0
  H  H258  1  0.696700  0.744600  0.532700  1.0
  H  H259  1  0.696700  0.532700  0.255400  1.0
  H  H260  1  0.696700  0.467300  0.744600  1.0
  H  H261  1  0.696700  0.744600  0.467300  1.0
  H  H262  1  0.696700  0.532700  0.744600  1.0
  H  H263  1  0.696700  0.255400  0.532700  1.0
  H  H264  1  0.696700  0.467300  0.255400  1.0
  H  H265  1  0.303300  0.744600  0.532700  1.0
  H  H266  1  0.303300  0.255400  0.467300  1.0
  H  H267  1  0.303300  0.467300  0.744600  1.0
  H  H268  1  0.303300  0.532700  0.255400  1.0
  H  H269  1  0.216700  0.278000  0.654200  1.0
  H  H270  1  0.216700  0.345800  0.278000  1.0
  H  H271  1  0.216700  0.722000  0.345800  1.0
  H  H272  1  0.216700  0.654200  0.722000  1.0
  H  H273  1  0.783300  0.278000  0.345800  1.0
  H  H274  1  0.783300  0.722000  0.654200  1.0
  H  H275  1  0.783300  0.654200  0.278000  1.0
  H  H276  1  0.783300  0.345800  0.722000  1.0
  H  H277  1  0.783300  0.722000  0.345800  1.0
  H  H278  1  0.783300  0.654200  0.722000  1.0
  H  H279  1  0.783300  0.278000  0.654200  1.0
  H  H280  1  0.783300  0.345800  0.278000  1.0
  H  H281  1  0.216700  0.722000  0.654200  1.0
  H  H282  1  0.216700  0.278000  0.345800  1.0
  H  H283  1  0.216700  0.345800  0.722000  1.0
  H  H284  1  0.216700  0.654200  0.278000  1.0
  H  H285  1  0.171400  0.315700  0.645300  1.0
  H  H286  1  0.171400  0.354700  0.315700  1.0
  H  H287  1  0.171400  0.684300  0.354700  1.0
  H  H288  1  0.171400  0.645300  0.684300  1.0
  H  H289  1  0.828600  0.315700  0.354700  1.0
  H  H290  1  0.828600  0.684300  0.645300  1.0
  H  H291  1  0.828600  0.645300  0.315700  1.0
  H  H292  1  0.828600  0.354700  0.684300  1.0
  H  H293  1  0.828600  0.684300  0.354700  1.0
  H  H294  1  0.828600  0.645300  0.684300  1.0
  H  H295  1  0.828600  0.315700  0.645300  1.0
  H  H296  1  0.828600  0.354700  0.315700  1.0
  H  H297  1  0.171400  0.684300  0.645300  1.0
  H  H298  1  0.171400  0.315700  0.354700  1.0
  H  H299  1  0.171400  0.354700  0.684300  1.0
  H  H300  1  0.171400  0.645300  0.315700  1.0
  H  H301  1  0.172000  0.284100  0.615800  1.0
  H  H302  1  0.172000  0.384200  0.284100  1.0
  H  H303  1  0.172000  0.715900  0.384200  1.0
  H  H304  1  0.172000  0.615800  0.715900  1.0
  H  H305  1  0.828000  0.284100  0.384200  1.0
  H  H306  1  0.828000  0.715900  0.615800  1.0
  H  H307  1  0.828000  0.615800  0.284100  1.0
  H  H308  1  0.828000  0.384200  0.715900  1.0
  H  H309  1  0.828000  0.715900  0.384200  1.0
  H  H310  1  0.828000  0.615800  0.715900  1.0
  H  H311  1  0.828000  0.284100  0.615800  1.0
  H  H312  1  0.828000  0.384200  0.284100  1.0
  H  H313  1  0.172000  0.715900  0.615800  1.0
  H  H314  1  0.172000  0.284100  0.384200  1.0
  H  H315  1  0.172000  0.384200  0.715900  1.0
  H  H316  1  0.172000  0.615800  0.284100  1.0
  H  H317  1  0.289600  0.052600  0.567800  1.0
  H  H318  1  0.289600  0.432200  0.052600  1.0
  H  H319  1  0.289600  0.947400  0.432200  1.0
  H  H320  1  0.289600  0.567800  0.947400  1.0
  H  H321  1  0.710400  0.052600  0.432200  1.0
  H  H322  1  0.710400  0.947400  0.567800  1.0
  H  H323  1  0.710400  0.567800  0.052600  1.0
  H  H324  1  0.710400  0.432200  0.947400  1.0
  H  H325  1  0.710400  0.947400  0.432200  1.0
  H  H326  1  0.710400  0.567800  0.947400  1.0
  H  H327  1  0.710400  0.052600  0.567800  1.0
  H  H328  1  0.710400  0.432200  0.052600  1.0
  H  H329  1  0.289600  0.947400  0.567800  1.0
  H  H330  1  0.289600  0.052600  0.432200  1.0
  H  H331  1  0.289600  0.432200  0.947400  1.0
  H  H332  1  0.289600  0.567800  0.052600  1.0
  H  H333  1  0.333600  0.033900  0.533600  1.0
  H  H334  1  0.333600  0.466400  0.033900  1.0
  H  H335  1  0.333600  0.966100  0.466400  1.0
  H  H336  1  0.333600  0.533600  0.966100  1.0
  H  H337  1  0.666400  0.033900  0.466400  1.0
  H  H338  1  0.666400  0.966100  0.533600  1.0
  H  H339  1  0.666400  0.533600  0.033900  1.0
  H  H340  1  0.666400  0.466400  0.966100  1.0
  H  H341  1  0.666400  0.966100  0.466400  1.0
  H  H342  1  0.666400  0.533600  0.966100  1.0
  H  H343  1  0.666400  0.033900  0.533600  1.0
  H  H344  1  0.666400  0.466400  0.033900  1.0
  H  H345  1  0.333600  0.966100  0.533600  1.0
  H  H346  1  0.333600  0.033900  0.466400  1.0
  H  H347  1  0.333600  0.466400  0.966100  1.0
  H  H348  1  0.333600  0.533600  0.033900  1.0
  H  H349  1  0.342800  0.076500  0.539700  1.0
  H  H350  1  0.342800  0.460300  0.076500  1.0
  H  H351  1  0.342800  0.923500  0.460300  1.0
  H  H352  1  0.342800  0.539700  0.923500  1.0
  H  H353  1  0.657200  0.076500  0.460300  1.0
  H  H354  1  0.657200  0.923500  0.539700  1.0
  H  H355  1  0.657200  0.539700  0.076500  1.0
  H  H356  1  0.657200  0.460300  0.923500  1.0
  H  H357  1  0.657200  0.923500  0.460300  1.0
  H  H358  1  0.657200  0.539700  0.923500  1.0
  H  H359  1  0.657200  0.076500  0.539700  1.0
  H  H360  1  0.657200  0.460300  0.076500  1.0
  H  H361  1  0.342800  0.923500  0.539700  1.0
  H  H362  1  0.342800  0.076500  0.460300  1.0
  H  H363  1  0.342800  0.460300  0.923500  1.0
  H  H364  1  0.342800  0.539700  0.076500  1.0
  C  C365  1  0.500000  0.259900  0.550900  1.0
  C  C366  1  0.500000  0.449100  0.259900  1.0
  C  C367  1  0.500000  0.740100  0.449100  1.0
  C  C368  1  0.500000  0.550900  0.740100  1.0
  C  C369  1  0.500000  0.259900  0.449100  1.0
  C  C370  1  0.500000  0.740100  0.550900  1.0
  C  C371  1  0.500000  0.550900  0.259900  1.0
  C  C372  1  0.500000  0.449100  0.740100  1.0
  C  C373  1  0.500000  0.184600  0.547500  1.0
  C  C374  1  0.500000  0.452500  0.184600  1.0
  C  C375  1  0.500000  0.815400  0.452500  1.0
  C  C376  1  0.500000  0.547500  0.815400  1.0
  C  C377  1  0.500000  0.184600  0.452500  1.0
  C  C378  1  0.500000  0.815400  0.547500  1.0
  C  C379  1  0.500000  0.547500  0.184600  1.0
  C  C380  1  0.500000  0.452500  0.815400  1.0
  C  C381  1  0.500000  0.140100  0.541000  1.0
  C  C382  1  0.500000  0.459000  0.140100  1.0
  C  C383  1  0.500000  0.859900  0.459000  1.0
  C  C384  1  0.500000  0.541000  0.859900  1.0
  C  C385  1  0.500000  0.140100  0.459000  1.0
  C  C386  1  0.500000  0.859900  0.541000  1.0
  C  C387  1  0.500000  0.541000  0.140100  1.0
  C  C388  1  0.500000  0.459000  0.859900  1.0
  C  C389  1  0.000000  0.235300  0.697800  1.0
  C  C390  1  0.000000  0.302200  0.235300  1.0
  C  C391  1  0.000000  0.764700  0.302200  1.0
  C  C392  1  1.000000  0.697800  0.764700  1.0
  C  C393  1  0.000000  0.235300  0.302200  1.0
  C  C394  1  0.000000  0.764700  0.697800  1.0
  C  C395  1  0.000000  0.697800  0.235300  1.0
  C  C396  1  0.000000  0.302200  0.764700  1.0
  C  C397  1  0.000000  0.205700  0.728300  1.0
  C  C398  1  0.000000  0.271700  0.205700  1.0
  C  C399  1  0.000000  0.794300  0.271700  1.0
  C  C400  1  0.000000  0.728300  0.794300  1.0
  C  C401  1  0.000000  0.205700  0.271700  1.0
  C  C402  1  0.000000  0.794300  0.728300  1.0
  C  C403  1  0.000000  0.728300  0.205700  1.0
  C  C404  1  0.000000  0.271700  0.794300  1.0
  C  C405  1  0.000000  0.284500  0.646600  1.0
  C  C406  1  0.000000  0.353400  0.284500  1.0
  C  C407  1  0.000000  0.715500  0.353400  1.0
  C  C408  1  0.000000  0.646600  0.715500  1.0
  C  C409  1  0.000000  0.284500  0.353400  1.0
  C  C410  1  0.000000  0.715500  0.646600  1.0
  C  C411  1  0.000000  0.646600  0.284500  1.0
  C  C412  1  0.000000  0.353400  0.715500  1.0
  C  C413  1  0.500000  0.046000  0.557500  1.0
  C  C414  1  0.500000  0.442500  0.046000  1.0
  C  C415  1  0.500000  0.954000  0.442500  1.0
  C  C416  1  0.500000  0.557500  0.954000  1.0
  C  C417  1  0.500000  0.046000  0.442500  1.0
  C  C418  1  0.500000  0.954000  0.557500  1.0
  C  C419  1  0.500000  0.557500  0.046000  1.0
  C  C420  1  0.500000  0.442500  0.954000  1.0
  C  C421  1  0.500000  0.044600  0.630000  1.0
  C  C422  1  0.500000  0.370000  0.044600  1.0
  C  C423  1  0.500000  0.955400  0.370000  1.0
  C  C424  1  0.500000  0.630000  0.955400  1.0
  C  C425  1  0.500000  0.044600  0.370000  1.0
  C  C426  1  0.500000  0.955400  0.630000  1.0
  C  C427  1  0.500000  0.630000  0.044600  1.0
  C  C428  1  0.500000  0.370000  0.955400  1.0
  C  C429  1  0.500000  0.041600  0.673100  1.0
  C  C430  1  0.500000  0.326900  0.041600  1.0
  C  C431  1  0.500000  0.958400  0.326900  1.0
  C  C432  1  0.500000  0.673100  0.958400  1.0
  C  C433  1  0.500000  0.041600  0.326900  1.0
  C  C434  1  0.500000  0.958400  0.673100  1.0
  C  C435  1  0.500000  0.673100  0.041600  1.0
  C  C436  1  0.500000  0.326900  0.958400  1.0
  C  C437  1  0.223400  0.149100  0.568600  1.0
  C  C438  1  0.223400  0.431400  0.149100  1.0
  C  C439  1  0.223400  0.850900  0.431400  1.0
  C  C440  1  0.223400  0.568600  0.850900  1.0
  C  C441  1  0.776600  0.149100  0.431400  1.0
  C  C442  1  0.776600  0.850900  0.568600  1.0
  C  C443  1  0.776600  0.568600  0.149100  1.0
  C  C444  1  0.776600  0.431400  0.850900  1.0
  C  C445  1  0.776600  0.850900  0.431400  1.0
  C  C446  1  0.776600  0.568600  0.850900  1.0
  C  C447  1  0.776600  0.149100  0.568600  1.0
  C  C448  1  0.776600  0.431400  0.149100  1.0
  C  C449  1  0.223400  0.850900  0.568600  1.0
  C  C450  1  0.223400  0.149100  0.431400  1.0
  C  C451  1  0.223400  0.431400  0.850900  1.0
  C  C452  1  0.223400  0.568600  0.149100  1.0
  C  C453  1  0.420900  0.242100  0.548400  1.0
  C  C454  1  0.420900  0.451600  0.242100  1.0
  C  C455  1  0.420900  0.757900  0.451600  1.0
  C  C456  1  0.420900  0.548400  0.757900  1.0
  C  C457  1  0.579100  0.242100  0.451600  1.0
  C  C458  1  0.579100  0.757900  0.548400  1.0
  C  C459  1  0.579100  0.548400  0.242100  1.0
  C  C460  1  0.579100  0.451600  0.757900  1.0
  C  C461  1  0.579100  0.757900  0.451600  1.0
  C  C462  1  0.579100  0.548400  0.757900  1.0
  C  C463  1  0.579100  0.242100  0.548400  1.0
  C  C464  1  0.579100  0.451600  0.242100  1.0
  C  C465  1  0.420900  0.757900  0.548400  1.0
  C  C466  1  0.420900  0.242100  0.451600  1.0
  C  C467  1  0.420900  0.451600  0.757900  1.0
  C  C468  1  0.420900  0.548400  0.242100  1.0
  C  C469  1  0.342100  0.261900  0.552400  1.0
  C  C470  1  0.342100  0.447600  0.261900  1.0
  C  C471  1  0.342100  0.738100  0.447600  1.0
  C  C472  1  0.342100  0.552400  0.738100  1.0
  C  C473  1  0.657900  0.261900  0.447600  1.0
  C  C474  1  0.657900  0.738100  0.552400  1.0
  C  C475  1  0.657900  0.552400  0.261900  1.0
  C  C476  1  0.657900  0.447600  0.738100  1.0
  C  C477  1  0.657900  0.738100  0.447600  1.0
  C  C478  1  0.657900  0.552400  0.738100  1.0
  C  C479  1  0.657900  0.261900  0.552400  1.0
  C  C480  1  0.657900  0.447600  0.261900  1.0
  C  C481  1  0.342100  0.738100  0.552400  1.0
  C  C482  1  0.342100  0.261900  0.447600  1.0
  C  C483  1  0.342100  0.447600  0.738100  1.0
  C  C484  1  0.342100  0.552400  0.261900  1.0
  C  C485  1  0.302000  0.174800  0.575800  1.0
  C  C486  1  0.302000  0.424200  0.174800  1.0
  C  C487  1  0.302000  0.825200  0.424200  1.0
  C  C488  1  0.302000  0.575800  0.825200  1.0
  C  C489  1  0.698000  0.174800  0.424200  1.0
  C  C490  1  0.698000  0.825200  0.575800  1.0
  C  C491  1  0.698000  0.575800  0.174800  1.0
  C  C492  1  0.698000  0.424200  0.825200  1.0
  C  C493  1  0.698000  0.825200  0.424200  1.0
  C  C494  1  0.698000  0.575800  0.825200  1.0
  C  C495  1  0.698000  0.174800  0.575800  1.0
  C  C496  1  0.698000  0.424200  0.174800  1.0
  C  C497  1  0.302000  0.825200  0.575800  1.0
  C  C498  1  0.302000  0.174800  0.424200  1.0
  C  C499  1  0.302000  0.424200  0.825200  1.0
  C  C500  1  0.302000  0.575800  0.174800  1.0
  C  C501  1  0.424800  0.204000  0.548700  1.0
  C  C502  1  0.424800  0.451300  0.204000  1.0
  C  C503  1  0.424800  0.796000  0.451300  1.0
  C  C504  1  0.424800  0.548700  0.796000  1.0
  C  C505  1  0.575200  0.204000  0.451300  1.0
  C  C506  1  0.575200  0.796000  0.548700  1.0
  C  C507  1  0.575200  0.548700  0.204000  1.0
  C  C508  1  0.575200  0.451300  0.796000  1.0
  C  C509  1  0.575200  0.796000  0.451300  1.0
  C  C510  1  0.575200  0.548700  0.796000  1.0
  C  C511  1  0.575200  0.204000  0.548700  1.0
  C  C512  1  0.575200  0.451300  0.204000  1.0
  C  C513  1  0.424800  0.796000  0.548700  1.0
  C  C514  1  0.424800  0.204000  0.451300  1.0
  C  C515  1  0.424800  0.451300  0.796000  1.0
  C  C516  1  0.424800  0.548700  0.204000  1.0
  C  C517  1  0.077100  0.250900  0.687600  1.0
  C  C518  1  0.077100  0.312400  0.250900  1.0
  C  C519  1  0.077100  0.749100  0.312400  1.0
  C  C520  1  0.077100  0.687600  0.749100  1.0
  C  C521  1  0.922900  0.250900  0.312400  1.0
  C  C522  1  0.922900  0.749100  0.687600  1.0
  C  C523  1  0.922900  0.687600  0.250900  1.0
  C  C524  1  0.922900  0.312400  0.749100  1.0
  C  C525  1  0.922900  0.749100  0.312400  1.0
  C  C526  1  0.922900  0.687600  0.749100  1.0
  C  C527  1  0.922900  0.250900  0.687600  1.0
  C  C528  1  0.922900  0.312400  0.250900  1.0
  C  C529  1  0.077100  0.749100  0.687600  1.0
  C  C530  1  0.077100  0.250900  0.312400  1.0
  C  C531  1  0.077100  0.312400  0.749100  1.0
  C  C532  1  0.077100  0.687600  0.250900  1.0
  C  C533  1  0.192900  0.208500  0.689800  1.0
  C  C534  1  0.192900  0.310200  0.208500  1.0
  C  C535  1  0.192900  0.791500  0.310200  1.0
  C  C536  1  0.192900  0.689800  0.791500  1.0
  C  C537  1  0.807100  0.208500  0.310200  1.0
  C  C538  1  0.807100  0.791500  0.689800  1.0
  C  C539  1  0.807100  0.689800  0.208500  1.0
  C  C540  1  0.807100  0.310200  0.791500  1.0
  C  C541  1  0.807100  0.791500  0.310200  1.0
  C  C542  1  0.807100  0.689800  0.791500  1.0
  C  C543  1  0.807100  0.208500  0.689800  1.0
  C  C544  1  0.807100  0.310200  0.208500  1.0
  C  C545  1  0.192900  0.791500  0.689800  1.0
  C  C546  1  0.192900  0.208500  0.310200  1.0
  C  C547  1  0.192900  0.310200  0.791500  1.0
  C  C548  1  0.192900  0.689800  0.208500  1.0
  C  C549  1  0.272100  0.193300  0.707200  1.0
  C  C550  1  0.272100  0.292800  0.193300  1.0
  C  C551  1  0.272100  0.806700  0.292800  1.0
  C  C552  1  0.272100  0.707200  0.806700  1.0
  C  C553  1  0.727900  0.193300  0.292800  1.0
  C  C554  1  0.727900  0.806700  0.707200  1.0
  C  C555  1  0.727900  0.707200  0.193300  1.0
  C  C556  1  0.727900  0.292800  0.806700  1.0
  C  C557  1  0.727900  0.806700  0.292800  1.0
  C  C558  1  0.727900  0.707200  0.806700  1.0
  C  C559  1  0.727900  0.193300  0.707200  1.0
  C  C560  1  0.727900  0.292800  0.193300  1.0
  C  C561  1  0.272100  0.806700  0.707200  1.0
  C  C562  1  0.272100  0.193300  0.292800  1.0
  C  C563  1  0.272100  0.292800  0.806700  1.0
  C  C564  1  0.272100  0.707200  0.193300  1.0
  C  C565  1  0.079100  0.273800  0.658200  1.0
  C  C566  1  0.079100  0.341800  0.273800  1.0
  C  C567  1  0.079100  0.726200  0.341800  1.0
  C  C568  1  0.079100  0.658200  0.726200  1.0
  C  C569  1  0.920900  0.273800  0.341800  1.0
  C  C570  1  0.920900  0.726200  0.658200  1.0
  C  C571  1  0.920900  0.658200  0.273800  1.0
  C  C572  1  0.920900  0.341800  0.726200  1.0
  C  C573  1  0.920900  0.726200  0.341800  1.0
  C  C574  1  0.920900  0.658200  0.726200  1.0
  C  C575  1  0.920900  0.273800  0.658200  1.0
  C  C576  1  0.920900  0.341800  0.273800  1.0
  C  C577  1  0.079100  0.726200  0.658200  1.0
  C  C578  1  0.079100  0.273800  0.341800  1.0
  C  C579  1  0.079100  0.341800  0.726200  1.0
  C  C580  1  0.079100  0.658200  0.273800  1.0
  C  C581  1  0.168900  0.289500  0.641700  1.0
  C  C582  1  0.168900  0.358300  0.289500  1.0
  C  C583  1  0.168900  0.710500  0.358300  1.0
  C  C584  1  0.168900  0.641700  0.710500  1.0
  C  C585  1  0.831100  0.289500  0.358300  1.0
  C  C586  1  0.831100  0.710500  0.641700  1.0
  C  C587  1  0.831100  0.641700  0.289500  1.0
  C  C588  1  0.831100  0.358300  0.710500  1.0
  C  C589  1  0.831100  0.710500  0.358300  1.0
  C  C590  1  0.831100  0.641700  0.710500  1.0
  C  C591  1  0.831100  0.289500  0.641700  1.0
  C  C592  1  0.831100  0.358300  0.289500  1.0
  C  C593  1  0.168900  0.710500  0.641700  1.0
  C  C594  1  0.168900  0.289500  0.358300  1.0
  C  C595  1  0.168900  0.358300  0.710500  1.0
  C  C596  1  0.168900  0.641700  0.289500  1.0
  C  C597  1  0.423200  0.046300  0.574900  1.0
  C  C598  1  0.423200  0.425100  0.046300  1.0
  C  C599  1  0.423200  0.953700  0.425100  1.0
  C  C600  1  0.423200  0.574900  0.953700  1.0
  C  C601  1  0.576800  0.046300  0.425100  1.0
  C  C602  1  0.576800  0.953700  0.574900  1.0
  C  C603  1  0.576800  0.574900  0.046300  1.0
  C  C604  1  0.576800  0.425100  0.953700  1.0
  C  C605  1  0.576800  0.953700  0.425100  1.0
  C  C606  1  0.576800  0.574900  0.953700  1.0
  C  C607  1  0.576800  0.046300  0.574900  1.0
  C  C608  1  0.576800  0.425100  0.046300  1.0
  C  C609  1  0.423200  0.953700  0.574900  1.0
  C  C610  1  0.423200  0.046300  0.425100  1.0
  C  C611  1  0.423200  0.425100  0.953700  1.0
  C  C612  1  0.423200  0.574900  0.046300  1.0
  C  C613  1  0.422500  0.046500  0.612100  1.0
  C  C614  1  0.422500  0.387900  0.046500  1.0
  C  C615  1  0.422500  0.953500  0.387900  1.0
  C  C616  1  0.422500  0.612100  0.953500  1.0
  C  C617  1  0.577500  0.046500  0.387900  1.0
  C  C618  1  0.577500  0.953500  0.612100  1.0
  C  C619  1  0.577500  0.612100  0.046500  1.0
  C  C620  1  0.577500  0.387900  0.953500  1.0
  C  C621  1  0.577500  0.953500  0.387900  1.0
  C  C622  1  0.577500  0.612100  0.953500  1.0
  C  C623  1  0.577500  0.046500  0.612100  1.0
  C  C624  1  0.577500  0.387900  0.046500  1.0
  C  C625  1  0.422500  0.953500  0.612100  1.0
  C  C626  1  0.422500  0.046500  0.387900  1.0
  C  C627  1  0.422500  0.387900  0.953500  1.0
  C  C628  1  0.422500  0.612100  0.046500  1.0
  C  C629  1  0.223600  0.069200  0.663300  1.0
  C  C630  1  0.223600  0.336700  0.069200  1.0
  C  C631  1  0.223600  0.930800  0.336700  1.0
  C  C632  1  0.223600  0.663300  0.930800  1.0
  C  C633  1  0.776400  0.069200  0.336700  1.0
  C  C634  1  0.776400  0.930800  0.663300  1.0
  C  C635  1  0.776400  0.663300  0.069200  1.0
  C  C636  1  0.776400  0.336700  0.930800  1.0
  C  C637  1  0.776400  0.930800  0.336700  1.0
  C  C638  1  0.776400  0.663300  0.930800  1.0
  C  C639  1  0.776400  0.069200  0.663300  1.0
  C  C640  1  0.776400  0.336700  0.069200  1.0
  C  C641  1  0.223600  0.930800  0.663300  1.0
  C  C642  1  0.223600  0.069200  0.336700  1.0
  C  C643  1  0.223600  0.336700  0.930800  1.0
  C  C644  1  0.223600  0.663300  0.069200  1.0
  C  C645  1  0.307200  0.073300  0.641900  1.0
  C  C646  1  0.307200  0.358100  0.073300  1.0
  C  C647  1  0.307200  0.926700  0.358100  1.0
  C  C648  1  0.307200  0.641900  0.926700  1.0
  C  C649  1  0.692800  0.073300  0.358100  1.0
  C  C650  1  0.692800  0.926700  0.641900  1.0
  C  C651  1  0.692800  0.641900  0.073300  1.0
  C  C652  1  0.692800  0.358100  0.926700  1.0
  C  C653  1  0.692800  0.926700  0.358100  1.0
  C  C654  1  0.692800  0.641900  0.926700  1.0
  C  C655  1  0.692800  0.073300  0.641900  1.0
  C  C656  1  0.692800  0.358100  0.073300  1.0
  C  C657  1  0.307200  0.926700  0.641900  1.0
  C  C658  1  0.307200  0.073300  0.358100  1.0
  C  C659  1  0.307200  0.358100  0.926700  1.0
  C  C660  1  0.307200  0.641900  0.073300  1.0
  C  C661  1  0.339200  0.053000  0.551800  1.0
  C  C662  1  0.339200  0.448200  0.053000  1.0
  C  C663  1  0.339200  0.947000  0.448200  1.0
  C  C664  1  0.339200  0.551800  0.947000  1.0
  C  C665  1  0.660800  0.053000  0.448200  1.0
  C  C666  1  0.660800  0.947000  0.551800  1.0
  C  C667  1  0.660800  0.551800  0.053000  1.0
  C  C668  1  0.660800  0.448200  0.947000  1.0
  C  C669  1  0.660800  0.947000  0.448200  1.0
  C  C670  1  0.660800  0.551800  0.947000  1.0
  C  C671  1  0.660800  0.053000  0.551800  1.0
  C  C672  1  0.660800  0.448200  0.053000  1.0
  C  C673  1  0.339200  0.947000  0.551800  1.0
  C  C674  1  0.339200  0.053000  0.448200  1.0
  C  C675  1  0.339200  0.448200  0.947000  1.0
  C  C676  1  0.339200  0.551800  0.053000  1.0
  N  N677  1  0.341600  0.184300  0.544100  1.0
  N  N678  1  0.341600  0.455900  0.184300  1.0
  N  N679  1  0.341600  0.815700  0.455900  1.0
  N  N680  1  0.341600  0.544100  0.815700  1.0
  N  N681  1  0.658400  0.184300  0.455900  1.0
  N  N682  1  0.658400  0.815700  0.544100  1.0
  N  N683  1  0.658400  0.544100  0.184300  1.0
  N  N684  1  0.658400  0.455900  0.815700  1.0
  N  N685  1  0.658400  0.815700  0.455900  1.0
  N  N686  1  0.658400  0.544100  0.815700  1.0
  N  N687  1  0.658400  0.184300  0.544100  1.0
  N  N688  1  0.658400  0.455900  0.184300  1.0
  N  N689  1  0.341600  0.815700  0.544100  1.0
  N  N690  1  0.341600  0.184300  0.455900  1.0
  N  N691  1  0.341600  0.455900  0.815700  1.0
  N  N692  1  0.341600  0.544100  0.184300  1.0
  N  N693  1  0.159000  0.236300  0.699900  1.0
  N  N694  1  0.159000  0.300100  0.236300  1.0
  N  N695  1  0.159000  0.763700  0.300100  1.0
  N  N696  1  0.159000  0.699900  0.763700  1.0
  N  N697  1  0.841000  0.236300  0.300100  1.0
  N  N698  1  0.841000  0.763700  0.699900  1.0
  N  N699  1  0.841000  0.699900  0.236300  1.0
  N  N700  1  0.841000  0.300100  0.763700  1.0
  N  N701  1  0.841000  0.763700  0.300100  1.0
  N  N702  1  0.841000  0.699900  0.763700  1.0
  N  N703  1  0.841000  0.236300  0.699900  1.0
  N  N704  1  0.841000  0.300100  0.236300  1.0
  N  N705  1  0.159000  0.763700  0.699900  1.0
  N  N706  1  0.159000  0.236300  0.300100  1.0
  N  N707  1  0.159000  0.300100  0.763700  1.0
  N  N708  1  0.159000  0.699900  0.236300  1.0
  N  N709  1  0.343900  0.042600  0.633500  1.0
  N  N710  1  0.343900  0.366500  0.042600  1.0
  N  N711  1  0.343900  0.957400  0.366500  1.0
  N  N712  1  0.343900  0.633500  0.957400  1.0
  N  N713  1  0.656100  0.042600  0.366500  1.0
  N  N714  1  0.656100  0.957400  0.633500  1.0
  N  N715  1  0.656100  0.633500  0.042600  1.0
  N  N716  1  0.656100  0.366500  0.957400  1.0
  N  N717  1  0.656100  0.957400  0.366500  1.0
  N  N718  1  0.656100  0.633500  0.957400  1.0
  N  N719  1  0.656100  0.042600  0.633500  1.0
  N  N720  1  0.656100  0.366500  0.042600  1.0
  N  N721  1  0.343900  0.957400  0.633500  1.0
  N  N722  1  0.343900  0.042600  0.366500  1.0
  N  N723  1  0.343900  0.366500  0.957400  1.0
  N  N724  1  0.343900  0.633500  0.042600  1.0
  O  O725  1  0.089400  0.070700  0.579200  1
  O  O726  1  0.089400  0.420800  0.070700  1
  O  O727  1  0.089400  0.929300  0.420800  1
  O  O728  1  0.089400  0.579200  0.929300  1
  O  O729  1  0.910600  0.070700  0.420800  1
  O  O730  1  0.910600  0.929300  0.579200  1
  O  O731  1  0.910600  0.579200  0.070700  1
  O  O732  1  0.910600  0.420800  0.929300  1
  O  O733  1  0.910600  0.929300  0.420800  1
  O  O734  1  0.910600  0.579200  0.929300  1
  O  O735  1  0.910600  0.070700  0.579200  1
  O  O736  1  0.910600  0.420800  0.070700  1
  O  O737  1  0.089400  0.929300  0.579200  1
  O  O738  1  0.089400  0.070700  0.420800  1
  O  O739  1  0.089400  0.420800  0.929300  1
  O  O740  1  0.089400  0.579200  0.070700  1
  O  O741  1  0.102200  0.083500  0.500000  1
  O  O742  1  0.102200  0.500000  0.083500  1
  O  O743  1  0.102200  0.916500  0.500000  1
  O  O744  1  0.102200  0.500000  0.916500  1
  O  O745  1  0.897800  0.083500  0.500000  1
  O  O746  1  0.897800  0.916500  0.500000  1
  O  O747  1  0.897800  0.500000  0.083500  1
  O  O748  1  0.897800  0.500000  0.916500  1
  O  O749  1  0.000000  0.130100  0.550100  1
  O  O750  1  0.000000  0.449900  0.130100  1
  O  O751  1  0.000000  0.869900  0.449900  1
  O  O752  1  0.000000  0.550100  0.869900  1
  O  O753  1  0.000000  0.130100  0.449900  1
  O  O754  1  0.000000  0.869900  0.550100  1
  O  O755  1  0.000000  0.550100  0.130100  1
  O  O756  1  0.000000  0.449900  0.869900  1
  O  O757  1  0.627500  0.171700  0.792300  1
  O  O758  1  0.627500  0.207700  0.171700  1
  O  O759  1  0.627500  0.828300  0.207700  1
  O  O760  1  0.627500  0.792300  0.828300  1
  O  O761  1  0.372500  0.171700  0.207700  1
  O  O762  1  0.372500  0.828300  0.792300  1
  O  O763  1  0.372500  0.792300  0.171700  1
  O  O764  1  0.372500  0.207700  0.828300  1
  O  O765  1  0.372500  0.828300  0.207700  1
  O  O766  1  0.372500  0.792300  0.828300  1
  O  O767  1  0.372500  0.171700  0.792300  1
  O  O768  1  0.372500  0.207700  0.171700  1
  O  O769  1  0.627500  0.828300  0.792300  1
  O  O770  1  0.627500  0.171700  0.207700  1
  O  O771  1  0.627500  0.207700  0.828300  1
  O  O772  1  0.627500  0.792300  0.171700  1
  O  O773  1  0.530800  0.239400  0.787600  1
  O  O774  1  0.530800  0.212400  0.239400  1
  O  O775  1  0.530800  0.760600  0.212400  1
  O  O776  1  0.530800  0.787600  0.760600  1
  O  O777  1  0.469200  0.239400  0.212400  1
  O  O778  1  0.469200  0.760600  0.787600  1
  O  O779  1  0.469200  0.787600  0.239400  1
  O  O780  1  0.469200  0.212400  0.760600  1
  O  O781  1  0.469200  0.760600  0.212400  1
  O  O782  1  0.469200  0.787600  0.760600  1
  O  O783  1  0.469200  0.239400  0.787600  1
  O  O784  1  0.469200  0.212400  0.239400  1
  O  O785  1  0.530800  0.760600  0.787600  1
  O  O786  1  0.530800  0.239400  0.212400  1
  O  O787  1  0.530800  0.212400  0.760600  1
  O  O788  1  0.530800  0.787600  0.239400  1
  O  O789  1  0.164800  0.219700  0.500000  1.0
  O  O790  1  0.164800  0.500000  0.219700  1.0
  O  O791  1  0.164800  0.780300  0.500000  1.0
  O  O792  1  0.164800  0.500000  0.780300  1.0
  O  O793  1  0.835200  0.219700  0.500000  1.0
  O  O794  1  0.835200  0.780300  0.500000  1.0
  O  O795  1  0.835200  0.500000  0.219700  1.0
  O  O796  1  0.835200  0.500000  0.780300  1.0
  O  O797  1  0.334000  0.289000  0.711000  1.0
  O  O798  1  0.334000  0.289000  0.289000  1.0
  O  O799  1  0.334000  0.711000  0.289000  1.0
  O  O800  1  0.334000  0.711000  0.711000  1.0
  O  O801  1  0.666000  0.289000  0.289000  1.0
  O  O802  1  0.666000  0.711000  0.711000  1.0
  O  O803  1  0.666000  0.711000  0.289000  1.0
  O  O804  1  0.666000  0.289000  0.711000  1.0
  O  O805  1  0.325300  0.000000  0.722400  1.0
  O  O806  1  0.325300  0.277600  0.000000  1.0
  O  O807  1  0.325300  1.000000  0.277600  1.0
  O  O808  1  0.325300  0.722400  0.000000  1.0
  O  O809  1  0.674700  1.000000  0.277600  1.0
  O  O810  1  0.674700  0.000000  0.722400  1.0
  O  O811  1  0.674700  0.722400  0.000000  1.0
  O  O812  1  0.674700  0.277600  0.000000  1.0
  O  O813  1  0.152500  0.000000  0.602700  1.0
  O  O814  1  0.152500  0.397300  0.000000  1.0
  O  O815  1  0.152500  0.000000  0.397300  1.0
  O  O816  1  0.152500  0.602700  0.000000  1.0
  O  O817  1  0.847500  0.000000  0.397300  1.0
  O  O818  1  0.847500  0.000000  0.602700  1.0
  O  O819  1  0.847500  0.602700  0.000000  1.0
  O  O820  1  0.847500  0.397300  0.000000  1.0
  O  O821  1  0.322200  0.180850  0.608400  1.0
  O  O822  1  0.322200  0.391600  0.180850  1.0
  O  O823  1  0.322200  0.819150  0.391600  1.0
  O  O824  1  0.322200  0.608400  0.819150  1.0
  O  O825  1  0.677800  0.180850  0.391600  1.0
  O  O826  1  0.677800  0.819150  0.608400  1.0
  O  O827  1  0.677800  0.608400  0.180850  1.0
  O  O828  1  0.677800  0.391600  0.819150  1.0
  O  O829  1  0.677800  0.819150  0.391600  1.0
  O  O830  1  0.677800  0.608400  0.819150  1.0
  O  O831  1  0.677800  0.180850  0.608400  1.0
  O  O832  1  0.677800  0.391600  0.180850  1.0
  O  O833  1  0.322200  0.819150  0.608400  1.0
  O  O834  1  0.322200  0.180850  0.391600  1.0
  O  O835  1  0.322200  0.391600  0.819150  1.0
  O  O836  1  0.322200  0.608400  0.180850  1.0
  O  O837  1  0.201500  0.144300  0.535700  1.0
  O  O838  1  0.201500  0.464300  0.144300  1.0
  O  O839  1  0.201500  0.855700  0.464300  1.0
  O  O840  1  0.201500  0.535700  0.855700  1.0
  O  O841  1  0.798500  0.144300  0.464300  1.0
  O  O842  1  0.798500  0.855700  0.535700  1.0
  O  O843  1  0.798500  0.535700  0.144300  1.0
  O  O844  1  0.798500  0.464300  0.855700  1.0
  O  O845  1  0.798500  0.855700  0.464300  1.0
  O  O846  1  0.798500  0.535700  0.855700  1.0
  O  O847  1  0.798500  0.144300  0.535700  1.0
  O  O848  1  0.798500  0.464300  0.144300  1.0
  O  O849  1  0.201500  0.855700  0.535700  1.0
  O  O850  1  0.201500  0.144300  0.464300  1.0
  O  O851  1  0.201500  0.464300  0.855700  1.0
  O  O852  1  0.201500  0.535700  0.144300  1.0
  O  O853  1  0.186300  0.135900  0.595600  1.0
  O  O854  1  0.186300  0.404400  0.135900  1.0
  O  O855  1  0.186300  0.864100  0.404400  1.0
  O  O856  1  0.186300  0.595600  0.864100  1.0
  O  O857  1  0.813700  0.135900  0.404400  1.0
  O  O858  1  0.813700  0.864100  0.595600  1.0
  O  O859  1  0.813700  0.595600  0.135900  1.0
  O  O860  1  0.813700  0.404400  0.864100  1.0
  O  O861  1  0.813700  0.864100  0.404400  1.0
  O  O862  1  0.813700  0.595600  0.864100  1.0
  O  O863  1  0.813700  0.135900  0.595600  1.0
  O  O864  1  0.813700  0.404400  0.135900  1.0
  O  O865  1  0.186300  0.864100  0.595600  1.0
  O  O866  1  0.186300  0.135900  0.404400  1.0
  O  O867  1  0.186300  0.404400  0.864100  1.0
  O  O868  1  0.186300  0.595600  0.135900  1.0
  O  O869  1  0.164100  0.188400  0.661800  1.0
  O  O870  1  0.164100  0.338200  0.188400  1.0
  O  O871  1  0.164100  0.811600  0.338200  1.0
  O  O872  1  0.164100  0.661800  0.811600  1.0
  O  O873  1  0.835900  0.188400  0.338200  1.0
  O  O874  1  0.835900  0.811600  0.661800  1.0
  O  O875  1  0.835900  0.661800  0.188400  1.0
  O  O876  1  0.835900  0.338200  0.811600  1.0
  O  O877  1  0.835900  0.811600  0.338200  1.0
  O  O878  1  0.835900  0.661800  0.811600  1.0
  O  O879  1  0.835900  0.188400  0.661800  1.0
  O  O880  1  0.835900  0.338200  0.188400  1.0
  O  O881  1  0.164100  0.811600  0.661800  1.0
  O  O882  1  0.164100  0.188400  0.338200  1.0
  O  O883  1  0.164100  0.338200  0.811600  1.0
  O  O884  1  0.164100  0.661800  0.188400  1.0
  O  O885  1  0.309000  0.164900  0.694300  1.0
  O  O886  1  0.309000  0.305700  0.164900  1.0
  O  O887  1  0.309000  0.835100  0.305700  1.0
  O  O888  1  0.309000  0.694300  0.835100  1.0
  O  O889  1  0.691000  0.164900  0.305700  1.0
  O  O890  1  0.691000  0.835100  0.694300  1.0
  O  O891  1  0.691000  0.694300  0.164900  1.0
  O  O892  1  0.691000  0.305700  0.835100  1.0
  O  O893  1  0.691000  0.835100  0.305700  1.0
  O  O894  1  0.691000  0.694300  0.835100  1.0
  O  O895  1  0.691000  0.164900  0.694300  1.0
  O  O896  1  0.691000  0.305700  0.164900  1.0
  O  O897  1  0.309000  0.835100  0.694300  1.0
  O  O898  1  0.309000  0.164900  0.305700  1.0
  O  O899  1  0.309000  0.305700  0.835100  1.0
  O  O900  1  0.309000  0.694300  0.164900  1.0
  O  O901  1  0.294800  0.211300  0.735100  1.0
  O  O902  1  0.294800  0.264900  0.211300  1.0
  O  O903  1  0.294800  0.788700  0.264900  1.0
  O  O904  1  0.294800  0.735100  0.788700  1.0
  O  O905  1  0.705200  0.211300  0.264900  1.0
  O  O906  1  0.705200  0.788700  0.735100  1.0
  O  O907  1  0.705200  0.735100  0.211300  1.0
  O  O908  1  0.705200  0.264900  0.788700  1.0
  O  O909  1  0.705200  0.788700  0.264900  1.0
  O  O910  1  0.705200  0.735100  0.788700  1.0
  O  O911  1  0.705200  0.211300  0.735100  1.0
  O  O912  1  0.705200  0.264900  0.211300  1.0
  O  O913  1  0.294800  0.788700  0.735100  1.0
  O  O914  1  0.294800  0.211300  0.264900  1.0
  O  O915  1  0.294800  0.264900  0.788700  1.0
  O  O916  1  0.294800  0.735100  0.211300  1.0
  O  O917  1  0.184500  0.100900  0.670800  1.0
  O  O918  1  0.184500  0.329200  0.100900  1.0
  O  O919  1  0.184500  0.899100  0.329200  1.0
  O  O920  1  0.184500  0.670800  0.899100  1.0
  O  O921  1  0.815500  0.100900  0.329200  1.0
  O  O922  1  0.815500  0.899100  0.670800  1.0
  O  O923  1  0.815500  0.670800  0.100900  1.0
  O  O924  1  0.815500  0.329200  0.899100  1.0
  O  O925  1  0.815500  0.899100  0.329200  1.0
  O  O926  1  0.815500  0.670800  0.899100  1.0
  O  O927  1  0.815500  0.100900  0.670800  1.0
  O  O928  1  0.815500  0.329200  0.100900  1.0
  O  O929  1  0.184500  0.899100  0.670800  1.0
  O  O930  1  0.184500  0.100900  0.329200  1.0
  O  O931  1  0.184500  0.329200  0.899100  1.0
  O  O932  1  0.184500  0.670800  0.100900  1.0
  O  O933  1  0.335400  0.106700  0.635400  1.0
  O  O934  1  0.335400  0.364600  0.106700  1.0
  O  O935  1  0.335400  0.893300  0.364600  1.0
  O  O936  1  0.335400  0.635400  0.893300  1.0
  O  O937  1  0.664600  0.106700  0.364600  1.0
  O  O938  1  0.664600  0.893300  0.635400  1.0
  O  O939  1  0.664600  0.635400  0.106700  1.0
  O  O940  1  0.664600  0.364600  0.893300  1.0
  O  O941  1  0.664600  0.893300  0.364600  1.0
  O  O942  1  0.664600  0.635400  0.893300  1.0
  O  O943  1  0.664600  0.106700  0.635400  1.0
  O  O944  1  0.664600  0.364600  0.106700  1.0
  O  O945  1  0.335400  0.893300  0.635400  1.0
  O  O946  1  0.335400  0.106700  0.364600  1.0
  O  O947  1  0.335400  0.364600  0.893300  1.0
  O  O948  1  0.335400  0.635400  0.106700  1.0
  O  O949  1  0.197500  0.038400  0.669700  1.0
  O  O950  1  0.197500  0.330300  0.038400  1.0
  O  O951  1  0.197500  0.961600  0.330300  1.0
  O  O952  1  0.197500  0.669700  0.961600  1.0
  O  O953  1  0.802500  0.038400  0.330300  1.0
  O  O954  1  0.802500  0.961600  0.669700  1.0
  O  O955  1  0.802500  0.669700  0.038400  1.0
  O  O956  1  0.802500  0.330300  0.961600  1.0
  O  O957  1  0.802500  0.961600  0.330300  1.0
  O  O958  1  0.802500  0.669700  0.961600  1.0
  O  O959  1  0.802500  0.038400  0.669700  1.0
  O  O960  1  0.802500  0.330300  0.038400  1.0
  O  O961  1  0.197500  0.961600  0.669700  1.0
  O  O962  1  0.197500  0.038400  0.330300  1.0
  O  O963  1  0.197500  0.330300  0.961600  1.0
  O  O964  1  0.197500  0.669700  0.038400  1.0
