# generated using pymatgen
data_Cu12Ni14H156C156(N8O37)3
_symmetry_space_group_name_H-M   'P 1'
_cell_length_a   15.38190000
_cell_length_b   35.97860000
_cell_length_c   35.97860000
_cell_angle_alpha   90.00000000
_cell_angle_beta   90.00000000
_cell_angle_gamma   90.00000000
_symmetry_Int_Tables_number   1
_chemical_formula_structural   Cu12Ni14H156C156(N8O37)3
_chemical_formula_sum   'Cu24 Ni28 H312 C312 N48 O222'
_cell_volume   19911.24901277
_cell_formula_units_Z   2
loop_
 _symmetry_equiv_pos_site_id
 _symmetry_equiv_pos_as_xyz
  1  'x, y, z'
loop_
 _atom_site_type_symbol
 _atom_site_label
 _atom_site_symmetry_multiplicity
 _atom_site_fract_x
 _atom_site_fract_y
 _atom_site_fract_z
 _atom_site_occupancy
  Cu  Cu1  1  0.225560  0.255130  0.255130  1.0
  Cu  Cu2  1  0.225560  0.744870  0.255130  1.0
  Cu  Cu3  1  0.225560  0.744870  0.744870  1.0
  Cu  Cu4  1  0.225560  0.255130  0.744870  1.0
  Cu  Cu5  1  0.774440  0.255130  0.744870  1.0
  Cu  Cu6  1  0.774440  0.744870  0.255130  1.0
  Cu  Cu7  1  0.774440  0.255130  0.255130  1.0
  Cu  Cu8  1  0.774440  0.744870  0.744870  1.0
  Cu  Cu9  1  0.270200  0.351060  0.000000  1.0
  Cu  Cu10  1  0.270200  0.000000  0.351060  1.0
  Cu  Cu11  1  0.270200  0.648940  0.000000  1.0
  Cu  Cu12  1  0.270200  1.000000  0.648940  1.0
  Cu  Cu13  1  0.729800  0.351060  0.000000  1.0
  Cu  Cu14  1  0.729800  0.648940  0.000000  1.0
  Cu  Cu15  1  0.729800  0.000000  0.351060  1.0
  Cu  Cu16  1  0.729800  1.000000  0.648940  1.0
  Cu  Cu17  1  0.273560  0.500000  0.170600  1.0
  Cu  Cu18  1  0.273560  0.829400  0.500000  1.0
  Cu  Cu19  1  0.273560  0.500000  0.829400  1.0
  Cu  Cu20  1  0.273560  0.170600  0.500000  1.0
  Cu  Cu21  1  0.726440  0.500000  0.829400  1.0
  Cu  Cu22  1  0.726440  0.500000  0.170600  1.0
  Cu  Cu23  1  0.726440  0.170600  0.500000  1.0
  Cu  Cu24  1  0.726440  0.829400  0.500000  1.0
  Ni  Ni25  1  0.250370  0.355190  0.147950  1
  Ni  Ni26  1  0.250370  0.852050  0.355190  1
  Ni  Ni27  1  0.250370  0.644810  0.852050  1
  Ni  Ni28  1  0.250370  0.147950  0.644810  1
  Ni  Ni29  1  0.749630  0.355190  0.852050  1
  Ni  Ni30  1  0.749630  0.644810  0.147950  1
  Ni  Ni31  1  0.749630  0.147950  0.355190  1
  Ni  Ni32  1  0.749630  0.852050  0.644810  1
  Ni  Ni33  1  0.749630  0.644810  0.852050  1
  Ni  Ni34  1  0.749630  0.147950  0.644810  1
  Ni  Ni35  1  0.749630  0.355190  0.147950  1
  Ni  Ni36  1  0.749630  0.852050  0.355190  1
  Ni  Ni37  1  0.250370  0.644810  0.147950  1
  Ni  Ni38  1  0.250370  0.355190  0.852050  1
  Ni  Ni39  1  0.250370  0.852050  0.644810  1
  Ni  Ni40  1  0.250370  0.147950  0.355190  1
  Ni  Ni41  1  0.000000  0.457800  0.074640  1
  Ni  Ni42  1  0.000000  0.925360  0.457800  1
  Ni  Ni43  1  1.000000  0.542200  0.925360  1
  Ni  Ni44  1  1.000000  0.074640  0.542200  1
  Ni  Ni45  1  1.000000  0.457800  0.925360  1
  Ni  Ni46  1  0.000000  0.542200  0.074640  1
  Ni  Ni47  1  0.000000  0.074640  0.457800  1
  Ni  Ni48  1  0.000000  0.925360  0.542200  1
  Ni  Ni49  1  0.500000  0.189050  0.189050  1
  Ni  Ni50  1  0.500000  0.810950  0.189050  1
  Ni  Ni51  1  0.500000  0.810950  0.810950  1
  Ni  Ni52  1  0.500000  0.189050  0.810950  1
  H  H53  1  0.441200  0.455900  0.132900  1
  H  H54  1  0.441200  0.867100  0.455900  1
  H  H55  1  0.441200  0.544100  0.867100  1
  H  H56  1  0.441200  0.132900  0.544100  1
  H  H57  1  0.558800  0.455900  0.867100  1
  H  H58  1  0.558800  0.544100  0.132900  1
  H  H59  1  0.558800  0.132900  0.455900  1
  H  H60  1  0.558800  0.867100  0.544100  1
  H  H61  1  0.558800  0.544100  0.867100  1
  H  H62  1  0.558800  0.132900  0.544100  1
  H  H63  1  0.558800  0.455900  0.132900  1
  H  H64  1  0.558800  0.867100  0.455900  1
  H  H65  1  0.441200  0.544100  0.132900  1
  H  H66  1  0.441200  0.455900  0.867100  1
  H  H67  1  0.441200  0.867100  0.544100  1
  H  H68  1  0.441200  0.132900  0.455900  1
  H  H69  1  0.529700  0.434400  0.131500  1
  H  H70  1  0.529700  0.868500  0.434400  1
  H  H71  1  0.529700  0.565600  0.868500  1
  H  H72  1  0.529700  0.131500  0.565600  1
  H  H73  1  0.470300  0.434400  0.868500  1
  H  H74  1  0.470300  0.565600  0.131500  1
  H  H75  1  0.470300  0.131500  0.434400  1
  H  H76  1  0.470300  0.868500  0.565600  1
  H  H77  1  0.470300  0.565600  0.868500  1
  H  H78  1  0.470300  0.131500  0.565600  1
  H  H79  1  0.470300  0.434400  0.131500  1
  H  H80  1  0.470300  0.868500  0.434400  1
  H  H81  1  0.529700  0.565600  0.131500  1
  H  H82  1  0.529700  0.434400  0.868500  1
  H  H83  1  0.529700  0.868500  0.565600  1
  H  H84  1  0.529700  0.131500  0.434400  1
  H  H85  1  0.529200  0.477900  0.134400  1
  H  H86  1  0.529200  0.865600  0.477900  1
  H  H87  1  0.529200  0.522100  0.865600  1
  H  H88  1  0.529200  0.134400  0.522100  1
  H  H89  1  0.470800  0.477900  0.865600  1
  H  H90  1  0.470800  0.522100  0.134400  1
  H  H91  1  0.470800  0.134400  0.477900  1
  H  H92  1  0.470800  0.865600  0.522100  1
  H  H93  1  0.470800  0.522100  0.865600  1
  H  H94  1  0.470800  0.134400  0.522100  1
  H  H95  1  0.470800  0.477900  0.134400  1
  H  H96  1  0.470800  0.865600  0.477900  1
  H  H97  1  0.529200  0.522100  0.134400  1
  H  H98  1  0.529200  0.477900  0.865600  1
  H  H99  1  0.529200  0.865600  0.522100  1
  H  H100  1  0.529200  0.134400  0.477900  1
  H  H101  1  0.058500  0.266600  0.196000  1
  H  H102  1  0.058500  0.804000  0.266600  1
  H  H103  1  0.058500  0.733400  0.804000  1
  H  H104  1  0.058500  0.196000  0.733400  1
  H  H105  1  0.941500  0.266600  0.804000  1
  H  H106  1  0.941500  0.733400  0.196000  1
  H  H107  1  0.941500  0.196000  0.266600  1
  H  H108  1  0.941500  0.804000  0.733400  1
  H  H109  1  0.941500  0.733400  0.804000  1
  H  H110  1  0.941500  0.196000  0.733400  1
  H  H111  1  0.941500  0.266600  0.196000  1
  H  H112  1  0.941500  0.804000  0.266600  1
  H  H113  1  0.058500  0.733400  0.196000  1
  H  H114  1  0.058500  0.266600  0.804000  1
  H  H115  1  0.058500  0.804000  0.733400  1
  H  H116  1  0.058500  0.196000  0.266600  1
  H  H117  1  0.965300  0.279600  0.184100  1
  H  H118  1  0.965300  0.815900  0.279600  1
  H  H119  1  0.965300  0.720400  0.815900  1
  H  H120  1  0.965300  0.184100  0.720400  1
  H  H121  1  0.034700  0.279600  0.815900  1
  H  H122  1  0.034700  0.720400  0.184100  1
  H  H123  1  0.034700  0.184100  0.279600  1
  H  H124  1  0.034700  0.815900  0.720400  1
  H  H125  1  0.034700  0.720400  0.815900  1
  H  H126  1  0.034700  0.184100  0.720400  1
  H  H127  1  0.034700  0.279600  0.184100  1
  H  H128  1  0.034700  0.815900  0.279600  1
  H  H129  1  0.965300  0.720400  0.184100  1
  H  H130  1  0.965300  0.279600  0.815900  1
  H  H131  1  0.965300  0.815900  0.720400  1
  H  H132  1  0.965300  0.184100  0.279600  1
  H  H133  1  0.976200  0.247700  0.213500  1
  H  H134  1  0.976200  0.786500  0.247700  1
  H  H135  1  0.976200  0.752300  0.786500  1
  H  H136  1  0.976200  0.213500  0.752300  1
  H  H137  1  0.023800  0.247700  0.786500  1
  H  H138  1  0.023800  0.752300  0.213500  1
  H  H139  1  0.023800  0.213500  0.247700  1
  H  H140  1  0.023800  0.786500  0.752300  1
  H  H141  1  0.023800  0.752300  0.786500  1
  H  H142  1  0.023800  0.213500  0.752300  1
  H  H143  1  0.023800  0.247700  0.213500  1
  H  H144  1  0.023800  0.786500  0.247700  1
  H  H145  1  0.976200  0.752300  0.213500  1
  H  H146  1  0.976200  0.247700  0.786500  1
  H  H147  1  0.976200  0.786500  0.752300  1
  H  H148  1  0.976200  0.213500  0.247700  1
  H  H149  1  0.441200  0.318000  0.041200  1
  H  H150  1  0.441200  0.958800  0.318000  1
  H  H151  1  0.441200  0.682000  0.958800  1
  H  H152  1  0.441200  0.041200  0.682000  1
  H  H153  1  0.558800  0.318000  0.958800  1
  H  H154  1  0.558800  0.682000  0.041200  1
  H  H155  1  0.558800  0.041200  0.318000  1
  H  H156  1  0.558800  0.958800  0.682000  1
  H  H157  1  0.558800  0.682000  0.958800  1
  H  H158  1  0.558800  0.041200  0.682000  1
  H  H159  1  0.558800  0.318000  0.041200  1
  H  H160  1  0.558800  0.958800  0.318000  1
  H  H161  1  0.441200  0.682000  0.041200  1
  H  H162  1  0.441200  0.318000  0.958800  1
  H  H163  1  0.441200  0.958800  0.682000  1
  H  H164  1  0.441200  0.041200  0.318000  1
  H  H165  1  0.530400  0.316300  0.062200  1
  H  H166  1  0.530400  0.937800  0.316300  1
  H  H167  1  0.530400  0.683700  0.937800  1
  H  H168  1  0.530400  0.062200  0.683700  1
  H  H169  1  0.469600  0.316300  0.937800  1
  H  H170  1  0.469600  0.683700  0.062200  1
  H  H171  1  0.469600  0.062200  0.316300  1
  H  H172  1  0.469600  0.937800  0.683700  1
  H  H173  1  0.469600  0.683700  0.937800  1
  H  H174  1  0.469600  0.062200  0.683700  1
  H  H175  1  0.469600  0.316300  0.062200  1
  H  H176  1  0.469600  0.937800  0.316300  1
  H  H177  1  0.530400  0.683700  0.062200  1
  H  H178  1  0.530400  0.316300  0.937800  1
  H  H179  1  0.530400  0.937800  0.683700  1
  H  H180  1  0.530400  0.062200  0.316300  1
  H  H181  1  0.528500  0.319800  0.018800  1
  H  H182  1  0.528500  0.981200  0.319800  1
  H  H183  1  0.528500  0.680200  0.981200  1
  H  H184  1  0.528500  0.018800  0.680200  1
  H  H185  1  0.471500  0.319800  0.981200  1
  H  H186  1  0.471500  0.680200  0.018800  1
  H  H187  1  0.471500  0.018800  0.319800  1
  H  H188  1  0.471500  0.981200  0.680200  1
  H  H189  1  0.471500  0.680200  0.981200  1
  H  H190  1  0.471500  0.018800  0.680200  1
  H  H191  1  0.471500  0.319800  0.018800  1
  H  H192  1  0.471500  0.981200  0.319800  1
  H  H193  1  0.528500  0.680200  0.018800  1
  H  H194  1  0.528500  0.319800  0.981200  1
  H  H195  1  0.528500  0.981200  0.680200  1
  H  H196  1  0.528500  0.018800  0.319800  1
  H  H197  1  1.000000  0.371800  0.307500  1.0
  H  H198  1  1.000000  0.692500  0.371800  1.0
  H  H199  1  0.000000  0.628200  0.692500  1.0
  H  H200  1  1.000000  0.307500  0.628200  1.0
  H  H201  1  0.000000  0.371800  0.692500  1.0
  H  H202  1  1.000000  0.628200  0.307500  1.0
  H  H203  1  1.000000  0.307500  0.371800  1.0
  H  H204  1  1.000000  0.692500  0.628200  1.0
  H  H205  1  0.500000  0.468000  0.040000  1.0
  H  H206  1  0.500000  0.960000  0.468000  1.0
  H  H207  1  0.500000  0.532000  0.960000  1.0
  H  H208  1  0.500000  0.040000  0.532000  1.0
  H  H209  1  0.500000  0.468000  0.960000  1.0
  H  H210  1  0.500000  0.532000  0.040000  1.0
  H  H211  1  0.500000  0.040000  0.468000  1.0
  H  H212  1  0.500000  0.960000  0.532000  1.0
  H  H213  1  0.500000  0.447800  0.288900  1.0
  H  H214  1  0.500000  0.711100  0.447800  1.0
  H  H215  1  0.500000  0.552200  0.711100  1.0
  H  H216  1  0.500000  0.288900  0.552200  1.0
  H  H217  1  0.500000  0.447800  0.711100  1.0
  H  H218  1  0.500000  0.552200  0.288900  1.0
  H  H219  1  0.500000  0.288900  0.447800  1.0
  H  H220  1  0.500000  0.711100  0.552200  1.0
  H  H221  1  0.145000  0.369400  0.314800  1.0
  H  H222  1  0.145000  0.685200  0.369400  1.0
  H  H223  1  0.145000  0.630600  0.685200  1.0
  H  H224  1  0.145000  0.314800  0.630600  1.0
  H  H225  1  0.855000  0.369400  0.685200  1.0
  H  H226  1  0.855000  0.630600  0.314800  1.0
  H  H227  1  0.855000  0.314800  0.369400  1.0
  H  H228  1  0.855000  0.685200  0.630600  1.0
  H  H229  1  0.855000  0.630600  0.685200  1.0
  H  H230  1  0.855000  0.314800  0.630600  1.0
  H  H231  1  0.855000  0.369400  0.314800  1.0
  H  H232  1  0.855000  0.685200  0.369400  1.0
  H  H233  1  0.145000  0.630600  0.314800  1.0
  H  H234  1  0.145000  0.369400  0.685200  1.0
  H  H235  1  0.145000  0.685200  0.630600  1.0
  H  H236  1  0.145000  0.314800  0.369400  1.0
  H  H237  1  0.189700  0.366200  0.275800  1.0
  H  H238  1  0.189700  0.724200  0.366200  1.0
  H  H239  1  0.189700  0.633800  0.724200  1.0
  H  H240  1  0.189700  0.275800  0.633800  1.0
  H  H241  1  0.810300  0.366200  0.724200  1.0
  H  H242  1  0.810300  0.633800  0.275800  1.0
  H  H243  1  0.810300  0.275800  0.366200  1.0
  H  H244  1  0.810300  0.724200  0.633800  1.0
  H  H245  1  0.810300  0.633800  0.724200  1.0
  H  H246  1  0.810300  0.275800  0.633800  1.0
  H  H247  1  0.810300  0.366200  0.275800  1.0
  H  H248  1  0.810300  0.724200  0.366200  1.0
  H  H249  1  0.189700  0.633800  0.275800  1.0
  H  H250  1  0.189700  0.366200  0.724200  1.0
  H  H251  1  0.189700  0.724200  0.633800  1.0
  H  H252  1  0.189700  0.275800  0.366200  1.0
  H  H253  1  0.197800  0.333600  0.304400  1.0
  H  H254  1  0.197800  0.695600  0.333600  1.0
  H  H255  1  0.197800  0.666400  0.695600  1.0
  H  H256  1  0.197800  0.304400  0.666400  1.0
  H  H257  1  0.802200  0.333600  0.695600  1.0
  H  H258  1  0.802200  0.666400  0.304400  1.0
  H  H259  1  0.802200  0.304400  0.333600  1.0
  H  H260  1  0.802200  0.695600  0.666400  1.0
  H  H261  1  0.802200  0.666400  0.695600  1.0
  H  H262  1  0.802200  0.304400  0.666400  1.0
  H  H263  1  0.802200  0.333600  0.304400  1.0
  H  H264  1  0.802200  0.695600  0.333600  1.0
  H  H265  1  0.197800  0.666400  0.304400  1.0
  H  H266  1  0.197800  0.333600  0.695600  1.0
  H  H267  1  0.197800  0.695600  0.666400  1.0
  H  H268  1  0.197800  0.304400  0.333600  1.0
  H  H269  1  0.290400  0.429900  0.048400  1.0
  H  H270  1  0.290400  0.951600  0.429900  1.0
  H  H271  1  0.290400  0.570100  0.951600  1.0
  H  H272  1  0.290400  0.048400  0.570100  1.0
  H  H273  1  0.709600  0.429900  0.951600  1.0
  H  H274  1  0.709600  0.570100  0.048400  1.0
  H  H275  1  0.709600  0.048400  0.429900  1.0
  H  H276  1  0.709600  0.951600  0.570100  1.0
  H  H277  1  0.709600  0.570100  0.951600  1.0
  H  H278  1  0.709600  0.048400  0.570100  1.0
  H  H279  1  0.709600  0.429900  0.048400  1.0
  H  H280  1  0.709600  0.951600  0.429900  1.0
  H  H281  1  0.290400  0.570100  0.048400  1.0
  H  H282  1  0.290400  0.429900  0.951600  1.0
  H  H283  1  0.290400  0.951600  0.570100  1.0
  H  H284  1  0.290400  0.048400  0.429900  1.0
  H  H285  1  0.330100  0.463100  0.025900  1.0
  H  H286  1  0.330100  0.974100  0.463100  1.0
  H  H287  1  0.330100  0.536900  0.974100  1.0
  H  H288  1  0.330100  0.025900  0.536900  1.0
  H  H289  1  0.669900  0.463100  0.974100  1.0
  H  H290  1  0.669900  0.536900  0.025900  1.0
  H  H291  1  0.669900  0.025900  0.463100  1.0
  H  H292  1  0.669900  0.974100  0.536900  1.0
  H  H293  1  0.669900  0.536900  0.974100  1.0
  H  H294  1  0.669900  0.025900  0.536900  1.0
  H  H295  1  0.669900  0.463100  0.025900  1.0
  H  H296  1  0.669900  0.974100  0.463100  1.0
  H  H297  1  0.330100  0.536900  0.025900  1.0
  H  H298  1  0.330100  0.463100  0.974100  1.0
  H  H299  1  0.330100  0.974100  0.536900  1.0
  H  H300  1  0.330100  0.025900  0.463100  1.0
  H  H301  1  0.335600  0.462800  0.069400  1.0
  H  H302  1  0.335600  0.930600  0.462800  1.0
  H  H303  1  0.335600  0.537200  0.930600  1.0
  H  H304  1  0.335600  0.069400  0.537200  1.0
  H  H305  1  0.664400  0.462800  0.930600  1.0
  H  H306  1  0.664400  0.537200  0.069400  1.0
  H  H307  1  0.664400  0.069400  0.462800  1.0
  H  H308  1  0.664400  0.930600  0.537200  1.0
  H  H309  1  0.664400  0.537200  0.930600  1.0
  H  H310  1  0.664400  0.069400  0.537200  1.0
  H  H311  1  0.664400  0.462800  0.069400  1.0
  H  H312  1  0.664400  0.930600  0.462800  1.0
  H  H313  1  0.335600  0.537200  0.069400  1.0
  H  H314  1  0.335600  0.462800  0.930600  1.0
  H  H315  1  0.335600  0.930600  0.537200  1.0
  H  H316  1  0.335600  0.069400  0.462800  1.0
  H  H317  1  0.352900  0.449300  0.290800  1.0
  H  H318  1  0.352900  0.709200  0.449300  1.0
  H  H319  1  0.352900  0.550700  0.709200  1.0
  H  H320  1  0.352900  0.290800  0.550700  1.0
  H  H321  1  0.647100  0.449300  0.709200  1.0
  H  H322  1  0.647100  0.550700  0.290800  1.0
  H  H323  1  0.647100  0.290800  0.449300  1.0
  H  H324  1  0.647100  0.709200  0.550700  1.0
  H  H325  1  0.647100  0.550700  0.709200  1.0
  H  H326  1  0.647100  0.290800  0.550700  1.0
  H  H327  1  0.647100  0.449300  0.290800  1.0
  H  H328  1  0.647100  0.709200  0.449300  1.0
  H  H329  1  0.352900  0.550700  0.290800  1.0
  H  H330  1  0.352900  0.449300  0.709200  1.0
  H  H331  1  0.352900  0.709200  0.550700  1.0
  H  H332  1  0.352900  0.290800  0.449300  1.0
  H  H333  1  0.309400  0.426500  0.258600  1.0
  H  H334  1  0.309400  0.741400  0.426500  1.0
  H  H335  1  0.309400  0.573500  0.741400  1.0
  H  H336  1  0.309400  0.258600  0.573500  1.0
  H  H337  1  0.690600  0.426500  0.741400  1.0
  H  H338  1  0.690600  0.573500  0.258600  1.0
  H  H339  1  0.690600  0.258600  0.426500  1.0
  H  H340  1  0.690600  0.741400  0.573500  1.0
  H  H341  1  0.690600  0.573500  0.741400  1.0
  H  H342  1  0.690600  0.258600  0.573500  1.0
  H  H343  1  0.690600  0.426500  0.258600  1.0
  H  H344  1  0.690600  0.741400  0.426500  1.0
  H  H345  1  0.309400  0.573500  0.258600  1.0
  H  H346  1  0.309400  0.426500  0.741400  1.0
  H  H347  1  0.309400  0.741400  0.573500  1.0
  H  H348  1  0.309400  0.258600  0.426500  1.0
  H  H349  1  0.303800  0.470000  0.258700  1.0
  H  H350  1  0.303800  0.741300  0.470000  1.0
  H  H351  1  0.303800  0.530000  0.741300  1.0
  H  H352  1  0.303800  0.258700  0.530000  1.0
  H  H353  1  0.696200  0.470000  0.741300  1.0
  H  H354  1  0.696200  0.530000  0.258700  1.0
  H  H355  1  0.696200  0.258700  0.470000  1.0
  H  H356  1  0.696200  0.741300  0.530000  1.0
  H  H357  1  0.696200  0.530000  0.741300  1.0
  H  H358  1  0.696200  0.258700  0.530000  1.0
  H  H359  1  0.696200  0.470000  0.258700  1.0
  H  H360  1  0.696200  0.741300  0.470000  1.0
  H  H361  1  0.303800  0.530000  0.258700  1.0
  H  H362  1  0.303800  0.470000  0.741300  1.0
  H  H363  1  0.303800  0.741300  0.530000  1.0
  H  H364  1  0.303800  0.258700  0.470000  1.0
  C  C365  1  0.000000  0.299800  0.236000  1.0
  C  C366  1  0.000000  0.764000  0.299800  1.0
  C  C367  1  0.000000  0.700200  0.764000  1.0
  C  C368  1  0.000000  0.236000  0.700200  1.0
  C  C369  1  0.000000  0.299800  0.764000  1.0
  C  C370  1  0.000000  0.700200  0.236000  1.0
  C  C371  1  0.000000  0.236000  0.299800  1.0
  C  C372  1  0.000000  0.764000  0.700200  1.0
  C  C373  1  1.000000  0.270700  0.204400  1.0
  C  C374  1  0.000000  0.795600  0.270700  1.0
  C  C375  1  0.000000  0.729300  0.795600  1.0
  C  C376  1  0.000000  0.204400  0.729300  1.0
  C  C377  1  1.000000  0.270700  0.795600  1.0
  C  C378  1  0.000000  0.729300  0.204400  1.0
  C  C379  1  0.000000  0.204400  0.270700  1.0
  C  C380  1  0.000000  0.795600  0.729300  1.0
  C  C381  1  0.000000  0.351300  0.291700  1.0
  C  C382  1  0.000000  0.708300  0.351300  1.0
  C  C383  1  0.000000  0.648700  0.708300  1.0
  C  C384  1  0.000000  0.291700  0.648700  1.0
  C  C385  1  0.000000  0.351300  0.708300  1.0
  C  C386  1  0.000000  0.648700  0.291700  1.0
  C  C387  1  0.000000  0.291700  0.351300  1.0
  C  C388  1  0.000000  0.708300  0.648700  1.0
  C  C389  1  0.500000  0.442400  0.043400  1.0
  C  C390  1  0.500000  0.956600  0.442400  1.0
  C  C391  1  0.500000  0.557600  0.956600  1.0
  C  C392  1  0.500000  0.043400  0.557600  1.0
  C  C393  1  0.500000  0.442400  0.956600  1.0
  C  C394  1  0.500000  0.557600  0.043400  1.0
  C  C395  1  0.500000  0.043400  0.442400  1.0
  C  C396  1  0.500000  0.956600  0.557600  1.0
  C  C397  1  0.500000  0.326900  0.041400  1.0
  C  C398  1  0.500000  0.958600  0.326900  1.0
  C  C399  1  0.500000  0.673100  0.958600  1.0
  C  C400  1  0.500000  0.041400  0.673100  1.0
  C  C401  1  0.500000  0.326900  0.958600  1.0
  C  C402  1  0.500000  0.673100  0.041400  1.0
  C  C403  1  0.500000  0.041400  0.326900  1.0
  C  C404  1  0.500000  0.958600  0.673100  1.0
  C  C405  1  0.500000  0.367400  0.044700  1.0
  C  C406  1  0.500000  0.955300  0.367400  1.0
  C  C407  1  0.500000  0.632600  0.955300  1.0
  C  C408  1  0.500000  0.044700  0.632600  1.0
  C  C409  1  0.500000  0.367400  0.955300  1.0
  C  C410  1  0.500000  0.632600  0.044700  1.0
  C  C411  1  0.500000  0.044700  0.367400  1.0
  C  C412  1  0.500000  0.955300  0.632600  1.0
  C  C413  1  0.500000  0.452600  0.185400  1.0
  C  C414  1  0.500000  0.814600  0.452600  1.0
  C  C415  1  0.500000  0.547400  0.814600  1.0
  C  C416  1  0.500000  0.185400  0.547400  1.0
  C  C417  1  0.500000  0.452600  0.814600  1.0
  C  C418  1  0.500000  0.547400  0.185400  1.0
  C  C419  1  0.500000  0.185400  0.452600  1.0
  C  C420  1  0.500000  0.814600  0.547400  1.0
  C  C421  1  0.500000  0.455500  0.141800  1.0
  C  C422  1  0.500000  0.858200  0.455500  1.0
  C  C423  1  0.500000  0.544500  0.858200  1.0
  C  C424  1  0.500000  0.141800  0.544500  1.0
  C  C425  1  0.500000  0.455500  0.858200  1.0
  C  C426  1  0.500000  0.544500  0.141800  1.0
  C  C427  1  0.500000  0.141800  0.455500  1.0
  C  C428  1  0.500000  0.858200  0.544500  1.0
  C  C429  1  0.500000  0.449600  0.263100  1.0
  C  C430  1  0.500000  0.736900  0.449600  1.0
  C  C431  1  0.500000  0.550400  0.736900  1.0
  C  C432  1  0.500000  0.263100  0.550400  1.0
  C  C433  1  0.500000  0.449600  0.736900  1.0
  C  C434  1  0.500000  0.550400  0.263100  1.0
  C  C435  1  0.500000  0.263100  0.449600  1.0
  C  C436  1  0.500000  0.736900  0.550400  1.0
  C  C437  1  0.273500  0.292600  0.192500  1.0
  C  C438  1  0.273500  0.807500  0.292600  1.0
  C  C439  1  0.273500  0.707400  0.807500  1.0
  C  C440  1  0.273500  0.192500  0.707400  1.0
  C  C441  1  0.726500  0.292600  0.807500  1.0
  C  C442  1  0.726500  0.707400  0.192500  1.0
  C  C443  1  0.726500  0.192500  0.292600  1.0
  C  C444  1  0.726500  0.807500  0.707400  1.0
  C  C445  1  0.726500  0.707400  0.807500  1.0
  C  C446  1  0.726500  0.192500  0.707400  1.0
  C  C447  1  0.726500  0.292600  0.192500  1.0
  C  C448  1  0.726500  0.807500  0.292600  1.0
  C  C449  1  0.273500  0.707400  0.192500  1.0
  C  C450  1  0.273500  0.292600  0.807500  1.0
  C  C451  1  0.273500  0.807500  0.707400  1.0
  C  C452  1  0.273500  0.192500  0.292600  1.0
  C  C453  1  0.191900  0.310800  0.208600  1.0
  C  C454  1  0.191900  0.791400  0.310800  1.0
  C  C455  1  0.191900  0.689200  0.791400  1.0
  C  C456  1  0.191900  0.208600  0.689200  1.0
  C  C457  1  0.808100  0.310800  0.791400  1.0
  C  C458  1  0.808100  0.689200  0.208600  1.0
  C  C459  1  0.808100  0.208600  0.310800  1.0
  C  C460  1  0.808100  0.791400  0.689200  1.0
  C  C461  1  0.808100  0.689200  0.791400  1.0
  C  C462  1  0.808100  0.208600  0.689200  1.0
  C  C463  1  0.808100  0.310800  0.208600  1.0
  C  C464  1  0.808100  0.791400  0.310800  1.0
  C  C465  1  0.191900  0.689200  0.208600  1.0
  C  C466  1  0.191900  0.310800  0.791400  1.0
  C  C467  1  0.191900  0.791400  0.689200  1.0
  C  C468  1  0.191900  0.208600  0.310800  1.0
  C  C469  1  0.077900  0.311900  0.252000  1.0
  C  C470  1  0.077900  0.748000  0.311900  1.0
  C  C471  1  0.077900  0.688100  0.748000  1.0
  C  C472  1  0.077900  0.252000  0.688100  1.0
  C  C473  1  0.922100  0.311900  0.748000  1.0
  C  C474  1  0.922100  0.688100  0.252000  1.0
  C  C475  1  0.922100  0.252000  0.311900  1.0
  C  C476  1  0.922100  0.748000  0.688100  1.0
  C  C477  1  0.922100  0.688100  0.748000  1.0
  C  C478  1  0.922100  0.252000  0.688100  1.0
  C  C479  1  0.922100  0.311900  0.252000  1.0
  C  C480  1  0.922100  0.748000  0.311900  1.0
  C  C481  1  0.077900  0.688100  0.252000  1.0
  C  C482  1  0.077900  0.311900  0.748000  1.0
  C  C483  1  0.077900  0.748000  0.688100  1.0
  C  C484  1  0.077900  0.252000  0.311900  1.0
  C  C485  1  0.160300  0.352700  0.295000  1.0
  C  C486  1  0.160300  0.705000  0.352700  1.0
  C  C487  1  0.160300  0.647300  0.705000  1.0
  C  C488  1  0.160300  0.295000  0.647300  1.0
  C  C489  1  0.839700  0.352700  0.705000  1.0
  C  C490  1  0.839700  0.647300  0.295000  1.0
  C  C491  1  0.839700  0.295000  0.352700  1.0
  C  C492  1  0.839700  0.705000  0.647300  1.0
  C  C493  1  0.839700  0.647300  0.705000  1.0
  C  C494  1  0.839700  0.295000  0.647300  1.0
  C  C495  1  0.839700  0.352700  0.295000  1.0
  C  C496  1  0.839700  0.705000  0.352700  1.0
  C  C497  1  0.160300  0.647300  0.295000  1.0
  C  C498  1  0.160300  0.352700  0.705000  1.0
  C  C499  1  0.160300  0.705000  0.647300  1.0
  C  C500  1  0.160300  0.295000  0.352700  1.0
  C  C501  1  0.080900  0.335700  0.279700  1.0
  C  C502  1  0.080900  0.720300  0.335700  1.0
  C  C503  1  0.080900  0.664300  0.720300  1.0
  C  C504  1  0.080900  0.279700  0.664300  1.0
  C  C505  1  0.919100  0.335700  0.720300  1.0
  C  C506  1  0.919100  0.664300  0.279700  1.0
  C  C507  1  0.919100  0.279700  0.335700  1.0
  C  C508  1  0.919100  0.720300  0.664300  1.0
  C  C509  1  0.919100  0.664300  0.720300  1.0
  C  C510  1  0.919100  0.279700  0.664300  1.0
  C  C511  1  0.919100  0.335700  0.279700  1.0
  C  C512  1  0.919100  0.720300  0.335700  1.0
  C  C513  1  0.080900  0.664300  0.279700  1.0
  C  C514  1  0.080900  0.335700  0.720300  1.0
  C  C515  1  0.080900  0.720300  0.664300  1.0
  C  C516  1  0.080900  0.279700  0.335700  1.0
  C  C517  1  0.218600  0.336600  0.073600  1.0
  C  C518  1  0.218600  0.926400  0.336600  1.0
  C  C519  1  0.218600  0.663400  0.926400  1.0
  C  C520  1  0.218600  0.073600  0.663400  1.0
  C  C521  1  0.781400  0.336600  0.926400  1.0
  C  C522  1  0.781400  0.663400  0.073600  1.0
  C  C523  1  0.781400  0.073600  0.336600  1.0
  C  C524  1  0.781400  0.926400  0.663400  1.0
  C  C525  1  0.781400  0.663400  0.926400  1.0
  C  C526  1  0.781400  0.073600  0.663400  1.0
  C  C527  1  0.781400  0.336600  0.073600  1.0
  C  C528  1  0.781400  0.926400  0.336600  1.0
  C  C529  1  0.218600  0.663400  0.073600  1.0
  C  C530  1  0.218600  0.336600  0.926400  1.0
  C  C531  1  0.218600  0.926400  0.663400  1.0
  C  C532  1  0.218600  0.073600  0.336600  1.0
  C  C533  1  0.422300  0.427500  0.045300  1.0
  C  C534  1  0.422300  0.954700  0.427500  1.0
  C  C535  1  0.422300  0.572500  0.954700  1.0
  C  C536  1  0.422300  0.045300  0.572500  1.0
  C  C537  1  0.577700  0.427500  0.954700  1.0
  C  C538  1  0.577700  0.572500  0.045300  1.0
  C  C539  1  0.577700  0.045300  0.427500  1.0
  C  C540  1  0.577700  0.954700  0.572500  1.0
  C  C541  1  0.577700  0.572500  0.954700  1.0
  C  C542  1  0.577700  0.045300  0.572500  1.0
  C  C543  1  0.577700  0.427500  0.045300  1.0
  C  C544  1  0.577700  0.954700  0.427500  1.0
  C  C545  1  0.422300  0.572500  0.045300  1.0
  C  C546  1  0.422300  0.427500  0.954700  1.0
  C  C547  1  0.422300  0.954700  0.572500  1.0
  C  C548  1  0.422300  0.045300  0.427500  1.0
  C  C549  1  0.421800  0.388600  0.044400  1.0
  C  C550  1  0.421800  0.955600  0.388600  1.0
  C  C551  1  0.421800  0.611400  0.955600  1.0
  C  C552  1  0.421800  0.044400  0.611400  1.0
  C  C553  1  0.578200  0.388600  0.955600  1.0
  C  C554  1  0.578200  0.611400  0.044400  1.0
  C  C555  1  0.578200  0.044400  0.388600  1.0
  C  C556  1  0.578200  0.955600  0.611400  1.0
  C  C557  1  0.578200  0.611400  0.955600  1.0
  C  C558  1  0.578200  0.044400  0.611400  1.0
  C  C559  1  0.578200  0.388600  0.044400  1.0
  C  C560  1  0.578200  0.955600  0.388600  1.0
  C  C561  1  0.421800  0.611400  0.044400  1.0
  C  C562  1  0.421800  0.388600  0.955600  1.0
  C  C563  1  0.421800  0.955600  0.611400  1.0
  C  C564  1  0.421800  0.044400  0.388600  1.0
  C  C565  1  0.336900  0.447600  0.047400  1.0
  C  C566  1  0.336900  0.952600  0.447600  1.0
  C  C567  1  0.336900  0.552400  0.952600  1.0
  C  C568  1  0.336900  0.047400  0.552400  1.0
  C  C569  1  0.663100  0.447600  0.952600  1.0
  C  C570  1  0.663100  0.552400  0.047400  1.0
  C  C571  1  0.663100  0.047400  0.447600  1.0
  C  C572  1  0.663100  0.952600  0.552400  1.0
  C  C573  1  0.663100  0.552400  0.952600  1.0
  C  C574  1  0.663100  0.047400  0.552400  1.0
  C  C575  1  0.663100  0.447600  0.047400  1.0
  C  C576  1  0.663100  0.952600  0.447600  1.0
  C  C577  1  0.336900  0.552400  0.047400  1.0
  C  C578  1  0.336900  0.447600  0.952600  1.0
  C  C579  1  0.336900  0.952600  0.552400  1.0
  C  C580  1  0.336900  0.047400  0.447600  1.0
  C  C581  1  0.306800  0.358800  0.074000  1.0
  C  C582  1  0.306800  0.926000  0.358800  1.0
  C  C583  1  0.306800  0.641200  0.926000  1.0
  C  C584  1  0.306800  0.074000  0.641200  1.0
  C  C585  1  0.693200  0.358800  0.926000  1.0
  C  C586  1  0.693200  0.641200  0.074000  1.0
  C  C587  1  0.693200  0.074000  0.358800  1.0
  C  C588  1  0.693200  0.926000  0.641200  1.0
  C  C589  1  0.693200  0.641200  0.926000  1.0
  C  C590  1  0.693200  0.074000  0.641200  1.0
  C  C591  1  0.693200  0.358800  0.074000  1.0
  C  C592  1  0.693200  0.926000  0.358800  1.0
  C  C593  1  0.306800  0.641200  0.074000  1.0
  C  C594  1  0.306800  0.358800  0.926000  1.0
  C  C595  1  0.306800  0.926000  0.641200  1.0
  C  C596  1  0.306800  0.074000  0.358800  1.0
  C  C597  1  0.222100  0.432000  0.147900  1.0
  C  C598  1  0.222100  0.852100  0.432000  1.0
  C  C599  1  0.222100  0.568000  0.852100  1.0
  C  C600  1  0.222100  0.147900  0.568000  1.0
  C  C601  1  0.777900  0.432000  0.852100  1.0
  C  C602  1  0.777900  0.568000  0.147900  1.0
  C  C603  1  0.777900  0.147900  0.432000  1.0
  C  C604  1  0.777900  0.852100  0.568000  1.0
  C  C605  1  0.777900  0.568000  0.852100  1.0
  C  C606  1  0.777900  0.147900  0.568000  1.0
  C  C607  1  0.777900  0.432000  0.147900  1.0
  C  C608  1  0.777900  0.852100  0.432000  1.0
  C  C609  1  0.222100  0.568000  0.147900  1.0
  C  C610  1  0.222100  0.432000  0.852100  1.0
  C  C611  1  0.222100  0.852100  0.568000  1.0
  C  C612  1  0.222100  0.147900  0.432000  1.0
  C  C613  1  0.302200  0.423600  0.176200  1.0
  C  C614  1  0.302200  0.823800  0.423600  1.0
  C  C615  1  0.302200  0.576400  0.823800  1.0
  C  C616  1  0.302200  0.176200  0.576400  1.0
  C  C617  1  0.697800  0.423600  0.823800  1.0
  C  C618  1  0.697800  0.576400  0.176200  1.0
  C  C619  1  0.697800  0.176200  0.423600  1.0
  C  C620  1  0.697800  0.823800  0.576400  1.0
  C  C621  1  0.697800  0.576400  0.823800  1.0
  C  C622  1  0.697800  0.176200  0.576400  1.0
  C  C623  1  0.697800  0.423600  0.176200  1.0
  C  C624  1  0.697800  0.823800  0.423600  1.0
  C  C625  1  0.302200  0.576400  0.176200  1.0
  C  C626  1  0.302200  0.423600  0.823800  1.0
  C  C627  1  0.302200  0.823800  0.576400  1.0
  C  C628  1  0.302200  0.176200  0.423600  1.0
  C  C629  1  0.423500  0.451600  0.204700  1.0
  C  C630  1  0.423500  0.795300  0.451600  1.0
  C  C631  1  0.423500  0.548400  0.795300  1.0
  C  C632  1  0.423500  0.204700  0.548400  1.0
  C  C633  1  0.576500  0.451600  0.795300  1.0
  C  C634  1  0.576500  0.548400  0.204700  1.0
  C  C635  1  0.576500  0.204700  0.451600  1.0
  C  C636  1  0.576500  0.795300  0.548400  1.0
  C  C637  1  0.576500  0.548400  0.795300  1.0
  C  C638  1  0.576500  0.204700  0.548400  1.0
  C  C639  1  0.576500  0.451600  0.204700  1.0
  C  C640  1  0.576500  0.795300  0.451600  1.0
  C  C641  1  0.423500  0.548400  0.204700  1.0
  C  C642  1  0.423500  0.451600  0.795300  1.0
  C  C643  1  0.423500  0.795300  0.548400  1.0
  C  C644  1  0.423500  0.204700  0.451600  1.0
  C  C645  1  0.339700  0.449000  0.264700  1.0
  C  C646  1  0.339700  0.735300  0.449000  1.0
  C  C647  1  0.339700  0.551000  0.735300  1.0
  C  C648  1  0.339700  0.264700  0.551000  1.0
  C  C649  1  0.660300  0.449000  0.735300  1.0
  C  C650  1  0.660300  0.551000  0.264700  1.0
  C  C651  1  0.660300  0.264700  0.449000  1.0
  C  C652  1  0.660300  0.735300  0.551000  1.0
  C  C653  1  0.660300  0.551000  0.735300  1.0
  C  C654  1  0.660300  0.264700  0.551000  1.0
  C  C655  1  0.660300  0.449000  0.264700  1.0
  C  C656  1  0.660300  0.735300  0.449000  1.0
  C  C657  1  0.339700  0.551000  0.264700  1.0
  C  C658  1  0.339700  0.449000  0.735300  1.0
  C  C659  1  0.339700  0.735300  0.551000  1.0
  C  C660  1  0.339700  0.264700  0.449000  1.0
  C  C661  1  0.420700  0.451000  0.243300  1.0
  C  C662  1  0.420700  0.756700  0.451000  1.0
  C  C663  1  0.420700  0.549000  0.756700  1.0
  C  C664  1  0.420700  0.243300  0.549000  1.0
  C  C665  1  0.579300  0.451000  0.756700  1.0
  C  C666  1  0.579300  0.549000  0.243300  1.0
  C  C667  1  0.579300  0.243300  0.451000  1.0
  C  C668  1  0.579300  0.756700  0.549000  1.0
  C  C669  1  0.579300  0.549000  0.756700  1.0
  C  C670  1  0.579300  0.243300  0.549000  1.0
  C  C671  1  0.579300  0.451000  0.243300  1.0
  C  C672  1  0.579300  0.756700  0.451000  1.0
  C  C673  1  0.420700  0.549000  0.243300  1.0
  C  C674  1  0.420700  0.451000  0.756700  1.0
  C  C675  1  0.420700  0.756700  0.549000  1.0
  C  C676  1  0.420700  0.243300  0.451000  1.0
  N  N677  1  0.158000  0.299200  0.235700  1.0
  N  N678  1  0.158000  0.764300  0.299200  1.0
  N  N679  1  0.158000  0.700800  0.764300  1.0
  N  N680  1  0.158000  0.235700  0.700800  1.0
  N  N681  1  0.842000  0.299200  0.764300  1.0
  N  N682  1  0.842000  0.700800  0.235700  1.0
  N  N683  1  0.842000  0.235700  0.299200  1.0
  N  N684  1  0.842000  0.764300  0.700800  1.0
  N  N685  1  0.842000  0.700800  0.764300  1.0
  N  N686  1  0.842000  0.235700  0.700800  1.0
  N  N687  1  0.842000  0.299200  0.235700  1.0
  N  N688  1  0.842000  0.764300  0.299200  1.0
  N  N689  1  0.158000  0.700800  0.235700  1.0
  N  N690  1  0.158000  0.299200  0.764300  1.0
  N  N691  1  0.158000  0.764300  0.700800  1.0
  N  N692  1  0.158000  0.235700  0.299200  1.0
  N  N693  1  0.341400  0.365900  0.041500  1.0
  N  N694  1  0.341400  0.958500  0.365900  1.0
  N  N695  1  0.341400  0.634100  0.958500  1.0
  N  N696  1  0.341400  0.041500  0.634100  1.0
  N  N697  1  0.658600  0.365900  0.958500  1.0
  N  N698  1  0.658600  0.634100  0.041500  1.0
  N  N699  1  0.658600  0.041500  0.365900  1.0
  N  N700  1  0.658600  0.958500  0.634100  1.0
  N  N701  1  0.658600  0.634100  0.958500  1.0
  N  N702  1  0.658600  0.041500  0.634100  1.0
  N  N703  1  0.658600  0.365900  0.041500  1.0
  N  N704  1  0.658600  0.958500  0.365900  1.0
  N  N705  1  0.341400  0.634100  0.041500  1.0
  N  N706  1  0.341400  0.365900  0.958500  1.0
  N  N707  1  0.341400  0.958500  0.634100  1.0
  N  N708  1  0.341400  0.041500  0.365900  1.0
  N  N709  1  0.341800  0.456000  0.184100  1.0
  N  N710  1  0.341800  0.815900  0.456000  1.0
  N  N711  1  0.341800  0.544000  0.815900  1.0
  N  N712  1  0.341800  0.184100  0.544000  1.0
  N  N713  1  0.658200  0.456000  0.815900  1.0
  N  N714  1  0.658200  0.544000  0.184100  1.0
  N  N715  1  0.658200  0.184100  0.456000  1.0
  N  N716  1  0.658200  0.815900  0.544000  1.0
  N  N717  1  0.658200  0.544000  0.815900  1.0
  N  N718  1  0.658200  0.184100  0.544000  1.0
  N  N719  1  0.658200  0.456000  0.184100  1.0
  N  N720  1  0.658200  0.815900  0.456000  1.0
  N  N721  1  0.341800  0.544000  0.184100  1.0
  N  N722  1  0.341800  0.456000  0.815900  1.0
  N  N723  1  0.341800  0.815900  0.544000  1.0
  N  N724  1  0.341800  0.184100  0.456000  1.0
  O  O725  1  0.097300  0.500000  0.081900  1
  O  O726  1  0.097300  0.918100  0.500000  1
  O  O727  1  0.097300  0.500000  0.918100  1
  O  O728  1  0.097300  0.081900  0.500000  1
  O  O729  1  0.902700  0.500000  0.918100  1
  O  O730  1  0.902700  0.500000  0.081900  1
  O  O731  1  0.902700  0.081900  0.500000  1
  O  O732  1  0.902700  0.918100  0.500000  1
  O  O733  1  0.091600  0.419300  0.072200  1
  O  O734  1  0.091600  0.927800  0.419300  1
  O  O735  1  0.091600  0.580700  0.927800  1
  O  O736  1  0.091600  0.072200  0.580700  1
  O  O737  1  0.908400  0.419300  0.927800  1
  O  O738  1  0.908400  0.580700  0.072200  1
  O  O739  1  0.908400  0.072200  0.419300  1
  O  O740  1  0.908400  0.927800  0.580700  1
  O  O741  1  0.908400  0.580700  0.927800  1
  O  O742  1  0.908400  0.072200  0.580700  1
  O  O743  1  0.908400  0.419300  0.072200  1
  O  O744  1  0.908400  0.927800  0.419300  1
  O  O745  1  0.091600  0.580700  0.072200  1
  O  O746  1  0.091600  0.419300  0.927800  1
  O  O747  1  0.091600  0.927800  0.580700  1
  O  O748  1  0.091600  0.072200  0.419300  1
  O  O749  1  0.000000  0.446400  0.128700  1
  O  O750  1  1.000000  0.871300  0.446400  1
  O  O751  1  0.000000  0.553600  0.871300  1
  O  O752  1  0.000000  0.128700  0.553600  1
  O  O753  1  1.000000  0.446400  0.871300  1
  O  O754  1  0.000000  0.553600  0.128700  1
  O  O755  1  1.000000  0.128700  0.446400  1
  O  O756  1  0.000000  0.871300  0.553600  1
  O  O757  1  0.500000  0.225200  0.143700  1
  O  O758  1  0.500000  0.856300  0.225200  1
  O  O759  1  0.500000  0.774800  0.856300  1
  O  O760  1  0.500000  0.143700  0.774800  1
  O  O761  1  0.500000  0.225200  0.856300  1
  O  O762  1  0.500000  0.774800  0.143700  1
  O  O763  1  0.500000  0.143700  0.225200  1
  O  O764  1  0.500000  0.856300  0.774800  1
  O  O765  1  0.500000  0.228100  0.228100  1
  O  O766  1  0.500000  0.771900  0.228100  1
  O  O767  1  0.500000  0.771900  0.771900  1
  O  O768  1  0.500000  0.228100  0.771900  1
  O  O769  1  0.633700  0.185900  0.185900  1
  O  O770  1  0.633700  0.814100  0.185900  1
  O  O771  1  0.633700  0.814100  0.814100  1
  O  O772  1  0.633700  0.185900  0.814100  1
  O  O773  1  0.366300  0.185900  0.814100  1
  O  O774  1  0.366300  0.814100  0.185900  1
  O  O775  1  0.366300  0.185900  0.185900  1
  O  O776  1  0.366300  0.814100  0.814100  1
  O  O777  1  0.000000  0.500000  0.500000  1
  O  O778  1  0.500000  0.500000  0.500000  1
  O  O779  1  0.335500  0.288600  0.288600  1.0
  O  O780  1  0.335500  0.711400  0.288600  1.0
  O  O781  1  0.335500  0.711400  0.711400  1.0
  O  O782  1  0.335500  0.288600  0.711400  1.0
  O  O783  1  0.664500  0.288600  0.711400  1.0
  O  O784  1  0.664500  0.711400  0.288600  1.0
  O  O785  1  0.664500  0.288600  0.288600  1.0
  O  O786  1  0.664500  0.711400  0.711400  1.0
  O  O787  1  0.320300  0.278500  0.000000  1.0
  O  O788  1  0.320300  0.000000  0.278500  1.0
  O  O789  1  0.320300  0.721500  0.000000  1.0
  O  O790  1  0.320300  0.000000  0.721500  1.0
  O  O791  1  0.679700  0.278500  0.000000  1.0
  O  O792  1  0.679700  0.721500  0.000000  1.0
  O  O793  1  0.679700  0.000000  0.278500  1.0
  O  O794  1  0.679700  0.000000  0.721500  1.0
  O  O795  1  0.159600  0.500000  0.219500  1.0
  O  O796  1  0.159600  0.780500  0.500000  1.0
  O  O797  1  0.159600  0.500000  0.780500  1.0
  O  O798  1  0.159600  0.219500  0.500000  1.0
  O  O799  1  0.840400  0.500000  0.780500  1.0
  O  O800  1  0.840400  0.500000  0.219500  1.0
  O  O801  1  0.840400  0.219500  0.500000  1.0
  O  O802  1  0.840400  0.780500  0.500000  1.0
  O  O803  1  0.298600  0.264100  0.210600  1.0
  O  O804  1  0.298600  0.789400  0.264100  1.0
  O  O805  1  0.298600  0.735900  0.789400  1.0
  O  O806  1  0.298600  0.210600  0.735900  1.0
  O  O807  1  0.701400  0.264100  0.789400  1.0
  O  O808  1  0.701400  0.735900  0.210600  1.0
  O  O809  1  0.701400  0.210600  0.264100  1.0
  O  O810  1  0.701400  0.789400  0.735900  1.0
  O  O811  1  0.701400  0.735900  0.789400  1.0
  O  O812  1  0.701400  0.210600  0.735900  1.0
  O  O813  1  0.701400  0.264100  0.210600  1.0
  O  O814  1  0.701400  0.789400  0.264100  1.0
  O  O815  1  0.298600  0.735900  0.210600  1.0
  O  O816  1  0.298600  0.264100  0.789400  1.0
  O  O817  1  0.298600  0.789400  0.735900  1.0
  O  O818  1  0.298600  0.210600  0.264100  1.0
  O  O819  1  0.310100  0.306800  0.164900  1.0
  O  O820  1  0.310100  0.835100  0.306800  1.0
  O  O821  1  0.310100  0.693200  0.835100  1.0
  O  O822  1  0.310100  0.164900  0.693200  1.0
  O  O823  1  0.689900  0.306800  0.835100  1.0
  O  O824  1  0.689900  0.693200  0.164900  1.0
  O  O825  1  0.689900  0.164900  0.306800  1.0
  O  O826  1  0.689900  0.835100  0.693200  1.0
  O  O827  1  0.689900  0.693200  0.835100  1.0
  O  O828  1  0.689900  0.164900  0.693200  1.0
  O  O829  1  0.689900  0.306800  0.164900  1.0
  O  O830  1  0.689900  0.835100  0.306800  1.0
  O  O831  1  0.310100  0.693200  0.164900  1.0
  O  O832  1  0.310100  0.306800  0.835100  1.0
  O  O833  1  0.310100  0.835100  0.693200  1.0
  O  O834  1  0.310100  0.164900  0.306800  1.0
  O  O835  1  0.163800  0.338600  0.188800  1.0
  O  O836  1  0.163800  0.811200  0.338600  1.0
  O  O837  1  0.163800  0.661400  0.811200  1.0
  O  O838  1  0.163800  0.188800  0.661400  1.0
  O  O839  1  0.836200  0.338600  0.811200  1.0
  O  O840  1  0.836200  0.661400  0.188800  1.0
  O  O841  1  0.836200  0.188800  0.338600  1.0
  O  O842  1  0.836200  0.811200  0.661400  1.0
  O  O843  1  0.836200  0.661400  0.811200  1.0
  O  O844  1  0.836200  0.188800  0.661400  1.0
  O  O845  1  0.836200  0.338600  0.188800  1.0
  O  O846  1  0.836200  0.811200  0.338600  1.0
  O  O847  1  0.163800  0.661400  0.188800  1.0
  O  O848  1  0.163800  0.338600  0.811200  1.0
  O  O849  1  0.163800  0.811200  0.661400  1.0
  O  O850  1  0.163800  0.188800  0.338600  1.0
  O  O851  1  0.335200  0.364500  0.108400  1.0
  O  O852  1  0.335200  0.891600  0.364500  1.0
  O  O853  1  0.335200  0.635500  0.891600  1.0
  O  O854  1  0.335200  0.108400  0.635500  1.0
  O  O855  1  0.664800  0.364500  0.891600  1.0
  O  O856  1  0.664800  0.635500  0.108400  1.0
  O  O857  1  0.664800  0.108400  0.364500  1.0
  O  O858  1  0.664800  0.891600  0.635500  1.0
  O  O859  1  0.664800  0.635500  0.891600  1.0
  O  O860  1  0.664800  0.108400  0.635500  1.0
  O  O861  1  0.664800  0.364500  0.108400  1.0
  O  O862  1  0.664800  0.891600  0.364500  1.0
  O  O863  1  0.335200  0.635500  0.108400  1.0
  O  O864  1  0.335200  0.364500  0.891600  1.0
  O  O865  1  0.335200  0.891600  0.635500  1.0
  O  O866  1  0.335200  0.108400  0.364500  1.0
  O  O867  1  0.183300  0.329600  0.102900  1.0
  O  O868  1  0.183300  0.897100  0.329600  1.0
  O  O869  1  0.183300  0.670400  0.897100  1.0
  O  O870  1  0.183300  0.102900  0.670400  1.0
  O  O871  1  0.816700  0.329600  0.897100  1.0
  O  O872  1  0.816700  0.670400  0.102900  1.0
  O  O873  1  0.816700  0.102900  0.329600  1.0
  O  O874  1  0.816700  0.897100  0.670400  1.0
  O  O875  1  0.816700  0.670400  0.897100  1.0
  O  O876  1  0.816700  0.102900  0.670400  1.0
  O  O877  1  0.816700  0.329600  0.102900  1.0
  O  O878  1  0.816700  0.897100  0.329600  1.0
  O  O879  1  0.183300  0.670400  0.102900  1.0
  O  O880  1  0.183300  0.329600  0.897100  1.0
  O  O881  1  0.183300  0.897100  0.670400  1.0
  O  O882  1  0.183300  0.102900  0.329600  1.0
  O  O883  1  0.193000  0.331500  0.040200  1.0
  O  O884  1  0.193000  0.959800  0.331500  1.0
  O  O885  1  0.193000  0.668500  0.959800  1.0
  O  O886  1  0.193000  0.040200  0.668500  1.0
  O  O887  1  0.807000  0.331500  0.959800  1.0
  O  O888  1  0.807000  0.668500  0.040200  1.0
  O  O889  1  0.807000  0.040200  0.331500  1.0
  O  O890  1  0.807000  0.959800  0.668500  1.0
  O  O891  1  0.807000  0.668500  0.959800  1.0
  O  O892  1  0.807000  0.040200  0.668500  1.0
  O  O893  1  0.807000  0.331500  0.040200  1.0
  O  O894  1  0.807000  0.959800  0.331500  1.0
  O  O895  1  0.193000  0.668500  0.040200  1.0
  O  O896  1  0.193000  0.331500  0.959800  1.0
  O  O897  1  0.193000  0.959800  0.668500  1.0
  O  O898  1  0.193000  0.040200  0.331500  1.0
  O  O899  1  0.321300  0.391470  0.181940  1.0
  O  O900  1  0.321300  0.818060  0.391470  1.0
  O  O901  1  0.321300  0.608530  0.818060  1.0
  O  O902  1  0.321300  0.181940  0.608530  1.0
  O  O903  1  0.678700  0.391470  0.818060  1.0
  O  O904  1  0.678700  0.608530  0.181940  1.0
  O  O905  1  0.678700  0.181940  0.391470  1.0
  O  O906  1  0.678700  0.818060  0.608530  1.0
  O  O907  1  0.678700  0.608530  0.818060  1.0
  O  O908  1  0.678700  0.181940  0.608530  1.0
  O  O909  1  0.678700  0.391470  0.181940  1.0
  O  O910  1  0.678700  0.818060  0.391470  1.0
  O  O911  1  0.321300  0.608530  0.181940  1.0
  O  O912  1  0.321300  0.391470  0.818060  1.0
  O  O913  1  0.321300  0.818060  0.608530  1.0
  O  O914  1  0.321300  0.181940  0.391470  1.0
  O  O915  1  0.199100  0.462900  0.145000  1.0
  O  O916  1  0.199100  0.855000  0.462900  1.0
  O  O917  1  0.199100  0.537100  0.855000  1.0
  O  O918  1  0.199100  0.145000  0.537100  1.0
  O  O919  1  0.800900  0.462900  0.855000  1.0
  O  O920  1  0.800900  0.537100  0.145000  1.0
  O  O921  1  0.800900  0.145000  0.462900  1.0
  O  O922  1  0.800900  0.855000  0.537100  1.0
  O  O923  1  0.800900  0.537100  0.855000  1.0
  O  O924  1  0.800900  0.145000  0.537100  1.0
  O  O925  1  0.800900  0.462900  0.145000  1.0
  O  O926  1  0.800900  0.855000  0.462900  1.0
  O  O927  1  0.199100  0.537100  0.145000  1.0
  O  O928  1  0.199100  0.462900  0.855000  1.0
  O  O929  1  0.199100  0.855000  0.537100  1.0
  O  O930  1  0.199100  0.145000  0.462900  1.0
  O  O931  1  0.186200  0.404000  0.135100  1.0
  O  O932  1  0.186200  0.864900  0.404000  1.0
  O  O933  1  0.186200  0.596000  0.864900  1.0
  O  O934  1  0.186200  0.135100  0.596000  1.0
  O  O935  1  0.813800  0.404000  0.864900  1.0
  O  O936  1  0.813800  0.596000  0.135100  1.0
  O  O937  1  0.813800  0.135100  0.404000  1.0
  O  O938  1  0.813800  0.864900  0.596000  1.0
  O  O939  1  0.813800  0.596000  0.864900  1.0
  O  O940  1  0.813800  0.135100  0.596000  1.0
  O  O941  1  0.813800  0.404000  0.135100  1.0
  O  O942  1  0.813800  0.864900  0.404000  1.0
  O  O943  1  0.186200  0.596000  0.135100  1.0
  O  O944  1  0.186200  0.404000  0.864900  1.0
  O  O945  1  0.186200  0.864900  0.596000  1.0
  O  O946  1  0.186200  0.135100  0.404000  1.0
