
#######################################################################
#
#                 Cambridge Crystallographic Data Centre
#                                CCDC 
#
#######################################################################
#
# If this CIF has been generated from an entry in the Cambridge 
# Structural Database, then it will include bibliographic, chemical, 
# crystal, experimental, refinement or atomic coordinate data resulting 
# from the CCDC's data processing and validation procedures.
#
#######################################################################

data_QUFZIC
_chemical_formula_moiety         
'C26 H28 Cu2 N4 O16 4-,2(C26 H24 Cu2 N4 O14 4-),6(Ni1 2+),9(H2 O1)'
_chemical_name_systematic        
'hexa-nickel bis(\m-2,4-bis([carboxylato(oxidanidyl)methylidene]amino)-1,3,5-trimethylbenzene)-tetra-aqua-di-copper bis(bis(2,4-bis([carboxylato(oxidanidyl)methylidene]amino)-1,3,5-trimethylbenzene)-diaqua-dicopper) nonahydrate'
_symmetry_cell_setting           tetragonal
_symmetry_space_group_name_H-M   'P 4/m m m'
_symmetry_Int_Tables_number      123
_space_group_name_Hall           '-P 4 2'
loop_
_symmetry_equiv_pos_site_id
_symmetry_equiv_pos_as_xyz
1 x,y,z
2 -y,x,z
3 -x,-y,z
4 y,-x,z
5 x,-y,-z
6 -x,y,-z
7 y,x,-z
8 -y,-x,-z
9 -x,-y,-z
10 y,-x,-z
11 x,y,-z
12 -y,x,-z
13 -x,y,z
14 x,-y,z
15 -y,-x,z
16 y,x,z
_cell_length_a                   35.9786(5)
_cell_length_b                   35.9786(5)
_cell_length_c                   15.3819(3)
_cell_angle_alpha                90
_cell_angle_beta                 90
_cell_angle_gamma                90
_cell_volume                     19911.2
_exptl_crystal_colour            green
_exptl_crystal_description       prism
_cell_formula_units_Z            4
_exptl_crystal_preparation       'Magnetic properties'
loop_
_atom_site_label
_atom_site_type_symbol
_atom_site_fract_x
_atom_site_fract_y
_atom_site_fract_z
Cu2 Cu 0.25513(4) 0.25513(4) 0.22556(14)
O5 O 0.2641(2) 0.2106(3) 0.2986(5)
O6 O 0.3068(2) 0.1649(2) 0.3101(5)
C9 C 0.2926(4) 0.1925(4) 0.2735(7)
O7 O 0.3386(2) 0.1888(2) 0.1638(4)
C10 C 0.3108(4) 0.2086(4) 0.1919(7)
N2 N 0.2992(3) 0.2357(3) 0.1580(5)
C11 C 0.2998(3) 0.2360(4) 0.0000
C12 C 0.2707(4) 0.2044(4) 0.0000
C13 C 0.3119(4) 0.2520(3) 0.0779(7)
O8 O 0.2886(2) 0.2886(2) 0.3355(8)
C14 C 0.3527(8) 0.2950(7) 0.1603(9)
H5 H 0.3694 0.3148 0.1450
H6 H 0.3662 0.2758 0.1897
H7 H 0.3336 0.3044 0.1978
C15 C 0.3513(9) 0.2917(8) 0.0000
H8 H 0.3718 0.3075 0.0000
C16 C 0.3357(6) 0.2797(6) 0.0809(10)
O5J O 0.2641(2) 0.2106(3) -0.2986(5)
O6J O 0.3068(2) 0.1649(2) -0.3101(5)
C9J C 0.2926(4) 0.1925(4) -0.2735(7)
O7J O 0.3386(2) 0.1888(2) -0.1638(4)
C10J C 0.3108(4) 0.2086(4) -0.1919(7)
N2J N 0.2992(3) 0.2357(3) -0.1580(5)
C13J C 0.3119(4) 0.2520(3) -0.0779(7)
C14J C 0.3527(8) 0.2950(7) -0.1603(9)
H5J H 0.3694 0.3148 -0.1450
H6J H 0.3662 0.2758 -0.1897
H7J H 0.3336 0.3044 -0.1978
C16J C 0.3357(6) 0.2797(6) -0.0809(10)
Cu2F Cu 0.25513(4) 0.25513(4) -0.22556(14)
O5F O 0.2106(3) 0.2641(2) -0.2986(5)
O6F O 0.1649(2) 0.3068(2) -0.3101(5)
C9F C 0.1925(4) 0.2926(4) -0.2735(7)
O7F O 0.1888(2) 0.3386(2) -0.1638(4)
C10F C 0.2086(4) 0.3108(4) -0.1919(7)
N2F N 0.2357(3) 0.2992(3) -0.1580(5)
C11F C 0.2360(4) 0.2998(3) 0.0000
C12F C 0.2044(4) 0.2707(4) 0.0000
C13F C 0.2520(3) 0.3119(4) -0.0779(7)
O8F O 0.2886(2) 0.2886(2) -0.3355(8)
C14F C 0.2950(7) 0.3527(8) -0.1603(9)
H5F H 0.3148 0.3694 -0.1450
H6F H 0.2758 0.3662 -0.1897
H7F H 0.3044 0.3336 -0.1978
C15F C 0.2917(8) 0.3513(9) 0.0000
H8F H 0.3075 0.3718 0.0000
C16F C 0.2797(6) 0.3357(6) -0.0809(10)
O5O O 0.2106(3) 0.2641(2) 0.2986(5)
O6O O 0.1649(2) 0.3068(2) 0.3101(5)
C9O C 0.1925(4) 0.2926(4) 0.2735(7)
O7O O 0.1888(2) 0.3386(2) 0.1638(4)
C10O C 0.2086(4) 0.3108(4) 0.1919(7)
N2O N 0.2357(3) 0.2992(3) 0.1580(5)
C13O C 0.2520(3) 0.3119(4) 0.0779(7)
C14O C 0.2950(7) 0.3527(8) 0.1603(9)
H5O H 0.3148 0.3694 0.1450
H6O H 0.2758 0.3662 0.1897
H7O H 0.3044 0.3336 0.1978
C16O C 0.2797(6) 0.3357(6) 0.0809(10)
Ni1 Ni 0.35519(7) 0.14795(7) 0.25037(12)
Cu3 Cu 0.35106(10) 0.0000 0.2702(2)
O9 O 0.3645(3) 0.1084(3) 0.3352(6)
O10 O 0.3296(3) 0.1029(3) 0.1833(6)
O11 O 0.3315(3) 0.0402(3) 0.1930(7)
N3 N 0.3659(4) 0.0415(3) 0.3414(7)
C17 C 0.3366(4) 0.0736(5) 0.2186(9)
C18 C 0.4275(3) 0.0453(3) 0.4223(8)
C19 C 0.3886(4) 0.0444(5) 0.4218(9)
C20 C 0.4424(4) 0.0434(5) 0.5000
H9 H 0.4680 0.0400 0.5000
C21 C 0.4476(6) 0.0474(6) 0.3369(12)
H10 H 0.4299 0.0484 0.2904
H11 H 0.4631 0.0259 0.3301
H12 H 0.4628 0.0694 0.3356
C22 C 0.3269(4) 0.0414(6) 0.5000
C23 C 0.3674(6) 0.0447(6) 0.5000
C24 C 0.3588(5) 0.0740(5) 0.3068(9)
O12 O 0.2785(5) 0.0000 0.3203(13)
O9J O 0.3645(3) 0.1084(3) 0.6648(6)
O10J O 0.3296(3) 0.1029(3) 0.8167(6)
O11J O 0.3315(3) 0.0402(3) 0.8070(7)
N3J N 0.3659(4) 0.0415(3) 0.6586(7)
C17J C 0.3366(4) 0.0736(5) 0.7814(9)
C18J C 0.4275(3) 0.0453(3) 0.5777(8)
C19J C 0.3886(4) 0.0444(5) 0.5782(9)
C21J C 0.4476(6) 0.0474(6) 0.6631(12)
H10J H 0.4299 0.0484 0.7096
H11J H 0.4631 0.0259 0.6699
H12J H 0.4628 0.0694 0.6644
C24J C 0.3588(5) 0.0740(5) 0.6932(9)
Cu3D Cu 0.35106(10) 0.0000 0.7298(2)
O9D O 0.3645(3) -0.1084(3) 0.6648(6)
O10D O 0.3296(3) -0.1029(3) 0.8167(6)
O11D O 0.3315(3) -0.0402(3) 0.8070(7)
N3D N 0.3659(4) -0.0415(3) 0.6586(7)
C17D C 0.3366(4) -0.0736(5) 0.7814(9)
C18D C 0.4275(3) -0.0453(3) 0.5777(8)
C19D C 0.3886(4) -0.0444(5) 0.5782(9)
C20D C 0.4424(4) -0.0434(5) 0.5000
H9D H 0.4680 -0.0400 0.5000
C21D C 0.4476(6) -0.0474(6) 0.6631(12)
H10D H 0.4299 -0.0484 0.7096
H11D H 0.4631 -0.0259 0.6699
H12D H 0.4628 -0.0694 0.6644
C22D C 0.3269(4) -0.0414(6) 0.5000
C23D C 0.3674(6) -0.0447(6) 0.5000
C24D C 0.3588(5) -0.0740(5) 0.6932(9)
O12D O 0.2785(5) 0.0000 0.6797(13)
O9M O 0.3645(3) -0.1084(3) 0.3352(6)
O10M O 0.3296(3) -0.1029(3) 0.1833(6)
O11M O 0.3315(3) -0.0402(3) 0.1930(7)
N3M N 0.3659(4) -0.0415(3) 0.3414(7)
C17M C 0.3366(4) -0.0736(5) 0.2186(9)
C18M C 0.4275(3) -0.0453(3) 0.4223(8)
C19M C 0.3886(4) -0.0444(5) 0.4218(9)
C21M C 0.4476(6) -0.0474(6) 0.3369(12)
H10M H 0.4299 -0.0484 0.2904
H11M H 0.4631 -0.0259 0.3301
H12M H 0.4628 -0.0694 0.3356
C24M C 0.3588(5) -0.0740(5) 0.3068(9)
Ni2 Ni 0.4578(2) 0.07464(18) 0.0000
O13 O 0.5000 0.0819(4) 0.0973(9)
O14 O 0.4193(3) 0.0722(3) 0.0916(7)
O15 O 0.4464(5) 0.1287(6) 0.0000
Ni3 Ni 0.18905(9) 0.18905(9) 0.5000
O16 O 0.2252(9) 0.1437(6) 0.5000
O17 O 0.2281(3) 0.2281(3) 0.5000
O18 O 0.1859(5) 0.1859(5) 0.6337(10)
O19 O 0.5000 0.5000 0.0000
O20 O 0.5000 0.5000 0.5000
Cu1 Cu 0.5000 0.17060(5) 0.27356(14)
O1 O 0.39147(19) 0.18194(19) 0.3213(4)
O2 O 0.4629(3) 0.1450(2) 0.1991(5)
N1 N 0.4560(2) 0.1841(2) 0.3418(5)
O3 O 0.4040(2) 0.1351(3) 0.1862(5)
C1 C 0.4320(3) 0.1479(3) 0.2221(7)
C2 C 0.4236(3) 0.1762(3) 0.3022(7)
C3 C 0.4526(3) 0.1854(3) 0.5000
C4 C 0.4516(2) 0.2047(2) 0.4235(5)
C5 C 0.4490(3) 0.2647(3) 0.3397(6)
H1 H 0.4493 0.2908 0.3529
H2 H 0.4265 0.2586 0.3094
H3 H 0.4700 0.2587 0.3038
C6 C 0.4510(3) 0.2433(3) 0.4207(6)
C7 C 0.4555(7) 0.1418(5) 0.5000
C8 C 0.4496(3) 0.2631(3) 0.5000
H4 H 0.4478 0.2889 0.5000
O4 O 0.5000 0.2195(3) 0.1596(8)
O1J O 0.39147(19) 0.18194(19) 0.6787(4)
O2J O 0.4629(3) 0.1450(2) 0.8009(5)
N1J N 0.4560(2) 0.1841(2) 0.6582(5)
O3J O 0.4040(2) 0.1351(3) 0.8138(5)
C1J C 0.4320(3) 0.1479(3) 0.7779(7)
C2J C 0.4236(3) 0.1762(3) 0.6978(7)
C4J C 0.4516(2) 0.2047(2) 0.5765(5)
C5J C 0.4490(3) 0.2647(3) 0.6603(6)
H1J H 0.4493 0.2908 0.6471
H2J H 0.4265 0.2586 0.6906
H3J H 0.4700 0.2587 0.6962
C6J C 0.4510(3) 0.2433(3) 0.5793(6)
Cu1E Cu 0.5000 0.17060(5) 0.72644(14)
O1E O 0.60853(19) 0.18194(19) 0.6787(4)
O2E O 0.5371(3) 0.1450(2) 0.8009(5)
N1E N 0.5440(2) 0.1841(2) 0.6582(5)
O3E O 0.5960(2) 0.1351(3) 0.8138(5)
C1E C 0.5680(3) 0.1479(3) 0.7779(7)
C2E C 0.5764(3) 0.1762(3) 0.6978(7)
C3E C 0.5474(3) 0.1854(3) 0.5000
C4E C 0.5484(2) 0.2047(2) 0.5765(5)
C5E C 0.5510(3) 0.2647(3) 0.6603(6)
H1E H 0.5507 0.2908 0.6471
H2E H 0.5735 0.2586 0.6906
H3E H 0.5300 0.2587 0.6962
C6E C 0.5490(3) 0.2433(3) 0.5793(6)
C7E C 0.5445(7) 0.1418(5) 0.5000
C8E C 0.5504(3) 0.2631(3) 0.5000
H4E H 0.5522 0.2889 0.5000
O4E O 0.5000 0.2195(3) 0.8404(8)
O1L O 0.60853(19) 0.18194(19) 0.3213(4)
O2L O 0.5371(3) 0.1450(2) 0.1991(5)
N1L N 0.5440(2) 0.1841(2) 0.3418(5)
O3L O 0.5960(2) 0.1351(3) 0.1862(5)
C1L C 0.5680(3) 0.1479(3) 0.2221(7)
C2L C 0.5764(3) 0.1762(3) 0.3022(7)
C4L C 0.5484(2) 0.2047(2) 0.4235(5)
C5L C 0.5510(3) 0.2647(3) 0.3397(6)
H1L H 0.5507 0.2908 0.3529
H2L H 0.5735 0.2586 0.3094
H3L H 0.5300 0.2587 0.3038
C6L C 0.5490(3) 0.2433(3) 0.4207(6)
H13? H 0.4559 0.1329 0.4412
H14? H 0.4344 0.1315 0.5297
H15? H 0.4779 0.1344 0.5292
H16? H 0.2666 0.1960 0.0585
H17? H 0.2796 0.1841 -0.0347
H18? H 0.2477 0.2135 -0.0238
H19? H 0.3180 0.0412 0.4412
H20? H 0.3163 0.0622 0.5304
H21? H 0.3198 0.0188 0.5285
loop_
_geom_bond_atom_site_label_1
_geom_bond_atom_site_label_2
_geom_bond_site_symmetry_1
_geom_bond_site_symmetry_2
Cu1 O2 1_555 1_555
O1 C2 1_555 1_555
O2 C1 1_555 1_555
N1 Cu1 1_555 1_555
O3 C1 1_555 1_555
C1 C2 1_555 1_555
C2 N1 1_555 1_555
C3 C4 1_555 1_555
C4 N1 1_555 1_555
C5 H1 1_555 1_555
H2 C5 1_555 1_555
H3 C5 1_555 1_555
C6 C4 1_555 1_555
C7 C3 1_555 1_555
C8 C6 1_555 1_555
H4 C8 1_555 1_555
O4 Cu1 1_555 1_555
Cu2 O5 1_555 1_555
O5 C9 1_555 1_555
O6 C9 1_555 1_555
C9 C10 1_555 1_555
O7 C10 1_555 1_555
C10 N2 1_555 1_555
N2 Cu2 1_555 1_555
C11 C12 1_555 1_555
C13 N2 1_555 1_555
O8 Cu2 1_555 1_555
C14 H5 1_555 1_555
H6 C14 1_555 1_555
H7 C14 1_555 1_555
C15 H8 1_555 1_555
C16 C13 1_555 1_555
Cu3 O11 1_555 1_555
O9 C24 1_555 1_555
O10 C17 1_555 1_555
O11 C17 1_555 1_555
N3 Cu3 1_555 1_555
C17 C24 1_555 1_555
C18 C19 1_555 1_555
C19 N3 1_555 1_555
C20 C18 1_555 1_555
H9 C20 1_555 1_555
C21 C18 1_555 1_555
H10 C21 1_555 1_555
H11 C21 1_555 1_555
H12 C21 1_555 1_555
C22 C23 1_555 1_555
C23 C19 1_555 1_555
C24 N3 1_555 1_555
O12 Cu3 1_555 1_555
O1J C2J 1_555 1_555
O2J C1J 1_555 1_555
N1J C2J 1_555 1_555
O3J C1J 1_555 1_555
C1J C2J 1_555 1_555
C4J C3 1_555 1_555
C5J H1J 1_555 1_555
H2J C5J 1_555 1_555
H3J C5J 1_555 1_555
C6J C8 1_555 1_555
Cu1E O2J 1_555 1_555
O1E C2E 1_555 1_555
O2E Cu1E 1_555 1_555
N1E Cu1E 1_555 1_555
O3E C1E 1_555 1_555
C1E O2E 1_555 1_555
C2E N1E 1_555 1_555
C3E C4E 1_555 1_555
C4E N1E 1_555 1_555
C5E H1E 1_555 1_555
H2E C5E 1_555 1_555
H3E C5E 1_555 1_555
C6E C4E 1_555 1_555
C7E C3E 1_555 1_555
C8E C6E 1_555 1_555
H4E C8E 1_555 1_555
O4E Cu1E 1_555 1_555
O1L C2L 1_555 1_555
O2L Cu1 1_555 1_555
N1L Cu1 1_555 1_555
O3L C1L 1_555 1_555
C1L O2L 1_555 1_555
C2L N1L 1_555 1_555
C4L C3E 1_555 1_555
C5L H1L 1_555 1_555
H2L C5L 1_555 1_555
H3L C5L 1_555 1_555
C6L C8E 1_555 1_555
O5J C9J 1_555 1_555
O6J C9J 1_555 1_555
C9J C10J 1_555 1_555
O7J C10J 1_555 1_555
C10J N2J 1_555 1_555
N2J C13J 1_555 1_555
C13J C11 1_555 1_555
C14J H5J 1_555 1_555
H6J C14J 1_555 1_555
H7J C14J 1_555 1_555
C16J C15 1_555 1_555
Cu2F O5J 1_555 1_555
O5F Cu2F 1_555 1_555
O6F C9F 1_555 1_555
C9F O5F 1_555 1_555
O7F C10F 1_555 1_555
C10F C9F 1_555 1_555
N2F Cu2F 1_555 1_555
C11F C12F 1_555 1_555
C13F N2F 1_555 1_555
O8F Cu2F 1_555 1_555
C14F H5F 1_555 1_555
H6F C14F 1_555 1_555
H7F C14F 1_555 1_555
C15F H8F 1_555 1_555
C16F C13F 1_555 1_555
O5O Cu2 1_555 1_555
O6O C9O 1_555 1_555
C9O O5O 1_555 1_555
O7O C10O 1_555 1_555
C10O C9O 1_555 1_555
N2O Cu2 1_555 1_555
C13O C11F 1_555 1_555
C14O H5O 1_555 1_555
H6O C14O 1_555 1_555
H7O C14O 1_555 1_555
C16O C15F 1_555 1_555
O9J C24J 1_555 1_555
O10J C17J 1_555 1_555
O11J C17J 1_555 1_555
N3J C19J 1_555 1_555
C17J C24J 1_555 1_555
C18J C20 1_555 1_555
C19J C23 1_555 1_555
C21J C18J 1_555 1_555
H10J C21J 1_555 1_555
H11J C21J 1_555 1_555
H12J C21J 1_555 1_555
C24J N3J 1_555 1_555
Cu3D O11J 1_555 1_555
O9D C24D 1_555 1_555
O10D C17D 1_555 1_555
O11D Cu3D 1_555 1_555
N3D Cu3D 1_555 1_555
C17D O11D 1_555 1_555
C18D C19D 1_555 1_555
C19D N3D 1_555 1_555
C20D C18D 1_555 1_555
H9D C20D 1_555 1_555
C21D C18D 1_555 1_555
H10D C21D 1_555 1_555
H11D C21D 1_555 1_555
H12D C21D 1_555 1_555
C22D C23D 1_555 1_555
C23D C19D 1_555 1_555
C24D N3D 1_555 1_555
O12D Cu3D 1_555 1_555
O9M C24M 1_555 1_555
O10M C17M 1_555 1_555
O11M Cu3 1_555 1_555
N3M Cu3 1_555 1_555
C17M O11M 1_555 1_555
C18M C20D 1_555 1_555
C19M C23D 1_555 1_555
C21M C18M 1_555 1_555
H10M C21M 1_555 1_555
H11M C21M 1_555 1_555
H12M C21M 1_555 1_555
C24M N3M 1_555 1_555
C5 C6 1_555 1_555
C11 C13 1_555 1_555
C14 C16 1_555 1_555
C15 C16 1_555 1_555
N1J C4J 1_555 1_555
N1J Cu1E 1_555 1_555
C4J C6J 1_555 1_555
C5J C6J 1_555 1_555
C1E C2E 1_555 1_555
C5E C6E 1_555 1_555
N1L C4L 1_555 1_555
C1L C2L 1_555 1_555
C4L C6L 1_555 1_555
C5L C6L 1_555 1_555
N2J Cu2F 1_555 1_555
C13J C16J 1_555 1_555
C14J C16J 1_555 1_555
C10F N2F 1_555 1_555
C11F C13F 1_555 1_555
C14F C16F 1_555 1_555
C15F C16F 1_555 1_555
C10O N2O 1_555 1_555
N2O C13O 1_555 1_555
C13O C16O 1_555 1_555
C14O C16O 1_555 1_555
N3J Cu3D 1_555 1_555
C18J C19J 1_555 1_555
C17D C24D 1_555 1_555
N3M C19M 1_555 1_555
C17M C24M 1_555 1_555
C18M C19M 1_555 1_555

#END
