
#######################################################################
#
#                 Cambridge Crystallographic Data Centre
#                                CCDC 
#
#######################################################################
#
# If this CIF has been generated from an entry in the Cambridge 
# Structural Database, then it will include bibliographic, chemical, 
# crystal, experimental, refinement or atomic coordinate data resulting 
# from the CCDC's data processing and validation procedures.
#
#######################################################################

data_QUFZEY
_chemical_formula_moiety         
'C26 H28 Cu2 N4 O16 4-,2(C26 H24 Cu2 N4 O14 4-),6(Mg1 2+),6(H2 O1)'
_chemical_name_systematic        
'hexa-magnesium bis(\m-2,4-bis([carboxylato(oxidanidyl)methylidene]amino)-1,3,5-trimethylbenzene)-tetra-aqua-di-copper bis(bis(2,4-bis([carboxylato(oxidanidyl)methylidene]amino)-1,3,5-trimethylbenzene)-diaqua-dicopper) hexahydrate'
_symmetry_cell_setting           tetragonal
_symmetry_space_group_name_H-M   'P 4/m m m'
_symmetry_Int_Tables_number      123
_space_group_name_Hall           '-P 4 2'
loop_
_symmetry_equiv_pos_site_id
_symmetry_equiv_pos_as_xyz
1 x,y,z
2 -y,x,z
3 -x,-y,z
4 y,-x,z
5 x,-y,-z
6 -x,y,-z
7 y,x,-z
8 -y,-x,-z
9 -x,-y,-z
10 y,-x,-z
11 x,y,-z
12 -y,x,-z
13 -x,y,z
14 x,-y,z
15 -y,-x,z
16 y,x,z
_cell_length_a                   36.1153(13)
_cell_length_b                   36.1153(13)
_cell_length_c                   15.5349(7)
_cell_angle_alpha                90
_cell_angle_beta                 90
_cell_angle_gamma                90
_cell_volume                     20262.4
_exptl_crystal_colour            green
_exptl_crystal_description       prism
_cell_formula_units_Z            4
_exptl_crystal_preparation       'Magnetic properties'
loop_
_atom_site_label
_atom_site_type_symbol
_atom_site_fract_x
_atom_site_fract_y
_atom_site_fract_z
O1 O 0.6084(2) 0.1798(3) 0.1791(4)
O2 O 0.5360(3) 0.1403(2) 0.2957(4)
O3 O 0.5991(2) 0.1363(2) 0.3108(4)
C1 C 0.54677(17) 0.2001(2) 0.0794(6)
C2 C 0.5433(4) 0.1354(4) 0.0000
C3 C 0.5511(3) 0.2583(4) 0.0000
C4 C 0.5501(3) 0.2621(3) 0.1625(5)
H1 H 0.5487 0.2456 0.2109
H2 H 0.5293 0.2788 0.1636
H3 H 0.5727 0.2761 0.1654
C5 C 0.54929(15) 0.2397(2) 0.0793(6)
C6 C 0.5460(2) 0.1782(8) 0.0000
N1 N 0.5441(2) 0.1813(2) 0.1553(4)
C7 C 0.5674(4) 0.1503(6) 0.2713(7)
C8 C 0.5749(5) 0.1737(3) 0.1963(7)
O4 O 0.5000 0.2119(3) 0.3313(8)
Cu1 Cu 0.5000 0.16596(5) 0.22087(11)
O1J O 0.6084(2) 0.1798(3) -0.1791(4)
O2J O 0.5360(3) 0.1403(2) -0.2957(4)
O3J O 0.5991(2) 0.1363(2) -0.3108(4)
C1J C 0.54677(17) 0.2001(2) -0.0794(6)
C4J C 0.5501(3) 0.2621(3) -0.1625(5)
H1J H 0.5487 0.2456 -0.2109
H2J H 0.5293 0.2788 -0.1636
H3J H 0.5727 0.2761 -0.1654
C5J C 0.54929(15) 0.2397(2) -0.0793(6)
N1J N 0.5441(2) 0.1813(2) -0.1553(4)
C7J C 0.5674(4) 0.1503(6) -0.2713(7)
C8J C 0.5749(5) 0.1737(3) -0.1963(7)
O1E O 0.3916(2) 0.1798(3) -0.1791(4)
O2E O 0.4640(3) 0.1403(2) -0.2957(4)
O3E O 0.4009(2) 0.1363(2) -0.3108(4)
C1E C 0.45323(17) 0.2001(2) -0.0794(6)
C2E C 0.4567(4) 0.1354(4) 0.0000
C3E C 0.4489(3) 0.2583(4) 0.0000
C4E C 0.4499(3) 0.2621(3) -0.1625(5)
H1E H 0.4513 0.2456 -0.2109
H2E H 0.4707 0.2788 -0.1636
H3E H 0.4273 0.2761 -0.1654
C5E C 0.45071(15) 0.2397(2) -0.0793(6)
C6E C 0.4540(2) 0.1782(8) 0.0000
N1E N 0.4559(2) 0.1813(2) -0.1553(4)
C7E C 0.4326(4) 0.1503(6) -0.2713(7)
C8E C 0.4251(5) 0.1737(3) -0.1963(7)
O4E O 0.5000 0.2119(3) -0.3313(8)
Cu1E Cu 0.5000 0.16596(5) -0.22087(11)
O1L O 0.3916(2) 0.1798(3) 0.1791(4)
O2L O 0.4640(3) 0.1403(2) 0.2957(4)
O3L O 0.4009(2) 0.1363(2) 0.3108(4)
C1L C 0.45323(17) 0.2001(2) 0.0794(6)
C4L C 0.4499(3) 0.2621(3) 0.1625(5)
H1L H 0.4513 0.2456 0.2109
H2L H 0.4707 0.2788 0.1636
H3L H 0.4273 0.2761 0.1654
C5L C 0.45071(15) 0.2397(2) 0.0793(6)
N1L N 0.4559(2) 0.1813(2) 0.1553(4)
C7L C 0.4326(4) 0.1503(6) 0.2713(7)
C8L C 0.4251(5) 0.1737(3) 0.1963(7)
O5 O 0.6709(3) 0.0406(3) 0.3028(5)
O6 O 0.6716(2) 0.1009(3) 0.3132(5)
C9 C 0.5602(4) 0.0470(4) 0.0000
O7 O 0.6363(3) 0.1067(3) 0.1624(5)
C10 C 0.6587(8) 0.0697(4) 0.2793(8)
N2 N 0.6362(3) 0.0434(3) 0.1557(5)
C11 C 0.6141(3) 0.0465(2) 0.0777(5)
C12 C 0.5525(4) 0.0513(3) 0.1643(8)
H4 H 0.5690 0.0522 0.2128
H5 H 0.5366 0.0301 0.1694
H6 H 0.5379 0.0734 0.1627
C13 C 0.5770(3) 0.04803(18) 0.0748(6)
C14 C 0.6477(4) 0.0737(5) 0.1915(7)
C15 C 0.6744(4) 0.0419(5) 0.0000
C16 C 0.6343(4) 0.0437(3) 0.0000
O8 O 0.6009(4) 0.0000 0.3468(8)
O9 O 0.7243(4) 0.0000 0.1846(10)
Cu2 Cu 0.65105(8) 0.0000 0.22697(14)
O5J O 0.6709(3) 0.0406(3) -0.3028(5)
O6J O 0.6716(2) 0.1009(3) -0.3132(5)
O7J O 0.6363(3) 0.1067(3) -0.1624(5)
C10J C 0.6587(8) 0.0697(4) -0.2793(8)
N2J N 0.6362(3) 0.0434(3) -0.1557(5)
C11J C 0.6141(3) 0.0465(2) -0.0777(5)
C12J C 0.5525(4) 0.0513(3) -0.1643(8)
H4J H 0.5690 0.0522 -0.2128
H5J H 0.5366 0.0301 -0.1694
H6J H 0.5379 0.0734 -0.1627
C13J C 0.5770(3) 0.04803(18) -0.0748(6)
C14J C 0.6477(4) 0.0737(5) -0.1915(7)
O5D O 0.6709(3) -0.0406(3) -0.3028(5)
O6D O 0.6716(2) -0.1009(3) -0.3132(5)
C9D C 0.5602(4) -0.0470(4) 0.0000
O7D O 0.6363(3) -0.1067(3) -0.1624(5)
C10D C 0.6587(8) -0.0697(4) -0.2793(8)
N2D N 0.6362(3) -0.0434(3) -0.1557(5)
C11D C 0.6141(3) -0.0465(2) -0.0777(5)
C12D C 0.5525(4) -0.0513(3) -0.1643(8)
H4D H 0.5690 -0.0522 -0.2128
H5D H 0.5366 -0.0301 -0.1694
H6D H 0.5379 -0.0734 -0.1627
C13D C 0.5770(3) -0.04803(18) -0.0748(6)
C14D C 0.6477(4) -0.0737(5) -0.1915(7)
C15D C 0.6744(4) -0.0419(5) 0.0000
C16D C 0.6343(4) -0.0437(3) 0.0000
O8D O 0.6009(4) 0.0000 -0.3468(8)
O9D O 0.7243(4) 0.0000 -0.1846(10)
Cu2D Cu 0.65105(8) 0.0000 -0.22697(14)
O5M O 0.6709(3) -0.0406(3) 0.3028(5)
O6M O 0.6716(2) -0.1009(3) 0.3132(5)
O7M O 0.6363(3) -0.1067(3) 0.1624(5)
C10M C 0.6587(8) -0.0697(4) 0.2793(8)
N2M N 0.6362(3) -0.0434(3) 0.1557(5)
C11M C 0.6141(3) -0.0465(2) 0.0777(5)
C12M C 0.5525(4) -0.0513(3) 0.1643(8)
H4M H 0.5690 -0.0522 0.2128
H5M H 0.5366 -0.0301 0.1694
H6M H 0.5379 -0.0734 0.1627
C13M C 0.5770(3) -0.04803(18) 0.0748(6)
C14M C 0.6477(4) -0.0737(5) 0.1915(7)
Cu3 Cu 0.74324(4) 0.25676(4) 0.27359(11)
N3 N 0.7017(3) 0.2364(3) 0.3423(5)
C17 C 0.6994(4) 0.2328(4) 0.5000
O10 O 0.6639(3) 0.1889(3) 0.3338(4)
C18 C 0.6864(3) 0.2488(3) 0.4228(6)
C19 C 0.7299(4) 0.2080(4) 0.5000
C20 C 0.6915(4) 0.2081(5) 0.3051(7)
C21 C 0.6569(3) 0.2730(4) 0.4213(5)
C22 C 0.6436(3) 0.2897(4) 0.3377(6)
H7 H 0.6231 0.3058 0.3488
H8 H 0.6360 0.2702 0.2994
H9 H 0.6634 0.3035 0.3117
C23 C 0.6397(6) 0.2812(7) 0.5000
O11 O 0.6916(2) 0.1669(3) 0.1891(4)
C24 C 0.7063(6) 0.1944(6) 0.2277(8)
O12 O 0.7331(2) 0.2144(3) 0.1965(5)
O13 O 0.7080(3) 0.2920(3) 0.1586(6)
N3J N 0.7017(3) 0.2364(3) 0.6577(5)
O10J O 0.6639(3) 0.1889(3) 0.6662(4)
C18J C 0.6864(3) 0.2488(3) 0.5772(6)
C20J C 0.6915(4) 0.2081(5) 0.6949(7)
C21J C 0.6569(3) 0.2730(4) 0.5787(5)
C22J C 0.6436(3) 0.2897(4) 0.6623(6)
H7J H 0.6231 0.3058 0.6512
H8J H 0.6360 0.2702 0.7006
H9J H 0.6634 0.3035 0.6883
O11J O 0.6916(2) 0.1669(3) 0.8109(4)
C24J C 0.7063(6) 0.1944(6) 0.7723(8)
O12J O 0.7331(2) 0.2144(3) 0.8035(5)
Cu3G Cu 0.74324(4) 0.25676(4) 0.72641(11)
N3G N 0.7636(3) 0.2983(3) 0.6577(5)
C17G C 0.7672(4) 0.3006(4) 0.5000
O10G O 0.8111(3) 0.3361(3) 0.6662(4)
C18G C 0.7512(3) 0.3136(3) 0.5772(6)
C19G C 0.7920(4) 0.2701(4) 0.5000
C20G C 0.7919(5) 0.3085(4) 0.6949(7)
C21G C 0.7270(4) 0.3431(3) 0.5787(5)
C22G C 0.7103(4) 0.3564(3) 0.6623(6)
H7G H 0.6942 0.3769 0.6512
H8G H 0.7298 0.3640 0.7006
H9G H 0.6965 0.3366 0.6883
C23G C 0.7188(7) 0.3603(6) 0.5000
O11G O 0.8331(3) 0.3084(2) 0.8109(4)
C24G C 0.8056(6) 0.2937(6) 0.7723(8)
O12G O 0.7856(3) 0.2669(2) 0.8035(5)
O13G O 0.7080(3) 0.2920(3) 0.8414(6)
N3N N 0.7636(3) 0.2983(3) 0.3423(5)
O10N O 0.8111(3) 0.3361(3) 0.3338(4)
C18N C 0.7512(3) 0.3136(3) 0.4228(6)
C20N C 0.7919(5) 0.3085(4) 0.3051(7)
C21N C 0.7270(4) 0.3431(3) 0.4213(5)
C22N C 0.7103(4) 0.3564(3) 0.3377(6)
H7N H 0.6942 0.3769 0.3488
H8N H 0.7298 0.3640 0.2994
H9N H 0.6965 0.3366 0.3117
O11N O 0.8331(3) 0.3084(2) 0.1891(4)
C24N C 0.8056(6) 0.2937(6) 0.2277(8)
O12N O 0.7856(3) 0.2669(2) 0.1965(5)
Mg1 Mg 0.64562(12) 0.14783(13) 0.2492(2)
O14 O 0.7164(7) 0.2210(17) 0.0000
O15 O 0.8129(3) 0.1871(3) 0.1284(10)
Mg2 Mg 0.7700(3) 0.2300(3) 0.0677(8)
O16 O 0.6391(4) 0.2433(6) 0.1032(12)
Mg3 Mg 0.6509(5) 0.2066(10) 0.0000
O17 O 0.6558(5) 0.1382(7) 0.0000
O18 O 0.7994(3) 0.2006(3) 0.3135(7)
O19 O 0.7438(4) 0.0000 0.5000
H10? H 0.7345 0.1996 0.4423
H11? H 0.7244 0.1871 0.5361
H12? H 0.7515 0.2205 0.5216
H13? H 0.6832 0.0400 0.0582
H14? H 0.6842 0.0639 -0.0261
H15? H 0.6823 0.0206 -0.0321
H16? H 0.5432 0.1265 -0.0583
H17? H 0.5208 0.1279 0.0282
H18? H 0.5642 0.1252 0.0300
loop_
_geom_bond_atom_site_label_1
_geom_bond_atom_site_label_2
_geom_bond_site_symmetry_1
_geom_bond_site_symmetry_2
O1 C8 1_555 1_555
O2 C7 1_555 1_555
O3 C7 1_555 1_555
C1 C5 1_555 1_555
C2 C6 1_555 1_555
C3 C5 1_555 1_555
C4 H1 1_555 1_555
H2 C4 1_555 1_555
H3 C4 1_555 1_555
C5 C4 1_555 1_555
C6 C1 1_555 1_555
N1 C1 1_555 1_555
C7 C8 1_555 1_555
C8 N1 1_555 1_555
O4 Cu1 1_555 1_555
Cu1 O2 1_555 1_555
O5 C10 1_555 1_555
O6 C10 1_555 1_555
C9 C13 1_555 1_555
O7 C14 1_555 1_555
C10 C14 1_555 1_555
N2 C11 1_555 1_555
C11 C13 1_555 1_555
C12 H4 1_555 1_555
H5 C12 1_555 1_555
H6 C12 1_555 1_555
C13 C12 1_555 1_555
C14 N2 1_555 1_555
C15 C16 1_555 1_555
C16 C11 1_555 1_555
O8 Cu2 1_555 1_555
O9 Cu2 1_555 1_555
Cu2 O5 1_555 1_555
Cu3 N3 1_555 1_555
N3 C18 1_555 1_555
C17 C18 1_555 1_555
O10 C20 1_555 1_555
C18 C21 1_555 1_555
C19 C17 1_555 1_555
C20 N3 1_555 1_555
C21 C22 1_555 1_555
C22 H7 1_555 1_555
H8 C22 1_555 1_555
H9 C22 1_555 1_555
C23 C21 1_555 1_555
O11 C24 1_555 1_555
C24 C20 1_555 1_555
O12 Cu3 1_555 1_555
O13 Cu3 1_555 1_555
O1J C8J 1_555 1_555
O2J C7J 1_555 1_555
O3J C7J 1_555 1_555
C1J C6 1_555 1_555
C4J H1J 1_555 1_555
H2J C4J 1_555 1_555
H3J C4J 1_555 1_555
C5J C3 1_555 1_555
N1J C1J 1_555 1_555
C7J C8J 1_555 1_555
C8J N1J 1_555 1_555
O1E C8E 1_555 1_555
O2E C7E 1_555 1_555
O3E C7E 1_555 1_555
C1E C5E 1_555 1_555
C2E C6E 1_555 1_555
C3E C5E 1_555 1_555
C4E H1E 1_555 1_555
H2E C4E 1_555 1_555
H3E C4E 1_555 1_555
C5E C4E 1_555 1_555
C6E C1E 1_555 1_555
N1E C1E 1_555 1_555
C7E C8E 1_555 1_555
C8E N1E 1_555 1_555
O4E Cu1E 1_555 1_555
Cu1E O2J 1_555 1_555
O1L C8L 1_555 1_555
O2L Cu1 1_555 1_555
O3L C7L 1_555 1_555
C1L C6E 1_555 1_555
C4L H1L 1_555 1_555
H2L C4L 1_555 1_555
H3L C4L 1_555 1_555
C5L C3E 1_555 1_555
N1L Cu1 1_555 1_555
C7L O2L 1_555 1_555
C8L N1L 1_555 1_555
O5J C10J 1_555 1_555
O6J C10J 1_555 1_555
O7J C14J 1_555 1_555
C10J C14J 1_555 1_555
N2J C11J 1_555 1_555
C11J C16 1_555 1_555
C12J H4J 1_555 1_555
H5J C12J 1_555 1_555
H6J C12J 1_555 1_555
C13J C9 1_555 1_555
C14J N2J 1_555 1_555
O5D C10D 1_555 1_555
O6D C10D 1_555 1_555
C9D C13D 1_555 1_555
O7D C14D 1_555 1_555
C10D C14D 1_555 1_555
N2D C11D 1_555 1_555
C11D C13D 1_555 1_555
C12D H4D 1_555 1_555
H5D C12D 1_555 1_555
H6D C12D 1_555 1_555
C13D C12D 1_555 1_555
C14D N2D 1_555 1_555
C15D C16D 1_555 1_555
C16D C11D 1_555 1_555
O8D Cu2D 1_555 1_555
O9D Cu2D 1_555 1_555
Cu2D O5J 1_555 1_555
O5M Cu2 1_555 1_555
O6M C10M 1_555 1_555
O7M C14M 1_555 1_555
C10M O5M 1_555 1_555
N2M Cu2 1_555 1_555
C11M C16D 1_555 1_555
C12M H4M 1_555 1_555
H5M C12M 1_555 1_555
H6M C12M 1_555 1_555
C13M C9D 1_555 1_555
C14M C10M 1_555 1_555
N3J C18J 1_555 1_555
O10J C20J 1_555 1_555
C18J C17 1_555 1_555
C20J N3J 1_555 1_555
C21J C23 1_555 1_555
C22J C21J 1_555 1_555
H7J C22J 1_555 1_555
H8J C22J 1_555 1_555
H9J C22J 1_555 1_555
O11J C24J 1_555 1_555
C24J C20J 1_555 1_555
O12J C24J 1_555 1_555
Cu3G N3J 1_555 1_555
N3G Cu3G 1_555 1_555
C17G C18G 1_555 1_555
O10G C20G 1_555 1_555
C18G N3G 1_555 1_555
C19G C17G 1_555 1_555
C20G N3G 1_555 1_555
C21G C18G 1_555 1_555
C22G C21G 1_555 1_555
H7G C22G 1_555 1_555
H8G C22G 1_555 1_555
H9G C22G 1_555 1_555
C23G C21G 1_555 1_555
O11G C24G 1_555 1_555
C24G C20G 1_555 1_555
O12G Cu3G 1_555 1_555
O13G Cu3G 1_555 1_555
N3N Cu3 1_555 1_555
O10N C20N 1_555 1_555
C18N C17G 1_555 1_555
C20N N3N 1_555 1_555
C21N C23G 1_555 1_555
C22N C21N 1_555 1_555
H7N C22N 1_555 1_555
H8N C22N 1_555 1_555
H9N C22N 1_555 1_555
O11N C24N 1_555 1_555
C24N C20N 1_555 1_555
O12N Cu3 1_555 1_555
N1 Cu1 1_555 1_555
N2 Cu2 1_555 1_555
C24 O12 1_555 1_555
C1J C5J 1_555 1_555
C4J C5J 1_555 1_555
N1J Cu1E 1_555 1_555
O2E Cu1E 1_555 1_555
N1E Cu1E 1_555 1_555
C1L C5L 1_555 1_555
C1L N1L 1_555 1_555
C4L C5L 1_555 1_555
C7L C8L 1_555 1_555
N2J Cu2D 1_555 1_555
C11J C13J 1_555 1_555
C12J C13J 1_555 1_555
O5D Cu2D 1_555 1_555
N2D Cu2D 1_555 1_555
N2M C11M 1_555 1_555
N2M C14M 1_555 1_555
C11M C13M 1_555 1_555
C12M C13M 1_555 1_555
C18J C21J 1_555 1_555
O12J Cu3G 1_555 1_555
C24G O12G 1_555 1_555
N3N C18N 1_555 1_555
C18N C21N 1_555 1_555
C24N O12N 1_555 1_555

#END
