# generated using pymatgen
data_Mg8Cu6H72C78(N4O19)3
_symmetry_space_group_name_H-M   'P 1'
_cell_length_a   15.53490000
_cell_length_b   36.11530000
_cell_length_c   36.11530000
_cell_angle_alpha   90.00000000
_cell_angle_beta   90.00000000
_cell_angle_gamma   90.00000000
_symmetry_Int_Tables_number   1
_chemical_formula_structural   Mg8Cu6H72C78(N4O19)3
_chemical_formula_sum   'Mg32 Cu24 H288 C312 N48 O228'
_cell_volume   20262.40144820
_cell_formula_units_Z   4
loop_
 _symmetry_equiv_pos_site_id
 _symmetry_equiv_pos_as_xyz
  1  'x, y, z'
loop_
 _atom_site_type_symbol
 _atom_site_label
 _atom_site_symmetry_multiplicity
 _atom_site_fract_x
 _atom_site_fract_y
 _atom_site_fract_z
 _atom_site_occupancy
  Mg  Mg1  1  0.249200  0.645620  0.147830  1
  Mg  Mg2  1  0.249200  0.852170  0.645620  1
  Mg  Mg3  1  0.249200  0.354380  0.852170  1
  Mg  Mg4  1  0.249200  0.147830  0.354380  1
  Mg  Mg5  1  0.750800  0.645620  0.852170  1
  Mg  Mg6  1  0.750800  0.354380  0.147830  1
  Mg  Mg7  1  0.750800  0.147830  0.645620  1
  Mg  Mg8  1  0.750800  0.852170  0.354380  1
  Mg  Mg9  1  0.750800  0.354380  0.852170  1
  Mg  Mg10  1  0.750800  0.147830  0.354380  1
  Mg  Mg11  1  0.750800  0.645620  0.147830  1
  Mg  Mg12  1  0.750800  0.852170  0.645620  1
  Mg  Mg13  1  0.249200  0.354380  0.147830  1
  Mg  Mg14  1  0.249200  0.645620  0.852170  1
  Mg  Mg15  1  0.249200  0.852170  0.354380  1
  Mg  Mg16  1  0.249200  0.147830  0.645620  1
  Mg  Mg17  1  0.067700  0.770000  0.230000  1
  Mg  Mg18  1  0.067700  0.770000  0.770000  1
  Mg  Mg19  1  0.067700  0.230000  0.770000  1
  Mg  Mg20  1  0.067700  0.230000  0.230000  1
  Mg  Mg21  1  0.932300  0.770000  0.770000  1
  Mg  Mg22  1  0.932300  0.230000  0.230000  1
  Mg  Mg23  1  0.932300  0.230000  0.770000  1
  Mg  Mg24  1  0.932300  0.770000  0.230000  1
  Mg  Mg25  1  0.000000  0.650900  0.206600  1
  Mg  Mg26  1  1.000000  0.793400  0.650900  1
  Mg  Mg27  1  0.000000  0.349100  0.793400  1
  Mg  Mg28  1  0.000000  0.206600  0.349100  1
  Mg  Mg29  1  0.000000  0.650900  0.793400  1
  Mg  Mg30  1  0.000000  0.349100  0.206600  1
  Mg  Mg31  1  0.000000  0.206600  0.650900  1
  Mg  Mg32  1  0.000000  0.793400  0.349100  1
  Cu  Cu33  1  0.220870  0.500000  0.165960  1.0
  Cu  Cu34  1  0.220870  0.834040  0.500000  1.0
  Cu  Cu35  1  0.220870  0.500000  0.834040  1.0
  Cu  Cu36  1  0.220870  0.165960  0.500000  1.0
  Cu  Cu37  1  0.779130  0.500000  0.834040  1.0
  Cu  Cu38  1  0.779130  0.500000  0.165960  1.0
  Cu  Cu39  1  0.779130  0.165960  0.500000  1.0
  Cu  Cu40  1  0.779130  0.834040  0.500000  1.0
  Cu  Cu41  1  0.226970  0.651050  0.000000  1.0
  Cu  Cu42  1  0.226970  1.000000  0.651050  1.0
  Cu  Cu43  1  0.226970  0.348950  0.000000  1.0
  Cu  Cu44  1  0.226970  0.000000  0.348950  1.0
  Cu  Cu45  1  0.773030  0.651050  0.000000  1.0
  Cu  Cu46  1  0.773030  0.348950  0.000000  1.0
  Cu  Cu47  1  0.773030  1.000000  0.651050  1.0
  Cu  Cu48  1  0.773030  0.000000  0.348950  1.0
  Cu  Cu49  1  0.273590  0.743240  0.256760  1.0
  Cu  Cu50  1  0.273590  0.743240  0.743240  1.0
  Cu  Cu51  1  0.273590  0.256760  0.743240  1.0
  Cu  Cu52  1  0.273590  0.256760  0.256760  1.0
  Cu  Cu53  1  0.726410  0.743240  0.743240  1.0
  Cu  Cu54  1  0.726410  0.256760  0.256760  1.0
  Cu  Cu55  1  0.726410  0.256760  0.743240  1.0
  Cu  Cu56  1  0.726410  0.743240  0.256760  1.0
  H  H57  1  0.442300  0.734500  0.199600  1
  H  H58  1  0.442300  0.800400  0.734500  1
  H  H59  1  0.442300  0.265500  0.800400  1
  H  H60  1  0.442300  0.199600  0.265500  1
  H  H61  1  0.557700  0.734500  0.800400  1
  H  H62  1  0.557700  0.265500  0.199600  1
  H  H63  1  0.557700  0.199600  0.734500  1
  H  H64  1  0.557700  0.800400  0.265500  1
  H  H65  1  0.557700  0.265500  0.800400  1
  H  H66  1  0.557700  0.199600  0.265500  1
  H  H67  1  0.557700  0.734500  0.199600  1
  H  H68  1  0.557700  0.800400  0.734500  1
  H  H69  1  0.442300  0.265500  0.199600  1
  H  H70  1  0.442300  0.734500  0.800400  1
  H  H71  1  0.442300  0.800400  0.265500  1
  H  H72  1  0.442300  0.199600  0.734500  1
  H  H73  1  0.536100  0.724400  0.187100  1
  H  H74  1  0.536100  0.812900  0.724400  1
  H  H75  1  0.536100  0.275600  0.812900  1
  H  H76  1  0.536100  0.187100  0.275600  1
  H  H77  1  0.463900  0.724400  0.812900  1
  H  H78  1  0.463900  0.275600  0.187100  1
  H  H79  1  0.463900  0.187100  0.724400  1
  H  H80  1  0.463900  0.812900  0.275600  1
  H  H81  1  0.463900  0.275600  0.812900  1
  H  H82  1  0.463900  0.187100  0.275600  1
  H  H83  1  0.463900  0.724400  0.187100  1
  H  H84  1  0.463900  0.812900  0.724400  1
  H  H85  1  0.536100  0.275600  0.187100  1
  H  H86  1  0.536100  0.724400  0.812900  1
  H  H87  1  0.536100  0.812900  0.275600  1
  H  H88  1  0.536100  0.187100  0.724400  1
  H  H89  1  0.521600  0.751500  0.220500  1
  H  H90  1  0.521600  0.779500  0.751500  1
  H  H91  1  0.521600  0.248500  0.779500  1
  H  H92  1  0.521600  0.220500  0.248500  1
  H  H93  1  0.478400  0.751500  0.779500  1
  H  H94  1  0.478400  0.248500  0.220500  1
  H  H95  1  0.478400  0.220500  0.751500  1
  H  H96  1  0.478400  0.779500  0.248500  1
  H  H97  1  0.478400  0.248500  0.779500  1
  H  H98  1  0.478400  0.220500  0.248500  1
  H  H99  1  0.478400  0.751500  0.220500  1
  H  H100  1  0.478400  0.779500  0.751500  1
  H  H101  1  0.521600  0.248500  0.220500  1
  H  H102  1  0.521600  0.751500  0.779500  1
  H  H103  1  0.521600  0.779500  0.248500  1
  H  H104  1  0.521600  0.220500  0.751500  1
  H  H105  1  0.058200  0.683200  0.040000  1
  H  H106  1  0.058200  0.960000  0.683200  1
  H  H107  1  0.058200  0.316800  0.960000  1
  H  H108  1  0.058200  0.040000  0.316800  1
  H  H109  1  0.941800  0.683200  0.960000  1
  H  H110  1  0.941800  0.316800  0.040000  1
  H  H111  1  0.941800  0.040000  0.683200  1
  H  H112  1  0.941800  0.960000  0.316800  1
  H  H113  1  0.941800  0.316800  0.960000  1
  H  H114  1  0.941800  0.040000  0.316800  1
  H  H115  1  0.941800  0.683200  0.040000  1
  H  H116  1  0.941800  0.960000  0.683200  1
  H  H117  1  0.058200  0.316800  0.040000  1
  H  H118  1  0.058200  0.683200  0.960000  1
  H  H119  1  0.058200  0.960000  0.316800  1
  H  H120  1  0.058200  0.040000  0.683200  1
  H  H121  1  0.973900  0.684200  0.063900  1
  H  H122  1  0.973900  0.936100  0.684200  1
  H  H123  1  0.973900  0.315800  0.936100  1
  H  H124  1  0.973900  0.063900  0.315800  1
  H  H125  1  0.026100  0.684200  0.936100  1
  H  H126  1  0.026100  0.315800  0.063900  1
  H  H127  1  0.026100  0.063900  0.684200  1
  H  H128  1  0.026100  0.936100  0.315800  1
  H  H129  1  0.026100  0.315800  0.936100  1
  H  H130  1  0.026100  0.063900  0.315800  1
  H  H131  1  0.026100  0.684200  0.063900  1
  H  H132  1  0.026100  0.936100  0.684200  1
  H  H133  1  0.973900  0.315800  0.063900  1
  H  H134  1  0.973900  0.684200  0.936100  1
  H  H135  1  0.973900  0.936100  0.315800  1
  H  H136  1  0.973900  0.063900  0.684200  1
  H  H137  1  0.967900  0.682300  0.020600  1
  H  H138  1  0.967900  0.979400  0.682300  1
  H  H139  1  0.967900  0.317700  0.979400  1
  H  H140  1  0.967900  0.020600  0.317700  1
  H  H141  1  0.032100  0.682300  0.979400  1
  H  H142  1  0.032100  0.317700  0.020600  1
  H  H143  1  0.032100  0.020600  0.682300  1
  H  H144  1  0.032100  0.979400  0.317700  1
  H  H145  1  0.032100  0.317700  0.979400  1
  H  H146  1  0.032100  0.020600  0.317700  1
  H  H147  1  0.032100  0.682300  0.020600  1
  H  H148  1  0.032100  0.979400  0.682300  1
  H  H149  1  0.967900  0.317700  0.020600  1
  H  H150  1  0.967900  0.682300  0.979400  1
  H  H151  1  0.967900  0.979400  0.317700  1
  H  H152  1  0.967900  0.020600  0.682300  1
  H  H153  1  0.941700  0.543200  0.126500  1
  H  H154  1  0.941700  0.873500  0.543200  1
  H  H155  1  0.941700  0.456800  0.873500  1
  H  H156  1  0.941700  0.126500  0.456800  1
  H  H157  1  0.058300  0.543200  0.873500  1
  H  H158  1  0.058300  0.456800  0.126500  1
  H  H159  1  0.058300  0.126500  0.543200  1
  H  H160  1  0.058300  0.873500  0.456800  1
  H  H161  1  0.058300  0.456800  0.873500  1
  H  H162  1  0.058300  0.126500  0.456800  1
  H  H163  1  0.058300  0.543200  0.126500  1
  H  H164  1  0.058300  0.873500  0.543200  1
  H  H165  1  0.941700  0.456800  0.126500  1
  H  H166  1  0.941700  0.543200  0.873500  1
  H  H167  1  0.941700  0.873500  0.456800  1
  H  H168  1  0.941700  0.126500  0.543200  1
  H  H169  1  0.028200  0.520800  0.127900  1
  H  H170  1  0.028200  0.872100  0.520800  1
  H  H171  1  0.028200  0.479200  0.872100  1
  H  H172  1  0.028200  0.127900  0.479200  1
  H  H173  1  0.971800  0.520800  0.872100  1
  H  H174  1  0.971800  0.479200  0.127900  1
  H  H175  1  0.971800  0.127900  0.520800  1
  H  H176  1  0.971800  0.872100  0.479200  1
  H  H177  1  0.971800  0.479200  0.872100  1
  H  H178  1  0.971800  0.127900  0.479200  1
  H  H179  1  0.971800  0.520800  0.127900  1
  H  H180  1  0.971800  0.872100  0.520800  1
  H  H181  1  0.028200  0.479200  0.127900  1
  H  H182  1  0.028200  0.520800  0.872100  1
  H  H183  1  0.028200  0.872100  0.479200  1
  H  H184  1  0.028200  0.127900  0.520800  1
  H  H185  1  0.030000  0.564200  0.125200  1
  H  H186  1  0.030000  0.874800  0.564200  1
  H  H187  1  0.030000  0.435800  0.874800  1
  H  H188  1  0.030000  0.125200  0.435800  1
  H  H189  1  0.970000  0.564200  0.874800  1
  H  H190  1  0.970000  0.435800  0.125200  1
  H  H191  1  0.970000  0.125200  0.564200  1
  H  H192  1  0.970000  0.874800  0.435800  1
  H  H193  1  0.970000  0.435800  0.874800  1
  H  H194  1  0.970000  0.125200  0.435800  1
  H  H195  1  0.970000  0.564200  0.125200  1
  H  H196  1  0.970000  0.874800  0.564200  1
  H  H197  1  0.030000  0.435800  0.125200  1
  H  H198  1  0.030000  0.564200  0.874800  1
  H  H199  1  0.030000  0.874800  0.435800  1
  H  H200  1  0.030000  0.125200  0.564200  1
  H  H201  1  0.210900  0.548700  0.245600  1.0
  H  H202  1  0.210900  0.754400  0.548700  1.0
  H  H203  1  0.210900  0.451300  0.754400  1.0
  H  H204  1  0.210900  0.245600  0.451300  1.0
  H  H205  1  0.789100  0.548700  0.754400  1.0
  H  H206  1  0.789100  0.451300  0.245600  1.0
  H  H207  1  0.789100  0.245600  0.548700  1.0
  H  H208  1  0.789100  0.754400  0.451300  1.0
  H  H209  1  0.789100  0.451300  0.754400  1.0
  H  H210  1  0.789100  0.245600  0.451300  1.0
  H  H211  1  0.789100  0.548700  0.245600  1.0
  H  H212  1  0.789100  0.754400  0.548700  1.0
  H  H213  1  0.210900  0.451300  0.245600  1.0
  H  H214  1  0.210900  0.548700  0.754400  1.0
  H  H215  1  0.210900  0.754400  0.451300  1.0
  H  H216  1  0.210900  0.245600  0.548700  1.0
  H  H217  1  0.163600  0.529300  0.278800  1.0
  H  H218  1  0.163600  0.721200  0.529300  1.0
  H  H219  1  0.163600  0.470700  0.721200  1.0
  H  H220  1  0.163600  0.278800  0.470700  1.0
  H  H221  1  0.836400  0.529300  0.721200  1.0
  H  H222  1  0.836400  0.470700  0.278800  1.0
  H  H223  1  0.836400  0.278800  0.529300  1.0
  H  H224  1  0.836400  0.721200  0.470700  1.0
  H  H225  1  0.836400  0.470700  0.721200  1.0
  H  H226  1  0.836400  0.278800  0.470700  1.0
  H  H227  1  0.836400  0.529300  0.278800  1.0
  H  H228  1  0.836400  0.721200  0.529300  1.0
  H  H229  1  0.163600  0.470700  0.278800  1.0
  H  H230  1  0.163600  0.529300  0.721200  1.0
  H  H231  1  0.163600  0.721200  0.470700  1.0
  H  H232  1  0.163600  0.278800  0.529300  1.0
  H  H233  1  0.165400  0.572700  0.276100  1.0
  H  H234  1  0.165400  0.723900  0.572700  1.0
  H  H235  1  0.165400  0.427300  0.723900  1.0
  H  H236  1  0.165400  0.276100  0.427300  1.0
  H  H237  1  0.834600  0.572700  0.723900  1.0
  H  H238  1  0.834600  0.427300  0.276100  1.0
  H  H239  1  0.834600  0.276100  0.572700  1.0
  H  H240  1  0.834600  0.723900  0.427300  1.0
  H  H241  1  0.834600  0.427300  0.723900  1.0
  H  H242  1  0.834600  0.276100  0.427300  1.0
  H  H243  1  0.834600  0.572700  0.276100  1.0
  H  H244  1  0.834600  0.723900  0.572700  1.0
  H  H245  1  0.165400  0.427300  0.276100  1.0
  H  H246  1  0.165400  0.572700  0.723900  1.0
  H  H247  1  0.165400  0.723900  0.427300  1.0
  H  H248  1  0.165400  0.276100  0.572700  1.0
  H  H249  1  0.212800  0.569000  0.052200  1.0
  H  H250  1  0.212800  0.947800  0.569000  1.0
  H  H251  1  0.212800  0.431000  0.947800  1.0
  H  H252  1  0.212800  0.052200  0.431000  1.0
  H  H253  1  0.787200  0.569000  0.947800  1.0
  H  H254  1  0.787200  0.431000  0.052200  1.0
  H  H255  1  0.787200  0.052200  0.569000  1.0
  H  H256  1  0.787200  0.947800  0.431000  1.0
  H  H257  1  0.787200  0.431000  0.947800  1.0
  H  H258  1  0.787200  0.052200  0.431000  1.0
  H  H259  1  0.787200  0.569000  0.052200  1.0
  H  H260  1  0.787200  0.947800  0.569000  1.0
  H  H261  1  0.212800  0.431000  0.052200  1.0
  H  H262  1  0.212800  0.569000  0.947800  1.0
  H  H263  1  0.212800  0.947800  0.431000  1.0
  H  H264  1  0.212800  0.052200  0.569000  1.0
  H  H265  1  0.169400  0.536600  0.030100  1.0
  H  H266  1  0.169400  0.969900  0.536600  1.0
  H  H267  1  0.169400  0.463400  0.969900  1.0
  H  H268  1  0.169400  0.030100  0.463400  1.0
  H  H269  1  0.830600  0.536600  0.969900  1.0
  H  H270  1  0.830600  0.463400  0.030100  1.0
  H  H271  1  0.830600  0.030100  0.536600  1.0
  H  H272  1  0.830600  0.969900  0.463400  1.0
  H  H273  1  0.830600  0.463400  0.969900  1.0
  H  H274  1  0.830600  0.030100  0.463400  1.0
  H  H275  1  0.830600  0.536600  0.030100  1.0
  H  H276  1  0.830600  0.969900  0.536600  1.0
  H  H277  1  0.169400  0.463400  0.030100  1.0
  H  H278  1  0.169400  0.536600  0.969900  1.0
  H  H279  1  0.169400  0.969900  0.463400  1.0
  H  H280  1  0.169400  0.030100  0.536600  1.0
  H  H281  1  0.162700  0.537900  0.073400  1.0
  H  H282  1  0.162700  0.926600  0.537900  1.0
  H  H283  1  0.162700  0.462100  0.926600  1.0
  H  H284  1  0.162700  0.073400  0.462100  1.0
  H  H285  1  0.837300  0.537900  0.926600  1.0
  H  H286  1  0.837300  0.462100  0.073400  1.0
  H  H287  1  0.837300  0.073400  0.537900  1.0
  H  H288  1  0.837300  0.926600  0.462100  1.0
  H  H289  1  0.837300  0.462100  0.926600  1.0
  H  H290  1  0.837300  0.073400  0.462100  1.0
  H  H291  1  0.837300  0.537900  0.073400  1.0
  H  H292  1  0.837300  0.926600  0.537900  1.0
  H  H293  1  0.162700  0.462100  0.073400  1.0
  H  H294  1  0.162700  0.537900  0.926600  1.0
  H  H295  1  0.162700  0.926600  0.462100  1.0
  H  H296  1  0.162700  0.073400  0.537900  1.0
  H  H297  1  0.348800  0.623100  0.305800  1.0
  H  H298  1  0.348800  0.694200  0.623100  1.0
  H  H299  1  0.348800  0.376900  0.694200  1.0
  H  H300  1  0.348800  0.305800  0.376900  1.0
  H  H301  1  0.651200  0.623100  0.694200  1.0
  H  H302  1  0.651200  0.376900  0.305800  1.0
  H  H303  1  0.651200  0.305800  0.623100  1.0
  H  H304  1  0.651200  0.694200  0.376900  1.0
  H  H305  1  0.651200  0.376900  0.694200  1.0
  H  H306  1  0.651200  0.305800  0.376900  1.0
  H  H307  1  0.651200  0.623100  0.305800  1.0
  H  H308  1  0.651200  0.694200  0.623100  1.0
  H  H309  1  0.348800  0.376900  0.305800  1.0
  H  H310  1  0.348800  0.623100  0.694200  1.0
  H  H311  1  0.348800  0.694200  0.376900  1.0
  H  H312  1  0.348800  0.305800  0.623100  1.0
  H  H313  1  0.299400  0.636000  0.270200  1.0
  H  H314  1  0.299400  0.729800  0.636000  1.0
  H  H315  1  0.299400  0.364000  0.729800  1.0
  H  H316  1  0.299400  0.270200  0.364000  1.0
  H  H317  1  0.700600  0.636000  0.729800  1.0
  H  H318  1  0.700600  0.364000  0.270200  1.0
  H  H319  1  0.700600  0.270200  0.636000  1.0
  H  H320  1  0.700600  0.729800  0.364000  1.0
  H  H321  1  0.700600  0.364000  0.729800  1.0
  H  H322  1  0.700600  0.270200  0.364000  1.0
  H  H323  1  0.700600  0.636000  0.270200  1.0
  H  H324  1  0.700600  0.729800  0.636000  1.0
  H  H325  1  0.299400  0.364000  0.270200  1.0
  H  H326  1  0.299400  0.636000  0.729800  1.0
  H  H327  1  0.299400  0.729800  0.364000  1.0
  H  H328  1  0.299400  0.270200  0.636000  1.0
  H  H329  1  0.311700  0.663400  0.303500  1.0
  H  H330  1  0.311700  0.696500  0.663400  1.0
  H  H331  1  0.311700  0.336600  0.696500  1.0
  H  H332  1  0.311700  0.303500  0.336600  1.0
  H  H333  1  0.688300  0.663400  0.696500  1.0
  H  H334  1  0.688300  0.336600  0.303500  1.0
  H  H335  1  0.688300  0.303500  0.663400  1.0
  H  H336  1  0.688300  0.696500  0.336600  1.0
  H  H337  1  0.688300  0.336600  0.696500  1.0
  H  H338  1  0.688300  0.303500  0.336600  1.0
  H  H339  1  0.688300  0.663400  0.303500  1.0
  H  H340  1  0.688300  0.696500  0.663400  1.0
  H  H341  1  0.311700  0.336600  0.303500  1.0
  H  H342  1  0.311700  0.663400  0.696500  1.0
  H  H343  1  0.311700  0.696500  0.336600  1.0
  H  H344  1  0.311700  0.303500  0.663400  1.0
  C  C345  1  0.000000  0.543300  0.135400  1.0
  C  C346  1  0.000000  0.864600  0.543300  1.0
  C  C347  1  0.000000  0.456700  0.864600  1.0
  C  C348  1  0.000000  0.135400  0.456700  1.0
  C  C349  1  0.000000  0.543300  0.864600  1.0
  C  C350  1  0.000000  0.456700  0.135400  1.0
  C  C351  1  0.000000  0.135400  0.543300  1.0
  C  C352  1  0.000000  0.864600  0.456700  1.0
  C  C353  1  0.000000  0.551100  0.258300  1.0
  C  C354  1  0.000000  0.741700  0.551100  1.0
  C  C355  1  1.000000  0.448900  0.741700  1.0
  C  C356  1  0.000000  0.258300  0.448900  1.0
  C  C357  1  0.000000  0.551100  0.741700  1.0
  C  C358  1  0.000000  0.448900  0.258300  1.0
  C  C359  1  0.000000  0.258300  0.551100  1.0
  C  C360  1  1.000000  0.741700  0.448900  1.0
  C  C361  1  0.000000  0.546000  0.178200  1.0
  C  C362  1  0.000000  0.821800  0.546000  1.0
  C  C363  1  0.000000  0.454000  0.821800  1.0
  C  C364  1  0.000000  0.178200  0.454000  1.0
  C  C365  1  0.000000  0.546000  0.821800  1.0
  C  C366  1  0.000000  0.454000  0.178200  1.0
  C  C367  1  1.000000  0.178200  0.546000  1.0
  C  C368  1  0.000000  0.821800  0.454000  1.0
  C  C369  1  0.000000  0.560200  0.047000  1.0
  C  C370  1  0.000000  0.953000  0.560200  1.0
  C  C371  1  0.000000  0.439800  0.953000  1.0
  C  C372  1  0.000000  0.047000  0.439800  1.0
  C  C373  1  0.000000  0.560200  0.953000  1.0
  C  C374  1  0.000000  0.439800  0.047000  1.0
  C  C375  1  0.000000  0.047000  0.560200  1.0
  C  C376  1  0.000000  0.953000  0.439800  1.0
  C  C377  1  0.000000  0.674400  0.041900  1.0
  C  C378  1  0.000000  0.958100  0.674400  1.0
  C  C379  1  0.000000  0.325600  0.958100  1.0
  C  C380  1  0.000000  0.041900  0.325600  1.0
  C  C381  1  0.000000  0.674400  0.958100  1.0
  C  C382  1  0.000000  0.325600  0.041900  1.0
  C  C383  1  0.000000  0.041900  0.674400  1.0
  C  C384  1  0.000000  0.958100  0.325600  1.0
  C  C385  1  1.000000  0.634300  0.043700  1.0
  C  C386  1  0.000000  0.956300  0.634300  1.0
  C  C387  1  0.000000  0.365700  0.956300  1.0
  C  C388  1  1.000000  0.043700  0.365700  1.0
  C  C389  1  0.000000  0.634300  0.956300  1.0
  C  C390  1  0.000000  0.365700  0.043700  1.0
  C  C391  1  0.000000  0.043700  0.634300  1.0
  C  C392  1  0.000000  0.956300  0.365700  1.0
  C  C393  1  0.500000  0.699400  0.232800  1.0
  C  C394  1  0.500000  0.767200  0.699400  1.0
  C  C395  1  0.500000  0.300600  0.767200  1.0
  C  C396  1  0.500000  0.232800  0.300600  1.0
  C  C397  1  0.500000  0.699400  0.767200  1.0
  C  C398  1  0.500000  0.300600  0.232800  1.0
  C  C399  1  0.500000  0.232800  0.699400  1.0
  C  C400  1  0.500000  0.767200  0.300600  1.0
  C  C401  1  0.500000  0.729900  0.208000  1.0
  C  C402  1  0.500000  0.792000  0.729900  1.0
  C  C403  1  0.500000  0.270100  0.792000  1.0
  C  C404  1  0.500000  0.208000  0.270100  1.0
  C  C405  1  0.500000  0.729900  0.792000  1.0
  C  C406  1  0.500000  0.270100  0.208000  1.0
  C  C407  1  0.500000  0.208000  0.729900  1.0
  C  C408  1  0.500000  0.792000  0.270100  1.0
  C  C409  1  0.500000  0.639700  0.281200  1.0
  C  C410  1  0.500000  0.718800  0.639700  1.0
  C  C411  1  0.500000  0.360300  0.718800  1.0
  C  C412  1  0.500000  0.281200  0.360300  1.0
  C  C413  1  0.500000  0.639700  0.718800  1.0
  C  C414  1  0.500000  0.360300  0.281200  1.0
  C  C415  1  0.500000  0.281200  0.639700  1.0
  C  C416  1  0.500000  0.718800  0.360300  1.0
  C  C417  1  0.079400  0.546770  0.200100  1.0
  C  C418  1  0.079400  0.799900  0.546770  1.0
  C  C419  1  0.079400  0.453230  0.799900  1.0
  C  C420  1  0.079400  0.200100  0.453230  1.0
  C  C421  1  0.920600  0.546770  0.799900  1.0
  C  C422  1  0.920600  0.453230  0.200100  1.0
  C  C423  1  0.920600  0.200100  0.546770  1.0
  C  C424  1  0.920600  0.799900  0.453230  1.0
  C  C425  1  0.920600  0.453230  0.799900  1.0
  C  C426  1  0.920600  0.200100  0.453230  1.0
  C  C427  1  0.920600  0.546770  0.200100  1.0
  C  C428  1  0.920600  0.799900  0.546770  1.0
  C  C429  1  0.079400  0.453230  0.200100  1.0
  C  C430  1  0.079400  0.546770  0.799900  1.0
  C  C431  1  0.079400  0.799900  0.453230  1.0
  C  C432  1  0.079400  0.200100  0.546770  1.0
  C  C433  1  0.162500  0.550100  0.262100  1.0
  C  C434  1  0.162500  0.737900  0.550100  1.0
  C  C435  1  0.162500  0.449900  0.737900  1.0
  C  C436  1  0.162500  0.262100  0.449900  1.0
  C  C437  1  0.837500  0.550100  0.737900  1.0
  C  C438  1  0.837500  0.449900  0.262100  1.0
  C  C439  1  0.837500  0.262100  0.550100  1.0
  C  C440  1  0.837500  0.737900  0.449900  1.0
  C  C441  1  0.837500  0.449900  0.737900  1.0
  C  C442  1  0.837500  0.262100  0.449900  1.0
  C  C443  1  0.837500  0.550100  0.262100  1.0
  C  C444  1  0.837500  0.737900  0.550100  1.0
  C  C445  1  0.162500  0.449900  0.262100  1.0
  C  C446  1  0.162500  0.550100  0.737900  1.0
  C  C447  1  0.162500  0.737900  0.449900  1.0
  C  C448  1  0.162500  0.262100  0.550100  1.0
  C  C449  1  0.079300  0.549290  0.239700  1.0
  C  C450  1  0.079300  0.760300  0.549290  1.0
  C  C451  1  0.079300  0.450710  0.760300  1.0
  C  C452  1  0.079300  0.239700  0.450710  1.0
  C  C453  1  0.920700  0.549290  0.760300  1.0
  C  C454  1  0.920700  0.450710  0.239700  1.0
  C  C455  1  0.920700  0.239700  0.549290  1.0
  C  C456  1  0.920700  0.760300  0.450710  1.0
  C  C457  1  0.920700  0.450710  0.760300  1.0
  C  C458  1  0.920700  0.239700  0.450710  1.0
  C  C459  1  0.920700  0.549290  0.239700  1.0
  C  C460  1  0.920700  0.760300  0.549290  1.0
  C  C461  1  0.079300  0.450710  0.239700  1.0
  C  C462  1  0.079300  0.549290  0.760300  1.0
  C  C463  1  0.079300  0.760300  0.450710  1.0
  C  C464  1  0.079300  0.239700  0.549290  1.0
  C  C465  1  0.271300  0.567400  0.150300  1.0
  C  C466  1  0.271300  0.849700  0.567400  1.0
  C  C467  1  0.271300  0.432600  0.849700  1.0
  C  C468  1  0.271300  0.150300  0.432600  1.0
  C  C469  1  0.728700  0.567400  0.849700  1.0
  C  C470  1  0.728700  0.432600  0.150300  1.0
  C  C471  1  0.728700  0.150300  0.567400  1.0
  C  C472  1  0.728700  0.849700  0.432600  1.0
  C  C473  1  0.728700  0.432600  0.849700  1.0
  C  C474  1  0.728700  0.150300  0.432600  1.0
  C  C475  1  0.728700  0.567400  0.150300  1.0
  C  C476  1  0.728700  0.849700  0.567400  1.0
  C  C477  1  0.271300  0.432600  0.150300  1.0
  C  C478  1  0.271300  0.567400  0.849700  1.0
  C  C479  1  0.271300  0.849700  0.432600  1.0
  C  C480  1  0.271300  0.150300  0.567400  1.0
  C  C481  1  0.196300  0.574900  0.173700  1.0
  C  C482  1  0.196300  0.826300  0.574900  1.0
  C  C483  1  0.196300  0.425100  0.826300  1.0
  C  C484  1  0.196300  0.173700  0.425100  1.0
  C  C485  1  0.803700  0.574900  0.826300  1.0
  C  C486  1  0.803700  0.425100  0.173700  1.0
  C  C487  1  0.803700  0.173700  0.574900  1.0
  C  C488  1  0.803700  0.826300  0.425100  1.0
  C  C489  1  0.803700  0.425100  0.826300  1.0
  C  C490  1  0.803700  0.173700  0.425100  1.0
  C  C491  1  0.803700  0.574900  0.173700  1.0
  C  C492  1  0.803700  0.826300  0.574900  1.0
  C  C493  1  0.196300  0.425100  0.173700  1.0
  C  C494  1  0.196300  0.574900  0.826300  1.0
  C  C495  1  0.196300  0.826300  0.425100  1.0
  C  C496  1  0.196300  0.173700  0.574900  1.0
  C  C497  1  0.279300  0.658700  0.069700  1.0
  C  C498  1  0.279300  0.930300  0.658700  1.0
  C  C499  1  0.279300  0.341300  0.930300  1.0
  C  C500  1  0.279300  0.069700  0.341300  1.0
  C  C501  1  0.720700  0.658700  0.930300  1.0
  C  C502  1  0.720700  0.341300  0.069700  1.0
  C  C503  1  0.720700  0.069700  0.658700  1.0
  C  C504  1  0.720700  0.930300  0.341300  1.0
  C  C505  1  0.720700  0.341300  0.930300  1.0
  C  C506  1  0.720700  0.069700  0.341300  1.0
  C  C507  1  0.720700  0.658700  0.069700  1.0
  C  C508  1  0.720700  0.930300  0.658700  1.0
  C  C509  1  0.279300  0.341300  0.069700  1.0
  C  C510  1  0.279300  0.658700  0.930300  1.0
  C  C511  1  0.279300  0.930300  0.341300  1.0
  C  C512  1  0.279300  0.069700  0.658700  1.0
  C  C513  1  0.077700  0.614100  0.046500  1.0
  C  C514  1  0.077700  0.953500  0.614100  1.0
  C  C515  1  0.077700  0.385900  0.953500  1.0
  C  C516  1  0.077700  0.046500  0.385900  1.0
  C  C517  1  0.922300  0.614100  0.953500  1.0
  C  C518  1  0.922300  0.385900  0.046500  1.0
  C  C519  1  0.922300  0.046500  0.614100  1.0
  C  C520  1  0.922300  0.953500  0.385900  1.0
  C  C521  1  0.922300  0.385900  0.953500  1.0
  C  C522  1  0.922300  0.046500  0.385900  1.0
  C  C523  1  0.922300  0.614100  0.046500  1.0
  C  C524  1  0.922300  0.953500  0.614100  1.0
  C  C525  1  0.077700  0.385900  0.046500  1.0
  C  C526  1  0.077700  0.614100  0.953500  1.0
  C  C527  1  0.077700  0.953500  0.385900  1.0
  C  C528  1  0.077700  0.046500  0.614100  1.0
  C  C529  1  0.164300  0.552500  0.051300  1.0
  C  C530  1  0.164300  0.948700  0.552500  1.0
  C  C531  1  0.164300  0.447500  0.948700  1.0
  C  C532  1  0.164300  0.051300  0.447500  1.0
  C  C533  1  0.835700  0.552500  0.948700  1.0
  C  C534  1  0.835700  0.447500  0.051300  1.0
  C  C535  1  0.835700  0.051300  0.552500  1.0
  C  C536  1  0.835700  0.948700  0.447500  1.0
  C  C537  1  0.835700  0.447500  0.948700  1.0
  C  C538  1  0.835700  0.051300  0.447500  1.0
  C  C539  1  0.835700  0.552500  0.051300  1.0
  C  C540  1  0.835700  0.948700  0.552500  1.0
  C  C541  1  0.164300  0.447500  0.051300  1.0
  C  C542  1  0.164300  0.552500  0.948700  1.0
  C  C543  1  0.164300  0.948700  0.447500  1.0
  C  C544  1  0.164300  0.051300  0.552500  1.0
  C  C545  1  0.074800  0.577000  0.048030  1.0
  C  C546  1  0.074800  0.951970  0.577000  1.0
  C  C547  1  0.074800  0.423000  0.951970  1.0
  C  C548  1  0.074800  0.048030  0.423000  1.0
  C  C549  1  0.925200  0.577000  0.951970  1.0
  C  C550  1  0.925200  0.423000  0.048030  1.0
  C  C551  1  0.925200  0.048030  0.577000  1.0
  C  C552  1  0.925200  0.951970  0.423000  1.0
  C  C553  1  0.925200  0.423000  0.951970  1.0
  C  C554  1  0.925200  0.048030  0.423000  1.0
  C  C555  1  0.925200  0.577000  0.048030  1.0
  C  C556  1  0.925200  0.951970  0.577000  1.0
  C  C557  1  0.074800  0.423000  0.048030  1.0
  C  C558  1  0.074800  0.577000  0.951970  1.0
  C  C559  1  0.074800  0.951970  0.423000  1.0
  C  C560  1  0.074800  0.048030  0.577000  1.0
  C  C561  1  0.191500  0.647700  0.073700  1.0
  C  C562  1  0.191500  0.926300  0.647700  1.0
  C  C563  1  0.191500  0.352300  0.926300  1.0
  C  C564  1  0.191500  0.073700  0.352300  1.0
  C  C565  1  0.808500  0.647700  0.926300  1.0
  C  C566  1  0.808500  0.352300  0.073700  1.0
  C  C567  1  0.808500  0.073700  0.647700  1.0
  C  C568  1  0.808500  0.926300  0.352300  1.0
  C  C569  1  0.808500  0.352300  0.926300  1.0
  C  C570  1  0.808500  0.073700  0.352300  1.0
  C  C571  1  0.808500  0.647700  0.073700  1.0
  C  C572  1  0.808500  0.926300  0.647700  1.0
  C  C573  1  0.191500  0.352300  0.073700  1.0
  C  C574  1  0.191500  0.647700  0.926300  1.0
  C  C575  1  0.191500  0.926300  0.352300  1.0
  C  C576  1  0.191500  0.073700  0.647700  1.0
  C  C577  1  0.422800  0.686400  0.248800  1.0
  C  C578  1  0.422800  0.751200  0.686400  1.0
  C  C579  1  0.422800  0.313600  0.751200  1.0
  C  C580  1  0.422800  0.248800  0.313600  1.0
  C  C581  1  0.577200  0.686400  0.751200  1.0
  C  C582  1  0.577200  0.313600  0.248800  1.0
  C  C583  1  0.577200  0.248800  0.686400  1.0
  C  C584  1  0.577200  0.751200  0.313600  1.0
  C  C585  1  0.577200  0.313600  0.751200  1.0
  C  C586  1  0.577200  0.248800  0.313600  1.0
  C  C587  1  0.577200  0.686400  0.248800  1.0
  C  C588  1  0.577200  0.751200  0.686400  1.0
  C  C589  1  0.422800  0.313600  0.248800  1.0
  C  C590  1  0.422800  0.686400  0.751200  1.0
  C  C591  1  0.422800  0.751200  0.313600  1.0
  C  C592  1  0.422800  0.248800  0.686400  1.0
  C  C593  1  0.305100  0.691500  0.208100  1.0
  C  C594  1  0.305100  0.791900  0.691500  1.0
  C  C595  1  0.305100  0.308500  0.791900  1.0
  C  C596  1  0.305100  0.208100  0.308500  1.0
  C  C597  1  0.694900  0.691500  0.791900  1.0
  C  C598  1  0.694900  0.308500  0.208100  1.0
  C  C599  1  0.694900  0.208100  0.691500  1.0
  C  C600  1  0.694900  0.791900  0.308500  1.0
  C  C601  1  0.694900  0.308500  0.791900  1.0
  C  C602  1  0.694900  0.208100  0.308500  1.0
  C  C603  1  0.694900  0.691500  0.208100  1.0
  C  C604  1  0.694900  0.791900  0.691500  1.0
  C  C605  1  0.305100  0.308500  0.208100  1.0
  C  C606  1  0.305100  0.691500  0.791900  1.0
  C  C607  1  0.305100  0.791900  0.308500  1.0
  C  C608  1  0.305100  0.208100  0.691500  1.0
  C  C609  1  0.421300  0.656900  0.273000  1.0
  C  C610  1  0.421300  0.727000  0.656900  1.0
  C  C611  1  0.421300  0.343100  0.727000  1.0
  C  C612  1  0.421300  0.273000  0.343100  1.0
  C  C613  1  0.578700  0.656900  0.727000  1.0
  C  C614  1  0.578700  0.343100  0.273000  1.0
  C  C615  1  0.578700  0.273000  0.656900  1.0
  C  C616  1  0.578700  0.727000  0.343100  1.0
  C  C617  1  0.578700  0.343100  0.727000  1.0
  C  C618  1  0.578700  0.273000  0.343100  1.0
  C  C619  1  0.578700  0.656900  0.273000  1.0
  C  C620  1  0.578700  0.727000  0.656900  1.0
  C  C621  1  0.421300  0.343100  0.273000  1.0
  C  C622  1  0.421300  0.656900  0.727000  1.0
  C  C623  1  0.421300  0.727000  0.343100  1.0
  C  C624  1  0.421300  0.273000  0.656900  1.0
  C  C625  1  0.337700  0.643600  0.289700  1.0
  C  C626  1  0.337700  0.710300  0.643600  1.0
  C  C627  1  0.337700  0.356400  0.710300  1.0
  C  C628  1  0.337700  0.289700  0.356400  1.0
  C  C629  1  0.662300  0.643600  0.710300  1.0
  C  C630  1  0.662300  0.356400  0.289700  1.0
  C  C631  1  0.662300  0.289700  0.643600  1.0
  C  C632  1  0.662300  0.710300  0.356400  1.0
  C  C633  1  0.662300  0.356400  0.710300  1.0
  C  C634  1  0.662300  0.289700  0.356400  1.0
  C  C635  1  0.662300  0.643600  0.289700  1.0
  C  C636  1  0.662300  0.710300  0.643600  1.0
  C  C637  1  0.337700  0.356400  0.289700  1.0
  C  C638  1  0.337700  0.643600  0.710300  1.0
  C  C639  1  0.337700  0.710300  0.356400  1.0
  C  C640  1  0.337700  0.289700  0.643600  1.0
  C  C641  1  0.227700  0.706300  0.194400  1.0
  C  C642  1  0.227700  0.805600  0.706300  1.0
  C  C643  1  0.227700  0.293700  0.805600  1.0
  C  C644  1  0.227700  0.194400  0.293700  1.0
  C  C645  1  0.772300  0.706300  0.805600  1.0
  C  C646  1  0.772300  0.293700  0.194400  1.0
  C  C647  1  0.772300  0.194400  0.706300  1.0
  C  C648  1  0.772300  0.805600  0.293700  1.0
  C  C649  1  0.772300  0.293700  0.805600  1.0
  C  C650  1  0.772300  0.194400  0.293700  1.0
  C  C651  1  0.772300  0.706300  0.194400  1.0
  C  C652  1  0.772300  0.805600  0.706300  1.0
  C  C653  1  0.227700  0.293700  0.194400  1.0
  C  C654  1  0.227700  0.706300  0.805600  1.0
  C  C655  1  0.227700  0.805600  0.293700  1.0
  C  C656  1  0.227700  0.194400  0.706300  1.0
  N  N657  1  0.155300  0.544100  0.181300  1.0
  N  N658  1  0.155300  0.818700  0.544100  1.0
  N  N659  1  0.155300  0.455900  0.818700  1.0
  N  N660  1  0.155300  0.181300  0.455900  1.0
  N  N661  1  0.844700  0.544100  0.818700  1.0
  N  N662  1  0.844700  0.455900  0.181300  1.0
  N  N663  1  0.844700  0.181300  0.544100  1.0
  N  N664  1  0.844700  0.818700  0.455900  1.0
  N  N665  1  0.844700  0.455900  0.818700  1.0
  N  N666  1  0.844700  0.181300  0.455900  1.0
  N  N667  1  0.844700  0.544100  0.181300  1.0
  N  N668  1  0.844700  0.818700  0.544100  1.0
  N  N669  1  0.155300  0.455900  0.181300  1.0
  N  N670  1  0.155300  0.544100  0.818700  1.0
  N  N671  1  0.155300  0.818700  0.455900  1.0
  N  N672  1  0.155300  0.181300  0.544100  1.0
  N  N673  1  0.155700  0.636200  0.043400  1.0
  N  N674  1  0.155700  0.956600  0.636200  1.0
  N  N675  1  0.155700  0.363800  0.956600  1.0
  N  N676  1  0.155700  0.043400  0.363800  1.0
  N  N677  1  0.844300  0.636200  0.956600  1.0
  N  N678  1  0.844300  0.363800  0.043400  1.0
  N  N679  1  0.844300  0.043400  0.636200  1.0
  N  N680  1  0.844300  0.956600  0.363800  1.0
  N  N681  1  0.844300  0.363800  0.956600  1.0
  N  N682  1  0.844300  0.043400  0.363800  1.0
  N  N683  1  0.844300  0.636200  0.043400  1.0
  N  N684  1  0.844300  0.956600  0.636200  1.0
  N  N685  1  0.155700  0.363800  0.043400  1.0
  N  N686  1  0.155700  0.636200  0.956600  1.0
  N  N687  1  0.155700  0.956600  0.363800  1.0
  N  N688  1  0.155700  0.043400  0.636200  1.0
  N  N689  1  0.342300  0.701700  0.236400  1.0
  N  N690  1  0.342300  0.763600  0.701700  1.0
  N  N691  1  0.342300  0.298300  0.763600  1.0
  N  N692  1  0.342300  0.236400  0.298300  1.0
  N  N693  1  0.657700  0.701700  0.763600  1.0
  N  N694  1  0.657700  0.298300  0.236400  1.0
  N  N695  1  0.657700  0.236400  0.701700  1.0
  N  N696  1  0.657700  0.763600  0.298300  1.0
  N  N697  1  0.657700  0.298300  0.763600  1.0
  N  N698  1  0.657700  0.236400  0.298300  1.0
  N  N699  1  0.657700  0.701700  0.236400  1.0
  N  N700  1  0.657700  0.763600  0.701700  1.0
  N  N701  1  0.342300  0.298300  0.236400  1.0
  N  N702  1  0.342300  0.701700  0.763600  1.0
  N  N703  1  0.342300  0.763600  0.298300  1.0
  N  N704  1  0.342300  0.236400  0.701700  1.0
  O  O705  1  0.000000  0.716400  0.221000  1
  O  O706  1  1.000000  0.779000  0.716400  1
  O  O707  1  1.000000  0.283600  0.779000  1
  O  O708  1  0.000000  0.221000  0.283600  1
  O  O709  1  1.000000  0.716400  0.779000  1
  O  O710  1  0.000000  0.283600  0.221000  1
  O  O711  1  0.000000  0.221000  0.716400  1
  O  O712  1  0.000000  0.779000  0.283600  1
  O  O713  1  0.128400  0.812900  0.187100  1
  O  O714  1  0.128400  0.812900  0.812900  1
  O  O715  1  0.128400  0.187100  0.812900  1
  O  O716  1  0.128400  0.187100  0.187100  1
  O  O717  1  0.871600  0.812900  0.812900  1
  O  O718  1  0.871600  0.187100  0.187100  1
  O  O719  1  0.871600  0.187100  0.812900  1
  O  O720  1  0.871600  0.812900  0.187100  1
  O  O721  1  0.103200  0.639100  0.243300  1
  O  O722  1  0.103200  0.756700  0.639100  1
  O  O723  1  0.103200  0.360900  0.756700  1
  O  O724  1  0.103200  0.243300  0.360900  1
  O  O725  1  0.896800  0.639100  0.756700  1
  O  O726  1  0.896800  0.360900  0.243300  1
  O  O727  1  0.896800  0.243300  0.639100  1
  O  O728  1  0.896800  0.756700  0.360900  1
  O  O729  1  0.896800  0.360900  0.756700  1
  O  O730  1  0.896800  0.243300  0.360900  1
  O  O731  1  0.896800  0.639100  0.243300  1
  O  O732  1  0.896800  0.756700  0.639100  1
  O  O733  1  0.103200  0.360900  0.243300  1
  O  O734  1  0.103200  0.639100  0.756700  1
  O  O735  1  0.103200  0.756700  0.360900  1
  O  O736  1  0.103200  0.243300  0.639100  1
  O  O737  1  0.000000  0.655800  0.138200  1
  O  O738  1  1.000000  0.861800  0.655800  1
  O  O739  1  1.000000  0.344200  0.861800  1
  O  O740  1  0.000000  0.138200  0.344200  1
  O  O741  1  1.000000  0.655800  0.861800  1
  O  O742  1  0.000000  0.344200  0.138200  1
  O  O743  1  0.000000  0.138200  0.655800  1
  O  O744  1  1.000000  0.861800  0.344200  1
  O  O745  1  0.313500  0.799400  0.200600  1
  O  O746  1  0.313500  0.799400  0.799400  1
  O  O747  1  0.313500  0.200600  0.799400  1
  O  O748  1  0.313500  0.200600  0.200600  1
  O  O749  1  0.686500  0.799400  0.799400  1
  O  O750  1  0.686500  0.200600  0.200600  1
  O  O751  1  0.686500  0.200600  0.799400  1
  O  O752  1  0.686500  0.799400  0.200600  1
  O  O753  1  0.500000  0.743800  0.000000  1
  O  O754  1  0.500000  1.000000  0.743800  1
  O  O755  1  0.500000  0.256200  0.000000  1
  O  O756  1  0.500000  0.000000  0.256200  1
  O  O757  1  0.331300  0.500000  0.211900  1.0
  O  O758  1  0.331300  0.788100  0.500000  1.0
  O  O759  1  0.331300  0.500000  0.788100  1.0
  O  O760  1  0.331300  0.211900  0.500000  1.0
  O  O761  1  0.668700  0.500000  0.788100  1.0
  O  O762  1  0.668700  0.500000  0.211900  1.0
  O  O763  1  0.668700  0.211900  0.500000  1.0
  O  O764  1  0.668700  0.788100  0.500000  1.0
  O  O765  1  0.346800  0.600900  0.000000  1.0
  O  O766  1  0.346800  0.000000  0.600900  1.0
  O  O767  1  0.346800  0.399100  0.000000  1.0
  O  O768  1  0.346800  0.000000  0.399100  1.0
  O  O769  1  0.653200  0.600900  0.000000  1.0
  O  O770  1  0.653200  0.399100  0.000000  1.0
  O  O771  1  0.653200  0.000000  0.600900  1.0
  O  O772  1  0.653200  0.000000  0.399100  1.0
  O  O773  1  0.184600  0.724300  0.000000  1.0
  O  O774  1  0.184600  0.000000  0.724300  1.0
  O  O775  1  0.184600  0.275700  0.000000  1.0
  O  O776  1  0.184600  0.000000  0.275700  1.0
  O  O777  1  0.815400  0.724300  0.000000  1.0
  O  O778  1  0.815400  0.275700  0.000000  1.0
  O  O779  1  0.815400  0.000000  0.724300  1.0
  O  O780  1  0.815400  0.000000  0.275700  1.0
  O  O781  1  0.158600  0.708000  0.292000  1.0
  O  O782  1  0.158600  0.708000  0.708000  1.0
  O  O783  1  0.158600  0.292000  0.708000  1.0
  O  O784  1  0.158600  0.292000  0.292000  1.0
  O  O785  1  0.841400  0.708000  0.708000  1.0
  O  O786  1  0.841400  0.292000  0.292000  1.0
  O  O787  1  0.841400  0.292000  0.708000  1.0
  O  O788  1  0.841400  0.708000  0.292000  1.0
  O  O789  1  0.179100  0.608400  0.179800  1.0
  O  O790  1  0.179100  0.820200  0.608400  1.0
  O  O791  1  0.179100  0.391600  0.820200  1.0
  O  O792  1  0.179100  0.179800  0.391600  1.0
  O  O793  1  0.820900  0.608400  0.820200  1.0
  O  O794  1  0.820900  0.391600  0.179800  1.0
  O  O795  1  0.820900  0.179800  0.608400  1.0
  O  O796  1  0.820900  0.820200  0.391600  1.0
  O  O797  1  0.820900  0.391600  0.820200  1.0
  O  O798  1  0.820900  0.179800  0.391600  1.0
  O  O799  1  0.820900  0.608400  0.179800  1.0
  O  O800  1  0.820900  0.820200  0.608400  1.0
  O  O801  1  0.179100  0.391600  0.179800  1.0
  O  O802  1  0.179100  0.608400  0.820200  1.0
  O  O803  1  0.179100  0.820200  0.391600  1.0
  O  O804  1  0.179100  0.179800  0.608400  1.0
  O  O805  1  0.295700  0.536000  0.140300  1.0
  O  O806  1  0.295700  0.859700  0.536000  1.0
  O  O807  1  0.295700  0.464000  0.859700  1.0
  O  O808  1  0.295700  0.140300  0.464000  1.0
  O  O809  1  0.704300  0.536000  0.859700  1.0
  O  O810  1  0.704300  0.464000  0.140300  1.0
  O  O811  1  0.704300  0.140300  0.536000  1.0
  O  O812  1  0.704300  0.859700  0.464000  1.0
  O  O813  1  0.704300  0.464000  0.859700  1.0
  O  O814  1  0.704300  0.140300  0.464000  1.0
  O  O815  1  0.704300  0.536000  0.140300  1.0
  O  O816  1  0.704300  0.859700  0.536000  1.0
  O  O817  1  0.295700  0.464000  0.140300  1.0
  O  O818  1  0.295700  0.536000  0.859700  1.0
  O  O819  1  0.295700  0.859700  0.464000  1.0
  O  O820  1  0.295700  0.140300  0.536000  1.0
  O  O821  1  0.310800  0.599100  0.136300  1.0
  O  O822  1  0.310800  0.863700  0.599100  1.0
  O  O823  1  0.310800  0.400900  0.863700  1.0
  O  O824  1  0.310800  0.136300  0.400900  1.0
  O  O825  1  0.689200  0.599100  0.863700  1.0
  O  O826  1  0.689200  0.400900  0.136300  1.0
  O  O827  1  0.689200  0.136300  0.599100  1.0
  O  O828  1  0.689200  0.863700  0.400900  1.0
  O  O829  1  0.689200  0.400900  0.863700  1.0
  O  O830  1  0.689200  0.136300  0.400900  1.0
  O  O831  1  0.689200  0.599100  0.136300  1.0
  O  O832  1  0.689200  0.863700  0.599100  1.0
  O  O833  1  0.310800  0.400900  0.136300  1.0
  O  O834  1  0.310800  0.599100  0.863700  1.0
  O  O835  1  0.310800  0.863700  0.400900  1.0
  O  O836  1  0.310800  0.136300  0.599100  1.0
  O  O837  1  0.302800  0.670900  0.040600  1.0
  O  O838  1  0.302800  0.959400  0.670900  1.0
  O  O839  1  0.302800  0.329100  0.959400  1.0
  O  O840  1  0.302800  0.040600  0.329100  1.0
  O  O841  1  0.697200  0.670900  0.959400  1.0
  O  O842  1  0.697200  0.329100  0.040600  1.0
  O  O843  1  0.697200  0.040600  0.670900  1.0
  O  O844  1  0.697200  0.959400  0.329100  1.0
  O  O845  1  0.697200  0.329100  0.959400  1.0
  O  O846  1  0.697200  0.040600  0.329100  1.0
  O  O847  1  0.697200  0.670900  0.040600  1.0
  O  O848  1  0.697200  0.959400  0.670900  1.0
  O  O849  1  0.302800  0.329100  0.040600  1.0
  O  O850  1  0.302800  0.670900  0.959400  1.0
  O  O851  1  0.302800  0.959400  0.329100  1.0
  O  O852  1  0.302800  0.040600  0.670900  1.0
  O  O853  1  0.313200  0.671600  0.100900  1.0
  O  O854  1  0.313200  0.899100  0.671600  1.0
  O  O855  1  0.313200  0.328400  0.899100  1.0
  O  O856  1  0.313200  0.100900  0.328400  1.0
  O  O857  1  0.686800  0.671600  0.899100  1.0
  O  O858  1  0.686800  0.328400  0.100900  1.0
  O  O859  1  0.686800  0.100900  0.671600  1.0
  O  O860  1  0.686800  0.899100  0.328400  1.0
  O  O861  1  0.686800  0.328400  0.899100  1.0
  O  O862  1  0.686800  0.100900  0.328400  1.0
  O  O863  1  0.686800  0.671600  0.100900  1.0
  O  O864  1  0.686800  0.899100  0.671600  1.0
  O  O865  1  0.313200  0.328400  0.100900  1.0
  O  O866  1  0.313200  0.671600  0.899100  1.0
  O  O867  1  0.313200  0.899100  0.328400  1.0
  O  O868  1  0.313200  0.100900  0.671600  1.0
  O  O869  1  0.162400  0.636300  0.106700  1.0
  O  O870  1  0.162400  0.893300  0.636300  1.0
  O  O871  1  0.162400  0.363700  0.893300  1.0
  O  O872  1  0.162400  0.106700  0.363700  1.0
  O  O873  1  0.837600  0.636300  0.893300  1.0
  O  O874  1  0.837600  0.363700  0.106700  1.0
  O  O875  1  0.837600  0.106700  0.636300  1.0
  O  O876  1  0.837600  0.893300  0.363700  1.0
  O  O877  1  0.837600  0.363700  0.893300  1.0
  O  O878  1  0.837600  0.106700  0.363700  1.0
  O  O879  1  0.837600  0.636300  0.106700  1.0
  O  O880  1  0.837600  0.893300  0.636300  1.0
  O  O881  1  0.162400  0.363700  0.106700  1.0
  O  O882  1  0.162400  0.636300  0.893300  1.0
  O  O883  1  0.162400  0.893300  0.363700  1.0
  O  O884  1  0.162400  0.106700  0.636300  1.0
  O  O885  1  0.333800  0.663900  0.188900  1.0
  O  O886  1  0.333800  0.811100  0.663900  1.0
  O  O887  1  0.333800  0.336100  0.811100  1.0
  O  O888  1  0.333800  0.188900  0.336100  1.0
  O  O889  1  0.666200  0.663900  0.811100  1.0
  O  O890  1  0.666200  0.336100  0.188900  1.0
  O  O891  1  0.666200  0.188900  0.663900  1.0
  O  O892  1  0.666200  0.811100  0.336100  1.0
  O  O893  1  0.666200  0.336100  0.811100  1.0
  O  O894  1  0.666200  0.188900  0.336100  1.0
  O  O895  1  0.666200  0.663900  0.188900  1.0
  O  O896  1  0.666200  0.811100  0.663900  1.0
  O  O897  1  0.333800  0.336100  0.188900  1.0
  O  O898  1  0.333800  0.663900  0.811100  1.0
  O  O899  1  0.333800  0.811100  0.336100  1.0
  O  O900  1  0.333800  0.188900  0.663900  1.0
  O  O901  1  0.189100  0.691600  0.166900  1.0
  O  O902  1  0.189100  0.833100  0.691600  1.0
  O  O903  1  0.189100  0.308400  0.833100  1.0
  O  O904  1  0.189100  0.166900  0.308400  1.0
  O  O905  1  0.810900  0.691600  0.833100  1.0
  O  O906  1  0.810900  0.308400  0.166900  1.0
  O  O907  1  0.810900  0.166900  0.691600  1.0
  O  O908  1  0.810900  0.833100  0.308400  1.0
  O  O909  1  0.810900  0.308400  0.833100  1.0
  O  O910  1  0.810900  0.166900  0.308400  1.0
  O  O911  1  0.810900  0.691600  0.166900  1.0
  O  O912  1  0.810900  0.833100  0.691600  1.0
  O  O913  1  0.189100  0.308400  0.166900  1.0
  O  O914  1  0.189100  0.691600  0.833100  1.0
  O  O915  1  0.189100  0.833100  0.308400  1.0
  O  O916  1  0.189100  0.166900  0.691600  1.0
  O  O917  1  0.196500  0.733100  0.214400  1.0
  O  O918  1  0.196500  0.785600  0.733100  1.0
  O  O919  1  0.196500  0.266900  0.785600  1.0
  O  O920  1  0.196500  0.214400  0.266900  1.0
  O  O921  1  0.803500  0.733100  0.785600  1.0
  O  O922  1  0.803500  0.266900  0.214400  1.0
  O  O923  1  0.803500  0.214400  0.733100  1.0
  O  O924  1  0.803500  0.785600  0.266900  1.0
  O  O925  1  0.803500  0.266900  0.785600  1.0
  O  O926  1  0.803500  0.214400  0.266900  1.0
  O  O927  1  0.803500  0.733100  0.214400  1.0
  O  O928  1  0.803500  0.785600  0.733100  1.0
  O  O929  1  0.196500  0.266900  0.214400  1.0
  O  O930  1  0.196500  0.733100  0.785600  1.0
  O  O931  1  0.196500  0.785600  0.266900  1.0
  O  O932  1  0.196500  0.214400  0.733100  1.0
