
#######################################################################
#
#                 Cambridge Crystallographic Data Centre
#                                CCDC 
#
#######################################################################
#
# If this CIF has been generated from an entry in the Cambridge 
# Structural Database, then it will include bibliographic, chemical, 
# crystal, experimental, refinement or atomic coordinate data resulting 
# from the CCDC's data processing and validation procedures.
#
#######################################################################

data_QUFZOI
_chemical_formula_moiety         
'C26 H28 Cu2 N4 O16 4-,2(C26 H24 Cu2 N4 O14 4-),6(Co1 2+),12(H2 O1)'
_chemical_name_systematic        
'hexa-cobalt bis(\m-2,4-bis([carboxylato(oxidanidyl)methylidene]amino)-1,3,5-trimethylbenzene)-tetra-aqua-di-copper bis(bis(2,4-bis([carboxylato(oxidanidyl)methylidene]amino)-1,3,5-trimethylbenzene)-diaqua-dicopper) dodecahydrate'
_symmetry_cell_setting           tetragonal
_symmetry_space_group_name_H-M   'P 4/m m m'
_symmetry_Int_Tables_number      123
_space_group_name_Hall           '-P 4 2'
loop_
_symmetry_equiv_pos_site_id
_symmetry_equiv_pos_as_xyz
1 x,y,z
2 -y,x,z
3 -x,-y,z
4 y,-x,z
5 x,-y,-z
6 -x,y,-z
7 y,x,-z
8 -y,-x,-z
9 -x,-y,-z
10 y,-x,-z
11 x,y,-z
12 -y,x,-z
13 -x,y,z
14 x,-y,z
15 -y,-x,z
16 y,x,z
_cell_length_a                   36.2172(4)
_cell_length_b                   36.2172(4)
_cell_length_c                   15.4125(4)
_cell_angle_alpha                90
_cell_angle_beta                 90
_cell_angle_gamma                90
_cell_volume                     20216.4
_exptl_crystal_colour            green
_exptl_crystal_description       prism
_cell_formula_units_Z            4
_exptl_crystal_preparation       'Magnetic properties'
loop_
_atom_site_label
_atom_site_type_symbol
_atom_site_fract_x
_atom_site_fract_y
_atom_site_fract_z
Cu1 Cu 0.17036(6) 0.5000 0.27426(16)
O1 O 0.18085(19) 0.6084(2) 0.3222(5)
O2 O 0.1443(2) 0.5357(2) 0.2015(5)
N1 N 0.1843(2) 0.5441(2) 0.3416(5)
O3 O 0.1359(2) 0.5956(2) 0.1863(6)
C1 C 0.1491(4) 0.5686(4) 0.2234(9)
C2 C 0.2599(4) 0.5509(3) 0.5000
H1 H 0.2853 0.5544 0.5000
C3 C 0.2421(3) 0.5484(2) 0.4209(6)
C4 C 0.2619(3) 0.5524(3) 0.3421(6)
H2 H 0.2879 0.5516 0.3538
H3 H 0.2558 0.5757 0.3158
H4 H 0.2554 0.5327 0.3033
C5 C 0.1748(3) 0.5758(4) 0.3020(8)
C6 C 0.2040(2) 0.5487(3) 0.4248(7)
C7 C 0.1846(3) 0.5475(3) 0.5000
C8 C 0.1401(4) 0.5410(6) 0.5000
O4 O 0.2197(3) 0.5000 0.1648(8)
O1J O 0.18085(19) 0.6084(2) 0.6778(5)
O2J O 0.1443(2) 0.5357(2) 0.7985(5)
N1J N 0.1843(2) 0.5441(2) 0.6584(5)
O3J O 0.1359(2) 0.5956(2) 0.8137(6)
C1J C 0.1491(4) 0.5686(4) 0.7766(9)
C3J C 0.2421(3) 0.5484(2) 0.5791(6)
C4J C 0.2619(3) 0.5524(3) 0.6579(6)
H2J H 0.2879 0.5516 0.6462
H3J H 0.2558 0.5757 0.6842
H4J H 0.2554 0.5327 0.6967
C5J C 0.1748(3) 0.5758(4) 0.6980(8)
C6J C 0.2040(2) 0.5487(3) 0.5752(7)
Cu1D Cu 0.17036(6) 0.5000 0.72574(16)
O1D O 0.18085(19) 0.3916(2) 0.6778(5)
O2D O 0.1443(2) 0.4643(2) 0.7985(5)
N1D N 0.1843(2) 0.4559(2) 0.6584(5)
O3D O 0.1359(2) 0.4044(2) 0.8137(6)
C1D C 0.1491(4) 0.4314(4) 0.7766(9)
C2D C 0.2599(4) 0.4491(3) 0.5000
H1D H 0.2853 0.4456 0.5000
C3D C 0.2421(3) 0.4516(2) 0.5791(6)
C4D C 0.2619(3) 0.4476(3) 0.6579(6)
H2D H 0.2879 0.4484 0.6462
H3D H 0.2558 0.4243 0.6842
H4D H 0.2554 0.4673 0.6967
C5D C 0.1748(3) 0.4242(4) 0.6980(8)
C6D C 0.2040(2) 0.4513(3) 0.5752(7)
C7D C 0.1846(3) 0.4525(3) 0.5000
C8D C 0.1401(4) 0.4590(6) 0.5000
O4D O 0.2197(3) 0.5000 0.8352(8)
O1M O 0.18085(19) 0.3916(2) 0.3222(5)
O2M O 0.1443(2) 0.4643(2) 0.2015(5)
N1M N 0.1843(2) 0.4559(2) 0.3416(5)
O3M O 0.1359(2) 0.4044(2) 0.1863(6)
C1M C 0.1491(4) 0.4314(4) 0.2234(9)
C3M C 0.2421(3) 0.4516(2) 0.4209(6)
C4M C 0.2619(3) 0.4476(3) 0.3421(6)
H2M H 0.2879 0.4484 0.3538
H3M H 0.2558 0.4243 0.3158
H4M H 0.2554 0.4673 0.3033
C5M C 0.1748(3) 0.4242(4) 0.3020(8)
C6M C 0.2040(2) 0.4513(3) 0.4248(7)
Cu2 Cu 0.25581(4) 0.74419(4) 0.22549(16)
N2 N 0.2363(3) 0.6999(3) 0.1590(7)
O5 O 0.1884(2) 0.6618(3) 0.1641(6)
C9 C 0.2353(4) 0.6978(4) 0.0000
C10 C 0.2057(4) 0.7283(4) 0.0000
C11 C 0.2509(3) 0.6876(4) 0.0771(8)
C12 C 0.2085(5) 0.6898(4) 0.1929(9)
O6 O 0.1649(2) 0.6943(2) 0.3090(5)
C13 C 0.1933(5) 0.7072(4) 0.2721(9)
O7 O 0.2890(2) 0.7110(2) 0.3340(8)
O8 O 0.2113(2) 0.7351(2) 0.2948(6)
C14 C 0.2738(4) 0.6582(4) 0.0791(12)
C15 C 0.2895(6) 0.6417(5) 0.1689(12)
H5 H 0.2780 0.6542 0.2167
H6 H 0.3157 0.6453 0.1714
H7 H 0.2841 0.6158 0.1720
C16 C 0.2845(6) 0.6466(7) 0.0000
H8 H 0.3019 0.6277 0.0000
N2J N 0.2363(3) 0.6999(3) -0.1590(7)
O5J O 0.1884(2) 0.6618(3) -0.1641(6)
C11J C 0.2509(3) 0.6876(4) -0.0771(8)
C12J C 0.2085(5) 0.6898(4) -0.1929(9)
O6J O 0.1649(2) 0.6943(2) -0.3090(5)
C13J C 0.1933(5) 0.7072(4) -0.2721(9)
O8J O 0.2113(2) 0.7351(2) -0.2948(6)
C14J C 0.2738(4) 0.6582(4) -0.0791(12)
C15J C 0.2895(6) 0.6417(5) -0.1689(12)
H5J H 0.2780 0.6542 -0.2167
H6J H 0.3157 0.6453 -0.1714
H7J H 0.2841 0.6158 -0.1720
Cu2G Cu 0.25581(4) 0.74419(4) -0.22549(16)
N2G N 0.3001(3) 0.7637(3) -0.1590(7)
O5G O 0.3382(3) 0.8116(2) -0.1641(6)
C9G C 0.3022(4) 0.7647(4) 0.0000
C10G C 0.2717(4) 0.7943(4) 0.0000
C11G C 0.3124(4) 0.7491(3) -0.0771(8)
C12G C 0.3102(4) 0.7915(5) -0.1929(9)
O6G O 0.3057(2) 0.8351(2) -0.3090(5)
C13G C 0.2928(4) 0.8067(5) -0.2721(9)
O7G O 0.2890(2) 0.7110(2) -0.3340(8)
O8G O 0.2649(2) 0.7887(2) -0.2948(6)
C14G C 0.3418(4) 0.7262(4) -0.0791(12)
C15G C 0.3583(5) 0.7105(6) -0.1689(12)
H5G H 0.3458 0.7220 -0.2167
H6G H 0.3547 0.6843 -0.1714
H7G H 0.3842 0.7159 -0.1720
C16G C 0.3534(7) 0.7155(6) 0.0000
H8G H 0.3723 0.6981 0.0000
N2N N 0.3001(3) 0.7637(3) 0.1590(7)
O5N O 0.3382(3) 0.8116(2) 0.1641(6)
C11N C 0.3124(4) 0.7491(3) 0.0771(8)
C12N C 0.3102(4) 0.7915(5) 0.1929(9)
O6N O 0.3057(2) 0.8351(2) 0.3090(5)
C13N C 0.2928(4) 0.8067(5) 0.2721(9)
O8N O 0.2649(2) 0.7887(2) 0.2948(6)
C14N C 0.3418(4) 0.7262(4) 0.0791(12)
C15N C 0.3583(5) 0.7105(6) 0.1689(12)
H5N H 0.3458 0.7220 0.2167
H6N H 0.3547 0.6843 0.1714
H7N H 0.3842 0.7159 0.1720
Co1 Co 0.14829(7) 0.64503(6) 0.24999(13)
Cu3 Cu 0.0000 0.64859(11) 0.2716(2)
O9 O 0.1009(3) 0.6708(3) 0.1845(7)
O10 O 0.1067(3) 0.6354(3) 0.3354(6)
N3 N 0.0426(3) 0.6335(3) 0.3439(7)
O11 O 0.0384(3) 0.6697(3) 0.1975(6)
C17 C 0.0460(4) 0.5575(4) 0.5000
H9 H 0.0455 0.5318 0.5000
C18 C 0.0463(3) 0.5749(3) 0.4232(9)
C19 C 0.0465(4) 0.6121(4) 0.4225(10)
C20 C 0.0692(4) 0.6633(4) 0.2236(9)
C21 C 0.0446(7) 0.6300(7) 0.5000
C22 C 0.0733(5) 0.6419(5) 0.3072(10)
C23 C 0.0416(6) 0.6731(6) 0.5000
C24 C 0.0530(5) 0.5518(5) 0.3392(10)
H10 H 0.0526 0.5678 0.2896
H11 H 0.0339 0.5336 0.3336
H12 H 0.0765 0.5397 0.3428
O12 O 0.0000 0.7224(5) 0.3253(13)
O13 O 0.0000 0.6027(5) 0.1525(13)
O9J O 0.1009(3) 0.6708(3) 0.8155(7)
O10J O 0.1067(3) 0.6354(3) 0.6646(6)
N3J N 0.0426(3) 0.6335(3) 0.6561(7)
O11J O 0.0384(3) 0.6697(3) 0.8025(6)
C18J C 0.0463(3) 0.5749(3) 0.5768(9)
C19J C 0.0465(4) 0.6121(4) 0.5775(10)
C20J C 0.0692(4) 0.6633(4) 0.7764(9)
C22J C 0.0733(5) 0.6419(5) 0.6928(10)
C24J C 0.0530(5) 0.5518(5) 0.6608(10)
H10J H 0.0526 0.5678 0.7104
H11J H 0.0339 0.5336 0.6664
H12J H 0.0765 0.5397 0.6572
Cu3E Cu 0.0000 0.64859(11) 0.7284(2)
O9E O -0.1009(3) 0.6708(3) 0.8155(7)
O10E O -0.1067(3) 0.6354(3) 0.6646(6)
N3E N -0.0426(3) 0.6335(3) 0.6561(7)
O11E O -0.0384(3) 0.6697(3) 0.8025(6)
C17E C -0.0460(4) 0.5575(4) 0.5000
H9E H -0.0455 0.5318 0.5000
C18E C -0.0463(3) 0.5749(3) 0.5768(9)
C19E C -0.0465(4) 0.6121(4) 0.5775(10)
C20E C -0.0692(4) 0.6633(4) 0.7764(9)
C21E C -0.0446(7) 0.6300(7) 0.5000
C22E C -0.0733(5) 0.6419(5) 0.6928(10)
C23E C -0.0416(6) 0.6731(6) 0.5000
C24E C -0.0530(5) 0.5518(5) 0.6608(10)
H10E H -0.0526 0.5678 0.7104
H11E H -0.0339 0.5336 0.6664
H12E H -0.0765 0.5397 0.6572
O12E O 0.0000 0.7224(5) 0.6747(13)
O13E O 0.0000 0.6027(5) 0.8475(13)
O9L O -0.1009(3) 0.6708(3) 0.1845(7)
O10L O -0.1067(3) 0.6354(3) 0.3354(6)
N3L N -0.0426(3) 0.6335(3) 0.3439(7)
O11L O -0.0384(3) 0.6697(3) 0.1975(6)
C18L C -0.0463(3) 0.5749(3) 0.4232(9)
C19L C -0.0465(4) 0.6121(4) 0.4225(10)
C20L C -0.0692(4) 0.6633(4) 0.2236(9)
C22L C -0.0733(5) 0.6419(5) 0.3072(10)
C24L C -0.0530(5) 0.5518(5) 0.3392(10)
H10L H -0.0526 0.5678 0.2896
H11L H -0.0339 0.5336 0.3336
H12L H -0.0765 0.5397 0.3428
Co2 Co 0.0740(2) 0.5397(2) 0.0000
O14 O 0.0707(4) 0.5792(3) 0.0894(7)
O15 O 0.0835(5) 0.5000 0.1022(11)
O16 O 0.1301(8) 0.5501(6) 0.0000
Co3 Co 0.18960(7) 0.81040(7) 0.5000
O17 O 0.1717(5) 0.7923(6) 0.6275(13)
O18 O 0.2394(7) 0.7876(7) 0.5308(13)
H13? H 0.1972 0.7325 -0.0583
H14? H 0.2160 0.7507 0.0227
H15? H 0.1852 0.7208 0.0356
H16? H 0.0407 0.6819 0.5587
H17? H 0.0195 0.6804 0.4701
H18? H 0.0627 0.6835 0.4712
H19? H 0.1312 0.5412 0.4414
H20? H 0.1284 0.5604 0.5323
H21? H 0.1346 0.5177 0.5264
loop_
_geom_bond_atom_site_label_1
_geom_bond_atom_site_label_2
_geom_bond_site_symmetry_1
_geom_bond_site_symmetry_2
Cu1 O2 1_555 1_555
O1 C5 1_555 1_555
O2 C1 1_555 1_555
N1 Cu1 1_555 1_555
O3 C1 1_555 1_555
C1 C5 1_555 1_555
C2 H1 1_555 1_555
C3 C2 1_555 1_555
C4 C3 1_555 1_555
H2 C4 1_555 1_555
H3 C4 1_555 1_555
H4 C4 1_555 1_555
C5 N1 1_555 1_555
C6 N1 1_555 1_555
C7 C6 1_555 1_555
C8 C7 1_555 1_555
O4 Cu1 1_555 1_555
Cu2 N2 1_555 1_555
N2 C11 1_555 1_555
O5 C12 1_555 1_555
C9 C10 1_555 1_555
C11 C9 1_555 1_555
C12 N2 1_555 1_555
O6 C13 1_555 1_555
C13 C12 1_555 1_555
O7 Cu2 1_555 1_555
O8 Cu2 1_555 1_555
C14 C11 1_555 1_555
C15 C14 1_555 1_555
H5 C15 1_555 1_555
H6 C15 1_555 1_555
H7 C15 1_555 1_555
C16 C14 1_555 1_555
H8 C16 1_555 1_555
Cu3 N3 1_555 1_555
O9 C20 1_555 1_555
O10 C22 1_555 1_555
N3 C19 1_555 1_555
O11 Cu3 1_555 1_555
C17 H9 1_555 1_555
C18 C17 1_555 1_555
C19 C18 1_555 1_555
C20 O11 1_555 1_555
C21 C19 1_555 1_555
C22 N3 1_555 1_555
C23 C21 1_555 1_555
C24 C18 1_555 1_555
H10 C24 1_555 1_555
H11 C24 1_555 1_555
H12 C24 1_555 1_555
O12 Cu3 1_555 1_555
O13 Cu3 1_555 1_555
O1J C5J 1_555 1_555
O2J C1J 1_555 1_555
N1J C5J 1_555 1_555
O3J C1J 1_555 1_555
C1J C5J 1_555 1_555
C3J C2 1_555 1_555
C4J C3J 1_555 1_555
H2J C4J 1_555 1_555
H3J C4J 1_555 1_555
H4J C4J 1_555 1_555
C6J C7 1_555 1_555
Cu1D O2J 1_555 1_555
O1D C5D 1_555 1_555
O2D Cu1D 1_555 1_555
N1D Cu1D 1_555 1_555
O3D C1D 1_555 1_555
C1D O2D 1_555 1_555
C2D H1D 1_555 1_555
C3D C2D 1_555 1_555
C4D C3D 1_555 1_555
H2D C4D 1_555 1_555
H3D C4D 1_555 1_555
H4D C4D 1_555 1_555
C5D N1D 1_555 1_555
C6D N1D 1_555 1_555
C7D C6D 1_555 1_555
C8D C7D 1_555 1_555
O4D Cu1D 1_555 1_555
O1M C5M 1_555 1_555
O2M Cu1 1_555 1_555
N1M Cu1 1_555 1_555
O3M C1M 1_555 1_555
C1M O2M 1_555 1_555
C3M C2D 1_555 1_555
C4M C3M 1_555 1_555
H2M C4M 1_555 1_555
H3M C4M 1_555 1_555
H4M C4M 1_555 1_555
C5M N1M 1_555 1_555
C6M C7D 1_555 1_555
N2J C11J 1_555 1_555
O5J C12J 1_555 1_555
C11J C9 1_555 1_555
C12J N2J 1_555 1_555
O6J C13J 1_555 1_555
C13J C12J 1_555 1_555
O8J C13J 1_555 1_555
C14J C16 1_555 1_555
C15J C14J 1_555 1_555
H5J C15J 1_555 1_555
H6J C15J 1_555 1_555
H7J C15J 1_555 1_555
Cu2G N2J 1_555 1_555
N2G Cu2G 1_555 1_555
O5G C12G 1_555 1_555
C9G C10G 1_555 1_555
C11G N2G 1_555 1_555
C12G N2G 1_555 1_555
O6G C13G 1_555 1_555
C13G C12G 1_555 1_555
O7G Cu2G 1_555 1_555
O8G Cu2G 1_555 1_555
C14G C11G 1_555 1_555
C15G C14G 1_555 1_555
H5G C15G 1_555 1_555
H6G C15G 1_555 1_555
H7G C15G 1_555 1_555
C16G C14G 1_555 1_555
H8G C16G 1_555 1_555
N2N Cu2 1_555 1_555
O5N C12N 1_555 1_555
C11N C9G 1_555 1_555
C12N N2N 1_555 1_555
O6N C13N 1_555 1_555
C13N C12N 1_555 1_555
O8N Cu2 1_555 1_555
C14N C16G 1_555 1_555
C15N C14N 1_555 1_555
H5N C15N 1_555 1_555
H6N C15N 1_555 1_555
H7N C15N 1_555 1_555
O9J C20J 1_555 1_555
O10J C22J 1_555 1_555
N3J C19J 1_555 1_555
O11J C20J 1_555 1_555
C18J C17 1_555 1_555
C19J C21 1_555 1_555
C20J C22J 1_555 1_555
C22J N3J 1_555 1_555
C24J C18J 1_555 1_555
H10J C24J 1_555 1_555
H11J C24J 1_555 1_555
H12J C24J 1_555 1_555
Cu3E N3J 1_555 1_555
O9E C20E 1_555 1_555
O10E C22E 1_555 1_555
N3E Cu3E 1_555 1_555
O11E Cu3E 1_555 1_555
C17E H9E 1_555 1_555
C18E C17E 1_555 1_555
C19E N3E 1_555 1_555
C20E O11E 1_555 1_555
C21E C19E 1_555 1_555
C22E N3E 1_555 1_555
C23E C21E 1_555 1_555
C24E C18E 1_555 1_555
H10E C24E 1_555 1_555
H11E C24E 1_555 1_555
H12E C24E 1_555 1_555
O12E Cu3E 1_555 1_555
O13E Cu3E 1_555 1_555
O9L C20L 1_555 1_555
O10L C22L 1_555 1_555
N3L Cu3 1_555 1_555
O11L Cu3 1_555 1_555
C18L C17E 1_555 1_555
C19L C21E 1_555 1_555
C20L O11L 1_555 1_555
C22L N3L 1_555 1_555
C24L C18L 1_555 1_555
H10L C24L 1_555 1_555
H11L C24L 1_555 1_555
H12L C24L 1_555 1_555
C3 C6 1_555 1_555
C13 O8 1_555 1_555
C20 C22 1_555 1_555
N1J C6J 1_555 1_555
N1J Cu1D 1_555 1_555
C3J C6J 1_555 1_555
C1D C5D 1_555 1_555
C3D C6D 1_555 1_555
N1M C6M 1_555 1_555
C1M C5M 1_555 1_555
C3M C6M 1_555 1_555
C11J C14J 1_555 1_555
O8J Cu2G 1_555 1_555
C9G C11G 1_555 1_555
C13G O8G 1_555 1_555
N2N C11N 1_555 1_555
C11N C14N 1_555 1_555
C13N O8N 1_555 1_555
O11J Cu3E 1_555 1_555
C18J C19J 1_555 1_555
C18E C19E 1_555 1_555
C20E C22E 1_555 1_555
N3L C19L 1_555 1_555
C18L C19L 1_555 1_555
C20L C22L 1_555 1_555

#END
