
#######################################################################
#
#                 Cambridge Crystallographic Data Centre
#                                CCDC 
#
#######################################################################
#
# If this CIF has been generated from an entry in the Cambridge 
# Structural Database, then it will include bibliographic, chemical, 
# crystal, experimental, refinement or atomic coordinate data resulting 
# from the CCDC's data processing and validation procedures.
#
#######################################################################

data_QUHSIW
_chemical_formula_moiety         'C276 H216 Cu18 N12 O90'
_chemical_name_systematic        
"hexakis(\m~4~-9H-carbazole-3,6-dicarboxylato)-dodecakis(\m~4~-biphenyl-3,4'-dicarboxylato)-hexakis(N,N-dimethylacetamide)-dodecaaqua-octadeca-copper unknown solvate"
_symmetry_cell_setting           rhombohedral
_symmetry_space_group_name_H-M   'R -3 c'
_symmetry_Int_Tables_number      167
_space_group_name_Hall           '-R 3 2"c'
loop_
_symmetry_equiv_pos_site_id
_symmetry_equiv_pos_as_xyz
1 x,y,z
2 -y,x-y,z
3 -x+y,-x,z
4 x-y,-y,1/2-z
5 -x,-x+y,1/2-z
6 y,x,1/2-z
7 2/3+x,1/3+y,1/3+z
8 2/3-y,1/3+x-y,1/3+z
9 2/3-x+y,1/3-x,1/3+z
10 2/3+x-y,1/3-y,5/6-z
11 2/3-x,1/3-x+y,5/6-z
12 2/3+y,1/3+x,5/6-z
13 1/3+x,2/3+y,2/3+z
14 1/3-y,2/3+x-y,2/3+z
15 1/3-x+y,2/3-x,2/3+z
16 1/3+x-y,2/3-y,1/6-z
17 1/3-x,2/3-x+y,1/6-z
18 1/3+y,2/3+x,1/6-z
19 -x,-y,-z
20 y,-x+y,-z
21 x-y,x,-z
22 -x+y,y,1/2+z
23 x,x-y,1/2+z
24 -y,-x,1/2+z
25 1/3-x,2/3-y,2/3-z
26 1/3+y,2/3-x+y,2/3-z
27 1/3+x-y,2/3+x,2/3-z
28 1/3-x+y,2/3+y,1/6+z
29 1/3+x,2/3+x-y,1/6+z
30 1/3-y,2/3-x,1/6+z
31 2/3-x,1/3-y,1/3-z
32 2/3+y,1/3-x+y,1/3-z
33 2/3+x-y,1/3+x,1/3-z
34 2/3-x+y,1/3+y,5/6+z
35 2/3+x,1/3+x-y,5/6+z
36 2/3-y,1/3-x,5/6+z
_cell_length_a                   33.423(7)
_cell_length_b                   33.423(7)
_cell_length_c                   107.88(2)
_cell_angle_alpha                90
_cell_angle_beta                 90
_cell_angle_gamma                120
_cell_volume                     104367
_exptl_crystal_colour            'blue green'
_exptl_crystal_description       block
_cell_formula_units_Z            6
loop_
_atom_site_label
_atom_site_type_symbol
_atom_site_fract_x
_atom_site_fract_y
_atom_site_fract_z
Cu1 Cu 0.430243(12) 0.100541(12) -0.024291(3)
Cu2 Cu 0.494393(11) 0.164618(11) -0.010210(3)
Cu3 Cu 0.6667 0.062608(15) 0.0833
Cu4 Cu 0.6667 0.141227(15) 0.0833
O1 O 0.48124(6) 0.10621(6) -0.034181(16)
O2 O 0.53740(6) 0.15944(6) -0.021894(16)
O3 O 0.43710(6) 0.05684(6) -0.013263(17)
O4 O 0.48946(6) 0.11210(6) -0.000507(16)
O5 O 0.38678(7) 0.10192(7) -0.012300(19)
O6 O 0.44165(6) 0.15960(6) -0.000664(17)
O7 O 0.72067(6) 0.09633(7) 0.072360(17)
O8 O 0.71217(6) 0.15840(7) 0.070130(18)
O9 O 0.62695(7) 0.04859(6) 0.068740(16)
O10 O 0.61686(6) 0.10906(6) 0.071006(18)
O11 O 0.43294(6) 0.15263(7) -0.033370(19)
O12 O 0.48963(6) 0.20812(6) -0.021570(17)
O13 O 0.37695(6) 0.04722(6) -0.035120(13)
O14 O 0.54476(7) 0.21613(6) 0.00171(2)
H1 H 0.5753 0.2259 0.0029
H2 H 0.5562 0.2466 0.0012
O15 O 0.6667 -0.00089(8) 0.0833
H3 H 0.6524 -0.0255 0.0775
O16 O 0.6667 0.20429(9) 0.0833
H4 H 0.6669 0.2226 0.0778
N1 N 0.66353(12) 0.13686(12) -0.06019(3)
H5 H 0.6631 0.1213 -0.0668
C1 C 0.52240(10) 0.13280(9) -0.03105(2)
C2 C 0.55946(11) 0.13321(9) -0.03913(2)
C3 C 0.54722(12) 0.10455(10) -0.04969(3)
H6 H 0.5154 0.0852 -0.0516
C4 C 0.57993(13) 0.10365(13) -0.05740(3)
H7 H 0.5713 0.0834 -0.0643
C5 C 0.62439(13) 0.13272(14) -0.05463(3)
C6 C 0.63929(10) 0.16037(10) -0.04389(3)
C7 C 0.60529(10) 0.16020(9) -0.03640(2)
H8 H 0.6142 0.1793 -0.0292
C8 C 0.68750(11) 0.18243(10) -0.04389(3)
C9 C 0.72355(10) 0.21570(10) -0.03601(3)
H9 H 0.7155 0.2265 -0.0288
C10 C 0.76881(10) 0.23188(11) -0.03867(3)
C11 C 0.78138(12) 0.21486(13) -0.04889(3)
H10 H 0.8130 0.2253 -0.0506
C12 C 0.74730(14) 0.18268(15) -0.05652(4)
H11 H 0.7557 0.1711 -0.0635
C13 C 0.70228(13) 0.16750(14) -0.05426(4)
C14 C 0.46129(11) 0.19342(11) -0.03072(3)
C15 C 0.46280(9) 0.07127(9) -0.00366(2)
C16 C 0.46260(10) 0.03457(10) 0.00459(3)
C17 C 0.43467(11) -0.01192(10) 0.00145(3)
H12 H 0.4154 -0.0210 -0.0057
C18 C 0.43624(12) -0.04339(11) 0.00894(4)
H13 H 0.4190 -0.0752 0.0069
C19 C 0.46306(13) -0.02972(11) 0.01978(3)
H14 H 0.4617 -0.0528 0.0252
C20 C 0.49082(10) 0.01548(9) 0.02276(3)
C21 C 0.48967(9) 0.04741(9) 0.01495(2)
H15 H 0.5082 0.0793 0.0168
C22 C 0.52141(10) 0.03008(9) 0.03393(3)
C23 C 0.54252(10) 0.00652(9) 0.03748(3)
H16 H 0.5372 -0.0201 0.0329
C24 C 0.57202(11) 0.02058(10) 0.04771(3)
H17 H 0.5879 0.0045 0.0498
C25 C 0.57846(9) 0.05790(9) 0.05494(3)
C26 C 0.55654(10) 0.08094(10) 0.05114(3)
H18 H 0.5609 0.1072 0.0556
C27 C 0.52799(11) 0.06664(11) 0.04079(3)
H19 H 0.5127 0.0830 0.0385
C28 C 0.60918(10) 0.07281(9) 0.06601(3)
C29 C 0.40208(11) 0.12933(11) -0.00341(3)
C30 C 0.36415(12) 0.12562(14) 0.00566(4)
C31 C 0.31752(15) 0.0986(2) 0.00234(5)
H20 H 0.3084 0.0854 -0.0057
C32 C 0.28519(17) 0.0923(2) 0.01146(6)
H21 H 0.2533 0.0724 0.0098
C33 C 0.29884(16) 0.1148(2) 0.02321(5)
H22 H 0.2776 0.1063 0.0299
C34 C 0.34360(11) 0.14903(16) 0.02443(4)
C35 C 0.37548(11) 0.15285(12) 0.01628(3)
H23 H 0.4070 0.1749 0.0178
C36 C 0.35739(11) 0.17768(15) 0.03615(4)
C37 C 0.32906(13) 0.18361(15) 0.04317(4)
H24 H 0.2970 0.1663 0.0414
C38 C 0.34325(12) 0.21387(13) 0.05313(3)
H25 H 0.3210 0.2181 0.0575
C39 C 0.38791(10) 0.23740(12) 0.05669(3)
C40 C 0.41457(14) 0.22522(18) 0.05108(4)
H26 H 0.4446 0.2357 0.0543
C41 C 0.40125(15) 0.1977(2) 0.04064(5)
H27 H 0.4233 0.1927 0.0365
C42 C 0.72933(9) 0.13422(10) 0.06751(3)
N2 N 0.29155(17) 0.00146(13) -0.036604(12)
C43 C 0.3172(2) 0.07434(18) -0.03204(2)
H28 H 0.3310 0.0917 -0.0244
H29 H 0.2836 0.0561 -0.0311
H30 H 0.3248 0.0959 -0.0390
C44 C 0.33568(17) 0.04306(19) -0.034581(18)
C45 C 0.2446(2) -0.0054(3) -0.03614(3)
H31 H 0.2428 0.0139 -0.0296
H32 H 0.2224 -0.0379 -0.0344
H33 H 0.2372 0.0034 -0.0441
C46 C 0.3116(3) -0.0279(3) -0.03906(3)
H34 H 0.3415 -0.0097 -0.0432
H35 H 0.2908 -0.0536 -0.0444
H36 H 0.3158 -0.0401 -0.0312
Cu1B Cu 0.670298(17) 0.569757(12) -0.024291(3)
Cu1A Cu 0.899459(12) 0.329702(17) -0.024291(3)
Cu1P Cu 0.903090(12) 0.336965(17) 0.190958(3)
Cu1O Cu 0.663035(17) 0.566126(12) 0.190958(3)
Cu1Q Cu 0.433874(12) 0.096910(12) 0.190958(3)
Cu2B Cu 0.670225(16) 0.505607(11) -0.010210(3)
Cu2A Cu 0.835382(11) 0.329775(16) -0.010210(3)
Cu2P Cu 0.838940(11) 0.336892(16) 0.176877(3)
Cu2O Cu 0.663108(16) 0.502049(11) 0.176877(3)
Cu2Q Cu 0.497951(11) 0.161060(11) 0.176877(3)
Cu3Q Cu 0.395941(15) 0.3334 0.0834
Cu3O Cu 0.937425(15) 0.604059(15) 0.0834
Cu4Q Cu 0.474560(15) 0.3334 0.0834
Cu4O Cu 0.858806(15) 0.525440(15) 0.0834
O1B O 0.62497(8) 0.51876(6) -0.034181(16)
O1A O 0.89379(6) 0.37503(8) -0.034181(16)
O1P O 0.85209(6) 0.29164(8) 0.200848(16)
O1O O 0.70836(8) 0.56046(6) 0.200848(16)
O1Q O 0.43954(6) 0.14791(6) 0.200848(16)
O2B O 0.62204(8) 0.46260(6) -0.021894(16)
O2A O 0.84056(6) 0.37796(8) -0.021894(16)
O2P O 0.79593(6) 0.28871(8) 0.188561(16)
O2O O 0.71129(8) 0.50723(6) 0.188561(16)
O2Q O 0.49277(6) 0.20407(6) 0.188561(16)
O3B O 0.61974(8) 0.56290(6) -0.013263(17)
O3A O 0.94316(6) 0.38026(8) -0.013263(17)
O3P O 0.89623(6) 0.28641(8) 0.179930(17)
O3O O 0.71359(8) 0.60983(6) 0.179930(17)
O3Q O 0.39017(6) 0.10377(6) 0.179930(17)
O4B O 0.62264(8) 0.51054(6) -0.000507(16)
O4A O 0.88790(6) 0.37736(8) -0.000507(16)
O4P O 0.84387(6) 0.28931(8) 0.167174(16)
O4O O 0.71069(8) 0.55457(6) 0.167174(16)
O4Q O 0.44543(6) 0.15613(6) 0.167174(16)
O5B O 0.71514(10) 0.61322(7) -0.012300(19)
O5A O 0.89808(7) 0.28486(10) -0.012300(19)
O5P O 0.94655(7) 0.38181(10) 0.178967(19)
O5O O 0.61819(10) 0.56475(7) 0.178967(19)
O5Q O 0.43525(7) 0.05345(7) 0.178967(19)
O6B O 0.71795(8) 0.55835(6) -0.000664(17)
O6A O 0.84040(6) 0.28205(8) -0.000664(17)
O6P O 0.89168(6) 0.38462(8) 0.167331(17)
O6O O 0.61538(8) 0.50707(6) 0.167331(17)
O6Q O 0.49293(6) 0.10832(6) 0.167331(17)
O7P O 0.61266(6) 0.04233(9) 0.094307(17)
O7Q O 0.42966(7) 0.38734(6) 0.094307(17)
O7B O 0.37566(9) 0.27933(6) 0.072360(17)
O7O O 0.95767(9) 0.57034(7) 0.094307(17)
O7A O 0.90367(7) 0.62434(9) 0.072360(17)
O8P O 0.62116(6) 0.11290(9) 0.096537(18)
O8Q O 0.49173(7) 0.37884(6) 0.096537(18)
O8B O 0.44623(9) 0.28783(6) 0.070130(18)
O8O O 0.88710(9) 0.50827(7) 0.096537(18)
O8A O 0.84160(7) 0.55377(9) 0.070130(18)
O9P O 0.70638(7) 0.08831(9) 0.097927(16)
O9Q O 0.38192(6) 0.29362(7) 0.097927(16)
O9B O 0.42164(9) 0.37305(7) 0.068740(16)
O9O O 0.91169(9) 0.61808(6) 0.097927(16)
O9A O 0.95141(6) 0.57836(9) 0.068740(16)
O10P O 0.71647(6) 0.15887(8) 0.095661(18)
O10B O 0.49220(8) 0.38314(6) 0.071006(18)
O10Q O 0.44239(6) 0.28353(6) 0.095661(18)
O10A O 0.89094(6) 0.50780(8) 0.071006(18)
O10O O 0.84113(8) 0.55761(6) 0.095661(18)
O11B O 0.71969(9) 0.56706(6) -0.033370(19)
O11A O 0.84737(7) 0.28031(9) -0.033370(19)
O11P O 0.90039(6) 0.38636(9) 0.200037(19)
O11O O 0.61364(9) 0.51404(7) 0.200037(19)
O11Q O 0.48596(7) 0.09961(6) 0.200037(19)
O12B O 0.71849(8) 0.51037(6) -0.021570(17)
O12A O 0.79188(6) 0.28151(8) -0.021570(17)
O12P O 0.84370(6) 0.38516(8) 0.188237(17)
O12O O 0.61484(8) 0.45855(6) 0.188237(17)
O12Q O 0.54145(6) 0.15630(6) 0.188237(17)
O13A O 0.95278(6) 0.32973(8) -0.035120(13)
O13Q O 0.38055(6) 0.04362(6) 0.201787(13)
O13O O 0.66306(8) 0.61945(6) 0.201787(13)
O13P O 0.95638(6) 0.33694(8) 0.201787(13)
O13B O 0.67027(8) 0.62305(6) -0.035120(13)
O14B O 0.67137(9) 0.45524(7) 0.00171(2)
O14A O 0.78387(6) 0.32863(9) 0.00171(2)
O14P O 0.78857(7) 0.33804(9) 0.16496(2)
O14O O 0.66196(9) 0.45054(6) 0.16496(2)
O14Q O 0.54946(6) 0.21143(7) 0.16496(2)
H1B H 0.6506 0.4247 0.0029
H1A H 0.7741 0.3494 0.0029
H1P H 0.7580 0.3173 0.1638
H1O H 0.6827 0.4408 0.1638
H1Q H 0.5592 0.2420 0.1638
H2B H 0.6904 0.4438 0.0012
H2A H 0.7534 0.3096 0.0012
H2P H 0.7771 0.3571 0.1655
H2O H 0.6429 0.4201 0.1655
H2Q H 0.5799 0.2229 0.1655
O15Q O 0.33244(8) 0.3334 0.0834
O15O O 1.00092(8) 0.66756(8) 0.0834
H3Q H 0.3078 0.3191 0.0892
H3B H 0.3221 0.3476 0.0775
H3O H 1.0112 0.6922 0.0892
H3A H 1.0255 0.6779 0.0775
H3P H 0.6809 -0.0112 0.0892
O16Q O 0.53762(9) 0.3334 0.0834
O16O O 0.79574(9) 0.46238(9) 0.0834
H4P H 0.6664 0.2224 0.0889
H4Q H 0.5559 0.3336 0.0889
H4B H 0.5557 0.3331 0.0778
H4O H 0.7776 0.4441 0.0889
H4A H 0.7774 0.4443 0.0778
N1B N 0.47333(17) 0.33647(12) -0.06019(3)
N1A N 0.86314(12) 0.52667(17) -0.06019(3)
N1O N 0.86000(17) 0.52981(12) 0.22686(3)
N1Q N 0.47019(12) 0.33020(12) 0.22686(3)
N1P N 0.66980(12) 0.14000(17) 0.22686(3)
H5B H 0.4582 0.3369 -0.0668
H5A H 0.8787 0.5418 -0.0668
H5O H 0.8751 0.5454 0.2335
H5Q H 0.4546 0.3298 0.2335
H5P H 0.6702 0.1249 0.2335
C1B C 0.61040(13) 0.47760(10) -0.03105(2)
C1A C 0.86720(9) 0.38960(13) -0.03105(2)
C1P C 0.81093(10) 0.27707(13) 0.19772(2)
C1O C 0.72293(13) 0.53387(9) 0.19772(2)
C1Q C 0.46613(9) 0.18907(10) 0.19772(2)
C2B C 0.57375(14) 0.44054(11) -0.03913(2)
C2A C 0.86679(9) 0.42625(14) -0.03913(2)
C2O C 0.75958(14) 0.53346(9) 0.20580(2)
C2Q C 0.46654(9) 0.22613(11) 0.20580(2)
C2P C 0.77387(11) 0.24042(14) 0.20580(2)
C3B C 0.55733(16) 0.45278(12) -0.04969(3)
C3A C 0.89545(10) 0.44267(16) -0.04969(3)
C3O C 0.77600(16) 0.56212(10) 0.21636(3)
C3Q C 0.43788(10) 0.21389(12) 0.21636(3)
C3P C 0.78611(12) 0.22400(16) 0.21636(3)
H6P H 0.8179 0.2365 0.2183
H6Q H 0.4185 0.1821 0.2183
H6O H 0.7635 0.5815 0.2183
H6A H 0.9148 0.4302 -0.0516
H6B H 0.5698 0.4846 -0.0516
C4B C 0.52372(18) 0.42007(13) -0.05740(3)
C4A C 0.89635(13) 0.47628(18) -0.05740(3)
C4O C 0.80961(18) 0.56302(13) 0.22407(3)
C4Q C 0.43698(13) 0.24660(13) 0.22407(3)
C4P C 0.75340(13) 0.19039(18) 0.22407(3)
H7P H 0.7620 0.1788 0.2310
H7Q H 0.4167 0.2380 0.2310
H7O H 0.8212 0.5833 0.2310
H7A H 0.9166 0.4879 -0.0643
H7B H 0.5121 0.4287 -0.0643
C5B C 0.50833(19) 0.37561(13) -0.05463(3)
C5A C 0.86728(14) 0.49167(19) -0.05463(3)
C5O C 0.82500(19) 0.53395(14) 0.22130(3)
C5Q C 0.46605(14) 0.29106(13) 0.22130(3)
C5P C 0.70894(13) 0.17500(19) 0.22130(3)
C6B C 0.52108(14) 0.36071(10) -0.04389(3)
C6A C 0.83963(10) 0.47892(14) -0.04389(3)
C6O C 0.81225(14) 0.50630(10) 0.21056(3)
C6Q C 0.49370(10) 0.30596(10) 0.21056(3)
C6P C 0.69404(10) 0.18775(14) 0.21056(3)
C7P C 0.72804(10) 0.22158(13) 0.20307(2)
C7Q C 0.49353(9) 0.27196(10) 0.20307(2)
C7O C 0.77842(13) 0.50647(9) 0.20307(2)
C7A C 0.83980(9) 0.44509(13) -0.03640(2)
C7B C 0.55491(13) 0.39471(10) -0.03640(2)
H8P H 0.7191 0.2318 0.1959
H8Q H 0.5126 0.2809 0.1959
H8O H 0.7682 0.4874 0.1959
H8A H 0.8207 0.4349 -0.0292
H8B H 0.5651 0.3858 -0.0292
C8B C 0.49493(15) 0.31250(11) -0.04389(3)
C8A C 0.81757(10) 0.50507(15) -0.04389(3)
C8O C 0.83840(15) 0.48424(10) 0.21056(3)
C8Q C 0.51576(10) 0.35417(11) 0.21056(3)
C8P C 0.64583(11) 0.16160(15) 0.21056(3)
C9B C 0.49215(14) 0.27645(10) -0.03601(3)
C9A C 0.78430(10) 0.50785(14) -0.03601(3)
C9O C 0.84118(14) 0.45097(10) 0.20268(3)
C9Q C 0.54903(10) 0.39022(10) 0.20268(3)
C9P C 0.60978(10) 0.15882(14) 0.20268(3)
H9P H 0.6178 0.1777 0.1955
H9Q H 0.5598 0.3822 0.1955
H9O H 0.8223 0.4402 0.1955
H9A H 0.7735 0.4890 -0.0288
H9B H 0.5110 0.2845 -0.0288
C10B C 0.46307(15) 0.23119(10) -0.03867(3)
C10A C 0.76812(11) 0.53693(15) -0.03867(3)
C10O C 0.87026(15) 0.43479(11) 0.20534(3)
C10Q C 0.56521(11) 0.43548(10) 0.20534(3)
C10P C 0.56452(10) 0.12974(15) 0.20534(3)
C11B C 0.43348(18) 0.21862(12) -0.04889(3)
C11A C 0.78514(13) 0.56652(18) -0.04889(3)
C11O C 0.89985(18) 0.45181(13) 0.21556(3)
C11Q C 0.54819(13) 0.44805(12) 0.21556(3)
C11P C 0.55195(12) 0.10015(18) 0.21556(3)
H10B H 0.4123 0.1870 -0.0506
H10A H 0.7747 0.5877 -0.0506
H10O H 0.9210 0.4414 0.2173
H10Q H 0.5586 0.4797 0.2173
H10P H 0.5203 0.0790 0.2173
C12B C 0.43538(21) 0.25270(14) -0.05652(4)
C12A C 0.81732(15) 0.56462(21) -0.05652(4)
C12O C 0.89795(21) 0.48399(15) 0.22319(4)
C12Q C 0.51601(15) 0.41397(14) 0.22319(4)
C12P C 0.58603(14) 0.10205(21) 0.22319(4)
H11B H 0.4154 0.2443 -0.0635
H11A H 0.8289 0.5846 -0.0635
H11O H 0.9179 0.4956 0.2302
H11Q H 0.5044 0.4224 0.2302
H11P H 0.5776 0.0821 0.2302
C13B C 0.46522(19) 0.29772(13) -0.05426(4)
C13A C 0.83250(14) 0.53478(19) -0.05426(4)
C13O C 0.86811(19) 0.49917(14) 0.22093(4)
C13Q C 0.50083(14) 0.36895(13) 0.22093(4)
C13P C 0.63105(13) 0.13189(19) 0.22093(4)
C14B C 0.73213(16) 0.53871(11) -0.03072(3)
C14A C 0.80658(11) 0.26787(16) -0.03072(3)
C14P C 0.87204(11) 0.39880(16) 0.19739(3)
C14O C 0.60120(16) 0.47325(11) 0.19739(3)
C14Q C 0.52675(11) 0.12796(11) 0.19739(3)
C15B C 0.60847(13) 0.53720(9) -0.00366(2)
C15A C 0.92873(9) 0.39153(13) -0.00366(2)
C15P C 0.87053(9) 0.27514(13) 0.17033(2)
C15O C 0.72486(13) 0.59540(9) 0.17033(2)
C15Q C 0.40460(9) 0.12947(9) 0.17033(2)
C16P C 0.87073(10) 0.23864(14) 0.16208(3)
C16Q C 0.36790(10) 0.12927(10) 0.16208(3)
C16B C 0.57197(14) 0.53740(10) 0.00459(3)
C16O C 0.76136(14) 0.63210(10) 0.16208(3)
C16A C 0.96543(10) 0.42803(14) 0.00459(3)
C17P C 0.89866(11) 0.22008(15) 0.16522(3)
C17Q C 0.32141(10) 0.10134(11) 0.16522(3)
C17B C 0.55341(15) 0.56533(11) 0.00145(3)
C17O C 0.77992(15) 0.67859(10) 0.16522(3)
C17A C 1.01192(10) 0.44659(15) 0.00145(3)
H12Q H 0.3123 0.0821 0.1724
H12B H 0.5636 0.5846 -0.0057
H12O H 0.7697 0.6877 0.1724
H12A H 1.0210 0.4364 -0.0057
H12P H 0.9179 0.2303 0.1724
C18P C 0.89709(12) 0.18704(16) 0.15773(4)
C18Q C 0.28994(11) 0.10291(12) 0.15773(4)
C18B C 0.52037(16) 0.56376(12) 0.00894(4)
C18O C 0.81296(16) 0.71006(11) 0.15773(4)
C18A C 1.04339(11) 0.47963(16) 0.00894(4)
H13Q H 0.2581 0.0857 0.1598
H13B H 0.5058 0.5810 0.0069
H13O H 0.8275 0.7419 0.1598
H13A H 1.0752 0.4942 0.0069
H13P H 0.9143 0.1725 0.1598
C19P C 0.87027(13) 0.17389(17) 0.14689(3)
C19Q C 0.30361(11) 0.12973(13) 0.14689(3)
C19B C 0.50722(17) 0.53694(13) 0.01978(3)
C19O C 0.82611(17) 0.69639(11) 0.14689(3)
C19A C 1.02972(11) 0.49278(17) 0.01978(3)
H14Q H 0.2805 0.1284 0.1415
H14B H 0.4855 0.5383 0.0252
H14O H 0.8478 0.7195 0.1415
H14A H 1.0528 0.5145 0.0252
H14P H 0.8716 0.1522 0.1415
C20P C 0.84251(10) 0.19133(13) 0.14391(3)
C20Q C 0.34881(9) 0.15749(10) 0.14391(3)
C20B C 0.52466(13) 0.50918(10) 0.02276(3)
C20O C 0.80867(13) 0.65119(9) 0.14391(3)
C20A C 0.98452(9) 0.47534(13) 0.02276(3)
C21Q C 0.38074(9) 0.15634(9) 0.15172(2)
C21B C 0.55774(13) 0.51033(9) 0.01495(2)
C21O C 0.77559(13) 0.61926(9) 0.15172(2)
C21A C 0.95259(9) 0.44226(13) 0.01495(2)
C21P C 0.84366(9) 0.22441(13) 0.15172(2)
H15Q H 0.4126 0.1749 0.1499
H15B H 0.5711 0.4918 0.0168
H15O H 0.7622 0.5874 0.1499
H15A H 0.9207 0.4289 0.0168
H15P H 0.8251 0.2378 0.1499
C22P C 0.81192(10) 0.17534(13) 0.13274(3)
C22Q C 0.36341(9) 0.18808(10) 0.13274(3)
C22B C 0.50867(13) 0.47859(10) 0.03393(3)
C22O C 0.82466(13) 0.63659(9) 0.13274(3)
C22A C 0.96992(9) 0.49133(13) 0.03393(3)
C23P C 0.79081(10) 0.13067(13) 0.12919(3)
C23Q C 0.33985(9) 0.20919(10) 0.12919(3)
C23B C 0.46400(13) 0.45748(10) 0.03748(3)
C23O C 0.86933(13) 0.66015(9) 0.12919(3)
C23A C 0.99348(9) 0.53600(13) 0.03748(3)
H16Q H 0.3132 0.2039 0.1338
H16B H 0.4427 0.4628 0.0329
H16O H 0.8906 0.6868 0.1338
H16A H 1.0201 0.5573 0.0329
H16P H 0.7961 0.1094 0.1338
C24P C 0.76131(11) 0.11523(15) 0.11896(3)
C24Q C 0.35391(10) 0.23869(11) 0.11896(3)
C24B C 0.44856(15) 0.42798(11) 0.04771(3)
C24O C 0.88477(15) 0.64609(10) 0.11896(3)
C24A C 0.97942(10) 0.55144(15) 0.04771(3)
H17Q H 0.3378 0.2546 0.1169
H17B H 0.4166 0.4121 0.0498
H17O H 0.9167 0.6622 0.1169
H17A H 0.9955 0.5834 0.0498
H17P H 0.7454 0.0833 0.1169
C25P C 0.75487(9) 0.14611(13) 0.11173(3)
C25Q C 0.39123(9) 0.24513(9) 0.11173(3)
C25B C 0.47944(13) 0.42154(9) 0.05494(3)
C25O C 0.85389(13) 0.60877(9) 0.11173(3)
C25A C 0.94210(9) 0.52056(13) 0.05494(3)
C26Q C 0.41427(10) 0.22321(10) 0.11553(3)
C26B C 0.52440(14) 0.44346(10) 0.05114(3)
C26O C 0.80893(14) 0.58573(10) 0.11553(3)
C26A C 0.91906(10) 0.47560(14) 0.05114(3)
C26P C 0.77679(10) 0.19107(14) 0.11553(3)
H18Q H 0.4405 0.2276 0.1111
H18B H 0.5463 0.4391 0.0556
H18O H 0.7870 0.5595 0.1111
H18A H 0.8928 0.4537 0.0556
H18P H 0.7724 0.2130 0.1111
C27Q C 0.39997(11) 0.19466(11) 0.12588(3)
C27B C 0.53865(16) 0.47201(11) 0.04079(3)
C27O C 0.79468(16) 0.60003(11) 0.12588(3)
C27A C 0.93336(11) 0.46135(16) 0.04079(3)
C27P C 0.80534(11) 0.20532(16) 0.12588(3)
H19Q H 0.4163 0.1794 0.1282
H19B H 0.5703 0.4873 0.0385
H19O H 0.7630 0.5837 0.1282
H19A H 0.9170 0.4297 0.0385
H19P H 0.8206 0.2370 0.1282
C28P C 0.72415(10) 0.13030(13) 0.10066(3)
C28Q C 0.40614(9) 0.27585(10) 0.10066(3)
C28B C 0.46363(13) 0.39082(10) 0.06601(3)
C28O C 0.86970(13) 0.59386(9) 0.10066(3)
C28A C 0.92719(9) 0.53637(13) 0.06601(3)
C29B C 0.72725(16) 0.59792(11) -0.00341(3)
C29A C 0.87067(11) 0.27275(16) -0.00341(3)
C29P C 0.93125(11) 0.39392(16) 0.17008(3)
C29O C 0.60608(16) 0.53734(11) 0.17008(3)
C29Q C 0.46266(11) 0.06875(11) 0.17008(3)
C30A C 0.87438(14) 0.23853(18) 0.00566(4)
C30Q C 0.45895(14) 0.03082(12) 0.16101(4)
C30O C 0.57186(18) 0.54105(14) 0.16101(4)
C30B C 0.76147(18) 0.63585(12) 0.00566(4)
C30P C 0.96918(12) 0.42814(18) 0.16101(4)
C31A C 0.9014(2) 0.21892(25) 0.00234(5)
C31Q C 0.4319(2) -0.01581(15) 0.16433(5)
C31O C 0.55225(25) 0.5681(2) 0.16433(5)
C31B C 0.78108(25) 0.68248(15) 0.00234(5)
C31P C 1.01581(15) 0.44775(25) 0.16433(5)
H20A H 0.9146 0.2230 -0.0057
H20Q H 0.4187 -0.0249 0.1724
H20O H 0.5563 0.5813 0.1724
H20B H 0.7770 0.6916 -0.0057
H20P H 1.0249 0.4437 0.1724
C32A C 0.9077(2) 0.19289(26) 0.01146(6)
C32Q C 0.4256(2) -0.04814(17) 0.15521(6)
C32O C 0.52622(26) 0.5744(2) 0.15521(6)
C32B C 0.80711(26) 0.71481(17) 0.01146(6)
C32P C 1.04814(17) 0.47378(26) 0.15521(6)
H21A H 0.9276 0.1809 0.0098
H21Q H 0.4057 -0.0800 0.1569
H21O H 0.5142 0.5943 0.1569
H21B H 0.8191 0.7467 0.0098
H21P H 1.0800 0.4858 0.1569
C33A C 0.8852(2) 0.18404(26) 0.02321(5)
C33Q C 0.4481(2) -0.03449(16) 0.14346(5)
C33O C 0.51737(26) 0.5519(2) 0.14346(5)
C33B C 0.81596(26) 0.70116(16) 0.02321(5)
C33P C 1.03449(16) 0.48263(26) 0.14346(5)
H22A H 0.8937 0.1713 0.0299
H22Q H 0.4396 -0.0557 0.1368
H22O H 0.5046 0.5604 0.1368
H22B H 0.8287 0.7224 0.0299
H22P H 1.0557 0.4954 0.1368
C34A C 0.85097(16) 0.19457(19) 0.02443(4)
C34Q C 0.48236(16) 0.01027(11) 0.14224(4)
C34O C 0.52790(19) 0.51764(16) 0.14224(4)
C34B C 0.80543(19) 0.65640(11) 0.02443(4)
C34P C 0.98973(11) 0.47210(19) 0.14224(4)
C35A C 0.84715(12) 0.22263(16) 0.01628(3)
C35Q C 0.48618(12) 0.04215(11) 0.15039(3)
C35O C 0.55596(16) 0.51382(12) 0.15039(3)
C35B C 0.77737(16) 0.62452(11) 0.01628(3)
C35P C 0.95785(11) 0.44404(16) 0.15039(3)
H23A H 0.8251 0.2321 0.0178
H23Q H 0.5082 0.0737 0.1489
H23O H 0.5654 0.4918 0.1489
H23B H 0.7679 0.5930 0.0178
H23P H 0.9263 0.4346 0.1489
C36A C 0.82232(15) 0.17971(19) 0.03615(4)
C36Q C 0.51101(15) 0.02406(11) 0.13052(4)
C36O C 0.51304(19) 0.48899(15) 0.13052(4)
C36B C 0.82029(19) 0.64261(11) 0.03615(4)
C36P C 0.97594(11) 0.48696(19) 0.13052(4)
C37A C 0.81639(15) 0.14545(20) 0.04317(4)
C37Q C 0.51694(15) -0.00427(13) 0.12350(4)
C37O C 0.47878(20) 0.48306(15) 0.12350(4)
C37B C 0.85455(20) 0.67094(13) 0.04317(4)
C37P C 1.00427(13) 0.52122(20) 0.12350(4)
H24A H 0.8337 0.1307 0.0414
H24Q H 0.4996 -0.0363 0.1253
H24O H 0.4640 0.5004 0.1253
H24B H 0.8693 0.7030 0.0414
H24P H 1.0363 0.5360 0.1253
C38A C 0.78613(13) 0.12938(18) 0.05313(3)
C38Q C 0.54720(13) 0.00992(12) 0.11354(3)
C38O C 0.46271(18) 0.45280(13) 0.11354(3)
C38B C 0.87062(18) 0.65675(12) 0.05313(3)
C38P C 0.99008(12) 0.53729(18) 0.11354(3)
H25A H 0.7819 0.1029 0.0575
H25Q H 0.5514 -0.0123 0.1092
H25O H 0.4362 0.4486 0.1092
H25B H 0.8971 0.6790 0.0575
H25P H 1.0123 0.5638 0.1092
C39A C 0.76260(12) 0.15051(16) 0.05669(3)
C39Q C 0.57073(12) 0.05458(10) 0.10998(3)
C39O C 0.48384(16) 0.42927(12) 0.10998(3)
C39B C 0.84949(16) 0.61209(10) 0.05669(3)
C39P C 0.94542(10) 0.51616(16) 0.10998(3)
C40A C 0.77478(18) 0.18935(23) 0.05108(4)
C40Q C 0.55855(18) 0.08124(14) 0.11559(4)
C40O C 0.52268(23) 0.44145(18) 0.11559(4)
C40B C 0.81065(23) 0.58543(14) 0.05108(4)
C40P C 0.91876(14) 0.47732(23) 0.11559(4)
H26A H 0.7643 0.2089 0.0543
H26Q H 0.5690 0.1113 0.1124
H26O H 0.5422 0.4310 0.1124
H26B H 0.7911 0.5554 0.0543
H26P H 0.8887 0.4578 0.1124
C41A C 0.8023(2) 0.20355(25) 0.04064(5)
C41Q C 0.5310(2) 0.06792(15) 0.12603(5)
C41O C 0.53688(25) 0.4690(2) 0.12603(5)
C41B C 0.79645(25) 0.59875(15) 0.04064(5)
C41P C 0.93208(15) 0.46312(25) 0.12603(5)
H27A H 0.8073 0.2306 0.0365
H27Q H 0.5260 0.0900 0.1302
H27O H 0.5639 0.4740 0.1302
H27B H 0.7694 0.5767 0.0365
H27P H 0.9100 0.4361 0.1302
C42P C 0.60400(9) 0.07156(13) 0.09916(3)
C42Q C 0.46755(10) 0.39600(9) 0.09916(3)
C42B C 0.40489(13) 0.27067(9) 0.06751(3)
C42O C 0.92844(13) 0.53245(10) 0.09916(3)
C42A C 0.86578(10) 0.59511(13) 0.06751(3)
N2A N 0.99854(13) 0.29009(21) -0.036604(12)
N2Q N 0.33479(13) -0.04178(17) 0.203271(12)
N2O N 0.62342(21) 0.66521(13) 0.203271(12)
N2P N 1.04178(17) 0.37658(21) 0.203271(12)
N2B N 0.70991(21) 0.70845(17) -0.036604(12)
C43A C 0.92566(18) 0.24286(27) -0.03204(2)
C43Q C 0.40767(18) -0.0161(2) 0.19871(2)
C43O C 0.57619(27) 0.59233(18) 0.19871(2)
C43P C 1.0161(2) 0.42381(27) 0.19871(2)
C43B C 0.75714(27) 0.6828(2) -0.03204(2)
H28A H 0.9083 0.2393 -0.0244
H28Q H 0.4250 -0.0023 0.1911
H28O H 0.5726 0.5750 0.1911
H28P H 1.0023 0.4274 0.1911
H28B H 0.7607 0.6690 -0.0244
H29A H 0.9439 0.2275 -0.0311
H29Q H 0.3894 -0.0497 0.1978
H29O H 0.5608 0.6106 0.1978
H29P H 1.0497 0.4392 0.1978
H29B H 0.7725 0.7164 -0.0311
H30A H 0.9041 0.2289 -0.0390
H30Q H 0.4292 -0.0085 0.2057
H30O H 0.5622 0.5708 0.2057
H30P H 1.0085 0.4378 0.2057
H30B H 0.7711 0.6752 -0.0390
C44A C 0.95694(19) 0.29262(25) -0.034581(18)
C44Q C 0.37639(19) 0.00235(17) 0.201248(18)
C44O C 0.62595(25) 0.62361(19) 0.201248(18)
C44P C 0.99765(17) 0.37405(25) 0.201248(18)
C44B C 0.70738(25) 0.66432(17) -0.034581(18)
C45A C 1.0054(3) 0.2500(4) -0.03614(3)
C45Q C 0.3279(3) -0.0887(2) 0.20281(3)
C45O C 0.5833(4) 0.6721(3) 0.20281(3)
C45P C 1.0887(2) 0.4167(4) 0.20281(3)
C45B C 0.7500(4) 0.7554(2) -0.03614(3)
H31A H 0.9861 0.2289 -0.0296
H31Q H 0.3472 -0.0905 0.1963
H31O H 0.5622 0.6528 0.1963
H31P H 1.0905 0.4378 0.1963
H31B H 0.7711 0.7572 -0.0296
H32A H 1.0379 0.2603 -0.0344
H32Q H 0.2954 -0.1109 0.2011
H32O H 0.5936 0.7046 0.2011
H32P H 1.1109 0.4064 0.2011
H32B H 0.7397 0.7776 -0.0344
H33A H 0.9966 0.2338 -0.0441
H33Q H 0.3367 -0.0961 0.2108
H33O H 0.5671 0.6633 0.2108
H33P H 1.0961 0.4329 0.2108
H33B H 0.7662 0.7628 -0.0441
C46A C 1.0279(3) 0.3395(4) -0.03906(3)
C46Q C 0.3054(3) -0.0217(3) 0.20573(3)
C46O C 0.6728(4) 0.6946(3) 0.20573(3)
C46P C 1.0217(3) 0.3272(4) 0.20573(3)
C46B C 0.6605(4) 0.6884(3) -0.03906(3)
H34A H 1.0097 0.3512 -0.0432
H34Q H 0.3236 0.0082 0.2099
H34O H 0.6845 0.6764 0.2099
H34P H 0.9918 0.3155 0.2099
H34B H 0.6488 0.6585 -0.0432
H35A H 1.0536 0.3444 -0.0444
H35Q H 0.2797 -0.0425 0.2111
H35O H 0.6777 0.7203 0.2111
H35P H 1.0425 0.3223 0.2111
H35B H 0.6556 0.7092 -0.0444
H36A H 1.0401 0.3559 -0.0312
H36Q H 0.2932 -0.0175 0.1979
H36O H 0.6892 0.7068 0.1979
H36P H 1.0175 0.3108 0.1979
H36B H 0.6441 0.6842 -0.0312
loop_
_geom_bond_atom_site_label_1
_geom_bond_atom_site_label_2
_geom_bond_site_symmetry_1
_geom_bond_site_symmetry_2
Cu1 O1 1_555 1_555
Cu2 O2 1_555 1_555
Cu3 O7 1_555 1_555
Cu4 O8 1_555 1_555
O1 C1 1_555 1_555
O2 C1 1_555 1_555
O3 Cu1 1_555 1_555
O4 Cu2 1_555 1_555
O5 Cu1 1_555 1_555
O6 Cu2 1_555 1_555
O7 C42 1_555 1_555
O8 C42 1_555 1_555
O9 Cu3 1_555 1_555
O10 Cu4 1_555 1_555
O11 Cu1 1_555 1_555
O12 Cu2 1_555 1_555
O13 Cu1 1_555 1_555
O14 Cu2 1_555 1_555
H1 O14 1_555 1_555
H2 O14 1_555 1_555
O15 Cu3 1_555 1_555
H3 O15 1_555 1_555
O16 Cu4 1_555 1_555
H4 O16 1_555 1_555
N1 H5 1_555 1_555
C1 C2 1_555 1_555
C2 C3 1_555 1_555
C3 H6 1_555 1_555
C4 C3 1_555 1_555
H7 C4 1_555 1_555
C5 N1 1_555 1_555
C6 C5 1_555 1_555
C7 C2 1_555 1_555
H8 C7 1_555 1_555
C8 C6 1_555 1_555
C9 C8 1_555 1_555
H9 C9 1_555 1_555
C10 C9 1_555 1_555
C11 C10 1_555 1_555
H10 C11 1_555 1_555
C12 C11 1_555 1_555
H11 C12 1_555 1_555
C13 N1 1_555 1_555
C14 O11 1_555 1_555
C15 O3 1_555 1_555
C16 C15 1_555 1_555
C17 C16 1_555 1_555
H12 C17 1_555 1_555
C18 C17 1_555 1_555
H13 C18 1_555 1_555
C19 C18 1_555 1_555
H14 C19 1_555 1_555
C20 C19 1_555 1_555
C21 C16 1_555 1_555
H15 C21 1_555 1_555
C22 C20 1_555 1_555
C23 C22 1_555 1_555
H16 C23 1_555 1_555
C24 C23 1_555 1_555
H17 C24 1_555 1_555
C25 C24 1_555 1_555
C26 C25 1_555 1_555
H18 C26 1_555 1_555
C27 C22 1_555 1_555
H19 C27 1_555 1_555
C28 O9 1_555 1_555
C29 O5 1_555 1_555
C30 C29 1_555 1_555
C31 C30 1_555 1_555
H20 C31 1_555 1_555
C32 C31 1_555 1_555
H21 C32 1_555 1_555
C33 C32 1_555 1_555
H22 C33 1_555 1_555
C34 C33 1_555 1_555
C35 C30 1_555 1_555
H23 C35 1_555 1_555
C36 C34 1_555 1_555
C37 C36 1_555 1_555
H24 C37 1_555 1_555
C38 C37 1_555 1_555
H25 C38 1_555 1_555
C39 C38 1_555 1_555
C40 C39 1_555 1_555
H26 C40 1_555 1_555
C41 C36 1_555 1_555
H27 C41 1_555 1_555
C42 C39A 1_555 1_555
N2 C44 1_555 1_555
C43 H28 1_555 1_555
H29 C43 1_555 1_555
H30 C43 1_555 1_555
C44 O13 1_555 1_555
C45 N2 1_555 1_555
H31 C45 1_555 1_555
H32 C45 1_555 1_555
H33 C45 1_555 1_555
C46 N2 1_555 1_555
H34 C46 1_555 1_555
H35 C46 1_555 1_555
H36 C46 1_555 1_555
Cu1B O1B 1_555 1_555
Cu1A O1A 1_555 1_555
Cu1P O1P 1_555 1_555
Cu1O O1O 1_555 1_555
Cu1Q O1Q 1_555 1_555
Cu2B O2B 1_555 1_555
Cu2A O2A 1_555 1_555
Cu2P O2P 1_555 1_555
Cu2O O2O 1_555 1_555
Cu2Q O2Q 1_555 1_555
Cu3Q O7Q 1_555 1_555
Cu3O O7O 1_555 1_555
Cu4Q O8Q 1_555 1_555
Cu4O O8O 1_555 1_555
O1B C1B 1_555 1_555
O1A C1A 1_555 1_555
O1P C1P 1_555 1_555
O1O C1O 1_555 1_555
O1Q C1Q 1_555 1_555
O2B C1B 1_555 1_555
O2A C1A 1_555 1_555
O2P C1P 1_555 1_555
O2O C1O 1_555 1_555
O2Q C1Q 1_555 1_555
O3B Cu1B 1_555 1_555
O3A Cu1A 1_555 1_555
O3P Cu1P 1_555 1_555
O3O Cu1O 1_555 1_555
O3Q Cu1Q 1_555 1_555
O4B Cu2B 1_555 1_555
O4A Cu2A 1_555 1_555
O4P Cu2P 1_555 1_555
O4O Cu2O 1_555 1_555
O4Q Cu2Q 1_555 1_555
O5B Cu1B 1_555 1_555
O5A Cu1A 1_555 1_555
O5P Cu1P 1_555 1_555
O5O Cu1O 1_555 1_555
O5Q Cu1Q 1_555 1_555
O6B Cu2B 1_555 1_555
O6A Cu2A 1_555 1_555
O6P Cu2P 1_555 1_555
O6O Cu2O 1_555 1_555
O6Q Cu2Q 1_555 1_555
O7P Cu3 1_555 1_555
O7Q C42Q 1_555 1_555
O7B Cu3Q 1_555 1_555
O7O C42O 1_555 1_555
O7A Cu3O 1_555 1_555
O8P Cu4 1_555 1_555
O8Q C42Q 1_555 1_555
O8B Cu4Q 1_555 1_555
O8O C42O 1_555 1_555
O8A Cu4O 1_555 1_555
O9P Cu3 1_555 1_555
O9Q Cu3Q 1_555 1_555
O9B Cu3Q 1_555 1_555
O9O Cu3O 1_555 1_555
O9A Cu3O 1_555 1_555
O10P Cu4 1_555 1_555
O10B Cu4Q 1_555 1_555
O10Q Cu4Q 1_555 1_555
O10A Cu4O 1_555 1_555
O10O Cu4O 1_555 1_555
O11B Cu1B 1_555 1_555
O11A Cu1A 1_555 1_555
O11P Cu1P 1_555 1_555
O11O Cu1O 1_555 1_555
O11Q Cu1Q 1_555 1_555
O12B Cu2B 1_555 1_555
O12A Cu2A 1_555 1_555
O12P Cu2P 1_555 1_555
O12O Cu2O 1_555 1_555
O12Q Cu2Q 1_555 1_555
O13A Cu1A 1_555 1_555
O13Q Cu1Q 1_555 1_555
O13O Cu1O 1_555 1_555
O13P Cu1P 1_555 1_555
O13B Cu1B 1_555 1_555
O14B Cu2B 1_555 1_555
O14A Cu2A 1_555 1_555
O14P Cu2P 1_555 1_555
O14O Cu2O 1_555 1_555
O14Q Cu2Q 1_555 1_555
H1B O14B 1_555 1_555
H1A O14A 1_555 1_555
H1P O14P 1_555 1_555
H1O O14O 1_555 1_555
H1Q O14Q 1_555 1_555
H2B O14B 1_555 1_555
H2A O14A 1_555 1_555
H2P O14P 1_555 1_555
H2O O14O 1_555 1_555
H2Q O14Q 1_555 1_555
O15Q Cu3Q 1_555 1_555
O15O Cu3O 1_555 1_555
H3Q O15Q 1_555 1_555
H3B O15Q 1_555 1_555
H3O O15O 1_555 1_555
H3A O15O 1_555 1_555
H3P O15 1_555 1_555
O16Q Cu4Q 1_555 1_555
O16O Cu4O 1_555 1_555
H4P O16 1_555 1_555
H4Q O16Q 1_555 1_555
H4B O16Q 1_555 1_555
H4O O16O 1_555 1_555
H4A O16O 1_555 1_555
N1B H5B 1_555 1_555
N1A H5A 1_555 1_555
N1O H5O 1_555 1_555
N1Q H5Q 1_555 1_555
N1P H5P 1_555 1_555
C1B C2B 1_555 1_555
C1A C2A 1_555 1_555
C1P C2P 1_555 1_555
C1O C2O 1_555 1_555
C1Q C2Q 1_555 1_555
C2B C3B 1_555 1_555
C2A C3A 1_555 1_555
C2O C3O 1_555 1_555
C2Q C3Q 1_555 1_555
C2P C3P 1_555 1_555
C3B H6B 1_555 1_555
C3A H6A 1_555 1_555
C3O H6O 1_555 1_555
C3Q H6Q 1_555 1_555
C3P H6P 1_555 1_555
C4B C3B 1_555 1_555
C4A C3A 1_555 1_555
C4O C3O 1_555 1_555
C4Q C3Q 1_555 1_555
C4P C3P 1_555 1_555
H7P C4P 1_555 1_555
H7Q C4Q 1_555 1_555
H7O C4O 1_555 1_555
H7A C4A 1_555 1_555
H7B C4B 1_555 1_555
C5B N1B 1_555 1_555
C5A N1A 1_555 1_555
C5O N1O 1_555 1_555
C5Q N1Q 1_555 1_555
C5P N1P 1_555 1_555
C6B C5B 1_555 1_555
C6A C5A 1_555 1_555
C6O C5O 1_555 1_555
C6Q C5Q 1_555 1_555
C6P C5P 1_555 1_555
C7P C2P 1_555 1_555
C7Q C2Q 1_555 1_555
C7O C2O 1_555 1_555
C7A C2A 1_555 1_555
C7B C2B 1_555 1_555
H8P C7P 1_555 1_555
H8Q C7Q 1_555 1_555
H8O C7O 1_555 1_555
H8A C7A 1_555 1_555
H8B C7B 1_555 1_555
C8B C6B 1_555 1_555
C8A C6A 1_555 1_555
C8O C6O 1_555 1_555
C8Q C6Q 1_555 1_555
C8P C6P 1_555 1_555
C9B C8B 1_555 1_555
C9A C8A 1_555 1_555
C9O C8O 1_555 1_555
C9Q C8Q 1_555 1_555
C9P C8P 1_555 1_555
H9P C9P 1_555 1_555
H9Q C9Q 1_555 1_555
H9O C9O 1_555 1_555
H9A C9A 1_555 1_555
H9B C9B 1_555 1_555
C10B C14 1_555 1_555
C10A C9A 1_555 1_555
C10O C9O 1_555 1_555
C10Q C9Q 1_555 1_555
C10P C9P 1_555 1_555
C11B C10B 1_555 1_555
C11A C10A 1_555 1_555
C11O C10O 1_555 1_555
C11Q C10Q 1_555 1_555
C11P C10P 1_555 1_555
H10B C11B 1_555 1_555
H10A C11A 1_555 1_555
H10O C11O 1_555 1_555
H10Q C11Q 1_555 1_555
H10P C11P 1_555 1_555
C12B C11B 1_555 1_555
C12A C11A 1_555 1_555
C12O C11O 1_555 1_555
C12Q C11Q 1_555 1_555
C12P C11P 1_555 1_555
H11B C12B 1_555 1_555
H11A C12A 1_555 1_555
H11O C12O 1_555 1_555
H11Q C12Q 1_555 1_555
H11P C12P 1_555 1_555
C13B N1B 1_555 1_555
C13A N1A 1_555 1_555
C13O N1O 1_555 1_555
C13Q N1Q 1_555 1_555
C13P N1P 1_555 1_555
C14B O11B 1_555 1_555
C14A C10 1_555 1_555
C14P O11P 1_555 1_555
C14O O11O 1_555 1_555
C14Q O11Q 1_555 1_555
C15B O3B 1_555 1_555
C15A O3A 1_555 1_555
C15P O3P 1_555 1_555
C15O O3O 1_555 1_555
C15Q O3Q 1_555 1_555
C16P C15P 1_555 1_555
C16Q C15Q 1_555 1_555
C16B C15B 1_555 1_555
C16O C15O 1_555 1_555
C16A C15A 1_555 1_555
C17P C16P 1_555 1_555
C17Q C16Q 1_555 1_555
C17B C16B 1_555 1_555
C17O C16O 1_555 1_555
C17A C16A 1_555 1_555
H12Q C17Q 1_555 1_555
H12B C17B 1_555 1_555
H12O C17O 1_555 1_555
H12A C17A 1_555 1_555
H12P C17P 1_555 1_555
C18P C17P 1_555 1_555
C18Q C17Q 1_555 1_555
C18B C17B 1_555 1_555
C18O C17O 1_555 1_555
C18A C17A 1_555 1_555
H13Q C18Q 1_555 1_555
H13B C18B 1_555 1_555
H13O C18O 1_555 1_555
H13A C18A 1_555 1_555
H13P C18P 1_555 1_555
C19P C18P 1_555 1_555
C19Q C18Q 1_555 1_555
C19B C18B 1_555 1_555
C19O C18O 1_555 1_555
C19A C18A 1_555 1_555
H14Q C19Q 1_555 1_555
H14B C19B 1_555 1_555
H14O C19O 1_555 1_555
H14A C19A 1_555 1_555
H14P C19P 1_555 1_555
C20P C19P 1_555 1_555
C20Q C19Q 1_555 1_555
C20B C19B 1_555 1_555
C20O C19O 1_555 1_555
C20A C19A 1_555 1_555
C21Q C16Q 1_555 1_555
C21B C16B 1_555 1_555
C21O C16O 1_555 1_555
C21A C16A 1_555 1_555
C21P C16P 1_555 1_555
H15Q C21Q 1_555 1_555
H15B C21B 1_555 1_555
H15O C21O 1_555 1_555
H15A C21A 1_555 1_555
H15P C21P 1_555 1_555
C22P C20P 1_555 1_555
C22Q C20Q 1_555 1_555
C22B C20B 1_555 1_555
C22O C20O 1_555 1_555
C22A C20A 1_555 1_555
C23P C22P 1_555 1_555
C23Q C22Q 1_555 1_555
C23B C22B 1_555 1_555
C23O C22O 1_555 1_555
C23A C22A 1_555 1_555
H16Q C23Q 1_555 1_555
H16B C23B 1_555 1_555
H16O C23O 1_555 1_555
H16A C23A 1_555 1_555
H16P C23P 1_555 1_555
C24P C23P 1_555 1_555
C24Q C23Q 1_555 1_555
C24B C23B 1_555 1_555
C24O C23O 1_555 1_555
C24A C23A 1_555 1_555
H17Q C24Q 1_555 1_555
H17B C24B 1_555 1_555
H17O C24O 1_555 1_555
H17A C24A 1_555 1_555
H17P C24P 1_555 1_555
C25P C24P 1_555 1_555
C25Q C24Q 1_555 1_555
C25B C24B 1_555 1_555
C25O C24O 1_555 1_555
C25A C24A 1_555 1_555
C26Q C25Q 1_555 1_555
C26B C25B 1_555 1_555
C26O C25O 1_555 1_555
C26A C25A 1_555 1_555
C26P C25P 1_555 1_555
H18Q C26Q 1_555 1_555
H18B C26B 1_555 1_555
H18O C26O 1_555 1_555
H18A C26A 1_555 1_555
H18P C26P 1_555 1_555
C27Q C22Q 1_555 1_555
C27B C22B 1_555 1_555
C27O C22O 1_555 1_555
C27A C22A 1_555 1_555
C27P C22P 1_555 1_555
H19Q C27Q 1_555 1_555
H19B C27B 1_555 1_555
H19O C27O 1_555 1_555
H19A C27A 1_555 1_555
H19P C27P 1_555 1_555
C28P O9P 1_555 1_555
C28Q O9Q 1_555 1_555
C28B O9B 1_555 1_555
C28O O9O 1_555 1_555
C28A O9A 1_555 1_555
C29B O5B 1_555 1_555
C29A O5A 1_555 1_555
C29P O5P 1_555 1_555
C29O O5O 1_555 1_555
C29Q O5Q 1_555 1_555
C30A C29A 1_555 1_555
C30Q C29Q 1_555 1_555
C30O C29O 1_555 1_555
C30B C29B 1_555 1_555
C30P C29P 1_555 1_555
C31A C30A 1_555 1_555
C31Q C30Q 1_555 1_555
C31O C30O 1_555 1_555
C31B C30B 1_555 1_555
C31P C30P 1_555 1_555
H20A C31A 1_555 1_555
H20Q C31Q 1_555 1_555
H20O C31O 1_555 1_555
H20B C31B 1_555 1_555
H20P C31P 1_555 1_555
C32A C31A 1_555 1_555
C32Q C31Q 1_555 1_555
C32O C31O 1_555 1_555
C32B C31B 1_555 1_555
C32P C31P 1_555 1_555
H21A C32A 1_555 1_555
H21Q C32Q 1_555 1_555
H21O C32O 1_555 1_555
H21B C32B 1_555 1_555
H21P C32P 1_555 1_555
C33A C32A 1_555 1_555
C33Q C32Q 1_555 1_555
C33O C32O 1_555 1_555
C33B C32B 1_555 1_555
C33P C32P 1_555 1_555
H22A C33A 1_555 1_555
H22Q C33Q 1_555 1_555
H22O C33O 1_555 1_555
H22B C33B 1_555 1_555
H22P C33P 1_555 1_555
C34A C33A 1_555 1_555
C34Q C33Q 1_555 1_555
C34O C33O 1_555 1_555
C34B C33B 1_555 1_555
C34P C33P 1_555 1_555
C35A C30A 1_555 1_555
C35Q C30Q 1_555 1_555
C35O C30O 1_555 1_555
C35B C30B 1_555 1_555
C35P C30P 1_555 1_555
H23A C35A 1_555 1_555
H23Q C35Q 1_555 1_555
H23O C35O 1_555 1_555
H23B C35B 1_555 1_555
H23P C35P 1_555 1_555
C36A C34A 1_555 1_555
C36Q C34Q 1_555 1_555
C36O C34O 1_555 1_555
C36B C34B 1_555 1_555
C36P C34P 1_555 1_555
C37A C36A 1_555 1_555
C37Q C36Q 1_555 1_555
C37O C36O 1_555 1_555
C37B C36B 1_555 1_555
C37P C36P 1_555 1_555
H24A C37A 1_555 1_555
H24Q C37Q 1_555 1_555
H24O C37O 1_555 1_555
H24B C37B 1_555 1_555
H24P C37P 1_555 1_555
C38A C37A 1_555 1_555
C38Q C37Q 1_555 1_555
C38O C37O 1_555 1_555
C38B C37B 1_555 1_555
C38P C37P 1_555 1_555
H25A C38A 1_555 1_555
H25Q C38Q 1_555 1_555
H25O C38O 1_555 1_555
H25B C38B 1_555 1_555
H25P C38P 1_555 1_555
C39A C38A 1_555 1_555
C39Q C38Q 1_555 1_555
C39O C38O 1_555 1_555
C39B C38B 1_555 1_555
C39P C38P 1_555 1_555
C40A C39A 1_555 1_555
C40Q C39Q 1_555 1_555
C40O C39O 1_555 1_555
C40B C39B 1_555 1_555
C40P C39P 1_555 1_555
H26A C40A 1_555 1_555
H26Q C40Q 1_555 1_555
H26O C40O 1_555 1_555
H26B C40B 1_555 1_555
H26P C40P 1_555 1_555
C41A C36A 1_555 1_555
C41Q C36Q 1_555 1_555
C41O C36O 1_555 1_555
C41B C36B 1_555 1_555
C41P C36P 1_555 1_555
H27A C41A 1_555 1_555
H27Q C41Q 1_555 1_555
H27O C41O 1_555 1_555
H27B C41B 1_555 1_555
H27P C41P 1_555 1_555
C42P O7P 1_555 1_555
C42Q C39O 1_555 1_555
C42B C39 1_555 1_555
C42O C39P 1_555 1_555
C42A O7A 1_555 1_555
N2A C44A 1_555 1_555
N2Q C44Q 1_555 1_555
N2O C44O 1_555 1_555
N2P C44P 1_555 1_555
N2B C44B 1_555 1_555
C43A H28A 1_555 1_555
C43Q H28Q 1_555 1_555
C43O H28O 1_555 1_555
C43P H28P 1_555 1_555
C43B H28B 1_555 1_555
H29A C43A 1_555 1_555
H29Q C43Q 1_555 1_555
H29O C43O 1_555 1_555
H29P C43P 1_555 1_555
H29B C43B 1_555 1_555
H30A C43A 1_555 1_555
H30Q C43Q 1_555 1_555
H30O C43O 1_555 1_555
H30P C43P 1_555 1_555
H30B C43B 1_555 1_555
C44A O13A 1_555 1_555
C44Q O13Q 1_555 1_555
C44O O13O 1_555 1_555
C44P O13P 1_555 1_555
C44B O13B 1_555 1_555
C45A N2A 1_555 1_555
C45Q N2Q 1_555 1_555
C45O N2O 1_555 1_555
C45P N2P 1_555 1_555
C45B N2B 1_555 1_555
H31A C45A 1_555 1_555
H31Q C45Q 1_555 1_555
H31O C45O 1_555 1_555
H31P C45P 1_555 1_555
H31B C45B 1_555 1_555
H32A C45A 1_555 1_555
H32Q C45Q 1_555 1_555
H32O C45O 1_555 1_555
H32P C45P 1_555 1_555
H32B C45B 1_555 1_555
H33A C45A 1_555 1_555
H33Q C45Q 1_555 1_555
H33O C45O 1_555 1_555
H33P C45P 1_555 1_555
H33B C45B 1_555 1_555
C46A N2A 1_555 1_555
C46Q N2Q 1_555 1_555
C46O N2O 1_555 1_555
C46P N2P 1_555 1_555
C46B N2B 1_555 1_555
H34A C46A 1_555 1_555
H34Q C46Q 1_555 1_555
H34O C46O 1_555 1_555
H34P C46P 1_555 1_555
H34B C46B 1_555 1_555
H35A C46A 1_555 1_555
H35Q C46Q 1_555 1_555
H35O C46O 1_555 1_555
H35P C46P 1_555 1_555
H35B C46B 1_555 1_555
H36A C46A 1_555 1_555
H36Q C46Q 1_555 1_555
H36O C46O 1_555 1_555
H36P C46P 1_555 1_555
H36B C46B 1_555 1_555
O4 C15 1_555 1_555
O6 C29 1_555 1_555
O10 C28 1_555 1_555
O12 C14 1_555 1_555
C4 C5 1_555 1_555
C6 C7 1_555 1_555
C8 C13 1_555 1_555
C12 C13 1_555 1_555
C20 C21 1_555 1_555
C25 C28 1_555 1_555
C26 C27 1_555 1_555
C34 C35 1_555 1_555
C40 C41 1_555 1_555
C43 C44 1_555 1_555
O4B C15B 1_555 1_555
O4A C15A 1_555 1_555
O4P C15P 1_555 1_555
O4O C15O 1_555 1_555
O4Q C15Q 1_555 1_555
O6B C29B 1_555 1_555
O6A C29A 1_555 1_555
O6P C29P 1_555 1_555
O6O C29O 1_555 1_555
O6Q C29Q 1_555 1_555
O7B C42B 1_555 1_555
O8P C42P 1_555 1_555
O8B C42B 1_555 1_555
O8A C42A 1_555 1_555
O10P C28P 1_555 1_555
O10B C28B 1_555 1_555
O10Q C28Q 1_555 1_555
O10A C28A 1_555 1_555
O10O C28O 1_555 1_555
O11A C14A 1_555 1_555
O12B C14B 1_555 1_555
O12A C14A 1_555 1_555
O12P C14P 1_555 1_555
O12O C14O 1_555 1_555
O12Q C14Q 1_555 1_555
C4B C5B 1_555 1_555
C4A C5A 1_555 1_555
C4O C5O 1_555 1_555
C4Q C5Q 1_555 1_555
C4P C5P 1_555 1_555
C6B C7B 1_555 1_555
C6A C7A 1_555 1_555
C6O C7O 1_555 1_555
C6Q C7Q 1_555 1_555
C6P C7P 1_555 1_555
C8B C13B 1_555 1_555
C8A C13A 1_555 1_555
C8O C13O 1_555 1_555
C8Q C13Q 1_555 1_555
C8P C13P 1_555 1_555
C9B C10B 1_555 1_555
C10A C14B 1_555 1_555
C10O C14P 1_555 1_555
C10Q C14O 1_555 1_555
C10P C14Q 1_555 1_555
C12B C13B 1_555 1_555
C12A C13A 1_555 1_555
C12O C13O 1_555 1_555
C12Q C13Q 1_555 1_555
C12P C13P 1_555 1_555
C20P C21P 1_555 1_555
C20Q C21Q 1_555 1_555
C20B C21B 1_555 1_555
C20O C21O 1_555 1_555
C20A C21A 1_555 1_555
C25P C28P 1_555 1_555
C25Q C28Q 1_555 1_555
C25B C28B 1_555 1_555
C25O C28O 1_555 1_555
C25A C28A 1_555 1_555
C26Q C27Q 1_555 1_555
C26B C27B 1_555 1_555
C26O C27O 1_555 1_555
C26A C27A 1_555 1_555
C26P C27P 1_555 1_555
C34A C35A 1_555 1_555
C34Q C35Q 1_555 1_555
C34O C35O 1_555 1_555
C34B C35B 1_555 1_555
C34P C35P 1_555 1_555
C39Q C42P 1_555 1_555
C39B C42A 1_555 1_555
C40A C41A 1_555 1_555
C40Q C41Q 1_555 1_555
C40O C41O 1_555 1_555
C40B C41B 1_555 1_555
C40P C41P 1_555 1_555
C43A C44A 1_555 1_555
C43Q C44Q 1_555 1_555
C43O C44O 1_555 1_555
C43P C44P 1_555 1_555
C43B C44B 1_555 1_555

#END
