# generated using pymatgen
data_Cu3H42C56N4O15
_symmetry_space_group_name_H-M   'P 1'
_cell_length_a   38.28900000
_cell_length_b   38.28900000
_cell_length_c   45.73128344
_cell_angle_alpha   65.25185848
_cell_angle_beta   65.25185848
_cell_angle_gamma   60.00000000
_symmetry_Int_Tables_number   1
_chemical_formula_structural   Cu3H42C56N4O15
_chemical_formula_sum   'Cu36 H504 C672 N48 O180'
_cell_volume   50827.69700019
_cell_formula_units_Z   12
loop_
 _symmetry_equiv_pos_site_id
 _symmetry_equiv_pos_as_xyz
  1  'x, y, z'
loop_
 _atom_site_type_symbol
 _atom_site_label
 _atom_site_symmetry_multiplicity
 _atom_site_fract_x
 _atom_site_fract_y
 _atom_site_fract_z
 _atom_site_occupancy
  C  C1  1  0.530030  0.385490  0.958510  1.0
  C  C2  1  0.125970  0.530030  0.958510  1.0
  C  C3  1  0.385490  0.125970  0.958510  1.0
  C  C4  1  0.114510  0.969970  0.541490  1.0
  C  C5  1  0.969970  0.374030  0.541490  1.0
  C  C6  1  0.374030  0.114510  0.541490  1.0
  C  C7  1  0.469970  0.614510  0.041490  1.0
  C  C8  1  0.874030  0.469970  0.041490  1.0
  C  C9  1  0.614510  0.874030  0.041490  1.0
  C  C10  1  0.885490  0.030030  0.458510  1.0
  C  C11  1  0.030030  0.625970  0.458510  1.0
  C  C12  1  0.625970  0.885490  0.458510  1.0
  C  C13  1  0.523990  0.409140  0.981880  1.0
  C  C14  1  0.084990  0.523990  0.981880  1.0
  C  C15  1  0.409140  0.084990  0.981880  1.0
  C  C16  1  0.090860  0.976010  0.518120  1.0
  C  C17  1  0.976010  0.415010  0.518120  1.0
  C  C18  1  0.415010  0.090860  0.518120  1.0
  C  C19  1  0.476010  0.590860  0.018120  1.0
  C  C20  1  0.915010  0.476010  0.018120  1.0
  C  C21  1  0.590860  0.915010  0.018120  1.0
  C  C22  1  0.909140  0.023990  0.481880  1.0
  C  C23  1  0.023990  0.584990  0.481880  1.0
  C  C24  1  0.584990  0.909140  0.481880  1.0
  C  C25  1  0.551000  0.424700  0.974410  1.0
  C  C26  1  0.049890  0.551000  0.974410  1.0
  C  C27  1  0.424700  0.049890  0.974410  1.0
  C  C28  1  0.075300  0.949000  0.525590  1.0
  C  C29  1  0.949000  0.450110  0.525590  1.0
  C  C30  1  0.450110  0.075300  0.525590  1.0
  C  C31  1  0.449000  0.575300  0.025590  1.0
  C  C32  1  0.950110  0.449000  0.025590  1.0
  C  C33  1  0.575300  0.950110  0.025590  1.0
  C  C34  1  0.924700  0.051000  0.474410  1.0
  C  C35  1  0.051000  0.549890  0.474410  1.0
  C  C36  1  0.549890  0.924700  0.474410  1.0
  C  C37  1  0.547140  0.444120  0.997360  1.0
  C  C38  1  0.011380  0.547140  0.997360  1.0
  C  C39  1  0.444120  0.011380  0.997360  1.0
  C  C40  1  0.055880  0.952860  0.502640  1.0
  C  C41  1  0.952860  0.488620  0.502640  1.0
  C  C42  1  0.488620  0.055880  0.502640  1.0
  C  C43  1  0.452860  0.555880  0.002640  1.0
  C  C44  1  0.988620  0.452860  0.002640  1.0
  C  C45  1  0.555880  0.988620  0.002640  1.0
  C  C46  1  0.944120  0.047140  0.497360  1.0
  C  C47  1  0.047140  0.511380  0.497360  1.0
  C  C48  1  0.511380  0.944120  0.497360  1.0
  C  C49  1  0.515840  0.445120  0.026790  1.0
  C  C50  1  0.012250  0.515840  0.026790  1.0
  C  C51  1  0.445120  0.012250  0.026790  1.0
  C  C52  1  0.054880  0.984160  0.473210  1.0
  C  C53  1  0.984160  0.487750  0.473210  1.0
  C  C54  1  0.487750  0.054880  0.473210  1.0
  C  C55  1  0.484160  0.554880  0.973210  1.0
  C  C56  1  0.987750  0.484160  0.973210  1.0
  C  C57  1  0.554880  0.987750  0.973210  1.0
  C  C58  1  0.945120  0.015840  0.526790  1.0
  C  C59  1  0.015840  0.512250  0.526790  1.0
  C  C60  1  0.512250  0.945120  0.526790  1.0
  C  C61  1  0.489880  0.428710  0.033570  1.0
  C  C62  1  0.047840  0.489880  0.033570  1.0
  C  C63  1  0.428710  0.047840  0.033570  1.0
  C  C64  1  0.071290  0.010120  0.466430  1.0
  C  C65  1  0.010120  0.452160  0.466430  1.0
  C  C66  1  0.452160  0.071290  0.466430  1.0
  C  C67  1  0.510120  0.571290  0.966430  1.0
  C  C68  1  0.952160  0.510120  0.966430  1.0
  C  C69  1  0.571290  0.952160  0.966430  1.0
  C  C70  1  0.928710  0.989880  0.533570  1.0
  C  C71  1  0.989880  0.547840  0.533570  1.0
  C  C72  1  0.547840  0.928710  0.533570  1.0
  C  C73  1  0.492670  0.409920  0.010320  1.0
  C  C74  1  0.087090  0.492670  0.010320  1.0
  C  C75  1  0.409920  0.087090  0.010320  1.0
  C  C76  1  0.090080  0.007330  0.489680  1.0
  C  C77  1  0.007330  0.412910  0.489680  1.0
  C  C78  1  0.412910  0.090080  0.489680  1.0
  C  C79  1  0.507330  0.590080  0.989680  1.0
  C  C80  1  0.912910  0.507330  0.989680  1.0
  C  C81  1  0.590080  0.912910  0.989680  1.0
  C  C82  1  0.909920  0.992670  0.510320  1.0
  C  C83  1  0.992670  0.587090  0.510320  1.0
  C  C84  1  0.587090  0.909920  0.510320  1.0
  C  C85  1  0.510630  0.466090  0.050460  1.0
  C  C86  1  0.972820  0.510630  0.050460  1.0
  C  C87  1  0.466090  0.972820  0.050460  1.0
  C  C88  1  0.033910  0.989370  0.449540  1.0
  C  C89  1  0.989370  0.527180  0.449540  1.0
  C  C90  1  0.527180  0.033910  0.449540  1.0
  C  C91  1  0.489370  0.533910  0.949540  1.0
  C  C92  1  0.027180  0.489370  0.949540  1.0
  C  C93  1  0.533910  0.027180  0.949540  1.0
  C  C94  1  0.966090  0.010630  0.550460  1.0
  C  C95  1  0.010630  0.472820  0.550460  1.0
  C  C96  1  0.472820  0.966090  0.550460  1.0
  C  C97  1  0.542450  0.479970  0.045270  1.0
  C  C98  1  0.932310  0.542450  0.045270  1.0
  C  C99  1  0.479970  0.932310  0.045270  1.0
  C  C100  1  0.020030  0.957550  0.454730  1.0
  C  C101  1  0.957550  0.567690  0.454730  1.0
  C  C102  1  0.567690  0.020030  0.454730  1.0
  C  C103  1  0.457550  0.520030  0.954730  1.0
  C  C104  1  0.067690  0.457550  0.954730  1.0
  C  C105  1  0.520030  0.067690  0.954730  1.0
  C  C106  1  0.979970  0.042450  0.545270  1.0
  C  C107  1  0.042450  0.432310  0.545270  1.0
  C  C108  1  0.432310  0.979970  0.545270  1.0
  C  C109  1  0.534900  0.497790  0.068820  1.0
  C  C110  1  0.898490  0.534900  0.068820  1.0
  C  C111  1  0.497790  0.898490  0.068820  1.0
  C  C112  1  0.002210  0.965100  0.431180  1.0
  C  C113  1  0.965100  0.601510  0.431180  1.0
  C  C114  1  0.601510  0.002210  0.431180  1.0
  C  C115  1  0.465100  0.502210  0.931180  1.0
  C  C116  1  0.101510  0.465100  0.931180  1.0
  C  C117  1  0.502210  0.101510  0.931180  1.0
  C  C118  1  0.997790  0.034900  0.568820  1.0
  C  C119  1  0.034900  0.398490  0.568820  1.0
  C  C120  1  0.398490  0.997790  0.568820  1.0
  C  C121  1  0.498180  0.503880  0.093360  1.0
  C  C122  1  0.904580  0.498180  0.093360  1.0
  C  C123  1  0.503880  0.904580  0.093360  1.0
  C  C124  1  0.996120  0.001820  0.406640  1.0
  C  C125  1  0.001820  0.595420  0.406640  1.0
  C  C126  1  0.595420  0.996120  0.406640  1.0
  C  C127  1  0.501820  0.496120  0.906640  1.0
  C  C128  1  0.095420  0.501820  0.906640  1.0
  C  C129  1  0.496120  0.095420  0.906640  1.0
  C  C130  1  0.003880  0.998180  0.593360  1.0
  C  C131  1  0.998180  0.404580  0.593360  1.0
  C  C132  1  0.404580  0.003880  0.593360  1.0
  C  C133  1  0.470320  0.491040  0.096360  1.0
  C  C134  1  0.942280  0.470320  0.096360  1.0
  C  C135  1  0.491040  0.942280  0.096360  1.0
  C  C136  1  0.008960  0.029680  0.403640  1.0
  C  C137  1  0.029680  0.557720  0.403640  1.0
  C  C138  1  0.557720  0.008960  0.403640  1.0
  C  C139  1  0.529680  0.508960  0.903640  1.0
  C  C140  1  0.057720  0.529680  0.903640  1.0
  C  C141  1  0.508960  0.057720  0.903640  1.0
  C  C142  1  0.991040  0.970320  0.596360  1.0
  C  C143  1  0.970320  0.442280  0.596360  1.0
  C  C144  1  0.442280  0.991040  0.596360  1.0
  C  C145  1  0.429890  0.497610  0.124050  1.0
  C  C146  1  0.948450  0.429890  0.124050  1.0
  C  C147  1  0.497610  0.948450  0.124050  1.0
  C  C148  1  0.002390  0.070110  0.375950  1.0
  C  C149  1  0.070110  0.551550  0.375950  1.0
  C  C150  1  0.551550  0.002390  0.375950  1.0
  C  C151  1  0.570110  0.502390  0.875950  1.0
  C  C152  1  0.051550  0.570110  0.875950  1.0
  C  C153  1  0.502390  0.051550  0.875950  1.0
  C  C154  1  0.997610  0.929890  0.624050  1.0
  C  C155  1  0.929890  0.448450  0.624050  1.0
  C  C156  1  0.448450  0.997610  0.624050  1.0
  C  C157  1  0.409510  0.533200  0.134790  1.0
  C  C158  1  0.922500  0.409510  0.134790  1.0
  C  C159  1  0.533200  0.922500  0.134790  1.0
  C  C160  1  0.966800  0.090490  0.365210  1.0
  C  C161  1  0.090490  0.577500  0.365210  1.0
  C  C162  1  0.577500  0.966800  0.365210  1.0
  C  C163  1  0.590490  0.466800  0.865210  1.0
  C  C164  1  0.077500  0.590490  0.865210  1.0
  C  C165  1  0.466800  0.077500  0.865210  1.0
  C  C166  1  0.033200  0.909510  0.634790  1.0
  C  C167  1  0.909510  0.422500  0.634790  1.0
  C  C168  1  0.422500  0.033200  0.634790  1.0
  C  C169  1  0.372990  0.538160  0.159870  1.0
  C  C170  1  0.928980  0.372990  0.159870  1.0
  C  C171  1  0.538160  0.928980  0.159870  1.0
  C  C172  1  0.961840  0.127010  0.340130  1.0
  C  C173  1  0.127010  0.571020  0.340130  1.0
  C  C174  1  0.571020  0.961840  0.340130  1.0
  C  C175  1  0.627010  0.461840  0.840130  1.0
  C  C176  1  0.071020  0.627010  0.840130  1.0
  C  C177  1  0.461840  0.071020  0.840130  1.0
  C  C178  1  0.038160  0.872990  0.659870  1.0
  C  C179  1  0.872990  0.428980  0.659870  1.0
  C  C180  1  0.428980  0.038160  0.659870  1.0
  C  C181  1  0.355500  0.509420  0.174180  1.0
  C  C182  1  0.960900  0.355500  0.174180  1.0
  C  C183  1  0.509420  0.960900  0.174180  1.0
  C  C184  1  0.990580  0.144500  0.325820  1.0
  C  C185  1  0.144500  0.539100  0.325820  1.0
  C  C186  1  0.539100  0.990580  0.325820  1.0
  C  C187  1  0.644500  0.490580  0.825820  1.0
  C  C188  1  0.039100  0.644500  0.825820  1.0
  C  C189  1  0.490580  0.039100  0.825820  1.0
  C  C190  1  0.009420  0.855500  0.674180  1.0
  C  C191  1  0.855500  0.460900  0.674180  1.0
  C  C192  1  0.460900  0.009420  0.674180  1.0
  C  C193  1  0.373830  0.474790  0.162930  1.0
  C  C194  1  0.988450  0.373830  0.162930  1.0
  C  C195  1  0.474790  0.988450  0.162930  1.0
  C  C196  1  0.025210  0.126170  0.337070  1.0
  C  C197  1  0.126170  0.511550  0.337070  1.0
  C  C198  1  0.511550  0.025210  0.337070  1.0
  C  C199  1  0.626170  0.525210  0.837070  1.0
  C  C200  1  0.011550  0.626170  0.837070  1.0
  C  C201  1  0.525210  0.011550  0.837070  1.0
  C  C202  1  0.974790  0.873830  0.662930  1.0
  C  C203  1  0.873830  0.488450  0.662930  1.0
  C  C204  1  0.488450  0.974790  0.662930  1.0
  C  C205  1  0.410230  0.470780  0.136680  1.0
  C  C206  1  0.982310  0.410230  0.136680  1.0
  C  C207  1  0.470780  0.982310  0.136680  1.0
  C  C208  1  0.029220  0.089770  0.363320  1.0
  C  C209  1  0.089770  0.517690  0.363320  1.0
  C  C210  1  0.517690  0.029220  0.363320  1.0
  C  C211  1  0.589770  0.529220  0.863320  1.0
  C  C212  1  0.017690  0.589770  0.863320  1.0
  C  C213  1  0.529220  0.017690  0.863320  1.0
  C  C214  1  0.970780  0.910230  0.636680  1.0
  C  C215  1  0.910230  0.482310  0.636680  1.0
  C  C216  1  0.482310  0.970780  0.636680  1.0
  C  C217  1  0.315990  0.515860  0.203790  1.0
  C  C218  1  0.964360  0.315990  0.203790  1.0
  C  C219  1  0.515860  0.964360  0.203790  1.0
  C  C220  1  0.984140  0.184010  0.296210  1.0
  C  C221  1  0.184010  0.535640  0.296210  1.0
  C  C222  1  0.535640  0.984140  0.296210  1.0
  C  C223  1  0.684010  0.484140  0.796210  1.0
  C  C224  1  0.035640  0.684010  0.796210  1.0
  C  C225  1  0.484140  0.035640  0.796210  1.0
  C  C226  1  0.015860  0.815990  0.703790  1.0
  C  C227  1  0.815990  0.464360  0.703790  1.0
  C  C228  1  0.464360  0.015860  0.703790  1.0
  C  C229  1  0.581080  0.285510  0.957760  1.0
  C  C230  1  0.175650  0.581080  0.957760  1.0
  C  C231  1  0.285510  0.175650  0.957760  1.0
  C  C232  1  0.214490  0.918920  0.542240  1.0
  C  C233  1  0.918920  0.324350  0.542240  1.0
  C  C234  1  0.324350  0.214490  0.542240  1.0
  C  C235  1  0.418920  0.714490  0.042240  1.0
  C  C236  1  0.824350  0.418920  0.042240  1.0
  C  C237  1  0.714490  0.824350  0.042240  1.0
  C  C238  1  0.785510  0.081080  0.457760  1.0
  C  C239  1  0.081080  0.675650  0.457760  1.0
  C  C240  1  0.675650  0.785510  0.457760  1.0
  C  C241  1  0.605830  0.248970  0.981610  1.0
  C  C242  1  0.163590  0.605830  0.981610  1.0
  C  C243  1  0.248970  0.163590  0.981610  1.0
  C  C244  1  0.251030  0.894170  0.518390  1.0
  C  C245  1  0.894170  0.336410  0.518390  1.0
  C  C246  1  0.336410  0.251030  0.518390  1.0
  C  C247  1  0.394170  0.751030  0.018390  1.0
  C  C248  1  0.836410  0.394170  0.018390  1.0
  C  C249  1  0.751030  0.836410  0.018390  1.0
  C  C250  1  0.748970  0.105830  0.481610  1.0
  C  C251  1  0.105830  0.663590  0.481610  1.0
  C  C252  1  0.663590  0.748970  0.481610  1.0
  C  C253  1  0.648330  0.240230  0.974110  1.0
  C  C254  1  0.137330  0.648330  0.974110  1.0
  C  C255  1  0.240230  0.137330  0.974110  1.0
  C  C256  1  0.259770  0.851670  0.525890  1.0
  C  C257  1  0.851670  0.362670  0.525890  1.0
  C  C258  1  0.362670  0.259770  0.525890  1.0
  C  C259  1  0.351670  0.759770  0.025890  1.0
  C  C260  1  0.862670  0.351670  0.025890  1.0
  C  C261  1  0.759770  0.862670  0.025890  1.0
  C  C262  1  0.740230  0.148330  0.474110  1.0
  C  C263  1  0.148330  0.637330  0.474110  1.0
  C  C264  1  0.637330  0.740230  0.474110  1.0
  C  C265  1  0.671350  0.209850  0.000450  1.0
  C  C266  1  0.118350  0.671350  0.000450  1.0
  C  C267  1  0.209850  0.118350  0.000450  1.0
  C  C268  1  0.290150  0.828650  0.499550  1.0
  C  C269  1  0.828650  0.381650  0.499550  1.0
  C  C270  1  0.381650  0.290150  0.499550  1.0
  C  C271  1  0.328650  0.790150  0.999550  1.0
  C  C272  1  0.881650  0.328650  0.999550  1.0
  C  C273  1  0.790150  0.881650  0.999550  1.0
  C  C274  1  0.709850  0.171350  0.500450  1.0
  C  C275  1  0.171350  0.618350  0.500450  1.0
  C  C276  1  0.618350  0.709850  0.500450  1.0
  C  C277  1  0.650260  0.186260  0.031020  1.0
  C  C278  1  0.132460  0.650260  0.031020  1.0
  C  C279  1  0.186260  0.132460  0.031020  1.0
  C  C280  1  0.313740  0.849740  0.468980  1.0
  C  C281  1  0.849740  0.367540  0.468980  1.0
  C  C282  1  0.367540  0.313740  0.468980  1.0
  C  C283  1  0.349740  0.813740  0.968980  1.0
  C  C284  1  0.867540  0.349740  0.968980  1.0
  C  C285  1  0.813740  0.867540  0.968980  1.0
  C  C286  1  0.686260  0.150260  0.531020  1.0
  C  C287  1  0.150260  0.632460  0.531020  1.0
  C  C288  1  0.632460  0.686260  0.531020  1.0
  C  C289  1  0.610180  0.196770  0.034560  1.0
  C  C290  1  0.158490  0.610180  0.034560  1.0
  C  C291  1  0.196770  0.158490  0.034560  1.0
  C  C292  1  0.303230  0.889820  0.465440  1.0
  C  C293  1  0.889820  0.341510  0.465440  1.0
  C  C294  1  0.341510  0.303230  0.465440  1.0
  C  C295  1  0.389820  0.803230  0.965440  1.0
  C  C296  1  0.841510  0.389820  0.965440  1.0
  C  C297  1  0.803230  0.841510  0.965440  1.0
  C  C298  1  0.696770  0.110180  0.534560  1.0
  C  C299  1  0.110180  0.658490  0.534560  1.0
  C  C300  1  0.658490  0.696770  0.534560  1.0
  C  C301  1  0.587060  0.227630  0.012000  1.0
  C  C302  1  0.173310  0.587060  0.012000  1.0
  C  C303  1  0.227630  0.173310  0.012000  1.0
  C  C304  1  0.272370  0.912940  0.488000  1.0
  C  C305  1  0.912940  0.326690  0.488000  1.0
  C  C306  1  0.326690  0.272370  0.488000  1.0
  C  C307  1  0.412940  0.772370  0.988000  1.0
  C  C308  1  0.826690  0.412940  0.988000  1.0
  C  C309  1  0.772370  0.826690  0.988000  1.0
  C  C310  1  0.727630  0.087060  0.512000  1.0
  C  C311  1  0.087060  0.673310  0.512000  1.0
  C  C312  1  0.673310  0.727630  0.512000  1.0
  C  C313  1  0.672850  0.151750  0.056850  1.0
  C  C314  1  0.118550  0.672850  0.056850  1.0
  C  C315  1  0.151750  0.118550  0.056850  1.0
  C  C316  1  0.348250  0.827150  0.443150  1.0
  C  C317  1  0.827150  0.381450  0.443150  1.0
  C  C318  1  0.381450  0.348250  0.443150  1.0
  C  C319  1  0.327150  0.848250  0.943150  1.0
  C  C320  1  0.881450  0.327150  0.943150  1.0
  C  C321  1  0.848250  0.881450  0.943150  1.0
  C  C322  1  0.651750  0.172850  0.556850  1.0
  C  C323  1  0.172850  0.618550  0.556850  1.0
  C  C324  1  0.618550  0.651750  0.556850  1.0
  C  C325  1  0.713510  0.147510  0.047970  1.0
  C  C326  1  0.091010  0.713510  0.047970  1.0
  C  C327  1  0.147510  0.091010  0.047970  1.0
  C  C328  1  0.352490  0.786490  0.452030  1.0
  C  C329  1  0.786490  0.408990  0.452030  1.0
  C  C330  1  0.408990  0.352490  0.452030  1.0
  C  C331  1  0.286490  0.852490  0.952030  1.0
  C  C332  1  0.908990  0.286490  0.952030  1.0
  C  C333  1  0.852490  0.908990  0.952030  1.0
  C  C334  1  0.647510  0.213510  0.547970  1.0
  C  C335  1  0.213510  0.591010  0.547970  1.0
  C  C336  1  0.591010  0.647510  0.547970  1.0
  C  C337  1  0.735960  0.113360  0.074820  1.0
  C  C338  1  0.075860  0.735960  0.074820  1.0
  C  C339  1  0.113360  0.075860  0.074820  1.0
  C  C340  1  0.386640  0.764040  0.425180  1.0
  C  C341  1  0.764040  0.424140  0.425180  1.0
  C  C342  1  0.424140  0.386640  0.425180  1.0
  C  C343  1  0.264040  0.886640  0.925180  1.0
  C  C344  1  0.924140  0.264040  0.925180  1.0
  C  C345  1  0.886640  0.924140  0.925180  1.0
  C  C346  1  0.613360  0.235960  0.574820  1.0
  C  C347  1  0.235960  0.575860  0.574820  1.0
  C  C348  1  0.575860  0.613360  0.574820  1.0
  C  C349  1  0.708070  0.092770  0.103890  1.0
  C  C350  1  0.095270  0.708070  0.103890  1.0
  C  C351  1  0.092770  0.095270  0.103890  1.0
  C  C352  1  0.407230  0.791930  0.396110  1.0
  C  C353  1  0.791930  0.404730  0.396110  1.0
  C  C354  1  0.404730  0.407230  0.396110  1.0
  C  C355  1  0.291930  0.907230  0.896110  1.0
  C  C356  1  0.904730  0.291930  0.896110  1.0
  C  C357  1  0.907230  0.904730  0.896110  1.0
  C  C358  1  0.592770  0.208070  0.603890  1.0
  C  C359  1  0.208070  0.595270  0.603890  1.0
  C  C360  1  0.595270  0.592770  0.603890  1.0
  C  C361  1  0.671970  0.098870  0.104190  1.0
  C  C362  1  0.124970  0.671970  0.104190  1.0
  C  C363  1  0.098870  0.124970  0.104190  1.0
  C  C364  1  0.401130  0.828030  0.395810  1.0
  C  C365  1  0.828030  0.375030  0.395810  1.0
  C  C366  1  0.375030  0.401130  0.395810  1.0
  C  C367  1  0.328030  0.901130  0.895810  1.0
  C  C368  1  0.875030  0.328030  0.895810  1.0
  C  C369  1  0.901130  0.875030  0.895810  1.0
  C  C370  1  0.598870  0.171970  0.604190  1.0
  C  C371  1  0.171970  0.624970  0.604190  1.0
  C  C372  1  0.624970  0.598870  0.604190  1.0
  C  C373  1  0.648020  0.077320  0.133140  1.0
  C  C374  1  0.141520  0.648020  0.133140  1.0
  C  C375  1  0.077320  0.141520  0.133140  1.0
  C  C376  1  0.422680  0.851980  0.366860  1.0
  C  C377  1  0.851980  0.358480  0.366860  1.0
  C  C378  1  0.358480  0.422680  0.366860  1.0
  C  C379  1  0.351980  0.922680  0.866860  1.0
  C  C380  1  0.858480  0.351980  0.866860  1.0
  C  C381  1  0.922680  0.858480  0.866860  1.0
  C  C382  1  0.577320  0.148020  0.633140  1.0
  C  C383  1  0.148020  0.641520  0.633140  1.0
  C  C384  1  0.641520  0.577320  0.633140  1.0
  C  C385  1  0.663770  0.038970  0.151290  1.0
  C  C386  1  0.145970  0.663770  0.151290  1.0
  C  C387  1  0.038970  0.145970  0.151290  1.0
  C  C388  1  0.461030  0.836230  0.348710  1.0
  C  C389  1  0.836230  0.354030  0.348710  1.0
  C  C390  1  0.354030  0.461030  0.348710  1.0
  C  C391  1  0.336230  0.961030  0.848710  1.0
  C  C392  1  0.854030  0.336230  0.848710  1.0
  C  C393  1  0.961030  0.854030  0.848710  1.0
  C  C394  1  0.538970  0.163770  0.651290  1.0
  C  C395  1  0.163770  0.645970  0.651290  1.0
  C  C396  1  0.645970  0.538970  0.651290  1.0
  C  C397  1  0.637850  0.019050  0.176550  1.0
  C  C398  1  0.166550  0.637850  0.176550  1.0
  C  C399  1  0.019050  0.166550  0.176550  1.0
  C  C400  1  0.480950  0.862150  0.323450  1.0
  C  C401  1  0.862150  0.333450  0.323450  1.0
  C  C402  1  0.333450  0.480950  0.323450  1.0
  C  C403  1  0.362150  0.980950  0.823450  1.0
  C  C404  1  0.833450  0.362150  0.823450  1.0
  C  C405  1  0.980950  0.833450  0.823450  1.0
  C  C406  1  0.519050  0.137850  0.676550  1.0
  C  C407  1  0.137850  0.666550  0.676550  1.0
  C  C408  1  0.666550  0.519050  0.676550  1.0
  C  C409  1  0.598500  0.035800  0.181800  1.0
  C  C410  1  0.183900  0.598500  0.181800  1.0
  C  C411  1  0.035800  0.183900  0.181800  1.0
  C  C412  1  0.464200  0.901500  0.318200  1.0
  C  C413  1  0.901500  0.316100  0.318200  1.0
  C  C414  1  0.316100  0.464200  0.318200  1.0
  C  C415  1  0.401500  0.964200  0.818200  1.0
  C  C416  1  0.816100  0.401500  0.818200  1.0
  C  C417  1  0.964200  0.816100  0.818200  1.0
  C  C418  1  0.535800  0.098500  0.681800  1.0
  C  C419  1  0.098500  0.683900  0.681800  1.0
  C  C420  1  0.683900  0.535800  0.681800  1.0
  C  C421  1  0.578870  0.078290  0.163860  1.0
  C  C422  1  0.178980  0.578870  0.163860  1.0
  C  C423  1  0.078290  0.178980  0.163860  1.0
  C  C424  1  0.421710  0.921130  0.336140  1.0
  C  C425  1  0.921130  0.321020  0.336140  1.0
  C  C426  1  0.321020  0.421710  0.336140  1.0
  C  C427  1  0.421130  0.921710  0.836140  1.0
  C  C428  1  0.821020  0.421130  0.836140  1.0
  C  C429  1  0.921710  0.821020  0.836140  1.0
  C  C430  1  0.578290  0.078870  0.663860  1.0
  C  C431  1  0.078870  0.678980  0.663860  1.0
  C  C432  1  0.678980  0.578290  0.663860  1.0
  C  C433  1  0.605730  0.097430  0.138210  1.0
  C  C434  1  0.158630  0.605730  0.138210  1.0
  C  C435  1  0.097430  0.158630  0.138210  1.0
  C  C436  1  0.402570  0.894270  0.361790  1.0
  C  C437  1  0.894270  0.341370  0.361790  1.0
  C  C438  1  0.341370  0.402570  0.361790  1.0
  C  C439  1  0.394270  0.902570  0.861790  1.0
  C  C440  1  0.841370  0.394270  0.861790  1.0
  C  C441  1  0.902570  0.841370  0.861790  1.0
  C  C442  1  0.597430  0.105730  0.638210  1.0
  C  C443  1  0.105730  0.658630  0.638210  1.0
  C  C444  1  0.658630  0.597430  0.638210  1.0
  C  C445  1  0.208440  0.568260  0.209430  1.0
  C  C446  1  0.013870  0.208440  0.209430  1.0
  C  C447  1  0.568260  0.013870  0.209430  1.0
  C  C448  1  0.931740  0.291560  0.290570  1.0
  C  C449  1  0.291560  0.486130  0.290570  1.0
  C  C450  1  0.486130  0.931740  0.290570  1.0
  C  C451  1  0.791560  0.431740  0.790570  1.0
  C  C452  1  0.986130  0.791560  0.790570  1.0
  C  C453  1  0.431740  0.986130  0.790570  1.0
  C  C454  1  0.068260  0.708440  0.709430  1.0
  C  C455  1  0.708440  0.513870  0.709430  1.0
  C  C456  1  0.513870  0.068260  0.709430  1.0
  C  C457  1  0.505240  0.411740  0.882100  1.0
  C  C458  1  0.200920  0.505240  0.882100  1.0
  C  C459  1  0.411740  0.200920  0.882100  1.0
  C  C460  1  0.088260  0.994760  0.617900  1.0
  C  C461  1  0.994760  0.299080  0.617900  1.0
  C  C462  1  0.299080  0.088260  0.617900  1.0
  C  C463  1  0.494760  0.588260  0.117900  1.0
  C  C464  1  0.799080  0.494760  0.117900  1.0
  C  C465  1  0.588260  0.799080  0.117900  1.0
  C  C466  1  0.911740  0.005240  0.382100  1.0
  C  C467  1  0.005240  0.700920  0.382100  1.0
  C  C468  1  0.700920  0.911740  0.382100  1.0
  C  C469  1  0.481650  0.451170  0.860950  1.0
  C  C470  1  0.206230  0.481650  0.860950  1.0
  C  C471  1  0.451170  0.206230  0.860950  1.0
  C  C472  1  0.048830  0.018350  0.639050  1.0
  C  C473  1  0.018350  0.293770  0.639050  1.0
  C  C474  1  0.293770  0.048830  0.639050  1.0
  C  C475  1  0.518350  0.548830  0.139050  1.0
  C  C476  1  0.793770  0.518350  0.139050  1.0
  C  C477  1  0.548830  0.793770  0.139050  1.0
  C  C478  1  0.951170  0.981650  0.360950  1.0
  C  C479  1  0.981650  0.706230  0.360950  1.0
  C  C480  1  0.706230  0.951170  0.360950  1.0
  C  C481  1  0.501800  0.475910  0.832090  1.0
  C  C482  1  0.190200  0.501800  0.832090  1.0
  C  C483  1  0.475910  0.190200  0.832090  1.0
  C  C484  1  0.024090  0.998200  0.667910  1.0
  C  C485  1  0.998200  0.309800  0.667910  1.0
  C  C486  1  0.309800  0.024090  0.667910  1.0
  C  C487  1  0.498200  0.524090  0.167910  1.0
  C  C488  1  0.809800  0.498200  0.167910  1.0
  C  C489  1  0.524090  0.809800  0.167910  1.0
  C  C490  1  0.975910  0.001800  0.332090  1.0
  C  C491  1  0.001800  0.690200  0.332090  1.0
  C  C492  1  0.690200  0.975910  0.332090  1.0
  C  C493  1  0.480690  0.515290  0.811630  1.0
  C  C494  1  0.192390  0.480690  0.811630  1.0
  C  C495  1  0.515290  0.192390  0.811630  1.0
  C  C496  1  0.984710  0.019310  0.688370  1.0
  C  C497  1  0.019310  0.307610  0.688370  1.0
  C  C498  1  0.307610  0.984710  0.688370  1.0
  C  C499  1  0.519310  0.484710  0.188370  1.0
  C  C500  1  0.807610  0.519310  0.188370  1.0
  C  C501  1  0.484710  0.807610  0.188370  1.0
  C  C502  1  0.015290  0.980690  0.311630  1.0
  C  C503  1  0.980690  0.692390  0.311630  1.0
  C  C504  1  0.692390  0.015290  0.311630  1.0
  C  C505  1  0.438180  0.528080  0.822160  1.0
  C  C506  1  0.211580  0.438180  0.822160  1.0
  C  C507  1  0.528080  0.211580  0.822160  1.0
  C  C508  1  0.971920  0.061820  0.677840  1.0
  C  C509  1  0.061820  0.288420  0.677840  1.0
  C  C510  1  0.288420  0.971920  0.677840  1.0
  C  C511  1  0.561820  0.471920  0.177840  1.0
  C  C512  1  0.788420  0.561820  0.177840  1.0
  C  C513  1  0.471920  0.788420  0.177840  1.0
  C  C514  1  0.028080  0.938180  0.322160  1.0
  C  C515  1  0.938180  0.711580  0.322160  1.0
  C  C516  1  0.711580  0.028080  0.322160  1.0
  C  C517  1  0.415010  0.510020  0.847570  1.0
  C  C518  1  0.227400  0.415010  0.847570  1.0
  C  C519  1  0.510020  0.227400  0.847570  1.0
  C  C520  1  0.989980  0.084990  0.652430  1.0
  C  C521  1  0.084990  0.272600  0.652430  1.0
  C  C522  1  0.272600  0.989980  0.652430  1.0
  C  C523  1  0.584990  0.489980  0.152430  1.0
  C  C524  1  0.772600  0.584990  0.152430  1.0
  C  C525  1  0.489980  0.772600  0.152430  1.0
  C  C526  1  0.010020  0.915010  0.347570  1.0
  C  C527  1  0.915010  0.727400  0.347570  1.0
  C  C528  1  0.727400  0.010020  0.347570  1.0
  C  C529  1  0.439060  0.468440  0.867820  1.0
  C  C530  1  0.224680  0.439060  0.867820  1.0
  C  C531  1  0.468440  0.224680  0.867820  1.0
  C  C532  1  0.031560  0.060940  0.632180  1.0
  C  C533  1  0.060940  0.275320  0.632180  1.0
  C  C534  1  0.275320  0.031560  0.632180  1.0
  C  C535  1  0.560940  0.531560  0.132180  1.0
  C  C536  1  0.775320  0.560940  0.132180  1.0
  C  C537  1  0.531560  0.775320  0.132180  1.0
  C  C538  1  0.968440  0.939060  0.367820  1.0
  C  C539  1  0.939060  0.724680  0.367820  1.0
  C  C540  1  0.724680  0.968440  0.367820  1.0
  C  C541  1  0.373780  0.533280  0.848560  1.0
  C  C542  1  0.244380  0.373780  0.848560  1.0
  C  C543  1  0.533280  0.244380  0.848560  1.0
  C  C544  1  0.966720  0.126220  0.651440  1.0
  C  C545  1  0.126220  0.255620  0.651440  1.0
  C  C546  1  0.255620  0.966720  0.651440  1.0
  C  C547  1  0.626220  0.466720  0.151440  1.0
  C  C548  1  0.755620  0.626220  0.151440  1.0
  C  C549  1  0.466720  0.755620  0.151440  1.0
  C  C550  1  0.033280  0.873780  0.348560  1.0
  C  C551  1  0.873780  0.744380  0.348560  1.0
  C  C552  1  0.744380  0.033280  0.348560  1.0
  C  C553  1  0.334180  0.529900  0.869860  1.0
  C  C554  1  0.266060  0.334180  0.869860  1.0
  C  C555  1  0.529900  0.266060  0.869860  1.0
  C  C556  1  0.970100  0.165820  0.630140  1.0
  C  C557  1  0.165820  0.233940  0.630140  1.0
  C  C558  1  0.233940  0.970100  0.630140  1.0
  C  C559  1  0.665820  0.470100  0.130140  1.0
  C  C560  1  0.733940  0.665820  0.130140  1.0
  C  C561  1  0.470100  0.733940  0.130140  1.0
  C  C562  1  0.029900  0.834180  0.369860  1.0
  C  C563  1  0.834180  0.766060  0.369860  1.0
  C  C564  1  0.766060  0.029900  0.369860  1.0
  C  C565  1  0.297940  0.559150  0.863980  1.0
  C  C566  1  0.278930  0.297940  0.863980  1.0
  C  C567  1  0.559150  0.278930  0.863980  1.0
  C  C568  1  0.940850  0.202060  0.636020  1.0
  C  C569  1  0.202060  0.221070  0.636020  1.0
  C  C570  1  0.221070  0.940850  0.636020  1.0
  C  C571  1  0.702060  0.440850  0.136020  1.0
  C  C572  1  0.721070  0.702060  0.136020  1.0
  C  C573  1  0.440850  0.721070  0.136020  1.0
  C  C574  1  0.059150  0.797940  0.363980  1.0
  C  C575  1  0.797940  0.778930  0.363980  1.0
  C  C576  1  0.778930  0.059150  0.363980  1.0
  C  C577  1  0.294580  0.595630  0.835210  1.0
  C  C578  1  0.274580  0.294580  0.835210  1.0
  C  C579  1  0.595630  0.274580  0.835210  1.0
  C  C580  1  0.904370  0.205420  0.664790  1.0
  C  C581  1  0.205420  0.225420  0.664790  1.0
  C  C582  1  0.225420  0.904370  0.664790  1.0
  C  C583  1  0.705420  0.404370  0.164790  1.0
  C  C584  1  0.725420  0.705420  0.164790  1.0
  C  C585  1  0.404370  0.725420  0.164790  1.0
  C  C586  1  0.095630  0.794580  0.335210  1.0
  C  C587  1  0.794580  0.774580  0.335210  1.0
  C  C588  1  0.774580  0.095630  0.335210  1.0
  C  C589  1  0.331420  0.599520  0.816340  1.0
  C  C590  1  0.252720  0.331420  0.816340  1.0
  C  C591  1  0.599520  0.252720  0.816340  1.0
  C  C592  1  0.900480  0.168580  0.683660  1.0
  C  C593  1  0.168580  0.247280  0.683660  1.0
  C  C594  1  0.247280  0.900480  0.683660  1.0
  C  C595  1  0.668580  0.400480  0.183660  1.0
  C  C596  1  0.747280  0.668580  0.183660  1.0
  C  C597  1  0.400480  0.747280  0.183660  1.0
  C  C598  1  0.099520  0.831420  0.316340  1.0
  C  C599  1  0.831420  0.752720  0.316340  1.0
  C  C600  1  0.752720  0.099520  0.316340  1.0
  C  C601  1  0.370630  0.567130  0.822910  1.0
  C  C602  1  0.239330  0.370630  0.822910  1.0
  C  C603  1  0.567130  0.239330  0.822910  1.0
  C  C604  1  0.932870  0.129370  0.677090  1.0
  C  C605  1  0.129370  0.260670  0.677090  1.0
  C  C606  1  0.260670  0.932870  0.677090  1.0
  C  C607  1  0.629370  0.432870  0.177090  1.0
  C  C608  1  0.760670  0.629370  0.177090  1.0
  C  C609  1  0.432870  0.760670  0.177090  1.0
  C  C610  1  0.067130  0.870630  0.322910  1.0
  C  C611  1  0.870630  0.739330  0.322910  1.0
  C  C612  1  0.739330  0.067130  0.322910  1.0
  C  C613  1  0.553670  0.304410  0.884230  1.0
  C  C614  1  0.257690  0.553670  0.884230  1.0
  C  C615  1  0.304410  0.257690  0.884230  1.0
  C  C616  1  0.195590  0.946330  0.615770  1.0
  C  C617  1  0.946330  0.242310  0.615770  1.0
  C  C618  1  0.242310  0.195590  0.615770  1.0
  C  C619  1  0.446330  0.695590  0.115770  1.0
  C  C620  1  0.742310  0.446330  0.115770  1.0
  C  C621  1  0.695590  0.742310  0.115770  1.0
  C  C622  1  0.804410  0.053670  0.384230  1.0
  C  C623  1  0.053670  0.757690  0.384230  1.0
  C  C624  1  0.757690  0.804410  0.384230  1.0
  C  C625  1  0.660470  0.356170  0.911290  1.0
  C  C626  1  0.072070  0.660470  0.911290  1.0
  C  C627  1  0.356170  0.072070  0.911290  1.0
  C  C628  1  0.143830  0.839530  0.588710  1.0
  C  C629  1  0.839530  0.427930  0.588710  1.0
  C  C630  1  0.427930  0.143830  0.588710  1.0
  C  C631  1  0.339530  0.643830  0.088710  1.0
  C  C632  1  0.927930  0.339530  0.088710  1.0
  C  C633  1  0.643830  0.927930  0.088710  1.0
  C  C634  1  0.856170  0.160470  0.411290  1.0
  C  C635  1  0.160470  0.572070  0.411290  1.0
  C  C636  1  0.572070  0.856170  0.411290  1.0
  C  C637  1  0.663500  0.354600  0.877000  1.0
  C  C638  1  0.104900  0.663500  0.877000  1.0
  C  C639  1  0.354600  0.104900  0.877000  1.0
  C  C640  1  0.145400  0.836500  0.623000  1.0
  C  C641  1  0.836500  0.395100  0.623000  1.0
  C  C642  1  0.395100  0.145400  0.623000  1.0
  C  C643  1  0.336500  0.645400  0.123000  1.0
  C  C644  1  0.895100  0.336500  0.123000  1.0
  C  C645  1  0.645400  0.895100  0.123000  1.0
  C  C646  1  0.854600  0.163500  0.377000  1.0
  C  C647  1  0.163500  0.604900  0.377000  1.0
  C  C648  1  0.604900  0.854600  0.377000  1.0
  C  C649  1  0.707640  0.344440  0.823480  1.0
  C  C650  1  0.124440  0.707640  0.823480  1.0
  C  C651  1  0.344440  0.124440  0.823480  1.0
  C  C652  1  0.155560  0.792360  0.676520  1.0
  C  C653  1  0.792360  0.375560  0.676520  1.0
  C  C654  1  0.375560  0.155560  0.676520  1.0
  C  C655  1  0.292360  0.655560  0.176520  1.0
  C  C656  1  0.875560  0.292360  0.176520  1.0
  C  C657  1  0.655560  0.875560  0.176520  1.0
  C  C658  1  0.844440  0.207640  0.323480  1.0
  C  C659  1  0.207640  0.624440  0.323480  1.0
  C  C660  1  0.624440  0.844440  0.323480  1.0
  C  C661  1  0.738440  0.346540  0.860680  1.0
  C  C662  1  0.054340  0.738440  0.860680  1.0
  C  C663  1  0.346540  0.054340  0.860680  1.0
  C  C664  1  0.153460  0.761560  0.639320  1.0
  C  C665  1  0.761560  0.445660  0.639320  1.0
  C  C666  1  0.445660  0.153460  0.639320  1.0
  C  C667  1  0.261560  0.653460  0.139320  1.0
  C  C668  1  0.945660  0.261560  0.139320  1.0
  C  C669  1  0.653460  0.945660  0.139320  1.0
  C  C670  1  0.846540  0.238440  0.360680  1.0
  C  C671  1  0.238440  0.554340  0.360680  1.0
  C  C672  1  0.554340  0.846540  0.360680  1.0
  Cu  Cu673  1  0.249989  0.560962  0.250033  1.0
  Cu  Cu674  1  0.939016  0.249989  0.250033  1.0
  Cu  Cu675  1  0.560962  0.939016  0.250033  1.0
  Cu  Cu676  1  0.750011  0.439038  0.749967  1.0
  Cu  Cu677  1  0.060984  0.750011  0.749967  1.0
  Cu  Cu678  1  0.439038  0.060984  0.749967  1.0
  Cu  Cu679  1  0.249989  0.492012  0.250033  1.0
  Cu  Cu680  1  0.007966  0.249989  0.250033  1.0
  Cu  Cu681  1  0.492012  0.007966  0.250033  1.0
  Cu  Cu682  1  0.750011  0.507988  0.749967  1.0
  Cu  Cu683  1  0.992034  0.750011  0.749967  1.0
  Cu  Cu684  1  0.507988  0.992034  0.749967  1.0
  Cu  Cu685  1  0.577372  0.352039  0.901204  1.0
  Cu  Cu686  1  0.169385  0.577372  0.901204  1.0
  Cu  Cu687  1  0.352039  0.169385  0.901204  1.0
  Cu  Cu688  1  0.147961  0.922628  0.598796  1.0
  Cu  Cu689  1  0.922628  0.330615  0.598796  1.0
  Cu  Cu690  1  0.330615  0.147961  0.598796  1.0
  Cu  Cu691  1  0.422628  0.647961  0.098796  1.0
  Cu  Cu692  1  0.830615  0.422628  0.098796  1.0
  Cu  Cu693  1  0.647961  0.830615  0.098796  1.0
  Cu  Cu694  1  0.852039  0.077372  0.401204  1.0
  Cu  Cu695  1  0.077372  0.669385  0.401204  1.0
  Cu  Cu696  1  0.669385  0.852039  0.401204  1.0
  Cu  Cu697  1  0.507591  0.341025  0.939148  1.0
  Cu  Cu698  1  0.212236  0.507591  0.939148  1.0
  Cu  Cu699  1  0.341025  0.212236  0.939148  1.0
  Cu  Cu700  1  0.158975  0.992409  0.560852  1.0
  Cu  Cu701  1  0.992409  0.287764  0.560852  1.0
  Cu  Cu702  1  0.287764  0.158975  0.560852  1.0
  Cu  Cu703  1  0.492409  0.658975  0.060852  1.0
  Cu  Cu704  1  0.787764  0.492409  0.060852  1.0
  Cu  Cu705  1  0.658975  0.787764  0.060852  1.0
  Cu  Cu706  1  0.841025  0.007591  0.439148  1.0
  Cu  Cu707  1  0.007591  0.712236  0.439148  1.0
  Cu  Cu708  1  0.712236  0.841025  0.439148  1.0
  H  H709  1  0.420300  0.582600  0.787900  1.0
  H  H710  1  0.209200  0.420300  0.787900  1.0
  H  H711  1  0.582600  0.209200  0.787900  1.0
  H  H712  1  0.917400  0.079700  0.712100  1.0
  H  H713  1  0.079700  0.290800  0.712100  1.0
  H  H714  1  0.290800  0.917400  0.712100  1.0
  H  H715  1  0.579700  0.417400  0.212100  1.0
  H  H716  1  0.790800  0.579700  0.212100  1.0
  H  H717  1  0.417400  0.790800  0.212100  1.0
  H  H718  1  0.082600  0.920300  0.287900  1.0
  H  H719  1  0.920300  0.709200  0.287900  1.0
  H  H720  1  0.709200  0.082600  0.287900  1.0
  H  H721  1  0.572800  0.423300  0.954400  1.0
  H  H722  1  0.049500  0.572800  0.954400  1.0
  H  H723  1  0.423300  0.049500  0.954400  1.0
  H  H724  1  0.076700  0.927200  0.545600  1.0
  H  H725  1  0.927200  0.450500  0.545600  1.0
  H  H726  1  0.450500  0.076700  0.545600  1.0
  H  H727  1  0.427200  0.576700  0.045600  1.0
  H  H728  1  0.950500  0.427200  0.045600  1.0
  H  H729  1  0.576700  0.950500  0.045600  1.0
  H  H730  1  0.923300  0.072800  0.454400  1.0
  H  H731  1  0.072800  0.549500  0.454400  1.0
  H  H732  1  0.549500  0.923300  0.454400  1.0
  H  H733  1  0.566200  0.456100  0.992200  1.0
  H  H734  1  0.985500  0.566200  0.992200  1.0
  H  H735  1  0.456100  0.985500  0.992200  1.0
  H  H736  1  0.043900  0.933800  0.507800  1.0
  H  H737  1  0.933800  0.514500  0.507800  1.0
  H  H738  1  0.514500  0.043900  0.507800  1.0
  H  H739  1  0.433800  0.543900  0.007800  1.0
  H  H740  1  0.014500  0.433800  0.007800  1.0
  H  H741  1  0.543900  0.014500  0.007800  1.0
  H  H742  1  0.956100  0.066200  0.492200  1.0
  H  H743  1  0.066200  0.485500  0.492200  1.0
  H  H744  1  0.485500  0.956100  0.492200  1.0
  H  H745  1  0.468600  0.429000  0.054000  1.0
  H  H746  1  0.048400  0.468600  0.054000  1.0
  H  H747  1  0.429000  0.048400  0.054000  1.0
  H  H748  1  0.071000  0.031400  0.446000  1.0
  H  H749  1  0.031400  0.451600  0.446000  1.0
  H  H750  1  0.451600  0.071000  0.446000  1.0
  H  H751  1  0.531400  0.571000  0.946000  1.0
  H  H752  1  0.951600  0.531400  0.946000  1.0
  H  H753  1  0.571000  0.951600  0.946000  1.0
  H  H754  1  0.929000  0.968600  0.554000  1.0
  H  H755  1  0.968600  0.548400  0.554000  1.0
  H  H756  1  0.548400  0.929000  0.554000  1.0
  H  H757  1  0.473200  0.398600  0.015000  1.0
  H  H758  1  0.113200  0.473200  0.015000  1.0
  H  H759  1  0.398600  0.113200  0.015000  1.0
  H  H760  1  0.101400  0.026800  0.485000  1.0
  H  H761  1  0.026800  0.386800  0.485000  1.0
  H  H762  1  0.386800  0.101400  0.485000  1.0
  H  H763  1  0.526800  0.601400  0.985000  1.0
  H  H764  1  0.886800  0.526800  0.985000  1.0
  H  H765  1  0.601400  0.886800  0.985000  1.0
  H  H766  1  0.898600  0.973200  0.515000  1.0
  H  H767  1  0.973200  0.613200  0.515000  1.0
  H  H768  1  0.613200  0.898600  0.515000  1.0
  H  H769  1  0.566600  0.476900  0.027000  1.0
  H  H770  1  0.929500  0.566600  0.027000  1.0
  H  H771  1  0.476900  0.929500  0.027000  1.0
  H  H772  1  0.023100  0.933400  0.473000  1.0
  H  H773  1  0.933400  0.570500  0.473000  1.0
  H  H774  1  0.570500  0.023100  0.473000  1.0
  H  H775  1  0.433400  0.523100  0.973000  1.0
  H  H776  1  0.070500  0.433400  0.973000  1.0
  H  H777  1  0.523100  0.070500  0.973000  1.0
  H  H778  1  0.976900  0.066600  0.527000  1.0
  H  H779  1  0.066600  0.429500  0.527000  1.0
  H  H780  1  0.429500  0.976900  0.527000  1.0
  H  H781  1  0.555100  0.505800  0.068100  1.0
  H  H782  1  0.871000  0.555100  0.068100  1.0
  H  H783  1  0.505800  0.871000  0.068100  1.0
  H  H784  1  0.994200  0.944900  0.431900  1.0
  H  H785  1  0.944900  0.629000  0.431900  1.0
  H  H786  1  0.629000  0.994200  0.431900  1.0
  H  H787  1  0.444900  0.494200  0.931900  1.0
  H  H788  1  0.129000  0.444900  0.931900  1.0
  H  H789  1  0.494200  0.129000  0.931900  1.0
  H  H790  1  0.005800  0.055100  0.568100  1.0
  H  H791  1  0.055100  0.371000  0.568100  1.0
  H  H792  1  0.371000  0.005800  0.568100  1.0
  H  H793  1  0.492500  0.517800  0.108900  1.0
  H  H794  1  0.880800  0.492500  0.108900  1.0
  H  H795  1  0.517800  0.880800  0.108900  1.0
  H  H796  1  0.982200  0.007500  0.391100  1.0
  H  H797  1  0.007500  0.619200  0.391100  1.0
  H  H798  1  0.619200  0.982200  0.391100  1.0
  H  H799  1  0.507500  0.482200  0.891100  1.0
  H  H800  1  0.119200  0.507500  0.891100  1.0
  H  H801  1  0.482200  0.119200  0.891100  1.0
  H  H802  1  0.017800  0.992500  0.608900  1.0
  H  H803  1  0.992500  0.380800  0.608900  1.0
  H  H804  1  0.380800  0.017800  0.608900  1.0
  H  H805  1  0.431900  0.328100  0.964900  1.0
  H  H806  1  0.275100  0.431900  0.964900  1.0
  H  H807  1  0.328100  0.275100  0.964900  1.0
  H  H808  1  0.171900  0.068100  0.535100  1.0
  H  H809  1  0.068100  0.224900  0.535100  1.0
  H  H810  1  0.224900  0.171900  0.535100  1.0
  H  H811  1  0.568100  0.671900  0.035100  1.0
  H  H812  1  0.724900  0.568100  0.035100  1.0
  H  H813  1  0.671900  0.724900  0.035100  1.0
  H  H814  1  0.828100  0.931900  0.464900  1.0
  H  H815  1  0.931900  0.775100  0.464900  1.0
  H  H816  1  0.775100  0.828100  0.464900  1.0
  H  H817  1  0.434700  0.348000  0.981100  1.0
  H  H818  1  0.236200  0.434700  0.981100  1.0
  H  H819  1  0.348000  0.236200  0.981100  1.0
  H  H820  1  0.152000  0.065300  0.518900  1.0
  H  H821  1  0.065300  0.263800  0.518900  1.0
  H  H822  1  0.263800  0.152000  0.518900  1.0
  H  H823  1  0.565300  0.652000  0.018900  1.0
  H  H824  1  0.763800  0.565300  0.018900  1.0
  H  H825  1  0.652000  0.763800  0.018900  1.0
  H  H826  1  0.848000  0.934700  0.481100  1.0
  H  H827  1  0.934700  0.736200  0.481100  1.0
  H  H828  1  0.736200  0.848000  0.481100  1.0
  H  H829  1  0.420500  0.554100  0.125100  1.0
  H  H830  1  0.900300  0.420500  0.125100  1.0
  H  H831  1  0.554100  0.900300  0.125100  1.0
  H  H832  1  0.945900  0.079500  0.374900  1.0
  H  H833  1  0.079500  0.599700  0.374900  1.0
  H  H834  1  0.599700  0.945900  0.374900  1.0
  H  H835  1  0.579500  0.445900  0.874900  1.0
  H  H836  1  0.099700  0.579500  0.874900  1.0
  H  H837  1  0.445900  0.099700  0.874900  1.0
  H  H838  1  0.054100  0.920500  0.625100  1.0
  H  H839  1  0.920500  0.400300  0.625100  1.0
  H  H840  1  0.400300  0.054100  0.625100  1.0
  H  H841  1  0.254100  0.634500  0.233100  1.0
  H  H842  1  0.878300  0.254100  0.233100  1.0
  H  H843  1  0.634500  0.878300  0.233100  1.0
  H  H844  1  0.865500  0.245900  0.266900  1.0
  H  H845  1  0.245900  0.621700  0.266900  1.0
  H  H846  1  0.621700  0.865500  0.266900  1.0
  H  H847  1  0.745900  0.365500  0.766900  1.0
  H  H848  1  0.121700  0.745900  0.766900  1.0
  H  H849  1  0.365500  0.121700  0.766900  1.0
  H  H850  1  0.134500  0.754100  0.733100  1.0
  H  H851  1  0.754100  0.378300  0.733100  1.0
  H  H852  1  0.378300  0.134500  0.733100  1.0
  H  H853  1  0.359400  0.562600  0.167400  1.0
  H  H854  1  0.910600  0.359400  0.167400  1.0
  H  H855  1  0.562600  0.910600  0.167400  1.0
  H  H856  1  0.937400  0.140600  0.332600  1.0
  H  H857  1  0.140600  0.589400  0.332600  1.0
  H  H858  1  0.589400  0.937400  0.332600  1.0
  H  H859  1  0.640600  0.437400  0.832600  1.0
  H  H860  1  0.089400  0.640600  0.832600  1.0
  H  H861  1  0.437400  0.089400  0.832600  1.0
  H  H862  1  0.062600  0.859400  0.667400  1.0
  H  H863  1  0.859400  0.410600  0.667400  1.0
  H  H864  1  0.410600  0.062600  0.667400  1.0
  H  H865  1  0.258800  0.424900  0.233100  1.0
  H  H866  1  0.083200  0.258800  0.233100  1.0
  H  H867  1  0.424900  0.083200  0.233100  1.0
  H  H868  1  0.075100  0.241200  0.266900  1.0
  H  H869  1  0.241200  0.416800  0.266900  1.0
  H  H870  1  0.416800  0.075100  0.266900  1.0
  H  H871  1  0.741200  0.575100  0.766900  1.0
  H  H872  1  0.916800  0.741200  0.766900  1.0
  H  H873  1  0.575100  0.916800  0.766900  1.0
  H  H874  1  0.924900  0.758800  0.733100  1.0
  H  H875  1  0.758800  0.583200  0.733100  1.0
  H  H876  1  0.583200  0.924900  0.733100  1.0
  H  H877  1  0.362300  0.454300  0.172500  1.0
  H  H878  1  0.010900  0.362300  0.172500  1.0
  H  H879  1  0.454300  0.010900  0.172500  1.0
  H  H880  1  0.045700  0.137700  0.327500  1.0
  H  H881  1  0.137700  0.489100  0.327500  1.0
  H  H882  1  0.489100  0.045700  0.327500  1.0
  H  H883  1  0.637700  0.545700  0.827500  1.0
  H  H884  1  0.989100  0.637700  0.827500  1.0
  H  H885  1  0.545700  0.989100  0.827500  1.0
  H  H886  1  0.954300  0.862300  0.672500  1.0
  H  H887  1  0.862300  0.510900  0.672500  1.0
  H  H888  1  0.510900  0.954300  0.672500  1.0
  H  H889  1  0.421900  0.448200  0.127200  1.0
  H  H890  1  0.002700  0.421900  0.127200  1.0
  H  H891  1  0.448200  0.002700  0.127200  1.0
  H  H892  1  0.051800  0.078100  0.372800  1.0
  H  H893  1  0.078100  0.497300  0.372800  1.0
  H  H894  1  0.497300  0.051800  0.372800  1.0
  H  H895  1  0.578100  0.551800  0.872800  1.0
  H  H896  1  0.997300  0.578100  0.872800  1.0
  H  H897  1  0.551800  0.997300  0.872800  1.0
  H  H898  1  0.948200  0.921900  0.627200  1.0
  H  H899  1  0.921900  0.502700  0.627200  1.0
  H  H900  1  0.502700  0.948200  0.627200  1.0
  H  H901  1  0.662400  0.253000  0.952900  1.0
  H  H902  1  0.131700  0.662400  0.952900  1.0
  H  H903  1  0.253000  0.131700  0.952900  1.0
  H  H904  1  0.247000  0.837600  0.547100  1.0
  H  H905  1  0.837600  0.368300  0.547100  1.0
  H  H906  1  0.368300  0.247000  0.547100  1.0
  H  H907  1  0.337600  0.747000  0.047100  1.0
  H  H908  1  0.868300  0.337600  0.047100  1.0
  H  H909  1  0.747000  0.868300  0.047100  1.0
  H  H910  1  0.753000  0.162400  0.452900  1.0
  H  H911  1  0.162400  0.631700  0.452900  1.0
  H  H912  1  0.631700  0.753000  0.452900  1.0
  H  H913  1  0.699100  0.206000  0.997300  1.0
  H  H914  1  0.097600  0.699100  0.997300  1.0
  H  H915  1  0.206000  0.097600  0.997300  1.0
  H  H916  1  0.294000  0.800900  0.502700  1.0
  H  H917  1  0.800900  0.402400  0.502700  1.0
  H  H918  1  0.402400  0.294000  0.502700  1.0
  H  H919  1  0.300900  0.794000  0.002700  1.0
  H  H920  1  0.902400  0.300900  0.002700  1.0
  H  H921  1  0.794000  0.902400  0.002700  1.0
  H  H922  1  0.706000  0.199100  0.497300  1.0
  H  H923  1  0.199100  0.597600  0.497300  1.0
  H  H924  1  0.597600  0.706000  0.497300  1.0
  H  H925  1  0.596100  0.181800  0.054300  1.0
  H  H926  1  0.167800  0.596100  0.054300  1.0
  H  H927  1  0.181800  0.167800  0.054300  1.0
  H  H928  1  0.318200  0.903900  0.445700  1.0
  H  H929  1  0.903900  0.332200  0.445700  1.0
  H  H930  1  0.332200  0.318200  0.445700  1.0
  H  H931  1  0.403900  0.818200  0.945700  1.0
  H  H932  1  0.832200  0.403900  0.945700  1.0
  H  H933  1  0.818200  0.832200  0.945700  1.0
  H  H934  1  0.681800  0.096100  0.554300  1.0
  H  H935  1  0.096100  0.667800  0.554300  1.0
  H  H936  1  0.667800  0.681800  0.554300  1.0
  H  H937  1  0.558000  0.234000  0.017700  1.0
  H  H938  1  0.190300  0.558000  0.017700  1.0
  H  H939  1  0.234000  0.190300  0.017700  1.0
  H  H940  1  0.266000  0.942000  0.482300  1.0
  H  H941  1  0.942000  0.309700  0.482300  1.0
  H  H942  1  0.309700  0.266000  0.482300  1.0
  H  H943  1  0.442000  0.766000  0.982300  1.0
  H  H944  1  0.809700  0.442000  0.982300  1.0
  H  H945  1  0.766000  0.809700  0.982300  1.0
  H  H946  1  0.734000  0.058000  0.517700  1.0
  H  H947  1  0.058000  0.690300  0.517700  1.0
  H  H948  1  0.690300  0.734000  0.517700  1.0
  H  H949  1  0.726000  0.163700  0.027900  1.0
  H  H950  1  0.082400  0.726000  0.027900  1.0
  H  H951  1  0.163700  0.082400  0.027900  1.0
  H  H952  1  0.336300  0.774000  0.472100  1.0
  H  H953  1  0.774000  0.417600  0.472100  1.0
  H  H954  1  0.417600  0.336300  0.472100  1.0
  H  H955  1  0.274000  0.836300  0.972100  1.0
  H  H956  1  0.917600  0.274000  0.972100  1.0
  H  H957  1  0.836300  0.917600  0.972100  1.0
  H  H958  1  0.663700  0.226000  0.527900  1.0
  H  H959  1  0.226000  0.582400  0.527900  1.0
  H  H960  1  0.582400  0.663700  0.527900  1.0
  H  H961  1  0.764200  0.105900  0.073500  1.0
  H  H962  1  0.056400  0.764200  0.073500  1.0
  H  H963  1  0.105900  0.056400  0.073500  1.0
  H  H964  1  0.394100  0.735800  0.426500  1.0
  H  H965  1  0.735800  0.443600  0.426500  1.0
  H  H966  1  0.443600  0.394100  0.426500  1.0
  H  H967  1  0.235800  0.894100  0.926500  1.0
  H  H968  1  0.943600  0.235800  0.926500  1.0
  H  H969  1  0.894100  0.943600  0.926500  1.0
  H  H970  1  0.605900  0.264200  0.573500  1.0
  H  H971  1  0.264200  0.556400  0.573500  1.0
  H  H972  1  0.556400  0.605900  0.573500  1.0
  H  H973  1  0.718100  0.074200  0.123000  1.0
  H  H974  1  0.084700  0.718100  0.123000  1.0
  H  H975  1  0.074200  0.084700  0.123000  1.0
  H  H976  1  0.425800  0.781900  0.377000  1.0
  H  H977  1  0.781900  0.415300  0.377000  1.0
  H  H978  1  0.415300  0.425800  0.377000  1.0
  H  H979  1  0.281900  0.925800  0.877000  1.0
  H  H980  1  0.915300  0.281900  0.877000  1.0
  H  H981  1  0.925800  0.915300  0.877000  1.0
  H  H982  1  0.574200  0.218100  0.623000  1.0
  H  H983  1  0.218100  0.584700  0.623000  1.0
  H  H984  1  0.584700  0.574200  0.623000  1.0
  H  H985  1  0.693300  0.024400  0.147300  1.0
  H  H986  1  0.135000  0.693300  0.147300  1.0
  H  H987  1  0.024400  0.135000  0.147300  1.0
  H  H988  1  0.475600  0.806700  0.352700  1.0
  H  H989  1  0.806700  0.365000  0.352700  1.0
  H  H990  1  0.365000  0.475600  0.352700  1.0
  H  H991  1  0.306700  0.975600  0.852700  1.0
  H  H992  1  0.865000  0.306700  0.852700  1.0
  H  H993  1  0.975600  0.865000  0.852700  1.0
  H  H994  1  0.524400  0.193300  0.647300  1.0
  H  H995  1  0.193300  0.635000  0.647300  1.0
  H  H996  1  0.635000  0.524400  0.647300  1.0
  H  H997  1  0.650200  0.992100  0.190200  1.0
  H  H998  1  0.167500  0.650200  0.190200  1.0
  H  H999  1  0.992100  0.167500  0.190200  1.0
  H  H1000  1  0.507900  0.849800  0.309800  1.0
  H  H1001  1  0.849800  0.332500  0.309800  1.0
  H  H1002  1  0.332500  0.507900  0.309800  1.0
  H  H1003  1  0.349800  0.007900  0.809800  1.0
  H  H1004  1  0.832500  0.349800  0.809800  1.0
  H  H1005  1  0.007900  0.832500  0.809800  1.0
  H  H1006  1  0.492100  0.150200  0.690200  1.0
  H  H1007  1  0.150200  0.667500  0.690200  1.0
  H  H1008  1  0.667500  0.492100  0.690200  1.0
  H  H1009  1  0.549300  0.093000  0.168900  1.0
  H  H1010  1  0.188800  0.549300  0.168900  1.0
  H  H1011  1  0.093000  0.188800  0.168900  1.0
  H  H1012  1  0.407000  0.950700  0.331100  1.0
  H  H1013  1  0.950700  0.311200  0.331100  1.0
  H  H1014  1  0.311200  0.407000  0.331100  1.0
  H  H1015  1  0.450700  0.907000  0.831100  1.0
  H  H1016  1  0.811200  0.450700  0.831100  1.0
  H  H1017  1  0.907000  0.811200  0.831100  1.0
  H  H1018  1  0.593000  0.049300  0.668900  1.0
  H  H1019  1  0.049300  0.688800  0.668900  1.0
  H  H1020  1  0.688800  0.593000  0.668900  1.0
  H  H1021  1  0.594300  0.124600  0.124200  1.0
  H  H1022  1  0.156900  0.594300  0.124200  1.0
  H  H1023  1  0.124600  0.156900  0.124200  1.0
  H  H1024  1  0.375400  0.905700  0.375800  1.0
  H  H1025  1  0.905700  0.343100  0.375800  1.0
  H  H1026  1  0.343100  0.375400  0.375800  1.0
  H  H1027  1  0.405700  0.875400  0.875800  1.0
  H  H1028  1  0.843100  0.405700  0.875800  1.0
  H  H1029  1  0.875400  0.843100  0.875800  1.0
  H  H1030  1  0.624600  0.094300  0.624200  1.0
  H  H1031  1  0.094300  0.656900  0.624200  1.0
  H  H1032  1  0.656900  0.624600  0.624200  1.0
  H  H1033  1  0.531400  0.465200  0.826300  1.0
  H  H1034  1  0.177100  0.531400  0.826300  1.0
  H  H1035  1  0.465200  0.177100  0.826300  1.0
  H  H1036  1  0.034800  0.968600  0.673700  1.0
  H  H1037  1  0.968600  0.322900  0.673700  1.0
  H  H1038  1  0.322900  0.034800  0.673700  1.0
  H  H1039  1  0.468600  0.534800  0.173700  1.0
  H  H1040  1  0.822900  0.468600  0.173700  1.0
  H  H1041  1  0.534800  0.822900  0.173700  1.0
  H  H1042  1  0.965200  0.031400  0.326300  1.0
  H  H1043  1  0.031400  0.677100  0.326300  1.0
  H  H1044  1  0.677100  0.965200  0.326300  1.0
  H  H1045  1  0.494800  0.531000  0.792700  1.0
  H  H1046  1  0.181500  0.494800  0.792700  1.0
  H  H1047  1  0.531000  0.181500  0.792700  1.0
  H  H1048  1  0.969000  0.005200  0.707300  1.0
  H  H1049  1  0.005200  0.318500  0.707300  1.0
  H  H1050  1  0.318500  0.969000  0.707300  1.0
  H  H1051  1  0.505200  0.469000  0.207300  1.0
  H  H1052  1  0.818500  0.505200  0.207300  1.0
  H  H1053  1  0.469000  0.818500  0.207300  1.0
  H  H1054  1  0.031000  0.994800  0.292700  1.0
  H  H1055  1  0.994800  0.681500  0.292700  1.0
  H  H1056  1  0.681500  0.031000  0.292700  1.0
  H  H1057  1  0.423900  0.453400  0.886300  1.0
  H  H1058  1  0.236400  0.423900  0.886300  1.0
  H  H1059  1  0.453400  0.236400  0.886300  1.0
  H  H1060  1  0.046600  0.076100  0.613700  1.0
  H  H1061  1  0.076100  0.263600  0.613700  1.0
  H  H1062  1  0.263600  0.046600  0.613700  1.0
  H  H1063  1  0.576100  0.546600  0.113700  1.0
  H  H1064  1  0.763600  0.576100  0.113700  1.0
  H  H1065  1  0.546600  0.763600  0.113700  1.0
  H  H1066  1  0.953400  0.923900  0.386300  1.0
  H  H1067  1  0.923900  0.736400  0.386300  1.0
  H  H1068  1  0.736400  0.953400  0.386300  1.0
  H  H1069  1  0.334300  0.506200  0.888400  1.0
  H  H1070  1  0.271100  0.334300  0.888400  1.0
  H  H1071  1  0.506200  0.271100  0.888400  1.0
  H  H1072  1  0.993800  0.165700  0.611600  1.0
  H  H1073  1  0.165700  0.228900  0.611600  1.0
  H  H1074  1  0.228900  0.993800  0.611600  1.0
  H  H1075  1  0.665700  0.493800  0.111600  1.0
  H  H1076  1  0.728900  0.665700  0.111600  1.0
  H  H1077  1  0.493800  0.728900  0.111600  1.0
  H  H1078  1  0.006200  0.834300  0.388400  1.0
  H  H1079  1  0.834300  0.771100  0.388400  1.0
  H  H1080  1  0.771100  0.006200  0.388400  1.0
  H  H1081  1  0.268600  0.615100  0.830200  1.0
  H  H1082  1  0.286100  0.268600  0.830200  1.0
  H  H1083  1  0.615100  0.286100  0.830200  1.0
  H  H1084  1  0.884900  0.231400  0.669800  1.0
  H  H1085  1  0.231400  0.213900  0.669800  1.0
  H  H1086  1  0.213900  0.884900  0.669800  1.0
  H  H1087  1  0.731400  0.384900  0.169800  1.0
  H  H1088  1  0.713900  0.731400  0.169800  1.0
  H  H1089  1  0.384900  0.713900  0.169800  1.0
  H  H1090  1  0.115100  0.768600  0.330200  1.0
  H  H1091  1  0.768600  0.786100  0.330200  1.0
  H  H1092  1  0.786100  0.115100  0.330200  1.0
  H  H1093  1  0.331400  0.624000  0.798400  1.0
  H  H1094  1  0.246200  0.331400  0.798400  1.0
  H  H1095  1  0.624000  0.246200  0.798400  1.0
  H  H1096  1  0.876000  0.168600  0.701600  1.0
  H  H1097  1  0.168600  0.253800  0.701600  1.0
  H  H1098  1  0.253800  0.876000  0.701600  1.0
  H  H1099  1  0.668600  0.376000  0.201600  1.0
  H  H1100  1  0.753800  0.668600  0.201600  1.0
  H  H1101  1  0.376000  0.753800  0.201600  1.0
  H  H1102  1  0.124000  0.831400  0.298400  1.0
  H  H1103  1  0.831400  0.746200  0.298400  1.0
  H  H1104  1  0.746200  0.124000  0.298400  1.0
  H  H1105  1  0.638800  0.346500  0.928600  1.0
  H  H1106  1  0.086100  0.638800  0.928600  1.0
  H  H1107  1  0.346500  0.086100  0.928600  1.0
  H  H1108  1  0.153500  0.861200  0.571400  1.0
  H  H1109  1  0.861200  0.413900  0.571400  1.0
  H  H1110  1  0.413900  0.153500  0.571400  1.0
  H  H1111  1  0.361200  0.653500  0.071400  1.0
  H  H1112  1  0.913900  0.361200  0.071400  1.0
  H  H1113  1  0.653500  0.913900  0.071400  1.0
  H  H1114  1  0.846500  0.138800  0.428600  1.0
  H  H1115  1  0.138800  0.586100  0.428600  1.0
  H  H1116  1  0.586100  0.846500  0.428600  1.0
  H  H1117  1  0.653400  0.384900  0.910300  1.0
  H  H1118  1  0.051400  0.653400  0.910300  1.0
  H  H1119  1  0.384900  0.051400  0.910300  1.0
  H  H1120  1  0.115100  0.846600  0.589700  1.0
  H  H1121  1  0.846600  0.448600  0.589700  1.0
  H  H1122  1  0.448600  0.115100  0.589700  1.0
  H  H1123  1  0.346600  0.615100  0.089700  1.0
  H  H1124  1  0.948600  0.346600  0.089700  1.0
  H  H1125  1  0.615100  0.948600  0.089700  1.0
  H  H1126  1  0.884900  0.153400  0.410300  1.0
  H  H1127  1  0.153400  0.551400  0.410300  1.0
  H  H1128  1  0.551400  0.884900  0.410300  1.0
  H  H1129  1  0.687500  0.337800  0.916600  1.0
  H  H1130  1  0.058100  0.687500  0.916600  1.0
  H  H1131  1  0.337800  0.058100  0.916600  1.0
  H  H1132  1  0.162200  0.812500  0.583400  1.0
  H  H1133  1  0.812500  0.441900  0.583400  1.0
  H  H1134  1  0.441900  0.162200  0.583400  1.0
  H  H1135  1  0.312500  0.662200  0.083400  1.0
  H  H1136  1  0.941900  0.312500  0.083400  1.0
  H  H1137  1  0.662200  0.941900  0.083400  1.0
  H  H1138  1  0.837800  0.187500  0.416600  1.0
  H  H1139  1  0.187500  0.558100  0.416600  1.0
  H  H1140  1  0.558100  0.837800  0.416600  1.0
  H  H1141  1  0.686300  0.334800  0.827200  1.0
  H  H1142  1  0.151700  0.686300  0.827200  1.0
  H  H1143  1  0.334800  0.151700  0.827200  1.0
  H  H1144  1  0.165200  0.813700  0.672800  1.0
  H  H1145  1  0.813700  0.348300  0.672800  1.0
  H  H1146  1  0.348300  0.165200  0.672800  1.0
  H  H1147  1  0.313700  0.665200  0.172800  1.0
  H  H1148  1  0.848300  0.313700  0.172800  1.0
  H  H1149  1  0.665200  0.848300  0.172800  1.0
  H  H1150  1  0.834800  0.186300  0.327200  1.0
  H  H1151  1  0.186300  0.651700  0.327200  1.0
  H  H1152  1  0.651700  0.834800  0.327200  1.0
  H  H1153  1  0.735600  0.323600  0.816100  1.0
  H  H1154  1  0.124700  0.735600  0.816100  1.0
  H  H1155  1  0.323600  0.124700  0.816100  1.0
  H  H1156  1  0.176400  0.764400  0.683900  1.0
  H  H1157  1  0.764400  0.375300  0.683900  1.0
  H  H1158  1  0.375300  0.176400  0.683900  1.0
  H  H1159  1  0.264400  0.676400  0.183900  1.0
  H  H1160  1  0.875300  0.264400  0.183900  1.0
  H  H1161  1  0.676400  0.875300  0.183900  1.0
  H  H1162  1  0.823600  0.235600  0.316100  1.0
  H  H1163  1  0.235600  0.624700  0.316100  1.0
  H  H1164  1  0.624700  0.823600  0.316100  1.0
  H  H1165  1  0.703700  0.371000  0.806200  1.0
  H  H1166  1  0.119100  0.703700  0.806200  1.0
  H  H1167  1  0.371000  0.119100  0.806200  1.0
  H  H1168  1  0.129000  0.796300  0.693800  1.0
  H  H1169  1  0.796300  0.380900  0.693800  1.0
  H  H1170  1  0.380900  0.129000  0.693800  1.0
  H  H1171  1  0.296300  0.629000  0.193800  1.0
  H  H1172  1  0.880900  0.296300  0.193800  1.0
  H  H1173  1  0.629000  0.880900  0.193800  1.0
  H  H1174  1  0.871000  0.203700  0.306200  1.0
  H  H1175  1  0.203700  0.619100  0.306200  1.0
  H  H1176  1  0.619100  0.871000  0.306200  1.0
  H  H1177  1  0.746800  0.321400  0.878800  1.0
  H  H1178  1  0.053000  0.746800  0.878800  1.0
  H  H1179  1  0.321400  0.053000  0.878800  1.0
  H  H1180  1  0.178600  0.753200  0.621200  1.0
  H  H1181  1  0.753200  0.447000  0.621200  1.0
  H  H1182  1  0.447000  0.178600  0.621200  1.0
  H  H1183  1  0.253200  0.678600  0.121200  1.0
  H  H1184  1  0.947000  0.253200  0.121200  1.0
  H  H1185  1  0.678600  0.947000  0.121200  1.0
  H  H1186  1  0.821400  0.246800  0.378800  1.0
  H  H1187  1  0.246800  0.553000  0.378800  1.0
  H  H1188  1  0.553000  0.821400  0.378800  1.0
  H  H1189  1  0.731200  0.371300  0.867100  1.0
  H  H1190  1  0.030400  0.731200  0.867100  1.0
  H  H1191  1  0.371300  0.030400  0.867100  1.0
  H  H1192  1  0.128700  0.768800  0.632900  1.0
  H  H1193  1  0.768800  0.469600  0.632900  1.0
  H  H1194  1  0.469600  0.128700  0.632900  1.0
  H  H1195  1  0.268800  0.628700  0.132900  1.0
  H  H1196  1  0.969600  0.268800  0.132900  1.0
  H  H1197  1  0.628700  0.969600  0.132900  1.0
  H  H1198  1  0.871300  0.231200  0.367100  1.0
  H  H1199  1  0.231200  0.530400  0.367100  1.0
  H  H1200  1  0.530400  0.871300  0.367100  1.0
  H  H1201  1  0.761500  0.344700  0.840400  1.0
  H  H1202  1  0.053400  0.761500  0.840400  1.0
  H  H1203  1  0.344700  0.053400  0.840400  1.0
  H  H1204  1  0.155300  0.738500  0.659600  1.0
  H  H1205  1  0.738500  0.446600  0.659600  1.0
  H  H1206  1  0.446600  0.155300  0.659600  1.0
  H  H1207  1  0.238500  0.655300  0.159600  1.0
  H  H1208  1  0.946600  0.238500  0.159600  1.0
  H  H1209  1  0.655300  0.946600  0.159600  1.0
  H  H1210  1  0.844700  0.261500  0.340400  1.0
  H  H1211  1  0.261500  0.553400  0.340400  1.0
  H  H1212  1  0.553400  0.844700  0.340400  1.0
  N  N1213  1  0.476530  0.470810  0.075480  1.0
  N  N1214  1  0.977180  0.476530  0.075480  1.0
  N  N1215  1  0.470810  0.977180  0.075480  1.0
  N  N1216  1  0.029190  0.023470  0.424520  1.0
  N  N1217  1  0.023470  0.522820  0.424520  1.0
  N  N1218  1  0.522820  0.029190  0.424520  1.0
  N  N1219  1  0.523470  0.529190  0.924520  1.0
  N  N1220  1  0.022820  0.523470  0.924520  1.0
  N  N1221  1  0.529190  0.022820  0.924520  1.0
  N  N1222  1  0.970810  0.976530  0.575480  1.0
  N  N1223  1  0.976530  0.477180  0.575480  1.0
  N  N1224  1  0.477180  0.970810  0.575480  1.0
  N  N1225  1  0.649080  0.135190  0.080460  1.0
  N  N1226  1  0.135270  0.649080  0.080460  1.0
  N  N1227  1  0.135190  0.135270  0.080460  1.0
  N  N1228  1  0.364810  0.850920  0.419540  1.0
  N  N1229  1  0.850920  0.364730  0.419540  1.0
  N  N1230  1  0.364730  0.364810  0.419540  1.0
  N  N1231  1  0.350920  0.864810  0.919540  1.0
  N  N1232  1  0.864730  0.350920  0.919540  1.0
  N  N1233  1  0.864810  0.864730  0.919540  1.0
  N  N1234  1  0.635190  0.149080  0.580460  1.0
  N  N1235  1  0.149080  0.635270  0.580460  1.0
  N  N1236  1  0.635270  0.635190  0.580460  1.0
  N  N1237  1  0.412580  0.564380  0.805660  1.0
  N  N1238  1  0.217380  0.412580  0.805660  1.0
  N  N1239  1  0.564380  0.217380  0.805660  1.0
  N  N1240  1  0.935620  0.087420  0.694340  1.0
  N  N1241  1  0.087420  0.282620  0.694340  1.0
  N  N1242  1  0.282620  0.935620  0.694340  1.0
  N  N1243  1  0.587420  0.435620  0.194340  1.0
  N  N1244  1  0.782620  0.587420  0.194340  1.0
  N  N1245  1  0.435620  0.782620  0.194340  1.0
  N  N1246  1  0.064380  0.912580  0.305660  1.0
  N  N1247  1  0.912580  0.717380  0.305660  1.0
  N  N1248  1  0.717380  0.064380  0.305660  1.0
  N  N1249  1  0.703690  0.350090  0.854830  1.0
  N  N1250  1  0.091390  0.703690  0.854830  1.0
  N  N1251  1  0.350090  0.091390  0.854830  1.0
  N  N1252  1  0.149910  0.796310  0.645170  1.0
  N  N1253  1  0.796310  0.408610  0.645170  1.0
  N  N1254  1  0.408610  0.149910  0.645170  1.0
  N  N1255  1  0.296310  0.649910  0.145170  1.0
  N  N1256  1  0.908610  0.296310  0.145170  1.0
  N  N1257  1  0.649910  0.908610  0.145170  1.0
  N  N1258  1  0.850090  0.203690  0.354830  1.0
  N  N1259  1  0.203690  0.591390  0.354830  1.0
  N  N1260  1  0.591390  0.850090  0.354830  1.0
  O  O1261  1  0.249989  0.614762  0.250033  1.0
  O  O1262  1  0.885216  0.249989  0.250033  1.0
  O  O1263  1  0.614762  0.885216  0.250033  1.0
  O  O1264  1  0.750011  0.385238  0.749967  1.0
  O  O1265  1  0.114784  0.750011  0.749967  1.0
  O  O1266  1  0.385238  0.114784  0.749967  1.0
  O  O1267  1  0.249989  0.434032  0.250033  1.0
  O  O1268  1  0.065946  0.249989  0.250033  1.0
  O  O1269  1  0.434032  0.065946  0.250033  1.0
  O  O1270  1  0.750011  0.565968  0.749967  1.0
  O  O1271  1  0.934054  0.750011  0.749967  1.0
  O  O1272  1  0.565968  0.934054  0.749967  1.0
  O  O1273  1  0.560970  0.385550  0.932530  1.0
  O  O1274  1  0.120950  0.560970  0.932530  1.0
  O  O1275  1  0.385550  0.120950  0.932530  1.0
  O  O1276  1  0.114450  0.939030  0.567470  1.0
  O  O1277  1  0.939030  0.379050  0.567470  1.0
  O  O1278  1  0.379050  0.114450  0.567470  1.0
  O  O1279  1  0.439030  0.614450  0.067470  1.0
  O  O1280  1  0.879050  0.439030  0.067470  1.0
  O  O1281  1  0.614450  0.879050  0.067470  1.0
  O  O1282  1  0.885550  0.060970  0.432530  1.0
  O  O1283  1  0.060970  0.620950  0.432530  1.0
  O  O1284  1  0.620950  0.885550  0.432530  1.0
  O  O1285  1  0.501260  0.373420  0.966400  1.0
  O  O1286  1  0.158920  0.501260  0.966400  1.0
  O  O1287  1  0.373420  0.158920  0.966400  1.0
  O  O1288  1  0.126580  0.998740  0.533600  1.0
  O  O1289  1  0.998740  0.341080  0.533600  1.0
  O  O1290  1  0.341080  0.126580  0.533600  1.0
  O  O1291  1  0.498740  0.626580  0.033600  1.0
  O  O1292  1  0.841080  0.498740  0.033600  1.0
  O  O1293  1  0.626580  0.841080  0.033600  1.0
  O  O1294  1  0.873420  0.001260  0.466400  1.0
  O  O1295  1  0.001260  0.658920  0.466400  1.0
  O  O1296  1  0.658920  0.873420  0.466400  1.0
  O  O1297  1  0.300510  0.549120  0.211290  1.0
  O  O1298  1  0.939080  0.300510  0.211290  1.0
  O  O1299  1  0.549120  0.939080  0.211290  1.0
  O  O1300  1  0.950880  0.199490  0.288710  1.0
  O  O1301  1  0.199490  0.560920  0.288710  1.0
  O  O1302  1  0.560920  0.950880  0.288710  1.0
  O  O1303  1  0.699490  0.450880  0.788710  1.0
  O  O1304  1  0.060920  0.699490  0.788710  1.0
  O  O1305  1  0.450880  0.060920  0.788710  1.0
  O  O1306  1  0.049120  0.800510  0.711290  1.0
  O  O1307  1  0.800510  0.439080  0.711290  1.0
  O  O1308  1  0.439080  0.049120  0.711290  1.0
  O  O1309  1  0.301920  0.486850  0.215070  1.0
  O  O1310  1  0.996160  0.301920  0.215070  1.0
  O  O1311  1  0.486850  0.996160  0.215070  1.0
  O  O1312  1  0.013150  0.198080  0.284930  1.0
  O  O1313  1  0.198080  0.503840  0.284930  1.0
  O  O1314  1  0.503840  0.013150  0.284930  1.0
  O  O1315  1  0.698080  0.513150  0.784930  1.0
  O  O1316  1  0.003840  0.698080  0.784930  1.0
  O  O1317  1  0.513150  0.003840  0.784930  1.0
  O  O1318  1  0.986850  0.801920  0.715070  1.0
  O  O1319  1  0.801920  0.496160  0.715070  1.0
  O  O1320  1  0.496160  0.986850  0.715070  1.0
  O  O1321  1  0.605110  0.300070  0.932620  1.0
  O  O1322  1  0.162200  0.605110  0.932620  1.0
  O  O1323  1  0.300070  0.162200  0.932620  1.0
  O  O1324  1  0.199930  0.894890  0.567380  1.0
  O  O1325  1  0.894890  0.337800  0.567380  1.0
  O  O1326  1  0.337800  0.199930  0.567380  1.0
  O  O1327  1  0.394890  0.699930  0.067380  1.0
  O  O1328  1  0.837800  0.394890  0.067380  1.0
  O  O1329  1  0.699930  0.837800  0.067380  1.0
  O  O1330  1  0.800070  0.105110  0.432620  1.0
  O  O1331  1  0.105110  0.662200  0.432620  1.0
  O  O1332  1  0.662200  0.800070  0.432620  1.0
  O  O1333  1  0.545010  0.290510  0.965020  1.0
  O  O1334  1  0.199460  0.545010  0.965020  1.0
  O  O1335  1  0.290510  0.199460  0.965020  1.0
  O  O1336  1  0.209490  0.954990  0.534980  1.0
  O  O1337  1  0.954990  0.300540  0.534980  1.0
  O  O1338  1  0.300540  0.209490  0.534980  1.0
  O  O1339  1  0.454990  0.709490  0.034980  1.0
  O  O1340  1  0.800540  0.454990  0.034980  1.0
  O  O1341  1  0.709490  0.800540  0.034980  1.0
  O  O1342  1  0.790510  0.045010  0.465020  1.0
  O  O1343  1  0.045010  0.699460  0.465020  1.0
  O  O1344  1  0.699460  0.790510  0.465020  1.0
  O  O1345  1  0.213910  0.591740  0.219840  1.0
  O  O1346  1  0.974510  0.213910  0.219840  1.0
  O  O1347  1  0.591740  0.974510  0.219840  1.0
  O  O1348  1  0.908260  0.286090  0.280160  1.0
  O  O1349  1  0.286090  0.525490  0.280160  1.0
  O  O1350  1  0.525490  0.908260  0.280160  1.0
  O  O1351  1  0.786090  0.408260  0.780160  1.0
  O  O1352  1  0.025490  0.786090  0.780160  1.0
  O  O1353  1  0.408260  0.025490  0.780160  1.0
  O  O1354  1  0.091740  0.713910  0.719840  1.0
  O  O1355  1  0.713910  0.474510  0.719840  1.0
  O  O1356  1  0.474510  0.091740  0.719840  1.0
  O  O1357  1  0.219310  0.531820  0.214920  1.0
  O  O1358  1  0.033950  0.219310  0.214920  1.0
  O  O1359  1  0.531820  0.033950  0.214920  1.0
  O  O1360  1  0.968180  0.280690  0.285080  1.0
  O  O1361  1  0.280690  0.466050  0.285080  1.0
  O  O1362  1  0.466050  0.968180  0.285080  1.0
  O  O1363  1  0.780690  0.468180  0.785080  1.0
  O  O1364  1  0.966050  0.780690  0.785080  1.0
  O  O1365  1  0.468180  0.966050  0.785080  1.0
  O  O1366  1  0.031820  0.719310  0.714920  1.0
  O  O1367  1  0.719310  0.533950  0.714920  1.0
  O  O1368  1  0.533950  0.031820  0.714920  1.0
  O  O1369  1  0.543450  0.401770  0.873730  1.0
  O  O1370  1  0.181050  0.543450  0.873730  1.0
  O  O1371  1  0.401770  0.181050  0.873730  1.0
  O  O1372  1  0.098230  0.956550  0.626270  1.0
  O  O1373  1  0.956550  0.318950  0.626270  1.0
  O  O1374  1  0.318950  0.098230  0.626270  1.0
  O  O1375  1  0.456550  0.598230  0.126270  1.0
  O  O1376  1  0.818950  0.456550  0.126270  1.0
  O  O1377  1  0.598230  0.818950  0.126270  1.0
  O  O1378  1  0.901770  0.043450  0.373730  1.0
  O  O1379  1  0.043450  0.681050  0.373730  1.0
  O  O1380  1  0.681050  0.901770  0.373730  1.0
  O  O1381  1  0.482730  0.395080  0.906550  1.0
  O  O1382  1  0.215640  0.482730  0.906550  1.0
  O  O1383  1  0.395080  0.215640  0.906550  1.0
  O  O1384  1  0.104920  0.017270  0.593450  1.0
  O  O1385  1  0.017270  0.284360  0.593450  1.0
  O  O1386  1  0.284360  0.104920  0.593450  1.0
  O  O1387  1  0.517270  0.604920  0.093450  1.0
  O  O1388  1  0.784360  0.517270  0.093450  1.0
  O  O1389  1  0.604920  0.784360  0.093450  1.0
  O  O1390  1  0.895080  0.982730  0.406550  1.0
  O  O1391  1  0.982730  0.715640  0.406550  1.0
  O  O1392  1  0.715640  0.895080  0.406550  1.0
  O  O1393  1  0.582580  0.316540  0.876640  1.0
  O  O1394  1  0.224240  0.582580  0.876640  1.0
  O  O1395  1  0.316540  0.224240  0.876640  1.0
  O  O1396  1  0.183460  0.917420  0.623360  1.0
  O  O1397  1  0.917420  0.275760  0.623360  1.0
  O  O1398  1  0.275760  0.183460  0.623360  1.0
  O  O1399  1  0.417420  0.683460  0.123360  1.0
  O  O1400  1  0.775760  0.417420  0.123360  1.0
  O  O1401  1  0.683460  0.775760  0.123360  1.0
  O  O1402  1  0.816540  0.082580  0.376640  1.0
  O  O1403  1  0.082580  0.724240  0.376640  1.0
  O  O1404  1  0.724240  0.816540  0.376640  1.0
  O  O1405  1  0.521270  0.308240  0.908620  1.0
  O  O1406  1  0.261870  0.521270  0.908620  1.0
  O  O1407  1  0.308240  0.261870  0.908620  1.0
  O  O1408  1  0.191760  0.978730  0.591380  1.0
  O  O1409  1  0.978730  0.238130  0.591380  1.0
  O  O1410  1  0.238130  0.191760  0.591380  1.0
  O  O1411  1  0.478730  0.691760  0.091380  1.0
  O  O1412  1  0.738130  0.478730  0.091380  1.0
  O  O1413  1  0.691760  0.738130  0.091380  1.0
  O  O1414  1  0.808240  0.021270  0.408620  1.0
  O  O1415  1  0.021270  0.761870  0.408620  1.0
  O  O1416  1  0.761870  0.808240  0.408620  1.0
  O  O1417  1  0.634240  0.358960  0.872080  1.0
  O  O1418  1  0.134720  0.634240  0.872080  1.0
  O  O1419  1  0.358960  0.134720  0.872080  1.0
  O  O1420  1  0.141040  0.865760  0.627920  1.0
  O  O1421  1  0.865760  0.365280  0.627920  1.0
  O  O1422  1  0.365280  0.141040  0.627920  1.0
  O  O1423  1  0.365760  0.641040  0.127920  1.0
  O  O1424  1  0.865280  0.365760  0.127920  1.0
  O  O1425  1  0.641040  0.865280  0.127920  1.0
  O  O1426  1  0.858960  0.134240  0.372080  1.0
  O  O1427  1  0.134240  0.634720  0.372080  1.0
  O  O1428  1  0.634720  0.858960  0.372080  1.0
  O  O1429  1  0.449960  0.331240  0.968680  1.0
  O  O1430  1  0.250120  0.449960  0.968680  1.0
  O  O1431  1  0.331240  0.250120  0.968680  1.0
  O  O1432  1  0.168760  0.050040  0.531320  1.0
  O  O1433  1  0.050040  0.249880  0.531320  1.0
  O  O1434  1  0.249880  0.168760  0.531320  1.0
  O  O1435  1  0.550040  0.668760  0.031320  1.0
  O  O1436  1  0.749880  0.550040  0.031320  1.0
  O  O1437  1  0.668760  0.749880  0.031320  1.0
  O  O1438  1  0.831240  0.949960  0.468680  1.0
  O  O1439  1  0.949960  0.750120  0.468680  1.0
  O  O1440  1  0.750120  0.831240  0.468680  1.0
