
#######################################################################
#
#                 Cambridge Crystallographic Data Centre
#                                CCDC 
#
#######################################################################
#
# If this CIF has been generated from an entry in the Cambridge 
# Structural Database, then it will include bibliographic, chemical, 
# crystal, experimental, refinement or atomic coordinate data resulting 
# from the CCDC's data processing and validation procedures.
#
#######################################################################

data_QUHSES
_chemical_formula_moiety         'C336 H252 Cu18 N24 O90'
_chemical_name_systematic        
"hexakis(\m~4~-9H-carbazole-3,6-dicarboxylato)-dodecakis(\m~4~-4,4'-(pyridine-2,6-yl)-dibenzoato)-hexakis(N,N-dimethylacetamide)-dodecaaqua-octadeca-copper unknown solvate"
_symmetry_cell_setting           rhombohedral
_symmetry_space_group_name_H-M   'R -3 c'
_symmetry_Int_Tables_number      167
_space_group_name_Hall           '-R 3 2"c'
loop_
_symmetry_equiv_pos_site_id
_symmetry_equiv_pos_as_xyz
1 x,y,z
2 -y,x-y,z
3 -x+y,-x,z
4 x-y,-y,1/2-z
5 -x,-x+y,1/2-z
6 y,x,1/2-z
7 2/3+x,1/3+y,1/3+z
8 2/3-y,1/3+x-y,1/3+z
9 2/3-x+y,1/3-x,1/3+z
10 2/3+x-y,1/3-y,5/6-z
11 2/3-x,1/3-x+y,5/6-z
12 2/3+y,1/3+x,5/6-z
13 1/3+x,2/3+y,2/3+z
14 1/3-y,2/3+x-y,2/3+z
15 1/3-x+y,2/3-x,2/3+z
16 1/3+x-y,2/3-y,1/6-z
17 1/3-x,2/3-x+y,1/6-z
18 1/3+y,2/3+x,1/6-z
19 -x,-y,-z
20 y,-x+y,-z
21 x-y,x,-z
22 -x+y,y,1/2+z
23 x,x-y,1/2+z
24 -y,-x,1/2+z
25 1/3-x,2/3-y,2/3-z
26 1/3+y,2/3-x+y,2/3-z
27 1/3+x-y,2/3+x,2/3-z
28 1/3-x+y,2/3+y,1/6+z
29 1/3+x,2/3+x-y,1/6+z
30 1/3-y,2/3-x,1/6+z
31 2/3-x,1/3-y,1/3-z
32 2/3+y,1/3-x+y,1/3-z
33 2/3+x-y,1/3+x,1/3-z
34 2/3-x+y,1/3+y,5/6+z
35 2/3+x,1/3+x-y,5/6+z
36 2/3-y,1/3-x,5/6+z
_cell_length_a                   38.289(4)
_cell_length_b                   38.289(4)
_cell_length_c                   120.100(13)
_cell_angle_alpha                90
_cell_angle_beta                 90
_cell_angle_gamma                120
_cell_volume                     152483
_exptl_crystal_colour            green
_exptl_crystal_description       plate
_cell_formula_units_Z            6
loop_
_atom_site_label
_atom_site_type_symbol
_atom_site_fract_x
_atom_site_fract_y
_atom_site_fract_z
Cu1 Cu 0.455560(18) 0.136453(17) -0.032932(5)
Cu2 Cu 0.512693(18) 0.191952(17) -0.020284(5)
Cu3 Cu 0.6667 0.02236(2) 0.0833
Cu4 Cu 0.6667 0.09131(2) 0.0833
N1 N 0.49831(12) 0.00234(13) 0.02516(4)
N2 N 0.3241(2) 0.16209(19) 0.02682(7)
N3 N 0.6522(2) 0.15260(16) -0.06478(4)
H1 H 0.6504 0.1385 -0.0707
N4 N 0.3447(2) 0.0430(2) -0.04839(7)
O1 O 0.46152(9) 0.09846(9) -0.02249(2)
O2 O 0.50994(9) 0.14772(10) -0.01120(2)
O3 O 0.62906(10) 0.00951(10) 0.07043(3)
O4 O 0.62639(9) 0.06785(10) 0.07169(2)
O5 O 0.41735(10) 0.13974(9) -0.02246(3)
O6 O 0.46665(11) 0.18780(9) -0.01166(2)
O7 O 0.71281(10) 0.04779(9) 0.07328(3)
O8 O 0.70905(11) 0.10559(11) 0.07164(3)
O9 O 0.49864(10) 0.13896(8) -0.04209(2)
O10 O 0.54842(9) 0.18449(8) -0.03115(3)
C1 C 0.48380(15) 0.11214(17) -0.01383(5)
C2 C 0.48205(15) 0.07895(18) -0.00604(4)
C3 C 0.45753(15) 0.04136(19) -0.00853(4)
H2 H 0.4424 0.0343 -0.0152
C4 C 0.45374(14) 0.01050(14) -0.00088(4)
H3 H 0.4364 -0.0171 -0.0026
C5 C 0.47523(17) 0.02118(18) 0.00893(4)
C6 C 0.49893(15) 0.05903(18) 0.01119(4)
H4 H 0.5134 0.0664 0.0180
C7 C 0.50389(15) 0.09053(15) 0.00344(5)
H5 H 0.5218 0.1182 0.0050
C8 C 0.47255(19) -0.01036(19) 0.01682(5)
C9 C 0.44246(17) -0.0526(2) 0.01509(5)
H6 H 0.4244 -0.0615 0.0090
C10 C 0.44216(19) -0.07857(17) 0.02294(5)
H7 H 0.4222 -0.1063 0.0227
O11 O 0.45854(11) 0.18312(9) -0.04112(2)
C11 C 0.4707(2) -0.0643(2) 0.03112(5)
H8 H 0.4712 -0.0829 0.0363
O12 O 0.50919(9) 0.23141(8) -0.03046(2)
C12 C 0.49756(18) -0.0256(2) 0.03212(5)
O13 O 0.40840(11) 0.09208(11) -0.04264(3)
C13 C 0.52876(17) -0.0102(2) 0.04135(4)
O14 O 0.56048(9) 0.23968(8) -0.01044(2)
H9 H 0.5798 0.2634 -0.0117
H10 H 0.5716 0.2299 -0.0063
C14 C 0.54556(18) -0.03257(16) 0.04493(5)
H11 H 0.5378 -0.0580 0.0417
O15 O 0.6667 -0.03144(12) 0.0833
H12 H 0.6682 -0.0440 0.0777
C15 C 0.57372(19) -0.01773(18) 0.05329(4)
H13 H 0.5848 -0.0336 0.0558
O16 O 0.6667 0.14929(10) 0.0833
H14 H 0.6635 0.1609 0.0777
C16 C 0.58644(16) 0.01896(19) 0.05806(4)
C17 C 0.57186(18) 0.04276(16) 0.05431(4)
H15 H 0.5802 0.0684 0.0575
C18 C 0.54421(16) 0.02787(18) 0.04556(4)
H16 H 0.5357 0.0451 0.0424
C19 C 0.61608(18) 0.03229(18) 0.06793(4)
C20 C 0.4330(2) 0.16157(18) -0.01408(5)
C21 C 0.4003(2) 0.15746(17) -0.00613(6)
C22 C 0.3603(3) 0.1287(2) -0.00863(5)
H17 H 0.3533 0.1160 -0.0157
C23 C 0.3285(2) 0.1185(2) 0.00015(8)
H18 H 0.3018 0.0967 -0.0009
C24 C 0.3394(3) 0.1428(2) 0.01034(5)
C25 C 0.3783(3) 0.17001(19) 0.01152(5)
H19 H 0.3858 0.1859 0.0181
C26 C 0.40894(17) 0.17731(17) 0.00400(6)
H20 H 0.4361 0.1962 0.0059
C27 C 0.3082(3) 0.1375(3) 0.01895(10)
C28 C 0.2705(3) 0.1070(3) 0.01599(7)
H21 H 0.2647 0.0917 0.0093
C29 C 0.2391(3) 0.1008(3) 0.02494(9)
H22 H 0.2113 0.0809 0.0245
C30 C 0.2573(4) 0.1299(3) 0.03463(6)
H23 H 0.2409 0.1257 0.0410
C31 C 0.2933(3) 0.1597(2) 0.03473(8)
C32 C 0.3076(3) 0.1859(2) 0.04438(5)
C33 C 0.2858(2) 0.1964(2) 0.05043(9)
H24 H 0.2576 0.1841 0.0491
C34 C 0.3033(3) 0.2254(2) 0.05885(6)
H25 H 0.2864 0.2309 0.0634
C35 C 0.3409(3) 0.2445(2) 0.06060(5)
C36 C 0.36651(17) 0.2336(2) 0.05462(5)
H26 H 0.3944 0.2451 0.0563
C37 C 0.3482(2) 0.2047(2) 0.04607(6)
H27 H 0.3643 0.1983 0.0414
C38 C 0.72175(18) 0.08368(17) 0.06981(4)
C39 C 0.53406(18) 0.16162(17) -0.03930(5)
C40 C 0.5647(2) 0.15988(17) -0.04635(5)
C41 C 0.55417(17) 0.13423(14) -0.05597(6)
H28 H 0.5265 0.1192 -0.0579
C42 C 0.5821(3) 0.1296(2) -0.06279(5)
H29 H 0.5743 0.1124 -0.0691
C43 C 0.6211(3) 0.1523(2) -0.05928(6)
C44 C 0.6358(2) 0.17659(18) -0.05081(5)
C45 C 0.6050(2) 0.18062(14) -0.04406(4)
H30 H 0.6140 0.1985 -0.0379
C46 C 0.6767(2) 0.1939(2) -0.05048(5)
C47 C 0.7092(2) 0.22268(15) -0.04338(4)
H31 H 0.7029 0.2339 -0.0372
C48 C 0.7474(2) 0.23359(19) -0.04534(6)
C49 C 0.76035(18) 0.21965(19) -0.05493(6)
H32 H 0.7880 0.2295 -0.0566
C50 C 0.7298(3) 0.1915(2) -0.06122(5)
H33 H 0.7358 0.1790 -0.0672
C51 C 0.6884(2) 0.1803(2) -0.05903(6)
C52 C 0.48492(19) 0.2191(2) -0.03859(6)
C53 C 0.3691(2) 0.0425(2) -0.02957(7)
H34 H 0.3850 0.0623 -0.0238
H35 H 0.3765 0.0215 -0.0299
H36 H 0.3403 0.0303 -0.0278
C54 C 0.3775(3) 0.0639(3) -0.04100(8)
C55 C 0.3512(3) 0.0656(4) -0.05884(8)
H37 H 0.3713 0.0941 -0.0576
H38 H 0.3257 0.0634 -0.0613
H39 H 0.3609 0.0545 -0.0646
C56 C 0.3080(3) 0.0079(3) -0.04644(8)
H40 H 0.2936 0.0126 -0.0404
H41 H 0.3131 -0.0139 -0.0443
H42 H 0.2917 0.0002 -0.0532
Cu1B Cu 0.680893(25) 0.544440(18) -0.032932(5)
Cu1A Cu 0.863547(17) 0.319107(25) -0.032932(5)
Cu1Q Cu 0.469786(17) 0.122227(18) 0.199599(5)
Cu1P Cu 0.877773(18) 0.347560(25) 0.199599(5)
Cu1O Cu 0.652440(25) 0.530214(17) 0.199599(5)
Cu2B Cu 0.679259(25) 0.487307(18) -0.020284(5)
Cu2A Cu 0.808048(17) 0.320741(25) -0.020284(5)
Cu2Q Cu 0.525285(17) 0.179360(18) 0.186951(5)
Cu2P Cu 0.820640(18) 0.345926(25) 0.186951(5)
Cu2O Cu 0.654074(25) 0.474715(17) 0.186951(5)
Cu3Q Cu 0.35569(2) 0.3334 0.0834
Cu3O Cu 0.97767(2) 0.64431(2) 0.0834
Cu4Q Cu 0.42464(2) 0.3334 0.0834
Cu4A Cu 0.90869(2) 0.57539(2) 0.0833
N1B N 0.50403(18) 0.50169(12) 0.02516(4)
N1Q N 0.33567(13) 0.16498(12) 0.14151(4)
N1O N 0.82930(18) 0.66433(13) 0.14151(4)
N1A N 0.99766(13) 0.49597(18) 0.02516(4)
N1P N 0.83502(12) 0.17070(18) 0.14151(4)
N2A N 0.83791(19) 0.16201(28) 0.02682(7)
N2Q N 0.49542(19) -0.0092(2) 0.13985(7)
N2O N 0.49534(28) 0.50458(19) 0.13985(7)
N2P N 1.0092(2) 0.50466(28) 0.13985(7)
N2B N 0.83799(28) 0.6759(2) 0.02682(7)
N3B N 0.50040(26) 0.3478(2) -0.06478(4)
N3A N 0.84740(16) 0.49960(26) -0.06478(4)
N3P N 0.6811(2) 0.16707(26) 0.23145(4)
N3O N 0.83293(26) 0.51407(16) 0.23145(4)
N3Q N 0.48593(16) 0.3189(2) 0.23145(4)
H1B H 0.4881 0.3496 -0.0707
H1A H 0.8615 0.5119 -0.0707
H1P H 0.6829 0.1548 0.2374
H1O H 0.8452 0.5282 0.2374
H1Q H 0.4718 0.3171 0.2374
N4A N 0.9570(2) 0.3017(3) -0.04839(7)
N4O N 0.6350(3) 0.6237(2) 0.21506(7)
N4P N 0.9886(2) 0.3650(3) 0.21506(7)
N4Q N 0.3763(2) 0.0114(2) 0.21506(7)
N4B N 0.6983(3) 0.6553(2) -0.04839(7)
O1B O 0.63694(13) 0.53848(9) -0.02249(2)
O1A O 0.90154(9) 0.36306(13) -0.02249(2)
O1Q O 0.43179(9) 0.12819(9) 0.18916(2)
O1P O 0.87181(9) 0.30361(13) 0.18916(2)
O1O O 0.69639(13) 0.56821(9) 0.18916(2)
O2B O 0.63778(13) 0.49006(9) -0.01120(2)
O2A O 0.85228(10) 0.36222(13) -0.01120(2)
O2Q O 0.48105(10) 0.17661(9) 0.17787(2)
O2P O 0.82339(9) 0.30445(13) 0.17787(2)
O2O O 0.69555(13) 0.51895(10) 0.17787(2)
O3P O 0.70427(10) 0.04712(14) 0.09624(3)
O3Q O 0.34284(10) 0.29573(10) 0.09624(3)
O3B O 0.38045(14) 0.37094(10) 0.07043(3)
O3O O 0.95288(14) 0.65716(10) 0.09624(3)
O3A O 0.99049(10) 0.61955(14) 0.07043(3)
O4P O 0.70694(9) 0.10813(13) 0.09498(2)
O4Q O 0.40118(10) 0.29306(9) 0.09498(2)
O4B O 0.44146(13) 0.37361(9) 0.07169(2)
O4A O 0.93215(10) 0.55854(13) 0.07169(2)
O4O O 0.89187(13) 0.59882(10) 0.09498(2)
O5B O 0.72239(13) 0.58265(10) -0.02246(3)
O5A O 0.86026(9) 0.27761(13) -0.02246(3)
O5Q O 0.47307(9) 0.08402(10) 0.18913(3)
O5P O 0.91598(10) 0.38906(13) 0.18913(3)
O5O O 0.61094(13) 0.52693(9) 0.18913(3)
O6B O 0.72115(14) 0.53335(11) -0.01166(2)
O6A O 0.81220(9) 0.27885(14) -0.01166(2)
O6Q O 0.52113(9) 0.13332(11) 0.17833(2)
O6P O 0.86668(11) 0.38782(14) 0.17833(2)
O6O O 0.61218(14) 0.47887(9) 0.17833(2)
O7P O 0.62052(10) 0.00165(13) 0.09339(3)
O7Q O 0.38112(9) 0.37948(10) 0.09339(3)
O7B O 0.33498(13) 0.28719(10) 0.07328(3)
O7A O 0.95221(9) 0.66502(13) 0.07328(3)
O7O O 0.99835(13) 0.61888(9) 0.09339(3)
O8P O 0.62428(11) 0.06321(16) 0.09503(3)
O8B O 0.39654(16) 0.29095(11) 0.07164(3)
O8Q O 0.43892(11) 0.37572(11) 0.09503(3)
O8A O 0.89441(11) 0.60346(16) 0.07164(3)
O8O O 0.93679(16) 0.56108(11) 0.09503(3)
O9B O 0.64032(13) 0.50136(10) -0.04209(2)
O9A O 0.86104(8) 0.35968(13) -0.04209(2)
O9Q O 0.47229(8) 0.16531(10) 0.20876(2)
O9P O 0.83469(10) 0.30699(13) 0.20876(2)
O9O O 0.69301(13) 0.52771(8) 0.20876(2)
O10B O 0.63607(12) 0.45158(9) -0.03115(3)
O10A O 0.81551(8) 0.36393(12) -0.03115(3)
O10Q O 0.51782(8) 0.21509(9) 0.19782(3)
O10P O 0.78491(9) 0.30274(12) 0.19782(3)
O10O O 0.69726(12) 0.48218(8) 0.19782(3)
C1B C 0.62834(23) 0.51620(15) -0.01383(5)
C1A C 0.88786(17) 0.37166(23) -0.01383(5)
C1Q C 0.44547(17) 0.15047(15) 0.18050(5)
C1P C 0.84953(15) 0.29501(23) 0.18050(5)
C1O C 0.70499(23) 0.55453(17) 0.18050(5)
C2B C 0.59690(23) 0.51795(15) -0.00604(4)
C2Q C 0.41228(18) 0.14872(15) 0.17271(4)
C2O C 0.73643(23) 0.58772(18) 0.17271(4)
C2A C 0.92105(18) 0.40310(23) -0.00604(4)
C2P C 0.85128(15) 0.26357(23) 0.17271(4)
C3B C 0.58383(24) 0.54247(15) -0.00853(4)
C3Q C 0.37469(19) 0.12420(15) 0.17520(4)
C3O C 0.74950(24) 0.62531(19) 0.17520(4)
C3A C 0.95864(19) 0.41617(24) -0.00853(4)
C3P C 0.87580(15) 0.25050(24) 0.17520(4)
H2B H 0.5919 0.5576 -0.0152
H2Q H 0.3676 0.1091 0.1819
H2O H 0.7414 0.6324 0.1819
H2A H 0.9657 0.4081 -0.0152
H2P H 0.8909 0.2586 0.1819
C4B C 0.55676(20) 0.54626(14) -0.00088(4)
C4Q C 0.34383(14) 0.12041(14) 0.16755(4)
C4O C 0.77657(20) 0.65617(14) 0.16755(4)
C4A C 0.98950(14) 0.44324(20) -0.00088(4)
C4P C 0.87959(14) 0.22343(20) 0.16755(4)
H3B H 0.5465 0.5636 -0.0026
H3Q H 0.3162 0.1031 0.1693
H3O H 0.7868 0.6838 0.1693
H3A H 1.0171 0.4535 -0.0026
H3P H 0.8969 0.2132 0.1693
C5B C 0.54595(25) 0.52477(17) 0.00893(4)
C5Q C 0.35451(18) 0.14190(17) 0.15774(4)
C5O C 0.78738(25) 0.64549(18) 0.15774(4)
C5A C 0.97882(18) 0.45405(25) 0.00893(4)
C5P C 0.85810(17) 0.21262(25) 0.15774(4)
C6B C 0.56010(23) 0.50107(15) 0.01119(4)
C6Q C 0.39236(18) 0.16560(15) 0.15548(4)
C6O C 0.77323(23) 0.60764(18) 0.15548(4)
C6A C 0.94097(18) 0.43990(23) 0.01119(4)
C6P C 0.83440(15) 0.22677(23) 0.15548(4)
H4B H 0.5530 0.4866 0.0180
H4Q H 0.3997 0.1801 0.1487
H4O H 0.7803 0.6003 0.1487
H4A H 0.9336 0.4470 0.0180
H4P H 0.8199 0.2197 0.1487
C7B C 0.58664(21) 0.49611(15) 0.00344(5)
C7Q C 0.42386(15) 0.17056(15) 0.16323(5)
C7O C 0.74669(21) 0.57614(15) 0.16323(5)
C7A C 0.90947(15) 0.41336(21) 0.00344(5)
C7P C 0.82944(15) 0.25331(21) 0.16323(5)
H5B H 0.5964 0.4782 0.0050
H5Q H 0.4515 0.1885 0.1617
H5O H 0.7369 0.5485 0.1617
H5A H 0.8818 0.4036 0.0050
H5P H 0.8115 0.2631 0.1617
C8B C 0.51709(27) 0.52745(19) 0.01682(5)
C8Q C 0.32297(19) 0.13922(19) 0.14985(5)
C8O C 0.81624(27) 0.67703(19) 0.14985(5)
C8A C 1.01036(19) 0.48291(27) 0.01682(5)
C8P C 0.86078(19) 0.18376(27) 0.14985(5)
C9B C 0.50494(26) 0.55754(17) 0.01509(5)
C9Q C 0.2807(2) 0.10913(17) 0.15158(5)
C9O C 0.82839(26) 0.7193(2) 0.15158(5)
C9A C 1.0526(2) 0.49506(26) 0.01509(5)
C9P C 0.89087(17) 0.17161(26) 0.15158(5)
H6B H 0.5141 0.5756 0.0090
H6Q H 0.2718 0.0911 0.1577
H6O H 0.8192 0.7282 0.1577
H6A H 1.0615 0.4859 0.0090
H6P H 0.9089 0.1808 0.1577
C10B C 0.47927(25) 0.55784(19) 0.02294(5)
C10Q C 0.25476(17) 0.10883(19) 0.14373(5)
C10O C 0.85406(25) 0.74524(17) 0.14373(5)
C10A C 1.07857(17) 0.52073(25) 0.02294(5)
C10P C 0.89117(19) 0.14594(25) 0.14373(5)
H7B H 0.4715 0.5778 0.0227
H7Q H 0.2270 0.0889 0.1440
H7O H 0.8618 0.7730 0.1440
H7A H 1.1063 0.5285 0.0227
H7P H 0.9111 0.1382 0.1440
O11B O 0.72458(14) 0.54146(11) -0.04112(2)
O11A O 0.81688(9) 0.27542(14) -0.04112(2)
O11Q O 0.51645(9) 0.12521(11) 0.20779(2)
O11P O 0.87479(11) 0.39125(14) 0.20779(2)
O11O O 0.60875(14) 0.48355(9) 0.20779(2)
C11B C 0.4650(3) 0.5293(2) 0.03112(5)
C11Q C 0.2690(2) 0.1374(2) 0.13555(5)
C11O C 0.8683(3) 0.7310(2) 0.13555(5)
C11A C 1.0643(2) 0.5350(3) 0.03112(5)
C11P C 0.8626(2) 0.1317(3) 0.13555(5)
H8B H 0.4459 0.5288 0.0363
H8Q H 0.2504 0.1379 0.1304
H8O H 0.8874 0.7496 0.1304
H8A H 1.0829 0.5541 0.0363
H8P H 0.8621 0.1126 0.1304
O12B O 0.72222(12) 0.49081(9) -0.03046(2)
O12A O 0.76859(8) 0.27778(12) -0.03046(2)
O12Q O 0.56474(8) 0.17586(9) 0.19713(2)
O12P O 0.82414(9) 0.38889(12) 0.19713(2)
O12O O 0.61111(12) 0.43526(8) 0.19713(2)
C12B C 0.47684(27) 0.50244(18) 0.03212(5)
C12Q C 0.3077(2) 0.16423(18) 0.13455(5)
C12O C 0.85649(27) 0.6923(2) 0.13455(5)
C12A C 1.0256(2) 0.52316(27) 0.03212(5)
C12P C 0.83577(18) 0.14351(27) 0.13455(5)
O13A O 0.90792(11) 0.31632(16) -0.04264(3)
O13O O 0.64965(16) 0.57459(11) 0.20931(3)
O13P O 0.92493(11) 0.35035(16) 0.20931(3)
O13Q O 0.42541(11) 0.07507(11) 0.20931(3)
O13B O 0.68368(16) 0.59160(11) -0.04264(3)
C13B C 0.46104(26) 0.47124(17) 0.04135(4)
C13Q C 0.3231(2) 0.19543(17) 0.12532(4)
C13O C 0.87229(26) 0.6769(2) 0.12532(4)
C13A C 1.0102(2) 0.53896(26) 0.04135(4)
C13P C 0.80457(17) 0.12771(26) 0.12532(4)
O14B O 0.67920(12) 0.43952(9) -0.01044(2)
O14A O 0.76032(8) 0.32080(12) -0.01044(2)
O14Q O 0.57301(8) 0.22715(9) 0.17711(2)
O14P O 0.77285(9) 0.34587(12) 0.17711(2)
O14O O 0.65413(12) 0.42699(8) 0.17711(2)
H9B H 0.6836 0.4202 -0.0117
H9A H 0.7366 0.3164 -0.0117
H9Q H 0.5967 0.2465 0.1784
H9P H 0.7535 0.3503 0.1784
H9O H 0.6497 0.4033 0.1784
H10B H 0.6583 0.4284 -0.0063
H10A H 0.7701 0.3417 -0.0063
H10Q H 0.5632 0.2383 0.1730
H10P H 0.7617 0.3250 0.1730
H10O H 0.6750 0.4368 0.1730
C14B C 0.42187(24) 0.45444(18) 0.04493(5)
C14Q C 0.30076(16) 0.21223(18) 0.12174(5)
C14O C 0.91146(24) 0.69924(16) 0.12174(5)
C14A C 1.03257(16) 0.57813(24) 0.04493(5)
C14P C 0.78777(18) 0.08854(24) 0.12174(5)
H11B H 0.4042 0.4622 0.0417
H11Q H 0.2753 0.2045 0.1250
H11O H 0.9291 0.7247 0.1250
H11A H 1.0580 0.5958 0.0417
H11P H 0.7955 0.0709 0.1250
O15Q O 0.30189(12) 0.3334 0.0834
O15O O 1.03147(12) 0.69811(12) 0.0834
H12Q H 0.2893 0.3349 0.0890
H12B H 0.2878 0.3318 0.0777
H12O H 1.0455 0.7107 0.0890
H12A H 1.0440 0.7122 0.0777
H12P H 0.6651 -0.0455 0.0890
C15B C 0.40855(26) 0.42628(19) 0.05329(4)
C15Q C 0.31560(18) 0.24039(19) 0.11338(4)
C15O C 0.92478(26) 0.68440(18) 0.11338(4)
C15A C 1.01773(18) 0.59145(26) 0.05329(4)
C15P C 0.75961(19) 0.07522(26) 0.11338(4)
H13B H 0.3816 0.4152 0.0558
H13Q H 0.2997 0.2515 0.1109
H13O H 0.9517 0.7003 0.1109
H13A H 1.0336 0.6184 0.0558
H13P H 0.7485 0.0483 0.1109
O16Q O 0.48262(10) 0.3334 0.0834
O16A O 0.85071(10) 0.51741(10) 0.0833
H14P H 0.6698 0.1641 0.0890
H14Q H 0.4942 0.3302 0.0890
H14B H 0.4974 0.3365 0.0777
H14A H 0.8391 0.5026 0.0777
H14O H 0.8359 0.5058 0.0890
C16B C 0.43252(25) 0.41356(16) 0.05806(4)
C16Q C 0.35229(19) 0.25311(16) 0.10861(4)
C16O C 0.90081(25) 0.64771(19) 0.10861(4)
C16A C 0.98104(19) 0.56748(25) 0.05806(4)
C16P C 0.74689(16) 0.09919(25) 0.10861(4)
C17B C 0.47090(24) 0.42814(18) 0.05431(4)
C17Q C 0.37609(16) 0.23853(18) 0.11236(4)
C17O C 0.86243(24) 0.62391(16) 0.11236(4)
C17A C 0.95724(16) 0.52910(24) 0.05431(4)
C17P C 0.76147(18) 0.13757(24) 0.11236(4)
H15B H 0.4882 0.4198 0.0575
H15Q H 0.4017 0.2469 0.1092
H15O H 0.8451 0.5983 0.1092
H15A H 0.9316 0.5118 0.0575
H15P H 0.7531 0.1549 0.1092
C18B C 0.48366(24) 0.45579(16) 0.04556(4)
C18Q C 0.36120(18) 0.21088(16) 0.12111(4)
C18O C 0.84967(24) 0.63880(18) 0.12111(4)
C18A C 0.97213(18) 0.51634(24) 0.04556(4)
C18P C 0.78912(16) 0.15033(24) 0.12111(4)
H16B H 0.5094 0.4643 0.0424
H16Q H 0.3784 0.2024 0.1243
H16O H 0.8239 0.6216 0.1243
H16A H 0.9549 0.4906 0.0424
H16P H 0.7976 0.1761 0.1243
C19P C 0.71725(18) 0.08288(25) 0.09874(4)
C19Q C 0.36562(18) 0.28275(18) 0.09874(4)
C19B C 0.41621(25) 0.38392(18) 0.06793(4)
C19O C 0.91712(25) 0.63438(18) 0.09874(4)
C19A C 0.96771(18) 0.58379(25) 0.06793(4)
C20B C 0.72857(27) 0.5670(2) -0.01408(5)
C20A C 0.83843(18) 0.27143(27) -0.01408(5)
C20Q C 0.49490(18) 0.0997(2) 0.18075(5)
C20P C 0.9003(2) 0.39524(27) 0.18075(5)
C20O C 0.60476(27) 0.50510(18) 0.18075(5)
C21A C 0.84254(17) 0.24284(26) -0.00613(6)
C21Q C 0.49079(17) 0.0670(2) 0.17280(6)
C21O C 0.57617(26) 0.50921(17) 0.17280(6)
C21P C 0.9330(2) 0.42383(26) 0.17280(6)
C21B C 0.75716(26) 0.5997(2) -0.00613(6)
C22A C 0.8713(2) 0.2316(4) -0.00863(5)
C22Q C 0.4620(2) 0.0270(3) 0.17530(5)
C22O C 0.5649(4) 0.5380(2) 0.17530(5)
C22P C 0.9730(3) 0.4351(4) 0.17530(5)
C22B C 0.7684(4) 0.6397(3) -0.00863(5)
H17A H 0.8840 0.2373 -0.0157
H17O H 0.5706 0.5507 0.1824
H17P H 0.9800 0.4294 0.1824
H17B H 0.7627 0.6467 -0.0157
H17Q H 0.4493 0.0200 0.1824
C23A C 0.8815(2) 0.2100(3) 0.00015(8)
C23Q C 0.4518(2) -0.0048(2) 0.16652(8)
C23O C 0.5433(3) 0.5482(2) 0.16652(8)
C23P C 1.0048(2) 0.4567(3) 0.16652(8)
C23B C 0.7900(3) 0.6715(2) 0.00015(8)
H18A H 0.9033 0.2051 -0.0009
H18O H 0.5384 0.5700 0.1676
H18P H 1.0315 0.4616 0.1676
H18B H 0.7949 0.6982 -0.0009
H18Q H 0.4300 -0.0315 0.1676
C24A C 0.8572(2) 0.1966(4) 0.01034(5)
C24Q C 0.4761(2) 0.0061(3) 0.15633(5)
C24O C 0.5299(4) 0.5239(2) 0.15633(5)
C24P C 0.9939(3) 0.4701(4) 0.15633(5)
C24B C 0.8034(4) 0.6606(3) 0.01034(5)
C25A C 0.82999(19) 0.20829(36) 0.01152(5)
C25O C 0.54162(36) 0.49666(19) 0.15515(5)
C25P C 0.9550(3) 0.45838(36) 0.15515(5)
C25B C 0.79171(36) 0.6217(3) 0.01152(5)
C25Q C 0.50334(19) 0.0450(3) 0.15515(5)
H19A H 0.8141 0.1999 0.0181
H19O H 0.5332 0.4808 0.1486
H19P H 0.9475 0.4668 0.1486
H19B H 0.8001 0.6142 0.0181
H19Q H 0.5192 0.0525 0.1486
C26A C 0.82269(17) 0.23163(24) 0.00400(6)
C26O C 0.56496(24) 0.48936(17) 0.16267(6)
C26P C 0.92439(17) 0.43504(24) 0.16267(6)
C26B C 0.76837(24) 0.59106(17) 0.00400(6)
C26Q C 0.51064(17) 0.07561(17) 0.16267(6)
H20A H 0.8038 0.2399 0.0059
H20O H 0.5732 0.4705 0.1608
H20P H 0.8972 0.4268 0.1608
H20B H 0.7601 0.5639 0.0059
H20Q H 0.5295 0.1028 0.1608
C27A C 0.8625(3) 0.1707(4) 0.01895(10)
C27Q C 0.4708(3) -0.0251(3) 0.14772(10)
C27O C 0.5040(4) 0.5292(3) 0.14772(10)
C27P C 1.0251(3) 0.4960(4) 0.14772(10)
C27B C 0.8293(4) 0.6918(3) 0.01895(10)
C28A C 0.8930(3) 0.1635(4) 0.01599(7)
C28O C 0.4968(4) 0.5597(3) 0.15068(7)
C28P C 1.0628(3) 0.5032(4) 0.15068(7)
C28B C 0.8365(4) 0.7295(3) 0.01599(7)
C28Q C 0.4403(3) -0.0628(3) 0.15068(7)
H21A H 0.9083 0.1730 0.0093
H21O H 0.5063 0.5750 0.1574
H21P H 1.0686 0.4937 0.1574
H21B H 0.8270 0.7353 0.0093
H21Q H 0.4250 -0.0686 0.1574
C29A C 0.8992(3) 0.1383(4) 0.02494(9)
C29O C 0.4716(4) 0.5659(3) 0.14173(9)
C29P C 1.0942(3) 0.5284(4) 0.14173(9)
C29B C 0.8617(4) 0.7609(3) 0.02494(9)
C29Q C 0.4341(3) -0.0942(3) 0.14173(9)
H22A H 0.9191 0.1304 0.0245
H22O H 0.4637 0.5858 0.1422
H22P H 1.1220 0.5363 0.1422
H22B H 0.8696 0.7887 0.0245
H22Q H 0.4142 -0.1220 0.1422
C30A C 0.8701(3) 0.1274(5) 0.03463(6)
C30O C 0.4607(5) 0.5368(3) 0.13204(6)
C30P C 1.0760(4) 0.5393(5) 0.13204(6)
C30B C 0.8726(5) 0.7427(4) 0.03463(6)
C30Q C 0.4632(3) -0.0760(4) 0.13204(6)
H23A H 0.8743 0.1152 0.0410
H23O H 0.4485 0.5410 0.1257
H23P H 1.0924 0.5515 0.1257
H23B H 0.8848 0.7591 0.0410
H23Q H 0.4590 -0.0924 0.1257
C31A C 0.8403(2) 0.1336(4) 0.03473(8)
C31Q C 0.4930(2) -0.0400(3) 0.13194(8)
C31O C 0.4669(4) 0.5070(2) 0.13194(8)
C31P C 1.0400(3) 0.5331(4) 0.13194(8)
C31B C 0.8664(4) 0.7067(3) 0.03473(8)
C32A C 0.8141(2) 0.1217(4) 0.04438(5)
C32Q C 0.5192(2) -0.0257(3) 0.12229(5)
C32O C 0.4550(4) 0.4808(2) 0.12229(5)
C32P C 1.0257(3) 0.5450(4) 0.12229(5)
C32B C 0.8783(4) 0.6924(3) 0.04438(5)
C33A C 0.8036(2) 0.0894(3) 0.05043(9)
C33Q C 0.5297(2) -0.0475(2) 0.11624(9)
C33O C 0.4227(3) 0.4703(2) 0.11624(9)
C33P C 1.0475(2) 0.5773(3) 0.11624(9)
C33B C 0.9106(3) 0.7142(2) 0.05043(9)
H24A H 0.8159 0.0735 0.0491
H24O H 0.4068 0.4826 0.1176
H24P H 1.0757 0.5932 0.1176
H24B H 0.9265 0.7424 0.0491
H24Q H 0.5174 -0.0757 0.1176
C34A C 0.7746(2) 0.0779(4) 0.05885(6)
C34Q C 0.5587(2) -0.0300(3) 0.10782(6)
C34O C 0.4112(4) 0.4413(2) 0.10782(6)
C34P C 1.0300(3) 0.5888(4) 0.10782(6)
C34B C 0.9221(4) 0.6967(3) 0.05885(6)
H25A H 0.7691 0.0555 0.0634
H25O H 0.3888 0.4358 0.1033
H25P H 1.0469 0.6112 0.1033
H25B H 0.9445 0.7136 0.0634
H25Q H 0.5642 -0.0469 0.1033
C35A C 0.7555(2) 0.0964(4) 0.06060(5)
C35Q C 0.5778(2) 0.0076(3) 0.10607(5)
C35O C 0.4297(4) 0.4222(2) 0.10607(5)
C35P C 0.9924(3) 0.5703(4) 0.10607(5)
C35B C 0.9036(4) 0.6591(3) 0.06060(5)
C36A C 0.7664(2) 0.13291(26) 0.05462(5)
C36O C 0.46624(26) 0.4331(2) 0.11205(5)
C36P C 0.96682(17) 0.53376(26) 0.11205(5)
C36B C 0.86709(26) 0.63349(17) 0.05462(5)
C36Q C 0.5669(2) 0.03318(17) 0.11205(5)
H26A H 0.7549 0.1493 0.0563
H26O H 0.4826 0.4216 0.1104
H26P H 0.9389 0.5174 0.1104
H26B H 0.8507 0.6056 0.0563
H26Q H 0.5784 0.0611 0.1104
C37A C 0.7953(2) 0.1435(3) 0.04607(6)
C37O C 0.4768(3) 0.4620(2) 0.12060(6)
C37P C 0.9851(2) 0.5232(3) 0.12060(6)
C37B C 0.8565(3) 0.6518(2) 0.04607(6)
C37Q C 0.5380(2) 0.0149(2) 0.12060(6)
H27A H 0.8017 0.1660 0.0414
H27O H 0.4993 0.4684 0.1253
H27P H 0.9690 0.5007 0.1253
H27B H 0.8340 0.6357 0.0414
H27Q H 0.5316 0.0310 0.1253
C38P C 0.61158(18) 0.02860(25) 0.09686(4)
C38Q C 0.41701(17) 0.38842(18) 0.09686(4)
C38B C 0.36193(25) 0.27825(18) 0.06981(4)
C38A C 0.91632(17) 0.63807(25) 0.06981(4)
C38O C 0.97140(25) 0.58299(17) 0.09686(4)
C39B C 0.62756(25) 0.46594(18) -0.03930(5)
C39A C 0.83838(17) 0.37244(25) -0.03930(5)
C39Q C 0.49495(17) 0.20073(18) 0.20597(5)
C39P C 0.79927(18) 0.29423(25) 0.20597(5)
C39O C 0.70577(25) 0.50505(17) 0.20597(5)
C40B C 0.59518(26) 0.4353(2) -0.04635(5)
C40A C 0.84012(17) 0.40482(26) -0.04635(5)
C40P C 0.7686(2) 0.26185(26) 0.21302(5)
C40O C 0.73815(26) 0.50679(17) 0.21302(5)
C40Q C 0.49321(17) 0.2314(2) 0.21302(5)
C41B C 0.58006(22) 0.44583(17) -0.05597(6)
C41A C 0.86577(14) 0.41994(22) -0.05597(6)
C41P C 0.77916(17) 0.24673(22) 0.22264(6)
C41O C 0.75327(22) 0.53244(14) 0.22264(6)
C41Q C 0.46756(14) 0.22084(17) 0.22264(6)
H28Q H 0.4525 0.1932 0.2246
H28O H 0.7406 0.5475 0.2246
H28P H 0.8068 0.2594 0.2246
H28A H 0.8808 0.4073 -0.0579
H28B H 0.5927 0.4735 -0.0579
C42B C 0.5475(4) 0.4179(3) -0.06279(5)
C42A C 0.8704(2) 0.4525(4) -0.06279(5)
C42P C 0.7512(3) 0.2142(4) 0.22946(5)
C42O C 0.7858(4) 0.5371(2) 0.22946(5)
C42Q C 0.4629(2) 0.2488(3) 0.22946(5)
H29Q H 0.4457 0.2410 0.2358
H29O H 0.7952 0.5543 0.2358
H29P H 0.7590 0.2048 0.2358
H29A H 0.8876 0.4619 -0.0691
H29B H 0.5381 0.4257 -0.0691
C43B C 0.5312(4) 0.3789(3) -0.05928(6)
C43A C 0.8477(2) 0.4688(4) -0.05928(6)
C43P C 0.7122(3) 0.1979(4) 0.22595(6)
C43O C 0.8021(4) 0.5144(2) 0.22595(6)
C43Q C 0.4856(2) 0.2878(3) 0.22595(6)
C44B C 0.54079(27) 0.3642(2) -0.05081(5)
C44A C 0.82341(18) 0.45921(27) -0.05081(5)
C44P C 0.6975(2) 0.20746(27) 0.21748(5)
C44O C 0.79254(27) 0.49008(18) 0.21748(5)
C44Q C 0.50992(18) 0.3025(2) 0.21748(5)
C45Q C 0.51395(14) 0.2717(2) 0.21073(4)
C45O C 0.75771(24) 0.48605(14) 0.21073(4)
C45P C 0.7283(2) 0.24229(24) 0.21073(4)
C45A C 0.81938(14) 0.42438(24) -0.04406(4)
C45B C 0.57562(24) 0.3950(2) -0.04406(4)
H30Q H 0.5318 0.2807 0.2046
H30O H 0.7488 0.4682 0.2046
H30P H 0.7193 0.2512 0.2046
H30A H 0.8015 0.4155 -0.0379
H30B H 0.5845 0.3860 -0.0379
C46B C 0.5172(3) 0.3233(2) -0.05048(5)
C46A C 0.8061(2) 0.4828(3) -0.05048(5)
C46P C 0.6566(2) 0.1839(3) 0.21715(5)
C46O C 0.8161(3) 0.4728(2) 0.21715(5)
C46Q C 0.5272(2) 0.3434(2) 0.21715(5)
C47B C 0.51348(25) 0.2908(2) -0.04338(4)
C47A C 0.77732(15) 0.48652(25) -0.04338(4)
C47P C 0.6241(2) 0.18015(25) 0.21005(4)
C47O C 0.81985(25) 0.44399(15) 0.21005(4)
C47Q C 0.55601(15) 0.3759(2) 0.21005(4)
H31Q H 0.5672 0.3696 0.2039
H31O H 0.8023 0.4328 0.2039
H31P H 0.6304 0.1977 0.2039
H31A H 0.7661 0.4690 -0.0372
H31B H 0.5310 0.2971 -0.0372
C48B C 0.48619(28) 0.2526(2) -0.04534(6)
C48A C 0.76641(19) 0.51381(28) -0.04534(6)
C48P C 0.5859(2) 0.15286(28) 0.21201(6)
C48O C 0.84714(28) 0.43308(19) 0.21201(6)
C48Q C 0.56692(19) 0.4141(2) 0.21201(6)
C49B C 0.45930(26) 0.23965(18) -0.05493(6)
C49A C 0.78035(19) 0.54070(26) -0.05493(6)
C49P C 0.57298(18) 0.12597(26) 0.22160(6)
C49O C 0.87403(26) 0.44702(19) 0.22160(6)
C49Q C 0.55298(19) 0.42702(18) 0.22160(6)
H32B H 0.4415 0.2120 -0.0566
H32A H 0.7705 0.5585 -0.0566
H32P H 0.5453 0.1082 0.2233
H32O H 0.8918 0.4372 0.2233
H32Q H 0.5628 0.4547 0.2233
C50B C 0.4617(4) 0.2702(3) -0.06122(5)
C50A C 0.8085(2) 0.5383(4) -0.06122(5)
C50P C 0.6035(3) 0.1284(4) 0.22789(5)
C50O C 0.8716(4) 0.4752(2) 0.22789(5)
C50Q C 0.5248(2) 0.3965(3) 0.22789(5)
H33B H 0.4432 0.2642 -0.0672
H33A H 0.8210 0.5568 -0.0672
H33P H 0.5975 0.1099 0.2339
H33O H 0.8901 0.4877 0.2339
H33Q H 0.5123 0.4025 0.2339
C51B C 0.4919(3) 0.3116(2) -0.05903(6)
C51A C 0.8197(2) 0.5081(3) -0.05903(6)
C51P C 0.6449(2) 0.1586(3) 0.22570(6)
C51O C 0.8414(3) 0.4864(2) 0.22570(6)
C51Q C 0.5136(2) 0.3551(2) 0.22570(6)
C52B C 0.73418(28) 0.51508(19) -0.03859(6)
C52A C 0.7809(2) 0.26582(28) -0.03859(6)
C52Q C 0.5524(2) 0.15159(19) 0.20526(6)
C52P C 0.84841(19) 0.40085(28) 0.20526(6)
C52O C 0.59915(28) 0.4476(2) 0.20526(6)
C53A C 0.9575(2) 0.3266(3) -0.02957(7)
C53O C 0.6599(3) 0.6242(2) 0.19624(7)
C53P C 0.9642(2) 0.3401(3) 0.19624(7)
C53Q C 0.3758(2) 0.0358(2) 0.19624(7)
C53B C 0.6734(3) 0.6309(2) -0.02957(7)
H34A H 0.9377 0.3227 -0.0238
H34O H 0.6560 0.6044 0.1905
H34P H 0.9483 0.3440 0.1905
H34Q H 0.3956 0.0517 0.1905
H34B H 0.6773 0.6150 -0.0238
H35A H 0.9785 0.3550 -0.0299
H35O H 0.6883 0.6452 0.1966
H35P H 0.9568 0.3117 0.1966
H35Q H 0.3548 0.0432 0.1966
H35B H 0.6450 0.6235 -0.0299
H36A H 0.9697 0.3100 -0.0278
H36O H 0.6433 0.6364 0.1945
H36P H 0.9930 0.3567 0.1945
H36Q H 0.3636 0.0070 0.1945
H36B H 0.6900 0.6597 -0.0278
C54A C 0.9361(3) 0.3136(4) -0.04100(8)
C54O C 0.6469(4) 0.6028(3) 0.20767(8)
C54P C 0.9558(3) 0.3531(4) 0.20767(8)
C54Q C 0.3972(3) 0.0442(3) 0.20767(8)
C54B C 0.6864(4) 0.6225(3) -0.04100(8)
C55A C 0.9344(4) 0.2856(5) -0.05884(8)
C55O C 0.6189(5) 0.6011(4) 0.22551(8)
C55P C 0.9821(3) 0.3811(5) 0.22551(8)
C55Q C 0.3989(4) 0.0179(3) 0.22551(8)
C55B C 0.7144(5) 0.6488(3) -0.05884(8)
H37A H 0.9059 0.2772 -0.0576
H37O H 0.6105 0.5726 0.2243
H37P H 0.9620 0.3895 0.2243
H37Q H 0.4274 0.0380 0.2243
H37B H 0.7228 0.6287 -0.0576
H38A H 0.9366 0.2623 -0.0613
H38O H 0.5956 0.6033 0.2280
H38P H 1.0076 0.4044 0.2280
H38Q H 0.3967 -0.0076 0.2280
H38B H 0.7377 0.6743 -0.0613
H39A H 0.9455 0.3064 -0.0646
H39O H 0.6397 0.6122 0.2313
H39P H 0.9724 0.3603 0.2313
H39Q H 0.3878 0.0276 0.2313
H39B H 0.6936 0.6391 -0.0646
C56A C 0.9921(3) 0.3001(4) -0.04644(8)
C56O C 0.6334(4) 0.6588(3) 0.21311(8)
C56P C 1.0253(3) 0.3666(4) 0.21311(8)
C56Q C 0.3412(3) -0.0253(3) 0.21311(8)
C56B C 0.6999(4) 0.6920(3) -0.04644(8)
H40A H 0.9874 0.2810 -0.0404
H40O H 0.6143 0.6541 0.2071
H40P H 1.0397 0.3857 0.2071
H40Q H 0.3459 -0.0397 0.2071
H40B H 0.7190 0.7064 -0.0404
H41A H 1.0139 0.3270 -0.0443
H41O H 0.6603 0.6806 0.2110
H41P H 1.0202 0.3397 0.2110
H41Q H 0.3194 -0.0202 0.2110
H41B H 0.6730 0.6869 -0.0443
H42A H 0.9998 0.2915 -0.0532
H42O H 0.6248 0.6665 0.2199
H42P H 1.0416 0.3752 0.2199
H42Q H 0.3335 -0.0416 0.2199
H42B H 0.7085 0.7083 -0.0532
loop_
_geom_bond_atom_site_label_1
_geom_bond_atom_site_label_2
_geom_bond_site_symmetry_1
_geom_bond_site_symmetry_2
Cu1 O1 1_555 1_555
Cu2 O2 1_555 1_555
Cu3 O3 1_555 1_555
Cu4 O4 1_555 1_555
N1 C8 1_555 1_555
N2 C27 1_555 1_555
N3 H1 1_555 1_555
N4 C54 1_555 1_555
O1 C1 1_555 1_555
O2 C1 1_555 1_555
O3 C19 1_555 1_555
O4 C19 1_555 1_555
O5 Cu1 1_555 1_555
O6 Cu2 1_555 1_555
O7 Cu3 1_555 1_555
O8 Cu4 1_555 1_555
O9 Cu1 1_555 1_555
O10 Cu2 1_555 1_555
C1 C2 1_555 1_555
C2 C3 1_555 1_555
C3 H2 1_555 1_555
C4 C3 1_555 1_555
H3 C4 1_555 1_555
C5 C4 1_555 1_555
C6 C5 1_555 1_555
H4 C6 1_555 1_555
C7 C2 1_555 1_555
H5 C7 1_555 1_555
C8 C5 1_555 1_555
C9 C8 1_555 1_555
H6 C9 1_555 1_555
C10 C9 1_555 1_555
H7 C10 1_555 1_555
O11 Cu1 1_555 1_555
C11 C10 1_555 1_555
H8 C11 1_555 1_555
O12 Cu2 1_555 1_555
C12 N1 1_555 1_555
O13 Cu1 1_555 1_555
C13 C12 1_555 1_555
O14 Cu2 1_555 1_555
H9 O14 1_555 1_555
H10 O14 1_555 1_555
C14 C13 1_555 1_555
H11 C14 1_555 1_555
O15 Cu3 1_555 1_555
H12 O15 1_555 1_555
C15 C14 1_555 1_555
H13 C15 1_555 1_555
O16 Cu4 1_555 1_555
H14 O16 1_555 1_555
C16 C15 1_555 1_555
C17 C16 1_555 1_555
H15 C17 1_555 1_555
C18 C13 1_555 1_555
H16 C18 1_555 1_555
C19 C16 1_555 1_555
C20 O5 1_555 1_555
C21 C20 1_555 1_555
C22 C21 1_555 1_555
H17 C22 1_555 1_555
C23 C22 1_555 1_555
H18 C23 1_555 1_555
C24 C23 1_555 1_555
C25 C24 1_555 1_555
H19 C25 1_555 1_555
C26 C21 1_555 1_555
H20 C26 1_555 1_555
C27 C24 1_555 1_555
C28 C27 1_555 1_555
H21 C28 1_555 1_555
C29 C28 1_555 1_555
H22 C29 1_555 1_555
C30 C29 1_555 1_555
H23 C30 1_555 1_555
C31 N2 1_555 1_555
C32 C31 1_555 1_555
C33 C32 1_555 1_555
H24 C33 1_555 1_555
C34 C33 1_555 1_555
H25 C34 1_555 1_555
C35 C34 1_555 1_555
C36 C35 1_555 1_555
H26 C36 1_555 1_555
C37 C32 1_555 1_555
H27 C37 1_555 1_555
C38 O7 1_555 1_555
C39 O9 1_555 1_555
C40 C39 1_555 1_555
C41 C40 1_555 1_555
H28 C41 1_555 1_555
C42 C41 1_555 1_555
H29 C42 1_555 1_555
C43 N3 1_555 1_555
C44 C43 1_555 1_555
C45 C40 1_555 1_555
H30 C45 1_555 1_555
C46 C44 1_555 1_555
C47 C46 1_555 1_555
H31 C47 1_555 1_555
C48 C47 1_555 1_555
C49 C48 1_555 1_555
H32 C49 1_555 1_555
C50 C49 1_555 1_555
H33 C50 1_555 1_555
C51 N3 1_555 1_555
C52 O11 1_555 1_555
C53 H34 1_555 1_555
H35 C53 1_555 1_555
H36 C53 1_555 1_555
C54 O13 1_555 1_555
C55 N4 1_555 1_555
H37 C55 1_555 1_555
H38 C55 1_555 1_555
H39 C55 1_555 1_555
C56 N4 1_555 1_555
H40 C56 1_555 1_555
H41 C56 1_555 1_555
H42 C56 1_555 1_555
Cu1B O1B 1_555 1_555
Cu1A O1A 1_555 1_555
Cu1Q O1Q 1_555 1_555
Cu1P O1P 1_555 1_555
Cu1O O1O 1_555 1_555
Cu2B O2B 1_555 1_555
Cu2A O2A 1_555 1_555
Cu2Q O2Q 1_555 1_555
Cu2P O2P 1_555 1_555
Cu2O O2O 1_555 1_555
Cu3Q O3Q 1_555 1_555
Cu3O O3O 1_555 1_555
Cu4Q O4Q 1_555 1_555
Cu4A O4A 1_555 1_555
N1B C8B 1_555 1_555
N1Q C8Q 1_555 1_555
N1O C8O 1_555 1_555
N1A C8A 1_555 1_555
N1P C8P 1_555 1_555
N2A C27A 1_555 1_555
N2Q C27Q 1_555 1_555
N2O C27O 1_555 1_555
N2P C27P 1_555 1_555
N2B C27B 1_555 1_555
N3B H1B 1_555 1_555
N3A H1A 1_555 1_555
N3P H1P 1_555 1_555
N3O H1O 1_555 1_555
N3Q H1Q 1_555 1_555
N4A C54A 1_555 1_555
N4O C54O 1_555 1_555
N4P C54P 1_555 1_555
N4Q C54Q 1_555 1_555
N4B C54B 1_555 1_555
O1B C1B 1_555 1_555
O1A C1A 1_555 1_555
O1Q C1Q 1_555 1_555
O1P C1P 1_555 1_555
O1O C1O 1_555 1_555
O2B C1B 1_555 1_555
O2A C1A 1_555 1_555
O2Q C1Q 1_555 1_555
O2P C1P 1_555 1_555
O2O C1O 1_555 1_555
O3P Cu3 1_555 1_555
O3Q C19Q 1_555 1_555
O3B Cu3Q 1_555 1_555
O3O C19O 1_555 1_555
O3A Cu3O 1_555 1_555
O4P Cu4 1_555 1_555
O4Q C19Q 1_555 1_555
O4B Cu4Q 1_555 1_555
O4A C19A 1_555 1_555
O4O Cu4A 1_555 1_555
O5B Cu1B 1_555 1_555
O5A Cu1A 1_555 1_555
O5Q Cu1Q 1_555 1_555
O5P Cu1P 1_555 1_555
O5O Cu1O 1_555 1_555
O6B Cu2B 1_555 1_555
O6A Cu2A 1_555 1_555
O6Q Cu2Q 1_555 1_555
O6P Cu2P 1_555 1_555
O6O Cu2O 1_555 1_555
O7P Cu3 1_555 1_555
O7Q Cu3Q 1_555 1_555
O7B Cu3Q 1_555 1_555
O7A Cu3O 1_555 1_555
O7O Cu3O 1_555 1_555
O8P Cu4 1_555 1_555
O8B Cu4Q 1_555 1_555
O8Q Cu4Q 1_555 1_555
O8A Cu4A 1_555 1_555
O8O Cu4A 1_555 1_555
O9B Cu1B 1_555 1_555
O9A Cu1A 1_555 1_555
O9Q Cu1Q 1_555 1_555
O9P Cu1P 1_555 1_555
O9O Cu1O 1_555 1_555
O10B Cu2B 1_555 1_555
O10A Cu2A 1_555 1_555
O10Q Cu2Q 1_555 1_555
O10P Cu2P 1_555 1_555
O10O Cu2O 1_555 1_555
C1B C2B 1_555 1_555
C1A C2A 1_555 1_555
C1Q C2Q 1_555 1_555
C1P C2P 1_555 1_555
C1O C2O 1_555 1_555
C2B C3B 1_555 1_555
C2Q C3Q 1_555 1_555
C2O C3O 1_555 1_555
C2A C3A 1_555 1_555
C2P C3P 1_555 1_555
C3B H2B 1_555 1_555
C3Q H2Q 1_555 1_555
C3O H2O 1_555 1_555
C3A H2A 1_555 1_555
C3P H2P 1_555 1_555
C4B C3B 1_555 1_555
C4Q C3Q 1_555 1_555
C4O C3O 1_555 1_555
C4A C3A 1_555 1_555
C4P C3P 1_555 1_555
H3B C4B 1_555 1_555
H3Q C4Q 1_555 1_555
H3O C4O 1_555 1_555
H3A C4A 1_555 1_555
H3P C4P 1_555 1_555
C5B C4B 1_555 1_555
C5Q C4Q 1_555 1_555
C5O C4O 1_555 1_555
C5A C4A 1_555 1_555
C5P C4P 1_555 1_555
C6B C5B 1_555 1_555
C6Q C5Q 1_555 1_555
C6O C5O 1_555 1_555
C6A C5A 1_555 1_555
C6P C5P 1_555 1_555
H4B C6B 1_555 1_555
H4Q C6Q 1_555 1_555
H4O C6O 1_555 1_555
H4A C6A 1_555 1_555
H4P C6P 1_555 1_555
C7B C2B 1_555 1_555
C7Q C2Q 1_555 1_555
C7O C2O 1_555 1_555
C7A C2A 1_555 1_555
C7P C2P 1_555 1_555
H5B C7B 1_555 1_555
H5Q C7Q 1_555 1_555
H5O C7O 1_555 1_555
H5A C7A 1_555 1_555
H5P C7P 1_555 1_555
C8B C5B 1_555 1_555
C8Q C5Q 1_555 1_555
C8O C5O 1_555 1_555
C8A C5A 1_555 1_555
C8P C5P 1_555 1_555
C9B C8B 1_555 1_555
C9Q C8Q 1_555 1_555
C9O C8O 1_555 1_555
C9A C8A 1_555 1_555
C9P C8P 1_555 1_555
H6B C9B 1_555 1_555
H6Q C9Q 1_555 1_555
H6O C9O 1_555 1_555
H6A C9A 1_555 1_555
H6P C9P 1_555 1_555
C10B C9B 1_555 1_555
C10Q C9Q 1_555 1_555
C10O C9O 1_555 1_555
C10A C9A 1_555 1_555
C10P C9P 1_555 1_555
H7B C10B 1_555 1_555
H7Q C10Q 1_555 1_555
H7O C10O 1_555 1_555
H7A C10A 1_555 1_555
H7P C10P 1_555 1_555
O11B Cu1B 1_555 1_555
O11A Cu1A 1_555 1_555
O11Q Cu1Q 1_555 1_555
O11P Cu1P 1_555 1_555
O11O Cu1O 1_555 1_555
C11B C10B 1_555 1_555
C11Q C10Q 1_555 1_555
C11O C10O 1_555 1_555
C11A C10A 1_555 1_555
C11P C10P 1_555 1_555
H8B C11B 1_555 1_555
H8Q C11Q 1_555 1_555
H8O C11O 1_555 1_555
H8A C11A 1_555 1_555
H8P C11P 1_555 1_555
O12B Cu2B 1_555 1_555
O12A Cu2A 1_555 1_555
O12Q Cu2Q 1_555 1_555
O12P Cu2P 1_555 1_555
O12O Cu2O 1_555 1_555
C12B N1B 1_555 1_555
C12Q N1Q 1_555 1_555
C12O N1O 1_555 1_555
C12A N1A 1_555 1_555
C12P N1P 1_555 1_555
O13A Cu1A 1_555 1_555
O13O Cu1O 1_555 1_555
O13P Cu1P 1_555 1_555
O13Q Cu1Q 1_555 1_555
O13B Cu1B 1_555 1_555
C13B C12B 1_555 1_555
C13Q C12Q 1_555 1_555
C13O C12O 1_555 1_555
C13A C12A 1_555 1_555
C13P C12P 1_555 1_555
O14B Cu2B 1_555 1_555
O14A Cu2A 1_555 1_555
O14Q Cu2Q 1_555 1_555
O14P Cu2P 1_555 1_555
O14O Cu2O 1_555 1_555
H9B O14B 1_555 1_555
H9A O14A 1_555 1_555
H9Q O14Q 1_555 1_555
H9P O14P 1_555 1_555
H9O O14O 1_555 1_555
H10B O14B 1_555 1_555
H10A O14A 1_555 1_555
H10Q O14Q 1_555 1_555
H10P O14P 1_555 1_555
H10O O14O 1_555 1_555
C14B C13B 1_555 1_555
C14Q C13Q 1_555 1_555
C14O C13O 1_555 1_555
C14A C13A 1_555 1_555
C14P C13P 1_555 1_555
H11B C14B 1_555 1_555
H11Q C14Q 1_555 1_555
H11O C14O 1_555 1_555
H11A C14A 1_555 1_555
H11P C14P 1_555 1_555
O15Q Cu3Q 1_555 1_555
O15O Cu3O 1_555 1_555
H12Q O15Q 1_555 1_555
H12B O15Q 1_555 1_555
H12O O15O 1_555 1_555
H12A O15O 1_555 1_555
H12P O15 1_555 1_555
C15B C14B 1_555 1_555
C15Q C14Q 1_555 1_555
C15O C14O 1_555 1_555
C15A C14A 1_555 1_555
C15P C14P 1_555 1_555
H13B C15B 1_555 1_555
H13Q C15Q 1_555 1_555
H13O C15O 1_555 1_555
H13A C15A 1_555 1_555
H13P C15P 1_555 1_555
O16Q Cu4Q 1_555 1_555
O16A Cu4A 1_555 1_555
H14P O16 1_555 1_555
H14Q O16Q 1_555 1_555
H14B O16Q 1_555 1_555
H14A O16A 1_555 1_555
H14O O16A 1_555 1_555
C16B C15B 1_555 1_555
C16Q C15Q 1_555 1_555
C16O C15O 1_555 1_555
C16A C15A 1_555 1_555
C16P C15P 1_555 1_555
C17B C16B 1_555 1_555
C17Q C16Q 1_555 1_555
C17O C16O 1_555 1_555
C17A C16A 1_555 1_555
C17P C16P 1_555 1_555
H15B C17B 1_555 1_555
H15Q C17Q 1_555 1_555
H15O C17O 1_555 1_555
H15A C17A 1_555 1_555
H15P C17P 1_555 1_555
C18B C13B 1_555 1_555
C18Q C13Q 1_555 1_555
C18O C13O 1_555 1_555
C18A C13A 1_555 1_555
C18P C13P 1_555 1_555
H16B C18B 1_555 1_555
H16Q C18Q 1_555 1_555
H16O C18O 1_555 1_555
H16A C18A 1_555 1_555
H16P C18P 1_555 1_555
C19P O3P 1_555 1_555
C19Q C16Q 1_555 1_555
C19B O3B 1_555 1_555
C19O O4O 1_555 1_555
C19A O3A 1_555 1_555
C20B O5B 1_555 1_555
C20A O5A 1_555 1_555
C20Q O5Q 1_555 1_555
C20P O5P 1_555 1_555
C20O O5O 1_555 1_555
C21A C20A 1_555 1_555
C21Q C20Q 1_555 1_555
C21O C20O 1_555 1_555
C21P C20P 1_555 1_555
C21B C20B 1_555 1_555
C22A C21A 1_555 1_555
C22Q C21Q 1_555 1_555
C22O C21O 1_555 1_555
C22P C21P 1_555 1_555
C22B C21B 1_555 1_555
H17A C22A 1_555 1_555
H17O C22O 1_555 1_555
H17P C22P 1_555 1_555
H17B C22B 1_555 1_555
H17Q C22Q 1_555 1_555
C23A C22A 1_555 1_555
C23Q C22Q 1_555 1_555
C23O C22O 1_555 1_555
C23P C22P 1_555 1_555
C23B C22B 1_555 1_555
H18A C23A 1_555 1_555
H18O C23O 1_555 1_555
H18P C23P 1_555 1_555
H18B C23B 1_555 1_555
H18Q C23Q 1_555 1_555
C24A C23A 1_555 1_555
C24Q C23Q 1_555 1_555
C24O C23O 1_555 1_555
C24P C23P 1_555 1_555
C24B C23B 1_555 1_555
C25A C24A 1_555 1_555
C25O C24O 1_555 1_555
C25P C24P 1_555 1_555
C25B C24B 1_555 1_555
C25Q C24Q 1_555 1_555
H19A C25A 1_555 1_555
H19O C25O 1_555 1_555
H19P C25P 1_555 1_555
H19B C25B 1_555 1_555
H19Q C25Q 1_555 1_555
C26A C21A 1_555 1_555
C26O C21O 1_555 1_555
C26P C21P 1_555 1_555
C26B C21B 1_555 1_555
C26Q C21Q 1_555 1_555
H20A C26A 1_555 1_555
H20O C26O 1_555 1_555
H20P C26P 1_555 1_555
H20B C26B 1_555 1_555
H20Q C26Q 1_555 1_555
C27A C24A 1_555 1_555
C27Q C24Q 1_555 1_555
C27O C24O 1_555 1_555
C27P C24P 1_555 1_555
C27B C24B 1_555 1_555
C28A C27A 1_555 1_555
C28O C27O 1_555 1_555
C28P C27P 1_555 1_555
C28B C27B 1_555 1_555
C28Q C27Q 1_555 1_555
H21A C28A 1_555 1_555
H21O C28O 1_555 1_555
H21P C28P 1_555 1_555
H21B C28B 1_555 1_555
H21Q C28Q 1_555 1_555
C29A C28A 1_555 1_555
C29O C28O 1_555 1_555
C29P C28P 1_555 1_555
C29B C28B 1_555 1_555
C29Q C28Q 1_555 1_555
H22A C29A 1_555 1_555
H22O C29O 1_555 1_555
H22P C29P 1_555 1_555
H22B C29B 1_555 1_555
H22Q C29Q 1_555 1_555
C30A C29A 1_555 1_555
C30O C29O 1_555 1_555
C30P C29P 1_555 1_555
C30B C29B 1_555 1_555
C30Q C29Q 1_555 1_555
H23A C30A 1_555 1_555
H23O C30O 1_555 1_555
H23P C30P 1_555 1_555
H23B C30B 1_555 1_555
H23Q C30Q 1_555 1_555
C31A N2A 1_555 1_555
C31Q N2Q 1_555 1_555
C31O N2O 1_555 1_555
C31P N2P 1_555 1_555
C31B N2B 1_555 1_555
C32A C31A 1_555 1_555
C32Q C31Q 1_555 1_555
C32O C31O 1_555 1_555
C32P C31P 1_555 1_555
C32B C31B 1_555 1_555
C33A C32A 1_555 1_555
C33Q C32Q 1_555 1_555
C33O C32O 1_555 1_555
C33P C32P 1_555 1_555
C33B C32B 1_555 1_555
H24A C33A 1_555 1_555
H24O C33O 1_555 1_555
H24P C33P 1_555 1_555
H24B C33B 1_555 1_555
H24Q C33Q 1_555 1_555
C34A C33A 1_555 1_555
C34Q C33Q 1_555 1_555
C34O C33O 1_555 1_555
C34P C33P 1_555 1_555
C34B C33B 1_555 1_555
H25A C34A 1_555 1_555
H25O C34O 1_555 1_555
H25P C34P 1_555 1_555
H25B C34B 1_555 1_555
H25Q C34Q 1_555 1_555
C35A C38 1_555 1_555
C35Q C34Q 1_555 1_555
C35O C34O 1_555 1_555
C35P C34P 1_555 1_555
C35B C34B 1_555 1_555
C36A C35A 1_555 1_555
C36O C35O 1_555 1_555
C36P C35P 1_555 1_555
C36B C35B 1_555 1_555
C36Q C35Q 1_555 1_555
H26A C36A 1_555 1_555
H26O C36O 1_555 1_555
H26P C36P 1_555 1_555
H26B C36B 1_555 1_555
H26Q C36Q 1_555 1_555
C37A C32A 1_555 1_555
C37O C32O 1_555 1_555
C37P C32P 1_555 1_555
C37B C32B 1_555 1_555
C37Q C32Q 1_555 1_555
H27A C37A 1_555 1_555
H27O C37O 1_555 1_555
H27P C37P 1_555 1_555
H27B C37B 1_555 1_555
H27Q C37Q 1_555 1_555
C38P O7P 1_555 1_555
C38Q O7Q 1_555 1_555
C38B C35 1_555 1_555
C38A O7A 1_555 1_555
C38O O7O 1_555 1_555
C39B O9B 1_555 1_555
C39A O9A 1_555 1_555
C39Q O9Q 1_555 1_555
C39P O9P 1_555 1_555
C39O O9O 1_555 1_555
C40B C39B 1_555 1_555
C40A C39A 1_555 1_555
C40P C39P 1_555 1_555
C40O C39O 1_555 1_555
C40Q C39Q 1_555 1_555
C41B C40B 1_555 1_555
C41A C40A 1_555 1_555
C41P C40P 1_555 1_555
C41O C40O 1_555 1_555
C41Q C40Q 1_555 1_555
H28Q C41Q 1_555 1_555
H28O C41O 1_555 1_555
H28P C41P 1_555 1_555
H28A C41A 1_555 1_555
H28B C41B 1_555 1_555
C42B C41B 1_555 1_555
C42A C41A 1_555 1_555
C42P C41P 1_555 1_555
C42O C41O 1_555 1_555
C42Q C41Q 1_555 1_555
H29Q C42Q 1_555 1_555
H29O C42O 1_555 1_555
H29P C42P 1_555 1_555
H29A C42A 1_555 1_555
H29B C42B 1_555 1_555
C43B N3B 1_555 1_555
C43A N3A 1_555 1_555
C43P N3P 1_555 1_555
C43O N3O 1_555 1_555
C43Q N3Q 1_555 1_555
C44B C43B 1_555 1_555
C44A C43A 1_555 1_555
C44P C43P 1_555 1_555
C44O C43O 1_555 1_555
C44Q C43Q 1_555 1_555
C45Q C40Q 1_555 1_555
C45O C40O 1_555 1_555
C45P C40P 1_555 1_555
C45A C40A 1_555 1_555
C45B C40B 1_555 1_555
H30Q C45Q 1_555 1_555
H30O C45O 1_555 1_555
H30P C45P 1_555 1_555
H30A C45A 1_555 1_555
H30B C45B 1_555 1_555
C46B C44B 1_555 1_555
C46A C44A 1_555 1_555
C46P C44P 1_555 1_555
C46O C44O 1_555 1_555
C46Q C44Q 1_555 1_555
C47B C46B 1_555 1_555
C47A C46A 1_555 1_555
C47P C46P 1_555 1_555
C47O C46O 1_555 1_555
C47Q C46Q 1_555 1_555
H31Q C47Q 1_555 1_555
H31O C47O 1_555 1_555
H31P C47P 1_555 1_555
H31A C47A 1_555 1_555
H31B C47B 1_555 1_555
C48B C52 1_555 1_555
C48A C47A 1_555 1_555
C48P C47P 1_555 1_555
C48O C47O 1_555 1_555
C48Q C47Q 1_555 1_555
C49B C48B 1_555 1_555
C49A C48A 1_555 1_555
C49P C48P 1_555 1_555
C49O C48O 1_555 1_555
C49Q C48Q 1_555 1_555
H32B C49B 1_555 1_555
H32A C49A 1_555 1_555
H32P C49P 1_555 1_555
H32O C49O 1_555 1_555
H32Q C49Q 1_555 1_555
C50B C49B 1_555 1_555
C50A C49A 1_555 1_555
C50P C49P 1_555 1_555
C50O C49O 1_555 1_555
C50Q C49Q 1_555 1_555
H33B C50B 1_555 1_555
H33A C50A 1_555 1_555
H33P C50P 1_555 1_555
H33O C50O 1_555 1_555
H33Q C50Q 1_555 1_555
C51B N3B 1_555 1_555
C51A N3A 1_555 1_555
C51P N3P 1_555 1_555
C51O N3O 1_555 1_555
C51Q N3Q 1_555 1_555
C52B O11B 1_555 1_555
C52A C48 1_555 1_555
C52Q O11Q 1_555 1_555
C52P O11P 1_555 1_555
C52O O11O 1_555 1_555
C53A H34A 1_555 1_555
C53O H34O 1_555 1_555
C53P H34P 1_555 1_555
C53Q H34Q 1_555 1_555
C53B H34B 1_555 1_555
H35A C53A 1_555 1_555
H35O C53O 1_555 1_555
H35P C53P 1_555 1_555
H35Q C53Q 1_555 1_555
H35B C53B 1_555 1_555
H36A C53A 1_555 1_555
H36O C53O 1_555 1_555
H36P C53P 1_555 1_555
H36Q C53Q 1_555 1_555
H36B C53B 1_555 1_555
C54A O13A 1_555 1_555
C54O O13O 1_555 1_555
C54P O13P 1_555 1_555
C54Q O13Q 1_555 1_555
C54B O13B 1_555 1_555
C55A N4A 1_555 1_555
C55O N4O 1_555 1_555
C55P N4P 1_555 1_555
C55Q N4Q 1_555 1_555
C55B N4B 1_555 1_555
H37A C55A 1_555 1_555
H37O C55O 1_555 1_555
H37P C55P 1_555 1_555
H37Q C55Q 1_555 1_555
H37B C55B 1_555 1_555
H38A C55A 1_555 1_555
H38O C55O 1_555 1_555
H38P C55P 1_555 1_555
H38Q C55Q 1_555 1_555
H38B C55B 1_555 1_555
H39A C55A 1_555 1_555
H39O C55O 1_555 1_555
H39P C55P 1_555 1_555
H39Q C55Q 1_555 1_555
H39B C55B 1_555 1_555
C56A N4A 1_555 1_555
C56O N4O 1_555 1_555
C56P N4P 1_555 1_555
C56Q N4Q 1_555 1_555
C56B N4B 1_555 1_555
H40A C56A 1_555 1_555
H40O C56O 1_555 1_555
H40P C56P 1_555 1_555
H40Q C56Q 1_555 1_555
H40B C56B 1_555 1_555
H41A C56A 1_555 1_555
H41O C56O 1_555 1_555
H41P C56P 1_555 1_555
H41Q C56Q 1_555 1_555
H41B C56B 1_555 1_555
H42A C56A 1_555 1_555
H42O C56O 1_555 1_555
H42P C56P 1_555 1_555
H42Q C56Q 1_555 1_555
H42B C56B 1_555 1_555
O6 C20 1_555 1_555
O8 C38 1_555 1_555
O10 C39 1_555 1_555
C6 C7 1_555 1_555
C11 C12 1_555 1_555
O12 C52 1_555 1_555
C17 C18 1_555 1_555
C25 C26 1_555 1_555
C30 C31 1_555 1_555
C36 C37 1_555 1_555
C42 C43 1_555 1_555
C44 C45 1_555 1_555
C46 C51 1_555 1_555
C50 C51 1_555 1_555
C53 C54 1_555 1_555
O4P C19P 1_555 1_555
O4B C19B 1_555 1_555
O6B C20B 1_555 1_555
O6A C20A 1_555 1_555
O6Q C20Q 1_555 1_555
O6P C20P 1_555 1_555
O6O C20O 1_555 1_555
O7B C38B 1_555 1_555
O8P C38P 1_555 1_555
O8B C38B 1_555 1_555
O8Q C38Q 1_555 1_555
O8A C38A 1_555 1_555
O8O C38O 1_555 1_555
O10B C39B 1_555 1_555
O10A C39A 1_555 1_555
O10Q C39Q 1_555 1_555
O10P C39P 1_555 1_555
O10O C39O 1_555 1_555
C6B C7B 1_555 1_555
C6Q C7Q 1_555 1_555
C6O C7O 1_555 1_555
C6A C7A 1_555 1_555
C6P C7P 1_555 1_555
O11A C52A 1_555 1_555
C11B C12B 1_555 1_555
C11Q C12Q 1_555 1_555
C11O C12O 1_555 1_555
C11A C12A 1_555 1_555
C11P C12P 1_555 1_555
O12B C52B 1_555 1_555
O12A C52A 1_555 1_555
O12Q C52Q 1_555 1_555
O12P C52P 1_555 1_555
O12O C52O 1_555 1_555
C16B C19B 1_555 1_555
C16O C19O 1_555 1_555
C16A C19A 1_555 1_555
C16P C19P 1_555 1_555
C17B C18B 1_555 1_555
C17Q C18Q 1_555 1_555
C17O C18O 1_555 1_555
C17A C18A 1_555 1_555
C17P C18P 1_555 1_555
C25A C26A 1_555 1_555
C25O C26O 1_555 1_555
C25P C26P 1_555 1_555
C25B C26B 1_555 1_555
C25Q C26Q 1_555 1_555
C30A C31A 1_555 1_555
C30O C31O 1_555 1_555
C30P C31P 1_555 1_555
C30B C31B 1_555 1_555
C30Q C31Q 1_555 1_555
C34A C35A 1_555 1_555
C35Q C38P 1_555 1_555
C35O C38Q 1_555 1_555
C35P C38O 1_555 1_555
C35B C38A 1_555 1_555
C36A C37A 1_555 1_555
C36O C37O 1_555 1_555
C36P C37P 1_555 1_555
C36B C37B 1_555 1_555
C36Q C37Q 1_555 1_555
C42B C43B 1_555 1_555
C42A C43A 1_555 1_555
C42P C43P 1_555 1_555
C42O C43O 1_555 1_555
C42Q C43Q 1_555 1_555
C44B C45B 1_555 1_555
C44A C45A 1_555 1_555
C44P C45P 1_555 1_555
C44O C45O 1_555 1_555
C44Q C45Q 1_555 1_555
C46B C51B 1_555 1_555
C46A C51A 1_555 1_555
C46P C51P 1_555 1_555
C46O C51O 1_555 1_555
C46Q C51Q 1_555 1_555
C47B C48B 1_555 1_555
C48A C52B 1_555 1_555
C48P C52Q 1_555 1_555
C48O C52P 1_555 1_555
C48Q C52O 1_555 1_555
C50B C51B 1_555 1_555
C50A C51A 1_555 1_555
C50P C51P 1_555 1_555
C50O C51O 1_555 1_555
C50Q C51Q 1_555 1_555
C53A C54A 1_555 1_555
C53O C54O 1_555 1_555
C53P C54P 1_555 1_555
C53Q C54Q 1_555 1_555
C53B C54B 1_555 1_555

#END
