# generated using pymatgen
data_Cu3H36C46N2O15
_symmetry_space_group_name_H-M   'P 1'
_cell_length_a   33.42300000
_cell_length_b   33.42300000
_cell_length_c   40.81038156
_cell_angle_alpha   65.82711108
_cell_angle_beta   65.82711108
_cell_angle_gamma   60.00000000
_symmetry_Int_Tables_number   1
_chemical_formula_structural   Cu3H36C46N2O15
_chemical_formula_sum   'Cu36 H432 C552 N24 O180'
_cell_volume   34788.93811137
_cell_formula_units_Z   12
loop_
 _symmetry_equiv_pos_site_id
 _symmetry_equiv_pos_as_xyz
  1  'x, y, z'
loop_
 _atom_site_type_symbol
 _atom_site_label
 _atom_site_symmetry_multiplicity
 _atom_site_fract_x
 _atom_site_fract_y
 _atom_site_fract_z
 _atom_site_occupancy
  C  C1  1  0.508650  0.420650  0.906850  1.0
  C  C2  1  0.163850  0.508650  0.906850  1.0
  C  C3  1  0.420650  0.163850  0.906850  1.0
  C  C4  1  0.079350  0.991350  0.593150  1.0
  C  C5  1  0.991350  0.336150  0.593150  1.0
  C  C6  1  0.336150  0.079350  0.593150  1.0
  C  C7  1  0.491350  0.579350  0.093150  1.0
  C  C8  1  0.836150  0.491350  0.093150  1.0
  C  C9  1  0.579350  0.836150  0.093150  1.0
  C  C10  1  0.920650  0.008650  0.406850  1.0
  C  C11  1  0.008650  0.663850  0.406850  1.0
  C  C12  1  0.663850  0.920650  0.406850  1.0
  C  C13  1  0.479670  0.465380  0.882610  1.0
  C  C14  1  0.172340  0.479670  0.882610  1.0
  C  C15  1  0.465380  0.172340  0.882610  1.0
  C  C16  1  0.034620  0.020330  0.617390  1.0
  C  C17  1  0.020330  0.327660  0.617390  1.0
  C  C18  1  0.327660  0.034620  0.617390  1.0
  C  C19  1  0.520330  0.534620  0.117390  1.0
  C  C20  1  0.827660  0.520330  0.117390  1.0
  C  C21  1  0.534620  0.827660  0.117390  1.0
  C  C22  1  0.965380  0.979670  0.382610  1.0
  C  C23  1  0.979670  0.672340  0.382610  1.0
  C  C24  1  0.672340  0.965380  0.382610  1.0
  C  C25  1  0.502470  0.492360  0.850930  1.0
  C  C26  1  0.154240  0.502470  0.850930  1.0
  C  C27  1  0.492360  0.154240  0.850930  1.0
  C  C28  1  0.007640  0.997530  0.649070  1.0
  C  C29  1  0.997530  0.345760  0.649070  1.0
  C  C30  1  0.345760  0.007640  0.649070  1.0
  C  C31  1  0.497530  0.507640  0.149070  1.0
  C  C32  1  0.845760  0.497530  0.149070  1.0
  C  C33  1  0.507640  0.845760  0.149070  1.0
  C  C34  1  0.992360  0.002470  0.350930  1.0
  C  C35  1  0.002470  0.654240  0.350930  1.0
  C  C36  1  0.654240  0.992360  0.350930  1.0
  C  C37  1  0.477470  0.533680  0.827800  1.0
  C  C38  1  0.161050  0.477470  0.827800  1.0
  C  C39  1  0.533680  0.161050  0.827800  1.0
  C  C40  1  0.966320  0.022530  0.672200  1.0
  C  C41  1  0.022530  0.338950  0.672200  1.0
  C  C42  1  0.338950  0.966320  0.672200  1.0
  C  C43  1  0.522530  0.466320  0.172200  1.0
  C  C44  1  0.838950  0.522530  0.172200  1.0
  C  C45  1  0.466320  0.838950  0.172200  1.0
  C  C46  1  0.033680  0.977470  0.327800  1.0
  C  C47  1  0.977470  0.661050  0.327800  1.0
  C  C48  1  0.661050  0.033680  0.327800  1.0
  C  C49  1  0.430240  0.546300  0.836110  1.0
  C  C50  1  0.187350  0.430240  0.836110  1.0
  C  C51  1  0.546300  0.187350  0.836110  1.0
  C  C52  1  0.953700  0.069760  0.663890  1.0
  C  C53  1  0.069760  0.312650  0.663890  1.0
  C  C54  1  0.312650  0.953700  0.663890  1.0
  C  C55  1  0.569760  0.453700  0.163890  1.0
  C  C56  1  0.812650  0.569760  0.163890  1.0
  C  C57  1  0.453700  0.812650  0.163890  1.0
  C  C58  1  0.046300  0.930240  0.336110  1.0
  C  C59  1  0.930240  0.687350  0.336110  1.0
  C  C60  1  0.687350  0.046300  0.336110  1.0
  C  C61  1  0.404600  0.522810  0.868330  1.0
  C  C62  1  0.204260  0.404600  0.868330  1.0
  C  C63  1  0.522810  0.204260  0.868330  1.0
  C  C64  1  0.977190  0.095400  0.631670  1.0
  C  C65  1  0.095400  0.295740  0.631670  1.0
  C  C66  1  0.295740  0.977190  0.631670  1.0
  C  C67  1  0.595400  0.477190  0.131670  1.0
  C  C68  1  0.795740  0.595400  0.131670  1.0
  C  C69  1  0.477190  0.795740  0.131670  1.0
  C  C70  1  0.022810  0.904600  0.368330  1.0
  C  C71  1  0.904600  0.704260  0.368330  1.0
  C  C72  1  0.704260  0.022810  0.368330  1.0
  C  C73  1  0.431110  0.481490  0.890800  1.0
  C  C74  1  0.196600  0.431110  0.890800  1.0
  C  C75  1  0.481490  0.196600  0.890800  1.0
  C  C76  1  0.018510  0.068890  0.609200  1.0
  C  C77  1  0.068890  0.303400  0.609200  1.0
  C  C78  1  0.303400  0.018510  0.609200  1.0
  C  C79  1  0.568890  0.518510  0.109200  1.0
  C  C80  1  0.803400  0.568890  0.109200  1.0
  C  C81  1  0.518510  0.803400  0.109200  1.0
  C  C82  1  0.981490  0.931110  0.390800  1.0
  C  C83  1  0.931110  0.696600  0.390800  1.0
  C  C84  1  0.696600  0.981490  0.390800  1.0
  C  C85  1  0.356390  0.548960  0.868330  1.0
  C  C86  1  0.226320  0.356390  0.868330  1.0
  C  C87  1  0.548960  0.226320  0.868330  1.0
  C  C88  1  0.951040  0.143610  0.631670  1.0
  C  C89  1  0.143610  0.273680  0.631670  1.0
  C  C90  1  0.273680  0.951040  0.631670  1.0
  C  C91  1  0.643610  0.451040  0.131670  1.0
  C  C92  1  0.773680  0.643610  0.131670  1.0
  C  C93  1  0.451040  0.773680  0.131670  1.0
  C  C94  1  0.048960  0.856390  0.368330  1.0
  C  C95  1  0.856390  0.726320  0.368330  1.0
  C  C96  1  0.726320  0.048960  0.368330  1.0
  C  C97  1  0.312460  0.543860  0.891970  1.0
  C  C98  1  0.251710  0.312460  0.891970  1.0
  C  C99  1  0.543860  0.251710  0.891970  1.0
  C  C100  1  0.956140  0.187540  0.608030  1.0
  C  C101  1  0.187540  0.248290  0.608030  1.0
  C  C102  1  0.248290  0.956140  0.608030  1.0
  C  C103  1  0.687540  0.456140  0.108030  1.0
  C  C104  1  0.748290  0.687540  0.108030  1.0
  C  C105  1  0.456140  0.748290  0.108030  1.0
  C  C106  1  0.043860  0.812460  0.391970  1.0
  C  C107  1  0.812460  0.751710  0.391970  1.0
  C  C108  1  0.751710  0.043860  0.391970  1.0
  C  C109  1  0.269860  0.575600  0.883990  1.0
  C  C110  1  0.270550  0.269860  0.883990  1.0
  C  C111  1  0.575600  0.270550  0.883990  1.0
  C  C112  1  0.924400  0.230140  0.616010  1.0
  C  C113  1  0.230140  0.229450  0.616010  1.0
  C  C114  1  0.229450  0.924400  0.616010  1.0
  C  C115  1  0.730140  0.424400  0.116010  1.0
  C  C116  1  0.729450  0.730140  0.116010  1.0
  C  C117  1  0.424400  0.729450  0.116010  1.0
  C  C118  1  0.075600  0.769860  0.383990  1.0
  C  C119  1  0.769860  0.770550  0.383990  1.0
  C  C120  1  0.770550  0.075600  0.383990  1.0
  C  C121  1  0.267510  0.615410  0.853330  1.0
  C  C122  1  0.263750  0.267510  0.853330  1.0
  C  C123  1  0.615410  0.263750  0.853330  1.0
  C  C124  1  0.884590  0.232490  0.646670  1.0
  C  C125  1  0.232490  0.236250  0.646670  1.0
  C  C126  1  0.236250  0.884590  0.646670  1.0
  C  C127  1  0.732490  0.384590  0.146670  1.0
  C  C128  1  0.736250  0.732490  0.146670  1.0
  C  C129  1  0.384590  0.736250  0.146670  1.0
  C  C130  1  0.115410  0.767510  0.353330  1.0
  C  C131  1  0.767510  0.763750  0.353330  1.0
  C  C132  1  0.763750  0.115410  0.353330  1.0
  C  C133  1  0.309220  0.621140  0.830440  1.0
  C  C134  1  0.239200  0.309220  0.830440  1.0
  C  C135  1  0.621140  0.239200  0.830440  1.0
  C  C136  1  0.878860  0.190780  0.669560  1.0
  C  C137  1  0.190780  0.260800  0.669560  1.0
  C  C138  1  0.260800  0.878860  0.669560  1.0
  C  C139  1  0.690780  0.378860  0.169560  1.0
  C  C140  1  0.760800  0.690780  0.169560  1.0
  C  C141  1  0.378860  0.760800  0.169560  1.0
  C  C142  1  0.121140  0.809220  0.330440  1.0
  C  C143  1  0.809220  0.739200  0.330440  1.0
  C  C144  1  0.739200  0.121140  0.330440  1.0
  C  C145  1  0.351980  0.589040  0.837220  1.0
  C  C146  1  0.221760  0.351980  0.837220  1.0
  C  C147  1  0.589040  0.221760  0.837220  1.0
  C  C148  1  0.910960  0.148020  0.662780  1.0
  C  C149  1  0.148020  0.278240  0.662780  1.0
  C  C150  1  0.278240  0.910960  0.662780  1.0
  C  C151  1  0.648020  0.410960  0.162780  1.0
  C  C152  1  0.778240  0.648020  0.162780  1.0
  C  C153  1  0.410960  0.778240  0.162780  1.0
  C  C154  1  0.089040  0.851980  0.337220  1.0
  C  C155  1  0.851980  0.721760  0.337220  1.0
  C  C156  1  0.721760  0.089040  0.337220  1.0
  C  C157  1  0.569430  0.298590  0.907840  1.0
  C  C158  1  0.224140  0.569430  0.907840  1.0
  C  C159  1  0.298590  0.224140  0.907840  1.0
  C  C160  1  0.201410  0.930570  0.592160  1.0
  C  C161  1  0.930570  0.275860  0.592160  1.0
  C  C162  1  0.275860  0.201410  0.592160  1.0
  C  C163  1  0.430570  0.701410  0.092160  1.0
  C  C164  1  0.775860  0.430570  0.092160  1.0
  C  C165  1  0.701410  0.775860  0.092160  1.0
  C  C166  1  0.798590  0.069430  0.407840  1.0
  C  C167  1  0.069430  0.724140  0.407840  1.0
  C  C168  1  0.724140  0.798590  0.407840  1.0
  C  C169  1  0.540860  0.395190  0.989020  1.0
  C  C170  1  0.074930  0.540860  0.989020  1.0
  C  C171  1  0.395190  0.074930  0.989020  1.0
  C  C172  1  0.104810  0.959140  0.510980  1.0
  C  C173  1  0.959140  0.425070  0.510980  1.0
  C  C174  1  0.425070  0.104810  0.510980  1.0
  C  C175  1  0.459140  0.604810  0.010980  1.0
  C  C176  1  0.925070  0.459140  0.010980  1.0
  C  C177  1  0.604810  0.925070  0.010980  1.0
  C  C178  1  0.895190  0.040860  0.489020  1.0
  C  C179  1  0.040860  0.574930  0.489020  1.0
  C  C180  1  0.574930  0.895190  0.489020  1.0
  C  C181  1  0.532810  0.423440  0.013770  1.0
  C  C182  1  0.029980  0.532810  0.013770  1.0
  C  C183  1  0.423440  0.029980  0.013770  1.0
  C  C184  1  0.076560  0.967190  0.486230  1.0
  C  C185  1  0.967190  0.470020  0.486230  1.0
  C  C186  1  0.470020  0.076560  0.486230  1.0
  C  C187  1  0.467190  0.576560  0.986230  1.0
  C  C188  1  0.970020  0.467190  0.986230  1.0
  C  C189  1  0.576560  0.970020  0.986230  1.0
  C  C190  1  0.923440  0.032810  0.513770  1.0
  C  C191  1  0.032810  0.529980  0.513770  1.0
  C  C192  1  0.529980  0.923440  0.513770  1.0
  C  C193  1  0.563880  0.445140  0.004350  1.0
  C  C194  1  0.986630  0.563880  0.004350  1.0
  C  C195  1  0.445140  0.986630  0.004350  1.0
  C  C196  1  0.054860  0.936120  0.495650  1.0
  C  C197  1  0.936120  0.513370  0.495650  1.0
  C  C198  1  0.513370  0.054860  0.495650  1.0
  C  C199  1  0.436120  0.554860  0.995650  1.0
  C  C200  1  0.013370  0.436120  0.995650  1.0
  C  C201  1  0.554860  0.013370  0.995650  1.0
  C  C202  1  0.945140  0.063880  0.504350  1.0
  C  C203  1  0.063880  0.486630  0.504350  1.0
  C  C204  1  0.486630  0.945140  0.504350  1.0
  C  C205  1  0.554820  0.470690  0.026820  1.0
  C  C206  1  0.947670  0.554820  0.026820  1.0
  C  C207  1  0.470690  0.947670  0.026820  1.0
  C  C208  1  0.029310  0.945180  0.473180  1.0
  C  C209  1  0.945180  0.552330  0.473180  1.0
  C  C210  1  0.552330  0.029310  0.473180  1.0
  C  C211  1  0.445180  0.529310  0.973180  1.0
  C  C212  1  0.052330  0.445180  0.973180  1.0
  C  C213  1  0.529310  0.052330  0.973180  1.0
  C  C214  1  0.970690  0.054820  0.526820  1.0
  C  C215  1  0.054820  0.447670  0.526820  1.0
  C  C216  1  0.447670  0.970690  0.526820  1.0
  C  C217  1  0.517160  0.473000  0.059340  1.0
  C  C218  1  0.950500  0.517160  0.059340  1.0
  C  C219  1  0.473000  0.950500  0.059340  1.0
  C  C220  1  0.027000  0.982840  0.440660  1.0
  C  C221  1  0.982840  0.549500  0.440660  1.0
  C  C222  1  0.549500  0.027000  0.440660  1.0
  C  C223  1  0.482840  0.527000  0.940660  1.0
  C  C224  1  0.049500  0.482840  0.940660  1.0
  C  C225  1  0.527000  0.049500  0.940660  1.0
  C  C226  1  0.973000  0.017160  0.559340  1.0
  C  C227  1  0.017160  0.450500  0.559340  1.0
  C  C228  1  0.450500  0.973000  0.559340  1.0
  C  C229  1  0.486420  0.452580  0.068280  1.0
  C  C230  1  0.992720  0.486420  0.068280  1.0
  C  C231  1  0.452580  0.992720  0.068280  1.0
  C  C232  1  0.047420  0.013580  0.431720  1.0
  C  C233  1  0.013580  0.507280  0.431720  1.0
  C  C234  1  0.507280  0.047420  0.431720  1.0
  C  C235  1  0.513580  0.547420  0.931720  1.0
  C  C236  1  0.007280  0.513580  0.931720  1.0
  C  C237  1  0.547420  0.007280  0.931720  1.0
  C  C238  1  0.952580  0.986420  0.568280  1.0
  C  C239  1  0.986420  0.492720  0.568280  1.0
  C  C240  1  0.492720  0.952580  0.568280  1.0
  C  C241  1  0.495380  0.427310  0.044850  1.0
  C  C242  1  0.032460  0.495380  0.044850  1.0
  C  C243  1  0.427310  0.032460  0.044850  1.0
  C  C244  1  0.072690  0.004620  0.455150  1.0
  C  C245  1  0.004620  0.467540  0.455150  1.0
  C  C246  1  0.467540  0.072690  0.455150  1.0
  C  C247  1  0.504620  0.572690  0.955150  1.0
  C  C248  1  0.967540  0.504620  0.955150  1.0
  C  C249  1  0.572690  0.967540  0.955150  1.0
  C  C250  1  0.927310  0.995380  0.544850  1.0
  C  C251  1  0.995380  0.532460  0.544850  1.0
  C  C252  1  0.532460  0.927310  0.544850  1.0
  C  C253  1  0.444660  0.457400  0.101790  1.0
  C  C254  1  0.996150  0.444660  0.101790  1.0
  C  C255  1  0.457400  0.996150  0.101790  1.0
  C  C256  1  0.042600  0.055340  0.398210  1.0
  C  C257  1  0.055340  0.503850  0.398210  1.0
  C  C258  1  0.503850  0.042600  0.398210  1.0
  C  C259  1  0.555340  0.542600  0.898210  1.0
  C  C260  1  0.003850  0.555340  0.898210  1.0
  C  C261  1  0.542600  0.003850  0.898210  1.0
  C  C262  1  0.957400  0.944660  0.601790  1.0
  C  C263  1  0.944660  0.496150  0.601790  1.0
  C  C264  1  0.496150  0.957400  0.601790  1.0
  C  C265  1  0.420000  0.498520  0.112440  1.0
  C  C266  1  0.969040  0.420000  0.112440  1.0
  C  C267  1  0.498520  0.969040  0.112440  1.0
  C  C268  1  0.001480  0.080000  0.387560  1.0
  C  C269  1  0.080000  0.530960  0.387560  1.0
  C  C270  1  0.530960  0.001480  0.387560  1.0
  C  C271  1  0.580000  0.501480  0.887560  1.0
  C  C272  1  0.030960  0.580000  0.887560  1.0
  C  C273  1  0.501480  0.030960  0.887560  1.0
  C  C274  1  0.998520  0.920000  0.612440  1.0
  C  C275  1  0.920000  0.469040  0.612440  1.0
  C  C276  1  0.469040  0.998520  0.612440  1.0
  C  C277  1  0.380270  0.503730  0.143130  1.0
  C  C278  1  0.972870  0.380270  0.143130  1.0
  C  C279  1  0.503730  0.972870  0.143130  1.0
  C  C280  1  0.996270  0.119730  0.356870  1.0
  C  C281  1  0.119730  0.527130  0.356870  1.0
  C  C282  1  0.527130  0.996270  0.356870  1.0
  C  C283  1  0.619730  0.496270  0.856870  1.0
  C  C284  1  0.027130  0.619730  0.856870  1.0
  C  C285  1  0.496270  0.027130  0.856870  1.0
  C  C286  1  0.003730  0.880270  0.643130  1.0
  C  C287  1  0.880270  0.472870  0.643130  1.0
  C  C288  1  0.472870  0.003730  0.643130  1.0
  C  C289  1  0.366600  0.465620  0.164820  1.0
  C  C290  1  0.002960  0.366600  0.164820  1.0
  C  C291  1  0.465620  0.002960  0.164820  1.0
  C  C292  1  0.034380  0.133400  0.335180  1.0
  C  C293  1  0.133400  0.497040  0.335180  1.0
  C  C294  1  0.497040  0.034380  0.335180  1.0
  C  C295  1  0.633400  0.534380  0.835180  1.0
  C  C296  1  0.997040  0.633400  0.835180  1.0
  C  C297  1  0.534380  0.997040  0.835180  1.0
  C  C298  1  0.965620  0.866600  0.664820  1.0
  C  C299  1  0.866600  0.502960  0.664820  1.0
  C  C300  1  0.502960  0.965620  0.664820  1.0
  C  C301  1  0.392320  0.424460  0.153420  1.0
  C  C302  1  0.029800  0.392320  0.153420  1.0
  C  C303  1  0.424460  0.029800  0.153420  1.0
  C  C304  1  0.075540  0.107680  0.346580  1.0
  C  C305  1  0.107680  0.470200  0.346580  1.0
  C  C306  1  0.470200  0.075540  0.346580  1.0
  C  C307  1  0.607680  0.575540  0.846580  1.0
  C  C308  1  0.970200  0.607680  0.846580  1.0
  C  C309  1  0.575540  0.970200  0.846580  1.0
  C  C310  1  0.924460  0.892320  0.653420  1.0
  C  C311  1  0.892320  0.529800  0.653420  1.0
  C  C312  1  0.529800  0.924460  0.653420  1.0
  C  C313  1  0.431220  0.420560  0.122370  1.0
  C  C314  1  0.025850  0.431220  0.122370  1.0
  C  C315  1  0.420560  0.025850  0.122370  1.0
  C  C316  1  0.079440  0.068780  0.377630  1.0
  C  C317  1  0.068780  0.474150  0.377630  1.0
  C  C318  1  0.474150  0.079440  0.377630  1.0
  C  C319  1  0.568780  0.579440  0.877630  1.0
  C  C320  1  0.974150  0.568780  0.877630  1.0
  C  C321  1  0.579440  0.974150  0.877630  1.0
  C  C322  1  0.920560  0.931220  0.622370  1.0
  C  C323  1  0.931220  0.525850  0.622370  1.0
  C  C324  1  0.525850  0.920560  0.622370  1.0
  C  C325  1  0.324810  0.470360  0.198030  1.0
  C  C326  1  0.006800  0.324810  0.198030  1.0
  C  C327  1  0.470360  0.006800  0.198030  1.0
  C  C328  1  0.029640  0.175190  0.301970  1.0
  C  C329  1  0.175190  0.493200  0.301970  1.0
  C  C330  1  0.493200  0.029640  0.301970  1.0
  C  C331  1  0.675190  0.529640  0.801970  1.0
  C  C332  1  0.993200  0.675190  0.801970  1.0
  C  C333  1  0.529640  0.993200  0.801970  1.0
  C  C334  1  0.970360  0.824810  0.698030  1.0
  C  C335  1  0.824810  0.506800  0.698030  1.0
  C  C336  1  0.506800  0.970360  0.698030  1.0
  C  C337  1  0.601330  0.276160  0.989770  1.0
  C  C338  1  0.132740  0.601330  0.989770  1.0
  C  C339  1  0.276160  0.132740  0.989770  1.0
  C  C340  1  0.223840  0.898670  0.510230  1.0
  C  C341  1  0.898670  0.367260  0.510230  1.0
  C  C342  1  0.367260  0.223840  0.510230  1.0
  C  C343  1  0.398670  0.723840  0.010230  1.0
  C  C344  1  0.867260  0.398670  0.010230  1.0
  C  C345  1  0.723840  0.867260  0.010230  1.0
  C  C346  1  0.776160  0.101330  0.489770  1.0
  C  C347  1  0.101330  0.632740  0.489770  1.0
  C  C348  1  0.632740  0.776160  0.489770  1.0
  C  C349  1  0.630190  0.232870  0.016980  1.0
  C  C350  1  0.119960  0.630190  0.016980  1.0
  C  C351  1  0.232870  0.119960  0.016980  1.0
  C  C352  1  0.267130  0.869810  0.483020  1.0
  C  C353  1  0.869810  0.380040  0.483020  1.0
  C  C354  1  0.380040  0.267130  0.483020  1.0
  C  C355  1  0.369810  0.767130  0.983020  1.0
  C  C356  1  0.880040  0.369810  0.983020  1.0
  C  C357  1  0.767130  0.880040  0.983020  1.0
  C  C358  1  0.732870  0.130190  0.516980  1.0
  C  C359  1  0.130190  0.619960  0.516980  1.0
  C  C360  1  0.619960  0.732870  0.516980  1.0
  C  C361  1  0.680140  0.216580  0.007020  1.0
  C  C362  1  0.096260  0.680140  0.007020  1.0
  C  C363  1  0.216580  0.096260  0.007020  1.0
  C  C364  1  0.283420  0.819860  0.492980  1.0
  C  C365  1  0.819860  0.403740  0.492980  1.0
  C  C366  1  0.403740  0.283420  0.492980  1.0
  C  C367  1  0.319860  0.783420  0.992980  1.0
  C  C368  1  0.903740  0.319860  0.992980  1.0
  C  C369  1  0.783420  0.903740  0.992980  1.0
  C  C370  1  0.716580  0.180140  0.507020  1.0
  C  C371  1  0.180140  0.596260  0.507020  1.0
  C  C372  1  0.596260  0.716580  0.507020  1.0
  C  C373  1  0.703350  0.181430  0.034380  1.0
  C  C374  1  0.080840  0.703350  0.034380  1.0
  C  C375  1  0.181430  0.080840  0.034380  1.0
  C  C376  1  0.318570  0.796650  0.465620  1.0
  C  C377  1  0.796650  0.419160  0.465620  1.0
  C  C378  1  0.419160  0.318570  0.465620  1.0
  C  C379  1  0.296650  0.818570  0.965620  1.0
  C  C380  1  0.919160  0.296650  0.965620  1.0
  C  C381  1  0.818570  0.919160  0.965620  1.0
  C  C382  1  0.681430  0.203350  0.534380  1.0
  C  C383  1  0.203350  0.580840  0.534380  1.0
  C  C384  1  0.580840  0.681430  0.534380  1.0
  C  C385  1  0.677950  0.160830  0.069630  1.0
  C  C386  1  0.091590  0.677950  0.069630  1.0
  C  C387  1  0.160830  0.091590  0.069630  1.0
  C  C388  1  0.339170  0.822050  0.430370  1.0
  C  C389  1  0.822050  0.408410  0.430370  1.0
  C  C390  1  0.408410  0.339170  0.430370  1.0
  C  C391  1  0.322050  0.839170  0.930370  1.0
  C  C392  1  0.908410  0.322050  0.930370  1.0
  C  C393  1  0.839170  0.908410  0.930370  1.0
  C  C394  1  0.660830  0.177950  0.569630  1.0
  C  C395  1  0.177950  0.591590  0.569630  1.0
  C  C396  1  0.591590  0.660830  0.569630  1.0
  C  C397  1  0.631970  0.170140  0.073290  1.0
  C  C398  1  0.124600  0.631970  0.073290  1.0
  C  C399  1  0.170140  0.124600  0.073290  1.0
  C  C400  1  0.329860  0.868030  0.426710  1.0
  C  C401  1  0.868030  0.375400  0.426710  1.0
  C  C402  1  0.375400  0.329860  0.426710  1.0
  C  C403  1  0.368030  0.829860  0.926710  1.0
  C  C404  1  0.875400  0.368030  0.926710  1.0
  C  C405  1  0.829860  0.875400  0.926710  1.0
  C  C406  1  0.670140  0.131970  0.573290  1.0
  C  C407  1  0.131970  0.624600  0.573290  1.0
  C  C408  1  0.624600  0.670140  0.573290  1.0
  C  C409  1  0.608240  0.206350  0.048840  1.0
  C  C410  1  0.136570  0.608240  0.048840  1.0
  C  C411  1  0.206350  0.136570  0.048840  1.0
  C  C412  1  0.293650  0.891760  0.451160  1.0
  C  C413  1  0.891760  0.363430  0.451160  1.0
  C  C414  1  0.363430  0.293650  0.451160  1.0
  C  C415  1  0.391760  0.793650  0.951160  1.0
  C  C416  1  0.863430  0.391760  0.951160  1.0
  C  C417  1  0.793650  0.863430  0.951160  1.0
  C  C418  1  0.706350  0.108240  0.548840  1.0
  C  C419  1  0.108240  0.636570  0.548840  1.0
  C  C420  1  0.636570  0.706350  0.548840  1.0
  C  C421  1  0.606460  0.143560  0.108450  1.0
  C  C422  1  0.141530  0.606460  0.108450  1.0
  C  C423  1  0.143560  0.141530  0.108450  1.0
  C  C424  1  0.356440  0.893540  0.391550  1.0
  C  C425  1  0.893540  0.358470  0.391550  1.0
  C  C426  1  0.358470  0.356440  0.391550  1.0
  C  C427  1  0.393540  0.856440  0.891550  1.0
  C  C428  1  0.858470  0.393540  0.891550  1.0
  C  C429  1  0.856440  0.858470  0.891550  1.0
  C  C430  1  0.643560  0.106460  0.608450  1.0
  C  C431  1  0.106460  0.641530  0.608450  1.0
  C  C432  1  0.641530  0.643560  0.608450  1.0
  C  C433  1  0.627770  0.102280  0.129510  1.0
  C  C434  1  0.140440  0.627770  0.129510  1.0
  C  C435  1  0.102280  0.140440  0.129510  1.0
  C  C436  1  0.397720  0.872230  0.370490  1.0
  C  C437  1  0.872230  0.359560  0.370490  1.0
  C  C438  1  0.359560  0.397720  0.370490  1.0
  C  C439  1  0.372230  0.897720  0.870490  1.0
  C  C440  1  0.859560  0.372230  0.870490  1.0
  C  C441  1  0.897720  0.859560  0.870490  1.0
  C  C442  1  0.602280  0.127770  0.629510  1.0
  C  C443  1  0.127770  0.640440  0.629510  1.0
  C  C444  1  0.640440  0.602280  0.629510  1.0
  C  C445  1  0.603620  0.076250  0.159390  1.0
  C  C446  1  0.160740  0.603620  0.159390  1.0
  C  C447  1  0.076250  0.160740  0.159390  1.0
  C  C448  1  0.423750  0.896380  0.340610  1.0
  C  C449  1  0.896380  0.339260  0.340610  1.0
  C  C450  1  0.339260  0.423750  0.340610  1.0
  C  C451  1  0.396380  0.923750  0.840610  1.0
  C  C452  1  0.839260  0.396380  0.840610  1.0
  C  C453  1  0.923750  0.839260  0.840610  1.0
  C  C454  1  0.576250  0.103620  0.659390  1.0
  C  C455  1  0.103620  0.660740  0.659390  1.0
  C  C456  1  0.660740  0.576250  0.659390  1.0
  C  C457  1  0.555400  0.093820  0.170070  1.0
  C  C458  1  0.180710  0.555400  0.170070  1.0
  C  C459  1  0.093820  0.180710  0.170070  1.0
  C  C460  1  0.406180  0.944600  0.329930  1.0
  C  C461  1  0.944600  0.319290  0.329930  1.0
  C  C462  1  0.319290  0.406180  0.329930  1.0
  C  C463  1  0.444600  0.906180  0.829930  1.0
  C  C464  1  0.819290  0.444600  0.829930  1.0
  C  C465  1  0.906180  0.819290  0.829930  1.0
  C  C466  1  0.593820  0.055400  0.670070  1.0
  C  C467  1  0.055400  0.680710  0.670070  1.0
  C  C468  1  0.680710  0.593820  0.670070  1.0
  C  C469  1  0.534350  0.138270  0.153240  1.0
  C  C470  1  0.174140  0.534350  0.153240  1.0
  C  C471  1  0.138270  0.174140  0.153240  1.0
  C  C472  1  0.361730  0.965650  0.346760  1.0
  C  C473  1  0.965650  0.325860  0.346760  1.0
  C  C474  1  0.325860  0.361730  0.346760  1.0
  C  C475  1  0.465650  0.861730  0.846760  1.0
  C  C476  1  0.825860  0.465650  0.846760  1.0
  C  C477  1  0.861730  0.825860  0.846760  1.0
  C  C478  1  0.638270  0.034350  0.653240  1.0
  C  C479  1  0.034350  0.674140  0.653240  1.0
  C  C480  1  0.674140  0.638270  0.653240  1.0
  C  C481  1  0.558110  0.162910  0.121920  1.0
  C  C482  1  0.157060  0.558110  0.121920  1.0
  C  C483  1  0.162910  0.157060  0.121920  1.0
  C  C484  1  0.337090  0.941890  0.378080  1.0
  C  C485  1  0.941890  0.342940  0.378080  1.0
  C  C486  1  0.342940  0.337090  0.378080  1.0
  C  C487  1  0.441890  0.837090  0.878080  1.0
  C  C488  1  0.842940  0.441890  0.878080  1.0
  C  C489  1  0.837090  0.842940  0.878080  1.0
  C  C490  1  0.662910  0.058110  0.621920  1.0
  C  C491  1  0.058110  0.657060  0.621920  1.0
  C  C492  1  0.657060  0.662910  0.621920  1.0
  C  C493  1  0.203160  0.527600  0.202530  1.0
  C  C494  1  0.066710  0.203160  0.202530  1.0
  C  C495  1  0.527600  0.066710  0.202530  1.0
  C  C496  1  0.972400  0.296840  0.297470  1.0
  C  C497  1  0.296840  0.433290  0.297470  1.0
  C  C498  1  0.433290  0.972400  0.297470  1.0
  C  C499  1  0.796840  0.472400  0.797470  1.0
  C  C500  1  0.933290  0.796840  0.797470  1.0
  C  C501  1  0.472400  0.933290  0.797470  1.0
  C  C502  1  0.027600  0.703160  0.702530  1.0
  C  C503  1  0.703160  0.566710  0.702530  1.0
  C  C504  1  0.566710  0.027600  0.702530  1.0
  C  C505  1  0.714840  0.274900  0.903880  1.0
  C  C506  1  0.106380  0.714840  0.903880  1.0
  C  C507  1  0.274900  0.106380  0.903880  1.0
  C  C508  1  0.225100  0.785160  0.596120  1.0
  C  C509  1  0.785160  0.393620  0.596120  1.0
  C  C510  1  0.393620  0.225100  0.596120  1.0
  C  C511  1  0.285160  0.725100  0.096120  1.0
  C  C512  1  0.893620  0.285160  0.096120  1.0
  C  C513  1  0.725100  0.893620  0.096120  1.0
  C  C514  1  0.774900  0.214840  0.403880  1.0
  C  C515  1  0.214840  0.606380  0.403880  1.0
  C  C516  1  0.606380  0.774900  0.403880  1.0
  C  C517  1  0.698901  0.327201  0.896257  1.0
  C  C518  1  0.077641  0.698901  0.896257  1.0
  C  C519  1  0.327201  0.077641  0.896257  1.0
  C  C520  1  0.172799  0.801099  0.603743  1.0
  C  C521  1  0.801099  0.422359  0.603743  1.0
  C  C522  1  0.422359  0.172799  0.603743  1.0
  C  C523  1  0.301099  0.672799  0.103743  1.0
  C  C524  1  0.922359  0.301099  0.103743  1.0
  C  C525  1  0.672799  0.922359  0.103743  1.0
  C  C526  1  0.827201  0.198901  0.396257  1.0
  C  C527  1  0.198901  0.577641  0.396257  1.0
  C  C528  1  0.577641  0.827201  0.396257  1.0
  C  C529  1  0.791540  0.286140  0.891580  1.0
  C  C530  1  0.030740  0.791540  0.891580  1.0
  C  C531  1  0.286140  0.030740  0.891580  1.0
  C  C532  1  0.213860  0.708460  0.608420  1.0
  C  C533  1  0.708460  0.469260  0.608420  1.0
  C  C534  1  0.469260  0.213860  0.608420  1.0
  C  C535  1  0.208460  0.713860  0.108420  1.0
  C  C536  1  0.969260  0.208460  0.108420  1.0
  C  C537  1  0.713860  0.969260  0.108420  1.0
  C  C538  1  0.786140  0.291540  0.391580  1.0
  C  C539  1  0.291540  0.530740  0.391580  1.0
  C  C540  1  0.530740  0.786140  0.391580  1.0
  C  C541  1  0.727460  0.378560  0.882820  1.0
  C  C542  1  0.011160  0.727460  0.882820  1.0
  C  C543  1  0.378560  0.011160  0.882820  1.0
  C  C544  1  0.121440  0.772540  0.617180  1.0
  C  C545  1  0.772540  0.488840  0.617180  1.0
  C  C546  1  0.488840  0.121440  0.617180  1.0
  C  C547  1  0.272540  0.621440  0.117180  1.0
  C  C548  1  0.988840  0.272540  0.117180  1.0
  C  C549  1  0.621440  0.988840  0.117180  1.0
  C  C550  1  0.878560  0.227460  0.382820  1.0
  C  C551  1  0.227460  0.511160  0.382820  1.0
  C  C552  1  0.511160  0.878560  0.382820  1.0
  Cu  Cu553  1  0.249989  0.520714  0.250033  1.0
  Cu  Cu554  1  0.979264  0.249989  0.250033  1.0
  Cu  Cu555  1  0.520714  0.979264  0.250033  1.0
  Cu  Cu556  1  0.750011  0.479286  0.749967  1.0
  Cu  Cu557  1  0.020736  0.750011  0.749967  1.0
  Cu  Cu558  1  0.479286  0.020736  0.749967  1.0
  Cu  Cu559  1  0.249989  0.442095  0.250033  1.0
  Cu  Cu560  1  0.057883  0.249989  0.250033  1.0
  Cu  Cu561  1  0.442095  0.057883  0.250033  1.0
  Cu  Cu562  1  0.750011  0.557905  0.749967  1.0
  Cu  Cu563  1  0.942117  0.750011  0.749967  1.0
  Cu  Cu564  1  0.557905  0.942117  0.749967  1.0
  Cu  Cu565  1  0.594048  0.353993  0.927127  1.0
  Cu  Cu566  1  0.124832  0.594048  0.927127  1.0
  Cu  Cu567  1  0.353993  0.124832  0.927127  1.0
  Cu  Cu568  1  0.146007  0.905952  0.572873  1.0
  Cu  Cu569  1  0.905952  0.375168  0.572873  1.0
  Cu  Cu570  1  0.375168  0.146007  0.572873  1.0
  Cu  Cu571  1  0.405952  0.646007  0.072873  1.0
  Cu  Cu572  1  0.875168  0.405952  0.072873  1.0
  Cu  Cu573  1  0.646007  0.875168  0.072873  1.0
  Cu  Cu574  1  0.853993  0.094048  0.427127  1.0
  Cu  Cu575  1  0.094048  0.624832  0.427127  1.0
  Cu  Cu576  1  0.624832  0.853993  0.427127  1.0
  Cu  Cu577  1  0.515817  0.339985  0.969370  1.0
  Cu  Cu578  1  0.174828  0.515817  0.969370  1.0
  Cu  Cu579  1  0.339985  0.174828  0.969370  1.0
  Cu  Cu580  1  0.160015  0.984183  0.530630  1.0
  Cu  Cu581  1  0.984183  0.325172  0.530630  1.0
  Cu  Cu582  1  0.325172  0.160015  0.530630  1.0
  Cu  Cu583  1  0.484183  0.660015  0.030630  1.0
  Cu  Cu584  1  0.825172  0.484183  0.030630  1.0
  Cu  Cu585  1  0.660015  0.825172  0.030630  1.0
  Cu  Cu586  1  0.839985  0.015817  0.469370  1.0
  Cu  Cu587  1  0.015817  0.674828  0.469370  1.0
  Cu  Cu588  1  0.674828  0.839985  0.469370  1.0
  H  H589  1  0.421800  0.346500  0.008700  1.0
  H  H590  1  0.223000  0.421800  0.008700  1.0
  H  H591  1  0.346500  0.223000  0.008700  1.0
  H  H592  1  0.153500  0.078200  0.491300  1.0
  H  H593  1  0.078200  0.277000  0.491300  1.0
  H  H594  1  0.277000  0.153500  0.491300  1.0
  H  H595  1  0.578200  0.653500  0.991300  1.0
  H  H596  1  0.777000  0.578200  0.991300  1.0
  H  H597  1  0.653500  0.777000  0.991300  1.0
  H  H598  1  0.846500  0.921800  0.508700  1.0
  H  H599  1  0.921800  0.723000  0.508700  1.0
  H  H600  1  0.723000  0.846500  0.508700  1.0
  H  H601  1  0.442600  0.308400  0.003600  1.0
  H  H602  1  0.245400  0.442600  0.003600  1.0
  H  H603  1  0.308400  0.245400  0.003600  1.0
  H  H604  1  0.191600  0.057400  0.496400  1.0
  H  H605  1  0.057400  0.254600  0.496400  1.0
  H  H606  1  0.254600  0.191600  0.496400  1.0
  H  H607  1  0.557400  0.691600  0.996400  1.0
  H  H608  1  0.754600  0.557400  0.996400  1.0
  H  H609  1  0.691600  0.754600  0.996400  1.0
  H  H610  1  0.808400  0.942600  0.503600  1.0
  H  H611  1  0.942600  0.745400  0.503600  1.0
  H  H612  1  0.745400  0.808400  0.503600  1.0
  H  H613  1  0.270100  0.600400  0.232500  1.0
  H  H614  1  0.897000  0.270100  0.232500  1.0
  H  H615  1  0.600400  0.897000  0.232500  1.0
  H  H616  1  0.899600  0.229900  0.267500  1.0
  H  H617  1  0.229900  0.603000  0.267500  1.0
  H  H618  1  0.603000  0.899600  0.267500  1.0
  H  H619  1  0.729900  0.399600  0.767500  1.0
  H  H620  1  0.103000  0.729900  0.767500  1.0
  H  H621  1  0.399600  0.103000  0.767500  1.0
  H  H622  1  0.100400  0.770100  0.732500  1.0
  H  H623  1  0.770100  0.397000  0.732500  1.0
  H  H624  1  0.397000  0.100400  0.732500  1.0
  H  H625  1  0.255300  0.366500  0.233400  1.0
  H  H626  1  0.144800  0.255300  0.233400  1.0
  H  H627  1  0.366500  0.144800  0.233400  1.0
  H  H628  1  0.133500  0.244700  0.266600  1.0
  H  H629  1  0.244700  0.355200  0.266600  1.0
  H  H630  1  0.355200  0.133500  0.266600  1.0
  H  H631  1  0.744700  0.633500  0.766600  1.0
  H  H632  1  0.855200  0.744700  0.766600  1.0
  H  H633  1  0.633500  0.855200  0.766600  1.0
  H  H634  1  0.866500  0.755300  0.733400  1.0
  H  H635  1  0.755300  0.644800  0.733400  1.0
  H  H636  1  0.644800  0.866500  0.733400  1.0
  H  H637  1  0.403700  0.608600  0.799600  1.0
  H  H638  1  0.188100  0.403700  0.799600  1.0
  H  H639  1  0.608600  0.188100  0.799600  1.0
  H  H640  1  0.891400  0.096300  0.700400  1.0
  H  H641  1  0.096300  0.311900  0.700400  1.0
  H  H642  1  0.311900  0.891400  0.700400  1.0
  H  H643  1  0.596300  0.391400  0.200400  1.0
  H  H644  1  0.811900  0.596300  0.200400  1.0
  H  H645  1  0.391400  0.811900  0.200400  1.0
  H  H646  1  0.108600  0.903700  0.299600  1.0
  H  H647  1  0.903700  0.688100  0.299600  1.0
  H  H648  1  0.688100  0.108600  0.299600  1.0
  H  H649  1  0.536200  0.481800  0.845200  1.0
  H  H650  1  0.136800  0.536200  0.845200  1.0
  H  H651  1  0.481800  0.136800  0.845200  1.0
  H  H652  1  0.018200  0.963800  0.654800  1.0
  H  H653  1  0.963800  0.363200  0.654800  1.0
  H  H654  1  0.363200  0.018200  0.654800  1.0
  H  H655  1  0.463800  0.518200  0.154800  1.0
  H  H656  1  0.863200  0.463800  0.154800  1.0
  H  H657  1  0.518200  0.863200  0.154800  1.0
  H  H658  1  0.981800  0.036200  0.345200  1.0
  H  H659  1  0.036200  0.636800  0.345200  1.0
  H  H660  1  0.636800  0.981800  0.345200  1.0
  H  H661  1  0.493000  0.552200  0.807100  1.0
  H  H662  1  0.147700  0.493000  0.807100  1.0
  H  H663  1  0.552200  0.147700  0.807100  1.0
  H  H664  1  0.947800  0.007000  0.692900  1.0
  H  H665  1  0.007000  0.352300  0.692900  1.0
  H  H666  1  0.352300  0.947800  0.692900  1.0
  H  H667  1  0.507000  0.447800  0.192900  1.0
  H  H668  1  0.852300  0.507000  0.192900  1.0
  H  H669  1  0.447800  0.852300  0.192900  1.0
  H  H670  1  0.052200  0.993000  0.307100  1.0
  H  H671  1  0.993000  0.647700  0.307100  1.0
  H  H672  1  0.647700  0.052200  0.307100  1.0
  H  H673  1  0.415000  0.464100  0.912400  1.0
  H  H674  1  0.208500  0.415000  0.912400  1.0
  H  H675  1  0.464100  0.208500  0.912400  1.0
  H  H676  1  0.035900  0.085000  0.587600  1.0
  H  H677  1  0.085000  0.291500  0.587600  1.0
  H  H678  1  0.291500  0.035900  0.587600  1.0
  H  H679  1  0.585000  0.535900  0.087600  1.0
  H  H680  1  0.791500  0.585000  0.087600  1.0
  H  H681  1  0.535900  0.791500  0.087600  1.0
  H  H682  1  0.964100  0.915000  0.412400  1.0
  H  H683  1  0.915000  0.708500  0.412400  1.0
  H  H684  1  0.708500  0.964100  0.412400  1.0
  H  H685  1  0.313300  0.517800  0.913600  1.0
  H  H686  1  0.255300  0.313300  0.913600  1.0
  H  H687  1  0.517800  0.255300  0.913600  1.0
  H  H688  1  0.982200  0.186700  0.586400  1.0
  H  H689  1  0.186700  0.244700  0.586400  1.0
  H  H690  1  0.244700  0.982200  0.586400  1.0
  H  H691  1  0.686700  0.482200  0.086400  1.0
  H  H692  1  0.744700  0.686700  0.086400  1.0
  H  H693  1  0.482200  0.744700  0.086400  1.0
  H  H694  1  0.017800  0.813300  0.413600  1.0
  H  H695  1  0.813300  0.755300  0.413600  1.0
  H  H696  1  0.755300  0.017800  0.413600  1.0
  H  H697  1  0.237600  0.638300  0.848200  1.0
  H  H698  1  0.275900  0.237600  0.848200  1.0
  H  H699  1  0.638300  0.275900  0.848200  1.0
  H  H700  1  0.861700  0.262400  0.651800  1.0
  H  H701  1  0.262400  0.224100  0.651800  1.0
  H  H702  1  0.224100  0.861700  0.651800  1.0
  H  H703  1  0.762400  0.361700  0.151800  1.0
  H  H704  1  0.724100  0.762400  0.151800  1.0
  H  H705  1  0.361700  0.724100  0.151800  1.0
  H  H706  1  0.138300  0.737600  0.348200  1.0
  H  H707  1  0.737600  0.775900  0.348200  1.0
  H  H708  1  0.775900  0.138300  0.348200  1.0
  H  H709  1  0.307800  0.648100  0.809500  1.0
  H  H710  1  0.234600  0.307800  0.809500  1.0
  H  H711  1  0.648100  0.234600  0.809500  1.0
  H  H712  1  0.851900  0.192200  0.690500  1.0
  H  H713  1  0.192200  0.265400  0.690500  1.0
  H  H714  1  0.265400  0.851900  0.690500  1.0
  H  H715  1  0.692200  0.351900  0.190500  1.0
  H  H716  1  0.765400  0.692200  0.190500  1.0
  H  H717  1  0.351900  0.765400  0.190500  1.0
  H  H718  1  0.148100  0.807800  0.309500  1.0
  H  H719  1  0.807800  0.734600  0.309500  1.0
  H  H720  1  0.734600  0.148100  0.309500  1.0
  H  H721  1  0.590300  0.442100  0.982900  1.0
  H  H722  1  0.984700  0.590300  0.982900  1.0
  H  H723  1  0.442100  0.984700  0.982900  1.0
  H  H724  1  0.057900  0.909700  0.517100  1.0
  H  H725  1  0.909700  0.515300  0.517100  1.0
  H  H726  1  0.515300  0.057900  0.517100  1.0
  H  H727  1  0.409700  0.557900  0.017100  1.0
  H  H728  1  0.015300  0.409700  0.017100  1.0
  H  H729  1  0.557900  0.015300  0.017100  1.0
  H  H730  1  0.942100  0.090300  0.482900  1.0
  H  H731  1  0.090300  0.484700  0.482900  1.0
  H  H732  1  0.484700  0.942100  0.482900  1.0
  H  H733  1  0.574100  0.487300  0.020700  1.0
  H  H734  1  0.917900  0.574100  0.020700  1.0
  H  H735  1  0.487300  0.917900  0.020700  1.0
  H  H736  1  0.012700  0.925900  0.479300  1.0
  H  H737  1  0.925900  0.582100  0.479300  1.0
  H  H738  1  0.582100  0.012700  0.479300  1.0
  H  H739  1  0.425900  0.512700  0.979300  1.0
  H  H740  1  0.082100  0.425900  0.979300  1.0
  H  H741  1  0.512700  0.082100  0.979300  1.0
  H  H742  1  0.987300  0.074100  0.520700  1.0
  H  H743  1  0.074100  0.417900  0.520700  1.0
  H  H744  1  0.417900  0.987300  0.520700  1.0
  H  H745  1  0.513100  0.489300  0.075600  1.0
  H  H746  1  0.922000  0.513100  0.075600  1.0
  H  H747  1  0.489300  0.922000  0.075600  1.0
  H  H748  1  0.010700  0.986900  0.424400  1.0
  H  H749  1  0.986900  0.578000  0.424400  1.0
  H  H750  1  0.578000  0.010700  0.424400  1.0
  H  H751  1  0.486900  0.510700  0.924400  1.0
  H  H752  1  0.078000  0.486900  0.924400  1.0
  H  H753  1  0.510700  0.078000  0.924400  1.0
  H  H754  1  0.989300  0.013100  0.575600  1.0
  H  H755  1  0.013100  0.422000  0.575600  1.0
  H  H756  1  0.422000  0.989300  0.575600  1.0
  H  H757  1  0.475000  0.412100  0.050400  1.0
  H  H758  1  0.062500  0.475000  0.050400  1.0
  H  H759  1  0.412100  0.062500  0.050400  1.0
  H  H760  1  0.087900  0.025000  0.449600  1.0
  H  H761  1  0.025000  0.437500  0.449600  1.0
  H  H762  1  0.437500  0.087900  0.449600  1.0
  H  H763  1  0.525000  0.587900  0.949600  1.0
  H  H764  1  0.937500  0.525000  0.949600  1.0
  H  H765  1  0.587900  0.937500  0.949600  1.0
  H  H766  1  0.912100  0.975000  0.550400  1.0
  H  H767  1  0.975000  0.562500  0.550400  1.0
  H  H768  1  0.562500  0.912100  0.550400  1.0
  H  H769  1  0.429900  0.524400  0.098700  1.0
  H  H770  1  0.947000  0.429900  0.098700  1.0
  H  H771  1  0.524400  0.947000  0.098700  1.0
  H  H772  1  0.975600  0.070100  0.401300  1.0
  H  H773  1  0.070100  0.553000  0.401300  1.0
  H  H774  1  0.553000  0.975600  0.401300  1.0
  H  H775  1  0.570100  0.475600  0.901300  1.0
  H  H776  1  0.053000  0.570100  0.901300  1.0
  H  H777  1  0.475600  0.053000  0.901300  1.0
  H  H778  1  0.024400  0.929900  0.598700  1.0
  H  H779  1  0.929900  0.447000  0.598700  1.0
  H  H780  1  0.447000  0.024400  0.598700  1.0
  H  H781  1  0.362300  0.533600  0.149400  1.0
  H  H782  1  0.954700  0.362300  0.149400  1.0
  H  H783  1  0.533600  0.954700  0.149400  1.0
  H  H784  1  0.966400  0.137700  0.350600  1.0
  H  H785  1  0.137700  0.545300  0.350600  1.0
  H  H786  1  0.545300  0.966400  0.350600  1.0
  H  H787  1  0.637700  0.466400  0.850600  1.0
  H  H788  1  0.045300  0.637700  0.850600  1.0
  H  H789  1  0.466400  0.045300  0.850600  1.0
  H  H790  1  0.033600  0.862300  0.649400  1.0
  H  H791  1  0.862300  0.454700  0.649400  1.0
  H  H792  1  0.454700  0.033600  0.649400  1.0
  H  H793  1  0.383500  0.398100  0.166800  1.0
  H  H794  1  0.051600  0.383500  0.166800  1.0
  H  H795  1  0.398100  0.051600  0.166800  1.0
  H  H796  1  0.101900  0.116500  0.333200  1.0
  H  H797  1  0.116500  0.448400  0.333200  1.0
  H  H798  1  0.448400  0.101900  0.333200  1.0
  H  H799  1  0.616500  0.601900  0.833200  1.0
  H  H800  1  0.948400  0.616500  0.833200  1.0
  H  H801  1  0.601900  0.948400  0.833200  1.0
  H  H802  1  0.898100  0.883500  0.666800  1.0
  H  H803  1  0.883500  0.551600  0.666800  1.0
  H  H804  1  0.551600  0.898100  0.666800  1.0
  H  H805  1  0.448800  0.391200  0.115500  1.0
  H  H806  1  0.044500  0.448800  0.115500  1.0
  H  H807  1  0.391200  0.044500  0.115500  1.0
  H  H808  1  0.108800  0.051200  0.384500  1.0
  H  H809  1  0.051200  0.455500  0.384500  1.0
  H  H810  1  0.455500  0.108800  0.384500  1.0
  H  H811  1  0.551200  0.608800  0.884500  1.0
  H  H812  1  0.955500  0.551200  0.884500  1.0
  H  H813  1  0.608800  0.955500  0.884500  1.0
  H  H814  1  0.891200  0.948800  0.615500  1.0
  H  H815  1  0.948800  0.544500  0.615500  1.0
  H  H816  1  0.544500  0.891200  0.615500  1.0
  H  H817  1  0.697300  0.228700  0.982900  1.0
  H  H818  1  0.091100  0.697300  0.982900  1.0
  H  H819  1  0.228700  0.091100  0.982900  1.0
  H  H820  1  0.271300  0.802700  0.517100  1.0
  H  H821  1  0.802700  0.408900  0.517100  1.0
  H  H822  1  0.408900  0.271300  0.517100  1.0
  H  H823  1  0.302700  0.771300  0.017100  1.0
  H  H824  1  0.908900  0.302700  0.017100  1.0
  H  H825  1  0.771300  0.908900  0.017100  1.0
  H  H826  1  0.728700  0.197300  0.482900  1.0
  H  H827  1  0.197300  0.591100  0.482900  1.0
  H  H828  1  0.591100  0.728700  0.482900  1.0
  H  H829  1  0.736900  0.171100  0.029400  1.0
  H  H830  1  0.062600  0.736900  0.029400  1.0
  H  H831  1  0.171100  0.062600  0.029400  1.0
  H  H832  1  0.328900  0.763100  0.470600  1.0
  H  H833  1  0.763100  0.437400  0.470600  1.0
  H  H834  1  0.437400  0.328900  0.470600  1.0
  H  H835  1  0.263100  0.828900  0.970600  1.0
  H  H836  1  0.937400  0.263100  0.970600  1.0
  H  H837  1  0.828900  0.937400  0.970600  1.0
  H  H838  1  0.671100  0.236900  0.529400  1.0
  H  H839  1  0.236900  0.562600  0.529400  1.0
  H  H840  1  0.562600  0.671100  0.529400  1.0
  H  H841  1  0.692500  0.141400  0.089700  1.0
  H  H842  1  0.076400  0.692500  0.089700  1.0
  H  H843  1  0.141400  0.076400  0.089700  1.0
  H  H844  1  0.358600  0.807500  0.410300  1.0
  H  H845  1  0.807500  0.423600  0.410300  1.0
  H  H846  1  0.423600  0.358600  0.410300  1.0
  H  H847  1  0.307500  0.858600  0.910300  1.0
  H  H848  1  0.923600  0.307500  0.910300  1.0
  H  H849  1  0.858600  0.923600  0.910300  1.0
  H  H850  1  0.641400  0.192500  0.589700  1.0
  H  H851  1  0.192500  0.576400  0.589700  1.0
  H  H852  1  0.576400  0.641400  0.589700  1.0
  H  H853  1  0.575200  0.214300  0.053400  1.0
  H  H854  1  0.157100  0.575200  0.053400  1.0
  H  H855  1  0.214300  0.157100  0.053400  1.0
  H  H856  1  0.285700  0.924800  0.446600  1.0
  H  H857  1  0.924800  0.342900  0.446600  1.0
  H  H858  1  0.342900  0.285700  0.446600  1.0
  H  H859  1  0.424800  0.785700  0.946600  1.0
  H  H860  1  0.842900  0.424800  0.946600  1.0
  H  H861  1  0.785700  0.842900  0.946600  1.0
  H  H862  1  0.714300  0.075200  0.553400  1.0
  H  H863  1  0.075200  0.657100  0.553400  1.0
  H  H864  1  0.657100  0.714300  0.553400  1.0
  H  H865  1  0.661600  0.089300  0.124200  1.0
  H  H866  1  0.124900  0.661600  0.124200  1.0
  H  H867  1  0.089300  0.124900  0.124200  1.0
  H  H868  1  0.410700  0.838400  0.375800  1.0
  H  H869  1  0.838400  0.375100  0.375800  1.0
  H  H870  1  0.375100  0.410700  0.375800  1.0
  H  H871  1  0.338400  0.910700  0.875800  1.0
  H  H872  1  0.875100  0.338400  0.875800  1.0
  H  H873  1  0.910700  0.875100  0.875800  1.0
  H  H874  1  0.589300  0.161600  0.624200  1.0
  H  H875  1  0.161600  0.624900  0.624200  1.0
  H  H876  1  0.624900  0.589300  0.624200  1.0
  H  H877  1  0.621500  0.045400  0.172500  1.0
  H  H878  1  0.160600  0.621500  0.172500  1.0
  H  H879  1  0.045400  0.160600  0.172500  1.0
  H  H880  1  0.454600  0.878500  0.327500  1.0
  H  H881  1  0.878500  0.339400  0.327500  1.0
  H  H882  1  0.339400  0.454600  0.327500  1.0
  H  H883  1  0.378500  0.954600  0.827500  1.0
  H  H884  1  0.839400  0.378500  0.827500  1.0
  H  H885  1  0.954600  0.839400  0.827500  1.0
  H  H886  1  0.545400  0.121500  0.672500  1.0
  H  H887  1  0.121500  0.660600  0.672500  1.0
  H  H888  1  0.660600  0.545400  0.672500  1.0
  H  H889  1  0.501100  0.154600  0.162900  1.0
  H  H890  1  0.181400  0.501100  0.162900  1.0
  H  H891  1  0.154600  0.181400  0.162900  1.0
  H  H892  1  0.345400  0.998900  0.337100  1.0
  H  H893  1  0.998900  0.318600  0.337100  1.0
  H  H894  1  0.318600  0.345400  0.337100  1.0
  H  H895  1  0.498900  0.845400  0.837100  1.0
  H  H896  1  0.818600  0.498900  0.837100  1.0
  H  H897  1  0.845400  0.818600  0.837100  1.0
  H  H898  1  0.654600  0.001100  0.662900  1.0
  H  H899  1  0.001100  0.681400  0.662900  1.0
  H  H900  1  0.681400  0.654600  0.662900  1.0
  H  H901  1  0.540200  0.194100  0.109500  1.0
  H  H902  1  0.156200  0.540200  0.109500  1.0
  H  H903  1  0.194100  0.156200  0.109500  1.0
  H  H904  1  0.305900  0.959800  0.390500  1.0
  H  H905  1  0.959800  0.343800  0.390500  1.0
  H  H906  1  0.343800  0.305900  0.390500  1.0
  H  H907  1  0.459800  0.805900  0.890500  1.0
  H  H908  1  0.843800  0.459800  0.890500  1.0
  H  H909  1  0.805900  0.843800  0.890500  1.0
  H  H910  1  0.694100  0.040200  0.609500  1.0
  H  H911  1  0.040200  0.656200  0.609500  1.0
  H  H912  1  0.656200  0.694100  0.609500  1.0
  H  H913  1  0.693400  0.263700  0.926800  1.0
  H  H914  1  0.116100  0.693400  0.926800  1.0
  H  H915  1  0.263700  0.116100  0.926800  1.0
  H  H916  1  0.236300  0.806600  0.573200  1.0
  H  H917  1  0.806600  0.383900  0.573200  1.0
  H  H918  1  0.383900  0.236300  0.573200  1.0
  H  H919  1  0.306600  0.736300  0.073200  1.0
  H  H920  1  0.883900  0.306600  0.073200  1.0
  H  H921  1  0.736300  0.883900  0.073200  1.0
  H  H922  1  0.763700  0.193400  0.426800  1.0
  H  H923  1  0.193400  0.616100  0.426800  1.0
  H  H924  1  0.616100  0.763700  0.426800  1.0
  H  H925  1  0.747500  0.258600  0.906700  1.0
  H  H926  1  0.087200  0.747500  0.906700  1.0
  H  H927  1  0.258600  0.087200  0.906700  1.0
  H  H928  1  0.241400  0.752500  0.593300  1.0
  H  H929  1  0.752500  0.412800  0.593300  1.0
  H  H930  1  0.412800  0.241400  0.593300  1.0
  H  H931  1  0.252500  0.741400  0.093300  1.0
  H  H932  1  0.912800  0.252500  0.093300  1.0
  H  H933  1  0.741400  0.912800  0.093300  1.0
  H  H934  1  0.758600  0.247500  0.406700  1.0
  H  H935  1  0.247500  0.587200  0.406700  1.0
  H  H936  1  0.587200  0.758600  0.406700  1.0
  H  H937  1  0.714200  0.267900  0.883000  1.0
  H  H938  1  0.134900  0.714200  0.883000  1.0
  H  H939  1  0.267900  0.134900  0.883000  1.0
  H  H940  1  0.232100  0.785800  0.617000  1.0
  H  H941  1  0.785800  0.365100  0.617000  1.0
  H  H942  1  0.365100  0.232100  0.617000  1.0
  H  H943  1  0.285800  0.732100  0.117000  1.0
  H  H944  1  0.865100  0.285800  0.117000  1.0
  H  H945  1  0.732100  0.865100  0.117000  1.0
  H  H946  1  0.767900  0.214200  0.383000  1.0
  H  H947  1  0.214200  0.634900  0.383000  1.0
  H  H948  1  0.634900  0.767900  0.383000  1.0
  H  H949  1  0.786800  0.258500  0.911200  1.0
  H  H950  1  0.043500  0.786800  0.911200  1.0
  H  H951  1  0.258500  0.043500  0.911200  1.0
  H  H952  1  0.241500  0.713200  0.588800  1.0
  H  H953  1  0.713200  0.456500  0.588800  1.0
  H  H954  1  0.456500  0.241500  0.588800  1.0
  H  H955  1  0.213200  0.741500  0.088800  1.0
  H  H956  1  0.956500  0.213200  0.088800  1.0
  H  H957  1  0.741500  0.956500  0.088800  1.0
  H  H958  1  0.758500  0.286800  0.411200  1.0
  H  H959  1  0.286800  0.543500  0.411200  1.0
  H  H960  1  0.543500  0.758500  0.411200  1.0
  H  H961  1  0.812000  0.294700  0.896800  1.0
  H  H962  1  0.996500  0.812000  0.896800  1.0
  H  H963  1  0.294700  0.996500  0.896800  1.0
  H  H964  1  0.205300  0.688000  0.603200  1.0
  H  H965  1  0.688000  0.503500  0.603200  1.0
  H  H966  1  0.503500  0.205300  0.603200  1.0
  H  H967  1  0.188000  0.705300  0.103200  1.0
  H  H968  1  0.003500  0.188000  0.103200  1.0
  H  H969  1  0.705300  0.003500  0.103200  1.0
  H  H970  1  0.794700  0.312000  0.396800  1.0
  H  H971  1  0.312000  0.496500  0.396800  1.0
  H  H972  1  0.496500  0.794700  0.396800  1.0
  H  H973  1  0.806900  0.277900  0.867700  1.0
  H  H974  1  0.047500  0.806900  0.867700  1.0
  H  H975  1  0.277900  0.047500  0.867700  1.0
  H  H976  1  0.222100  0.693100  0.632300  1.0
  H  H977  1  0.693100  0.452500  0.632300  1.0
  H  H978  1  0.452500  0.222100  0.632300  1.0
  H  H979  1  0.193100  0.722100  0.132300  1.0
  H  H980  1  0.952500  0.193100  0.132300  1.0
  H  H981  1  0.722100  0.952500  0.132300  1.0
  H  H982  1  0.777900  0.306900  0.367700  1.0
  H  H983  1  0.306900  0.547500  0.367700  1.0
  H  H984  1  0.547500  0.777900  0.367700  1.0
  H  H985  1  0.701700  0.394400  0.870400  1.0
  H  H986  1  0.033500  0.701700  0.870400  1.0
  H  H987  1  0.394400  0.033500  0.870400  1.0
  H  H988  1  0.105600  0.798300  0.629600  1.0
  H  H989  1  0.798300  0.466500  0.629600  1.0
  H  H990  1  0.466500  0.105600  0.629600  1.0
  H  H991  1  0.298300  0.605600  0.129600  1.0
  H  H992  1  0.966500  0.298300  0.129600  1.0
  H  H993  1  0.605600  0.966500  0.129600  1.0
  H  H994  1  0.894400  0.201700  0.370400  1.0
  H  H995  1  0.201700  0.533500  0.370400  1.0
  H  H996  1  0.533500  0.894400  0.370400  1.0
  H  H997  1  0.753600  0.388800  0.866800  1.0
  H  H998  1  0.990800  0.753600  0.866800  1.0
  H  H999  1  0.388800  0.990800  0.866800  1.0
  H  H1000  1  0.111200  0.746400  0.633200  1.0
  H  H1001  1  0.746400  0.509200  0.633200  1.0
  H  H1002  1  0.509200  0.111200  0.633200  1.0
  H  H1003  1  0.246400  0.611200  0.133200  1.0
  H  H1004  1  0.009200  0.246400  0.133200  1.0
  H  H1005  1  0.611200  0.009200  0.133200  1.0
  H  H1006  1  0.888800  0.253600  0.366800  1.0
  H  H1007  1  0.253600  0.490800  0.366800  1.0
  H  H1008  1  0.490800  0.888800  0.366800  1.0
  H  H1009  1  0.715400  0.387100  0.906400  1.0
  H  H1010  1  0.991100  0.715400  0.906400  1.0
  H  H1011  1  0.387100  0.991100  0.906400  1.0
  H  H1012  1  0.112900  0.784600  0.593600  1.0
  H  H1013  1  0.784600  0.508900  0.593600  1.0
  H  H1014  1  0.508900  0.112900  0.593600  1.0
  H  H1015  1  0.284600  0.612900  0.093600  1.0
  H  H1016  1  0.008900  0.284600  0.093600  1.0
  H  H1017  1  0.612900  0.008900  0.093600  1.0
  H  H1018  1  0.887100  0.215400  0.406400  1.0
  H  H1019  1  0.215400  0.491100  0.406400  1.0
  H  H1020  1  0.491100  0.887100  0.406400  1.0
  N  N1021  1  0.396660  0.586860  0.819430  1.0
  N  N1022  1  0.197050  0.396660  0.819430  1.0
  N  N1023  1  0.586860  0.197050  0.819430  1.0
  N  N1024  1  0.913140  0.103340  0.680570  1.0
  N  N1025  1  0.103340  0.302950  0.680570  1.0
  N  N1026  1  0.302950  0.913140  0.680570  1.0
  N  N1027  1  0.603340  0.413140  0.180570  1.0
  N  N1028  1  0.802950  0.603340  0.180570  1.0
  N  N1029  1  0.413140  0.802950  0.180570  1.0
  N  N1030  1  0.086860  0.896660  0.319430  1.0
  N  N1031  1  0.896660  0.697050  0.319430  1.0
  N  N1032  1  0.697050  0.086860  0.319430  1.0
  N  N1033  1  0.745054  0.326694  0.890188  1.0
  N  N1034  1  0.038064  0.745054  0.890188  1.0
  N  N1035  1  0.326694  0.038064  0.890188  1.0
  N  N1036  1  0.173306  0.754946  0.609812  1.0
  N  N1037  1  0.754946  0.461936  0.609812  1.0
  N  N1038  1  0.461936  0.173306  0.609812  1.0
  N  N1039  1  0.254946  0.673306  0.109812  1.0
  N  N1040  1  0.961936  0.254946  0.109812  1.0
  N  N1041  1  0.673306  0.961936  0.109812  1.0
  N  N1042  1  0.826694  0.245054  0.390188  1.0
  N  N1043  1  0.245054  0.538064  0.390188  1.0
  N  N1044  1  0.538064  0.826694  0.390188  1.0
  O  O1045  1  0.249989  0.584212  0.250033  1.0
  O  O1046  1  0.915766  0.249989  0.250033  1.0
  O  O1047  1  0.584212  0.915766  0.250033  1.0
  O  O1048  1  0.750011  0.415788  0.749967  1.0
  O  O1049  1  0.084234  0.750011  0.749967  1.0
  O  O1050  1  0.415788  0.084234  0.749967  1.0
  O  O1051  1  0.249989  0.379032  0.250033  1.0
  O  O1052  1  0.120946  0.249989  0.250033  1.0
  O  O1053  1  0.379032  0.120946  0.250033  1.0
  O  O1054  1  0.750011  0.620968  0.749967  1.0
  O  O1055  1  0.879054  0.750011  0.749967  1.0
  O  O1056  1  0.620968  0.879054  0.749967  1.0
  O  O1057  1  0.552941  0.409211  0.897457  1.0
  O  O1058  1  0.140391  0.552941  0.897457  1.0
  O  O1059  1  0.409211  0.140391  0.897457  1.0
  O  O1060  1  0.090789  0.947059  0.602543  1.0
  O  O1061  1  0.947059  0.359609  0.602543  1.0
  O  O1062  1  0.359609  0.090789  0.602543  1.0
  O  O1063  1  0.447059  0.590789  0.102543  1.0
  O  O1064  1  0.859609  0.447059  0.102543  1.0
  O  O1065  1  0.590789  0.859609  0.102543  1.0
  O  O1066  1  0.909211  0.052941  0.397457  1.0
  O  O1067  1  0.052941  0.640391  0.397457  1.0
  O  O1068  1  0.640391  0.909211  0.397457  1.0
  O  O1069  1  0.484494  0.399854  0.934318  1.0
  O  O1070  1  0.181334  0.484494  0.934318  1.0
  O  O1071  1  0.399854  0.181334  0.934318  1.0
  O  O1072  1  0.100146  0.015506  0.565682  1.0
  O  O1073  1  0.015506  0.318666  0.565682  1.0
  O  O1074  1  0.318666  0.100146  0.565682  1.0
  O  O1075  1  0.515506  0.600146  0.065682  1.0
  O  O1076  1  0.818666  0.515506  0.065682  1.0
  O  O1077  1  0.600146  0.818666  0.065682  1.0
  O  O1078  1  0.899854  0.984494  0.434318  1.0
  O  O1079  1  0.984494  0.681334  0.434318  1.0
  O  O1080  1  0.681334  0.899854  0.434318  1.0
  O  O1081  1  0.576163  0.393523  0.960211  1.0
  O  O1082  1  0.070103  0.576163  0.960211  1.0
  O  O1083  1  0.393523  0.070103  0.960211  1.0
  O  O1084  1  0.106477  0.923837  0.539789  1.0
  O  O1085  1  0.923837  0.429897  0.539789  1.0
  O  O1086  1  0.429897  0.106477  0.539789  1.0
  O  O1087  1  0.423837  0.606477  0.039789  1.0
  O  O1088  1  0.929897  0.423837  0.039789  1.0
  O  O1089  1  0.606477  0.929897  0.039789  1.0
  O  O1090  1  0.893523  0.076163  0.460211  1.0
  O  O1091  1  0.076163  0.570103  0.460211  1.0
  O  O1092  1  0.570103  0.893523  0.460211  1.0
  O  O1093  1  0.511047  0.377867  0.998479  1.0
  O  O1094  1  0.112607  0.511047  0.998479  1.0
  O  O1095  1  0.377867  0.112607  0.998479  1.0
  O  O1096  1  0.122133  0.988953  0.501521  1.0
  O  O1097  1  0.988953  0.387393  0.501521  1.0
  O  O1098  1  0.387393  0.122133  0.501521  1.0
  O  O1099  1  0.488953  0.622133  0.001521  1.0
  O  O1100  1  0.887393  0.488953  0.001521  1.0
  O  O1101  1  0.622133  0.887393  0.001521  1.0
  O  O1102  1  0.877867  0.011047  0.498479  1.0
  O  O1103  1  0.011047  0.612607  0.498479  1.0
  O  O1104  1  0.612607  0.877867  0.498479  1.0
  O  O1105  1  0.625520  0.297160  0.963100  1.0
  O  O1106  1  0.114220  0.625520  0.963100  1.0
  O  O1107  1  0.297160  0.114220  0.963100  1.0
  O  O1108  1  0.202840  0.874480  0.536900  1.0
  O  O1109  1  0.874480  0.385780  0.536900  1.0
  O  O1110  1  0.385780  0.202840  0.536900  1.0
  O  O1111  1  0.374480  0.702840  0.036900  1.0
  O  O1112  1  0.885780  0.374480  0.036900  1.0
  O  O1113  1  0.702840  0.885780  0.036900  1.0
  O  O1114  1  0.797160  0.125520  0.463100  1.0
  O  O1115  1  0.125520  0.614220  0.463100  1.0
  O  O1116  1  0.614220  0.797160  0.463100  1.0
  O  O1117  1  0.559014  0.282714  0.998008  1.0
  O  O1118  1  0.160264  0.559014  0.998008  1.0
  O  O1119  1  0.282714  0.160264  0.998008  1.0
  O  O1120  1  0.217286  0.940986  0.501992  1.0
  O  O1121  1  0.940986  0.339736  0.501992  1.0
  O  O1122  1  0.339736  0.217286  0.501992  1.0
  O  O1123  1  0.440986  0.717286  0.001992  1.0
  O  O1124  1  0.839736  0.440986  0.001992  1.0
  O  O1125  1  0.717286  0.839736  0.001992  1.0
  O  O1126  1  0.782714  0.059014  0.498008  1.0
  O  O1127  1  0.059014  0.660264  0.498008  1.0
  O  O1128  1  0.660264  0.782714  0.498008  1.0
  O  O1129  1  0.206970  0.551980  0.217080  1.0
  O  O1130  1  0.023970  0.206970  0.217080  1.0
  O  O1131  1  0.551980  0.023970  0.217080  1.0
  O  O1132  1  0.948020  0.293030  0.282920  1.0
  O  O1133  1  0.293030  0.476030  0.282920  1.0
  O  O1134  1  0.476030  0.948020  0.282920  1.0
  O  O1135  1  0.793030  0.448020  0.782920  1.0
  O  O1136  1  0.976030  0.793030  0.782920  1.0
  O  O1137  1  0.448020  0.976030  0.782920  1.0
  O  O1138  1  0.051980  0.706970  0.717080  1.0
  O  O1139  1  0.706970  0.523970  0.717080  1.0
  O  O1140  1  0.523970  0.051980  0.717080  1.0
  O  O1141  1  0.217700  0.483640  0.210390  1.0
  O  O1142  1  0.088270  0.217700  0.210390  1.0
  O  O1143  1  0.483640  0.088270  0.210390  1.0
  O  O1144  1  0.016360  0.282300  0.289610  1.0
  O  O1145  1  0.282300  0.411730  0.289610  1.0
  O  O1146  1  0.411730  0.016360  0.289610  1.0
  O  O1147  1  0.782300  0.516360  0.789610  1.0
  O  O1148  1  0.911730  0.782300  0.789610  1.0
  O  O1149  1  0.516360  0.911730  0.789610  1.0
  O  O1150  1  0.983640  0.717700  0.710390  1.0
  O  O1151  1  0.717700  0.588270  0.710390  1.0
  O  O1152  1  0.588270  0.983640  0.710390  1.0
  O  O1153  1  0.304310  0.509620  0.206220  1.0
  O  O1154  1  0.979850  0.304310  0.206220  1.0
  O  O1155  1  0.509620  0.979850  0.206220  1.0
  O  O1156  1  0.990380  0.195690  0.293780  1.0
  O  O1157  1  0.195690  0.520150  0.293780  1.0
  O  O1158  1  0.520150  0.990380  0.293780  1.0
  O  O1159  1  0.695690  0.490380  0.793780  1.0
  O  O1160  1  0.020150  0.695690  0.793780  1.0
  O  O1161  1  0.490380  0.020150  0.793780  1.0
  O  O1162  1  0.009620  0.804310  0.706220  1.0
  O  O1163  1  0.804310  0.479850  0.706220  1.0
  O  O1164  1  0.479850  0.009620  0.706220  1.0
  O  O1165  1  0.312134  0.436794  0.213018  1.0
  O  O1166  1  0.038054  0.312134  0.213018  1.0
  O  O1167  1  0.436794  0.038054  0.213018  1.0
  O  O1168  1  0.063206  0.187866  0.286982  1.0
  O  O1169  1  0.187866  0.461946  0.286982  1.0
  O  O1170  1  0.461946  0.063206  0.286982  1.0
  O  O1171  1  0.687866  0.563206  0.786982  1.0
  O  O1172  1  0.961946  0.687866  0.786982  1.0
  O  O1173  1  0.563206  0.961946  0.786982  1.0
  O  O1174  1  0.936794  0.812134  0.713018  1.0
  O  O1175  1  0.812134  0.538054  0.713018  1.0
  O  O1176  1  0.538054  0.936794  0.713018  1.0
  O  O1177  1  0.600430  0.313680  0.899890  1.0
  O  O1178  1  0.186000  0.600430  0.899890  1.0
  O  O1179  1  0.313680  0.186000  0.899890  1.0
  O  O1180  1  0.186320  0.899570  0.600110  1.0
  O  O1181  1  0.899570  0.314000  0.600110  1.0
  O  O1182  1  0.314000  0.186320  0.600110  1.0
  O  O1183  1  0.399570  0.686320  0.100110  1.0
  O  O1184  1  0.814000  0.399570  0.100110  1.0
  O  O1185  1  0.686320  0.814000  0.100110  1.0
  O  O1186  1  0.813680  0.100430  0.399890  1.0
  O  O1187  1  0.100430  0.686000  0.399890  1.0
  O  O1188  1  0.686000  0.813680  0.399890  1.0
  O  O1189  1  0.531940  0.303080  0.935290  1.0
  O  O1190  1  0.229690  0.531940  0.935290  1.0
  O  O1191  1  0.303080  0.229690  0.935290  1.0
  O  O1192  1  0.196920  0.968060  0.564710  1.0
  O  O1193  1  0.968060  0.270310  0.564710  1.0
  O  O1194  1  0.270310  0.196920  0.564710  1.0
  O  O1195  1  0.468060  0.696920  0.064710  1.0
  O  O1196  1  0.770310  0.468060  0.064710  1.0
  O  O1197  1  0.696920  0.770310  0.064710  1.0
  O  O1198  1  0.803080  0.031940  0.435290  1.0
  O  O1199  1  0.031940  0.729690  0.435290  1.0
  O  O1200  1  0.729690  0.803080  0.435290  1.0
  O  O1201  1  0.658170  0.364850  0.894640  1.0
  O  O1202  1  0.082340  0.658170  0.894640  1.0
  O  O1203  1  0.364850  0.082340  0.894640  1.0
  O  O1204  1  0.135150  0.841830  0.605360  1.0
  O  O1205  1  0.841830  0.417660  0.605360  1.0
  O  O1206  1  0.417660  0.135150  0.605360  1.0
  O  O1207  1  0.341830  0.635150  0.105360  1.0
  O  O1208  1  0.917660  0.341830  0.105360  1.0
  O  O1209  1  0.635150  0.917660  0.105360  1.0
  O  O1210  1  0.864850  0.158170  0.394640  1.0
  O  O1211  1  0.158170  0.582340  0.394640  1.0
  O  O1212  1  0.582340  0.864850  0.394640  1.0
  O  O1213  1  0.453530  0.326920  0.005130  1.0
  O  O1214  1  0.214420  0.453530  0.005130  1.0
  O  O1215  1  0.326920  0.214420  0.005130  1.0
  O  O1216  1  0.173080  0.046470  0.494870  1.0
  O  O1217  1  0.046470  0.285580  0.494870  1.0
  O  O1218  1  0.285580  0.173080  0.494870  1.0
  O  O1219  1  0.546470  0.673080  0.994870  1.0
  O  O1220  1  0.785580  0.546470  0.994870  1.0
  O  O1221  1  0.673080  0.785580  0.994870  1.0
  O  O1222  1  0.826920  0.953530  0.505130  1.0
  O  O1223  1  0.953530  0.714420  0.505130  1.0
  O  O1224  1  0.714420  0.826920  0.505130  1.0
