
#######################################################################
#
#                 Cambridge Crystallographic Data Centre
#                                CCDC 
#
#######################################################################
#
# If this CIF has been generated from an entry in the Cambridge 
# Structural Database, then it will include bibliographic, chemical, 
# crystal, experimental, refinement or atomic coordinate data resulting 
# from the CCDC's data processing and validation procedures.
#
#######################################################################

data_QUMGAG
_chemical_formula_moiety         
'C112 H80 N8 Pd2 4+,4(N1 O3 1-),9(C2 H6 O1 S1),2(C4 H10 O1)'
_chemical_name_systematic        
"tetrakis(\m~2~-1,3-bis(3-(4'-pyridyl)phenyl)benzene-N,N')-di-palladium(ii) tetranitrate dimethylsulfoxide diethyl ether solvate"
_symmetry_cell_setting           monoclinic
_symmetry_space_group_name_H-M   'C 2/c'
_symmetry_Int_Tables_number      15
_space_group_name_Hall           '-C 2yn'
loop_
_symmetry_equiv_pos_site_id
_symmetry_equiv_pos_as_xyz
1 x,y,z
2 1/2+x,1/2+y,z
3 x,-y,1/2+z
4 1/2+x,1/2-y,1/2+z
5 -x,-y,-z
6 1/2-x,1/2-y,-z
7 -x,y,1/2-z
8 1/2-x,1/2+y,1/2-z
_cell_length_a                   23.510(4)
_cell_length_b                   22.229(3)
_cell_length_c                   27.394(5)
_cell_angle_alpha                90.00
_cell_angle_beta                 104.216(3)
_cell_angle_gamma                90.00
_cell_volume                     13877.8
_exptl_crystal_description       needle
_cell_formula_units_Z            4
loop_
_atom_site_label
_atom_site_type_symbol
_atom_site_fract_x
_atom_site_fract_y
_atom_site_fract_z
Pd1 Pd 0.37010(3) 0.13087(3) -0.00175(2)
N1 N 0.3380(3) 0.0766(3) 0.0445(3)
C1 C 0.3734(4) 0.0406(4) 0.0782(3)
H1 H 0.4142 0.0407 0.0797
C2 C 0.3538(4) 0.0040(4) 0.1103(3)
H2 H 0.3810 -0.0182 0.1351
C3 C 0.2941(4) -0.0011(4) 0.1069(3)
C4 C 0.2569(4) 0.0356(4) 0.0728(4)
H3 H 0.2158 0.0349 0.0699
C5 C 0.2806(4) 0.0731(4) 0.0430(3)
H4 H 0.2545 0.0982 0.0198
C6 C 0.2715(4) -0.0432(4) 0.1398(3)
C7 C 0.3047(4) -0.0938(4) 0.1606(3)
H5 H 0.3419 -0.1006 0.1538
C8 C 0.2841(4) -0.1339(4) 0.1908(3)
C9 C 0.2279(4) -0.1233(4) 0.1989(3)
H6 H 0.2128 -0.1505 0.2194
C10 C 0.1943(4) -0.0751(5) 0.1780(4)
H7 H 0.1563 -0.0694 0.1836
C11 C 0.2165(4) -0.0348(4) 0.1487(3)
H8 H 0.1937 -0.0010 0.1346
C12 C 0.3201(4) -0.1865(4) 0.2135(3)
C13 C 0.3577(4) -0.2161(4) 0.1894(3)
H9 H 0.3608 -0.2017 0.1575
C14 C 0.3910(4) -0.2659(4) 0.2098(3)
C15 C 0.3884(4) -0.2852(4) 0.2569(3)
H10 H 0.4115 -0.3185 0.2719
C16 C 0.3526(5) -0.2566(5) 0.2824(4)
H11 H 0.3512 -0.2703 0.3149
C17 C 0.3188(5) -0.2084(5) 0.2615(4)
H12 H 0.2941 -0.1895 0.2796
C18 C 0.4311(4) -0.2972(4) 0.1837(3)
C19 C 0.4603(4) -0.2651(4) 0.1536(3)
H13 H 0.4530 -0.2232 0.1490
C20 C 0.4998(4) -0.2922(4) 0.1302(3)
C21 C 0.5099(4) -0.3538(4) 0.1368(3)
H14 H 0.5370 -0.3732 0.1214
C22 C 0.4807(4) -0.3867(4) 0.1656(3)
H15 H 0.4870 -0.4288 0.1694
C23 C 0.4425(4) -0.3585(4) 0.1887(4)
H16 H 0.4232 -0.3817 0.2089
N2 N 0.4073(3) 0.1823(3) -0.0464(2)
C24 C 0.4516(4) 0.1600(4) -0.0630(3)
H17 H 0.4626 0.1193 -0.0559
C25 C 0.4819(4) 0.1939(4) -0.0902(3)
H18 H 0.5127 0.1759 -0.1019
C26 C 0.5318(4) -0.2539(4) 0.1007(3)
C27 C 0.5780(4) -0.2773(4) 0.0828(3)
H19 H 0.5894 -0.3182 0.0889
C28 C 0.3929(4) 0.2405(4) -0.0561(3)
H20 H 0.3615 0.2569 -0.0442
N3 N 0.4248(3) 0.1701(3) 0.0589(2)
C29 C 0.4816(4) 0.1573(4) 0.0695(3)
H21 H 0.4953 0.1292 0.0489
C30 C 0.5212(4) 0.1830(4) 0.1089(3)
H22 H 0.5613 0.1716 0.1156
C31 C 0.5035(4) 0.2255(4) 0.1394(3)
C32 C 0.4450(4) 0.2388(4) 0.1282(4)
H23 H 0.4303 0.2672 0.1480
C33 C 0.4070(4) 0.2108(4) 0.0877(3)
H24 H 0.3666 0.2210 0.0803
C34 C 0.5458(4) 0.2527(5) 0.1828(4)
C35 C 0.5934(4) 0.2210(5) 0.2087(3)
H25 H 0.5998 0.1816 0.1977
C36 C 0.6333(4) 0.2449(5) 0.2513(3)
C37 C 0.6227(5) 0.3047(6) 0.2646(4)
H26 H 0.6499 0.3233 0.2919
C38 C 0.5744(5) 0.3367(5) 0.2394(5)
H27 H 0.5675 0.3759 0.2505
C39 C 0.5364(4) 0.3121(5) 0.1983(4)
H28 H 0.5036 0.3346 0.1802
C40 C 0.6839(5) 0.2064(5) 0.2795(3)
C41 C 0.7563(4) 0.1248(5) 0.2837(3)
C42 C 0.7106(4) 0.1625(4) 0.2571(4)
H29 H 0.6975 0.1574 0.2217
C43 C 0.7760(5) 0.1350(5) 0.3354(4)
H30 H 0.8072 0.1114 0.3546
C44 C 0.7517(5) 0.1779(6) 0.3584(4)
H31 H 0.7668 0.1837 0.3936
C45 C 0.7047(5) 0.2150(6) 0.3327(4)
H32 H 0.6877 0.2442 0.3501
C46 C 0.7802(4) 0.0069(4) 0.1928(3)
C47 C 0.7537(4) 0.0510(4) 0.2165(3)
H33 H 0.7134 0.0603 0.2036
C48 C 0.7860(5) 0.0810(4) 0.2584(4)
C49 C 0.8452(5) 0.0655(5) 0.2772(4)
H34 H 0.8672 0.0845 0.3070
C50 C 0.8721(5) 0.0232(5) 0.2534(4)
H35 H 0.9126 0.0146 0.2661
C51 C 0.8404(5) -0.0067(4) 0.2115(4)
H36 H 0.8588 -0.0360 0.1953
N4 N 0.3206(3) 0.0880(3) -0.0629(3)
C52 C 0.3348(5) 0.0329(5) -0.0741(4)
H37 H 0.3684 0.0143 -0.0531
C53 C 0.3033(5) 0.0023(4) -0.1143(4)
H38 H 0.3148 -0.0377 -0.1194
C54 C 0.7447(4) -0.0261(4) 0.1484(3)
C55 C 0.7575(4) -0.0840(4) 0.1363(4)
H39 H 0.7895 -0.1046 0.1577
C56 C 0.2748(4) 0.1125(4) -0.0945(3)
H40 H 0.2637 0.1521 -0.0876
C25D C 0.5181(4) -0.1939(4) 0.0902(3)
C24D C 0.5484(4) -0.1600(4) 0.0630(3)
N2D N 0.5927(3) -0.1823(3) 0.0464(2)
Pd1D Pd 0.62990(3) -0.13087(3) 0.00175(2)
N1D N 0.6620(3) -0.0766(3) -0.0445(3)
C1D C 0.6266(4) -0.0406(4) -0.0782(3)
H1D H 0.5858 -0.0407 -0.0797
C2D C 0.6462(4) -0.0040(4) -0.1103(3)
H2D H 0.6190 0.0182 -0.1351
C3D C 0.7059(4) 0.0011(4) -0.1069(3)
C4D C 0.7431(4) -0.0356(4) -0.0728(4)
H3D H 0.7842 -0.0349 -0.0699
C5D C 0.7194(4) -0.0731(4) -0.0430(3)
H4D H 0.7455 -0.0982 -0.0198
C6D C 0.7285(4) 0.0432(4) -0.1398(3)
C7D C 0.6953(4) 0.0938(4) -0.1606(3)
H5D H 0.6581 0.1006 -0.1538
C8D C 0.7159(4) 0.1339(4) -0.1908(3)
C9D C 0.7721(4) 0.1233(4) -0.1989(3)
H6D H 0.7872 0.1505 -0.2194
C10D C 0.8057(4) 0.0751(5) -0.1780(4)
H7D H 0.8437 0.0694 -0.1836
C11D C 0.7835(4) 0.0348(4) -0.1487(3)
H8D H 0.8063 0.0010 -0.1346
C12D C 0.6799(4) 0.1865(4) -0.2135(3)
C13D C 0.6423(4) 0.2161(4) -0.1894(3)
H9D H 0.6392 0.2017 -0.1575
C14D C 0.6090(4) 0.2659(4) -0.2098(3)
C15D C 0.6116(4) 0.2852(4) -0.2569(3)
H10D H 0.5885 0.3185 -0.2719
C16D C 0.6474(5) 0.2566(5) -0.2824(4)
H11D H 0.6488 0.2703 -0.3149
C17D C 0.6812(5) 0.2084(5) -0.2615(4)
H12D H 0.7059 0.1895 -0.2796
C18D C 0.5689(4) 0.2972(4) -0.1837(3)
C19D C 0.5397(4) 0.2651(4) -0.1536(3)
H13D H 0.5470 0.2232 -0.1490
C20D C 0.5002(4) 0.2922(4) -0.1302(3)
C21D C 0.4901(4) 0.3538(4) -0.1368(3)
H14D H 0.4630 0.3732 -0.1214
C22D C 0.5193(4) 0.3867(4) -0.1656(3)
H15D H 0.5130 0.4288 -0.1694
C23D C 0.5575(4) 0.3585(4) -0.1887(4)
H16D H 0.5768 0.3817 -0.2089
C26D C 0.4682(4) 0.2539(4) -0.1007(3)
C53D C 0.6967(5) -0.0023(4) 0.1143(4)
C52D C 0.6652(5) -0.0329(5) 0.0741(4)
N4D N 0.6794(3) -0.0880(3) 0.0629(3)
N3D N 0.5752(3) -0.1701(3) -0.0589(2)
C29D C 0.5184(4) -0.1573(4) -0.0695(3)
H21D H 0.5047 -0.1292 -0.0489
C30D C 0.4788(4) -0.1830(4) -0.1089(3)
H22D H 0.4387 -0.1716 -0.1156
C31D C 0.4965(4) -0.2255(4) -0.1394(3)
C32D C 0.5550(4) -0.2388(4) -0.1282(4)
H23D H 0.5697 -0.2672 -0.1480
C33D C 0.5930(4) -0.2108(4) -0.0877(3)
H24D H 0.6334 -0.2210 -0.0803
C34D C 0.4542(4) -0.2527(5) -0.1828(4)
C35D C 0.4066(4) -0.2210(5) -0.2087(3)
H25D H 0.4002 -0.1816 -0.1977
C36D C 0.3667(4) -0.2449(5) -0.2513(3)
C37D C 0.3773(5) -0.3047(6) -0.2646(4)
H26D H 0.3501 -0.3233 -0.2919
C38D C 0.4256(5) -0.3367(5) -0.2394(5)
H27D H 0.4325 -0.3759 -0.2505
C39D C 0.4636(4) -0.3121(5) -0.1983(4)
H28D H 0.4964 -0.3346 -0.1802
C40D C 0.3161(5) -0.2064(5) -0.2795(3)
C42D C 0.2894(4) -0.1625(4) -0.2571(4)
C41D C 0.2437(4) -0.1248(5) -0.2837(3)
C43D C 0.2240(5) -0.1350(5) -0.3354(4)
H30D H 0.1928 -0.1114 -0.3546
C44D C 0.2483(5) -0.1779(6) -0.3584(4)
H31D H 0.2332 -0.1837 -0.3936
C45D C 0.2953(5) -0.2150(6) -0.3327(4)
H32D H 0.3123 -0.2442 -0.3501
C48D C 0.2140(5) -0.0810(4) -0.2584(4)
C47D C 0.2463(4) -0.0510(4) -0.2165(3)
C46D C 0.2198(4) -0.0069(4) -0.1928(3)
C51D C 0.1596(5) 0.0067(4) -0.2115(4)
C50D C 0.1279(5) -0.0232(5) -0.2534(4)
C49D C 0.1548(5) -0.0655(5) -0.2772(4)
H34D H 0.1328 -0.0845 -0.3070
H35D H 0.0874 -0.0146 -0.2661
H36D H 0.1412 0.0360 -0.1953
C54D C 0.2553(4) 0.0261(4) -0.1484(3)
C55D C 0.2425(4) 0.0840(4) -0.1363(4)
H39D H 0.2105 0.1046 -0.1577
H33D H 0.2866 -0.0603 -0.2036
H29D H 0.3025 -0.1574 -0.2217
C56D C 0.7252(4) -0.1125(4) 0.0945(3)
H40D H 0.7363 -0.1521 0.0876
H37D H 0.6316 -0.0143 0.0531
H38D H 0.6852 0.0377 0.1194
C27D C 0.4220(4) 0.2773(4) -0.0828(3)
H19D H 0.4106 0.3182 -0.0889
C28D C 0.6071(4) -0.2405(4) 0.0561(3)
H20D H 0.6385 -0.2569 0.0442
H17D H 0.5374 -0.1193 0.0559
H18D H 0.4873 -0.1759 0.1019
N5 N 0.4082(4) 0.5305(5) 0.4276(4)
O1 O 0.4322(4) 0.5098(4) 0.3955(4)
O2 O 0.3990(5) 0.5000(4) 0.4619(3)
O3 O 0.3882(3) 0.5812(3) 0.4220(3)
O9 O 0.2567(3) 0.6325(3) 0.0796(3)
C57 C 0.3088(6) 0.6017(6) 0.0743(5)
H41 H 0.3235 0.5753 0.1038
H42 H 0.3397 0.6316 0.0732
C58 C 0.2967(6) 0.5655(7) 0.0283(5)
H43 H 0.3327 0.5451 0.0256
H44 H 0.2828 0.5917 -0.0009
H45 H 0.2665 0.5356 0.0296
C59 C 0.2642(6) 0.6719(5) 0.1202(4)
H46 H 0.2934 0.7030 0.1172
H47 H 0.2800 0.6494 0.1518
C60 C 0.2089(6) 0.7016(6) 0.1228(4)
H48 H 0.2163 0.7288 0.1519
H49 H 0.1801 0.6711 0.1264
H50 H 0.1936 0.7247 0.0919
S1 S 0.14795(11) 0.62717(12) -0.04580(9)
O10 O 0.1015(3) 0.6329(3) -0.0938(2)
C61 C 0.1774(5) 0.6993(5) -0.0312(4)
H51 H 0.2000 0.7108 -0.0554
H52 H 0.2032 0.6992 0.0028
H53 H 0.1455 0.7282 -0.0329
C62 C 0.1110(4) 0.6206(4) 0.0031(3)
H54 H 0.0914 0.5815 0.0008
H55 H 0.0819 0.6528 -0.0001
H56 H 0.1395 0.6240 0.0358
S4 S 0.101(2) 0.8362(11) 0.0266(14)
O12 O 0.0708(4) 0.7631(4) 0.0188(3)
C65 C 0.1057(9) 0.8481(7) 0.0835(6)
C66 C 0.0370(6) 0.8767(5) -0.0047(4)
S5 S 0.3780(3) 0.4165(2) 0.08622(17)
O13 O 0.3951(4) 0.3826(3) 0.1368(3)
C67 C 0.3838(7) 0.3712(6) 0.0389(5)
C68 C 0.4413(7) 0.4640(7) 0.0876(6)
S9 S 0.5785(5) 0.0459(5) 0.2023(7)
O14 O 0.6111(4) 0.0799(3) 0.1670(4)
C71 C 0.5765(14) 0.0784(13) 0.2674(12)
C72 C 0.6164(17) -0.0062(18) 0.2312(14)
N6? N 0.0000(8) 0.5019(9) 0.0175(6)
O4? O 0.0125(7) 0.4959(7) 0.0636(6)
O5? O -0.0341(4) 0.5318(3) 0.0015(3)
N7? N -0.2791(14) 0.7876(14) 0.0067(11)
O6? O -0.217(2) 0.798(2) 0.0062(18)
O7? O -0.2500 0.7500 0.0000
O8? O -0.2422(10) 0.7627(10) 0.0454(9)
S2? S 0.0382(3) 0.3904(3) 0.2735(3)
O11? O 0.0198(6) 0.4558(6) 0.2754(5)
C63? C 0.0566(14) 0.3843(12) 0.2124(9)
C64? C -0.0191(14) 0.3477(12) 0.2667(11)
S3? S 0.0505(3) 0.81753(18) 0.04064(16)
S6? S 0.4257(12) 0.3990(11) 0.0939(6)
S7? S 0.517(3) 0.0469(14) 0.1830(12)
S8? S 0.5720(6) 0.0415(5) 0.1753(5)
C69? C 0.5506(12) -0.0225(10) 0.1365(10)
C70? C 0.5873(16) 0.0361(18) 0.2198(13)
loop_
_geom_bond_atom_site_label_1
_geom_bond_atom_site_label_2
_geom_bond_site_symmetry_1
_geom_bond_site_symmetry_2
Pd1 N1 1_555 1_555
N1 C1 1_555 1_555
C1 H1 1_555 1_555
C2 C1 1_555 1_555
H2 C2 1_555 1_555
C3 C2 1_555 1_555
C4 C3 1_555 1_555
H3 C4 1_555 1_555
C5 N1 1_555 1_555
H4 C5 1_555 1_555
C6 C3 1_555 1_555
C7 C6 1_555 1_555
H5 C7 1_555 1_555
C8 C7 1_555 1_555
C9 C8 1_555 1_555
H6 C9 1_555 1_555
C10 C9 1_555 1_555
H7 C10 1_555 1_555
C11 C6 1_555 1_555
H8 C11 1_555 1_555
C12 C8 1_555 1_555
C13 C12 1_555 1_555
H9 C13 1_555 1_555
C14 C13 1_555 1_555
C15 C14 1_555 1_555
H10 C15 1_555 1_555
C16 C15 1_555 1_555
H11 C16 1_555 1_555
C17 C12 1_555 1_555
H12 C17 1_555 1_555
C18 C14 1_555 1_555
C19 C18 1_555 1_555
H13 C19 1_555 1_555
C20 C19 1_555 1_555
C21 C20 1_555 1_555
H14 C21 1_555 1_555
C22 C21 1_555 1_555
H15 C22 1_555 1_555
C23 C18 1_555 1_555
H16 C23 1_555 1_555
N2 Pd1 1_555 1_555
C24 N2 1_555 1_555
H17 C24 1_555 1_555
C25 C24 1_555 1_555
H18 C25 1_555 1_555
C26 C20 1_555 1_555
C27 C26 1_555 1_555
H19 C27 1_555 1_555
C28 N2 1_555 1_555
H20 C28 1_555 1_555
N3 Pd1 1_555 1_555
C29 N3 1_555 1_555
H21 C29 1_555 1_555
C30 C29 1_555 1_555
H22 C30 1_555 1_555
C31 C30 1_555 1_555
C32 C31 1_555 1_555
H23 C32 1_555 1_555
C33 N3 1_555 1_555
H24 C33 1_555 1_555
C34 C31 1_555 1_555
C35 C34 1_555 1_555
H25 C35 1_555 1_555
C36 C35 1_555 1_555
C37 C36 1_555 1_555
H26 C37 1_555 1_555
C38 C37 1_555 1_555
H27 C38 1_555 1_555
C39 C34 1_555 1_555
H28 C39 1_555 1_555
C40 C36 1_555 1_555
C41 C42 1_555 1_555
C42 C40 1_555 1_555
H29 C42 1_555 1_555
C43 C41 1_555 1_555
H30 C43 1_555 1_555
C44 C43 1_555 1_555
H31 C44 1_555 1_555
C45 C40 1_555 1_555
H32 C45 1_555 1_555
C46 C47 1_555 1_555
C47 H33 1_555 1_555
C48 C41 1_555 1_555
C49 C48 1_555 1_555
H34 C49 1_555 1_555
C50 C49 1_555 1_555
H35 C50 1_555 1_555
C51 C46 1_555 1_555
H36 C51 1_555 1_555
N4 Pd1 1_555 1_555
C52 N4 1_555 1_555
H37 C52 1_555 1_555
C53 C52 1_555 1_555
H38 C53 1_555 1_555
C54 C46 1_555 1_555
C55 C54 1_555 1_555
H39 C55 1_555 1_555
C56 N4 1_555 1_555
H40 C56 1_555 1_555
N5 O1 1_555 1_555
O2 N5 1_555 1_555
O3 N5 1_555 1_555
O9 C57 1_555 1_555
C57 H41 1_555 1_555
H42 C57 1_555 1_555
C58 C57 1_555 1_555
H43 C58 1_555 1_555
H44 C58 1_555 1_555
H45 C58 1_555 1_555
C59 O9 1_555 1_555
H46 C59 1_555 1_555
H47 C59 1_555 1_555
C60 C59 1_555 1_555
H48 C60 1_555 1_555
H49 C60 1_555 1_555
H50 C60 1_555 1_555
S1 O10 1_555 1_555
C61 S1 1_555 1_555
H51 C61 1_555 1_555
H52 C61 1_555 1_555
H53 C61 1_555 1_555
C62 S1 1_555 1_555
H54 C62 1_555 1_555
H55 C62 1_555 1_555
H56 C62 1_555 1_555
S4 O12 1_555 1_555
C65 S4 1_555 1_555
C66 S4 1_555 1_555
S5 O13 1_555 1_555
C67 S5 1_555 1_555
C68 S5 1_555 1_555
S9 O14 1_555 1_555
C71 S9 1_555 1_555
C72 S9 1_555 1_555
C25D C26 1_555 1_555
C24D C25D 1_555 1_555
N2D C24D 1_555 1_555
Pd1D N2D 1_555 1_555
N1D Pd1D 1_555 1_555
C1D N1D 1_555 1_555
H1D C1D 1_555 1_555
C2D C1D 1_555 1_555
H2D C2D 1_555 1_555
C3D C2D 1_555 1_555
C4D C3D 1_555 1_555
H3D C4D 1_555 1_555
C5D N1D 1_555 1_555
H4D C5D 1_555 1_555
C6D C3D 1_555 1_555
C7D C6D 1_555 1_555
H5D C7D 1_555 1_555
C8D C7D 1_555 1_555
C9D C8D 1_555 1_555
H6D C9D 1_555 1_555
C10D C9D 1_555 1_555
H7D C10D 1_555 1_555
C11D C6D 1_555 1_555
H8D C11D 1_555 1_555
C12D C8D 1_555 1_555
C13D C12D 1_555 1_555
H9D C13D 1_555 1_555
C14D C13D 1_555 1_555
C15D C14D 1_555 1_555
H10D C15D 1_555 1_555
C16D C15D 1_555 1_555
H11D C16D 1_555 1_555
C17D C12D 1_555 1_555
H12D C17D 1_555 1_555
C18D C14D 1_555 1_555
C19D C18D 1_555 1_555
H13D C19D 1_555 1_555
C20D C19D 1_555 1_555
C21D C20D 1_555 1_555
H14D C21D 1_555 1_555
C22D C21D 1_555 1_555
H15D C22D 1_555 1_555
C23D C18D 1_555 1_555
H16D C23D 1_555 1_555
C26D C25 1_555 1_555
C53D C54 1_555 1_555
C52D C53D 1_555 1_555
N4D Pd1D 1_555 1_555
N3D Pd1D 1_555 1_555
C29D N3D 1_555 1_555
H21D C29D 1_555 1_555
C30D C29D 1_555 1_555
H22D C30D 1_555 1_555
C31D C30D 1_555 1_555
C32D C31D 1_555 1_555
H23D C32D 1_555 1_555
C33D N3D 1_555 1_555
H24D C33D 1_555 1_555
C34D C31D 1_555 1_555
C35D C34D 1_555 1_555
H25D C35D 1_555 1_555
C36D C35D 1_555 1_555
C37D C36D 1_555 1_555
H26D C37D 1_555 1_555
C38D C37D 1_555 1_555
H27D C38D 1_555 1_555
C39D C34D 1_555 1_555
H28D C39D 1_555 1_555
C40D C36D 1_555 1_555
C42D C40D 1_555 1_555
C41D C42D 1_555 1_555
C43D C41D 1_555 1_555
H30D C43D 1_555 1_555
C44D C43D 1_555 1_555
H31D C44D 1_555 1_555
C45D C40D 1_555 1_555
H32D C45D 1_555 1_555
C48D C41D 1_555 1_555
C47D C48D 1_555 1_555
C46D C47D 1_555 1_555
C51D C46D 1_555 1_555
C50D C51D 1_555 1_555
C49D C48D 1_555 1_555
H34D C49D 1_555 1_555
H35D C50D 1_555 1_555
H36D C51D 1_555 1_555
C54D C53 1_555 1_555
C55D C56 1_555 1_555
H39D C55D 1_555 1_555
H33D C47D 1_555 1_555
H29D C42D 1_555 1_555
C56D C55 1_555 1_555
H40D C56D 1_555 1_555
H37D C52D 1_555 1_555
H38D C53D 1_555 1_555
C27D C28 1_555 1_555
H19D C27D 1_555 1_555
C28D C27 1_555 1_555
H20D C28D 1_555 1_555
H17D C24D 1_555 1_555
H18D C25D 1_555 1_555
C4 C5 1_555 1_555
C10 C11 1_555 1_555
C16 C17 1_555 1_555
C22 C23 1_555 1_555
C32 C33 1_555 1_555
C38 C39 1_555 1_555
C44 C45 1_555 1_555
C47 C48 1_555 1_555
C50 C51 1_555 1_555
N2D C28D 1_555 1_555
C4D C5D 1_555 1_555
C10D C11D 1_555 1_555
C16D C17D 1_555 1_555
C20D C26D 1_555 1_555
C22D C23D 1_555 1_555
C26D C27D 1_555 1_555
C52D N4D 1_555 1_555
N4D C56D 1_555 1_555
C32D C33D 1_555 1_555
C38D C39D 1_555 1_555
C44D C45D 1_555 1_555
C46D C54D 1_555 1_555
C50D C49D 1_555 1_555
C54D C55D 1_555 1_555

#END
