
#######################################################################
#
#                 Cambridge Crystallographic Data Centre
#                                CCDC 
#
#######################################################################
#
# If this CIF has been generated from an entry in the Cambridge 
# Structural Database, then it will include bibliographic, chemical, 
# crystal, experimental, refinement or atomic coordinate data resulting 
# from the CCDC's data processing and validation procedures.
#
#######################################################################

data_QURCIR
_chemical_formula_moiety         'C288 H312 Ni12 O108 Pd12'
_chemical_name_systematic        
'tetracosakis(\m-5-t-butylbenzene-1,3-dicarboxylato)-dodeca-aqua-dodeca-nickel-dodeca-palladium unknown solvate'
_symmetry_cell_setting           tetragonal
_symmetry_space_group_name_H-M   'I 4/m'
_symmetry_Int_Tables_number      87
_space_group_name_Hall           '-I 4'
loop_
_symmetry_equiv_pos_site_id
_symmetry_equiv_pos_as_xyz
1 x,y,z
2 -y,x,z
3 -x,-y,z
4 y,-x,z
5 1/2+x,1/2+y,1/2+z
6 1/2-y,1/2+x,1/2+z
7 1/2-x,1/2-y,1/2+z
8 1/2+y,1/2-x,1/2+z
9 -x,-y,-z
10 y,-x,-z
11 x,y,-z
12 -y,x,-z
13 1/2-x,1/2-y,1/2-z
14 1/2+y,1/2-x,1/2-z
15 1/2+x,1/2+y,1/2-z
16 1/2-y,1/2+x,1/2-z
_cell_length_a                   29.174(4)
_cell_length_b                   29.174(4)
_cell_length_c                   41.296(8)
_cell_angle_alpha                90
_cell_angle_beta                 90
_cell_angle_gamma                90
_cell_volume                     35147.9
_exptl_crystal_colour            yellow
_exptl_crystal_description       Prism
_cell_formula_units_Z            2
loop_
_atom_site_label
_atom_site_type_symbol
_atom_site_fract_x
_atom_site_fract_y
_atom_site_fract_z
Pd1 Pd 0.65247(2) 0.62762(2) 0.64066(2)
Pd2 Pd 0.52350(2) 0.77985(2) 0.5000
Ni1 Ni 0.53108(3) 0.86425(2) 0.5000
Ni2 Ni 0.69827(2) 0.66583(2) 0.68283(2)
O1 O 0.65862(11) 0.56901(10) 0.66529(8)
O2 O 0.71033(11) 0.61336(12) 0.61720(8)
O3 O 0.57164(11) 0.77730(10) 0.53476(7)
O4 O 0.64746(12) 0.68791(10) 0.61766(7)
O5 O 0.64335(12) 0.40380(11) 0.66584(8)
O6 O 0.57887(14) 0.85410(11) 0.53478(9)
O7 O 0.75262(12) 0.64936(14) 0.65500(9)
O8 O 0.70089(13) 0.60361(11) 0.70399(9)
O9 O 0.67793(14) 0.36160(12) 0.70505(8)
O10 O 0.78629(10) 0.52439(12) 0.53421(8)
O11 O 0.86292(11) 0.51854(14) 0.53411(10)
O12 O 0.68971(14) 0.72301(11) 0.65628(9)
O13 O 0.73863(17) 0.69486(17) 0.71721(12)
C1 C 0.74771(18) 0.62646(19) 0.62960(14)
C2 C 0.58906(18) 0.81455(15) 0.54482(12)
O14 O 0.5372(3) 0.9325(2) 0.5000
C3 C 0.68242(17) 0.56898(18) 0.69166(13)
C4 C 0.82564(17) 0.5350(2) 0.54416(14)
C5 C 0.66658(19) 0.72288(17) 0.63039(12)
C6 C 0.62986(19) 0.76965(17) 0.58667(12)
H1 H 0.6151 0.7428 0.5790
C7 C 0.67319(19) 0.48391(17) 0.69305(13)
H2 H 0.6592 0.4851 0.6723
C8 C 0.6874(2) 0.52417(18) 0.70793(14)
C9 C 0.6604(2) 0.76663(18) 0.61317(14)
C10 C 0.6212(2) 0.81125(16) 0.57177(14)
C11 C 0.6830(3) 0.8063(2) 0.6233(2)
H3 H 0.7028 0.8045 0.6415
C12 C 0.7077(3) 0.5222(2) 0.73849(17)
H4 H 0.7176 0.5498 0.7485
C13 C 0.78742(17) 0.58313(19) 0.58614(14)
H5 H 0.7586 0.5717 0.5792
C14 C 0.82817(17) 0.5692(2) 0.57024(17)
C15 C 0.78994(19) 0.6135(2) 0.61178(16)
C16 C 0.6793(2) 0.44187(19) 0.70836(14)
C17 C 0.6990(3) 0.4404(2) 0.73932(18)
H6 H 0.7022 0.4116 0.7498
C18 C 0.8695(2) 0.5882(3) 0.5797(2)
H7 H 0.8964 0.5801 0.5680
C19 C 0.6456(3) 0.85008(19) 0.58253(18)
H8 H 0.6396 0.8786 0.5722
C20 C 0.8328(2) 0.6329(4) 0.6203(2)
H9 H 0.8341 0.6560 0.6365
C21 C 0.8734(2) 0.6184(4) 0.6052(3)
C22 C 0.6777(4) 0.8492(2) 0.6074(2)
C23 C 0.7139(5) 0.4797(3) 0.7552(2)
C24 C 0.6660(2) 0.39974(18) 0.69259(13)
C25 C 0.7338(8) 0.4798(4) 0.7890(3)
C26 C 0.7039(7) 0.8928(4) 0.6162(5)
C27 C 0.9182(4) 0.6390(7) 0.6170(5)
C28 C 0.7210(6) 0.4384(5) 0.8072(3)
H10 H 0.7038 0.4176 0.7930
H11 H 0.7019 0.4470 0.8257
H12 H 0.7488 0.4230 0.8149
C29 C 0.7093(10) 0.5140(7) 0.8105(3)
H13 H 0.7132 0.5450 0.8016
H14 H 0.7224 0.5128 0.8323
H15 H 0.6766 0.5065 0.8114
C30 C 0.9185(6) 0.6897(6) 0.6231(5)
H16 H 0.8881 0.6994 0.6304
H17 H 0.9263 0.7059 0.6030
H18 H 0.9413 0.6969 0.6398
C31 C 0.7416(6) 0.8818(4) 0.6379(5)
H19 H 0.7604 0.8576 0.6283
H20 H 0.7293 0.8713 0.6587
H21 H 0.7604 0.9093 0.6413
C32 C 0.6752(8) 0.9284(5) 0.6202(8)
H22 H 0.6825 0.9442 0.6405
H23 H 0.6435 0.9171 0.6211
H24 H 0.6785 0.9497 0.6020
C33 C 0.7817(7) 0.5005(13) 0.7852(4)
H25 H 0.7796 0.5291 0.7729
H26 H 0.8015 0.4788 0.7736
H27 H 0.7947 0.5067 0.8066
C34 C 0.9224(6) 0.6274(11) 0.6555(7)
H28 H 0.8981 0.6434 0.6673
H29 H 0.9524 0.6374 0.6635
H30 H 0.9192 0.5942 0.6588
C35 C 0.9542(6) 0.6028(8) 0.6147(6)
H31 H 0.9844 0.6172 0.6129
H32 H 0.9486 0.5838 0.5956
H33 H 0.9532 0.5836 0.6342
C36 C 0.7268(13) 0.9130(11) 0.5872(9)
H34 H 0.7601 0.9138 0.5907
H35 H 0.7155 0.9442 0.5837
H36 H 0.7200 0.8942 0.5681
Pd1A Pd 0.37238(2) 0.65247(2) 0.64066(2)
Pd2A Pd 0.22015(2) 0.52350(2) 0.5000
Ni1A Ni 0.13575(2) 0.53108(3) 0.5000
Ni2A Ni 0.33417(2) 0.69827(2) 0.68283(2)
O1A O 0.43099(10) 0.65862(11) 0.66529(8)
O2A O 0.38664(12) 0.71033(11) 0.61720(8)
O3A O 0.22270(10) 0.57164(11) 0.53476(7)
O4A O 0.31209(10) 0.64746(12) 0.61766(7)
O5A O 0.59620(11) 0.64335(12) 0.66584(8)
O6A O 0.14590(11) 0.57887(14) 0.53478(9)
O7A O 0.35064(14) 0.75262(12) 0.65500(9)
O8A O 0.39639(11) 0.70089(13) 0.70399(9)
O9A O 0.63840(12) 0.67793(14) 0.70505(8)
O10A O 0.47561(12) 0.78629(10) 0.53421(8)
O11A O 0.48146(14) 0.86292(11) 0.53411(10)
O12A O 0.27699(11) 0.68971(14) 0.65628(9)
O13A O 0.30514(17) 0.73863(17) 0.71721(12)
C1A C 0.37354(19) 0.74771(18) 0.62960(14)
C2A C 0.18545(15) 0.58906(18) 0.54482(12)
O14A O 0.0675(2) 0.5372(3) 0.5000
C3A C 0.43102(18) 0.68242(17) 0.69166(13)
C4A C 0.4650(2) 0.82564(17) 0.54416(14)
C5A C 0.27712(17) 0.66658(19) 0.63039(12)
C6A C 0.23035(17) 0.62986(19) 0.58667(12)
H1A H 0.2572 0.6151 0.5790
C7A C 0.51609(17) 0.67319(19) 0.69305(13)
H2A H 0.5149 0.6592 0.6723
C8A C 0.47583(18) 0.6874(2) 0.70793(14)
C9A C 0.23337(18) 0.6604(2) 0.61317(14)
C10A C 0.18875(16) 0.6212(2) 0.57177(14)
C11A C 0.1937(2) 0.6830(3) 0.6233(2)
H3A H 0.1955 0.7028 0.6415
C12A C 0.4778(2) 0.7077(3) 0.73849(17)
H4A H 0.4502 0.7176 0.7485
C13A C 0.41687(19) 0.78742(17) 0.58614(14)
H5A H 0.4283 0.7586 0.5792
C14A C 0.4308(2) 0.82817(17) 0.57024(17)
C15A C 0.3865(2) 0.78994(19) 0.61178(16)
C16A C 0.55813(19) 0.6793(2) 0.70836(14)
C17A C 0.5596(2) 0.6990(3) 0.73932(18)
H6A H 0.5884 0.7022 0.7498
C18A C 0.4118(3) 0.8695(2) 0.5797(2)
H7A H 0.4199 0.8964 0.5680
C19A C 0.14992(19) 0.6456(3) 0.58253(18)
H8A H 0.1214 0.6396 0.5722
C20A C 0.3671(4) 0.8328(2) 0.6203(2)
H9A H 0.3440 0.8341 0.6365
C21A C 0.3816(4) 0.8734(2) 0.6052(3)
C22A C 0.1508(2) 0.6777(4) 0.6074(2)
C23A C 0.5203(3) 0.7139(5) 0.7552(2)
C24A C 0.60026(18) 0.6660(2) 0.69259(13)
C25A C 0.5202(4) 0.7338(8) 0.7890(3)
C26A C 0.1072(4) 0.7039(7) 0.6162(5)
C27A C 0.3610(7) 0.9182(4) 0.6170(5)
C28A C 0.5616(5) 0.7210(6) 0.8072(3)
H10A H 0.5824 0.7038 0.7930
H11A H 0.5530 0.7019 0.8257
H12A H 0.5770 0.7488 0.8149
C29A C 0.4860(7) 0.7093(10) 0.8105(3)
H13A H 0.4550 0.7132 0.8016
H14A H 0.4872 0.7224 0.8323
H15A H 0.4935 0.6766 0.8114
C30A C 0.3103(6) 0.9185(6) 0.6231(5)
H16A H 0.3006 0.8881 0.6304
H17A H 0.2941 0.9263 0.6030
H18A H 0.3031 0.9413 0.6398
C31A C 0.1182(4) 0.7416(6) 0.6379(5)
H19A H 0.1424 0.7604 0.6283
H20A H 0.1287 0.7293 0.6587
H21A H 0.0907 0.7604 0.6413
C32A C 0.0716(5) 0.6752(8) 0.6202(8)
H22A H 0.0558 0.6825 0.6405
H23A H 0.0829 0.6435 0.6211
H24A H 0.0503 0.6785 0.6020
C33A C 0.4995(13) 0.7817(7) 0.7852(4)
H25A H 0.4709 0.7796 0.7729
H26A H 0.5212 0.8015 0.7736
H27A H 0.4933 0.7947 0.8066
C34A C 0.3726(11) 0.9224(6) 0.6555(7)
H28A H 0.3566 0.8981 0.6673
H29A H 0.3626 0.9524 0.6635
H30A H 0.4058 0.9192 0.6588
C35A C 0.3972(8) 0.9542(6) 0.6147(6)
H31A H 0.3828 0.9844 0.6129
H32A H 0.4162 0.9486 0.5956
H33A H 0.4164 0.9532 0.6342
C36A C 0.0870(11) 0.7268(13) 0.5872(9)
H34A H 0.0862 0.7601 0.5907
H35A H 0.0558 0.7155 0.5837
H36A H 0.1058 0.7200 0.5681
Pd1C Pd 0.62762(2) 0.34753(2) 0.64066(2)
Pd2C Pd 0.77985(2) 0.47650(2) 0.5000
Ni1C Ni 0.86425(2) 0.46892(3) 0.5000
Ni2C Ni 0.66583(2) 0.30173(2) 0.68283(2)
O1C O 0.56901(10) 0.34138(11) 0.66529(8)
O2C O 0.61336(12) 0.28967(11) 0.61720(8)
O3C O 0.77730(10) 0.42836(11) 0.53476(7)
O4C O 0.68791(10) 0.35254(12) 0.61766(7)
O5C O 0.40380(11) 0.35665(12) 0.66584(8)
O6C O 0.85410(11) 0.42113(14) 0.53478(9)
O7C O 0.64936(14) 0.24738(12) 0.65500(9)
O8C O 0.60361(11) 0.29911(13) 0.70399(9)
O9C O 0.36160(12) 0.32207(14) 0.70505(8)
O10C O 0.52439(12) 0.21371(10) 0.53421(8)
O11C O 0.51854(14) 0.13708(11) 0.53411(10)
O12C O 0.72301(11) 0.31029(14) 0.65628(9)
O13C O 0.69486(17) 0.26137(17) 0.71721(12)
C1C C 0.62646(19) 0.25229(18) 0.62960(14)
C2C C 0.81455(15) 0.41094(18) 0.54482(12)
O14C O 0.9325(2) 0.4628(3) 0.5000
C3C C 0.56898(18) 0.31758(17) 0.69166(13)
C4C C 0.5350(2) 0.17436(17) 0.54416(14)
C5C C 0.72288(17) 0.33342(19) 0.63039(12)
C6C C 0.76965(17) 0.37014(19) 0.58667(12)
H1C H 0.7428 0.3849 0.5790
C7C C 0.48391(17) 0.32681(19) 0.69305(13)
H2C H 0.4851 0.3408 0.6723
C8C C 0.52417(18) 0.3126(2) 0.70793(14)
C9C C 0.76663(18) 0.3396(2) 0.61317(14)
C10C C 0.81125(16) 0.3788(2) 0.57177(14)
C11C C 0.8063(2) 0.3170(3) 0.6233(2)
H3C H 0.8045 0.2972 0.6415
C12C C 0.5222(2) 0.2923(3) 0.73849(17)
H4C H 0.5498 0.2824 0.7485
C13C C 0.58313(19) 0.21258(17) 0.58614(14)
H5C H 0.5717 0.2414 0.5792
C14C C 0.5692(2) 0.17183(17) 0.57024(17)
C15C C 0.6135(2) 0.21006(19) 0.61178(16)
C16C C 0.44187(19) 0.3207(2) 0.70836(14)
C17C C 0.4404(2) 0.3010(3) 0.73932(18)
H6C H 0.4116 0.2978 0.7498
C18C C 0.5882(3) 0.1305(2) 0.5797(2)
H7C H 0.5801 0.1036 0.5680
C19C C 0.85008(19) 0.3544(3) 0.58253(18)
H8C H 0.8786 0.3604 0.5722
C20C C 0.6329(4) 0.1672(2) 0.6203(2)
H9C H 0.6560 0.1659 0.6365
C21C C 0.6184(4) 0.1266(2) 0.6052(3)
C22C C 0.8492(2) 0.3223(4) 0.6074(2)
C23C C 0.4797(3) 0.2861(5) 0.7552(2)
C24C C 0.39974(18) 0.3340(2) 0.69259(13)
C25C C 0.4798(4) 0.2662(8) 0.7890(3)
C26C C 0.8928(4) 0.2961(7) 0.6162(5)
C27C C 0.6390(7) 0.0818(4) 0.6170(5)
C28C C 0.4384(5) 0.2790(6) 0.8072(3)
H10C H 0.4176 0.2962 0.7930
H11C H 0.4470 0.2981 0.8257
H12C H 0.4230 0.2512 0.8149
C29C C 0.5140(7) 0.2907(10) 0.8105(3)
H13C H 0.5450 0.2868 0.8016
H14C H 0.5128 0.2776 0.8323
H15C H 0.5065 0.3234 0.8114
C30C C 0.6897(6) 0.0815(6) 0.6231(5)
H16C H 0.6994 0.1119 0.6304
H17C H 0.7059 0.0737 0.6030
H18C H 0.6969 0.0587 0.6398
C31C C 0.8818(4) 0.2584(6) 0.6379(5)
H19C H 0.8576 0.2396 0.6283
H20C H 0.8713 0.2707 0.6587
H21C H 0.9093 0.2396 0.6413
C32C C 0.9284(5) 0.3248(8) 0.6202(8)
H22C H 0.9442 0.3175 0.6405
H23C H 0.9171 0.3565 0.6211
H24C H 0.9497 0.3215 0.6020
C33C C 0.5005(13) 0.2183(7) 0.7852(4)
H25C H 0.5291 0.2204 0.7729
H26C H 0.4788 0.1985 0.7736
H27C H 0.5067 0.2053 0.8066
C34C C 0.6274(11) 0.0776(6) 0.6555(7)
H28C H 0.6434 0.1019 0.6673
H29C H 0.6374 0.0476 0.6635
H30C H 0.5942 0.0808 0.6588
C35C C 0.6028(8) 0.0458(6) 0.6147(6)
H31C H 0.6172 0.0156 0.6129
H32C H 0.5838 0.0514 0.5956
H33C H 0.5836 0.0468 0.6342
C36C C 0.9130(11) 0.2732(13) 0.5872(9)
H34C H 0.9138 0.2399 0.5907
H35C H 0.9442 0.2845 0.5837
H36C H 0.8942 0.2800 0.5681
Pd1I Pd 0.62762(2) 0.34753(2) 0.35934(2)
Ni2I Ni 0.66583(2) 0.30173(2) 0.31717(2)
O1I O 0.56901(10) 0.34138(11) 0.33471(8)
O2I O 0.61336(12) 0.28967(11) 0.38280(8)
O3I O 0.77730(10) 0.42836(11) 0.46524(7)
O4I O 0.68791(10) 0.35254(12) 0.38234(7)
O5I O 0.40380(11) 0.35665(12) 0.33416(8)
O6I O 0.85410(11) 0.42113(14) 0.46522(9)
O7I O 0.64936(14) 0.24738(12) 0.34500(9)
O8I O 0.60361(11) 0.29911(13) 0.29601(9)
O9I O 0.36160(12) 0.32207(14) 0.29495(8)
O10I O 0.52439(12) 0.21371(10) 0.46579(8)
O11I O 0.51854(14) 0.13708(11) 0.46589(10)
O12I O 0.72301(11) 0.31029(14) 0.34372(9)
O13I O 0.69486(17) 0.26137(17) 0.28279(12)
C1I C 0.62646(19) 0.25229(18) 0.37040(14)
C2I C 0.81455(15) 0.41094(18) 0.45518(12)
C3I C 0.56898(18) 0.31758(17) 0.30834(13)
C4I C 0.5350(2) 0.17436(17) 0.45584(14)
C5I C 0.72288(17) 0.33342(19) 0.36961(12)
C6I C 0.76965(17) 0.37014(19) 0.41333(12)
H1I H 0.7428 0.3849 0.4210
C7I C 0.48391(17) 0.32681(19) 0.30695(13)
H2I H 0.4851 0.3408 0.3277
C8I C 0.52417(18) 0.3126(2) 0.29207(14)
C9I C 0.76663(18) 0.3396(2) 0.38683(14)
C10I C 0.81125(16) 0.3788(2) 0.42823(14)
C11I C 0.8063(2) 0.3170(3) 0.3767(2)
H3I H 0.8045 0.2972 0.3585
C12I C 0.5222(2) 0.2923(3) 0.26151(17)
H4I H 0.5498 0.2824 0.2515
C13I C 0.58313(19) 0.21258(17) 0.41386(14)
H5I H 0.5717 0.2414 0.4208
C14I C 0.5692(2) 0.17183(17) 0.42976(17)
C15I C 0.6135(2) 0.21006(19) 0.38822(16)
C16I C 0.44187(19) 0.3207(2) 0.29164(14)
C17I C 0.4404(2) 0.3010(3) 0.26068(18)
H6I H 0.4116 0.2978 0.2502
C18I C 0.5882(3) 0.1305(2) 0.4203(2)
H7I H 0.5801 0.1036 0.4320
C19I C 0.85008(19) 0.3544(3) 0.41747(18)
H8I H 0.8786 0.3604 0.4278
C20I C 0.6329(4) 0.1672(2) 0.3797(2)
H9I H 0.6560 0.1659 0.3635
C21I C 0.6184(4) 0.1266(2) 0.3948(3)
C22I C 0.8492(2) 0.3223(4) 0.3926(2)
C23I C 0.4797(3) 0.2861(5) 0.2448(2)
C24I C 0.39974(18) 0.3340(2) 0.30741(13)
C25I C 0.4798(4) 0.2662(8) 0.2110(3)
C26I C 0.8928(4) 0.2961(7) 0.3838(5)
C27I C 0.6390(7) 0.0818(4) 0.3830(5)
C28I C 0.4384(5) 0.2790(6) 0.1928(3)
H10I H 0.4176 0.2962 0.2070
H11I H 0.4470 0.2981 0.1743
H12I H 0.4230 0.2512 0.1851
C29I C 0.5140(7) 0.2907(10) 0.1895(3)
H13I H 0.5450 0.2868 0.1984
H14I H 0.5128 0.2776 0.1677
H15I H 0.5065 0.3234 0.1886
C30I C 0.6897(6) 0.0815(6) 0.3769(5)
H16I H 0.6994 0.1119 0.3696
H17I H 0.7059 0.0737 0.3970
H18I H 0.6969 0.0587 0.3602
C31I C 0.8818(4) 0.2584(6) 0.3621(5)
H19I H 0.8576 0.2396 0.3717
H20I H 0.8713 0.2707 0.3413
H21I H 0.9093 0.2396 0.3587
C32I C 0.9284(5) 0.3248(8) 0.3798(8)
H22I H 0.9442 0.3175 0.3595
H23I H 0.9171 0.3565 0.3789
H24I H 0.9497 0.3215 0.3980
C33I C 0.5005(13) 0.2183(7) 0.2148(4)
H25I H 0.5291 0.2204 0.2271
H26I H 0.4788 0.1985 0.2264
H27I H 0.5067 0.2053 0.1934
C34I C 0.6274(11) 0.0776(6) 0.3445(7)
H28I H 0.6434 0.1019 0.3327
H29I H 0.6374 0.0476 0.3365
H30I H 0.5942 0.0808 0.3412
C35I C 0.6028(8) 0.0458(6) 0.3853(6)
H31I H 0.6172 0.0156 0.3871
H32I H 0.5838 0.0514 0.4044
H33I H 0.5836 0.0468 0.3658
C36I C 0.9130(11) 0.2732(13) 0.4128(9)
H34I H 0.9138 0.2399 0.4093
H35I H 0.9442 0.2845 0.4163
H36I H 0.8942 0.2800 0.4319
Pd1J Pd 0.65247(2) 0.62762(2) 0.35934(2)
Ni2J Ni 0.69827(2) 0.66583(2) 0.31717(2)
O1J O 0.65862(11) 0.56901(10) 0.33471(8)
O2J O 0.71033(11) 0.61336(12) 0.38280(8)
O3J O 0.57164(11) 0.77730(10) 0.46524(7)
O4J O 0.64746(12) 0.68791(10) 0.38234(7)
O5J O 0.64335(12) 0.40380(11) 0.33416(8)
O6J O 0.57887(14) 0.85410(11) 0.46522(9)
O7J O 0.75262(12) 0.64936(14) 0.34500(9)
O8J O 0.70089(13) 0.60361(11) 0.29601(9)
O9J O 0.67793(14) 0.36160(12) 0.29495(8)
O10J O 0.78629(10) 0.52439(12) 0.46579(8)
O11J O 0.86292(11) 0.51854(14) 0.46589(10)
O12J O 0.68971(14) 0.72301(11) 0.34372(9)
O13J O 0.73863(17) 0.69486(17) 0.28279(12)
C1J C 0.74771(18) 0.62646(19) 0.37040(14)
C2J C 0.58906(18) 0.81455(15) 0.45518(12)
C3J C 0.68242(17) 0.56898(18) 0.30834(13)
C4J C 0.82564(17) 0.5350(2) 0.45584(14)
C5J C 0.66658(19) 0.72288(17) 0.36961(12)
C6J C 0.62986(19) 0.76965(17) 0.41333(12)
H1J H 0.6151 0.7428 0.4210
C7J C 0.67319(19) 0.48391(17) 0.30695(13)
H2J H 0.6592 0.4851 0.3277
C8J C 0.6874(2) 0.52417(18) 0.29207(14)
C9J C 0.6604(2) 0.76663(18) 0.38683(14)
C10J C 0.6212(2) 0.81125(16) 0.42823(14)
C11J C 0.6830(3) 0.8063(2) 0.3767(2)
H3J H 0.7028 0.8045 0.3585
C12J C 0.7077(3) 0.5222(2) 0.26151(17)
H4J H 0.7176 0.5498 0.2515
C13J C 0.78742(17) 0.58313(19) 0.41386(14)
H5J H 0.7586 0.5717 0.4208
C14J C 0.82817(17) 0.5692(2) 0.42976(17)
C15J C 0.78994(19) 0.6135(2) 0.38822(16)
C16J C 0.6793(2) 0.44187(19) 0.29164(14)
C17J C 0.6990(3) 0.4404(2) 0.26068(18)
H6J H 0.7022 0.4116 0.2502
C18J C 0.8695(2) 0.5882(3) 0.4203(2)
H7J H 0.8964 0.5801 0.4320
C19J C 0.6456(3) 0.85008(19) 0.41747(18)
H8J H 0.6396 0.8786 0.4278
C20J C 0.8328(2) 0.6329(4) 0.3797(2)
H9J H 0.8341 0.6560 0.3635
C21J C 0.8734(2) 0.6184(4) 0.3948(3)
C22J C 0.6777(4) 0.8492(2) 0.3926(2)
C23J C 0.7139(5) 0.4797(3) 0.2448(2)
C24J C 0.6660(2) 0.39974(18) 0.30741(13)
C25J C 0.7338(8) 0.4798(4) 0.2110(3)
C26J C 0.7039(7) 0.8928(4) 0.3838(5)
C27J C 0.9182(4) 0.6390(7) 0.3830(5)
C28J C 0.7210(6) 0.4384(5) 0.1928(3)
H10J H 0.7038 0.4176 0.2070
H11J H 0.7019 0.4470 0.1743
H12J H 0.7488 0.4230 0.1851
C29J C 0.7093(10) 0.5140(7) 0.1895(3)
H13J H 0.7132 0.5450 0.1984
H14J H 0.7224 0.5128 0.1677
H15J H 0.6766 0.5065 0.1886
C30J C 0.9185(6) 0.6897(6) 0.3769(5)
H16J H 0.8881 0.6994 0.3696
H17J H 0.9263 0.7059 0.3970
H18J H 0.9413 0.6969 0.3602
C31J C 0.7416(6) 0.8818(4) 0.3621(5)
H19J H 0.7604 0.8576 0.3717
H20J H 0.7293 0.8713 0.3413
H21J H 0.7604 0.9093 0.3587
C32J C 0.6752(8) 0.9284(5) 0.3798(8)
H22J H 0.6825 0.9442 0.3595
H23J H 0.6435 0.9171 0.3789
H24J H 0.6785 0.9497 0.3980
C33J C 0.7817(7) 0.5005(13) 0.2148(4)
H25J H 0.7796 0.5291 0.2271
H26J H 0.8015 0.4788 0.2264
H27J H 0.7947 0.5067 0.1934
C34J C 0.9224(6) 0.6274(11) 0.3445(7)
H28J H 0.8981 0.6434 0.3327
H29J H 0.9524 0.6374 0.3365
H30J H 0.9192 0.5942 0.3412
C35J C 0.9542(6) 0.6028(8) 0.3853(6)
H31J H 0.9844 0.6172 0.3871
H32J H 0.9486 0.5838 0.4044
H33J H 0.9532 0.5836 0.3658
C36J C 0.7268(13) 0.9130(11) 0.4128(9)
H34J H 0.7601 0.9138 0.4093
H35J H 0.7155 0.9442 0.4163
H36J H 0.7200 0.8942 0.4319
Pd1K Pd 0.37238(2) 0.65247(2) 0.35934(2)
Ni2K Ni 0.33417(2) 0.69827(2) 0.31717(2)
O1K O 0.43099(10) 0.65862(11) 0.33471(8)
O2K O 0.38664(12) 0.71033(11) 0.38280(8)
O3K O 0.22270(10) 0.57164(11) 0.46524(7)
O4K O 0.31209(10) 0.64746(12) 0.38234(7)
O5K O 0.59620(11) 0.64335(12) 0.33416(8)
O6K O 0.14590(11) 0.57887(14) 0.46522(9)
O7K O 0.35064(14) 0.75262(12) 0.34500(9)
O8K O 0.39639(11) 0.70089(13) 0.29601(9)
O9K O 0.63840(12) 0.67793(14) 0.29495(8)
O10K O 0.47561(12) 0.78629(10) 0.46579(8)
O11K O 0.48146(14) 0.86292(11) 0.46589(10)
O12K O 0.27699(11) 0.68971(14) 0.34372(9)
O13K O 0.30514(17) 0.73863(17) 0.28279(12)
C1K C 0.37354(19) 0.74771(18) 0.37040(14)
C2K C 0.18545(15) 0.58906(18) 0.45518(12)
C3K C 0.43102(18) 0.68242(17) 0.30834(13)
C4K C 0.4650(2) 0.82564(17) 0.45584(14)
C5K C 0.27712(17) 0.66658(19) 0.36961(12)
C6K C 0.23035(17) 0.62986(19) 0.41333(12)
H1K H 0.2572 0.6151 0.4210
C7K C 0.51609(17) 0.67319(19) 0.30695(13)
H2K H 0.5149 0.6592 0.3277
C8K C 0.47583(18) 0.6874(2) 0.29207(14)
C9K C 0.23337(18) 0.6604(2) 0.38683(14)
C10K C 0.18875(16) 0.6212(2) 0.42823(14)
C11K C 0.1937(2) 0.6830(3) 0.3767(2)
H3K H 0.1955 0.7028 0.3585
C12K C 0.4778(2) 0.7077(3) 0.26151(17)
H4K H 0.4502 0.7176 0.2515
C13K C 0.41687(19) 0.78742(17) 0.41386(14)
H5K H 0.4283 0.7586 0.4208
C14K C 0.4308(2) 0.82817(17) 0.42976(17)
C15K C 0.3865(2) 0.78994(19) 0.38822(16)
C16K C 0.55813(19) 0.6793(2) 0.29164(14)
C17K C 0.5596(2) 0.6990(3) 0.26068(18)
H6K H 0.5884 0.7022 0.2502
C18K C 0.4118(3) 0.8695(2) 0.4203(2)
H7K H 0.4199 0.8964 0.4320
C19K C 0.14992(19) 0.6456(3) 0.41747(18)
H8K H 0.1214 0.6396 0.4278
C20K C 0.3671(4) 0.8328(2) 0.3797(2)
H9K H 0.3440 0.8341 0.3635
C21K C 0.3816(4) 0.8734(2) 0.3948(3)
C22K C 0.1508(2) 0.6777(4) 0.3926(2)
C23K C 0.5203(3) 0.7139(5) 0.2448(2)
C24K C 0.60026(18) 0.6660(2) 0.30741(13)
C25K C 0.5202(4) 0.7338(8) 0.2110(3)
C26K C 0.1072(4) 0.7039(7) 0.3838(5)
C27K C 0.3610(7) 0.9182(4) 0.3830(5)
C28K C 0.5616(5) 0.7210(6) 0.1928(3)
H10K H 0.5824 0.7038 0.2070
H11K H 0.5530 0.7019 0.1743
H12K H 0.5770 0.7488 0.1851
C29K C 0.4860(7) 0.7093(10) 0.1895(3)
H13K H 0.4550 0.7132 0.1984
H14K H 0.4872 0.7224 0.1677
H15K H 0.4935 0.6766 0.1886
C30K C 0.3103(6) 0.9185(6) 0.3769(5)
H16K H 0.3006 0.8881 0.3696
H17K H 0.2941 0.9263 0.3970
H18K H 0.3031 0.9413 0.3602
C31K C 0.1182(4) 0.7416(6) 0.3621(5)
H19K H 0.1424 0.7604 0.3717
H20K H 0.1287 0.7293 0.3413
H21K H 0.0907 0.7604 0.3587
C32K C 0.0716(5) 0.6752(8) 0.3798(8)
H22K H 0.0558 0.6825 0.3595
H23K H 0.0829 0.6435 0.3789
H24K H 0.0503 0.6785 0.3980
C33K C 0.4995(13) 0.7817(7) 0.2148(4)
H25K H 0.4709 0.7796 0.2271
H26K H 0.5212 0.8015 0.2264
H27K H 0.4933 0.7947 0.1934
C34K C 0.3726(11) 0.9224(6) 0.3445(7)
H28K H 0.3566 0.8981 0.3327
H29K H 0.3626 0.9524 0.3365
H30K H 0.4058 0.9192 0.3412
C35K C 0.3972(8) 0.9542(6) 0.3853(6)
H31K H 0.3828 0.9844 0.3871
H32K H 0.4162 0.9486 0.4044
H33K H 0.4164 0.9532 0.3658
C36K C 0.0870(11) 0.7268(13) 0.4128(9)
H34K H 0.0862 0.7601 0.4093
H35K H 0.0558 0.7155 0.4163
H36K H 0.1058 0.7200 0.4319
Pd1B Pd 0.34753(2) 0.37238(2) 0.64066(2)
Pd2B Pd 0.47650(2) 0.22015(2) 0.5000
Ni1B Ni 0.46892(3) 0.13575(2) 0.5000
Ni2B Ni 0.30173(2) 0.33417(2) 0.68283(2)
O1B O 0.34138(11) 0.43099(10) 0.66529(8)
O2B O 0.28967(11) 0.38664(12) 0.61720(8)
O3B O 0.42836(11) 0.22270(10) 0.53476(7)
O4B O 0.35254(12) 0.31209(10) 0.61766(7)
O5B O 0.35665(12) 0.59620(11) 0.66584(8)
O6B O 0.42113(14) 0.14590(11) 0.53478(9)
O7B O 0.24738(12) 0.35064(14) 0.65500(9)
O8B O 0.29911(13) 0.39639(11) 0.70399(9)
O9B O 0.32207(14) 0.63840(12) 0.70505(8)
O10B O 0.21371(10) 0.47561(12) 0.53421(8)
O11B O 0.13708(11) 0.48146(14) 0.53411(10)
O12B O 0.31029(14) 0.27699(11) 0.65628(9)
O13B O 0.26137(17) 0.30514(17) 0.71721(12)
C1B C 0.25229(18) 0.37354(19) 0.62960(14)
C2B C 0.41094(18) 0.18545(15) 0.54482(12)
O14B O 0.4628(3) 0.0675(2) 0.5000
C3B C 0.31758(17) 0.43102(18) 0.69166(13)
C4B C 0.17436(17) 0.4650(2) 0.54416(14)
C5B C 0.33342(19) 0.27712(17) 0.63039(12)
C6B C 0.37014(19) 0.23035(17) 0.58667(12)
H1B H 0.3849 0.2572 0.5790
C7B C 0.32681(19) 0.51609(17) 0.69305(13)
H2B H 0.3408 0.5149 0.6723
C8B C 0.3126(2) 0.47583(18) 0.70793(14)
C9B C 0.3396(2) 0.23337(18) 0.61317(14)
C10B C 0.3788(2) 0.18875(16) 0.57177(14)
C11B C 0.3170(3) 0.1937(2) 0.6233(2)
H3B H 0.2972 0.1955 0.6415
C12B C 0.2923(3) 0.4778(2) 0.73849(17)
H4B H 0.2824 0.4502 0.7485
C13B C 0.21258(17) 0.41687(19) 0.58614(14)
H5B H 0.2414 0.4283 0.5792
C14B C 0.17183(17) 0.4308(2) 0.57024(17)
C15B C 0.21006(19) 0.3865(2) 0.61178(16)
C16B C 0.3207(2) 0.55813(19) 0.70836(14)
C17B C 0.3010(3) 0.5596(2) 0.73932(18)
H6B H 0.2978 0.5884 0.7498
C18B C 0.1305(2) 0.4118(3) 0.5797(2)
H7B H 0.1036 0.4199 0.5680
C19B C 0.3544(3) 0.14992(19) 0.58253(18)
H8B H 0.3604 0.1214 0.5722
C20B C 0.1672(2) 0.3671(4) 0.6203(2)
H9B H 0.1659 0.3440 0.6365
C21B C 0.1266(2) 0.3816(4) 0.6052(3)
C22B C 0.3223(4) 0.1508(2) 0.6074(2)
C23B C 0.2861(5) 0.5203(3) 0.7552(2)
C24B C 0.3340(2) 0.60026(18) 0.69259(13)
C25B C 0.2662(8) 0.5202(4) 0.7890(3)
C26B C 0.2961(7) 0.1072(4) 0.6162(5)
C27B C 0.0818(4) 0.3610(7) 0.6170(5)
C28B C 0.2790(6) 0.5616(5) 0.8072(3)
H10B H 0.2962 0.5824 0.7930
H11B H 0.2981 0.5530 0.8257
H12B H 0.2512 0.5770 0.8149
C29B C 0.2907(10) 0.4860(7) 0.8105(3)
H13B H 0.2868 0.4550 0.8016
H14B H 0.2776 0.4872 0.8323
H15B H 0.3234 0.4935 0.8114
C30B C 0.0815(6) 0.3103(6) 0.6231(5)
H16B H 0.1119 0.3006 0.6304
H17B H 0.0737 0.2941 0.6030
H18B H 0.0587 0.3031 0.6398
C31B C 0.2584(6) 0.1182(4) 0.6379(5)
H19B H 0.2396 0.1424 0.6283
H20B H 0.2707 0.1287 0.6587
H21B H 0.2396 0.0907 0.6413
C32B C 0.3248(8) 0.0716(5) 0.6202(8)
H22B H 0.3175 0.0558 0.6405
H23B H 0.3565 0.0829 0.6211
H24B H 0.3215 0.0503 0.6020
C33B C 0.2183(7) 0.4995(13) 0.7852(4)
H25B H 0.2204 0.4709 0.7729
H26B H 0.1985 0.5212 0.7736
H27B H 0.2053 0.4933 0.8066
C34B C 0.0776(6) 0.3726(11) 0.6555(7)
H28B H 0.1019 0.3566 0.6673
H29B H 0.0476 0.3626 0.6635
H30B H 0.0808 0.4058 0.6588
C35B C 0.0458(6) 0.3972(8) 0.6147(6)
H31B H 0.0156 0.3828 0.6129
H32B H 0.0514 0.4162 0.5956
H33B H 0.0468 0.4164 0.6342
C36B C 0.2732(13) 0.0870(11) 0.5872(9)
H34B H 0.2399 0.0862 0.5907
H35B H 0.2845 0.0558 0.5837
H36B H 0.2800 0.1058 0.5681
Pd1H Pd 0.34753(2) 0.37238(2) 0.35934(2)
Ni2H Ni 0.30173(2) 0.33417(2) 0.31717(2)
O1H O 0.34138(11) 0.43099(10) 0.33471(8)
O2H O 0.28967(11) 0.38664(12) 0.38280(8)
O3H O 0.42836(11) 0.22270(10) 0.46524(7)
O4H O 0.35254(12) 0.31209(10) 0.38234(7)
O5H O 0.35665(12) 0.59620(11) 0.33416(8)
O6H O 0.42113(14) 0.14590(11) 0.46522(9)
O7H O 0.24738(12) 0.35064(14) 0.34500(9)
O8H O 0.29911(13) 0.39639(11) 0.29601(9)
O9H O 0.32207(14) 0.63840(12) 0.29495(8)
O10H O 0.21371(10) 0.47561(12) 0.46579(8)
O11H O 0.13708(11) 0.48146(14) 0.46589(10)
O12H O 0.31029(14) 0.27699(11) 0.34372(9)
O13H O 0.26137(17) 0.30514(17) 0.28279(12)
C1H C 0.25229(18) 0.37354(19) 0.37040(14)
C2H C 0.41094(18) 0.18545(15) 0.45518(12)
C3H C 0.31758(17) 0.43102(18) 0.30834(13)
C4H C 0.17436(17) 0.4650(2) 0.45584(14)
C5H C 0.33342(19) 0.27712(17) 0.36961(12)
C6H C 0.37014(19) 0.23035(17) 0.41333(12)
H1H H 0.3849 0.2572 0.4210
C7H C 0.32681(19) 0.51609(17) 0.30695(13)
H2H H 0.3408 0.5149 0.3277
C8H C 0.3126(2) 0.47583(18) 0.29207(14)
C9H C 0.3396(2) 0.23337(18) 0.38683(14)
C10H C 0.3788(2) 0.18875(16) 0.42823(14)
C11H C 0.3170(3) 0.1937(2) 0.3767(2)
H3H H 0.2972 0.1955 0.3585
C12H C 0.2923(3) 0.4778(2) 0.26151(17)
H4H H 0.2824 0.4502 0.2515
C13H C 0.21258(17) 0.41687(19) 0.41386(14)
H5H H 0.2414 0.4283 0.4208
C14H C 0.17183(17) 0.4308(2) 0.42976(17)
C15H C 0.21006(19) 0.3865(2) 0.38822(16)
C16H C 0.3207(2) 0.55813(19) 0.29164(14)
C17H C 0.3010(3) 0.5596(2) 0.26068(18)
H6H H 0.2978 0.5884 0.2502
C18H C 0.1305(2) 0.4118(3) 0.4203(2)
H7H H 0.1036 0.4199 0.4320
C19H C 0.3544(3) 0.14992(19) 0.41747(18)
H8H H 0.3604 0.1214 0.4278
C20H C 0.1672(2) 0.3671(4) 0.3797(2)
H9H H 0.1659 0.3440 0.3635
C21H C 0.1266(2) 0.3816(4) 0.3948(3)
C22H C 0.3223(4) 0.1508(2) 0.3926(2)
C23H C 0.2861(5) 0.5203(3) 0.2448(2)
C24H C 0.3340(2) 0.60026(18) 0.30741(13)
C25H C 0.2662(8) 0.5202(4) 0.2110(3)
C26H C 0.2961(7) 0.1072(4) 0.3838(5)
C27H C 0.0818(4) 0.3610(7) 0.3830(5)
C28H C 0.2790(6) 0.5616(5) 0.1928(3)
H10H H 0.2962 0.5824 0.2070
H11H H 0.2981 0.5530 0.1743
H12H H 0.2512 0.5770 0.1851
C29H C 0.2907(10) 0.4860(7) 0.1895(3)
H13H H 0.2868 0.4550 0.1984
H14H H 0.2776 0.4872 0.1677
H15H H 0.3234 0.4935 0.1886
C30H C 0.0815(6) 0.3103(6) 0.3769(5)
H16H H 0.1119 0.3006 0.3696
H17H H 0.0737 0.2941 0.3970
H18H H 0.0587 0.3031 0.3602
C31H C 0.2584(6) 0.1182(4) 0.3621(5)
H19H H 0.2396 0.1424 0.3717
H20H H 0.2707 0.1287 0.3413
H21H H 0.2396 0.0907 0.3587
C32H C 0.3248(8) 0.0716(5) 0.3798(8)
H22H H 0.3175 0.0558 0.3595
H23H H 0.3565 0.0829 0.3789
H24H H 0.3215 0.0503 0.3980
C33H C 0.2183(7) 0.4995(13) 0.2148(4)
H25H H 0.2204 0.4709 0.2271
H26H H 0.1985 0.5212 0.2264
H27H H 0.2053 0.4933 0.1934
C34H C 0.0776(6) 0.3726(11) 0.3445(7)
H28H H 0.1019 0.3566 0.3327
H29H H 0.0476 0.3626 0.3365
H30H H 0.0808 0.4058 0.3412
C35H C 0.0458(6) 0.3972(8) 0.3853(6)
H31H H 0.0156 0.3828 0.3871
H32H H 0.0514 0.4162 0.4044
H33H H 0.0468 0.4164 0.3658
C36H C 0.2732(13) 0.0870(11) 0.4128(9)
H34H H 0.2399 0.0862 0.4093
H35H H 0.2845 0.0558 0.4163
H36H H 0.2800 0.1058 0.4319
O15? O 0.6056(6) 0.5915(5) 0.5995(3)
O16? O 0.5161(7) 0.6970(8) 0.5000
Ni3? Ni 0.65247(2) 0.62762(2) 0.64066(2)
Pd3? Pd 0.69827(2) 0.66583(2) 0.68283(2)
Ni4? Ni 0.52350(2) 0.77985(2) 0.5000
Pd4? Pd 0.53108(3) 0.86425(2) 0.5000
H37? H 0.6538 0.9298 0.6019
H38? H 0.6928 0.9569 0.6213
H39? H 0.6579 0.9244 0.6404
H40? H 0.7397 0.9012 0.6572
H41? H 0.7708 0.8875 0.6268
H42? H 0.7397 0.8495 0.6442
H43? H 0.7037 0.9210 0.5710
H44? H 0.7482 0.8906 0.5780
H45? H 0.7437 0.9406 0.5936
H46? H 0.9397 0.5725 0.6155
H47? H 0.9756 0.6060 0.6329
H48? H 0.9709 0.6062 0.5943
H49? H 0.9490 0.7020 0.6184
H50? H 0.9108 0.6956 0.6458
H51? H 0.8959 0.7046 0.6091
H52? H 0.9484 0.6067 0.6591
H53? H 0.8941 0.6126 0.6629
H54? H 0.9273 0.6558 0.6676
H55? H 0.6949 0.4979 0.8286
H56? H 0.6858 0.5301 0.7979
H57? H 0.7315 0.5363 0.8188
H58? H 0.7325 0.4408 0.8294
H59? H 0.7345 0.4114 0.7967
H60? H 0.6876 0.4354 0.8075
H61? H 0.8042 0.4807 0.7959
H62? H 0.7824 0.5310 0.7951
H63? H 0.7892 0.5031 0.7621
loop_
_geom_bond_atom_site_label_1
_geom_bond_atom_site_label_2
_geom_bond_site_symmetry_1
_geom_bond_site_symmetry_2
Pd1 O1 1_555 1_555
Pd2 O3 1_555 1_555
Ni1 O6 1_555 1_555
Ni2 O7 1_555 1_555
O1 C3 1_555 1_555
O2 Pd1 1_555 1_555
O3 C2 1_555 1_555
O4 Pd1 1_555 1_555
O5 C24 1_555 1_555
O6 C2 1_555 1_555
O7 C1 1_555 1_555
O8 Ni2 1_555 1_555
O9 C24 1_555 1_555
O10 C4 1_555 1_555
O11 C4 1_555 1_555
O12 Ni2 1_555 1_555
O13 Ni2 1_555 1_555
C1 O2 1_555 1_555
C2 C10 1_555 1_555
O14 Ni1 1_555 1_555
C3 O8 1_555 1_555
C4 C14 1_555 1_555
C5 O4 1_555 1_555
C6 H1 1_555 1_555
C7 H2 1_555 1_555
C8 C3 1_555 1_555
C9 C5 1_555 1_555
C10 C6 1_555 1_555
C11 C9 1_555 1_555
H3 C11 1_555 1_555
C12 C8 1_555 1_555
H4 C12 1_555 1_555
C13 H5 1_555 1_555
C14 C13 1_555 1_555
C15 C1 1_555 1_555
C16 C7 1_555 1_555
C17 C16 1_555 1_555
H6 C17 1_555 1_555
C18 C14 1_555 1_555
H7 C18 1_555 1_555
C19 C10 1_555 1_555
H8 C19 1_555 1_555
C20 C15 1_555 1_555
H9 C20 1_555 1_555
C21 C18 1_555 1_555
C22 C11 1_555 1_555
C23 C12 1_555 1_555
C24 C16 1_555 1_555
C25 C23 1_555 1_555
C26 C22 1_555 1_555
C27 C21 1_555 1_555
C28 C25 1_555 1_555
H10 C28 1_555 1_555
H11 C28 1_555 1_555
H12 C28 1_555 1_555
C29 C25 1_555 1_555
H13 C29 1_555 1_555
H14 C29 1_555 1_555
H15 C29 1_555 1_555
C30 C27 1_555 1_555
H16 C30 1_555 1_555
H17 C30 1_555 1_555
H18 C30 1_555 1_555
C31 C26 1_555 1_555
H19 C31 1_555 1_555
H20 C31 1_555 1_555
H21 C31 1_555 1_555
C32 C26 1_555 1_555
H22 C32 1_555 1_555
H23 C32 1_555 1_555
H24 C32 1_555 1_555
C33 C25 1_555 1_555
H25 C33 1_555 1_555
H26 C33 1_555 1_555
H27 C33 1_555 1_555
C34 C27 1_555 1_555
H28 C34 1_555 1_555
H29 C34 1_555 1_555
H30 C34 1_555 1_555
C35 C27 1_555 1_555
H31 C35 1_555 1_555
H32 C35 1_555 1_555
H33 C35 1_555 1_555
C36 C26 1_555 1_555
H34 C36 1_555 1_555
H35 C36 1_555 1_555
H36 C36 1_555 1_555
Pd1A O1A 1_555 1_555
Pd2A O3A 1_555 1_555
Ni1A O6A 1_555 1_555
Ni2A O7A 1_555 1_555
O1A C3A 1_555 1_555
O2A Pd1A 1_555 1_555
O3A C2A 1_555 1_555
O4A Pd1A 1_555 1_555
O5A Pd1 1_555 1_555
O6A C2A 1_555 1_555
O7A C1A 1_555 1_555
O8A Ni2A 1_555 1_555
O9A Ni2 1_555 1_555
O10A Pd2 1_555 1_555
O11A Ni1 1_555 1_555
O12A Ni2A 1_555 1_555
O13A Ni2A 1_555 1_555
C1A O2A 1_555 1_555
C2A C10A 1_555 1_555
O14A Ni1A 1_555 1_555
C3A O8A 1_555 1_555
C4A O10A 1_555 1_555
C5A O4A 1_555 1_555
C6A H1A 1_555 1_555
C7A H2A 1_555 1_555
C8A C3A 1_555 1_555
C9A C5A 1_555 1_555
C10A C6A 1_555 1_555
C11A C9A 1_555 1_555
H3A C11A 1_555 1_555
C12A C8A 1_555 1_555
H4A C12A 1_555 1_555
C13A H5A 1_555 1_555
C14A C4A 1_555 1_555
C15A C1A 1_555 1_555
C16A C7A 1_555 1_555
C17A C16A 1_555 1_555
H6A C17A 1_555 1_555
C18A C14A 1_555 1_555
H7A C18A 1_555 1_555
C19A C10A 1_555 1_555
H8A C19A 1_555 1_555
C20A C15A 1_555 1_555
H9A C20A 1_555 1_555
C21A C18A 1_555 1_555
C22A C11A 1_555 1_555
C23A C12A 1_555 1_555
C24A O5A 1_555 1_555
C25A C23A 1_555 1_555
C26A C22A 1_555 1_555
C27A C21A 1_555 1_555
C28A C25A 1_555 1_555
H10A C28A 1_555 1_555
H11A C28A 1_555 1_555
H12A C28A 1_555 1_555
C29A C25A 1_555 1_555
H13A C29A 1_555 1_555
H14A C29A 1_555 1_555
H15A C29A 1_555 1_555
C30A C27A 1_555 1_555
H16A C30A 1_555 1_555
H17A C30A 1_555 1_555
H18A C30A 1_555 1_555
C31A C26A 1_555 1_555
H19A C31A 1_555 1_555
H20A C31A 1_555 1_555
H21A C31A 1_555 1_555
C32A C26A 1_555 1_555
H22A C32A 1_555 1_555
H23A C32A 1_555 1_555
H24A C32A 1_555 1_555
C33A C25A 1_555 1_555
H25A C33A 1_555 1_555
H26A C33A 1_555 1_555
H27A C33A 1_555 1_555
C34A C27A 1_555 1_555
H28A C34A 1_555 1_555
H29A C34A 1_555 1_555
H30A C34A 1_555 1_555
C35A C27A 1_555 1_555
H31A C35A 1_555 1_555
H32A C35A 1_555 1_555
H33A C35A 1_555 1_555
C36A C26A 1_555 1_555
H34A C36A 1_555 1_555
H35A C36A 1_555 1_555
H36A C36A 1_555 1_555
Pd1C O5 1_555 1_555
Pd2C O10 1_555 1_555
Ni1C O11 1_555 1_555
Ni2C O9 1_555 1_555
O1C Pd1C 1_555 1_555
O2C Pd1C 1_555 1_555
O3C Pd2C 1_555 1_555
O4C Pd1C 1_555 1_555
O5C C24C 1_555 1_555
O6C Ni1C 1_555 1_555
O7C Ni2C 1_555 1_555
O8C Ni2C 1_555 1_555
O9C C24C 1_555 1_555
O10C C4C 1_555 1_555
O11C C4C 1_555 1_555
O12C Ni2C 1_555 1_555
O13C Ni2C 1_555 1_555
C1C O2C 1_555 1_555
C2C O3C 1_555 1_555
O14C Ni1C 1_555 1_555
C3C O1C 1_555 1_555
C4C C14C 1_555 1_555
C5C O4C 1_555 1_555
C6C H1C 1_555 1_555
C7C H2C 1_555 1_555
C8C C3C 1_555 1_555
C9C C5C 1_555 1_555
C10C C2C 1_555 1_555
C11C C9C 1_555 1_555
H3C C11C 1_555 1_555
C12C C8C 1_555 1_555
H4C C12C 1_555 1_555
C13C H5C 1_555 1_555
C14C C13C 1_555 1_555
C15C C1C 1_555 1_555
C16C C7C 1_555 1_555
C17C C16C 1_555 1_555
H6C C17C 1_555 1_555
C18C C14C 1_555 1_555
H7C C18C 1_555 1_555
C19C C10C 1_555 1_555
H8C C19C 1_555 1_555
C20C C15C 1_555 1_555
H9C C20C 1_555 1_555
C21C C18C 1_555 1_555
C22C C11C 1_555 1_555
C23C C12C 1_555 1_555
C24C C16C 1_555 1_555
C25C C23C 1_555 1_555
C26C C22C 1_555 1_555
C27C C21C 1_555 1_555
C28C C25C 1_555 1_555
H10C C28C 1_555 1_555
H11C C28C 1_555 1_555
H12C C28C 1_555 1_555
C29C C25C 1_555 1_555
H13C C29C 1_555 1_555
H14C C29C 1_555 1_555
H15C C29C 1_555 1_555
C30C C27C 1_555 1_555
H16C C30C 1_555 1_555
H17C C30C 1_555 1_555
H18C C30C 1_555 1_555
C31C C26C 1_555 1_555
H19C C31C 1_555 1_555
H20C C31C 1_555 1_555
H21C C31C 1_555 1_555
C32C C26C 1_555 1_555
H22C C32C 1_555 1_555
H23C C32C 1_555 1_555
H24C C32C 1_555 1_555
C33C C25C 1_555 1_555
H25C C33C 1_555 1_555
H26C C33C 1_555 1_555
H27C C33C 1_555 1_555
C34C C27C 1_555 1_555
H28C C34C 1_555 1_555
H29C C34C 1_555 1_555
H30C C34C 1_555 1_555
C35C C27C 1_555 1_555
H31C C35C 1_555 1_555
H32C C35C 1_555 1_555
H33C C35C 1_555 1_555
C36C C26C 1_555 1_555
H34C C36C 1_555 1_555
H35C C36C 1_555 1_555
H36C C36C 1_555 1_555
Pd1I O1I 1_555 1_555
Ni2I O7I 1_555 1_555
O1I C3I 1_555 1_555
O2I Pd1I 1_555 1_555
O3I Pd2C 1_555 1_555
O4I Pd1I 1_555 1_555
O5I C24I 1_555 1_555
O6I Ni1C 1_555 1_555
O7I C1I 1_555 1_555
O8I Ni2I 1_555 1_555
O9I C24I 1_555 1_555
O10I C4I 1_555 1_555
O11I C4I 1_555 1_555
O12I Ni2I 1_555 1_555
O13I Ni2I 1_555 1_555
C1I O2I 1_555 1_555
C2I O3I 1_555 1_555
C3I O8I 1_555 1_555
C4I C14I 1_555 1_555
C5I O4I 1_555 1_555
C6I H1I 1_555 1_555
C7I H2I 1_555 1_555
C8I C3I 1_555 1_555
C9I C5I 1_555 1_555
C10I C2I 1_555 1_555
C11I C9I 1_555 1_555
H3I C11I 1_555 1_555
C12I C8I 1_555 1_555
H4I C12I 1_555 1_555
C13I H5I 1_555 1_555
C14I C13I 1_555 1_555
C15I C1I 1_555 1_555
C16I C7I 1_555 1_555
C17I C16I 1_555 1_555
H6I C17I 1_555 1_555
C18I C14I 1_555 1_555
H7I C18I 1_555 1_555
C19I C10I 1_555 1_555
H8I C19I 1_555 1_555
C20I C15I 1_555 1_555
H9I C20I 1_555 1_555
C21I C18I 1_555 1_555
C22I C11I 1_555 1_555
C23I C12I 1_555 1_555
C24I C16I 1_555 1_555
C25I C23I 1_555 1_555
C26I C22I 1_555 1_555
C27I C21I 1_555 1_555
C28I C25I 1_555 1_555
H10I C28I 1_555 1_555
H11I C28I 1_555 1_555
H12I C28I 1_555 1_555
C29I C25I 1_555 1_555
H13I C29I 1_555 1_555
H14I C29I 1_555 1_555
H15I C29I 1_555 1_555
C30I C27I 1_555 1_555
H16I C30I 1_555 1_555
H17I C30I 1_555 1_555
H18I C30I 1_555 1_555
C31I C26I 1_555 1_555
H19I C31I 1_555 1_555
H20I C31I 1_555 1_555
H21I C31I 1_555 1_555
C32I C26I 1_555 1_555
H22I C32I 1_555 1_555
H23I C32I 1_555 1_555
H24I C32I 1_555 1_555
C33I C25I 1_555 1_555
H25I C33I 1_555 1_555
H26I C33I 1_555 1_555
H27I C33I 1_555 1_555
C34I C27I 1_555 1_555
H28I C34I 1_555 1_555
H29I C34I 1_555 1_555
H30I C34I 1_555 1_555
C35I C27I 1_555 1_555
H31I C35I 1_555 1_555
H32I C35I 1_555 1_555
H33I C35I 1_555 1_555
C36I C26I 1_555 1_555
H34I C36I 1_555 1_555
H35I C36I 1_555 1_555
H36I C36I 1_555 1_555
Pd1J O1J 1_555 1_555
Ni2J O7J 1_555 1_555
O1J C3J 1_555 1_555
O2J Pd1J 1_555 1_555
O3J Pd2 1_555 1_555
O4J Pd1J 1_555 1_555
O5J Pd1I 1_555 1_555
O6J Ni1 1_555 1_555
O7J C1J 1_555 1_555
O8J Ni2J 1_555 1_555
O9J Ni2I 1_555 1_555
O10J Pd2C 1_555 1_555
O11J Ni1C 1_555 1_555
O12J Ni2J 1_555 1_555
O13J Ni2J 1_555 1_555
C1J O2J 1_555 1_555
C2J O3J 1_555 1_555
C3J O8J 1_555 1_555
C4J O10J 1_555 1_555
C5J O4J 1_555 1_555
C6J H1J 1_555 1_555
C7J H2J 1_555 1_555
C8J C3J 1_555 1_555
C9J C5J 1_555 1_555
C10J C2J 1_555 1_555
C11J C9J 1_555 1_555
H3J C11J 1_555 1_555
C12J C8J 1_555 1_555
H4J C12J 1_555 1_555
C13J H5J 1_555 1_555
C14J C4J 1_555 1_555
C15J C1J 1_555 1_555
C16J C7J 1_555 1_555
C17J C16J 1_555 1_555
H6J C17J 1_555 1_555
C18J C14J 1_555 1_555
H7J C18J 1_555 1_555
C19J C10J 1_555 1_555
H8J C19J 1_555 1_555
C20J C15J 1_555 1_555
H9J C20J 1_555 1_555
C21J C18J 1_555 1_555
C22J C11J 1_555 1_555
C23J C12J 1_555 1_555
C24J O5J 1_555 1_555
C25J C23J 1_555 1_555
C26J C22J 1_555 1_555
C27J C21J 1_555 1_555
C28J C25J 1_555 1_555
H10J C28J 1_555 1_555
H11J C28J 1_555 1_555
H12J C28J 1_555 1_555
C29J C25J 1_555 1_555
H13J C29J 1_555 1_555
H14J C29J 1_555 1_555
H15J C29J 1_555 1_555
C30J C27J 1_555 1_555
H16J C30J 1_555 1_555
H17J C30J 1_555 1_555
H18J C30J 1_555 1_555
C31J C26J 1_555 1_555
H19J C31J 1_555 1_555
H20J C31J 1_555 1_555
H21J C31J 1_555 1_555
C32J C26J 1_555 1_555
H22J C32J 1_555 1_555
H23J C32J 1_555 1_555
H24J C32J 1_555 1_555
C33J C25J 1_555 1_555
H25J C33J 1_555 1_555
H26J C33J 1_555 1_555
H27J C33J 1_555 1_555
C34J C27J 1_555 1_555
H28J C34J 1_555 1_555
H29J C34J 1_555 1_555
H30J C34J 1_555 1_555
C35J C27J 1_555 1_555
H31J C35J 1_555 1_555
H32J C35J 1_555 1_555
H33J C35J 1_555 1_555
C36J C26J 1_555 1_555
H34J C36J 1_555 1_555
H35J C36J 1_555 1_555
H36J C36J 1_555 1_555
Pd1K O1K 1_555 1_555
Ni2K O7K 1_555 1_555
O1K C3K 1_555 1_555
O2K Pd1K 1_555 1_555
O3K Pd2A 1_555 1_555
O4K Pd1K 1_555 1_555
O5K Pd1J 1_555 1_555
O6K Ni1A 1_555 1_555
O7K C1K 1_555 1_555
O8K Ni2K 1_555 1_555
O9K Ni2J 1_555 1_555
O10K Pd2 1_555 1_555
O11K Ni1 1_555 1_555
O12K Ni2K 1_555 1_555
O13K Ni2K 1_555 1_555
C1K O2K 1_555 1_555
C2K O3K 1_555 1_555
C3K O8K 1_555 1_555
C4K O10K 1_555 1_555
C5K O4K 1_555 1_555
C6K H1K 1_555 1_555
C7K H2K 1_555 1_555
C8K C3K 1_555 1_555
C9K C5K 1_555 1_555
C10K C2K 1_555 1_555
C11K C9K 1_555 1_555
H3K C11K 1_555 1_555
C12K C8K 1_555 1_555
H4K C12K 1_555 1_555
C13K H5K 1_555 1_555
C14K C4K 1_555 1_555
C15K C1K 1_555 1_555
C16K C7K 1_555 1_555
C17K C16K 1_555 1_555
H6K C17K 1_555 1_555
C18K C14K 1_555 1_555
H7K C18K 1_555 1_555
C19K C10K 1_555 1_555
H8K C19K 1_555 1_555
C20K C15K 1_555 1_555
H9K C20K 1_555 1_555
C21K C18K 1_555 1_555
C22K C11K 1_555 1_555
C23K C12K 1_555 1_555
C24K O5K 1_555 1_555
C25K C23K 1_555 1_555
C26K C22K 1_555 1_555
C27K C21K 1_555 1_555
C28K C25K 1_555 1_555
H10K C28K 1_555 1_555
H11K C28K 1_555 1_555
H12K C28K 1_555 1_555
C29K C25K 1_555 1_555
H13K C29K 1_555 1_555
H14K C29K 1_555 1_555
H15K C29K 1_555 1_555
C30K C27K 1_555 1_555
H16K C30K 1_555 1_555
H17K C30K 1_555 1_555
H18K C30K 1_555 1_555
C31K C26K 1_555 1_555
H19K C31K 1_555 1_555
H20K C31K 1_555 1_555
H21K C31K 1_555 1_555
C32K C26K 1_555 1_555
H22K C32K 1_555 1_555
H23K C32K 1_555 1_555
H24K C32K 1_555 1_555
C33K C25K 1_555 1_555
H25K C33K 1_555 1_555
H26K C33K 1_555 1_555
H27K C33K 1_555 1_555
C34K C27K 1_555 1_555
H28K C34K 1_555 1_555
H29K C34K 1_555 1_555
H30K C34K 1_555 1_555
C35K C27K 1_555 1_555
H31K C35K 1_555 1_555
H32K C35K 1_555 1_555
H33K C35K 1_555 1_555
C36K C26K 1_555 1_555
H34K C36K 1_555 1_555
H35K C36K 1_555 1_555
H36K C36K 1_555 1_555
Pd1B O5C 1_555 1_555
Pd2B O10C 1_555 1_555
Ni1B O11C 1_555 1_555
Ni2B O9C 1_555 1_555
O1B Pd1B 1_555 1_555
O2B Pd1B 1_555 1_555
O3B Pd2B 1_555 1_555
O4B Pd1B 1_555 1_555
O5B Pd1A 1_555 1_555
O6B Ni1B 1_555 1_555
O7B Ni2B 1_555 1_555
O8B Ni2B 1_555 1_555
O9B Ni2A 1_555 1_555
O10B Pd2A 1_555 1_555
O11B Ni1A 1_555 1_555
O12B Ni2B 1_555 1_555
O13B Ni2B 1_555 1_555
C1B O2B 1_555 1_555
C2B O3B 1_555 1_555
O14B Ni1B 1_555 1_555
C3B O1B 1_555 1_555
C4B O10B 1_555 1_555
C5B O4B 1_555 1_555
C6B H1B 1_555 1_555
C7B H2B 1_555 1_555
C8B C3B 1_555 1_555
C9B C5B 1_555 1_555
C10B C2B 1_555 1_555
C11B C9B 1_555 1_555
H3B C11B 1_555 1_555
C12B C8B 1_555 1_555
H4B C12B 1_555 1_555
C13B H5B 1_555 1_555
C14B C4B 1_555 1_555
C15B C1B 1_555 1_555
C16B C7B 1_555 1_555
C17B C16B 1_555 1_555
H6B C17B 1_555 1_555
C18B C14B 1_555 1_555
H7B C18B 1_555 1_555
C19B C10B 1_555 1_555
H8B C19B 1_555 1_555
C20B C15B 1_555 1_555
H9B C20B 1_555 1_555
C21B C18B 1_555 1_555
C22B C11B 1_555 1_555
C23B C12B 1_555 1_555
C24B O5B 1_555 1_555
C25B C23B 1_555 1_555
C26B C22B 1_555 1_555
C27B C21B 1_555 1_555
C28B C25B 1_555 1_555
H10B C28B 1_555 1_555
H11B C28B 1_555 1_555
H12B C28B 1_555 1_555
C29B C25B 1_555 1_555
H13B C29B 1_555 1_555
H14B C29B 1_555 1_555
H15B C29B 1_555 1_555
C30B C27B 1_555 1_555
H16B C30B 1_555 1_555
H17B C30B 1_555 1_555
H18B C30B 1_555 1_555
C31B C26B 1_555 1_555
H19B C31B 1_555 1_555
H20B C31B 1_555 1_555
H21B C31B 1_555 1_555
C32B C26B 1_555 1_555
H22B C32B 1_555 1_555
H23B C32B 1_555 1_555
H24B C32B 1_555 1_555
C33B C25B 1_555 1_555
H25B C33B 1_555 1_555
H26B C33B 1_555 1_555
H27B C33B 1_555 1_555
C34B C27B 1_555 1_555
H28B C34B 1_555 1_555
H29B C34B 1_555 1_555
H30B C34B 1_555 1_555
C35B C27B 1_555 1_555
H31B C35B 1_555 1_555
H32B C35B 1_555 1_555
H33B C35B 1_555 1_555
C36B C26B 1_555 1_555
H34B C36B 1_555 1_555
H35B C36B 1_555 1_555
H36B C36B 1_555 1_555
Pd1H O5I 1_555 1_555
Ni2H O9I 1_555 1_555
O1H Pd1H 1_555 1_555
O2H Pd1H 1_555 1_555
O3H Pd2B 1_555 1_555
O4H Pd1H 1_555 1_555
O5H Pd1K 1_555 1_555
O6H Ni1B 1_555 1_555
O7H Ni2H 1_555 1_555
O8H Ni2H 1_555 1_555
O9H Ni2K 1_555 1_555
O10H Pd2A 1_555 1_555
O11H Ni1A 1_555 1_555
O12H Ni2H 1_555 1_555
O13H Ni2H 1_555 1_555
C1H O2H 1_555 1_555
C2H O3H 1_555 1_555
C3H O1H 1_555 1_555
C4H O10H 1_555 1_555
C5H O4H 1_555 1_555
C6H H1H 1_555 1_555
C7H H2H 1_555 1_555
C8H C3H 1_555 1_555
C9H C5H 1_555 1_555
C10H C2H 1_555 1_555
C11H C9H 1_555 1_555
H3H C11H 1_555 1_555
C12H C8H 1_555 1_555
H4H C12H 1_555 1_555
C13H H5H 1_555 1_555
C14H C4H 1_555 1_555
C15H C1H 1_555 1_555
C16H C7H 1_555 1_555
C17H C16H 1_555 1_555
H6H C17H 1_555 1_555
C18H C14H 1_555 1_555
H7H C18H 1_555 1_555
C19H C10H 1_555 1_555
H8H C19H 1_555 1_555
C20H C15H 1_555 1_555
H9H C20H 1_555 1_555
C21H C18H 1_555 1_555
C22H C11H 1_555 1_555
C23H C12H 1_555 1_555
C24H O5H 1_555 1_555
C25H C23H 1_555 1_555
C26H C22H 1_555 1_555
C27H C21H 1_555 1_555
C28H C25H 1_555 1_555
H10H C28H 1_555 1_555
H11H C28H 1_555 1_555
H12H C28H 1_555 1_555
C29H C25H 1_555 1_555
H13H C29H 1_555 1_555
H14H C29H 1_555 1_555
H15H C29H 1_555 1_555
C30H C27H 1_555 1_555
H16H C30H 1_555 1_555
H17H C30H 1_555 1_555
H18H C30H 1_555 1_555
C31H C26H 1_555 1_555
H19H C31H 1_555 1_555
H20H C31H 1_555 1_555
H21H C31H 1_555 1_555
C32H C26H 1_555 1_555
H22H C32H 1_555 1_555
H23H C32H 1_555 1_555
H24H C32H 1_555 1_555
C33H C25H 1_555 1_555
H25H C33H 1_555 1_555
H26H C33H 1_555 1_555
H27H C33H 1_555 1_555
C34H C27H 1_555 1_555
H28H C34H 1_555 1_555
H29H C34H 1_555 1_555
H30H C34H 1_555 1_555
C35H C27H 1_555 1_555
H31H C35H 1_555 1_555
H32H C35H 1_555 1_555
H33H C35H 1_555 1_555
C36H C26H 1_555 1_555
H34H C36H 1_555 1_555
H35H C36H 1_555 1_555
H36H C36H 1_555 1_555
O12 C5 1_555 1_555
C6 C9 1_555 1_555
C7 C8 1_555 1_555
C13 C15 1_555 1_555
C17 C23 1_555 1_555
C19 C22 1_555 1_555
C20 C21 1_555 1_555
O9A C24A 1_555 1_555
O11A C4A 1_555 1_555
O12A C5A 1_555 1_555
C6A C9A 1_555 1_555
C7A C8A 1_555 1_555
C13A C14A 1_555 1_555
C13A C15A 1_555 1_555
C16A C24A 1_555 1_555
C17A C23A 1_555 1_555
C19A C22A 1_555 1_555
C20A C21A 1_555 1_555
O6C C2C 1_555 1_555
O7C C1C 1_555 1_555
O8C C3C 1_555 1_555
O12C C5C 1_555 1_555
C6C C9C 1_555 1_555
C6C C10C 1_555 1_555
C7C C8C 1_555 1_555
C13C C15C 1_555 1_555
C17C C23C 1_555 1_555
C19C C22C 1_555 1_555
C20C C21C 1_555 1_555
O6I C2I 1_555 1_555
O10I Pd2B 1_555 1_555
O11I Ni1B 1_555 1_555
O12I C5I 1_555 1_555
C6I C9I 1_555 1_555
C6I C10I 1_555 1_555
C7I C8I 1_555 1_555
C13I C15I 1_555 1_555
C17I C23I 1_555 1_555
C19I C22I 1_555 1_555
C20I C21I 1_555 1_555
O6J C2J 1_555 1_555
O9J C24J 1_555 1_555
O11J C4J 1_555 1_555
O12J C5J 1_555 1_555
C6J C9J 1_555 1_555
C6J C10J 1_555 1_555
C7J C8J 1_555 1_555
C13J C14J 1_555 1_555
C13J C15J 1_555 1_555
C16J C24J 1_555 1_555
C17J C23J 1_555 1_555
C19J C22J 1_555 1_555
C20J C21J 1_555 1_555
O6K C2K 1_555 1_555
O9K C24K 1_555 1_555
O11K C4K 1_555 1_555
O12K C5K 1_555 1_555
C6K C9K 1_555 1_555
C6K C10K 1_555 1_555
C7K C8K 1_555 1_555
C13K C14K 1_555 1_555
C13K C15K 1_555 1_555
C16K C24K 1_555 1_555
C17K C23K 1_555 1_555
C19K C22K 1_555 1_555
C20K C21K 1_555 1_555
O6B C2B 1_555 1_555
O7B C1B 1_555 1_555
O8B C3B 1_555 1_555
O9B C24B 1_555 1_555
O11B C4B 1_555 1_555
O12B C5B 1_555 1_555
C6B C9B 1_555 1_555
C6B C10B 1_555 1_555
C7B C8B 1_555 1_555
C13B C14B 1_555 1_555
C13B C15B 1_555 1_555
C16B C24B 1_555 1_555
C17B C23B 1_555 1_555
C19B C22B 1_555 1_555
C20B C21B 1_555 1_555
O6H C2H 1_555 1_555
O7H C1H 1_555 1_555
O8H C3H 1_555 1_555
O9H C24H 1_555 1_555
O11H C4H 1_555 1_555
O12H C5H 1_555 1_555
C6H C9H 1_555 1_555
C6H C10H 1_555 1_555
C7H C8H 1_555 1_555
C13H C14H 1_555 1_555
C13H C15H 1_555 1_555
C16H C24H 1_555 1_555
C17H C23H 1_555 1_555
C19H C22H 1_555 1_555
C20H C21H 1_555 1_555

#END
