# generated using pymatgen
data_NiH42Pd(C12O5)2
_symmetry_space_group_name_H-M   'P 1'
_cell_length_a   29.17400000
_cell_length_b   29.17400000
_cell_length_c   29.18734387
_cell_angle_alpha   119.98487776
_cell_angle_beta   119.98487776
_cell_angle_gamma   90.00000000
_symmetry_Int_Tables_number   1
_chemical_formula_structural   NiH42Pd(C12O5)2
_chemical_formula_sum   'Ni12 H504 Pd12.0 C288 O120'
_cell_volume   17573.97275485
_cell_formula_units_Z   12
loop_
 _symmetry_equiv_pos_site_id
 _symmetry_equiv_pos_as_xyz
  1  'x, y, z'
loop_
 _atom_site_type_symbol
 _atom_site_label
 _atom_site_symmetry_multiplicity
 _atom_site_fract_x
 _atom_site_fract_y
 _atom_site_fract_z
 _atom_site_occupancy
  C  C1  1  0.622690  0.996860  0.740800  1.0
  C  C2  1  0.996860  0.118110  0.740800  1.0
  C  C3  1  0.118110  0.743940  0.740800  1.0
  C  C4  1  0.743940  0.622690  0.740800  1.0
  C  C5  1  0.377310  0.003140  0.259200  1.0
  C  C6  1  0.003140  0.881890  0.259200  1.0
  C  C7  1  0.881890  0.256060  0.259200  1.0
  C  C8  1  0.256060  0.377310  0.259200  1.0
  C  C9  1  0.866120  0.269730  0.910360  1.0
  C  C10  1  0.269730  0.044240  0.910360  1.0
  C  C11  1  0.044240  0.640630  0.910360  1.0
  C  C12  1  0.640630  0.866120  0.910360  1.0
  C  C13  1  0.133880  0.730270  0.089640  1.0
  C  C14  1  0.730270  0.955760  0.089640  1.0
  C  C15  1  0.955760  0.359370  0.089640  1.0
  C  C16  1  0.359370  0.133880  0.089640  1.0
  C  C17  1  0.625920  0.877320  0.616680  1.0
  C  C18  1  0.877320  0.990760  0.616680  1.0
  C  C19  1  0.990760  0.739360  0.616680  1.0
  C  C20  1  0.739360  0.625920  0.616680  1.0
  C  C21  1  0.374080  0.122680  0.383320  1.0
  C  C22  1  0.122680  0.009240  0.383320  1.0
  C  C23  1  0.009240  0.260640  0.383320  1.0
  C  C24  1  0.260640  0.374080  0.383320  1.0
  C  C25  1  0.630200  0.990840  0.911680  1.0
  C  C26  1  0.990840  0.281480  0.911680  1.0
  C  C27  1  0.281480  0.920840  0.911680  1.0
  C  C28  1  0.920840  0.630200  0.911680  1.0
  C  C29  1  0.369800  0.009160  0.088320  1.0
  C  C30  1  0.009160  0.718520  0.088320  1.0
  C  C31  1  0.718520  0.079160  0.088320  1.0
  C  C32  1  0.079160  0.369800  0.088320  1.0
  C  C33  1  0.703030  0.092490  0.739220  1.0
  C  C34  1  0.092490  0.036190  0.739220  1.0
  C  C35  1  0.036190  0.646730  0.739220  1.0
  C  C36  1  0.646730  0.703030  0.739220  1.0
  C  C37  1  0.296970  0.907510  0.260780  1.0
  C  C38  1  0.907510  0.963810  0.260780  1.0
  C  C39  1  0.963810  0.353270  0.260780  1.0
  C  C40  1  0.353270  0.296970  0.260780  1.0
  C  C41  1  0.783470  0.182980  0.826660  1.0
  C  C42  1  0.182980  0.043190  0.826660  1.0
  C  C43  1  0.043190  0.643680  0.826660  1.0
  C  C44  1  0.643680  0.783470  0.826660  1.0
  C  C45  1  0.216530  0.817020  0.173340  1.0
  C  C46  1  0.817020  0.956810  0.173340  1.0
  C  C47  1  0.956810  0.356320  0.173340  1.0
  C  C48  1  0.356320  0.216530  0.173340  1.0
  C  C49  1  0.633760  0.790860  0.613900  1.0
  C  C50  1  0.790860  0.980140  0.613900  1.0
  C  C51  1  0.980140  0.823040  0.613900  1.0
  C  C52  1  0.823040  0.633760  0.613900  1.0
  C  C53  1  0.366240  0.209140  0.386100  1.0
  C  C54  1  0.209140  0.019860  0.386100  1.0
  C  C55  1  0.019860  0.176960  0.386100  1.0
  C  C56  1  0.176960  0.366240  0.386100  1.0
  C  C57  1  0.604670  0.816240  0.584140  1.0
  C  C58  1  0.816240  0.979470  0.584140  1.0
  C  C59  1  0.979470  0.767900  0.584140  1.0
  C  C60  1  0.767900  0.604670  0.584140  1.0
  C  C61  1  0.395330  0.183760  0.415860  1.0
  C  C62  1  0.183760  0.020530  0.415860  1.0
  C  C63  1  0.020530  0.232100  0.415860  1.0
  C  C64  1  0.232100  0.395330  0.415860  1.0
  C  C65  1  0.726430  0.153460  0.773660  1.0
  C  C66  1  0.153460  0.047230  0.773660  1.0
  C  C67  1  0.047230  0.620200  0.773660  1.0
  C  C68  1  0.620200  0.726430  0.773660  1.0
  C  C69  1  0.273570  0.846540  0.226340  1.0
  C  C70  1  0.846540  0.952770  0.226340  1.0
  C  C71  1  0.952770  0.379800  0.226340  1.0
  C  C72  1  0.379800  0.273570  0.226340  1.0
  C  C73  1  0.807030  0.239480  0.856460  1.0
  C  C74  1  0.239480  0.049430  0.856460  1.0
  C  C75  1  0.049430  0.616980  0.856460  1.0
  C  C76  1  0.616980  0.807030  0.856460  1.0
  C  C77  1  0.192970  0.760520  0.143540  1.0
  C  C78  1  0.760520  0.950570  0.143540  1.0
  C  C79  1  0.950570  0.383020  0.143540  1.0
  C  C80  1  0.383020  0.192970  0.143540  1.0
  C  C81  1  0.693700  0.183000  0.753400  1.0
  C  C82  1  0.183000  0.059700  0.753400  1.0
  C  C83  1  0.059700  0.570400  0.753400  1.0
  C  C84  1  0.570400  0.693700  0.753400  1.0
  C  C85  1  0.306300  0.817000  0.246600  1.0
  C  C86  1  0.817000  0.940300  0.246600  1.0
  C  C87  1  0.940300  0.429600  0.246600  1.0
  C  C88  1  0.429600  0.306300  0.246600  1.0
  C  C89  1  0.553810  0.783710  0.523020  1.0
  C  C90  1  0.783710  0.969210  0.523020  1.0
  C  C91  1  0.969210  0.739310  0.523020  1.0
  C  C92  1  0.739310  0.553810  0.523020  1.0
  C  C93  1  0.446190  0.216290  0.476980  1.0
  C  C94  1  0.216290  0.030790  0.476980  1.0
  C  C95  1  0.030790  0.260690  0.476980  1.0
  C  C96  1  0.260690  0.446190  0.476980  1.0
  C  C97  1  0.626440  0.996990  0.827720  1.0
  C  C98  1  0.996990  0.201280  0.827720  1.0
  C  C99  1  0.201280  0.830730  0.827720  1.0
  C  C100  1  0.830730  0.626440  0.827720  1.0
  C  C101  1  0.373560  0.003010  0.172280  1.0
  C  C102  1  0.003010  0.798720  0.172280  1.0
  C  C103  1  0.798720  0.169270  0.172280  1.0
  C  C104  1  0.169270  0.373560  0.172280  1.0
  C  C105  1  0.601590  0.998960  0.859520  1.0
  C  C106  1  0.998960  0.257930  0.859520  1.0
  C  C107  1  0.257930  0.860560  0.859520  1.0
  C  C108  1  0.860560  0.601590  0.859520  1.0
  C  C109  1  0.398410  0.001040  0.140480  1.0
  C  C110  1  0.001040  0.742070  0.140480  1.0
  C  C111  1  0.742070  0.139440  0.140480  1.0
  C  C112  1  0.139440  0.398410  0.140480  1.0
  C  C113  1  0.598280  0.001720  0.776440  1.0
  C  C114  1  0.001720  0.178160  0.776440  1.0
  C  C115  1  0.178160  0.774720  0.776440  1.0
  C  C116  1  0.774720  0.598280  0.776440  1.0
  C  C117  1  0.401720  0.998280  0.223560  1.0
  C  C118  1  0.998280  0.821840  0.223560  1.0
  C  C119  1  0.821840  0.225280  0.223560  1.0
  C  C120  1  0.225280  0.401720  0.223560  1.0
  C  C121  1  0.612340  0.733510  0.583280  1.0
  C  C122  1  0.733510  0.970940  0.583280  1.0
  C  C123  1  0.970940  0.849770  0.583280  1.0
  C  C124  1  0.849770  0.612340  0.583280  1.0
  C  C125  1  0.387660  0.266490  0.416720  1.0
  C  C126  1  0.266490  0.029060  0.416720  1.0
  C  C127  1  0.029060  0.150230  0.416720  1.0
  C  C128  1  0.150230  0.387660  0.416720  1.0
  C  C129  1  0.561680  0.701080  0.521360  1.0
  C  C130  1  0.701080  0.959680  0.521360  1.0
  C  C131  1  0.959680  0.820280  0.521360  1.0
  C  C132  1  0.820280  0.561680  0.521360  1.0
  C  C133  1  0.438320  0.298920  0.478640  1.0
  C  C134  1  0.298920  0.040320  0.478640  1.0
  C  C135  1  0.040320  0.179720  0.478640  1.0
  C  C136  1  0.179720  0.438320  0.478640  1.0
  C  C137  1  0.550800  0.008500  0.840600  1.0
  C  C138  1  0.008500  0.289800  0.840600  1.0
  C  C139  1  0.289800  0.832100  0.840600  1.0
  C  C140  1  0.832100  0.550800  0.840600  1.0
  C  C141  1  0.449200  0.991500  0.159400  1.0
  C  C142  1  0.991500  0.710200  0.159400  1.0
  C  C143  1  0.710200  0.167900  0.159400  1.0
  C  C144  1  0.167900  0.449200  0.159400  1.0
  C  C145  1  0.771870  0.267550  0.834940  1.0
  C  C146  1  0.267550  0.063070  0.834940  1.0
  C  C147  1  0.063070  0.567390  0.834940  1.0
  C  C148  1  0.567390  0.771870  0.834940  1.0
  C  C149  1  0.228130  0.732450  0.165060  1.0
  C  C150  1  0.732450  0.936930  0.165060  1.0
  C  C151  1  0.936930  0.432610  0.165060  1.0
  C  C152  1  0.432610  0.228130  0.165060  1.0
  C  C153  1  0.546900  0.012600  0.759400  1.0
  C  C154  1  0.012600  0.212500  0.759400  1.0
  C  C155  1  0.212500  0.746800  0.759400  1.0
  C  C156  1  0.746800  0.546900  0.759400  1.0
  C  C157  1  0.453100  0.987400  0.240600  1.0
  C  C158  1  0.987400  0.787500  0.240600  1.0
  C  C159  1  0.787500  0.253200  0.240600  1.0
  C  C160  1  0.253200  0.453100  0.240600  1.0
  C  C161  1  0.521400  0.013200  0.789600  1.0
  C  C162  1  0.013200  0.268200  0.789600  1.0
  C  C163  1  0.268200  0.776400  0.789600  1.0
  C  C164  1  0.776400  0.521400  0.789600  1.0
  C  C165  1  0.478600  0.986800  0.210400  1.0
  C  C166  1  0.986800  0.731800  0.210400  1.0
  C  C167  1  0.731800  0.223600  0.210400  1.0
  C  C168  1  0.223600  0.478600  0.210400  1.0
  C  C169  1  0.714900  0.241800  0.785200  1.0
  C  C170  1  0.241800  0.070300  0.785200  1.0
  C  C171  1  0.070300  0.543400  0.785200  1.0
  C  C172  1  0.543400  0.714900  0.785200  1.0
  C  C173  1  0.285100  0.758200  0.214800  1.0
  C  C174  1  0.758200  0.929700  0.214800  1.0
  C  C175  1  0.929700  0.456600  0.214800  1.0
  C  C176  1  0.456600  0.285100  0.214800  1.0
  C  C177  1  0.530900  0.724500  0.489600  1.0
  C  C178  1  0.724500  0.958700  0.489600  1.0
  C  C179  1  0.958700  0.765100  0.489600  1.0
  C  C180  1  0.765100  0.530900  0.489600  1.0
  C  C181  1  0.469100  0.275500  0.510400  1.0
  C  C182  1  0.275500  0.041300  0.510400  1.0
  C  C183  1  0.041300  0.234900  0.510400  1.0
  C  C184  1  0.234900  0.469100  0.510400  1.0
  C  C185  1  0.641410  0.707150  0.614820  1.0
  C  C186  1  0.707150  0.973410  0.614820  1.0
  C  C187  1  0.973410  0.907670  0.614820  1.0
  C  C188  1  0.907670  0.641410  0.614820  1.0
  C  C189  1  0.358590  0.292850  0.385180  1.0
  C  C190  1  0.292850  0.026590  0.385180  1.0
  C  C191  1  0.026590  0.092330  0.385180  1.0
  C  C192  1  0.092330  0.358590  0.385180  1.0
  C  C193  1  0.477200  0.690800  0.422000  1.0
  C  C194  1  0.690800  0.944800  0.422000  1.0
  C  C195  1  0.944800  0.731200  0.422000  1.0
  C  C196  1  0.731200  0.477200  0.422000  1.0
  C  C197  1  0.522800  0.309200  0.578000  1.0
  C  C198  1  0.309200  0.055200  0.578000  1.0
  C  C199  1  0.055200  0.268800  0.578000  1.0
  C  C200  1  0.268800  0.522800  0.578000  1.0
  C  C201  1  0.679900  0.276600  0.767600  1.0
  C  C202  1  0.276600  0.087700  0.767600  1.0
  C  C203  1  0.087700  0.491000  0.767600  1.0
  C  C204  1  0.491000  0.679900  0.767600  1.0
  C  C205  1  0.320100  0.723400  0.232400  1.0
  C  C206  1  0.723400  0.912300  0.232400  1.0
  C  C207  1  0.912300  0.509000  0.232400  1.0
  C  C208  1  0.509000  0.320100  0.232400  1.0
  C  C209  1  0.464800  0.022000  0.766000  1.0
  C  C210  1  0.022000  0.301200  0.766000  1.0
  C  C211  1  0.301200  0.744000  0.766000  1.0
  C  C212  1  0.744000  0.464800  0.766000  1.0
  C  C213  1  0.535200  0.978000  0.234000  1.0
  C  C214  1  0.978000  0.698800  0.234000  1.0
  C  C215  1  0.698800  0.256000  0.234000  1.0
  C  C216  1  0.256000  0.535200  0.234000  1.0
  C  C217  1  0.471800  0.631200  0.385600  1.0
  C  C218  1  0.631200  0.913800  0.385600  1.0
  C  C219  1  0.913800  0.754400  0.385600  1.0
  C  C220  1  0.754400  0.471800  0.385600  1.0
  C  C221  1  0.528200  0.368800  0.614400  1.0
  C  C222  1  0.368800  0.086200  0.614400  1.0
  C  C223  1  0.086200  0.245600  0.614400  1.0
  C  C224  1  0.245600  0.528200  0.614400  1.0
  C  C225  1  0.480200  0.703500  0.379000  1.0
  C  C226  1  0.703500  0.898800  0.379000  1.0
  C  C227  1  0.898800  0.675500  0.379000  1.0
  C  C228  1  0.675500  0.480200  0.379000  1.0
  C  C229  1  0.519800  0.296500  0.621000  1.0
  C  C230  1  0.296500  0.101200  0.621000  1.0
  C  C231  1  0.101200  0.324500  0.621000  1.0
  C  C232  1  0.324500  0.519800  0.621000  1.0
  C  C233  1  0.458400  0.066600  0.753800  1.0
  C  C234  1  0.066600  0.295400  0.753800  1.0
  C  C235  1  0.295400  0.687200  0.753800  1.0
  C  C236  1  0.687200  0.458400  0.753800  1.0
  C  C237  1  0.541600  0.933400  0.246200  1.0
  C  C238  1  0.933400  0.704600  0.246200  1.0
  C  C239  1  0.704600  0.312800  0.246200  1.0
  C  C240  1  0.312800  0.541600  0.246200  1.0
  C  C241  1  0.620500  0.243900  0.724200  1.0
  C  C242  1  0.243900  0.103700  0.724200  1.0
  C  C243  1  0.103700  0.480300  0.724200  1.0
  C  C244  1  0.480300  0.620500  0.724200  1.0
  C  C245  1  0.379500  0.756100  0.275800  1.0
  C  C246  1  0.756100  0.896300  0.275800  1.0
  C  C247  1  0.896300  0.519700  0.275800  1.0
  C  C248  1  0.519700  0.379500  0.275800  1.0
  C  C249  1  0.704600  0.308200  0.759600  1.0
  C  C250  1  0.308200  0.055000  0.759600  1.0
  C  C251  1  0.055000  0.451400  0.759600  1.0
  C  C252  1  0.451400  0.704600  0.759600  1.0
  C  C253  1  0.295400  0.691800  0.240400  1.0
  C  C254  1  0.691800  0.945000  0.240400  1.0
  C  C255  1  0.945000  0.548600  0.240400  1.0
  C  C256  1  0.548600  0.295400  0.240400  1.0
  C  C257  1  0.433100  0.715300  0.429600  1.0
  C  C258  1  0.715300  0.996500  0.429600  1.0
  C  C259  1  0.996500  0.714300  0.429600  1.0
  C  C260  1  0.714300  0.433100  0.429600  1.0
  C  C261  1  0.566900  0.284700  0.570400  1.0
  C  C262  1  0.284700  0.003500  0.570400  1.0
  C  C263  1  0.003500  0.285700  0.570400  1.0
  C  C264  1  0.285700  0.566900  0.570400  1.0
  C  C265  1  0.422100  0.971900  0.689000  1.0
  C  C266  1  0.971900  0.266900  0.689000  1.0
  C  C267  1  0.266900  0.717100  0.689000  1.0
  C  C268  1  0.717100  0.422100  0.689000  1.0
  C  C269  1  0.577900  0.028100  0.311000  1.0
  C  C270  1  0.028100  0.733100  0.311000  1.0
  C  C271  1  0.733100  0.282900  0.311000  1.0
  C  C272  1  0.282900  0.577900  0.311000  1.0
  C  C273  1  0.431100  0.988100  0.770600  1.0
  C  C274  1  0.988100  0.339500  0.770600  1.0
  C  C275  1  0.339500  0.782500  0.770600  1.0
  C  C276  1  0.782500  0.431100  0.770600  1.0
  C  C277  1  0.568900  0.011900  0.229400  1.0
  C  C278  1  0.011900  0.660500  0.229400  1.0
  C  C279  1  0.660500  0.217500  0.229400  1.0
  C  C280  1  0.217500  0.568900  0.229400  1.0
  C  C281  1  0.686000  0.325800  0.825600  1.0
  C  C282  1  0.325800  0.139600  0.825600  1.0
  C  C283  1  0.139600  0.499800  0.825600  1.0
  C  C284  1  0.499800  0.686000  0.825600  1.0
  C  C285  1  0.314000  0.674200  0.174400  1.0
  C  C286  1  0.674200  0.860400  0.174400  1.0
  C  C287  1  0.860400  0.500200  0.174400  1.0
  C  C288  1  0.500200  0.314000  0.174400  1.0
  H  H289  1  0.744300  0.327900  0.796200  1
  H  H290  1  0.327900  0.051900  0.796200  1
  H  H291  1  0.051900  0.468300  0.796200  1
  H  H292  1  0.468300  0.744300  0.796200  1
  H  H293  1  0.255700  0.672100  0.203800  1
  H  H294  1  0.672100  0.948100  0.203800  1
  H  H295  1  0.948100  0.531700  0.203800  1
  H  H296  1  0.531700  0.255700  0.203800  1
  H  H297  1  0.685900  0.335600  0.757400  1
  H  H298  1  0.335600  0.071500  0.757400  1
  H  H299  1  0.071500  0.421800  0.757400  1
  H  H300  1  0.421800  0.685900  0.757400  1
  H  H301  1  0.314100  0.664400  0.242600  1
  H  H302  1  0.664400  0.928500  0.242600  1
  H  H303  1  0.928500  0.578200  0.242600  1
  H  H304  1  0.578200  0.314100  0.242600  1
  H  H305  1  0.701700  0.284000  0.719200  1
  H  H306  1  0.284000  0.017500  0.719200  1
  H  H307  1  0.017500  0.435200  0.719200  1
  H  H308  1  0.435200  0.701700  0.719200  1
  H  H309  1  0.298300  0.716000  0.280800  1
  H  H310  1  0.716000  0.982500  0.280800  1
  H  H311  1  0.982500  0.564800  0.280800  1
  H  H312  1  0.564800  0.298300  0.280800  1
  H  H313  1  0.603100  0.244000  0.685600  1
  H  H314  1  0.244000  0.082500  0.685600  1
  H  H315  1  0.082500  0.441600  0.685600  1
  H  H316  1  0.441600  0.603100  0.685600  1
  H  H317  1  0.396900  0.756000  0.314400  1
  H  H318  1  0.756000  0.917500  0.314400  1
  H  H319  1  0.917500  0.558400  0.314400  1
  H  H320  1  0.558400  0.396900  0.314400  1
  H  H321  1  0.602400  0.260700  0.746400  1
  H  H322  1  0.260700  0.144000  0.746400  1
  H  H323  1  0.144000  0.485700  0.746400  1
  H  H324  1  0.485700  0.602400  0.746400  1
  H  H325  1  0.397600  0.739300  0.253600  1
  H  H326  1  0.739300  0.856000  0.253600  1
  H  H327  1  0.856000  0.514300  0.253600  1
  H  H328  1  0.514300  0.397600  0.253600  1
  H  H329  1  0.616100  0.205300  0.711600  1
  H  H330  1  0.205300  0.095500  0.711600  1
  H  H331  1  0.095500  0.506300  0.711600  1
  H  H332  1  0.506300  0.616100  0.711600  1
  H  H333  1  0.383900  0.794700  0.288400  1
  H  H334  1  0.794700  0.904500  0.288400  1
  H  H335  1  0.904500  0.493700  0.288400  1
  H  H336  1  0.493700  0.383900  0.288400  1
  H  H337  1  0.725300  0.350000  0.858000  1
  H  H338  1  0.350000  0.132700  0.858000  1
  H  H339  1  0.132700  0.508000  0.858000  1
  H  H340  1  0.508000  0.725300  0.858000  1
  H  H341  1  0.274700  0.650000  0.142000  1
  H  H342  1  0.650000  0.867300  0.142000  1
  H  H343  1  0.867300  0.492000  0.142000  1
  H  H344  1  0.492000  0.274700  0.142000  1
  H  H345  1  0.673800  0.312600  0.844000  1
  H  H346  1  0.312600  0.170200  0.844000  1
  H  H347  1  0.170200  0.531400  0.844000  1
  H  H348  1  0.531400  0.673800  0.844000  1
  H  H349  1  0.326200  0.687400  0.156000  1
  H  H350  1  0.687400  0.829800  0.156000  1
  H  H351  1  0.829800  0.468600  0.156000  1
  H  H352  1  0.468600  0.326200  0.156000  1
  H  H353  1  0.662700  0.347000  0.812800  1
  H  H354  1  0.347000  0.150100  0.812800  1
  H  H355  1  0.150100  0.465800  0.812800  1
  H  H356  1  0.465800  0.662700  0.812800  1
  H  H357  1  0.337300  0.653000  0.187200  1
  H  H358  1  0.653000  0.849900  0.187200  1
  H  H359  1  0.849900  0.534200  0.187200  1
  H  H360  1  0.534200  0.337300  0.187200  1
  H  H361  1  0.444800  0.957000  0.769000  1
  H  H362  1  0.957000  0.324200  0.769000  1
  H  H363  1  0.324200  0.812000  0.769000  1
  H  H364  1  0.812000  0.444800  0.769000  1
  H  H365  1  0.555200  0.043000  0.231000  1
  H  H366  1  0.043000  0.675800  0.231000  1
  H  H367  1  0.675800  0.188000  0.231000  1
  H  H368  1  0.188000  0.555200  0.231000  1
  H  H369  1  0.391500  0.973100  0.734200  1
  H  H370  1  0.973100  0.342700  0.734200  1
  H  H371  1  0.342700  0.761100  0.734200  1
  H  H372  1  0.761100  0.391500  0.734200  1
  H  H373  1  0.608500  0.026900  0.265800  1
  H  H374  1  0.026900  0.657300  0.265800  1
  H  H375  1  0.657300  0.238900  0.265800  1
  H  H376  1  0.238900  0.608500  0.265800  1
  H  H377  1  0.434800  0.011900  0.811400  1
  H  H378  1  0.011900  0.376600  0.811400  1
  H  H379  1  0.376600  0.799500  0.811400  1
  H  H380  1  0.799500  0.434800  0.811400  1
  H  H381  1  0.565200  0.988100  0.188600  1
  H  H382  1  0.988100  0.623400  0.188600  1
  H  H383  1  0.623400  0.200500  0.188600  1
  H  H384  1  0.200500  0.565200  0.188600  1
  H  H385  1  0.432600  0.083600  0.763200  1
  H  H386  1  0.083600  0.330600  0.763200  1
  H  H387  1  0.330600  0.679600  0.763200  1
  H  H388  1  0.679600  0.432600  0.763200  1
  H  H389  1  0.567400  0.916400  0.236800  1
  H  H390  1  0.916400  0.669400  0.236800  1
  H  H391  1  0.669400  0.320400  0.236800  1
  H  H392  1  0.320400  0.567400  0.236800  1
  H  H393  1  0.443400  0.049800  0.708400  1
  H  H394  1  0.049800  0.265000  0.708400  1
  H  H395  1  0.265000  0.658600  0.708400  1
  H  H396  1  0.658600  0.443400  0.708400  1
  H  H397  1  0.556600  0.950200  0.291600  1
  H  H398  1  0.950200  0.735000  0.291600  1
  H  H399  1  0.735000  0.341400  0.291600  1
  H  H400  1  0.341400  0.556600  0.291600  1
  H  H401  1  0.495000  0.095500  0.781800  1
  H  H402  1  0.095500  0.286800  0.781800  1
  H  H403  1  0.286800  0.686300  0.781800  1
  H  H404  1  0.686300  0.495000  0.781800  1
  H  H405  1  0.505000  0.904500  0.218200  1
  H  H406  1  0.904500  0.713200  0.218200  1
  H  H407  1  0.713200  0.313700  0.218200  1
  H  H408  1  0.313700  0.505000  0.218200  1
  H  H409  1  0.392500  0.947600  0.681800  1
  H  H410  1  0.947600  0.289300  0.681800  1
  H  H411  1  0.289300  0.734200  0.681800  1
  H  H412  1  0.734200  0.392500  0.681800  1
  H  H413  1  0.607500  0.052400  0.318200  1
  H  H414  1  0.052400  0.710700  0.318200  1
  H  H415  1  0.710700  0.265800  0.318200  1
  H  H416  1  0.265800  0.607500  0.318200  1
  H  H417  1  0.443000  0.949700  0.674200  1
  H  H418  1  0.949700  0.231200  0.674200  1
  H  H419  1  0.231200  0.724500  0.674200  1
  H  H420  1  0.724500  0.443000  0.674200  1
  H  H421  1  0.557000  0.050300  0.325800  1
  H  H422  1  0.050300  0.768800  0.325800  1
  H  H423  1  0.768800  0.275500  0.325800  1
  H  H424  1  0.275500  0.557000  0.325800  1
  H  H425  1  0.405100  0.988200  0.664800  1
  H  H426  1  0.988200  0.259700  0.664800  1
  H  H427  1  0.259700  0.676600  0.664800  1
  H  H428  1  0.676600  0.405100  0.664800  1
  H  H429  1  0.594900  0.011800  0.335200  1
  H  H430  1  0.011800  0.740300  0.335200  1
  H  H431  1  0.740300  0.323400  0.335200  1
  H  H432  1  0.323400  0.594900  0.335200  1
  H  H433  1  0.476500  0.669300  0.342800  1
  H  H434  1  0.669300  0.866300  0.342800  1
  H  H435  1  0.866300  0.673500  0.342800  1
  H  H436  1  0.673500  0.476500  0.342800  1
  H  H437  1  0.523500  0.330700  0.657200  1
  H  H438  1  0.330700  0.133700  0.657200  1
  H  H439  1  0.133700  0.326500  0.657200  1
  H  H440  1  0.326500  0.523500  0.657200  1
  H  H441  1  0.516300  0.732200  0.404200  1
  H  H442  1  0.732200  0.887900  0.404200  1
  H  H443  1  0.887900  0.672000  0.404200  1
  H  H444  1  0.672000  0.516300  0.404200  1
  H  H445  1  0.483700  0.267800  0.595800  1
  H  H446  1  0.267800  0.112100  0.595800  1
  H  H447  1  0.112100  0.328000  0.595800  1
  H  H448  1  0.328000  0.483700  0.595800  1
  H  H449  1  0.449700  0.717500  0.362400  1
  H  H450  1  0.717500  0.912700  0.362400  1
  H  H451  1  0.912700  0.644900  0.362400  1
  H  H452  1  0.644900  0.449700  0.362400  1
  H  H453  1  0.550300  0.282500  0.637600  1
  H  H454  1  0.282500  0.087300  0.637600  1
  H  H455  1  0.087300  0.355100  0.637600  1
  H  H456  1  0.355100  0.550300  0.637600  1
  H  H457  1  0.438100  0.611400  0.341200  1
  H  H458  1  0.611400  0.903100  0.341200  1
  H  H459  1  0.903100  0.729800  0.341200  1
  H  H460  1  0.729800  0.438100  0.341200  1
  H  H461  1  0.561900  0.388600  0.658800  1
  H  H462  1  0.388600  0.096900  0.658800  1
  H  H463  1  0.096900  0.270200  0.658800  1
  H  H464  1  0.270200  0.561900  0.658800  1
  H  H465  1  0.468800  0.614700  0.406600  1
  H  H466  1  0.614700  0.937800  0.406600  1
  H  H467  1  0.937800  0.791900  0.406600  1
  H  H468  1  0.791900  0.468800  0.406600  1
  H  H469  1  0.531200  0.385300  0.593400  1
  H  H470  1  0.385300  0.062200  0.593400  1
  H  H471  1  0.062200  0.208100  0.593400  1
  H  H472  1  0.208100  0.531200  0.593400  1
  H  H473  1  0.504900  0.627900  0.385000  1
  H  H474  1  0.627900  0.880100  0.385000  1
  H  H475  1  0.880100  0.757100  0.385000  1
  H  H476  1  0.757100  0.504900  0.385000  1
  H  H477  1  0.495100  0.372100  0.615000  1
  H  H478  1  0.372100  0.119900  0.615000  1
  H  H479  1  0.119900  0.242900  0.615000  1
  H  H480  1  0.242900  0.495100  0.615000  1
  H  H481  1  0.399900  0.684800  0.408200  1
  H  H482  1  0.684800  0.008300  0.408200  1
  H  H483  1  0.008300  0.723400  0.408200  1
  H  H484  1  0.723400  0.399900  0.408200  1
  H  H485  1  0.600100  0.315200  0.591800  1
  H  H486  1  0.315200  0.991700  0.591800  1
  H  H487  1  0.991700  0.276600  0.591800  1
  H  H488  1  0.276600  0.600100  0.591800  1
  H  H489  1  0.422500  0.735900  0.409800  1
  H  H490  1  0.735900  0.987300  0.409800  1
  H  H491  1  0.987300  0.673900  0.409800  1
  H  H492  1  0.673900  0.422500  0.409800  1
  H  H493  1  0.577500  0.264100  0.590200  1
  H  H494  1  0.264100  0.012700  0.590200  1
  H  H495  1  0.012700  0.326100  0.590200  1
  H  H496  1  0.326100  0.577500  0.590200  1
  H  H497  1  0.448700  0.741000  0.475800  1
  H  H498  1  0.741000  0.027100  0.475800  1
  H  H499  1  0.027100  0.734800  0.475800  1
  H  H500  1  0.734800  0.448700  0.475800  1
  H  H501  1  0.551300  0.259000  0.524200  1
  H  H502  1  0.259000  0.972900  0.524200  1
  H  H503  1  0.972900  0.265200  0.524200  1
  H  H504  1  0.265200  0.551300  0.524200  1
  H  H505  1  0.805900  0.163800  0.842000  1.0
  H  H506  1  0.163800  0.036100  0.842000  1.0
  H  H507  1  0.036100  0.678200  0.842000  1.0
  H  H508  1  0.678200  0.805900  0.842000  1.0
  H  H509  1  0.194100  0.836200  0.158000  1.0
  H  H510  1  0.836200  0.963900  0.158000  1.0
  H  H511  1  0.963900  0.321800  0.158000  1.0
  H  H512  1  0.321800  0.194100  0.158000  1.0
  H  H513  1  0.668500  0.812800  0.655400  1.0
  H  H514  1  0.812800  0.986900  0.655400  1.0
  H  H515  1  0.986900  0.842600  0.655400  1.0
  H  H516  1  0.842600  0.668500  0.655400  1.0
  H  H517  1  0.331500  0.187200  0.344600  1.0
  H  H518  1  0.187200  0.013100  0.344600  1.0
  H  H519  1  0.013100  0.157400  0.344600  1.0
  H  H520  1  0.157400  0.331500  0.344600  1.0
  H  H521  1  0.655700  0.163000  0.717000  1.0
  H  H522  1  0.163000  0.061300  0.717000  1.0
  H  H523  1  0.061300  0.554000  0.717000  1.0
  H  H524  1  0.554000  0.655700  0.717000  1.0
  H  H525  1  0.344300  0.837000  0.283000  1.0
  H  H526  1  0.837000  0.938700  0.283000  1.0
  H  H527  1  0.938700  0.446000  0.283000  1.0
  H  H528  1  0.446000  0.344300  0.283000  1.0
  H  H529  1  0.533900  0.801300  0.503000  1.0
  H  H530  1  0.801300  0.969100  0.503000  1.0
  H  H531  1  0.969100  0.701700  0.503000  1.0
  H  H532  1  0.701700  0.533900  0.503000  1.0
  H  H533  1  0.466100  0.198700  0.497000  1.0
  H  H534  1  0.198700  0.030900  0.497000  1.0
  H  H535  1  0.030900  0.298300  0.497000  1.0
  H  H536  1  0.298300  0.466100  0.497000  1.0
  H  H537  1  0.662200  0.992500  0.841600  1.0
  H  H538  1  0.992500  0.179400  0.841600  1.0
  H  H539  1  0.179400  0.849100  0.841600  1.0
  H  H540  1  0.849100  0.662200  0.841600  1.0
  H  H541  1  0.337800  0.007500  0.158400  1.0
  H  H542  1  0.007500  0.820600  0.158400  1.0
  H  H543  1  0.820600  0.150900  0.158400  1.0
  H  H544  1  0.150900  0.337800  0.158400  1.0
  H  H545  1  0.548000  0.661800  0.500400  1.0
  H  H546  1  0.661800  0.952400  0.500400  1.0
  H  H547  1  0.952400  0.838600  0.500400  1.0
  H  H548  1  0.838600  0.548000  0.500400  1.0
  H  H549  1  0.452000  0.338200  0.499600  1.0
  H  H550  1  0.338200  0.047600  0.499600  1.0
  H  H551  1  0.047600  0.161400  0.499600  1.0
  H  H552  1  0.161400  0.452000  0.499600  1.0
  H  H553  1  0.535600  0.012100  0.864000  1.0
  H  H554  1  0.012100  0.328400  0.864000  1.0
  H  H555  1  0.328400  0.851900  0.864000  1.0
  H  H556  1  0.851900  0.535600  0.864000  1.0
  H  H557  1  0.464400  0.987900  0.136000  1.0
  H  H558  1  0.987900  0.671600  0.136000  1.0
  H  H559  1  0.671600  0.148100  0.136000  1.0
  H  H560  1  0.148100  0.464400  0.136000  1.0
  H  H561  1  0.788200  0.306400  0.855600  1.0
  H  H562  1  0.306400  0.067400  0.855600  1.0
  H  H563  1  0.067400  0.549200  0.855600  1.0
  H  H564  1  0.549200  0.788200  0.855600  1.0
  H  H565  1  0.211800  0.693600  0.144400  1.0
  H  H566  1  0.693600  0.932600  0.144400  1.0
  H  H567  1  0.932600  0.450800  0.144400  1.0
  H  H568  1  0.450800  0.211800  0.144400  1.0
  H  H569  1  0.529400  0.019500  0.727000  1.0
  H  H570  1  0.019500  0.197600  0.727000  1.0
  H  H571  1  0.197600  0.707500  0.727000  1.0
  H  H572  1  0.707500  0.529400  0.727000  1.0
  H  H573  1  0.470600  0.980500  0.273000  1.0
  H  H574  1  0.980500  0.802400  0.273000  1.0
  H  H575  1  0.802400  0.292500  0.273000  1.0
  H  H576  1  0.292500  0.470600  0.273000  1.0
  H  H577  1  0.503200  0.624600  0.414000  1.0
  H  H578  1  0.624600  0.910800  0.414000  1.0
  H  H579  1  0.910800  0.789400  0.414000  1.0
  H  H580  1  0.789400  0.503200  0.414000  1.0
  H  H581  1  0.496800  0.375400  0.586000  1.0
  H  H582  1  0.375400  0.089200  0.586000  1.0
  H  H583  1  0.089200  0.210600  0.586000  1.0
  H  H584  1  0.210600  0.496800  0.586000  1.0
  H  H585  1  0.472400  0.621300  0.348600  1.0
  H  H586  1  0.621300  0.876200  0.348600  1.0
  H  H587  1  0.876200  0.727300  0.348600  1.0
  H  H588  1  0.727300  0.472400  0.348600  1.0
  H  H589  1  0.527600  0.378700  0.651400  1.0
  H  H590  1  0.378700  0.123800  0.651400  1.0
  H  H591  1  0.123800  0.272700  0.651400  1.0
  H  H592  1  0.272700  0.527600  0.651400  1.0
  H  H593  1  0.436300  0.608100  0.370200  1.0
  H  H594  1  0.608100  0.933900  0.370200  1.0
  H  H595  1  0.933900  0.762100  0.370200  1.0
  H  H596  1  0.762100  0.436300  0.370200  1.0
  H  H597  1  0.563700  0.391900  0.629800  1.0
  H  H598  1  0.391900  0.066100  0.629800  1.0
  H  H599  1  0.066100  0.237900  0.629800  1.0
  H  H600  1  0.237900  0.563700  0.629800  1.0
  H  H601  1  0.485200  0.743400  0.396800  1.0
  H  H602  1  0.743400  0.911600  0.396800  1.0
  H  H603  1  0.911600  0.653400  0.396800  1.0
  H  H604  1  0.653400  0.485200  0.396800  1.0
  H  H605  1  0.514800  0.256600  0.603200  1.0
  H  H606  1  0.256600  0.088400  0.603200  1.0
  H  H607  1  0.088400  0.346600  0.603200  1.0
  H  H608  1  0.346600  0.514800  0.603200  1.0
  H  H609  1  0.445300  0.680500  0.335400  1.0
  H  H610  1  0.680500  0.890100  0.335400  1.0
  H  H611  1  0.890100  0.654900  0.335400  1.0
  H  H612  1  0.654900  0.445300  0.335400  1.0
  H  H613  1  0.554700  0.319500  0.664600  1.0
  H  H614  1  0.319500  0.109900  0.664600  1.0
  H  H615  1  0.109900  0.345100  0.664600  1.0
  H  H616  1  0.345100  0.554700  0.664600  1.0
  H  H617  1  0.512000  0.695100  0.377200  1.0
  H  H618  1  0.695100  0.865200  0.377200  1.0
  H  H619  1  0.865200  0.682100  0.377200  1.0
  H  H620  1  0.682100  0.512000  0.377200  1.0
  H  H621  1  0.488000  0.304900  0.622800  1.0
  H  H622  1  0.304900  0.134800  0.622800  1.0
  H  H623  1  0.134800  0.317900  0.622800  1.0
  H  H624  1  0.317900  0.488000  0.622800  1.0
  H  H625  1  0.481500  0.069000  0.739200  1.0
  H  H626  1  0.069000  0.257700  0.739200  1.0
  H  H627  1  0.257700  0.670200  0.739200  1.0
  H  H628  1  0.670200  0.481500  0.739200  1.0
  H  H629  1  0.518500  0.931000  0.260800  1.0
  H  H630  1  0.931000  0.742300  0.260800  1.0
  H  H631  1  0.742300  0.329800  0.260800  1.0
  H  H632  1  0.329800  0.518500  0.260800  1.0
  H  H633  1  0.470700  0.102900  0.794000  1.0
  H  H634  1  0.102900  0.323300  0.794000  1.0
  H  H635  1  0.323300  0.691100  0.794000  1.0
  H  H636  1  0.691100  0.470700  0.794000  1.0
  H  H637  1  0.529300  0.897100  0.206000  1.0
  H  H638  1  0.897100  0.676700  0.206000  1.0
  H  H639  1  0.676700  0.308900  0.206000  1.0
  H  H640  1  0.308900  0.529300  0.206000  1.0
  H  H641  1  0.418900  0.057100  0.720400  1.0
  H  H642  1  0.057100  0.301500  0.720400  1.0
  H  H643  1  0.301500  0.663300  0.720400  1.0
  H  H644  1  0.663300  0.418900  0.720400  1.0
  H  H645  1  0.581100  0.942900  0.279600  1.0
  H  H646  1  0.942900  0.698500  0.279600  1.0
  H  H647  1  0.698500  0.336700  0.279600  1.0
  H  H648  1  0.336700  0.581100  0.279600  1.0
  H  H649  1  0.611300  0.229300  0.743400  1.0
  H  H650  1  0.229300  0.132100  0.743400  1.0
  H  H651  1  0.132100  0.514100  0.743400  1.0
  H  H652  1  0.514100  0.611300  0.743400  1.0
  H  H653  1  0.388700  0.770700  0.256600  1.0
  H  H654  1  0.770700  0.867900  0.256600  1.0
  H  H655  1  0.867900  0.485900  0.256600  1.0
  H  H656  1  0.485900  0.388700  0.256600  1.0
  H  H657  1  0.612000  0.212600  0.682600  1.0
  H  H658  1  0.212600  0.070600  0.682600  1.0
  H  H659  1  0.070600  0.470000  0.682600  1.0
  H  H660  1  0.470000  0.612000  0.682600  1.0
  H  H661  1  0.388000  0.787400  0.317400  1.0
  H  H662  1  0.787400  0.929400  0.317400  1.0
  H  H663  1  0.929400  0.530000  0.317400  1.0
  H  H664  1  0.530000  0.388000  0.317400  1.0
  H  H665  1  0.598300  0.268000  0.717400  1.0
  H  H666  1  0.268000  0.119100  0.717400  1.0
  H  H667  1  0.119100  0.449400  0.717400  1.0
  H  H668  1  0.449400  0.598300  0.717400  1.0
  H  H669  1  0.401700  0.732000  0.282600  1.0
  H  H670  1  0.732000  0.880900  0.282600  1.0
  H  H671  1  0.880900  0.550600  0.282600  1.0
  H  H672  1  0.550600  0.401700  0.282600  1.0
  H  H673  1  0.677000  0.303700  0.719000  1.0
  H  H674  1  0.303700  0.042000  0.719000  1.0
  H  H675  1  0.042000  0.415300  0.719000  1.0
  H  H676  1  0.415300  0.677000  0.719000  1.0
  H  H677  1  0.323000  0.696300  0.281000  1.0
  H  H678  1  0.696300  0.958000  0.281000  1.0
  H  H679  1  0.958000  0.584700  0.281000  1.0
  H  H680  1  0.584700  0.323000  0.281000  1.0
  H  H681  1  0.735400  0.296000  0.757800  1.0
  H  H682  1  0.296000  0.022400  0.757800  1.0
  H  H683  1  0.022400  0.461800  0.757800  1.0
  H  H684  1  0.461800  0.735400  0.757800  1.0
  H  H685  1  0.264600  0.704000  0.242200  1.0
  H  H686  1  0.704000  0.977600  0.242200  1.0
  H  H687  1  0.977600  0.538200  0.242200  1.0
  H  H688  1  0.538200  0.264600  0.242200  1.0
  H  H689  1  0.719500  0.347700  0.796000  1.0
  H  H690  1  0.347700  0.076500  0.796000  1.0
  H  H691  1  0.076500  0.448300  0.796000  1.0
  H  H692  1  0.448300  0.719500  0.796000  1.0
  H  H693  1  0.280500  0.652300  0.204000  1.0
  H  H694  1  0.652300  0.923500  0.204000  1.0
  H  H695  1  0.923500  0.551700  0.204000  1.0
  H  H696  1  0.551700  0.280500  0.204000  1.0
  H  H697  1  0.447500  0.756200  0.454200  1.0
  H  H698  1  0.756200  0.006700  0.454200  1.0
  H  H699  1  0.006700  0.698000  0.454200  1.0
  H  H700  1  0.698000  0.447500  0.454200  1.0
  H  H701  1  0.552500  0.243800  0.545800  1.0
  H  H702  1  0.243800  0.993300  0.545800  1.0
  H  H703  1  0.993300  0.302000  0.545800  1.0
  H  H704  1  0.302000  0.552500  0.545800  1.0
  H  H705  1  0.424900  0.705200  0.452800  1.0
  H  H706  1  0.705200  0.027900  0.452800  1.0
  H  H707  1  0.027900  0.747600  0.452800  1.0
  H  H708  1  0.747600  0.424900  0.452800  1.0
  H  H709  1  0.575100  0.294800  0.547200  1.0
  H  H710  1  0.294800  0.972100  0.547200  1.0
  H  H711  1  0.972100  0.252400  0.547200  1.0
  H  H712  1  0.252400  0.575100  0.547200  1.0
  H  H713  1  0.398700  0.700100  0.386800  1.0
  H  H714  1  0.700100  0.988100  0.386800  1.0
  H  H715  1  0.988100  0.686700  0.386800  1.0
  H  H716  1  0.686700  0.398700  0.386800  1.0
  H  H717  1  0.601300  0.299900  0.613200  1.0
  H  H718  1  0.299900  0.011900  0.613200  1.0
  H  H719  1  0.011900  0.313300  0.613200  1.0
  H  H720  1  0.313300  0.601300  0.613200  1.0
  H  H721  1  0.434600  0.976100  0.665400  1.0
  H  H722  1  0.976100  0.230800  0.665400  1.0
  H  H723  1  0.230800  0.689300  0.665400  1.0
  H  H724  1  0.689300  0.434600  0.665400  1.0
  H  H725  1  0.565400  0.023900  0.334600  1.0
  H  H726  1  0.023900  0.769200  0.334600  1.0
  H  H727  1  0.769200  0.310700  0.334600  1.0
  H  H728  1  0.310700  0.565400  0.334600  1.0
  H  H729  1  0.384100  0.973900  0.673000  1.0
  H  H730  1  0.973900  0.288900  0.673000  1.0
  H  H731  1  0.288900  0.699100  0.673000  1.0
  H  H732  1  0.699100  0.384100  0.673000  1.0
  H  H733  1  0.615900  0.026100  0.327000  1.0
  H  H734  1  0.026100  0.711100  0.327000  1.0
  H  H735  1  0.711100  0.300900  0.327000  1.0
  H  H736  1  0.300900  0.615900  0.327000  1.0
  H  H737  1  0.422000  0.935400  0.682400  1.0
  H  H738  1  0.935400  0.260400  0.682400  1.0
  H  H739  1  0.260400  0.747000  0.682400  1.0
  H  H740  1  0.747000  0.422000  0.682400  1.0
  H  H741  1  0.578000  0.064600  0.317600  1.0
  H  H742  1  0.064600  0.739600  0.317600  1.0
  H  H743  1  0.739600  0.253000  0.317600  1.0
  H  H744  1  0.253000  0.578000  0.317600  1.0
  H  H745  1  0.402700  0.004300  0.774200  1.0
  H  H746  1  0.004300  0.371500  0.774200  1.0
  H  H747  1  0.371500  0.769900  0.774200  1.0
  H  H748  1  0.769900  0.402700  0.774200  1.0
  H  H749  1  0.597300  0.995700  0.225800  1.0
  H  H750  1  0.995700  0.628500  0.225800  1.0
  H  H751  1  0.628500  0.230100  0.225800  1.0
  H  H752  1  0.230100  0.597300  0.225800  1.0
  H  H753  1  0.455800  0.988200  0.808800  1.0
  H  H754  1  0.988200  0.353000  0.808800  1.0
  H  H755  1  0.353000  0.820600  0.808800  1.0
  H  H756  1  0.820600  0.455800  0.808800  1.0
  H  H757  1  0.544200  0.011800  0.191200  1.0
  H  H758  1  0.011800  0.647000  0.191200  1.0
  H  H759  1  0.647000  0.179400  0.191200  1.0
  H  H760  1  0.179400  0.544200  0.191200  1.0
  H  H761  1  0.412600  0.949400  0.731600  1.0
  H  H762  1  0.949400  0.319000  0.731600  1.0
  H  H763  1  0.319000  0.782200  0.731600  1.0
  H  H764  1  0.782200  0.412600  0.731600  1.0
  H  H765  1  0.587400  0.050600  0.268400  1.0
  H  H766  1  0.050600  0.681000  0.268400  1.0
  H  H767  1  0.681000  0.217800  0.268400  1.0
  H  H768  1  0.217800  0.587400  0.268400  1.0
  H  H769  1  0.649200  0.323100  0.818600  1.0
  H  H770  1  0.323100  0.169400  0.818600  1.0
  H  H771  1  0.169400  0.495500  0.818600  1.0
  H  H772  1  0.495500  0.649200  0.818600  1.0
  H  H773  1  0.350800  0.676900  0.181400  1.0
  H  H774  1  0.676900  0.830600  0.181400  1.0
  H  H775  1  0.830600  0.504500  0.181400  1.0
  H  H776  1  0.504500  0.350800  0.181400  1.0
  H  H777  1  0.700800  0.360500  0.832600  1.0
  H  H778  1  0.360500  0.131800  0.832600  1.0
  H  H779  1  0.131800  0.472100  0.832600  1.0
  H  H780  1  0.472100  0.700800  0.832600  1.0
  H  H781  1  0.299200  0.639500  0.167400  1.0
  H  H782  1  0.639500  0.868200  0.167400  1.0
  H  H783  1  0.868200  0.527900  0.167400  1.0
  H  H784  1  0.527900  0.299200  0.167400  1.0
  H  H785  1  0.711900  0.326100  0.863800  1.0
  H  H786  1  0.326100  0.151900  0.863800  1.0
  H  H787  1  0.151900  0.537700  0.863800  1.0
  H  H788  1  0.537700  0.711900  0.863800  1.0
  H  H789  1  0.288100  0.673900  0.136200  1.0
  H  H790  1  0.673900  0.848100  0.136200  1.0
  H  H791  1  0.848100  0.462300  0.136200  1.0
  H  H792  1  0.462300  0.288100  0.136200  1.0
  Ni  Ni793  1  0.706870  0.986960  0.718680  0.1111111111111111
  Pd  Pd794  1  0.706870  0.986960  0.718680  0.8888888888888888
  Ni  Ni795  1  0.986960  0.011810  0.718680  0.1111111111111111
  Pd  Pd796  1  0.986960  0.011810  0.718680  0.8888888888888888
  Ni  Ni797  1  0.011810  0.731720  0.718680  0.1111111111111111
  Pd  Pd798  1  0.011810  0.731720  0.718680  0.8888888888888888
  Ni  Ni799  1  0.731720  0.706870  0.718680  0.1111111111111111
  Pd  Pd800  1  0.731720  0.706870  0.718680  0.8888888888888888
  Ni  Ni801  1  0.293130  0.013040  0.281320  0.1111111111111111
  Pd  Pd802  1  0.293130  0.013040  0.281320  0.8888888888888888
  Ni  Ni803  1  0.013040  0.988190  0.281320  0.1111111111111111
  Pd  Pd804  1  0.013040  0.988190  0.281320  0.8888888888888888
  Ni  Ni805  1  0.988190  0.268280  0.281320  0.1111111111111111
  Pd  Pd806  1  0.988190  0.268280  0.281320  0.8888888888888888
  Ni  Ni807  1  0.268280  0.293130  0.281320  0.1111111111111111
  Pd  Pd808  1  0.268280  0.293130  0.281320  0.8888888888888888
  Ni  Ni809  1  0.976500  0.279850  0.000000  0.2
  Pd  Pd810  1  0.976500  0.279850  0.000000  0.8
  Ni  Ni811  1  0.279850  0.023500  1.000000  0.2
  Pd  Pd812  1  0.279850  0.023500  1.000000  0.8
  Ni  Ni813  1  0.023500  0.720150  0.000000  0.2
  Pd  Pd814  1  0.023500  0.720150  0.000000  0.8
  Ni  Ni815  1  0.720150  0.976500  1.000000  0.2
  Pd  Pd816  1  0.720150  0.976500  1.000000  0.8
  Ni  Ni817  1  0.968920  0.364250  1.000000  0.8
  Pd  Pd818  1  0.968920  0.364250  1.000000  0.2
  Ni  Ni819  1  0.364250  0.031080  1.000000  0.8
  Pd  Pd820  1  0.364250  0.031080  1.000000  0.2
  Ni  Ni821  1  0.031080  0.635750  0.000000  0.8
  Pd  Pd822  1  0.031080  0.635750  0.000000  0.2
  Ni  Ni823  1  0.635750  0.968920  1.000000  0.8
  Pd  Pd824  1  0.635750  0.968920  1.000000  0.2
  Ni  Ni825  1  0.618900  0.983000  0.634340  0.8888888888888888
  Pd  Pd826  1  0.618900  0.983000  0.634340  0.1111111111111111
  Ni  Ni827  1  0.983000  0.015440  0.634340  0.8888888888888888
  Pd  Pd828  1  0.983000  0.015440  0.634340  0.1111111111111111
  Ni  Ni829  1  0.015440  0.651340  0.634340  0.8888888888888888
  Pd  Pd830  1  0.015440  0.651340  0.634340  0.1111111111111111
  Ni  Ni831  1  0.651340  0.618900  0.634340  0.8888888888888888
  Pd  Pd832  1  0.651340  0.618900  0.634340  0.1111111111111111
  Ni  Ni833  1  0.381100  0.017000  0.365660  0.8888888888888888
  Pd  Pd834  1  0.381100  0.017000  0.365660  0.1111111111111111
  Ni  Ni835  1  0.017000  0.984560  0.365660  0.8888888888888888
  Pd  Pd836  1  0.017000  0.984560  0.365660  0.1111111111111111
  Ni  Ni837  1  0.984560  0.348660  0.365660  0.8888888888888888
  Pd  Pd838  1  0.984560  0.348660  0.365660  0.1111111111111111
  Ni  Ni839  1  0.348660  0.381100  0.365660  0.8888888888888888
  Pd  Pd840  1  0.348660  0.381100  0.365660  0.1111111111111111
  O  O841  1  0.794900  0.992000  0.801000  1
  O  O842  1  0.992000  0.006100  0.801000  1
  O  O843  1  0.006100  0.809000  0.801000  1
  O  O844  1  0.809000  0.794900  0.801000  1
  O  O845  1  0.205100  0.008000  0.199000  1
  O  O846  1  0.008000  0.993900  0.199000  1
  O  O847  1  0.993900  0.191000  0.199000  1
  O  O848  1  0.191000  0.205100  0.199000  1
  O  O849  1  0.983900  0.197000  0.000000  1
  O  O850  1  0.197000  0.016100  0.000000  1
  O  O851  1  0.016100  0.803000  0.000000  1
  O  O852  1  0.803000  0.983900  1.000000  1
  O  O853  1  0.962800  0.432500  0.000000  1.0
  O  O854  1  0.432500  0.037200  0.000000  1.0
  O  O855  1  0.037200  0.567500  0.000000  1.0
  O  O856  1  0.567500  0.962800  1.000000  1.0
  O  O857  1  0.676090  0.903720  0.669420  1.0
  O  O858  1  0.903720  0.993330  0.669420  1.0
  O  O859  1  0.993330  0.765700  0.669420  1.0
  O  O860  1  0.765700  0.676090  0.669420  1.0
  O  O861  1  0.323910  0.096280  0.330580  1.0
  O  O862  1  0.096280  0.006670  0.330580  1.0
  O  O863  1  0.006670  0.234300  0.330580  1.0
  O  O864  1  0.234300  0.323910  0.330580  1.0
  O  O865  1  0.672470  0.996160  0.765600  1.0
  O  O866  1  0.996160  0.093130  0.765600  1.0
  O  O867  1  0.093130  0.769440  0.765600  1.0
  O  O868  1  0.769440  0.672470  0.765600  1.0
  O  O869  1  0.327530  0.003840  0.234400  1.0
  O  O870  1  0.003840  0.906870  0.234400  1.0
  O  O871  1  0.906870  0.230560  0.234400  1.0
  O  O872  1  0.230560  0.327530  0.234400  1.0
  O  O873  1  0.893600  0.242540  0.930480  1.0
  O  O874  1  0.242540  0.036880  0.930480  1.0
  O  O875  1  0.036880  0.687940  0.930480  1.0
  O  O876  1  0.687940  0.893600  0.930480  1.0
  O  O877  1  0.106400  0.757460  0.069520  1.0
  O  O878  1  0.757460  0.963120  0.069520  1.0
  O  O879  1  0.963120  0.312060  0.069520  1.0
  O  O880  1  0.312060  0.106400  0.069520  1.0
  O  O881  1  0.734880  0.070250  0.764680  1.0
  O  O882  1  0.070250  0.029800  0.764680  1.0
  O  O883  1  0.029800  0.694430  0.764680  1.0
  O  O884  1  0.694430  0.734880  0.764680  1.0
  O  O885  1  0.265120  0.929750  0.235320  1.0
  O  O886  1  0.929750  0.970200  0.235320  1.0
  O  O887  1  0.970200  0.305570  0.235320  1.0
  O  O888  1  0.305570  0.265120  0.235320  1.0
  O  O889  1  0.690810  0.737960  0.668320  1.0
  O  O890  1  0.737960  0.977510  0.668320  1.0
  O  O891  1  0.977510  0.930360  0.668320  1.0
  O  O892  1  0.930360  0.690810  0.668320  1.0
  O  O893  1  0.309190  0.262040  0.331680  1.0
  O  O894  1  0.262040  0.022490  0.331680  1.0
  O  O895  1  0.022490  0.069640  0.331680  1.0
  O  O896  1  0.069640  0.309190  0.331680  1.0
  O  O897  1  0.886350  0.319320  0.930440  1.0
  O  O898  1  0.319320  0.044090  0.930440  1.0
  O  O899  1  0.044090  0.611120  0.930440  1.0
  O  O900  1  0.611120  0.886350  0.930440  1.0
  O  O901  1  0.113650  0.680680  0.069560  1.0
  O  O902  1  0.680680  0.955910  0.069560  1.0
  O  O903  1  0.955910  0.388880  0.069560  1.0
  O  O904  1  0.388880  0.113650  0.069560  1.0
  O  O905  1  0.592380  0.994360  0.690000  1.0
  O  O906  1  0.994360  0.097620  0.690000  1.0
  O  O907  1  0.097620  0.695640  0.690000  1.0
  O  O908  1  0.695640  0.592380  0.690000  1.0
  O  O909  1  0.407620  0.005640  0.310000  1.0
  O  O910  1  0.005640  0.902380  0.310000  1.0
  O  O911  1  0.902380  0.304360  0.310000  1.0
  O  O912  1  0.304360  0.407620  0.310000  1.0
  O  O913  1  0.595120  0.899620  0.592020  1.0
  O  O914  1  0.899620  0.996900  0.592020  1.0
  O  O915  1  0.996900  0.692400  0.592020  1.0
  O  O916  1  0.692400  0.595120  0.592020  1.0
  O  O917  1  0.404880  0.100380  0.407980  1.0
  O  O918  1  0.100380  0.003100  0.407980  1.0
  O  O919  1  0.003100  0.307600  0.407980  1.0
  O  O920  1  0.307600  0.404880  0.407980  1.0
  O  O921  1  0.617020  0.656550  0.589900  1.0
  O  O922  1  0.656550  0.972880  0.589900  1.0
  O  O923  1  0.972880  0.933350  0.589900  1.0
  O  O924  1  0.933350  0.617020  0.589900  1.0
  O  O925  1  0.382980  0.343450  0.410100  1.0
  O  O926  1  0.343450  0.027120  0.410100  1.0
  O  O927  1  0.027120  0.066650  0.410100  1.0
  O  O928  1  0.066650  0.382980  0.410100  1.0
  O  O929  1  0.679500  0.990180  0.931580  1.0
  O  O930  1  0.990180  0.252080  0.931580  1.0
  O  O931  1  0.252080  0.941400  0.931580  1.0
  O  O932  1  0.941400  0.679500  0.931580  1.0
  O  O933  1  0.320500  0.009820  0.068420  1.0
  O  O934  1  0.009820  0.747920  0.068420  1.0
  O  O935  1  0.747920  0.058600  0.068420  1.0
  O  O936  1  0.058600  0.320500  0.068420  1.0
  O  O937  1  0.602970  0.984430  0.931780  1.0
  O  O938  1  0.984430  0.328810  0.931780  1.0
  O  O939  1  0.328810  0.947350  0.931780  1.0
  O  O940  1  0.947350  0.602970  0.931780  1.0
  O  O941  1  0.397030  0.015570  0.068220  1.0
  O  O942  1  0.015570  0.671190  0.068220  1.0
  O  O943  1  0.671190  0.052650  0.068220  1.0
  O  O944  1  0.052650  0.397030  0.068220  1.0
  O  O945  1  0.654010  0.066730  0.687440  1.0
  O  O946  1  0.066730  0.033430  0.687440  1.0
  O  O947  1  0.033430  0.620710  0.687440  1.0
  O  O948  1  0.620710  0.654010  0.687440  1.0
  O  O949  1  0.345990  0.933270  0.312560  1.0
  O  O950  1  0.933270  0.966570  0.312560  1.0
  O  O951  1  0.966570  0.379290  0.312560  1.0
  O  O952  1  0.379290  0.345990  0.312560  1.0
  O  O953  1  0.544160  0.977650  0.565580  1.0
  O  O954  1  0.977650  0.021420  0.565580  1.0
  O  O955  1  0.021420  0.587930  0.565580  1.0
  O  O956  1  0.587930  0.544160  0.565580  1.0
  O  O957  1  0.455840  0.022350  0.434420  1.0
  O  O958  1  0.022350  0.978580  0.434420  1.0
  O  O959  1  0.978580  0.412070  0.434420  1.0
  O  O960  1  0.412070  0.455840  0.434420  1.0
