
#######################################################################
#
#                 Cambridge Crystallographic Data Centre
#                                CCDC 
#
#######################################################################
#
# If this CIF has been generated from an entry in the Cambridge 
# Structural Database, then it will include bibliographic, chemical, 
# crystal, experimental, refinement or atomic coordinate data resulting 
# from the CCDC's data processing and validation procedures.
#
#######################################################################

data_QURCEN
_chemical_formula_moiety         'C288 H312 Cu12 O108 Pd12'
_chemical_name_systematic        
'tetracosakis(\m-5-t-butylbenzene-1,3-dicarboxylato)-dodeca-aqua-dodeca-copper-dodeca-palladium unknown solvate'
_symmetry_cell_setting           tetragonal
_symmetry_space_group_name_H-M   'I 4/m'
_symmetry_Int_Tables_number      87
_space_group_name_Hall           '-I 4'
loop_
_symmetry_equiv_pos_site_id
_symmetry_equiv_pos_as_xyz
1 x,y,z
2 -y,x,z
3 -x,-y,z
4 y,-x,z
5 1/2+x,1/2+y,1/2+z
6 1/2-y,1/2+x,1/2+z
7 1/2-x,1/2-y,1/2+z
8 1/2+y,1/2-x,1/2+z
9 -x,-y,-z
10 y,-x,-z
11 x,y,-z
12 -y,x,-z
13 1/2-x,1/2-y,1/2-z
14 1/2+y,1/2-x,1/2-z
15 1/2+x,1/2+y,1/2-z
16 1/2-y,1/2+x,1/2-z
_cell_length_a                   28.980(4)
_cell_length_b                   28.980(4)
_cell_length_c                   40.961(8)
_cell_angle_alpha                90
_cell_angle_beta                 90
_cell_angle_gamma                90
_cell_volume                     34400.7
_exptl_crystal_colour            blue
_exptl_crystal_description       Prism
_cell_formula_units_Z            2
loop_
_atom_site_label
_atom_site_type_symbol
_atom_site_fract_x
_atom_site_fract_y
_atom_site_fract_z
Pd1 Pd -0.27898(3) -0.01884(3) 0.5000
Pd2 Pd -0.14949(2) 0.12942(2) 0.63991(2)
Cu1 Cu -0.36687(4) -0.02516(5) 0.5000
Cu2 Cu -0.19681(4) 0.16966(3) 0.68408(3)
O1 O -0.2509(2) 0.1530(2) 0.65634(18)
O2 O -0.20848(18) 0.11692(18) 0.61756(14)
O3 O -0.36282(17) 0.0240(2) 0.5331(2)
O4 O -0.28555(15) 0.02871(17) 0.53473(14)
O5 O -0.1450(2) 0.19058(17) 0.61808(13)
O6 O -0.1865(3) 0.2252(2) 0.65669(17)
O7 O -0.0714(2) 0.35679(19) 0.53636(17)
O8 O -0.06729(18) 0.27884(15) 0.53487(12)
O9 O -0.1349(2) 0.1785(3) 0.70629(16)
O10 O -0.09357(18) 0.1453(2) 0.66573(14)
O11 O 0.07187(19) 0.1579(2) 0.66563(15)
O12 O 0.1065(2) 0.1990(3) 0.70565(17)
O13 O -0.2357(4) 0.2054(4) 0.7199(3)
O14 O -0.4397(4) -0.0320(4) 0.5000
C1 C -0.2471(3) 0.1303(4) 0.6299(3)
C2 C -0.2888(3) 0.1176(3) 0.6128(3)
C3 C -0.3311(5) 0.1352(7) 0.6232(5)
H1 H -0.3330 0.1570 0.6404
C4 C -0.3728(5) 0.1186(7) 0.6064(6)
C5 C -0.3690(3) 0.0927(6) 0.5807(5)
H2 H -0.3958 0.0854 0.5683
C6 C -0.3260(3) 0.0753(4) 0.5708(3)
C7 C -0.2879(3) 0.0881(3) 0.5867(3)
H3 H -0.2590 0.0764 0.5795
C8 C -0.3256(3) 0.0394(3) 0.5438(2)
C9 C -0.1628(4) 0.2241(3) 0.6292(3)
C10 C -0.1567(3) 0.2674(3) 0.6139(3)
C11 C -0.1801(6) 0.3090(5) 0.6217(5)
H4 H -0.1986 0.3080 0.6409
C12 C -0.1800(10) 0.3512(4) 0.6051(6)
C13 C -0.1431(6) 0.3531(3) 0.5799(4)
H5 H -0.1373 0.3814 0.5689
C14 C -0.1169(4) 0.3144(3) 0.5719(3)
C15 C -0.1253(3) 0.2717(3) 0.5877(2)
H6 H -0.1092 0.2450 0.5803
C16 C -0.0841(3) 0.3166(3) 0.5453(2)
C17 C -0.0984(3) 0.1655(3) 0.6929(2)
C18 C -0.0568(4) 0.1811(4) 0.7083(3)
C19 C -0.0594(4) 0.2006(7) 0.7382(3)
H7 H -0.0889 0.2077 0.7471
C20 C -0.0173(5) 0.2112(9) 0.7574(5)
C21 C 0.0249(4) 0.2043(6) 0.7410(3)
H8 H 0.0529 0.2109 0.7522
C22 C 0.0270(4) 0.1874(5) 0.7080(3)
C23 C -0.0138(3) 0.1734(3) 0.6941(2)
H9 H -0.0126 0.1577 0.6737
C24 C 0.0722(4) 0.1801(4) 0.6925(2)
C25 C -0.4176(10) 0.1393(16) 0.6208(12)
C26 C -0.4222(9) 0.1903(10) 0.6224(8)
H10 H -0.3924 0.2040 0.6281
H11 H -0.4451 0.1986 0.6390
H12 H -0.4322 0.2020 0.6011
C27 C -0.4216(12) 0.1255(15) 0.6572(12)
H13 H -0.4199 0.0919 0.6592
H14 H -0.4511 0.1364 0.6660
H15 H -0.3963 0.1396 0.6696
C28 C -0.2075(10) 0.3963(7) 0.6112(8)
C29 C -0.2431(11) 0.3836(8) 0.6359(9)
H16 H -0.2308 0.3595 0.6503
H17 H -0.2707 0.3720 0.6248
H18 H -0.2511 0.4108 0.6489
C30 C -0.2270(18) 0.4155(17) 0.5791(10)
H19 H -0.2016 0.4215 0.5639
H20 H -0.2437 0.4443 0.5834
H21 H -0.2482 0.3929 0.5695
C31 C -0.1724(11) 0.4237(9) 0.6316(8)
H22 H -0.1626 0.4051 0.6503
H23 H -0.1867 0.4523 0.6394
H24 H -0.1455 0.4312 0.6181
C32 C -0.0123(13) 0.2318(12) 0.7927(6)
C33 C -0.0598(12) 0.2246(15) 0.8079(7)
H25 H -0.0662 0.1915 0.8095
H26 H -0.0833 0.2394 0.7942
H27 H -0.0603 0.2383 0.8298
C34 C 0.0048(9) 0.2772(10) 0.7852(7)
H28 H 0.0342 0.2747 0.7735
H29 H 0.0096 0.2944 0.8055
H30 H -0.0177 0.2935 0.7715
C35 C 0.0151(15) 0.2005(15) 0.8163(6)
H31 H 0.0479 0.2010 0.8103
H32 H 0.0034 0.1689 0.8149
H33 H 0.0115 0.2119 0.8387
C36 C -0.4536(11) 0.1128(17) 0.6087(11)
H34 H -0.4432 0.0809 0.6057
H35 H -0.4637 0.1254 0.5876
H36 H -0.4795 0.1135 0.6241
Pd1A Pd 0.01884(3) -0.27898(3) 0.5000
Pd2A Pd -0.12942(2) -0.14949(2) 0.63991(2)
Cu1A Cu 0.02516(5) -0.36687(4) 0.5000
Cu2A Cu -0.16966(3) -0.19681(4) 0.68408(3)
O1A O -0.1530(2) -0.2509(2) 0.65634(18)
O2A O -0.11692(18) -0.20848(18) 0.61756(14)
O3A O -0.0240(2) -0.36282(17) 0.5331(2)
O4A O -0.02871(17) -0.28555(15) 0.53473(14)
O5A O -0.19058(17) -0.1450(2) 0.61808(13)
O6A O -0.2252(2) -0.1865(3) 0.65669(17)
O7A O -0.35679(19) -0.0714(2) 0.53636(17)
O8A O -0.27884(15) -0.06729(18) 0.53487(12)
O9A O -0.1785(3) -0.1349(2) 0.70629(16)
O10A O -0.1453(2) -0.09357(18) 0.66573(14)
O11A O -0.1579(2) 0.07187(19) 0.66563(15)
O12A O -0.1990(3) 0.1065(2) 0.70565(17)
O13A O -0.2054(4) -0.2357(4) 0.7199(3)
O14A O 0.0320(4) -0.4397(4) 0.5000
C1A C -0.1303(4) -0.2471(3) 0.6299(3)
C2A C -0.1176(3) -0.2888(3) 0.6128(3)
C3A C -0.1352(7) -0.3311(5) 0.6232(5)
H1A H -0.1570 -0.3330 0.6404
C4A C -0.1186(7) -0.3728(5) 0.6064(6)
C5A C -0.0927(6) -0.3690(3) 0.5807(5)
H2A H -0.0854 -0.3958 0.5683
C6A C -0.0753(4) -0.3260(3) 0.5708(3)
C7A C -0.0881(3) -0.2879(3) 0.5867(3)
H3A H -0.0764 -0.2590 0.5795
C8A C -0.0394(3) -0.3256(3) 0.5438(2)
C9A C -0.2241(3) -0.1628(4) 0.6292(3)
C10A C -0.2674(3) -0.1567(3) 0.6139(3)
C11A C -0.3090(5) -0.1801(6) 0.6217(5)
H4A H -0.3080 -0.1986 0.6409
C12A C -0.3512(4) -0.1800(10) 0.6051(6)
C13A C -0.3531(3) -0.1431(6) 0.5799(4)
H5A H -0.3814 -0.1373 0.5689
C14A C -0.3144(3) -0.1169(4) 0.5719(3)
C15A C -0.2717(3) -0.1253(3) 0.5877(2)
H6A H -0.2450 -0.1092 0.5803
C16A C -0.3166(3) -0.0841(3) 0.5453(2)
C17A C -0.1655(3) -0.0984(3) 0.6929(2)
C18A C -0.1811(4) -0.0568(4) 0.7083(3)
C19A C -0.2006(7) -0.0594(4) 0.7382(3)
H7A H -0.2077 -0.0889 0.7471
C20A C -0.2112(9) -0.0173(5) 0.7574(5)
C21A C -0.2043(6) 0.0249(4) 0.7410(3)
H8A H -0.2109 0.0529 0.7522
C22A C -0.1874(5) 0.0270(4) 0.7080(3)
C23A C -0.1734(3) -0.0138(3) 0.6941(2)
H9A H -0.1577 -0.0126 0.6737
C24A C -0.1801(4) 0.0722(4) 0.6925(2)
C25A C -0.1393(16) -0.4176(10) 0.6208(12)
C26A C -0.1903(10) -0.4222(9) 0.6224(8)
H10A H -0.2040 -0.3924 0.6281
H11A H -0.1986 -0.4451 0.6390
H12A H -0.2020 -0.4322 0.6011
C27A C -0.1255(15) -0.4216(12) 0.6572(12)
H13A H -0.0919 -0.4199 0.6592
H14A H -0.1364 -0.4511 0.6660
H15A H -0.1396 -0.3963 0.6696
C28A C -0.3963(7) -0.2075(10) 0.6112(8)
C29A C -0.3836(8) -0.2431(11) 0.6359(9)
H16A H -0.3595 -0.2308 0.6503
H17A H -0.3720 -0.2707 0.6248
H18A H -0.4108 -0.2511 0.6489
C30A C -0.4155(17) -0.2270(18) 0.5791(10)
H19A H -0.4215 -0.2016 0.5639
H20A H -0.4443 -0.2437 0.5834
H21A H -0.3929 -0.2482 0.5695
C31A C -0.4237(9) -0.1724(11) 0.6316(8)
H22A H -0.4051 -0.1626 0.6503
H23A H -0.4523 -0.1867 0.6394
H24A H -0.4312 -0.1455 0.6181
C32A C -0.2318(12) -0.0123(13) 0.7927(6)
C33A C -0.2246(15) -0.0598(12) 0.8079(7)
H25A H -0.1915 -0.0662 0.8095
H26A H -0.2394 -0.0833 0.7942
H27A H -0.2383 -0.0603 0.8298
C34A C -0.2772(10) 0.0048(9) 0.7852(7)
H28A H -0.2747 0.0342 0.7735
H29A H -0.2944 0.0096 0.8055
H30A H -0.2935 -0.0177 0.7715
C35A C -0.2005(15) 0.0151(15) 0.8163(6)
H31A H -0.2010 0.0479 0.8103
H32A H -0.1689 0.0034 0.8149
H33A H -0.2119 0.0115 0.8387
C36A C -0.1128(17) -0.4536(11) 0.6087(11)
H34A H -0.0809 -0.4432 0.6057
H35A H -0.1254 -0.4637 0.5876
H36A H -0.1135 -0.4795 0.6241
Pd1B Pd 0.27898(3) 0.01884(3) 0.5000
Pd2B Pd 0.14949(2) -0.12942(2) 0.63991(2)
Cu1B Cu 0.36687(4) 0.02516(5) 0.5000
Cu2B Cu 0.19681(4) -0.16966(3) 0.68408(3)
O1B O 0.2509(2) -0.1530(2) 0.65634(18)
O2B O 0.20848(18) -0.11692(18) 0.61756(14)
O3B O 0.36282(17) -0.0240(2) 0.5331(2)
O4B O 0.28555(15) -0.02871(17) 0.53473(14)
O5B O 0.1450(2) -0.19058(17) 0.61808(13)
O6B O 0.1865(3) -0.2252(2) 0.65669(17)
O7B O 0.0714(2) -0.35679(19) 0.53636(17)
O8B O 0.06729(18) -0.27884(15) 0.53487(12)
O9B O 0.1349(2) -0.1785(3) 0.70629(16)
O10B O 0.09357(18) -0.1453(2) 0.66573(14)
O11B O -0.07187(19) -0.1579(2) 0.66563(15)
O12B O -0.1065(2) -0.1990(3) 0.70565(17)
O13B O 0.2357(4) -0.2054(4) 0.7199(3)
O14B O 0.4397(4) 0.0320(4) 0.5000
C1B C 0.2471(3) -0.1303(4) 0.6299(3)
C2B C 0.2888(3) -0.1176(3) 0.6128(3)
C3B C 0.3311(5) -0.1352(7) 0.6232(5)
H1B H 0.3330 -0.1570 0.6404
C4B C 0.3728(5) -0.1186(7) 0.6064(6)
C5B C 0.3690(3) -0.0927(6) 0.5807(5)
H2B H 0.3958 -0.0854 0.5683
C6B C 0.3260(3) -0.0753(4) 0.5708(3)
C7B C 0.2879(3) -0.0881(3) 0.5867(3)
H3B H 0.2590 -0.0764 0.5795
C8B C 0.3256(3) -0.0394(3) 0.5438(2)
C9B C 0.1628(4) -0.2241(3) 0.6292(3)
C10B C 0.1567(3) -0.2674(3) 0.6139(3)
C11B C 0.1801(6) -0.3090(5) 0.6217(5)
H4B H 0.1986 -0.3080 0.6409
C12B C 0.1800(10) -0.3512(4) 0.6051(6)
C13B C 0.1431(6) -0.3531(3) 0.5799(4)
H5B H 0.1373 -0.3814 0.5689
C14B C 0.1169(4) -0.3144(3) 0.5719(3)
C15B C 0.1253(3) -0.2717(3) 0.5877(2)
H6B H 0.1092 -0.2450 0.5803
C16B C 0.0841(3) -0.3166(3) 0.5453(2)
C17B C 0.0984(3) -0.1655(3) 0.6929(2)
C18B C 0.0568(4) -0.1811(4) 0.7083(3)
C19B C 0.0594(4) -0.2006(7) 0.7382(3)
H7B H 0.0889 -0.2077 0.7471
C20B C 0.0173(5) -0.2112(9) 0.7574(5)
C21B C -0.0249(4) -0.2043(6) 0.7410(3)
H8B H -0.0529 -0.2109 0.7522
C22B C -0.0270(4) -0.1874(5) 0.7080(3)
C23B C 0.0138(3) -0.1734(3) 0.6941(2)
H9B H 0.0126 -0.1577 0.6737
C24B C -0.0722(4) -0.1801(4) 0.6925(2)
C25B C 0.4176(10) -0.1393(16) 0.6208(12)
C26B C 0.4222(9) -0.1903(10) 0.6224(8)
H10B H 0.3924 -0.2040 0.6281
H11B H 0.4451 -0.1986 0.6390
H12B H 0.4322 -0.2020 0.6011
C27B C 0.4216(12) -0.1255(15) 0.6572(12)
H13B H 0.4199 -0.0919 0.6592
H14B H 0.4511 -0.1364 0.6660
H15B H 0.3963 -0.1396 0.6696
C28B C 0.2075(10) -0.3963(7) 0.6112(8)
C29B C 0.2431(11) -0.3836(8) 0.6359(9)
H16B H 0.2308 -0.3595 0.6503
H17B H 0.2707 -0.3720 0.6248
H18B H 0.2511 -0.4108 0.6489
C30B C 0.2270(18) -0.4155(17) 0.5791(10)
H19B H 0.2016 -0.4215 0.5639
H20B H 0.2437 -0.4443 0.5834
H21B H 0.2482 -0.3929 0.5695
C31B C 0.1724(11) -0.4237(9) 0.6316(8)
H22B H 0.1626 -0.4051 0.6503
H23B H 0.1867 -0.4523 0.6394
H24B H 0.1455 -0.4312 0.6181
C32B C 0.0123(13) -0.2318(12) 0.7927(6)
C33B C 0.0598(12) -0.2246(15) 0.8079(7)
H25B H 0.0662 -0.1915 0.8095
H26B H 0.0833 -0.2394 0.7942
H27B H 0.0603 -0.2383 0.8298
C34B C -0.0048(9) -0.2772(10) 0.7852(7)
H28B H -0.0342 -0.2747 0.7735
H29B H -0.0096 -0.2944 0.8055
H30B H 0.0177 -0.2935 0.7715
C35B C -0.0151(15) -0.2005(15) 0.8163(6)
H31B H -0.0479 -0.2010 0.8103
H32B H -0.0034 -0.1689 0.8149
H33B H -0.0115 -0.2119 0.8387
C36B C 0.4536(11) -0.1128(17) 0.6087(11)
H34B H 0.4432 -0.0809 0.6057
H35B H 0.4637 -0.1254 0.5876
H36B H 0.4795 -0.1135 0.6241
Pd1C Pd -0.01884(3) 0.27898(3) 0.5000
Pd2C Pd 0.12942(2) 0.14949(2) 0.63991(2)
Cu1C Cu -0.02516(5) 0.36687(4) 0.5000
Cu2C Cu 0.16966(3) 0.19681(4) 0.68408(3)
O1C O 0.1530(2) 0.2509(2) 0.65634(18)
O2C O 0.11692(18) 0.20848(18) 0.61756(14)
O3C O 0.0240(2) 0.36282(17) 0.5331(2)
O4C O 0.02871(17) 0.28555(15) 0.53473(14)
O5C O 0.19058(17) 0.1450(2) 0.61808(13)
O6C O 0.2252(2) 0.1865(3) 0.65669(17)
O7C O 0.35679(19) 0.0714(2) 0.53636(17)
O8C O 0.27884(15) 0.06729(18) 0.53487(12)
O9C O 0.1785(3) 0.1349(2) 0.70629(16)
O10C O 0.1453(2) 0.09357(18) 0.66573(14)
O11C O 0.1579(2) -0.07187(19) 0.66563(15)
O12C O 0.1990(3) -0.1065(2) 0.70565(17)
O13C O 0.2054(4) 0.2357(4) 0.7199(3)
O14C O -0.0320(4) 0.4397(4) 0.5000
C1C C 0.1303(4) 0.2471(3) 0.6299(3)
C2C C 0.1176(3) 0.2888(3) 0.6128(3)
C3C C 0.1352(7) 0.3311(5) 0.6232(5)
H1C H 0.1570 0.3330 0.6404
C4C C 0.1186(7) 0.3728(5) 0.6064(6)
C5C C 0.0927(6) 0.3690(3) 0.5807(5)
H2C H 0.0854 0.3958 0.5683
C6C C 0.0753(4) 0.3260(3) 0.5708(3)
C7C C 0.0881(3) 0.2879(3) 0.5867(3)
H3C H 0.0764 0.2590 0.5795
C8C C 0.0394(3) 0.3256(3) 0.5438(2)
C9C C 0.2241(3) 0.1628(4) 0.6292(3)
C10C C 0.2674(3) 0.1567(3) 0.6139(3)
C11C C 0.3090(5) 0.1801(6) 0.6217(5)
H4C H 0.3080 0.1986 0.6409
C12C C 0.3512(4) 0.1800(10) 0.6051(6)
C13C C 0.3531(3) 0.1431(6) 0.5799(4)
H5C H 0.3814 0.1373 0.5689
C14C C 0.3144(3) 0.1169(4) 0.5719(3)
C15C C 0.2717(3) 0.1253(3) 0.5877(2)
H6C H 0.2450 0.1092 0.5803
C16C C 0.3166(3) 0.0841(3) 0.5453(2)
C17C C 0.1655(3) 0.0984(3) 0.6929(2)
C18C C 0.1811(4) 0.0568(4) 0.7083(3)
C19C C 0.2006(7) 0.0594(4) 0.7382(3)
H7C H 0.2077 0.0889 0.7471
C20C C 0.2112(9) 0.0173(5) 0.7574(5)
C21C C 0.2043(6) -0.0249(4) 0.7410(3)
H8C H 0.2109 -0.0529 0.7522
C22C C 0.1874(5) -0.0270(4) 0.7080(3)
C23C C 0.1734(3) 0.0138(3) 0.6941(2)
H9C H 0.1577 0.0126 0.6737
C24C C 0.1801(4) -0.0722(4) 0.6925(2)
C25C C 0.1393(16) 0.4176(10) 0.6208(12)
C26C C 0.1903(10) 0.4222(9) 0.6224(8)
H10C H 0.2040 0.3924 0.6281
H11C H 0.1986 0.4451 0.6390
H12C H 0.2020 0.4322 0.6011
C27C C 0.1255(15) 0.4216(12) 0.6572(12)
H13C H 0.0919 0.4199 0.6592
H14C H 0.1364 0.4511 0.6660
H15C H 0.1396 0.3963 0.6696
C28C C 0.3963(7) 0.2075(10) 0.6112(8)
C29C C 0.3836(8) 0.2431(11) 0.6359(9)
H16C H 0.3595 0.2308 0.6503
H17C H 0.3720 0.2707 0.6248
H18C H 0.4108 0.2511 0.6489
C30C C 0.4155(17) 0.2270(18) 0.5791(10)
H19C H 0.4215 0.2016 0.5639
H20C H 0.4443 0.2437 0.5834
H21C H 0.3929 0.2482 0.5695
C31C C 0.4237(9) 0.1724(11) 0.6316(8)
H22C H 0.4051 0.1626 0.6503
H23C H 0.4523 0.1867 0.6394
H24C H 0.4312 0.1455 0.6181
C32C C 0.2318(12) 0.0123(13) 0.7927(6)
C33C C 0.2246(15) 0.0598(12) 0.8079(7)
H25C H 0.1915 0.0662 0.8095
H26C H 0.2394 0.0833 0.7942
H27C H 0.2383 0.0603 0.8298
C34C C 0.2772(10) -0.0048(9) 0.7852(7)
H28C H 0.2747 -0.0342 0.7735
H29C H 0.2944 -0.0096 0.8055
H30C H 0.2935 0.0177 0.7715
C35C C 0.2005(15) -0.0151(15) 0.8163(6)
H31C H 0.2010 -0.0479 0.8103
H32C H 0.1689 -0.0034 0.8149
H33C H 0.2119 -0.0115 0.8387
C36C C 0.1128(17) 0.4536(11) 0.6087(11)
H34C H 0.0809 0.4432 0.6057
H35C H 0.1254 0.4637 0.5876
H36C H 0.1135 0.4795 0.6241
Pd2I Pd 0.12942(2) 0.14949(2) 0.36009(2)
Cu2I Cu 0.16966(3) 0.19681(4) 0.31592(3)
O1I O 0.1530(2) 0.2509(2) 0.34366(18)
O2I O 0.11692(18) 0.20848(18) 0.38244(14)
O3I O 0.0240(2) 0.36282(17) 0.4669(2)
O4I O 0.02871(17) 0.28555(15) 0.46527(14)
O5I O 0.19058(17) 0.1450(2) 0.38192(13)
O6I O 0.2252(2) 0.1865(3) 0.34331(17)
O7I O 0.35679(19) 0.0714(2) 0.46364(17)
O8I O 0.27884(15) 0.06729(18) 0.46513(12)
O9I O 0.1785(3) 0.1349(2) 0.29371(16)
O10I O 0.1453(2) 0.09357(18) 0.33427(14)
O11I O 0.1579(2) -0.07187(19) 0.33437(15)
O12I O 0.1990(3) -0.1065(2) 0.29435(17)
O13I O 0.2054(4) 0.2357(4) 0.2801(3)
C1I C 0.1303(4) 0.2471(3) 0.3701(3)
C2I C 0.1176(3) 0.2888(3) 0.3872(3)
C3I C 0.1352(7) 0.3311(5) 0.3768(5)
H1I H 0.1570 0.3330 0.3596
C4I C 0.1186(7) 0.3728(5) 0.3936(6)
C5I C 0.0927(6) 0.3690(3) 0.4193(5)
H2I H 0.0854 0.3958 0.4317
C6I C 0.0753(4) 0.3260(3) 0.4292(3)
C7I C 0.0881(3) 0.2879(3) 0.4133(3)
H3I H 0.0764 0.2590 0.4205
C8I C 0.0394(3) 0.3256(3) 0.4562(2)
C9I C 0.2241(3) 0.1628(4) 0.3708(3)
C10I C 0.2674(3) 0.1567(3) 0.3861(3)
C11I C 0.3090(5) 0.1801(6) 0.3783(5)
H4I H 0.3080 0.1986 0.3591
C12I C 0.3512(4) 0.1800(10) 0.3949(6)
C13I C 0.3531(3) 0.1431(6) 0.4201(4)
H5I H 0.3814 0.1373 0.4311
C14I C 0.3144(3) 0.1169(4) 0.4281(3)
C15I C 0.2717(3) 0.1253(3) 0.4123(2)
H6I H 0.2450 0.1092 0.4197
C16I C 0.3166(3) 0.0841(3) 0.4547(2)
C17I C 0.1655(3) 0.0984(3) 0.3071(2)
C18I C 0.1811(4) 0.0568(4) 0.2917(3)
C19I C 0.2006(7) 0.0594(4) 0.2618(3)
H7I H 0.2077 0.0889 0.2529
C20I C 0.2112(9) 0.0173(5) 0.2426(5)
C21I C 0.2043(6) -0.0249(4) 0.2590(3)
H8I H 0.2109 -0.0529 0.2478
C22I C 0.1874(5) -0.0270(4) 0.2920(3)
C23I C 0.1734(3) 0.0138(3) 0.3059(2)
H9I H 0.1577 0.0126 0.3263
C24I C 0.1801(4) -0.0722(4) 0.3075(2)
C25I C 0.1393(16) 0.4176(10) 0.3792(12)
C26I C 0.1903(10) 0.4222(9) 0.3776(8)
H10I H 0.2040 0.3924 0.3719
H11I H 0.1986 0.4451 0.3610
H12I H 0.2020 0.4322 0.3989
C27I C 0.1255(15) 0.4216(12) 0.3428(12)
H13I H 0.0919 0.4199 0.3408
H14I H 0.1364 0.4511 0.3340
H15I H 0.1396 0.3963 0.3304
C28I C 0.3963(7) 0.2075(10) 0.3888(8)
C29I C 0.3836(8) 0.2431(11) 0.3641(9)
H16I H 0.3595 0.2308 0.3497
H17I H 0.3720 0.2707 0.3752
H18I H 0.4108 0.2511 0.3511
C30I C 0.4155(17) 0.2270(18) 0.4209(10)
H19I H 0.4215 0.2016 0.4361
H20I H 0.4443 0.2437 0.4166
H21I H 0.3929 0.2482 0.4305
C31I C 0.4237(9) 0.1724(11) 0.3684(8)
H22I H 0.4051 0.1626 0.3497
H23I H 0.4523 0.1867 0.3606
H24I H 0.4312 0.1455 0.3819
C32I C 0.2318(12) 0.0123(13) 0.2073(6)
C33I C 0.2246(15) 0.0598(12) 0.1921(7)
H25I H 0.1915 0.0662 0.1905
H26I H 0.2394 0.0833 0.2058
H27I H 0.2383 0.0603 0.1702
C34I C 0.2772(10) -0.0048(9) 0.2148(7)
H28I H 0.2747 -0.0342 0.2265
H29I H 0.2944 -0.0096 0.1945
H30I H 0.2935 0.0177 0.2285
C35I C 0.2005(15) -0.0151(15) 0.1837(6)
H31I H 0.2010 -0.0479 0.1897
H32I H 0.1689 -0.0034 0.1851
H33I H 0.2119 -0.0115 0.1613
C36I C 0.1128(17) 0.4536(11) 0.3913(11)
H34I H 0.0809 0.4432 0.3943
H35I H 0.1254 0.4637 0.4124
H36I H 0.1135 0.4795 0.3759
Pd2J Pd -0.14949(2) 0.12942(2) 0.36009(2)
Cu2J Cu -0.19681(4) 0.16966(3) 0.31592(3)
O1J O -0.2509(2) 0.1530(2) 0.34366(18)
O2J O -0.20848(18) 0.11692(18) 0.38244(14)
O3J O -0.36282(17) 0.0240(2) 0.4669(2)
O4J O -0.28555(15) 0.02871(17) 0.46527(14)
O5J O -0.1450(2) 0.19058(17) 0.38192(13)
O6J O -0.1865(3) 0.2252(2) 0.34331(17)
O7J O -0.0714(2) 0.35679(19) 0.46364(17)
O8J O -0.06729(18) 0.27884(15) 0.46513(12)
O9J O -0.1349(2) 0.1785(3) 0.29371(16)
O10J O -0.09357(18) 0.1453(2) 0.33427(14)
O11J O 0.07187(19) 0.1579(2) 0.33437(15)
O12J O 0.1065(2) 0.1990(3) 0.29435(17)
O13J O -0.2357(4) 0.2054(4) 0.2801(3)
C1J C -0.2471(3) 0.1303(4) 0.3701(3)
C2J C -0.2888(3) 0.1176(3) 0.3872(3)
C3J C -0.3311(5) 0.1352(7) 0.3768(5)
H1J H -0.3330 0.1570 0.3596
C4J C -0.3728(5) 0.1186(7) 0.3936(6)
C5J C -0.3690(3) 0.0927(6) 0.4193(5)
H2J H -0.3958 0.0854 0.4317
C6J C -0.3260(3) 0.0753(4) 0.4292(3)
C7J C -0.2879(3) 0.0881(3) 0.4133(3)
H3J H -0.2590 0.0764 0.4205
C8J C -0.3256(3) 0.0394(3) 0.4562(2)
C9J C -0.1628(4) 0.2241(3) 0.3708(3)
C10J C -0.1567(3) 0.2674(3) 0.3861(3)
C11J C -0.1801(6) 0.3090(5) 0.3783(5)
H4J H -0.1986 0.3080 0.3591
C12J C -0.1800(10) 0.3512(4) 0.3949(6)
C13J C -0.1431(6) 0.3531(3) 0.4201(4)
H5J H -0.1373 0.3814 0.4311
C14J C -0.1169(4) 0.3144(3) 0.4281(3)
C15J C -0.1253(3) 0.2717(3) 0.4123(2)
H6J H -0.1092 0.2450 0.4197
C16J C -0.0841(3) 0.3166(3) 0.4547(2)
C17J C -0.0984(3) 0.1655(3) 0.3071(2)
C18J C -0.0568(4) 0.1811(4) 0.2917(3)
C19J C -0.0594(4) 0.2006(7) 0.2618(3)
H7J H -0.0889 0.2077 0.2529
C20J C -0.0173(5) 0.2112(9) 0.2426(5)
C21J C 0.0249(4) 0.2043(6) 0.2590(3)
H8J H 0.0529 0.2109 0.2478
C22J C 0.0270(4) 0.1874(5) 0.2920(3)
C23J C -0.0138(3) 0.1734(3) 0.3059(2)
H9J H -0.0126 0.1577 0.3263
C24J C 0.0722(4) 0.1801(4) 0.3075(2)
C25J C -0.4176(10) 0.1393(16) 0.3792(12)
C26J C -0.4222(9) 0.1903(10) 0.3776(8)
H10J H -0.3924 0.2040 0.3719
H11J H -0.4451 0.1986 0.3610
H12J H -0.4322 0.2020 0.3989
C27J C -0.4216(12) 0.1255(15) 0.3428(12)
H13J H -0.4199 0.0919 0.3408
H14J H -0.4511 0.1364 0.3340
H15J H -0.3963 0.1396 0.3304
C28J C -0.2075(10) 0.3963(7) 0.3888(8)
C29J C -0.2431(11) 0.3836(8) 0.3641(9)
H16J H -0.2308 0.3595 0.3497
H17J H -0.2707 0.3720 0.3752
H18J H -0.2511 0.4108 0.3511
C30J C -0.2270(18) 0.4155(17) 0.4209(10)
H19J H -0.2016 0.4215 0.4361
H20J H -0.2437 0.4443 0.4166
H21J H -0.2482 0.3929 0.4305
C31J C -0.1724(11) 0.4237(9) 0.3684(8)
H22J H -0.1626 0.4051 0.3497
H23J H -0.1867 0.4523 0.3606
H24J H -0.1455 0.4312 0.3819
C32J C -0.0123(13) 0.2318(12) 0.2073(6)
C33J C -0.0598(12) 0.2246(15) 0.1921(7)
H25J H -0.0662 0.1915 0.1905
H26J H -0.0833 0.2394 0.2058
H27J H -0.0603 0.2383 0.1702
C34J C 0.0048(9) 0.2772(10) 0.2148(7)
H28J H 0.0342 0.2747 0.2265
H29J H 0.0096 0.2944 0.1945
H30J H -0.0177 0.2935 0.2285
C35J C 0.0151(15) 0.2005(15) 0.1837(6)
H31J H 0.0479 0.2010 0.1897
H32J H 0.0034 0.1689 0.1851
H33J H 0.0115 0.2119 0.1613
C36J C -0.4536(11) 0.1128(17) 0.3913(11)
H34J H -0.4432 0.0809 0.3943
H35J H -0.4637 0.1254 0.4124
H36J H -0.4795 0.1135 0.3759
Pd2K Pd -0.12942(2) -0.14949(2) 0.36009(2)
Cu2K Cu -0.16966(3) -0.19681(4) 0.31592(3)
O1K O -0.1530(2) -0.2509(2) 0.34366(18)
O2K O -0.11692(18) -0.20848(18) 0.38244(14)
O3K O -0.0240(2) -0.36282(17) 0.4669(2)
O4K O -0.02871(17) -0.28555(15) 0.46527(14)
O5K O -0.19058(17) -0.1450(2) 0.38192(13)
O6K O -0.2252(2) -0.1865(3) 0.34331(17)
O7K O -0.35679(19) -0.0714(2) 0.46364(17)
O8K O -0.27884(15) -0.06729(18) 0.46513(12)
O9K O -0.1785(3) -0.1349(2) 0.29371(16)
O10K O -0.1453(2) -0.09357(18) 0.33427(14)
O11K O -0.1579(2) 0.07187(19) 0.33437(15)
O12K O -0.1990(3) 0.1065(2) 0.29435(17)
O13K O -0.2054(4) -0.2357(4) 0.2801(3)
C1K C -0.1303(4) -0.2471(3) 0.3701(3)
C2K C -0.1176(3) -0.2888(3) 0.3872(3)
C3K C -0.1352(7) -0.3311(5) 0.3768(5)
H1K H -0.1570 -0.3330 0.3596
C4K C -0.1186(7) -0.3728(5) 0.3936(6)
C5K C -0.0927(6) -0.3690(3) 0.4193(5)
H2K H -0.0854 -0.3958 0.4317
C6K C -0.0753(4) -0.3260(3) 0.4292(3)
C7K C -0.0881(3) -0.2879(3) 0.4133(3)
H3K H -0.0764 -0.2590 0.4205
C8K C -0.0394(3) -0.3256(3) 0.4562(2)
C9K C -0.2241(3) -0.1628(4) 0.3708(3)
C10K C -0.2674(3) -0.1567(3) 0.3861(3)
C11K C -0.3090(5) -0.1801(6) 0.3783(5)
H4K H -0.3080 -0.1986 0.3591
C12K C -0.3512(4) -0.1800(10) 0.3949(6)
C13K C -0.3531(3) -0.1431(6) 0.4201(4)
H5K H -0.3814 -0.1373 0.4311
C14K C -0.3144(3) -0.1169(4) 0.4281(3)
C15K C -0.2717(3) -0.1253(3) 0.4123(2)
H6K H -0.2450 -0.1092 0.4197
C16K C -0.3166(3) -0.0841(3) 0.4547(2)
C17K C -0.1655(3) -0.0984(3) 0.3071(2)
C18K C -0.1811(4) -0.0568(4) 0.2917(3)
C19K C -0.2006(7) -0.0594(4) 0.2618(3)
H7K H -0.2077 -0.0889 0.2529
C20K C -0.2112(9) -0.0173(5) 0.2426(5)
C21K C -0.2043(6) 0.0249(4) 0.2590(3)
H8K H -0.2109 0.0529 0.2478
C22K C -0.1874(5) 0.0270(4) 0.2920(3)
C23K C -0.1734(3) -0.0138(3) 0.3059(2)
H9K H -0.1577 -0.0126 0.3263
C24K C -0.1801(4) 0.0722(4) 0.3075(2)
C25K C -0.1393(16) -0.4176(10) 0.3792(12)
C26K C -0.1903(10) -0.4222(9) 0.3776(8)
H10K H -0.2040 -0.3924 0.3719
H11K H -0.1986 -0.4451 0.3610
H12K H -0.2020 -0.4322 0.3989
C27K C -0.1255(15) -0.4216(12) 0.3428(12)
H13K H -0.0919 -0.4199 0.3408
H14K H -0.1364 -0.4511 0.3340
H15K H -0.1396 -0.3963 0.3304
C28K C -0.3963(7) -0.2075(10) 0.3888(8)
C29K C -0.3836(8) -0.2431(11) 0.3641(9)
H16K H -0.3595 -0.2308 0.3497
H17K H -0.3720 -0.2707 0.3752
H18K H -0.4108 -0.2511 0.3511
C30K C -0.4155(17) -0.2270(18) 0.4209(10)
H19K H -0.4215 -0.2016 0.4361
H20K H -0.4443 -0.2437 0.4166
H21K H -0.3929 -0.2482 0.4305
C31K C -0.4237(9) -0.1724(11) 0.3684(8)
H22K H -0.4051 -0.1626 0.3497
H23K H -0.4523 -0.1867 0.3606
H24K H -0.4312 -0.1455 0.3819
C32K C -0.2318(12) -0.0123(13) 0.2073(6)
C33K C -0.2246(15) -0.0598(12) 0.1921(7)
H25K H -0.1915 -0.0662 0.1905
H26K H -0.2394 -0.0833 0.2058
H27K H -0.2383 -0.0603 0.1702
C34K C -0.2772(10) 0.0048(9) 0.2148(7)
H28K H -0.2747 0.0342 0.2265
H29K H -0.2944 0.0096 0.1945
H30K H -0.2935 -0.0177 0.2285
C35K C -0.2005(15) 0.0151(15) 0.1837(6)
H31K H -0.2010 0.0479 0.1897
H32K H -0.1689 0.0034 0.1851
H33K H -0.2119 0.0115 0.1613
C36K C -0.1128(17) -0.4536(11) 0.3913(11)
H34K H -0.0809 -0.4432 0.3943
H35K H -0.1254 -0.4637 0.4124
H36K H -0.1135 -0.4795 0.3759
Pd2H Pd 0.14949(2) -0.12942(2) 0.36009(2)
Cu2H Cu 0.19681(4) -0.16966(3) 0.31592(3)
O1H O 0.2509(2) -0.1530(2) 0.34366(18)
O2H O 0.20848(18) -0.11692(18) 0.38244(14)
O3H O 0.36282(17) -0.0240(2) 0.4669(2)
O4H O 0.28555(15) -0.02871(17) 0.46527(14)
O5H O 0.1450(2) -0.19058(17) 0.38192(13)
O6H O 0.1865(3) -0.2252(2) 0.34331(17)
O7H O 0.0714(2) -0.35679(19) 0.46364(17)
O8H O 0.06729(18) -0.27884(15) 0.46513(12)
O9H O 0.1349(2) -0.1785(3) 0.29371(16)
O10H O 0.09357(18) -0.1453(2) 0.33427(14)
O11H O -0.07187(19) -0.1579(2) 0.33437(15)
O12H O -0.1065(2) -0.1990(3) 0.29435(17)
O13H O 0.2357(4) -0.2054(4) 0.2801(3)
C1H C 0.2471(3) -0.1303(4) 0.3701(3)
C2H C 0.2888(3) -0.1176(3) 0.3872(3)
C3H C 0.3311(5) -0.1352(7) 0.3768(5)
H1H H 0.3330 -0.1570 0.3596
C4H C 0.3728(5) -0.1186(7) 0.3936(6)
C5H C 0.3690(3) -0.0927(6) 0.4193(5)
H2H H 0.3958 -0.0854 0.4317
C6H C 0.3260(3) -0.0753(4) 0.4292(3)
C7H C 0.2879(3) -0.0881(3) 0.4133(3)
H3H H 0.2590 -0.0764 0.4205
C8H C 0.3256(3) -0.0394(3) 0.4562(2)
C9H C 0.1628(4) -0.2241(3) 0.3708(3)
C10H C 0.1567(3) -0.2674(3) 0.3861(3)
C11H C 0.1801(6) -0.3090(5) 0.3783(5)
H4H H 0.1986 -0.3080 0.3591
C12H C 0.1800(10) -0.3512(4) 0.3949(6)
C13H C 0.1431(6) -0.3531(3) 0.4201(4)
H5H H 0.1373 -0.3814 0.4311
C14H C 0.1169(4) -0.3144(3) 0.4281(3)
C15H C 0.1253(3) -0.2717(3) 0.4123(2)
H6H H 0.1092 -0.2450 0.4197
C16H C 0.0841(3) -0.3166(3) 0.4547(2)
C17H C 0.0984(3) -0.1655(3) 0.3071(2)
C18H C 0.0568(4) -0.1811(4) 0.2917(3)
C19H C 0.0594(4) -0.2006(7) 0.2618(3)
H7H H 0.0889 -0.2077 0.2529
C20H C 0.0173(5) -0.2112(9) 0.2426(5)
C21H C -0.0249(4) -0.2043(6) 0.2590(3)
H8H H -0.0529 -0.2109 0.2478
C22H C -0.0270(4) -0.1874(5) 0.2920(3)
C23H C 0.0138(3) -0.1734(3) 0.3059(2)
H9H H 0.0126 -0.1577 0.3263
C24H C -0.0722(4) -0.1801(4) 0.3075(2)
C25H C 0.4176(10) -0.1393(16) 0.3792(12)
C26H C 0.4222(9) -0.1903(10) 0.3776(8)
H10H H 0.3924 -0.2040 0.3719
H11H H 0.4451 -0.1986 0.3610
H12H H 0.4322 -0.2020 0.3989
C27H C 0.4216(12) -0.1255(15) 0.3428(12)
H13H H 0.4199 -0.0919 0.3408
H14H H 0.4511 -0.1364 0.3340
H15H H 0.3963 -0.1396 0.3304
C28H C 0.2075(10) -0.3963(7) 0.3888(8)
C29H C 0.2431(11) -0.3836(8) 0.3641(9)
H16H H 0.2308 -0.3595 0.3497
H17H H 0.2707 -0.3720 0.3752
H18H H 0.2511 -0.4108 0.3511
C30H C 0.2270(18) -0.4155(17) 0.4209(10)
H19H H 0.2016 -0.4215 0.4361
H20H H 0.2437 -0.4443 0.4166
H21H H 0.2482 -0.3929 0.4305
C31H C 0.1724(11) -0.4237(9) 0.3684(8)
H22H H 0.1626 -0.4051 0.3497
H23H H 0.1867 -0.4523 0.3606
H24H H 0.1455 -0.4312 0.3819
C32H C 0.0123(13) -0.2318(12) 0.2073(6)
C33H C 0.0598(12) -0.2246(15) 0.1921(7)
H25H H 0.0662 -0.1915 0.1905
H26H H 0.0833 -0.2394 0.2058
H27H H 0.0603 -0.2383 0.1702
C34H C -0.0048(9) -0.2772(10) 0.2148(7)
H28H H -0.0342 -0.2747 0.2265
H29H H -0.0096 -0.2944 0.1945
H30H H 0.0177 -0.2935 0.2285
C35H C -0.0151(15) -0.2005(15) 0.1837(6)
H31H H -0.0479 -0.2010 0.1897
H32H H -0.0034 -0.1689 0.1851
H33H H -0.0115 -0.2119 0.1613
C36H C 0.4536(11) -0.1128(17) 0.3913(11)
H34H H 0.4432 -0.0809 0.3943
H35H H 0.4637 -0.1254 0.4124
H36H H 0.4795 -0.1135 0.3759
loop_
_geom_bond_atom_site_label_1
_geom_bond_atom_site_label_2
_geom_bond_site_symmetry_1
_geom_bond_site_symmetry_2
Pd1 O4 1_555 1_555
Pd2 O2 1_555 1_555
Cu1 O3 1_555 1_555
Cu2 O1 1_555 1_555
O1 C1 1_555 1_555
O2 C1 1_555 1_555
O3 C8 1_555 1_555
O4 C8 1_555 1_555
O5 Pd2 1_555 1_555
O6 Cu2 1_555 1_555
O7 C16 1_555 1_555
O8 C16 1_555 1_555
O9 Cu2 1_555 1_555
O10 Pd2 1_555 1_555
O11 C24 1_555 1_555
O12 C24 1_555 1_555
O13 Cu2 1_555 1_555
O14 Cu1 1_555 1_555
C1 C2 1_555 1_555
C2 C3 1_555 1_555
C3 H1 1_555 1_555
C4 C3 1_555 1_555
C5 C4 1_555 1_555
H2 C5 1_555 1_555
C6 C5 1_555 1_555
C7 C2 1_555 1_555
H3 C7 1_555 1_555
C8 C6 1_555 1_555
C9 O5 1_555 1_555
C10 C9 1_555 1_555
C11 C10 1_555 1_555
H4 C11 1_555 1_555
C12 C11 1_555 1_555
C13 C12 1_555 1_555
H5 C13 1_555 1_555
C14 C13 1_555 1_555
C15 C10 1_555 1_555
H6 C15 1_555 1_555
C16 C14 1_555 1_555
C17 O9 1_555 1_555
C18 C17 1_555 1_555
C19 C18 1_555 1_555
H7 C19 1_555 1_555
C20 C19 1_555 1_555
C21 C20 1_555 1_555
H8 C21 1_555 1_555
C22 C21 1_555 1_555
C23 C18 1_555 1_555
H9 C23 1_555 1_555
C24 C22 1_555 1_555
C25 C4 1_555 1_555
C26 C25 1_555 1_555
H10 C26 1_555 1_555
H11 C26 1_555 1_555
H12 C26 1_555 1_555
C27 C25 1_555 1_555
H13 C27 1_555 1_555
H14 C27 1_555 1_555
H15 C27 1_555 1_555
C28 C12 1_555 1_555
C29 C28 1_555 1_555
H16 C29 1_555 1_555
H17 C29 1_555 1_555
H18 C29 1_555 1_555
C30 C28 1_555 1_555
H19 C30 1_555 1_555
H20 C30 1_555 1_555
H21 C30 1_555 1_555
C31 C28 1_555 1_555
H22 C31 1_555 1_555
H23 C31 1_555 1_555
H24 C31 1_555 1_555
C32 C20 1_555 1_555
C33 C32 1_555 1_555
H25 C33 1_555 1_555
H26 C33 1_555 1_555
H27 C33 1_555 1_555
C34 C32 1_555 1_555
H28 C34 1_555 1_555
H29 C34 1_555 1_555
H30 C34 1_555 1_555
C35 C32 1_555 1_555
H31 C35 1_555 1_555
H32 C35 1_555 1_555
H33 C35 1_555 1_555
C36 C25 1_555 1_555
H34 C36 1_555 1_555
H35 C36 1_555 1_555
H36 C36 1_555 1_555
Pd1A O4A 1_555 1_555
Pd2A O2A 1_555 1_555
Cu1A O3A 1_555 1_555
Cu2A O1A 1_555 1_555
O1A C1A 1_555 1_555
O2A C1A 1_555 1_555
O3A C8A 1_555 1_555
O4A C8A 1_555 1_555
O5A Pd2A 1_555 1_555
O6A Cu2A 1_555 1_555
O7A Cu1 1_555 1_555
O8A Pd1 1_555 1_555
O9A Cu2A 1_555 1_555
O10A Pd2A 1_555 1_555
O11A Pd2 1_555 1_555
O12A Cu2 1_555 1_555
O13A Cu2A 1_555 1_555
O14A Cu1A 1_555 1_555
C1A C2A 1_555 1_555
C2A C3A 1_555 1_555
C3A H1A 1_555 1_555
C4A C3A 1_555 1_555
C5A C4A 1_555 1_555
H2A C5A 1_555 1_555
C6A C5A 1_555 1_555
C7A C2A 1_555 1_555
H3A C7A 1_555 1_555
C8A C6A 1_555 1_555
C9A O5A 1_555 1_555
C10A C9A 1_555 1_555
C11A C10A 1_555 1_555
H4A C11A 1_555 1_555
C12A C11A 1_555 1_555
C13A C12A 1_555 1_555
H5A C13A 1_555 1_555
C14A C13A 1_555 1_555
C15A C10A 1_555 1_555
H6A C15A 1_555 1_555
C16A O7A 1_555 1_555
C17A O9A 1_555 1_555
C18A C17A 1_555 1_555
C19A C18A 1_555 1_555
H7A C19A 1_555 1_555
C20A C19A 1_555 1_555
C21A C20A 1_555 1_555
H8A C21A 1_555 1_555
C22A C21A 1_555 1_555
C23A C18A 1_555 1_555
H9A C23A 1_555 1_555
C24A O11A 1_555 1_555
C25A C4A 1_555 1_555
C26A C25A 1_555 1_555
H10A C26A 1_555 1_555
H11A C26A 1_555 1_555
H12A C26A 1_555 1_555
C27A C25A 1_555 1_555
H13A C27A 1_555 1_555
H14A C27A 1_555 1_555
H15A C27A 1_555 1_555
C28A C12A 1_555 1_555
C29A C28A 1_555 1_555
H16A C29A 1_555 1_555
H17A C29A 1_555 1_555
H18A C29A 1_555 1_555
C30A C28A 1_555 1_555
H19A C30A 1_555 1_555
H20A C30A 1_555 1_555
H21A C30A 1_555 1_555
C31A C28A 1_555 1_555
H22A C31A 1_555 1_555
H23A C31A 1_555 1_555
H24A C31A 1_555 1_555
C32A C20A 1_555 1_555
C33A C32A 1_555 1_555
H25A C33A 1_555 1_555
H26A C33A 1_555 1_555
H27A C33A 1_555 1_555
C34A C32A 1_555 1_555
H28A C34A 1_555 1_555
H29A C34A 1_555 1_555
H30A C34A 1_555 1_555
C35A C32A 1_555 1_555
H31A C35A 1_555 1_555
H32A C35A 1_555 1_555
H33A C35A 1_555 1_555
C36A C25A 1_555 1_555
H34A C36A 1_555 1_555
H35A C36A 1_555 1_555
H36A C36A 1_555 1_555
Pd1B O4B 1_555 1_555
Pd2B O2B 1_555 1_555
Cu1B O3B 1_555 1_555
Cu2B O1B 1_555 1_555
O1B C1B 1_555 1_555
O2B C1B 1_555 1_555
O3B C8B 1_555 1_555
O4B C8B 1_555 1_555
O5B Pd2B 1_555 1_555
O6B Cu2B 1_555 1_555
O7B Cu1A 1_555 1_555
O8B Pd1A 1_555 1_555
O9B Cu2B 1_555 1_555
O10B Pd2B 1_555 1_555
O11B Pd2A 1_555 1_555
O12B Cu2A 1_555 1_555
O13B Cu2B 1_555 1_555
O14B Cu1B 1_555 1_555
C1B C2B 1_555 1_555
C2B C3B 1_555 1_555
C3B H1B 1_555 1_555
C4B C3B 1_555 1_555
C5B C4B 1_555 1_555
H2B C5B 1_555 1_555
C6B C5B 1_555 1_555
C7B C2B 1_555 1_555
H3B C7B 1_555 1_555
C8B C6B 1_555 1_555
C9B O5B 1_555 1_555
C10B C9B 1_555 1_555
C11B C10B 1_555 1_555
H4B C11B 1_555 1_555
C12B C11B 1_555 1_555
C13B C12B 1_555 1_555
H5B C13B 1_555 1_555
C14B C13B 1_555 1_555
C15B C10B 1_555 1_555
H6B C15B 1_555 1_555
C16B O7B 1_555 1_555
C17B O9B 1_555 1_555
C18B C17B 1_555 1_555
C19B C18B 1_555 1_555
H7B C19B 1_555 1_555
C20B C19B 1_555 1_555
C21B C20B 1_555 1_555
H8B C21B 1_555 1_555
C22B C21B 1_555 1_555
C23B C18B 1_555 1_555
H9B C23B 1_555 1_555
C24B O11B 1_555 1_555
C25B C4B 1_555 1_555
C26B C25B 1_555 1_555
H10B C26B 1_555 1_555
H11B C26B 1_555 1_555
H12B C26B 1_555 1_555
C27B C25B 1_555 1_555
H13B C27B 1_555 1_555
H14B C27B 1_555 1_555
H15B C27B 1_555 1_555
C28B C12B 1_555 1_555
C29B C28B 1_555 1_555
H16B C29B 1_555 1_555
H17B C29B 1_555 1_555
H18B C29B 1_555 1_555
C30B C28B 1_555 1_555
H19B C30B 1_555 1_555
H20B C30B 1_555 1_555
H21B C30B 1_555 1_555
C31B C28B 1_555 1_555
H22B C31B 1_555 1_555
H23B C31B 1_555 1_555
H24B C31B 1_555 1_555
C32B C20B 1_555 1_555
C33B C32B 1_555 1_555
H25B C33B 1_555 1_555
H26B C33B 1_555 1_555
H27B C33B 1_555 1_555
C34B C32B 1_555 1_555
H28B C34B 1_555 1_555
H29B C34B 1_555 1_555
H30B C34B 1_555 1_555
C35B C32B 1_555 1_555
H31B C35B 1_555 1_555
H32B C35B 1_555 1_555
H33B C35B 1_555 1_555
C36B C25B 1_555 1_555
H34B C36B 1_555 1_555
H35B C36B 1_555 1_555
H36B C36B 1_555 1_555
Pd1C O8 1_555 1_555
Pd2C O11 1_555 1_555
Cu1C O7 1_555 1_555
Cu2C O12 1_555 1_555
O1C Cu2C 1_555 1_555
O2C Pd2C 1_555 1_555
O3C Cu1C 1_555 1_555
O4C Pd1C 1_555 1_555
O5C Pd2C 1_555 1_555
O6C Cu2C 1_555 1_555
O7C Cu1B 1_555 1_555
O8C Pd1B 1_555 1_555
O9C Cu2C 1_555 1_555
O10C Pd2C 1_555 1_555
O11C Pd2B 1_555 1_555
O12C Cu2B 1_555 1_555
O13C Cu2C 1_555 1_555
O14C Cu1C 1_555 1_555
C1C O1C 1_555 1_555
C2C C1C 1_555 1_555
C3C C2C 1_555 1_555
H1C C3C 1_555 1_555
C4C C3C 1_555 1_555
C5C C4C 1_555 1_555
H2C C5C 1_555 1_555
C6C C5C 1_555 1_555
C7C C2C 1_555 1_555
H3C C7C 1_555 1_555
C8C O3C 1_555 1_555
C9C O5C 1_555 1_555
C10C C9C 1_555 1_555
C11C C10C 1_555 1_555
H4C C11C 1_555 1_555
C12C C11C 1_555 1_555
C13C C12C 1_555 1_555
H5C C13C 1_555 1_555
C14C C13C 1_555 1_555
C15C C10C 1_555 1_555
H6C C15C 1_555 1_555
C16C O7C 1_555 1_555
C17C O9C 1_555 1_555
C18C C17C 1_555 1_555
C19C C18C 1_555 1_555
H7C C19C 1_555 1_555
C20C C19C 1_555 1_555
C21C C20C 1_555 1_555
H8C C21C 1_555 1_555
C22C C21C 1_555 1_555
C23C C18C 1_555 1_555
H9C C23C 1_555 1_555
C24C O11C 1_555 1_555
C25C C4C 1_555 1_555
C26C C25C 1_555 1_555
H10C C26C 1_555 1_555
H11C C26C 1_555 1_555
H12C C26C 1_555 1_555
C27C C25C 1_555 1_555
H13C C27C 1_555 1_555
H14C C27C 1_555 1_555
H15C C27C 1_555 1_555
C28C C12C 1_555 1_555
C29C C28C 1_555 1_555
H16C C29C 1_555 1_555
H17C C29C 1_555 1_555
H18C C29C 1_555 1_555
C30C C28C 1_555 1_555
H19C C30C 1_555 1_555
H20C C30C 1_555 1_555
H21C C30C 1_555 1_555
C31C C28C 1_555 1_555
H22C C31C 1_555 1_555
H23C C31C 1_555 1_555
H24C C31C 1_555 1_555
C32C C20C 1_555 1_555
C33C C32C 1_555 1_555
H25C C33C 1_555 1_555
H26C C33C 1_555 1_555
H27C C33C 1_555 1_555
C34C C32C 1_555 1_555
H28C C34C 1_555 1_555
H29C C34C 1_555 1_555
H30C C34C 1_555 1_555
C35C C32C 1_555 1_555
H31C C35C 1_555 1_555
H32C C35C 1_555 1_555
H33C C35C 1_555 1_555
C36C C25C 1_555 1_555
H34C C36C 1_555 1_555
H35C C36C 1_555 1_555
H36C C36C 1_555 1_555
Pd2I O2I 1_555 1_555
Cu2I O1I 1_555 1_555
O1I C1I 1_555 1_555
O2I C1I 1_555 1_555
O3I Cu1C 1_555 1_555
O4I Pd1C 1_555 1_555
O5I Pd2I 1_555 1_555
O6I Cu2I 1_555 1_555
O7I Cu1B 1_555 1_555
O8I Pd1B 1_555 1_555
O9I Cu2I 1_555 1_555
O10I Pd2I 1_555 1_555
O11I C24I 1_555 1_555
O12I C24I 1_555 1_555
O13I Cu2I 1_555 1_555
C1I C2I 1_555 1_555
C2I C3I 1_555 1_555
C3I H1I 1_555 1_555
C4I C3I 1_555 1_555
C5I C4I 1_555 1_555
H2I C5I 1_555 1_555
C6I C5I 1_555 1_555
C7I C2I 1_555 1_555
H3I C7I 1_555 1_555
C8I O3I 1_555 1_555
C9I O5I 1_555 1_555
C10I C9I 1_555 1_555
C11I C10I 1_555 1_555
H4I C11I 1_555 1_555
C12I C11I 1_555 1_555
C13I C12I 1_555 1_555
H5I C13I 1_555 1_555
C14I C13I 1_555 1_555
C15I C10I 1_555 1_555
H6I C15I 1_555 1_555
C16I O7I 1_555 1_555
C17I O9I 1_555 1_555
C18I C17I 1_555 1_555
C19I C18I 1_555 1_555
H7I C19I 1_555 1_555
C20I C19I 1_555 1_555
C21I C20I 1_555 1_555
H8I C21I 1_555 1_555
C22I C21I 1_555 1_555
C23I C18I 1_555 1_555
H9I C23I 1_555 1_555
C24I C22I 1_555 1_555
C25I C4I 1_555 1_555
C26I C25I 1_555 1_555
H10I C26I 1_555 1_555
H11I C26I 1_555 1_555
H12I C26I 1_555 1_555
C27I C25I 1_555 1_555
H13I C27I 1_555 1_555
H14I C27I 1_555 1_555
H15I C27I 1_555 1_555
C28I C12I 1_555 1_555
C29I C28I 1_555 1_555
H16I C29I 1_555 1_555
H17I C29I 1_555 1_555
H18I C29I 1_555 1_555
C30I C28I 1_555 1_555
H19I C30I 1_555 1_555
H20I C30I 1_555 1_555
H21I C30I 1_555 1_555
C31I C28I 1_555 1_555
H22I C31I 1_555 1_555
H23I C31I 1_555 1_555
H24I C31I 1_555 1_555
C32I C20I 1_555 1_555
C33I C32I 1_555 1_555
H25I C33I 1_555 1_555
H26I C33I 1_555 1_555
H27I C33I 1_555 1_555
C34I C32I 1_555 1_555
H28I C34I 1_555 1_555
H29I C34I 1_555 1_555
H30I C34I 1_555 1_555
C35I C32I 1_555 1_555
H31I C35I 1_555 1_555
H32I C35I 1_555 1_555
H33I C35I 1_555 1_555
C36I C25I 1_555 1_555
H34I C36I 1_555 1_555
H35I C36I 1_555 1_555
H36I C36I 1_555 1_555
Pd2J O2J 1_555 1_555
Cu2J O1J 1_555 1_555
O1J C1J 1_555 1_555
O2J C1J 1_555 1_555
O3J Cu1 1_555 1_555
O4J Pd1 1_555 1_555
O5J Pd2J 1_555 1_555
O6J Cu2J 1_555 1_555
O7J Cu1C 1_555 1_555
O8J Pd1C 1_555 1_555
O9J Cu2J 1_555 1_555
O10J Pd2J 1_555 1_555
O11J Pd2I 1_555 1_555
O12J Cu2I 1_555 1_555
O13J Cu2J 1_555 1_555
C1J C2J 1_555 1_555
C2J C3J 1_555 1_555
C3J H1J 1_555 1_555
C4J C3J 1_555 1_555
C5J C4J 1_555 1_555
H2J C5J 1_555 1_555
C6J C5J 1_555 1_555
C7J C2J 1_555 1_555
H3J C7J 1_555 1_555
C8J O3J 1_555 1_555
C9J O5J 1_555 1_555
C10J C9J 1_555 1_555
C11J C10J 1_555 1_555
H4J C11J 1_555 1_555
C12J C11J 1_555 1_555
C13J C12J 1_555 1_555
H5J C13J 1_555 1_555
C14J C13J 1_555 1_555
C15J C10J 1_555 1_555
H6J C15J 1_555 1_555
C16J O7J 1_555 1_555
C17J O9J 1_555 1_555
C18J C17J 1_555 1_555
C19J C18J 1_555 1_555
H7J C19J 1_555 1_555
C20J C19J 1_555 1_555
C21J C20J 1_555 1_555
H8J C21J 1_555 1_555
C22J C21J 1_555 1_555
C23J C18J 1_555 1_555
H9J C23J 1_555 1_555
C24J O11J 1_555 1_555
C25J C4J 1_555 1_555
C26J C25J 1_555 1_555
H10J C26J 1_555 1_555
H11J C26J 1_555 1_555
H12J C26J 1_555 1_555
C27J C25J 1_555 1_555
H13J C27J 1_555 1_555
H14J C27J 1_555 1_555
H15J C27J 1_555 1_555
C28J C12J 1_555 1_555
C29J C28J 1_555 1_555
H16J C29J 1_555 1_555
H17J C29J 1_555 1_555
H18J C29J 1_555 1_555
C30J C28J 1_555 1_555
H19J C30J 1_555 1_555
H20J C30J 1_555 1_555
H21J C30J 1_555 1_555
C31J C28J 1_555 1_555
H22J C31J 1_555 1_555
H23J C31J 1_555 1_555
H24J C31J 1_555 1_555
C32J C20J 1_555 1_555
C33J C32J 1_555 1_555
H25J C33J 1_555 1_555
H26J C33J 1_555 1_555
H27J C33J 1_555 1_555
C34J C32J 1_555 1_555
H28J C34J 1_555 1_555
H29J C34J 1_555 1_555
H30J C34J 1_555 1_555
C35J C32J 1_555 1_555
H31J C35J 1_555 1_555
H32J C35J 1_555 1_555
H33J C35J 1_555 1_555
C36J C25J 1_555 1_555
H34J C36J 1_555 1_555
H35J C36J 1_555 1_555
H36J C36J 1_555 1_555
Pd2K O2K 1_555 1_555
Cu2K O1K 1_555 1_555
O1K C1K 1_555 1_555
O2K C1K 1_555 1_555
O3K Cu1A 1_555 1_555
O4K Pd1A 1_555 1_555
O5K Pd2K 1_555 1_555
O6K Cu2K 1_555 1_555
O7K Cu1 1_555 1_555
O8K Pd1 1_555 1_555
O9K Cu2K 1_555 1_555
O10K Pd2K 1_555 1_555
O11K Pd2J 1_555 1_555
O12K Cu2J 1_555 1_555
O13K Cu2K 1_555 1_555
C1K C2K 1_555 1_555
C2K C3K 1_555 1_555
C3K H1K 1_555 1_555
C4K C3K 1_555 1_555
C5K C4K 1_555 1_555
H2K C5K 1_555 1_555
C6K C5K 1_555 1_555
C7K C2K 1_555 1_555
H3K C7K 1_555 1_555
C8K O3K 1_555 1_555
C9K O5K 1_555 1_555
C10K C9K 1_555 1_555
C11K C10K 1_555 1_555
H4K C11K 1_555 1_555
C12K C11K 1_555 1_555
C13K C12K 1_555 1_555
H5K C13K 1_555 1_555
C14K C13K 1_555 1_555
C15K C10K 1_555 1_555
H6K C15K 1_555 1_555
C16K O7K 1_555 1_555
C17K O9K 1_555 1_555
C18K C17K 1_555 1_555
C19K C18K 1_555 1_555
H7K C19K 1_555 1_555
C20K C19K 1_555 1_555
C21K C20K 1_555 1_555
H8K C21K 1_555 1_555
C22K C21K 1_555 1_555
C23K C18K 1_555 1_555
H9K C23K 1_555 1_555
C24K O11K 1_555 1_555
C25K C4K 1_555 1_555
C26K C25K 1_555 1_555
H10K C26K 1_555 1_555
H11K C26K 1_555 1_555
H12K C26K 1_555 1_555
C27K C25K 1_555 1_555
H13K C27K 1_555 1_555
H14K C27K 1_555 1_555
H15K C27K 1_555 1_555
C28K C12K 1_555 1_555
C29K C28K 1_555 1_555
H16K C29K 1_555 1_555
H17K C29K 1_555 1_555
H18K C29K 1_555 1_555
C30K C28K 1_555 1_555
H19K C30K 1_555 1_555
H20K C30K 1_555 1_555
H21K C30K 1_555 1_555
C31K C28K 1_555 1_555
H22K C31K 1_555 1_555
H23K C31K 1_555 1_555
H24K C31K 1_555 1_555
C32K C20K 1_555 1_555
C33K C32K 1_555 1_555
H25K C33K 1_555 1_555
H26K C33K 1_555 1_555
H27K C33K 1_555 1_555
C34K C32K 1_555 1_555
H28K C34K 1_555 1_555
H29K C34K 1_555 1_555
H30K C34K 1_555 1_555
C35K C32K 1_555 1_555
H31K C35K 1_555 1_555
H32K C35K 1_555 1_555
H33K C35K 1_555 1_555
C36K C25K 1_555 1_555
H34K C36K 1_555 1_555
H35K C36K 1_555 1_555
H36K C36K 1_555 1_555
Pd2H O11I 1_555 1_555
Cu2H O12I 1_555 1_555
O1H Cu2H 1_555 1_555
O2H Pd2H 1_555 1_555
O3H Cu1B 1_555 1_555
O4H Pd1B 1_555 1_555
O5H Pd2H 1_555 1_555
O6H Cu2H 1_555 1_555
O7H Cu1A 1_555 1_555
O8H Pd1A 1_555 1_555
O9H Cu2H 1_555 1_555
O10H Pd2H 1_555 1_555
O11H Pd2K 1_555 1_555
O12H Cu2K 1_555 1_555
O13H Cu2H 1_555 1_555
C1H O1H 1_555 1_555
C2H C1H 1_555 1_555
C3H C2H 1_555 1_555
H1H C3H 1_555 1_555
C4H C3H 1_555 1_555
C5H C4H 1_555 1_555
H2H C5H 1_555 1_555
C6H C5H 1_555 1_555
C7H C2H 1_555 1_555
H3H C7H 1_555 1_555
C8H O3H 1_555 1_555
C9H O5H 1_555 1_555
C10H C9H 1_555 1_555
C11H C10H 1_555 1_555
H4H C11H 1_555 1_555
C12H C11H 1_555 1_555
C13H C12H 1_555 1_555
H5H C13H 1_555 1_555
C14H C13H 1_555 1_555
C15H C10H 1_555 1_555
H6H C15H 1_555 1_555
C16H O7H 1_555 1_555
C17H O9H 1_555 1_555
C18H C17H 1_555 1_555
C19H C18H 1_555 1_555
H7H C19H 1_555 1_555
C20H C19H 1_555 1_555
C21H C20H 1_555 1_555
H8H C21H 1_555 1_555
C22H C21H 1_555 1_555
C23H C18H 1_555 1_555
H9H C23H 1_555 1_555
C24H O11H 1_555 1_555
C25H C4H 1_555 1_555
C26H C25H 1_555 1_555
H10H C26H 1_555 1_555
H11H C26H 1_555 1_555
H12H C26H 1_555 1_555
C27H C25H 1_555 1_555
H13H C27H 1_555 1_555
H14H C27H 1_555 1_555
H15H C27H 1_555 1_555
C28H C12H 1_555 1_555
C29H C28H 1_555 1_555
H16H C29H 1_555 1_555
H17H C29H 1_555 1_555
H18H C29H 1_555 1_555
C30H C28H 1_555 1_555
H19H C30H 1_555 1_555
H20H C30H 1_555 1_555
H21H C30H 1_555 1_555
C31H C28H 1_555 1_555
H22H C31H 1_555 1_555
H23H C31H 1_555 1_555
H24H C31H 1_555 1_555
C32H C20H 1_555 1_555
C33H C32H 1_555 1_555
H25H C33H 1_555 1_555
H26H C33H 1_555 1_555
H27H C33H 1_555 1_555
C34H C32H 1_555 1_555
H28H C34H 1_555 1_555
H29H C34H 1_555 1_555
H30H C34H 1_555 1_555
C35H C32H 1_555 1_555
H31H C35H 1_555 1_555
H32H C35H 1_555 1_555
H33H C35H 1_555 1_555
C36H C25H 1_555 1_555
H34H C36H 1_555 1_555
H35H C36H 1_555 1_555
H36H C36H 1_555 1_555
O6 C9 1_555 1_555
O10 C17 1_555 1_555
C6 C7 1_555 1_555
C14 C15 1_555 1_555
C22 C23 1_555 1_555
O6A C9A 1_555 1_555
O8A C16A 1_555 1_555
O10A C17A 1_555 1_555
O12A C24A 1_555 1_555
C6A C7A 1_555 1_555
C14A C15A 1_555 1_555
C14A C16A 1_555 1_555
C22A C23A 1_555 1_555
C22A C24A 1_555 1_555
O6B C9B 1_555 1_555
O8B C16B 1_555 1_555
O10B C17B 1_555 1_555
O12B C24B 1_555 1_555
C6B C7B 1_555 1_555
C14B C15B 1_555 1_555
C14B C16B 1_555 1_555
C22B C23B 1_555 1_555
C22B C24B 1_555 1_555
O2C C1C 1_555 1_555
O4C C8C 1_555 1_555
O6C C9C 1_555 1_555
O8C C16C 1_555 1_555
O10C C17C 1_555 1_555
O12C C24C 1_555 1_555
C6C C7C 1_555 1_555
C6C C8C 1_555 1_555
C14C C15C 1_555 1_555
C14C C16C 1_555 1_555
C22C C23C 1_555 1_555
C22C C24C 1_555 1_555
O4I C8I 1_555 1_555
O6I C9I 1_555 1_555
O8I C16I 1_555 1_555
O10I C17I 1_555 1_555
C6I C7I 1_555 1_555
C6I C8I 1_555 1_555
C14I C15I 1_555 1_555
C14I C16I 1_555 1_555
C22I C23I 1_555 1_555
O4J C8J 1_555 1_555
O6J C9J 1_555 1_555
O8J C16J 1_555 1_555
O10J C17J 1_555 1_555
O12J C24J 1_555 1_555
C6J C7J 1_555 1_555
C6J C8J 1_555 1_555
C14J C15J 1_555 1_555
C14J C16J 1_555 1_555
C22J C23J 1_555 1_555
C22J C24J 1_555 1_555
O4K C8K 1_555 1_555
O6K C9K 1_555 1_555
O8K C16K 1_555 1_555
O10K C17K 1_555 1_555
O12K C24K 1_555 1_555
C6K C7K 1_555 1_555
C6K C8K 1_555 1_555
C14K C15K 1_555 1_555
C14K C16K 1_555 1_555
C22K C23K 1_555 1_555
C22K C24K 1_555 1_555
O2H C1H 1_555 1_555
O4H C8H 1_555 1_555
O6H C9H 1_555 1_555
O8H C16H 1_555 1_555
O10H C17H 1_555 1_555
O12H C24H 1_555 1_555
C6H C7H 1_555 1_555
C6H C8H 1_555 1_555
C14H C15H 1_555 1_555
C14H C16H 1_555 1_555
C22H C23H 1_555 1_555
C22H C24H 1_555 1_555

#END
