
#######################################################################
#
#                 Cambridge Crystallographic Data Centre
#                                CCDC 
#
#######################################################################
#
# If this CIF has been generated from an entry in the Cambridge 
# Structural Database, then it will include bibliographic, chemical, 
# crystal, experimental, refinement or atomic coordinate data resulting 
# from the CCDC's data processing and validation procedures.
#
#######################################################################

data_QURCOX
_chemical_formula_moiety         'C288 H312 O108 Pd12 Zn12'
_chemical_name_systematic        
'tetracosakis(\m-5-t-butylbenzene-1,3-dicarboxylato)-dodeca-aqua-dodeca-zinc-dodeca-palladium unknown solvate'
_symmetry_cell_setting           tetragonal
_symmetry_space_group_name_H-M   'I 4/m'
_symmetry_Int_Tables_number      87
_space_group_name_Hall           '-I 4'
loop_
_symmetry_equiv_pos_site_id
_symmetry_equiv_pos_as_xyz
1 x,y,z
2 -y,x,z
3 -x,-y,z
4 y,-x,z
5 1/2+x,1/2+y,1/2+z
6 1/2-y,1/2+x,1/2+z
7 1/2-x,1/2-y,1/2+z
8 1/2+y,1/2-x,1/2+z
9 -x,-y,-z
10 y,-x,-z
11 x,y,-z
12 -y,x,-z
13 1/2-x,1/2-y,1/2-z
14 1/2+y,1/2-x,1/2-z
15 1/2+x,1/2+y,1/2-z
16 1/2-y,1/2+x,1/2-z
_cell_length_a                   28.935(4)
_cell_length_b                   28.935(4)
_cell_length_c                   41.164(8)
_cell_angle_alpha                90
_cell_angle_beta                 90
_cell_angle_gamma                90
_cell_volume                     34463.9
_exptl_crystal_colour            yellow
_exptl_crystal_description       Prism
_cell_formula_units_Z            2
loop_
_atom_site_label
_atom_site_type_symbol
_atom_site_fract_x
_atom_site_fract_y
_atom_site_fract_z
Pd1 Pd 0.71772(3) 0.02507(3) 0.0000
Pd2 Pd 0.84576(3) -0.12857(2) 0.14099(2)
Zn1 Zn 0.62958(5) 0.03297(5) 0.0000
O1 O 0.92611(18) -0.28051(18) 0.03479(12)
O2 O 0.90217(19) -0.14500(19) 0.16586(13)
O3 O 1.06943(17) -0.16042(19) 0.16621(13)
O4 O 0.78718(19) -0.11382(18) 0.11790(13)
C1 C 0.6711(4) -0.0327(3) 0.0449(2)
O5 O 0.85025(18) -0.18844(19) 0.11778(12)
C2 C 0.8301(3) -0.2246(3) 0.1309(3)
C3 C 0.9089(3) -0.3177(3) 0.0451(2)
C4 C 0.7490(4) -0.1258(3) 0.1301(2)
O6 O 0.71153(18) -0.02253(18) 0.03417(13)
C5 C 1.0697(3) -0.1839(3) 0.1925(2)
O7 O 0.9185(2) -0.35775(19) 0.03501(15)
C6 C 0.8985(3) -0.1677(3) 0.1921(2)
C7 C 0.7083(3) -0.0824(3) 0.0866(2)
H1 H 0.7375 -0.0720 0.0790
O8 O 0.8072(2) -0.2238(2) 0.15679(15)
O9 O 0.63385(18) -0.0164(2) 0.03372(16)
O10 O 0.74404(19) -0.1497(2) 0.15605(15)
C8 C 0.6697(3) -0.0675(3) 0.0715(2)
C9 C 0.8666(3) -0.2717(3) 0.0866(2)
H2 H 0.8812 -0.2445 0.0788
O11 O 1.1039(2) -0.2029(2) 0.20536(15)
O12 O 0.5571(3) 0.0386(4) 0.0000
C10 C 0.9411(3) -0.1814(4) 0.2081(2)
C11 C 0.9832(3) -0.1754(3) 0.1939(2)
H3 H 0.9847 -0.1607 0.1733
C12 C 1.0234(3) -0.1898(4) 0.2082(2)
C13 C 0.8365(3) -0.2689(3) 0.1131(2)
O13 O 0.8605(2) -0.1792(2) 0.20512(15)
C14 C 0.7070(3) -0.1118(3) 0.1125(2)
C15 C 0.6270(4) -0.0858(5) 0.0806(3)
H4 H 0.5999 -0.0770 0.0691
C16 C 1.0211(5) -0.2126(6) 0.2393(3)
H5 H 1.0486 -0.2233 0.2494
C17 C 0.8753(3) -0.3132(3) 0.0718(2)
C18 C 0.8125(4) -0.3087(3) 0.1228(3)
H6 H 0.7909 -0.3064 0.1401
O14 O 0.7587(3) -0.2008(3) 0.2212(2)
C19 C 0.9398(4) -0.2036(6) 0.2389(3)
H7 H 0.9103 -0.2077 0.2486
C20 C 0.8189(5) -0.3509(4) 0.1080(4)
C21 C 0.8492(5) -0.3542(3) 0.0823(3)
H8 H 0.8531 -0.3828 0.0714
C22 C 0.9762(5) -0.2192(7) 0.2552(3)
Zn2 Zn 0.79761(3) -0.16835(3) 0.18494(2)
C23 C 0.6236(4) -0.1163(5) 0.1059(4)
C24 C 0.6626(4) -0.1310(5) 0.1206(3)
H9 H 0.6608 -0.1546 0.1367
C25 C 0.8044(10) -0.3964(6) 0.1245(7)
C26 C 0.5789(6) -0.1432(14) 0.1138(9)
C27 C 0.7594(8) -0.3869(5) 0.1413(7)
H10 H 0.7652 -0.3701 0.1616
H11 H 0.7439 -0.4163 0.1462
H12 H 0.7396 -0.3683 0.1272
C28 C 0.7792(12) -0.4198(13) 0.0981(8)
H13 H 0.7637 -0.3966 0.0845
H14 H 0.7561 -0.4408 0.1073
H15 H 0.8010 -0.4374 0.0847
C29 C 0.8214(17) -0.4401(14) 0.1399(14)
H16 H 0.8103 -0.4667 0.1274
H17 H 0.8099 -0.4421 0.1622
H18 H 0.8553 -0.4401 0.1401
C30 C 0.5732(11) -0.1846(14) 0.1209(14)
H19 H 0.5797 -0.2038 0.1018
H20 H 0.5412 -0.1895 0.1279
H21 H 0.5942 -0.1931 0.1386
C31 C 0.5401(7) -0.1153(10) 0.0988(8)
H22 H 0.5122 -0.1344 0.0976
H23 H 0.5491 -0.1055 0.0769
H24 H 0.5340 -0.0880 0.1123
C32 C 0.5679(9) -0.1231(12) 0.1451(11)
H25 H 0.5712 -0.0894 0.1440
H26 H 0.5891 -0.1353 0.1616
H27 H 0.5361 -0.1310 0.1510
C33 C 1.0140(12) -0.2158(11) 0.3124(5)
H28 H 1.0444 -0.2111 0.3023
H29 H 1.0177 -0.2335 0.3325
H30 H 1.0001 -0.1858 0.3173
C34 C 1.0044(11) -0.2905(10) 0.2843(6)
H31 H 1.0371 -0.2871 0.2787
H32 H 0.9883 -0.3070 0.2668
H33 H 1.0016 -0.3082 0.3045
C35 C 0.9346(9) -0.2539(14) 0.2975(7)
H34 H 0.9280 -0.2426 0.3195
H35 H 0.9304 -0.2875 0.2969
H36 H 0.9135 -0.2393 0.2820
C36 C 0.9826(8) -0.2425(12) 0.2889(5)
Pd1A Pd 0.97493(3) -0.28228(3) 0.0000
Pd2A Pd 1.12857(2) -0.15424(3) 0.14099(2)
Zn1A Zn 0.96703(5) -0.37042(5) 0.0000
O1A O 1.28051(18) -0.07389(18) 0.03479(12)
O2A O 1.14500(19) -0.09783(19) 0.16586(13)
O3A O 1.16042(19) 0.06943(17) 0.16621(13)
O4A O 1.11382(18) -0.21282(19) 0.11790(13)
C1A C 1.0327(3) -0.3289(4) 0.0449(2)
O5A O 1.18844(19) -0.14975(18) 0.11778(12)
C2A C 1.2246(3) -0.1699(3) 0.1309(3)
C3A C 1.3177(3) -0.0911(3) 0.0451(2)
C4A C 1.1258(3) -0.2510(4) 0.1301(2)
O6A O 1.02253(18) -0.28847(18) 0.03417(13)
C5A C 1.1839(3) 0.0697(3) 0.1925(2)
O7A O 1.35775(19) -0.0815(2) 0.03501(15)
C6A C 1.1677(3) -0.1015(3) 0.1921(2)
C7A C 1.0824(3) -0.2917(3) 0.0866(2)
H1A H 1.0720 -0.2625 0.0790
O8A O 1.2238(2) -0.1928(2) 0.15679(15)
O9A O 1.0164(2) -0.36615(18) 0.03372(16)
O10A O 1.1497(2) -0.25596(19) 0.15605(15)
C8A C 1.0675(3) -0.3303(3) 0.0715(2)
C9A C 1.2717(3) -0.1334(3) 0.0866(2)
H2A H 1.2445 -0.1188 0.0788
O11A O 1.2029(2) 0.1039(2) 0.20536(15)
O12A O 0.9614(4) -0.4429(3) 0.0000
C10A C 1.1814(4) -0.0589(3) 0.2081(2)
C11A C 1.1754(3) -0.0168(3) 0.1939(2)
H3A H 1.1607 -0.0153 0.1733
C12A C 1.1898(4) 0.0234(3) 0.2082(2)
C13A C 1.2689(3) -0.1635(3) 0.1131(2)
O13A O 1.1792(2) -0.1395(2) 0.20512(15)
C14A C 1.1118(3) -0.2930(3) 0.1125(2)
C15A C 1.0858(5) -0.3730(4) 0.0806(3)
H4A H 1.0770 -0.4001 0.0691
C16A C 1.2126(6) 0.0211(5) 0.2393(3)
H5A H 1.2233 0.0486 0.2494
C17A C 1.3132(3) -0.1247(3) 0.0718(2)
C18A C 1.3087(3) -0.1875(4) 0.1228(3)
H6A H 1.3064 -0.2091 0.1401
O14A O 1.2008(3) -0.2413(3) 0.2212(2)
C19A C 1.2036(6) -0.0602(4) 0.2389(3)
H7A H 1.2077 -0.0897 0.2486
C20A C 1.3509(4) -0.1811(5) 0.1080(4)
C21A C 1.3542(3) -0.1508(5) 0.0823(3)
H8A H 1.3828 -0.1469 0.0714
C22A C 1.2192(7) -0.0238(5) 0.2552(3)
Zn2A Zn 1.16835(3) -0.20239(3) 0.18494(2)
C23A C 1.1163(5) -0.3764(4) 0.1059(4)
C24A C 1.1310(5) -0.3374(4) 0.1206(3)
H9A H 1.1546 -0.3392 0.1367
C25A C 1.3964(6) -0.1956(10) 0.1245(7)
C26A C 1.1432(14) -0.4211(6) 0.1138(9)
C27A C 1.3869(5) -0.2406(8) 0.1413(7)
H10A H 1.3701 -0.2348 0.1616
H11A H 1.4163 -0.2561 0.1462
H12A H 1.3683 -0.2604 0.1272
C28A C 1.4198(13) -0.2208(12) 0.0981(8)
H13A H 1.3966 -0.2363 0.0845
H14A H 1.4408 -0.2439 0.1073
H15A H 1.4374 -0.1990 0.0847
C29A C 1.4401(14) -0.1786(17) 0.1399(14)
H16A H 1.4667 -0.1897 0.1274
H17A H 1.4421 -0.1901 0.1622
H18A H 1.4401 -0.1447 0.1401
C30A C 1.1846(14) -0.4268(11) 0.1209(14)
H19A H 1.2038 -0.4203 0.1018
H20A H 1.1895 -0.4588 0.1279
H21A H 1.1931 -0.4058 0.1386
C31A C 1.1153(10) -0.4599(7) 0.0988(8)
H22A H 1.1344 -0.4878 0.0976
H23A H 1.1055 -0.4509 0.0769
H24A H 1.0880 -0.4660 0.1123
C32A C 1.1231(12) -0.4321(9) 0.1451(11)
H25A H 1.0894 -0.4288 0.1440
H26A H 1.1353 -0.4109 0.1616
H27A H 1.1310 -0.4639 0.1510
C33A C 1.2158(11) 0.0140(12) 0.3124(5)
H28A H 1.2111 0.0444 0.3023
H29A H 1.2335 0.0177 0.3325
H30A H 1.1858 0.0001 0.3173
C34A C 1.2905(10) 0.0044(11) 0.2843(6)
H31A H 1.2871 0.0371 0.2787
H32A H 1.3070 -0.0117 0.2668
H33A H 1.3082 0.0016 0.3045
C35A C 1.2539(14) -0.0654(9) 0.2975(7)
H34A H 1.2426 -0.0720 0.3195
H35A H 1.2875 -0.0696 0.2969
H36A H 1.2393 -0.0865 0.2820
C36A C 1.2425(12) -0.0174(8) 0.2889(5)
Pd1B Pd 1.28228(3) -0.02507(3) 0.0000
Pd2B Pd 1.15424(3) 0.12857(2) 0.14099(2)
Zn1B Zn 1.37042(5) -0.03297(5) 0.0000
O1B O 1.07389(18) 0.28051(18) 0.03479(12)
O2B O 1.09783(19) 0.14500(19) 0.16586(13)
O3B O 0.93057(17) 0.16042(19) 0.16621(13)
O4B O 1.21282(19) 0.11382(18) 0.11790(13)
C1B C 1.3289(4) 0.0327(3) 0.0449(2)
O5B O 1.14975(18) 0.18844(19) 0.11778(12)
C2B C 1.1699(3) 0.2246(3) 0.1309(3)
C3B C 1.0911(3) 0.3177(3) 0.0451(2)
C4B C 1.2510(4) 0.1258(3) 0.1301(2)
O6B O 1.28847(18) 0.02253(18) 0.03417(13)
C5B C 0.9303(3) 0.1839(3) 0.1925(2)
O7B O 1.0815(2) 0.35775(19) 0.03501(15)
C6B C 1.1015(3) 0.1677(3) 0.1921(2)
C7B C 1.2917(3) 0.0824(3) 0.0866(2)
H1B H 1.2625 0.0720 0.0790
O8B O 1.1928(2) 0.2238(2) 0.15679(15)
O9B O 1.36615(18) 0.0164(2) 0.03372(16)
O10B O 1.25596(19) 0.1497(2) 0.15605(15)
C8B C 1.3303(3) 0.0675(3) 0.0715(2)
C9B C 1.1334(3) 0.2717(3) 0.0866(2)
H2B H 1.1188 0.2445 0.0788
O11B O 0.8961(2) 0.2029(2) 0.20536(15)
O12B O 1.4429(3) -0.0386(4) 0.0000
C10B C 1.0589(3) 0.1814(4) 0.2081(2)
C11B C 1.0168(3) 0.1754(3) 0.1939(2)
H3B H 1.0153 0.1607 0.1733
C12B C 0.9766(3) 0.1898(4) 0.2082(2)
C13B C 1.1635(3) 0.2689(3) 0.1131(2)
O13B O 1.1395(2) 0.1792(2) 0.20512(15)
C14B C 1.2930(3) 0.1118(3) 0.1125(2)
C15B C 1.3730(4) 0.0858(5) 0.0806(3)
H4B H 1.4001 0.0770 0.0691
C16B C 0.9789(5) 0.2126(6) 0.2393(3)
H5B H 0.9514 0.2233 0.2494
C17B C 1.1247(3) 0.3132(3) 0.0718(2)
C18B C 1.1875(4) 0.3087(3) 0.1228(3)
H6B H 1.2091 0.3064 0.1401
O14B O 1.2413(3) 0.2008(3) 0.2212(2)
C19B C 1.0602(4) 0.2036(6) 0.2389(3)
H7B H 1.0897 0.2077 0.2486
C20B C 1.1811(5) 0.3509(4) 0.1080(4)
C21B C 1.1508(5) 0.3542(3) 0.0823(3)
H8B H 1.1469 0.3828 0.0714
C22B C 1.0238(5) 0.2192(7) 0.2552(3)
Zn2B Zn 1.20239(3) 0.16835(3) 0.18494(2)
C23B C 1.3764(4) 0.1163(5) 0.1059(4)
C24B C 1.3374(4) 0.1310(5) 0.1206(3)
H9B H 1.3392 0.1546 0.1367
C25B C 1.1956(10) 0.3964(6) 0.1245(7)
C26B C 1.4211(6) 0.1432(14) 0.1138(9)
C27B C 1.2406(8) 0.3869(5) 0.1413(7)
H10B H 1.2348 0.3701 0.1616
H11B H 1.2561 0.4163 0.1462
H12B H 1.2604 0.3683 0.1272
C28B C 1.2208(12) 0.4198(13) 0.0981(8)
H13B H 1.2363 0.3966 0.0845
H14B H 1.2439 0.4408 0.1073
H15B H 1.1990 0.4374 0.0847
C29B C 1.1786(17) 0.4401(14) 0.1399(14)
H16B H 1.1897 0.4667 0.1274
H17B H 1.1901 0.4421 0.1622
H18B H 1.1447 0.4401 0.1401
C30B C 1.4268(11) 0.1846(14) 0.1209(14)
H19B H 1.4203 0.2038 0.1018
H20B H 1.4588 0.1895 0.1279
H21B H 1.4058 0.1931 0.1386
C31B C 1.4599(7) 0.1153(10) 0.0988(8)
H22B H 1.4878 0.1344 0.0976
H23B H 1.4509 0.1055 0.0769
H24B H 1.4660 0.0880 0.1123
C32B C 1.4321(9) 0.1231(12) 0.1451(11)
H25B H 1.4288 0.0894 0.1440
H26B H 1.4109 0.1353 0.1616
H27B H 1.4639 0.1310 0.1510
C33B C 0.9860(12) 0.2158(11) 0.3124(5)
H28B H 0.9556 0.2111 0.3023
H29B H 0.9823 0.2335 0.3325
H30B H 0.9999 0.1858 0.3173
C34B C 0.9956(11) 0.2905(10) 0.2843(6)
H31B H 0.9629 0.2871 0.2787
H32B H 1.0117 0.3070 0.2668
H33B H 0.9984 0.3082 0.3045
C35B C 1.0654(9) 0.2539(14) 0.2975(7)
H34B H 1.0720 0.2426 0.3195
H35B H 1.0696 0.2875 0.2969
H36B H 1.0865 0.2393 0.2820
C36B C 1.0174(8) 0.2425(12) 0.2889(5)
Pd1C Pd 1.02507(3) 0.28228(3) 0.0000
Pd2C Pd 0.87143(2) 0.15424(3) 0.14099(2)
Zn1C Zn 1.03297(5) 0.37042(5) 0.0000
O1C O 0.71949(18) 0.07389(18) 0.03479(12)
O2C O 0.85500(19) 0.09783(19) 0.16586(13)
O3C O 0.83958(19) -0.06943(17) 0.16621(13)
O4C O 0.88618(18) 0.21282(19) 0.11790(13)
C1C C 0.9673(3) 0.3289(4) 0.0449(2)
O5C O 0.81156(19) 0.14975(18) 0.11778(12)
C2C C 0.7754(3) 0.1699(3) 0.1309(3)
C3C C 0.6823(3) 0.0911(3) 0.0451(2)
C4C C 0.8742(3) 0.2510(4) 0.1301(2)
O6C O 0.97747(18) 0.28847(18) 0.03417(13)
C5C C 0.8161(3) -0.0697(3) 0.1925(2)
O7C O 0.64225(19) 0.0815(2) 0.03501(15)
C6C C 0.8323(3) 0.1015(3) 0.1921(2)
C7C C 0.9176(3) 0.2917(3) 0.0866(2)
H1C H 0.9280 0.2625 0.0790
O8C O 0.7762(2) 0.1928(2) 0.15679(15)
O9C O 0.9836(2) 0.36615(18) 0.03372(16)
O10C O 0.8503(2) 0.25596(19) 0.15605(15)
C8C C 0.9325(3) 0.3303(3) 0.0715(2)
C9C C 0.7283(3) 0.1334(3) 0.0866(2)
H2C H 0.7555 0.1188 0.0788
O11C O 0.7971(2) -0.1039(2) 0.20536(15)
O12C O 1.0386(4) 0.4429(3) 0.0000
C10C C 0.8186(4) 0.0589(3) 0.2081(2)
C11C C 0.8246(3) 0.0168(3) 0.1939(2)
H3C H 0.8393 0.0153 0.1733
C12C C 0.8102(4) -0.0234(3) 0.2082(2)
C13C C 0.7311(3) 0.1635(3) 0.1131(2)
O13C O 0.8208(2) 0.1395(2) 0.20512(15)
C14C C 0.8882(3) 0.2930(3) 0.1125(2)
C15C C 0.9142(5) 0.3730(4) 0.0806(3)
H4C H 0.9230 0.4001 0.0691
C16C C 0.7874(6) -0.0211(5) 0.2393(3)
H5C H 0.7767 -0.0486 0.2494
C17C C 0.6868(3) 0.1247(3) 0.0718(2)
C18C C 0.6913(3) 0.1875(4) 0.1228(3)
H6C H 0.6936 0.2091 0.1401
O14C O 0.7992(3) 0.2413(3) 0.2212(2)
C19C C 0.7964(6) 0.0602(4) 0.2389(3)
H7C H 0.7923 0.0897 0.2486
C20C C 0.6491(4) 0.1811(5) 0.1080(4)
C21C C 0.6458(3) 0.1508(5) 0.0823(3)
H8C H 0.6172 0.1469 0.0714
C22C C 0.7808(7) 0.0238(5) 0.2552(3)
Zn2C Zn 0.83165(3) 0.20239(3) 0.18494(2)
C23C C 0.8837(5) 0.3764(4) 0.1059(4)
C24C C 0.8690(5) 0.3374(4) 0.1206(3)
H9C H 0.8454 0.3392 0.1367
C25C C 0.6036(6) 0.1956(10) 0.1245(7)
C26C C 0.8568(14) 0.4211(6) 0.1138(9)
C27C C 0.6131(5) 0.2406(8) 0.1413(7)
H10C H 0.6299 0.2348 0.1616
H11C H 0.5837 0.2561 0.1462
H12C H 0.6317 0.2604 0.1272
C28C C 0.5802(13) 0.2208(12) 0.0981(8)
H13C H 0.6034 0.2363 0.0845
H14C H 0.5592 0.2439 0.1073
H15C H 0.5626 0.1990 0.0847
C29C C 0.5599(14) 0.1786(17) 0.1399(14)
H16C H 0.5333 0.1897 0.1274
H17C H 0.5579 0.1901 0.1622
H18C H 0.5599 0.1447 0.1401
C30C C 0.8154(14) 0.4268(11) 0.1209(14)
H19C H 0.7962 0.4203 0.1018
H20C H 0.8105 0.4588 0.1279
H21C H 0.8069 0.4058 0.1386
C31C C 0.8847(10) 0.4599(7) 0.0988(8)
H22C H 0.8656 0.4878 0.0976
H23C H 0.8945 0.4509 0.0769
H24C H 0.9120 0.4660 0.1123
C32C C 0.8769(12) 0.4321(9) 0.1451(11)
H25C H 0.9106 0.4288 0.1440
H26C H 0.8647 0.4109 0.1616
H27C H 0.8690 0.4639 0.1510
C33C C 0.7842(11) -0.0140(12) 0.3124(5)
H28C H 0.7889 -0.0444 0.3023
H29C H 0.7665 -0.0177 0.3325
H30C H 0.8142 -0.0001 0.3173
C34C C 0.7095(10) -0.0044(11) 0.2843(6)
H31C H 0.7129 -0.0371 0.2787
H32C H 0.6930 0.0117 0.2668
H33C H 0.6918 -0.0016 0.3045
C35C C 0.7461(14) 0.0654(9) 0.2975(7)
H34C H 0.7574 0.0720 0.3195
H35C H 0.7125 0.0696 0.2969
H36C H 0.7607 0.0865 0.2820
C36C C 0.7575(12) 0.0174(8) 0.2889(5)
Pd2I Pd 0.87143(2) 0.15424(3) -0.14099(2)
O1I O 0.71949(18) 0.07389(18) -0.03479(12)
O2I O 0.85500(19) 0.09783(19) -0.16586(13)
O3I O 0.83958(19) -0.06943(17) -0.16621(13)
O4I O 0.88618(18) 0.21282(19) -0.11790(13)
C1I C 0.9673(3) 0.3289(4) -0.0449(2)
O5I O 0.81156(19) 0.14975(18) -0.11778(12)
C2I C 0.7754(3) 0.1699(3) -0.1309(3)
C3I C 0.6823(3) 0.0911(3) -0.0451(2)
C4I C 0.8742(3) 0.2510(4) -0.1301(2)
O6I O 0.97747(18) 0.28847(18) -0.03417(13)
C5I C 0.8161(3) -0.0697(3) -0.1925(2)
O7I O 0.64225(19) 0.0815(2) -0.03501(15)
C6I C 0.8323(3) 0.1015(3) -0.1921(2)
C7I C 0.9176(3) 0.2917(3) -0.0866(2)
H1I H 0.9280 0.2625 -0.0790
O8I O 0.7762(2) 0.1928(2) -0.15679(15)
O9I O 0.9836(2) 0.36615(18) -0.03372(16)
O10I O 0.8503(2) 0.25596(19) -0.15605(15)
C8I C 0.9325(3) 0.3303(3) -0.0715(2)
C9I C 0.7283(3) 0.1334(3) -0.0866(2)
H2I H 0.7555 0.1188 -0.0788
O11I O 0.7971(2) -0.1039(2) -0.20536(15)
C10I C 0.8186(4) 0.0589(3) -0.2081(2)
C11I C 0.8246(3) 0.0168(3) -0.1939(2)
H3I H 0.8393 0.0153 -0.1733
C12I C 0.8102(4) -0.0234(3) -0.2082(2)
C13I C 0.7311(3) 0.1635(3) -0.1131(2)
O13I O 0.8208(2) 0.1395(2) -0.20512(15)
C14I C 0.8882(3) 0.2930(3) -0.1125(2)
C15I C 0.9142(5) 0.3730(4) -0.0806(3)
H4I H 0.9230 0.4001 -0.0691
C16I C 0.7874(6) -0.0211(5) -0.2393(3)
H5I H 0.7767 -0.0486 -0.2494
C17I C 0.6868(3) 0.1247(3) -0.0718(2)
C18I C 0.6913(3) 0.1875(4) -0.1228(3)
H6I H 0.6936 0.2091 -0.1401
O14I O 0.7992(3) 0.2413(3) -0.2212(2)
C19I C 0.7964(6) 0.0602(4) -0.2389(3)
H7I H 0.7923 0.0897 -0.2486
C20I C 0.6491(4) 0.1811(5) -0.1080(4)
C21I C 0.6458(3) 0.1508(5) -0.0823(3)
H8I H 0.6172 0.1469 -0.0714
C22I C 0.7808(7) 0.0238(5) -0.2552(3)
Zn2I Zn 0.83165(3) 0.20239(3) -0.18494(2)
C23I C 0.8837(5) 0.3764(4) -0.1059(4)
C24I C 0.8690(5) 0.3374(4) -0.1206(3)
H9I H 0.8454 0.3392 -0.1367
C25I C 0.6036(6) 0.1956(10) -0.1245(7)
C26I C 0.8568(14) 0.4211(6) -0.1138(9)
C27I C 0.6131(5) 0.2406(8) -0.1413(7)
H10I H 0.6299 0.2348 -0.1616
H11I H 0.5837 0.2561 -0.1462
H12I H 0.6317 0.2604 -0.1272
C28I C 0.5802(13) 0.2208(12) -0.0981(8)
H13I H 0.6034 0.2363 -0.0845
H14I H 0.5592 0.2439 -0.1073
H15I H 0.5626 0.1990 -0.0847
C29I C 0.5599(14) 0.1786(17) -0.1399(14)
H16I H 0.5333 0.1897 -0.1274
H17I H 0.5579 0.1901 -0.1622
H18I H 0.5599 0.1447 -0.1401
C30I C 0.8154(14) 0.4268(11) -0.1209(14)
H19I H 0.7962 0.4203 -0.1018
H20I H 0.8105 0.4588 -0.1279
H21I H 0.8069 0.4058 -0.1386
C31I C 0.8847(10) 0.4599(7) -0.0988(8)
H22I H 0.8656 0.4878 -0.0976
H23I H 0.8945 0.4509 -0.0769
H24I H 0.9120 0.4660 -0.1123
C32I C 0.8769(12) 0.4321(9) -0.1451(11)
H25I H 0.9106 0.4288 -0.1440
H26I H 0.8647 0.4109 -0.1616
H27I H 0.8690 0.4639 -0.1510
C33I C 0.7842(11) -0.0140(12) -0.3124(5)
H28I H 0.7889 -0.0444 -0.3023
H29I H 0.7665 -0.0177 -0.3325
H30I H 0.8142 -0.0001 -0.3173
C34I C 0.7095(10) -0.0044(11) -0.2843(6)
H31I H 0.7129 -0.0371 -0.2787
H32I H 0.6930 0.0117 -0.2668
H33I H 0.6918 -0.0016 -0.3045
C35I C 0.7461(14) 0.0654(9) -0.2975(7)
H34I H 0.7574 0.0720 -0.3195
H35I H 0.7125 0.0696 -0.2969
H36I H 0.7607 0.0865 -0.2820
C36I C 0.7575(12) 0.0174(8) -0.2889(5)
Pd2J Pd 0.84576(3) -0.12857(2) -0.14099(2)
O1J O 0.92611(18) -0.28051(18) -0.03479(12)
O2J O 0.90217(19) -0.14500(19) -0.16586(13)
O3J O 1.06943(17) -0.16042(19) -0.16621(13)
O4J O 0.78718(19) -0.11382(18) -0.11790(13)
C1J C 0.6711(4) -0.0327(3) -0.0449(2)
O5J O 0.85025(18) -0.18844(19) -0.11778(12)
C2J C 0.8301(3) -0.2246(3) -0.1309(3)
C3J C 0.9089(3) -0.3177(3) -0.0451(2)
C4J C 0.7490(4) -0.1258(3) -0.1301(2)
O6J O 0.71153(18) -0.02253(18) -0.03417(13)
C5J C 1.0697(3) -0.1839(3) -0.1925(2)
O7J O 0.9185(2) -0.35775(19) -0.03501(15)
C6J C 0.8985(3) -0.1677(3) -0.1921(2)
C7J C 0.7083(3) -0.0824(3) -0.0866(2)
H1J H 0.7375 -0.0720 -0.0790
O8J O 0.8072(2) -0.2238(2) -0.15679(15)
O9J O 0.63385(18) -0.0164(2) -0.03372(16)
O10J O 0.74404(19) -0.1497(2) -0.15605(15)
C8J C 0.6697(3) -0.0675(3) -0.0715(2)
C9J C 0.8666(3) -0.2717(3) -0.0866(2)
H2J H 0.8812 -0.2445 -0.0788
O11J O 1.1039(2) -0.2029(2) -0.20536(15)
C10J C 0.9411(3) -0.1814(4) -0.2081(2)
C11J C 0.9832(3) -0.1754(3) -0.1939(2)
H3J H 0.9847 -0.1607 -0.1733
C12J C 1.0234(3) -0.1898(4) -0.2082(2)
C13J C 0.8365(3) -0.2689(3) -0.1131(2)
O13J O 0.8605(2) -0.1792(2) -0.20512(15)
C14J C 0.7070(3) -0.1118(3) -0.1125(2)
C15J C 0.6270(4) -0.0858(5) -0.0806(3)
H4J H 0.5999 -0.0770 -0.0691
C16J C 1.0211(5) -0.2126(6) -0.2393(3)
H5J H 1.0486 -0.2233 -0.2494
C17J C 0.8753(3) -0.3132(3) -0.0718(2)
C18J C 0.8125(4) -0.3087(3) -0.1228(3)
H6J H 0.7909 -0.3064 -0.1401
O14J O 0.7587(3) -0.2008(3) -0.2212(2)
C19J C 0.9398(4) -0.2036(6) -0.2389(3)
H7J H 0.9103 -0.2077 -0.2486
C20J C 0.8189(5) -0.3509(4) -0.1080(4)
C21J C 0.8492(5) -0.3542(3) -0.0823(3)
H8J H 0.8531 -0.3828 -0.0714
C22J C 0.9762(5) -0.2192(7) -0.2552(3)
Zn2J Zn 0.79761(3) -0.16835(3) -0.18494(2)
C23J C 0.6236(4) -0.1163(5) -0.1059(4)
C24J C 0.6626(4) -0.1310(5) -0.1206(3)
H9J H 0.6608 -0.1546 -0.1367
C25J C 0.8044(10) -0.3964(6) -0.1245(7)
C26J C 0.5789(6) -0.1432(14) -0.1138(9)
C27J C 0.7594(8) -0.3869(5) -0.1413(7)
H10J H 0.7652 -0.3701 -0.1616
H11J H 0.7439 -0.4163 -0.1462
H12J H 0.7396 -0.3683 -0.1272
C28J C 0.7792(12) -0.4198(13) -0.0981(8)
H13J H 0.7637 -0.3966 -0.0845
H14J H 0.7561 -0.4408 -0.1073
H15J H 0.8010 -0.4374 -0.0847
C29J C 0.8214(17) -0.4401(14) -0.1399(14)
H16J H 0.8103 -0.4667 -0.1274
H17J H 0.8099 -0.4421 -0.1622
H18J H 0.8553 -0.4401 -0.1401
C30J C 0.5732(11) -0.1846(14) -0.1209(14)
H19J H 0.5797 -0.2038 -0.1018
H20J H 0.5412 -0.1895 -0.1279
H21J H 0.5942 -0.1931 -0.1386
C31J C 0.5401(7) -0.1153(10) -0.0988(8)
H22J H 0.5122 -0.1344 -0.0976
H23J H 0.5491 -0.1055 -0.0769
H24J H 0.5340 -0.0880 -0.1123
C32J C 0.5679(9) -0.1231(12) -0.1451(11)
H25J H 0.5712 -0.0894 -0.1440
H26J H 0.5891 -0.1353 -0.1616
H27J H 0.5361 -0.1310 -0.1510
C33J C 1.0140(12) -0.2158(11) -0.3124(5)
H28J H 1.0444 -0.2111 -0.3023
H29J H 1.0177 -0.2335 -0.3325
H30J H 1.0001 -0.1858 -0.3173
C34J C 1.0044(11) -0.2905(10) -0.2843(6)
H31J H 1.0371 -0.2871 -0.2787
H32J H 0.9883 -0.3070 -0.2668
H33J H 1.0016 -0.3082 -0.3045
C35J C 0.9346(9) -0.2539(14) -0.2975(7)
H34J H 0.9280 -0.2426 -0.3195
H35J H 0.9304 -0.2875 -0.2969
H36J H 0.9135 -0.2393 -0.2820
C36J C 0.9826(8) -0.2425(12) -0.2889(5)
Pd2K Pd 1.12857(2) -0.15424(3) -0.14099(2)
O1K O 1.28051(18) -0.07389(18) -0.03479(12)
O2K O 1.14500(19) -0.09783(19) -0.16586(13)
O3K O 1.16042(19) 0.06943(17) -0.16621(13)
O4K O 1.11382(18) -0.21282(19) -0.11790(13)
C1K C 1.0327(3) -0.3289(4) -0.0449(2)
O5K O 1.18844(19) -0.14975(18) -0.11778(12)
C2K C 1.2246(3) -0.1699(3) -0.1309(3)
C3K C 1.3177(3) -0.0911(3) -0.0451(2)
C4K C 1.1258(3) -0.2510(4) -0.1301(2)
O6K O 1.02253(18) -0.28847(18) -0.03417(13)
C5K C 1.1839(3) 0.0697(3) -0.1925(2)
O7K O 1.35775(19) -0.0815(2) -0.03501(15)
C6K C 1.1677(3) -0.1015(3) -0.1921(2)
C7K C 1.0824(3) -0.2917(3) -0.0866(2)
H1K H 1.0720 -0.2625 -0.0790
O8K O 1.2238(2) -0.1928(2) -0.15679(15)
O9K O 1.0164(2) -0.36615(18) -0.03372(16)
O10K O 1.1497(2) -0.25596(19) -0.15605(15)
C8K C 1.0675(3) -0.3303(3) -0.0715(2)
C9K C 1.2717(3) -0.1334(3) -0.0866(2)
H2K H 1.2445 -0.1188 -0.0788
O11K O 1.2029(2) 0.1039(2) -0.20536(15)
C10K C 1.1814(4) -0.0589(3) -0.2081(2)
C11K C 1.1754(3) -0.0168(3) -0.1939(2)
H3K H 1.1607 -0.0153 -0.1733
C12K C 1.1898(4) 0.0234(3) -0.2082(2)
C13K C 1.2689(3) -0.1635(3) -0.1131(2)
O13K O 1.1792(2) -0.1395(2) -0.20512(15)
C14K C 1.1118(3) -0.2930(3) -0.1125(2)
C15K C 1.0858(5) -0.3730(4) -0.0806(3)
H4K H 1.0770 -0.4001 -0.0691
C16K C 1.2126(6) 0.0211(5) -0.2393(3)
H5K H 1.2233 0.0486 -0.2494
C17K C 1.3132(3) -0.1247(3) -0.0718(2)
C18K C 1.3087(3) -0.1875(4) -0.1228(3)
H6K H 1.3064 -0.2091 -0.1401
O14K O 1.2008(3) -0.2413(3) -0.2212(2)
C19K C 1.2036(6) -0.0602(4) -0.2389(3)
H7K H 1.2077 -0.0897 -0.2486
C20K C 1.3509(4) -0.1811(5) -0.1080(4)
C21K C 1.3542(3) -0.1508(5) -0.0823(3)
H8K H 1.3828 -0.1469 -0.0714
C22K C 1.2192(7) -0.0238(5) -0.2552(3)
Zn2K Zn 1.16835(3) -0.20239(3) -0.18494(2)
C23K C 1.1163(5) -0.3764(4) -0.1059(4)
C24K C 1.1310(5) -0.3374(4) -0.1206(3)
H9K H 1.1546 -0.3392 -0.1367
C25K C 1.3964(6) -0.1956(10) -0.1245(7)
C26K C 1.1432(14) -0.4211(6) -0.1138(9)
C27K C 1.3869(5) -0.2406(8) -0.1413(7)
H10K H 1.3701 -0.2348 -0.1616
H11K H 1.4163 -0.2561 -0.1462
H12K H 1.3683 -0.2604 -0.1272
C28K C 1.4198(13) -0.2208(12) -0.0981(8)
H13K H 1.3966 -0.2363 -0.0845
H14K H 1.4408 -0.2439 -0.1073
H15K H 1.4374 -0.1990 -0.0847
C29K C 1.4401(14) -0.1786(17) -0.1399(14)
H16K H 1.4667 -0.1897 -0.1274
H17K H 1.4421 -0.1901 -0.1622
H18K H 1.4401 -0.1447 -0.1401
C30K C 1.1846(14) -0.4268(11) -0.1209(14)
H19K H 1.2038 -0.4203 -0.1018
H20K H 1.1895 -0.4588 -0.1279
H21K H 1.1931 -0.4058 -0.1386
C31K C 1.1153(10) -0.4599(7) -0.0988(8)
H22K H 1.1344 -0.4878 -0.0976
H23K H 1.1055 -0.4509 -0.0769
H24K H 1.0880 -0.4660 -0.1123
C32K C 1.1231(12) -0.4321(9) -0.1451(11)
H25K H 1.0894 -0.4288 -0.1440
H26K H 1.1353 -0.4109 -0.1616
H27K H 1.1310 -0.4639 -0.1510
C33K C 1.2158(11) 0.0140(12) -0.3124(5)
H28K H 1.2111 0.0444 -0.3023
H29K H 1.2335 0.0177 -0.3325
H30K H 1.1858 0.0001 -0.3173
C34K C 1.2905(10) 0.0044(11) -0.2843(6)
H31K H 1.2871 0.0371 -0.2787
H32K H 1.3070 -0.0117 -0.2668
H33K H 1.3082 0.0016 -0.3045
C35K C 1.2539(14) -0.0654(9) -0.2975(7)
H34K H 1.2426 -0.0720 -0.3195
H35K H 1.2875 -0.0696 -0.2969
H36K H 1.2393 -0.0865 -0.2820
C36K C 1.2425(12) -0.0174(8) -0.2889(5)
Pd2H Pd 1.15424(3) 0.12857(2) -0.14099(2)
O1H O 1.07389(18) 0.28051(18) -0.03479(12)
O2H O 1.09783(19) 0.14500(19) -0.16586(13)
O3H O 0.93057(17) 0.16042(19) -0.16621(13)
O4H O 1.21282(19) 0.11382(18) -0.11790(13)
C1H C 1.3289(4) 0.0327(3) -0.0449(2)
O5H O 1.14975(18) 0.18844(19) -0.11778(12)
C2H C 1.1699(3) 0.2246(3) -0.1309(3)
C3H C 1.0911(3) 0.3177(3) -0.0451(2)
C4H C 1.2510(4) 0.1258(3) -0.1301(2)
O6H O 1.28847(18) 0.02253(18) -0.03417(13)
C5H C 0.9303(3) 0.1839(3) -0.1925(2)
O7H O 1.0815(2) 0.35775(19) -0.03501(15)
C6H C 1.1015(3) 0.1677(3) -0.1921(2)
C7H C 1.2917(3) 0.0824(3) -0.0866(2)
H1H H 1.2625 0.0720 -0.0790
O8H O 1.1928(2) 0.2238(2) -0.15679(15)
O9H O 1.36615(18) 0.0164(2) -0.03372(16)
O10H O 1.25596(19) 0.1497(2) -0.15605(15)
C8H C 1.3303(3) 0.0675(3) -0.0715(2)
C9H C 1.1334(3) 0.2717(3) -0.0866(2)
H2H H 1.1188 0.2445 -0.0788
O11H O 0.8961(2) 0.2029(2) -0.20536(15)
C10H C 1.0589(3) 0.1814(4) -0.2081(2)
C11H C 1.0168(3) 0.1754(3) -0.1939(2)
H3H H 1.0153 0.1607 -0.1733
C12H C 0.9766(3) 0.1898(4) -0.2082(2)
C13H C 1.1635(3) 0.2689(3) -0.1131(2)
O13H O 1.1395(2) 0.1792(2) -0.20512(15)
C14H C 1.2930(3) 0.1118(3) -0.1125(2)
C15H C 1.3730(4) 0.0858(5) -0.0806(3)
H4H H 1.4001 0.0770 -0.0691
C16H C 0.9789(5) 0.2126(6) -0.2393(3)
H5H H 0.9514 0.2233 -0.2494
C17H C 1.1247(3) 0.3132(3) -0.0718(2)
C18H C 1.1875(4) 0.3087(3) -0.1228(3)
H6H H 1.2091 0.3064 -0.1401
O14H O 1.2413(3) 0.2008(3) -0.2212(2)
C19H C 1.0602(4) 0.2036(6) -0.2389(3)
H7H H 1.0897 0.2077 -0.2486
C20H C 1.1811(5) 0.3509(4) -0.1080(4)
C21H C 1.1508(5) 0.3542(3) -0.0823(3)
H8H H 1.1469 0.3828 -0.0714
C22H C 1.0238(5) 0.2192(7) -0.2552(3)
Zn2H Zn 1.20239(3) 0.16835(3) -0.18494(2)
C23H C 1.3764(4) 0.1163(5) -0.1059(4)
C24H C 1.3374(4) 0.1310(5) -0.1206(3)
H9H H 1.3392 0.1546 -0.1367
C25H C 1.1956(10) 0.3964(6) -0.1245(7)
C26H C 1.4211(6) 0.1432(14) -0.1138(9)
C27H C 1.2406(8) 0.3869(5) -0.1413(7)
H10H H 1.2348 0.3701 -0.1616
H11H H 1.2561 0.4163 -0.1462
H12H H 1.2604 0.3683 -0.1272
C28H C 1.2208(12) 0.4198(13) -0.0981(8)
H13H H 1.2363 0.3966 -0.0845
H14H H 1.2439 0.4408 -0.1073
H15H H 1.1990 0.4374 -0.0847
C29H C 1.1786(17) 0.4401(14) -0.1399(14)
H16H H 1.1897 0.4667 -0.1274
H17H H 1.1901 0.4421 -0.1622
H18H H 1.1447 0.4401 -0.1401
C30H C 1.4268(11) 0.1846(14) -0.1209(14)
H19H H 1.4203 0.2038 -0.1018
H20H H 1.4588 0.1895 -0.1279
H21H H 1.4058 0.1931 -0.1386
C31H C 1.4599(7) 0.1153(10) -0.0988(8)
H22H H 1.4878 0.1344 -0.0976
H23H H 1.4509 0.1055 -0.0769
H24H H 1.4660 0.0880 -0.1123
C32H C 1.4321(9) 0.1231(12) -0.1451(11)
H25H H 1.4288 0.0894 -0.1440
H26H H 1.4109 0.1353 -0.1616
H27H H 1.4639 0.1310 -0.1510
C33H C 0.9860(12) 0.2158(11) -0.3124(5)
H28H H 0.9556 0.2111 -0.3023
H29H H 0.9823 0.2335 -0.3325
H30H H 0.9999 0.1858 -0.3173
C34H C 0.9956(11) 0.2905(10) -0.2843(6)
H31H H 0.9629 0.2871 -0.2787
H32H H 1.0117 0.3070 -0.2668
H33H H 0.9984 0.3082 -0.3045
C35H C 1.0654(9) 0.2539(14) -0.2975(7)
H34H H 1.0720 0.2426 -0.3195
H35H H 1.0696 0.2875 -0.2969
H36H H 1.0865 0.2393 -0.2820
C36H C 1.0174(8) 0.2425(12) -0.2889(5)
loop_
_geom_bond_atom_site_label_1
_geom_bond_atom_site_label_2
_geom_bond_site_symmetry_1
_geom_bond_site_symmetry_2
Pd1 O6 1_555 1_555
Pd2 O2 1_555 1_555
Zn1 O9 1_555 1_555
O1 C3 1_555 1_555
O2 C6 1_555 1_555
O3 C5 1_555 1_555
O4 Pd2 1_555 1_555
C1 O6 1_555 1_555
O5 Pd2 1_555 1_555
C2 O5 1_555 1_555
C3 O7 1_555 1_555
C4 O4 1_555 1_555
C5 O11 1_555 1_555
O7 Zn1A 1_555 1_555
C6 C10 1_555 1_555
C7 H1 1_555 1_555
O8 C2 1_555 1_555
O9 C1 1_555 1_555
O10 C4 1_555 1_555
C8 C1 1_555 1_555
C9 H2 1_555 1_555
O11 Zn2A 1_555 1_555
O12 Zn1 1_555 1_555
C10 C11 1_555 1_555
C11 H3 1_555 1_555
C12 C5 1_555 1_555
C13 C2 1_555 1_555
O13 C6 1_555 1_555
C14 C4 1_555 1_555
C15 C8 1_555 1_555
H4 C15 1_555 1_555
C16 C12 1_555 1_555
H5 C16 1_555 1_555
C17 C3 1_555 1_555
C18 C13 1_555 1_555
H6 C18 1_555 1_555
O14 Zn2 1_555 1_555
C19 C10 1_555 1_555
H7 C19 1_555 1_555
C20 C18 1_555 1_555
C21 C17 1_555 1_555
H8 C21 1_555 1_555
C22 C16 1_555 1_555
Zn2 O8 1_555 1_555
C23 C15 1_555 1_555
C24 C14 1_555 1_555
H9 C24 1_555 1_555
C25 C20 1_555 1_555
C26 C23 1_555 1_555
C27 C25 1_555 1_555
H10 C27 1_555 1_555
H11 C27 1_555 1_555
H12 C27 1_555 1_555
C28 C25 1_555 1_555
H13 C28 1_555 1_555
H14 C28 1_555 1_555
H15 C28 1_555 1_555
C29 C25 1_555 1_555
H16 C29 1_555 1_555
H17 C29 1_555 1_555
H18 C29 1_555 1_555
C30 C26 1_555 1_555
H19 C30 1_555 1_555
H20 C30 1_555 1_555
H21 C30 1_555 1_555
C31 C26 1_555 1_555
H22 C31 1_555 1_555
H23 C31 1_555 1_555
H24 C31 1_555 1_555
C32 C26 1_555 1_555
H25 C32 1_555 1_555
H26 C32 1_555 1_555
H27 C32 1_555 1_555
C33 H28 1_555 1_555
H29 C33 1_555 1_555
H30 C33 1_555 1_555
C34 H31 1_555 1_555
H32 C34 1_555 1_555
H33 C34 1_555 1_555
C35 H34 1_555 1_555
H35 C35 1_555 1_555
H36 C35 1_555 1_555
C36 C22 1_555 1_555
Pd1A O1 1_555 1_555
Pd2A O3 1_555 1_555
Zn1A O9A 1_555 1_555
O1A C3A 1_555 1_555
O2A Pd2A 1_555 1_555
O3A C5A 1_555 1_555
O4A Pd2A 1_555 1_555
C1A O6A 1_555 1_555
O5A Pd2A 1_555 1_555
C2A O5A 1_555 1_555
C3A O7A 1_555 1_555
C4A O4A 1_555 1_555
O6A Pd1A 1_555 1_555
C5A O11A 1_555 1_555
O7A Zn1B 1_555 1_555
C6A O2A 1_555 1_555
C7A H1A 1_555 1_555
O8A C2A 1_555 1_555
O9A C1A 1_555 1_555
O10A C4A 1_555 1_555
C8A C1A 1_555 1_555
C9A H2A 1_555 1_555
O11A Zn2B 1_555 1_555
O12A Zn1A 1_555 1_555
C10A C6A 1_555 1_555
C11A C10A 1_555 1_555
H3A C11A 1_555 1_555
C12A C5A 1_555 1_555
C13A C2A 1_555 1_555
O13A C6A 1_555 1_555
C14A C4A 1_555 1_555
C15A C8A 1_555 1_555
H4A C15A 1_555 1_555
C16A C12A 1_555 1_555
H5A C16A 1_555 1_555
C17A C3A 1_555 1_555
C18A C13A 1_555 1_555
H6A C18A 1_555 1_555
O14A Zn2A 1_555 1_555
C19A C10A 1_555 1_555
H7A C19A 1_555 1_555
C20A C18A 1_555 1_555
C21A C17A 1_555 1_555
H8A C21A 1_555 1_555
C22A C16A 1_555 1_555
Zn2A O8A 1_555 1_555
C23A C15A 1_555 1_555
C24A C14A 1_555 1_555
H9A C24A 1_555 1_555
C25A C20A 1_555 1_555
C26A C23A 1_555 1_555
C27A C25A 1_555 1_555
H10A C27A 1_555 1_555
H11A C27A 1_555 1_555
H12A C27A 1_555 1_555
C28A C25A 1_555 1_555
H13A C28A 1_555 1_555
H14A C28A 1_555 1_555
H15A C28A 1_555 1_555
C29A C25A 1_555 1_555
H16A C29A 1_555 1_555
H17A C29A 1_555 1_555
H18A C29A 1_555 1_555
C30A C26A 1_555 1_555
H19A C30A 1_555 1_555
H20A C30A 1_555 1_555
H21A C30A 1_555 1_555
C31A C26A 1_555 1_555
H22A C31A 1_555 1_555
H23A C31A 1_555 1_555
H24A C31A 1_555 1_555
C32A C26A 1_555 1_555
H25A C32A 1_555 1_555
H26A C32A 1_555 1_555
H27A C32A 1_555 1_555
C33A H28A 1_555 1_555
H29A C33A 1_555 1_555
H30A C33A 1_555 1_555
C34A H31A 1_555 1_555
H32A C34A 1_555 1_555
H33A C34A 1_555 1_555
C35A H34A 1_555 1_555
H35A C35A 1_555 1_555
H36A C35A 1_555 1_555
C36A C22A 1_555 1_555
Pd1B O1A 1_555 1_555
Pd2B O3A 1_555 1_555
Zn1B O9B 1_555 1_555
O1B C3B 1_555 1_555
O2B Pd2B 1_555 1_555
O3B C5B 1_555 1_555
O4B Pd2B 1_555 1_555
C1B O6B 1_555 1_555
O5B Pd2B 1_555 1_555
C2B O5B 1_555 1_555
C3B O7B 1_555 1_555
C4B O4B 1_555 1_555
O6B Pd1B 1_555 1_555
C5B O11B 1_555 1_555
O7B Zn1C 1_555 1_555
C6B O2B 1_555 1_555
C7B H1B 1_555 1_555
O8B C2B 1_555 1_555
O9B C1B 1_555 1_555
O10B C4B 1_555 1_555
C8B C1B 1_555 1_555
C9B H2B 1_555 1_555
O11B Zn2C 1_555 1_555
O12B Zn1B 1_555 1_555
C10B C6B 1_555 1_555
C11B C10B 1_555 1_555
H3B C11B 1_555 1_555
C12B C5B 1_555 1_555
C13B C2B 1_555 1_555
O13B C6B 1_555 1_555
C14B C4B 1_555 1_555
C15B C8B 1_555 1_555
H4B C15B 1_555 1_555
C16B C12B 1_555 1_555
H5B C16B 1_555 1_555
C17B C3B 1_555 1_555
C18B C13B 1_555 1_555
H6B C18B 1_555 1_555
O14B Zn2B 1_555 1_555
C19B C10B 1_555 1_555
H7B C19B 1_555 1_555
C20B C18B 1_555 1_555
C21B C17B 1_555 1_555
H8B C21B 1_555 1_555
C22B C16B 1_555 1_555
Zn2B O8B 1_555 1_555
C23B C15B 1_555 1_555
C24B C14B 1_555 1_555
H9B C24B 1_555 1_555
C25B C20B 1_555 1_555
C26B C23B 1_555 1_555
C27B C25B 1_555 1_555
H10B C27B 1_555 1_555
H11B C27B 1_555 1_555
H12B C27B 1_555 1_555
C28B C25B 1_555 1_555
H13B C28B 1_555 1_555
H14B C28B 1_555 1_555
H15B C28B 1_555 1_555
C29B C25B 1_555 1_555
H16B C29B 1_555 1_555
H17B C29B 1_555 1_555
H18B C29B 1_555 1_555
C30B C26B 1_555 1_555
H19B C30B 1_555 1_555
H20B C30B 1_555 1_555
H21B C30B 1_555 1_555
C31B C26B 1_555 1_555
H22B C31B 1_555 1_555
H23B C31B 1_555 1_555
H24B C31B 1_555 1_555
C32B C26B 1_555 1_555
H25B C32B 1_555 1_555
H26B C32B 1_555 1_555
H27B C32B 1_555 1_555
C33B H28B 1_555 1_555
H29B C33B 1_555 1_555
H30B C33B 1_555 1_555
C34B H31B 1_555 1_555
H32B C34B 1_555 1_555
H33B C34B 1_555 1_555
C35B H34B 1_555 1_555
H35B C35B 1_555 1_555
H36B C35B 1_555 1_555
C36B C22B 1_555 1_555
Pd1C O1B 1_555 1_555
Pd2C O3B 1_555 1_555
Zn1C O9C 1_555 1_555
O1C Pd1 1_555 1_555
O2C Pd2C 1_555 1_555
O3C Pd2 1_555 1_555
O4C Pd2C 1_555 1_555
C1C O6C 1_555 1_555
O5C Pd2C 1_555 1_555
C2C O5C 1_555 1_555
C3C O1C 1_555 1_555
C4C O4C 1_555 1_555
O6C Pd1C 1_555 1_555
C5C O3C 1_555 1_555
O7C Zn1 1_555 1_555
C6C O2C 1_555 1_555
C7C H1C 1_555 1_555
O8C C2C 1_555 1_555
O9C C1C 1_555 1_555
O10C C4C 1_555 1_555
C8C C1C 1_555 1_555
C9C H2C 1_555 1_555
O11C Zn2 1_555 1_555
O12C Zn1C 1_555 1_555
C10C C6C 1_555 1_555
C11C C10C 1_555 1_555
H3C C11C 1_555 1_555
C12C C5C 1_555 1_555
C13C C2C 1_555 1_555
O13C C6C 1_555 1_555
C14C C4C 1_555 1_555
C15C C8C 1_555 1_555
H4C C15C 1_555 1_555
C16C C12C 1_555 1_555
H5C C16C 1_555 1_555
C17C C3C 1_555 1_555
C18C C13C 1_555 1_555
H6C C18C 1_555 1_555
O14C Zn2C 1_555 1_555
C19C C10C 1_555 1_555
H7C C19C 1_555 1_555
C20C C18C 1_555 1_555
C21C C17C 1_555 1_555
H8C C21C 1_555 1_555
C22C C16C 1_555 1_555
Zn2C O8C 1_555 1_555
C23C C15C 1_555 1_555
C24C C14C 1_555 1_555
H9C C24C 1_555 1_555
C25C C20C 1_555 1_555
C26C C23C 1_555 1_555
C27C C25C 1_555 1_555
H10C C27C 1_555 1_555
H11C C27C 1_555 1_555
H12C C27C 1_555 1_555
C28C C25C 1_555 1_555
H13C C28C 1_555 1_555
H14C C28C 1_555 1_555
H15C C28C 1_555 1_555
C29C C25C 1_555 1_555
H16C C29C 1_555 1_555
H17C C29C 1_555 1_555
H18C C29C 1_555 1_555
C30C C26C 1_555 1_555
H19C C30C 1_555 1_555
H20C C30C 1_555 1_555
H21C C30C 1_555 1_555
C31C C26C 1_555 1_555
H22C C31C 1_555 1_555
H23C C31C 1_555 1_555
H24C C31C 1_555 1_555
C32C C26C 1_555 1_555
H25C C32C 1_555 1_555
H26C C32C 1_555 1_555
H27C C32C 1_555 1_555
C33C H28C 1_555 1_555
H29C C33C 1_555 1_555
H30C C33C 1_555 1_555
C34C H31C 1_555 1_555
H32C C34C 1_555 1_555
H33C C34C 1_555 1_555
C35C H34C 1_555 1_555
H35C C35C 1_555 1_555
H36C C35C 1_555 1_555
C36C C22C 1_555 1_555
Pd2I O2I 1_555 1_555
O1I Pd1 1_555 1_555
O2I C6I 1_555 1_555
O3I C5I 1_555 1_555
O4I Pd2I 1_555 1_555
C1I O6I 1_555 1_555
O5I Pd2I 1_555 1_555
C2I O5I 1_555 1_555
C3I O1I 1_555 1_555
C4I O4I 1_555 1_555
O6I Pd1C 1_555 1_555
C5I O11I 1_555 1_555
O7I Zn1 1_555 1_555
C6I C10I 1_555 1_555
C7I H1I 1_555 1_555
O8I C2I 1_555 1_555
O9I Zn1C 1_555 1_555
O10I C4I 1_555 1_555
C8I C1I 1_555 1_555
C9I H2I 1_555 1_555
O11I Zn2J 1_555 1_555
C10I C11I 1_555 1_555
C11I H3I 1_555 1_555
C12I C5I 1_555 1_555
C13I C2I 1_555 1_555
O13I C6I 1_555 1_555
C14I C4I 1_555 1_555
C15I C8I 1_555 1_555
H4I C15I 1_555 1_555
C16I C12I 1_555 1_555
H5I C16I 1_555 1_555
C17I C3I 1_555 1_555
C18I C13I 1_555 1_555
H6I C18I 1_555 1_555
O14I Zn2I 1_555 1_555
C19I C10I 1_555 1_555
H7I C19I 1_555 1_555
C20I C18I 1_555 1_555
C21I C17I 1_555 1_555
H8I C21I 1_555 1_555
C22I C16I 1_555 1_555
Zn2I O8I 1_555 1_555
C23I C15I 1_555 1_555
C24I C14I 1_555 1_555
H9I C24I 1_555 1_555
C25I C20I 1_555 1_555
C26I C23I 1_555 1_555
C27I C25I 1_555 1_555
H10I C27I 1_555 1_555
H11I C27I 1_555 1_555
H12I C27I 1_555 1_555
C28I C25I 1_555 1_555
H13I C28I 1_555 1_555
H14I C28I 1_555 1_555
H15I C28I 1_555 1_555
C29I C25I 1_555 1_555
H16I C29I 1_555 1_555
H17I C29I 1_555 1_555
H18I C29I 1_555 1_555
C30I C26I 1_555 1_555
H19I C30I 1_555 1_555
H20I C30I 1_555 1_555
H21I C30I 1_555 1_555
C31I C26I 1_555 1_555
H22I C31I 1_555 1_555
H23I C31I 1_555 1_555
H24I C31I 1_555 1_555
C32I C26I 1_555 1_555
H25I C32I 1_555 1_555
H26I C32I 1_555 1_555
H27I C32I 1_555 1_555
C33I H28I 1_555 1_555
H29I C33I 1_555 1_555
H30I C33I 1_555 1_555
C34I H31I 1_555 1_555
H32I C34I 1_555 1_555
H33I C34I 1_555 1_555
C35I H34I 1_555 1_555
H35I C35I 1_555 1_555
H36I C35I 1_555 1_555
C36I C22I 1_555 1_555
Pd2J O3I 1_555 1_555
O1J Pd1A 1_555 1_555
O2J Pd2J 1_555 1_555
O3J C5J 1_555 1_555
O4J Pd2J 1_555 1_555
C1J O6J 1_555 1_555
O5J Pd2J 1_555 1_555
C2J O5J 1_555 1_555
C3J O1J 1_555 1_555
C4J O4J 1_555 1_555
O6J Pd1 1_555 1_555
C5J O11J 1_555 1_555
O7J Zn1A 1_555 1_555
C6J O2J 1_555 1_555
C7J H1J 1_555 1_555
O8J C2J 1_555 1_555
O9J Zn1 1_555 1_555
O10J C4J 1_555 1_555
C8J C1J 1_555 1_555
C9J H2J 1_555 1_555
O11J Zn2K 1_555 1_555
C10J C6J 1_555 1_555
C11J C10J 1_555 1_555
H3J C11J 1_555 1_555
C12J C5J 1_555 1_555
C13J C2J 1_555 1_555
O13J C6J 1_555 1_555
C14J C4J 1_555 1_555
C15J C8J 1_555 1_555
H4J C15J 1_555 1_555
C16J C12J 1_555 1_555
H5J C16J 1_555 1_555
C17J C3J 1_555 1_555
C18J C13J 1_555 1_555
H6J C18J 1_555 1_555
O14J Zn2J 1_555 1_555
C19J C10J 1_555 1_555
H7J C19J 1_555 1_555
C20J C18J 1_555 1_555
C21J C17J 1_555 1_555
H8J C21J 1_555 1_555
C22J C16J 1_555 1_555
Zn2J O8J 1_555 1_555
C23J C15J 1_555 1_555
C24J C14J 1_555 1_555
H9J C24J 1_555 1_555
C25J C20J 1_555 1_555
C26J C23J 1_555 1_555
C27J C25J 1_555 1_555
H10J C27J 1_555 1_555
H11J C27J 1_555 1_555
H12J C27J 1_555 1_555
C28J C25J 1_555 1_555
H13J C28J 1_555 1_555
H14J C28J 1_555 1_555
H15J C28J 1_555 1_555
C29J C25J 1_555 1_555
H16J C29J 1_555 1_555
H17J C29J 1_555 1_555
H18J C29J 1_555 1_555
C30J C26J 1_555 1_555
H19J C30J 1_555 1_555
H20J C30J 1_555 1_555
H21J C30J 1_555 1_555
C31J C26J 1_555 1_555
H22J C31J 1_555 1_555
H23J C31J 1_555 1_555
H24J C31J 1_555 1_555
C32J C26J 1_555 1_555
H25J C32J 1_555 1_555
H26J C32J 1_555 1_555
H27J C32J 1_555 1_555
C33J H28J 1_555 1_555
H29J C33J 1_555 1_555
H30J C33J 1_555 1_555
C34J H31J 1_555 1_555
H32J C34J 1_555 1_555
H33J C34J 1_555 1_555
C35J H34J 1_555 1_555
H35J C35J 1_555 1_555
H36J C35J 1_555 1_555
C36J C22J 1_555 1_555
Pd2K O3J 1_555 1_555
O1K Pd1B 1_555 1_555
O2K Pd2K 1_555 1_555
O3K C5K 1_555 1_555
O4K Pd2K 1_555 1_555
C1K O6K 1_555 1_555
O5K Pd2K 1_555 1_555
C2K O5K 1_555 1_555
C3K O1K 1_555 1_555
C4K O4K 1_555 1_555
O6K Pd1A 1_555 1_555
C5K O11K 1_555 1_555
O7K Zn1B 1_555 1_555
C6K O2K 1_555 1_555
C7K H1K 1_555 1_555
O8K C2K 1_555 1_555
O9K Zn1A 1_555 1_555
O10K C4K 1_555 1_555
C8K C1K 1_555 1_555
C9K H2K 1_555 1_555
O11K Zn2H 1_555 1_555
C10K C6K 1_555 1_555
C11K C10K 1_555 1_555
H3K C11K 1_555 1_555
C12K C5K 1_555 1_555
C13K C2K 1_555 1_555
O13K C6K 1_555 1_555
C14K C4K 1_555 1_555
C15K C8K 1_555 1_555
H4K C15K 1_555 1_555
C16K C12K 1_555 1_555
H5K C16K 1_555 1_555
C17K C3K 1_555 1_555
C18K C13K 1_555 1_555
H6K C18K 1_555 1_555
O14K Zn2K 1_555 1_555
C19K C10K 1_555 1_555
H7K C19K 1_555 1_555
C20K C18K 1_555 1_555
C21K C17K 1_555 1_555
H8K C21K 1_555 1_555
C22K C16K 1_555 1_555
Zn2K O8K 1_555 1_555
C23K C15K 1_555 1_555
C24K C14K 1_555 1_555
H9K C24K 1_555 1_555
C25K C20K 1_555 1_555
C26K C23K 1_555 1_555
C27K C25K 1_555 1_555
H10K C27K 1_555 1_555
H11K C27K 1_555 1_555
H12K C27K 1_555 1_555
C28K C25K 1_555 1_555
H13K C28K 1_555 1_555
H14K C28K 1_555 1_555
H15K C28K 1_555 1_555
C29K C25K 1_555 1_555
H16K C29K 1_555 1_555
H17K C29K 1_555 1_555
H18K C29K 1_555 1_555
C30K C26K 1_555 1_555
H19K C30K 1_555 1_555
H20K C30K 1_555 1_555
H21K C30K 1_555 1_555
C31K C26K 1_555 1_555
H22K C31K 1_555 1_555
H23K C31K 1_555 1_555
H24K C31K 1_555 1_555
C32K C26K 1_555 1_555
H25K C32K 1_555 1_555
H26K C32K 1_555 1_555
H27K C32K 1_555 1_555
C33K H28K 1_555 1_555
H29K C33K 1_555 1_555
H30K C33K 1_555 1_555
C34K H31K 1_555 1_555
H32K C34K 1_555 1_555
H33K C34K 1_555 1_555
C35K H34K 1_555 1_555
H35K C35K 1_555 1_555
H36K C35K 1_555 1_555
C36K C22K 1_555 1_555
Pd2H O3K 1_555 1_555
O1H Pd1C 1_555 1_555
O2H Pd2H 1_555 1_555
O3H Pd2I 1_555 1_555
O4H Pd2H 1_555 1_555
C1H O6H 1_555 1_555
O5H Pd2H 1_555 1_555
C2H O5H 1_555 1_555
C3H O1H 1_555 1_555
C4H O4H 1_555 1_555
O6H Pd1B 1_555 1_555
C5H O3H 1_555 1_555
O7H Zn1C 1_555 1_555
C6H O2H 1_555 1_555
C7H H1H 1_555 1_555
O8H C2H 1_555 1_555
O9H Zn1B 1_555 1_555
O10H C4H 1_555 1_555
C8H C1H 1_555 1_555
C9H H2H 1_555 1_555
O11H Zn2I 1_555 1_555
C10H C6H 1_555 1_555
C11H C10H 1_555 1_555
H3H C11H 1_555 1_555
C12H C5H 1_555 1_555
C13H C2H 1_555 1_555
O13H C6H 1_555 1_555
C14H C4H 1_555 1_555
C15H C8H 1_555 1_555
H4H C15H 1_555 1_555
C16H C12H 1_555 1_555
H5H C16H 1_555 1_555
C17H C3H 1_555 1_555
C18H C13H 1_555 1_555
H6H C18H 1_555 1_555
O14H Zn2H 1_555 1_555
C19H C10H 1_555 1_555
H7H C19H 1_555 1_555
C20H C18H 1_555 1_555
C21H C17H 1_555 1_555
H8H C21H 1_555 1_555
C22H C16H 1_555 1_555
Zn2H O8H 1_555 1_555
C23H C15H 1_555 1_555
C24H C14H 1_555 1_555
H9H C24H 1_555 1_555
C25H C20H 1_555 1_555
C26H C23H 1_555 1_555
C27H C25H 1_555 1_555
H10H C27H 1_555 1_555
H11H C27H 1_555 1_555
H12H C27H 1_555 1_555
C28H C25H 1_555 1_555
H13H C28H 1_555 1_555
H14H C28H 1_555 1_555
H15H C28H 1_555 1_555
C29H C25H 1_555 1_555
H16H C29H 1_555 1_555
H17H C29H 1_555 1_555
H18H C29H 1_555 1_555
C30H C26H 1_555 1_555
H19H C30H 1_555 1_555
H20H C30H 1_555 1_555
H21H C30H 1_555 1_555
C31H C26H 1_555 1_555
H22H C31H 1_555 1_555
H23H C31H 1_555 1_555
H24H C31H 1_555 1_555
C32H C26H 1_555 1_555
H25H C32H 1_555 1_555
H26H C32H 1_555 1_555
H27H C32H 1_555 1_555
C33H H28H 1_555 1_555
H29H C33H 1_555 1_555
H30H C33H 1_555 1_555
C34H H31H 1_555 1_555
H32H C34H 1_555 1_555
H33H C34H 1_555 1_555
C35H H34H 1_555 1_555
H35H C35H 1_555 1_555
H36H C35H 1_555 1_555
C36H C22H 1_555 1_555
C7 C8 1_555 1_555
C7 C14 1_555 1_555
O10 Zn2 1_555 1_555
C9 C13 1_555 1_555
C9 C17 1_555 1_555
C11 C12 1_555 1_555
O13 Zn2 1_555 1_555
C19 C22 1_555 1_555
C20 C21 1_555 1_555
C23 C24 1_555 1_555
C33 C36 1_555 1_555
C34 C36 1_555 1_555
C35 C36 1_555 1_555
C7A C8A 1_555 1_555
C7A C14A 1_555 1_555
O10A Zn2A 1_555 1_555
C9A C13A 1_555 1_555
C9A C17A 1_555 1_555
C11A C12A 1_555 1_555
O13A Zn2A 1_555 1_555
C19A C22A 1_555 1_555
C20A C21A 1_555 1_555
C23A C24A 1_555 1_555
C33A C36A 1_555 1_555
C34A C36A 1_555 1_555
C35A C36A 1_555 1_555
C7B C8B 1_555 1_555
C7B C14B 1_555 1_555
O10B Zn2B 1_555 1_555
C9B C13B 1_555 1_555
C9B C17B 1_555 1_555
C11B C12B 1_555 1_555
O13B Zn2B 1_555 1_555
C19B C22B 1_555 1_555
C20B C21B 1_555 1_555
C23B C24B 1_555 1_555
C33B C36B 1_555 1_555
C34B C36B 1_555 1_555
C35B C36B 1_555 1_555
C3C O7C 1_555 1_555
C5C O11C 1_555 1_555
C7C C8C 1_555 1_555
C7C C14C 1_555 1_555
O10C Zn2C 1_555 1_555
C9C C13C 1_555 1_555
C9C C17C 1_555 1_555
C11C C12C 1_555 1_555
O13C Zn2C 1_555 1_555
C19C C22C 1_555 1_555
C20C C21C 1_555 1_555
C23C C24C 1_555 1_555
C33C C36C 1_555 1_555
C34C C36C 1_555 1_555
C35C C36C 1_555 1_555
C1I O9I 1_555 1_555
C3I O7I 1_555 1_555
C7I C8I 1_555 1_555
C7I C14I 1_555 1_555
O10I Zn2I 1_555 1_555
C9I C13I 1_555 1_555
C9I C17I 1_555 1_555
C11I C12I 1_555 1_555
O13I Zn2I 1_555 1_555
C19I C22I 1_555 1_555
C20I C21I 1_555 1_555
C23I C24I 1_555 1_555
C33I C36I 1_555 1_555
C34I C36I 1_555 1_555
C35I C36I 1_555 1_555
C1J O9J 1_555 1_555
C3J O7J 1_555 1_555
C7J C8J 1_555 1_555
C7J C14J 1_555 1_555
O10J Zn2J 1_555 1_555
C9J C13J 1_555 1_555
C9J C17J 1_555 1_555
C11J C12J 1_555 1_555
O13J Zn2J 1_555 1_555
C19J C22J 1_555 1_555
C20J C21J 1_555 1_555
C23J C24J 1_555 1_555
C33J C36J 1_555 1_555
C34J C36J 1_555 1_555
C35J C36J 1_555 1_555
C1K O9K 1_555 1_555
C3K O7K 1_555 1_555
C7K C8K 1_555 1_555
C7K C14K 1_555 1_555
O10K Zn2K 1_555 1_555
C9K C13K 1_555 1_555
C9K C17K 1_555 1_555
C11K C12K 1_555 1_555
O13K Zn2K 1_555 1_555
C19K C22K 1_555 1_555
C20K C21K 1_555 1_555
C23K C24K 1_555 1_555
C33K C36K 1_555 1_555
C34K C36K 1_555 1_555
C35K C36K 1_555 1_555
C1H O9H 1_555 1_555
C3H O7H 1_555 1_555
C5H O11H 1_555 1_555
C7H C8H 1_555 1_555
C7H C14H 1_555 1_555
O10H Zn2H 1_555 1_555
C9H C13H 1_555 1_555
C9H C17H 1_555 1_555
C11H C12H 1_555 1_555
O13H Zn2H 1_555 1_555
C19H C22H 1_555 1_555
C20H C21H 1_555 1_555
C23H C24H 1_555 1_555
C33H C36H 1_555 1_555
C34H C36H 1_555 1_555
C35H C36H 1_555 1_555

#END
