# generated using pymatgen
data_ZnH42Pd(C12O5)2
_symmetry_space_group_name_H-M   'P 1'
_cell_length_a   28.93500000
_cell_length_b   28.93500000
_cell_length_c   29.02129970
_cell_angle_alpha   119.90168052
_cell_angle_beta   119.90168052
_cell_angle_gamma   90.00000000
_symmetry_Int_Tables_number   1
_chemical_formula_structural   ZnH42Pd(C12O5)2
_chemical_formula_sum   'Zn12 H504 Pd12.0 C288 O120'
_cell_volume   17231.95481895
_cell_formula_units_Z   12
loop_
 _symmetry_equiv_pos_site_id
 _symmetry_equiv_pos_as_xyz
  1  'x, y, z'
loop_
 _atom_site_type_symbol
 _atom_site_label
 _atom_site_symmetry_multiplicity
 _atom_site_fract_x
 _atom_site_fract_y
 _atom_site_fract_z
 _atom_site_occupancy
  C  C1  1  0.284000  0.922400  0.910200  1.0
  C  C2  1  0.922400  0.626200  0.910200  1.0
  C  C3  1  0.626200  0.987800  0.910200  1.0
  C  C4  1  0.987800  0.284000  0.910200  1.0
  C  C5  1  0.716000  0.077600  0.089800  1.0
  C  C6  1  0.077600  0.373800  0.089800  1.0
  C  C7  1  0.373800  0.012200  0.089800  1.0
  C  C8  1  0.012200  0.716000  0.089800  1.0
  C  C9  1  0.039000  0.644500  0.738200  1.0
  C  C10  1  0.644500  0.699200  0.738200  1.0
  C  C11  1  0.699200  0.093700  0.738200  1.0
  C  C12  1  0.093700  0.039000  0.738200  1.0
  C  C13  1  0.961000  0.355500  0.261800  1.0
  C  C14  1  0.355500  0.300800  0.261800  1.0
  C  C15  1  0.300800  0.906300  0.261800  1.0
  C  C16  1  0.906300  0.961000  0.261800  1.0
  C  C17  1  0.046000  0.637200  0.909800  1.0
  C  C18  1  0.637200  0.863800  0.909800  1.0
  C  C19  1  0.863800  0.272600  0.909800  1.0
  C  C20  1  0.272600  0.046000  0.909800  1.0
  C  C21  1  0.954000  0.362800  0.090200  1.0
  C  C22  1  0.362800  0.136200  0.090200  1.0
  C  C23  1  0.136200  0.727400  0.090200  1.0
  C  C24  1  0.727400  0.954000  0.090200  1.0
  C  C25  1  0.120900  0.744100  0.739800  1.0
  C  C26  1  0.744100  0.618900  0.739800  1.0
  C  C27  1  0.618900  0.995700  0.739800  1.0
  C  C28  1  0.995700  0.120900  0.739800  1.0
  C  C29  1  0.879100  0.255900  0.260200  1.0
  C  C30  1  0.255900  0.381100  0.260200  1.0
  C  C31  1  0.381100  0.004300  0.260200  1.0
  C  C32  1  0.004300  0.879100  0.260200  1.0
  C  C33  1  0.737800  0.623600  0.615000  1.0
  C  C34  1  0.623600  0.877200  0.615000  1.0
  C  C35  1  0.877200  0.991400  0.615000  1.0
  C  C36  1  0.991400  0.737800  0.615000  1.0
  C  C37  1  0.262200  0.376400  0.385000  1.0
  C  C38  1  0.376400  0.122800  0.385000  1.0
  C  C39  1  0.122800  0.008600  0.385000  1.0
  C  C40  1  0.008600  0.262200  0.385000  1.0
  C  C41  1  0.909400  0.640200  0.615800  1.0
  C  C42  1  0.640200  0.706400  0.615800  1.0
  C  C43  1  0.706400  0.975600  0.615800  1.0
  C  C44  1  0.975600  0.909400  0.615800  1.0
  C  C45  1  0.090600  0.359800  0.384200  1.0
  C  C46  1  0.359800  0.293600  0.384200  1.0
  C  C47  1  0.293600  0.024400  0.384200  1.0
  C  C48  1  0.024400  0.090600  0.384200  1.0
  C  C49  1  0.205100  0.831000  0.826800  1.0
  C  C50  1  0.831000  0.621700  0.826800  1.0
  C  C51  1  0.621700  0.995800  0.826800  1.0
  C  C52  1  0.995800  0.205100  0.826800  1.0
  C  C53  1  0.794900  0.169000  0.173200  1.0
  C  C54  1  0.169000  0.378300  0.173200  1.0
  C  C55  1  0.378300  0.004200  0.173200  1.0
  C  C56  1  0.004200  0.794900  0.173200  1.0
  C  C57  1  0.258800  0.861000  0.857000  1.0
  C  C58  1  0.861000  0.598200  0.857000  1.0
  C  C59  1  0.598200  0.996000  0.857000  1.0
  C  C60  1  0.996000  0.258800  0.857000  1.0
  C  C61  1  0.741200  0.139000  0.143000  1.0
  C  C62  1  0.139000  0.401800  0.143000  1.0
  C  C63  1  0.401800  0.004000  0.143000  1.0
  C  C64  1  0.004000  0.741200  0.143000  1.0
  C  C65  1  0.046800  0.641700  0.826800  1.0
  C  C66  1  0.641700  0.780000  0.826800  1.0
  C  C67  1  0.780000  0.185100  0.826800  1.0
  C  C68  1  0.185100  0.046800  0.826800  1.0
  C  C69  1  0.953200  0.358300  0.173200  1.0
  C  C70  1  0.358300  0.220000  0.173200  1.0
  C  C71  1  0.220000  0.814900  0.173200  1.0
  C  C72  1  0.814900  0.953200  0.173200  1.0
  C  C73  1  0.850800  0.610500  0.583800  1.0
  C  C74  1  0.610500  0.733000  0.583800  1.0
  C  C75  1  0.733000  0.973300  0.583800  1.0
  C  C76  1  0.973300  0.850800  0.583800  1.0
  C  C77  1  0.149200  0.389500  0.416200  1.0
  C  C78  1  0.389500  0.267000  0.416200  1.0
  C  C79  1  0.267000  0.026700  0.416200  1.0
  C  C80  1  0.026700  0.149200  0.416200  1.0
  C  C81  1  0.822900  0.630700  0.612200  1.0
  C  C82  1  0.630700  0.789300  0.612200  1.0
  C  C83  1  0.789300  0.981500  0.612200  1.0
  C  C84  1  0.981500  0.822900  0.612200  1.0
  C  C85  1  0.177100  0.369300  0.387800  1.0
  C  C86  1  0.369300  0.210700  0.387800  1.0
  C  C87  1  0.210700  0.018500  0.387800  1.0
  C  C88  1  0.018500  0.177100  0.387800  1.0
  C  C89  1  0.768400  0.602000  0.583600  1.0
  C  C90  1  0.602000  0.815200  0.583600  1.0
  C  C91  1  0.815200  0.981600  0.583600  1.0
  C  C92  1  0.981600  0.768400  0.583600  1.0
  C  C93  1  0.231600  0.398000  0.416400  1.0
  C  C94  1  0.398000  0.184800  0.416400  1.0
  C  C95  1  0.184800  0.018400  0.416400  1.0
  C  C96  1  0.018400  0.231600  0.416400  1.0
  C  C97  1  0.050400  0.618000  0.773800  1.0
  C  C98  1  0.618000  0.723400  0.773800  1.0
  C  C99  1  0.723400  0.155800  0.773800  1.0
  C  C100  1  0.155800  0.050400  0.773800  1.0
  C  C101  1  0.949600  0.382000  0.226200  1.0
  C  C102  1  0.382000  0.276600  0.226200  1.0
  C  C103  1  0.276600  0.844200  0.226200  1.0
  C  C104  1  0.844200  0.949600  0.226200  1.0
  C  C105  1  0.180500  0.775700  0.775000  1.0
  C  C106  1  0.775700  0.594500  0.775000  1.0
  C  C107  1  0.594500  0.999300  0.775000  1.0
  C  C108  1  0.999300  0.180500  0.775000  1.0
  C  C109  1  0.819500  0.224300  0.225000  1.0
  C  C110  1  0.224300  0.405500  0.225000  1.0
  C  C111  1  0.405500  0.000700  0.225000  1.0
  C  C112  1  0.000700  0.819500  0.225000  1.0
  C  C113  1  0.292400  0.833600  0.838800  1.0
  C  C114  1  0.833600  0.546400  0.838800  1.0
  C  C115  1  0.546400  0.005200  0.838800  1.0
  C  C116  1  0.005200  0.292400  0.838800  1.0
  C  C117  1  0.707600  0.166400  0.161200  1.0
  C  C118  1  0.166400  0.453600  0.161200  1.0
  C  C119  1  0.453600  0.994800  0.161200  1.0
  C  C120  1  0.994800  0.707600  0.161200  1.0
  C  C121  1  0.739600  0.548100  0.521400  1.0
  C  C122  1  0.548100  0.781800  0.521400  1.0
  C  C123  1  0.781800  0.973300  0.521400  1.0
  C  C124  1  0.973300  0.739600  0.521400  1.0
  C  C125  1  0.260400  0.451900  0.478600  1.0
  C  C126  1  0.451900  0.218200  0.478600  1.0
  C  C127  1  0.218200  0.026700  0.478600  1.0
  C  C128  1  0.026700  0.260400  0.478600  1.0
  C  C129  1  0.052900  0.615000  0.856400  1.0
  C  C130  1  0.615000  0.803500  0.856400  1.0
  C  C131  1  0.803500  0.241400  0.856400  1.0
  C  C132  1  0.241400  0.052900  0.856400  1.0
  C  C133  1  0.947100  0.385000  0.143600  1.0
  C  C134  1  0.385000  0.196500  0.143600  1.0
  C  C135  1  0.196500  0.758600  0.143600  1.0
  C  C136  1  0.758600  0.947100  0.143600  1.0
  C  C137  1  0.064700  0.568500  0.754400  1.0
  C  C138  1  0.568500  0.689700  0.754400  1.0
  C  C139  1  0.689700  0.185900  0.754400  1.0
  C  C140  1  0.185900  0.064700  0.754400  1.0
  C  C141  1  0.935300  0.431500  0.245600  1.0
  C  C142  1  0.431500  0.310300  0.245600  1.0
  C  C143  1  0.310300  0.814100  0.245600  1.0
  C  C144  1  0.814100  0.935300  0.245600  1.0
  C  C145  1  0.821300  0.557500  0.522200  1.0
  C  C146  1  0.557500  0.700900  0.522200  1.0
  C  C147  1  0.700900  0.964700  0.522200  1.0
  C  C148  1  0.964700  0.821300  0.522200  1.0
  C  C149  1  0.178700  0.442500  0.477800  1.0
  C  C150  1  0.442500  0.299100  0.477800  1.0
  C  C151  1  0.299100  0.035300  0.477800  1.0
  C  C152  1  0.035300  0.178700  0.477800  1.0
  C  C153  1  0.073100  0.541100  0.784000  1.0
  C  C154  1  0.541100  0.710900  0.784000  1.0
  C  C155  1  0.710900  0.242900  0.784000  1.0
  C  C156  1  0.242900  0.073100  0.784000  1.0
  C  C157  1  0.926900  0.458900  0.216000  1.0
  C  C158  1  0.458900  0.289100  0.216000  1.0
  C  C159  1  0.289100  0.757100  0.216000  1.0
  C  C160  1  0.757100  0.926900  0.216000  1.0
  C  C161  1  0.068500  0.563500  0.835400  1.0
  C  C162  1  0.563500  0.766900  0.835400  1.0
  C  C163  1  0.766900  0.271900  0.835400  1.0
  C  C164  1  0.271900  0.068500  0.835400  1.0
  C  C165  1  0.931500  0.436500  0.164600  1.0
  C  C166  1  0.436500  0.233100  0.164600  1.0
  C  C167  1  0.233100  0.728100  0.164600  1.0
  C  C168  1  0.728100  0.931500  0.164600  1.0
  C  C169  1  0.768600  0.525600  0.489600  1.0
  C  C170  1  0.525600  0.721000  0.489600  1.0
  C  C171  1  0.721000  0.964000  0.489600  1.0
  C  C172  1  0.964000  0.768600  0.489600  1.0
  C  C173  1  0.231400  0.474400  0.510400  1.0
  C  C174  1  0.474400  0.279000  0.510400  1.0
  C  C175  1  0.279000  0.036000  0.510400  1.0
  C  C176  1  0.036000  0.231400  0.510400  1.0
  C  C177  1  0.270500  0.777800  0.788200  1.0
  C  C178  1  0.777800  0.517700  0.788200  1.0
  C  C179  1  0.517700  0.010400  0.788200  1.0
  C  C180  1  0.010400  0.270500  0.788200  1.0
  C  C181  1  0.729500  0.222200  0.211800  1.0
  C  C182  1  0.222200  0.482300  0.211800  1.0
  C  C183  1  0.482300  0.989600  0.211800  1.0
  C  C184  1  0.989600  0.729500  0.211800  1.0
  C  C185  1  0.216800  0.748400  0.758800  1.0
  C  C186  1  0.748400  0.542000  0.758800  1.0
  C  C187  1  0.542000  0.010400  0.758800  1.0
  C  C188  1  0.010400  0.216800  0.758800  1.0
  C  C189  1  0.783200  0.251600  0.241200  1.0
  C  C190  1  0.251600  0.458000  0.241200  1.0
  C  C191  1  0.458000  0.989600  0.241200  1.0
  C  C192  1  0.989600  0.783200  0.241200  1.0
  C  C193  1  0.071100  0.479100  0.751000  1.0
  C  C194  1  0.479100  0.679900  0.751000  1.0
  C  C195  1  0.679900  0.271900  0.751000  1.0
  C  C196  1  0.271900  0.071100  0.751000  1.0
  C  C197  1  0.928900  0.520900  0.249000  1.0
  C  C198  1  0.520900  0.320100  0.249000  1.0
  C  C199  1  0.320100  0.728100  0.249000  1.0
  C  C200  1  0.728100  0.928900  0.249000  1.0
  C  C201  1  0.307300  0.743000  0.772400  1.0
  C  C202  1  0.743000  0.465100  0.772400  1.0
  C  C203  1  0.465100  0.029400  0.772400  1.0
  C  C204  1  0.029400  0.307300  0.772400  1.0
  C  C205  1  0.692700  0.257000  0.227600  1.0
  C  C206  1  0.257000  0.534900  0.227600  1.0
  C  C207  1  0.534900  0.970600  0.227600  1.0
  C  C208  1  0.970600  0.692700  0.227600  1.0
  C  C209  1  0.099300  0.471800  0.717400  1.0
  C  C210  1  0.471800  0.618100  0.717400  1.0
  C  C211  1  0.618100  0.245600  0.717400  1.0
  C  C212  1  0.245600  0.099300  0.717400  1.0
  C  C213  1  0.900700  0.528200  0.282600  1.0
  C  C214  1  0.528200  0.381900  0.282600  1.0
  C  C215  1  0.381900  0.754400  0.282600  1.0
  C  C216  1  0.754400  0.900700  0.282600  1.0
  C  C217  1  0.122700  0.482100  0.803800  1.0
  C  C218  1  0.482100  0.681100  0.803800  1.0
  C  C219  1  0.681100  0.321700  0.803800  1.0
  C  C220  1  0.321700  0.122700  0.803800  1.0
  C  C221  1  0.877300  0.517900  0.196200  1.0
  C  C222  1  0.517900  0.318900  0.196200  1.0
  C  C223  1  0.318900  0.678300  0.196200  1.0
  C  C224  1  0.678300  0.877300  0.196200  1.0
  C  C225  1  0.038700  0.420000  0.720200  1.0
  C  C226  1  0.420000  0.681500  0.720200  1.0
  C  C227  1  0.681500  0.300200  0.720200  1.0
  C  C228  1  0.300200  0.038700  0.720200  1.0
  C  C229  1  0.961300  0.580000  0.279800  1.0
  C  C230  1  0.580000  0.318500  0.279800  1.0
  C  C231  1  0.318500  0.699800  0.279800  1.0
  C  C232  1  0.699800  0.961300  0.279800  1.0
  C  C233  1  0.305900  0.694500  0.758200  1.0
  C  C234  1  0.694500  0.452300  0.758200  1.0
  C  C235  1  0.452300  0.063700  0.758200  1.0
  C  C236  1  0.063700  0.305900  0.758200  1.0
  C  C237  1  0.694100  0.305500  0.241800  1.0
  C  C238  1  0.305500  0.547700  0.241800  1.0
  C  C239  1  0.547700  0.936300  0.241800  1.0
  C  C240  1  0.936300  0.694100  0.241800  1.0
  C  C241  1  0.361100  0.785900  0.802400  1.0
  C  C242  1  0.785900  0.441300  0.802400  1.0
  C  C243  1  0.441300  0.016500  0.802400  1.0
  C  C244  1  0.016500  0.361100  0.802400  1.0
  C  C245  1  0.638900  0.214100  0.197600  1.0
  C  C246  1  0.214100  0.558700  0.197600  1.0
  C  C247  1  0.558700  0.983500  0.197600  1.0
  C  C248  1  0.983500  0.638900  0.197600  1.0
  C  C249  1  0.287000  0.731800  0.709800  1.0
  C  C250  1  0.731800  0.422800  0.709800  1.0
  C  C251  1  0.422800  0.978000  0.709800  1.0
  C  C252  1  0.978000  0.287000  0.709800  1.0
  C  C253  1  0.713000  0.268200  0.290200  1.0
  C  C254  1  0.268200  0.577200  0.290200  1.0
  C  C255  1  0.577200  0.022000  0.290200  1.0
  C  C256  1  0.022000  0.713000  0.290200  1.0
  C  C257  1  0.673600  0.471800  0.375200  1.0
  C  C258  1  0.471800  0.701600  0.375200  1.0
  C  C259  1  0.701600  0.903400  0.375200  1.0
  C  C260  1  0.903400  0.673600  0.375200  1.0
  C  C261  1  0.326400  0.528200  0.624800  1.0
  C  C262  1  0.528200  0.298400  0.624800  1.0
  C  C263  1  0.298400  0.096600  0.624800  1.0
  C  C264  1  0.096600  0.326400  0.624800  1.0
  C  C265  1  0.711300  0.425200  0.431400  1.0
  C  C266  1  0.425200  0.720100  0.431400  1.0
  C  C267  1  0.720100  0.006200  0.431400  1.0
  C  C268  1  0.006200  0.711300  0.431400  1.0
  C  C269  1  0.288700  0.574800  0.568600  1.0
  C  C270  1  0.574800  0.279900  0.568600  1.0
  C  C271  1  0.279900  0.993800  0.568600  1.0
  C  C272  1  0.993800  0.288700  0.568600  1.0
  C  C273  1  0.767900  0.448600  0.405000  1.0
  C  C274  1  0.448600  0.637100  0.405000  1.0
  C  C275  1  0.637100  0.956400  0.405000  1.0
  C  C276  1  0.956400  0.767900  0.405000  1.0
  C  C277  1  0.232100  0.551400  0.595000  1.0
  C  C278  1  0.551400  0.362900  0.595000  1.0
  C  C279  1  0.362900  0.043600  0.595000  1.0
  C  C280  1  0.043600  0.232100  0.595000  1.0
  C  C281  1  0.728500  0.468600  0.422200  1.0
  C  C282  1  0.468600  0.693700  0.422200  1.0
  C  C283  1  0.693700  0.953600  0.422200  1.0
  C  C284  1  0.953600  0.728500  0.422200  1.0
  C  C285  1  0.271500  0.531400  0.577800  1.0
  C  C286  1  0.531400  0.306300  0.577800  1.0
  C  C287  1  0.306300  0.046400  0.577800  1.0
  C  C288  1  0.046400  0.271500  0.577800  1.0
  H  H289  1  0.137700  0.472000  0.743200  1
  H  H290  1  0.472000  0.605500  0.743200  1
  H  H291  1  0.605500  0.271200  0.743200  1
  H  H292  1  0.271200  0.137700  0.743200  1
  H  H293  1  0.862300  0.528000  0.256800  1
  H  H294  1  0.528000  0.394500  0.256800  1
  H  H295  1  0.394500  0.728800  0.256800  1
  H  H296  1  0.728800  0.862300  0.256800  1
  H  H297  1  0.101000  0.502700  0.712400  1
  H  H298  1  0.502700  0.611400  0.712400  1
  H  H299  1  0.611400  0.209700  0.712400  1
  H  H300  1  0.209700  0.101000  0.712400  1
  H  H301  1  0.899000  0.497300  0.287600  1
  H  H302  1  0.497300  0.388600  0.287600  1
  H  H303  1  0.388600  0.790300  0.287600  1
  H  H304  1  0.790300  0.899000  0.287600  1
  H  H305  1  0.077700  0.435700  0.674400  1
  H  H306  1  0.435700  0.596700  0.674400  1
  H  H307  1  0.596700  0.238700  0.674400  1
  H  H308  1  0.238700  0.077700  0.674400  1
  H  H309  1  0.922300  0.564300  0.325600  1
  H  H310  1  0.564300  0.403300  0.325600  1
  H  H311  1  0.403300  0.761300  0.325600  1
  H  H312  1  0.761300  0.922300  0.325600  1
  H  H313  1  0.116600  0.446800  0.800200  1
  H  H314  1  0.446800  0.683600  0.800200  1
  H  H315  1  0.683600  0.353400  0.800200  1
  H  H316  1  0.353400  0.116600  0.800200  1
  H  H317  1  0.883400  0.553200  0.199800  1
  H  H318  1  0.553200  0.316400  0.199800  1
  H  H319  1  0.316400  0.646600  0.199800  1
  H  H320  1  0.646600  0.883400  0.199800  1
  H  H321  1  0.131800  0.513800  0.845800  1
  H  H322  1  0.513800  0.714000  0.845800  1
  H  H323  1  0.714000  0.332000  0.845800  1
  H  H324  1  0.332000  0.131800  0.845800  1
  H  H325  1  0.868200  0.486200  0.154200  1
  H  H326  1  0.486200  0.286000  0.154200  1
  H  H327  1  0.286000  0.668000  0.154200  1
  H  H328  1  0.668000  0.868200  0.154200  1
  H  H329  1  0.154200  0.487900  0.800800  1
  H  H330  1  0.487900  0.646600  0.800800  1
  H  H331  1  0.646600  0.312900  0.800800  1
  H  H332  1  0.312900  0.154200  0.800800  1
  H  H333  1  0.845800  0.512100  0.199200  1
  H  H334  1  0.512100  0.353400  0.199200  1
  H  H335  1  0.353400  0.687100  0.199200  1
  H  H336  1  0.687100  0.845800  0.199200  1
  H  H337  1  0.001000  0.408500  0.682000  1
  H  H338  1  0.408500  0.681000  0.682000  1
  H  H339  1  0.681000  0.273500  0.682000  1
  H  H340  1  0.273500  0.001000  0.682000  1
  H  H341  1  0.999000  0.591500  0.318000  1
  H  H342  1  0.591500  0.319000  0.318000  1
  H  H343  1  0.319000  0.726500  0.318000  1
  H  H344  1  0.726500  0.999000  0.318000  1
  H  H345  1  0.035400  0.418600  0.751600  1
  H  H346  1  0.418600  0.716200  0.751600  1
  H  H347  1  0.716200  0.333000  0.751600  1
  H  H348  1  0.333000  0.035400  0.751600  1
  H  H349  1  0.964600  0.581400  0.248400  1
  H  H350  1  0.581400  0.283800  0.248400  1
  H  H351  1  0.283800  0.667000  0.248400  1
  H  H352  1  0.667000  0.964600  0.248400  1
  H  H353  1  0.058600  0.394500  0.707200  1
  H  H354  1  0.394500  0.648600  0.707200  1
  H  H355  1  0.648600  0.312700  0.707200  1
  H  H356  1  0.312700  0.058600  0.707200  1
  H  H357  1  0.941400  0.605500  0.292800  1
  H  H358  1  0.605500  0.351400  0.292800  1
  H  H359  1  0.351400  0.687300  0.292800  1
  H  H360  1  0.687300  0.941400  0.292800  1
  H  H361  1  0.292600  0.669200  0.712600  1
  H  H362  1  0.669200  0.420000  0.712600  1
  H  H363  1  0.420000  0.043400  0.712600  1
  H  H364  1  0.043400  0.292600  0.712600  1
  H  H365  1  0.707400  0.330800  0.287400  1
  H  H366  1  0.330800  0.580000  0.287400  1
  H  H367  1  0.580000  0.956600  0.287400  1
  H  H368  1  0.956600  0.707400  0.287400  1
  H  H369  1  0.280200  0.681000  0.764800  1
  H  H370  1  0.681000  0.484600  0.764800  1
  H  H371  1  0.484600  0.083800  0.764800  1
  H  H372  1  0.083800  0.280200  0.764800  1
  H  H373  1  0.719800  0.319000  0.235200  1
  H  H374  1  0.319000  0.515400  0.235200  1
  H  H375  1  0.515400  0.916200  0.235200  1
  H  H376  1  0.916200  0.719800  0.235200  1
  H  H377  1  0.343900  0.695300  0.786200  1
  H  H378  1  0.695300  0.442300  0.786200  1
  H  H379  1  0.442300  0.090900  0.786200  1
  H  H380  1  0.090900  0.343900  0.786200  1
  H  H381  1  0.656100  0.304700  0.213800  1
  H  H382  1  0.304700  0.557700  0.213800  1
  H  H383  1  0.557700  0.909100  0.213800  1
  H  H384  1  0.909100  0.656100  0.213800  1
  H  H385  1  0.355100  0.822200  0.812800  1
  H  H386  1  0.822200  0.457700  0.812800  1
  H  H387  1  0.457700  0.990600  0.812800  1
  H  H388  1  0.990600  0.355100  0.812800  1
  H  H389  1  0.644900  0.177800  0.187200  1
  H  H390  1  0.177800  0.542300  0.187200  1
  H  H391  1  0.542300  0.009400  0.187200  1
  H  H392  1  0.009400  0.644900  0.187200  1
  H  H393  1  0.371400  0.772700  0.771600  1
  H  H394  1  0.772700  0.400200  0.771600  1
  H  H395  1  0.400200  0.998900  0.771600  1
  H  H396  1  0.998900  0.371400  0.771600  1
  H  H397  1  0.628600  0.227300  0.228400  1
  H  H398  1  0.227300  0.599800  0.228400  1
  H  H399  1  0.599800  0.001100  0.228400  1
  H  H400  1  0.001100  0.628600  0.228400  1
  H  H401  1  0.391600  0.790600  0.842200  1
  H  H402  1  0.790600  0.450600  0.842200  1
  H  H403  1  0.450600  0.051600  0.842200  1
  H  H404  1  0.051600  0.391600  0.842200  1
  H  H405  1  0.608400  0.209400  0.157800  1
  H  H406  1  0.209400  0.549400  0.157800  1
  H  H407  1  0.549400  0.948400  0.157800  1
  H  H408  1  0.948400  0.608400  0.157800  1
  H  H409  1  0.279900  0.691900  0.679200  1
  H  H410  1  0.691900  0.399300  0.679200  1
  H  H411  1  0.399300  0.987300  0.679200  1
  H  H412  1  0.987300  0.279900  0.679200  1
  H  H413  1  0.720100  0.308100  0.320800  1
  H  H414  1  0.308100  0.600700  0.320800  1
  H  H415  1  0.600700  0.012700  0.320800  1
  H  H416  1  0.012700  0.720100  0.320800  1
  H  H417  1  0.315400  0.755400  0.714400  1
  H  H418  1  0.755400  0.399000  0.714400  1
  H  H419  1  0.399000  0.959000  0.714400  1
  H  H420  1  0.959000  0.315400  0.714400  1
  H  H421  1  0.684600  0.244600  0.285600  1
  H  H422  1  0.244600  0.601000  0.285600  1
  H  H423  1  0.601000  0.041000  0.285600  1
  H  H424  1  0.041000  0.684600  0.285600  1
  H  H425  1  0.251800  0.740400  0.693200  1
  H  H426  1  0.740400  0.441400  0.693200  1
  H  H427  1  0.441400  0.952800  0.693200  1
  H  H428  1  0.952800  0.251800  0.693200  1
  H  H429  1  0.748200  0.259600  0.306800  1
  H  H430  1  0.259600  0.558600  0.306800  1
  H  H431  1  0.558600  0.047200  0.306800  1
  H  H432  1  0.047200  0.748200  0.306800  1
  H  H433  1  0.670500  0.458400  0.335000  1
  H  H434  1  0.458400  0.664500  0.335000  1
  H  H435  1  0.664500  0.876600  0.335000  1
  H  H436  1  0.876600  0.670500  0.335000  1
  H  H437  1  0.329500  0.541600  0.665000  1
  H  H438  1  0.541600  0.335500  0.665000  1
  H  H439  1  0.335500  0.123400  0.665000  1
  H  H440  1  0.123400  0.329500  0.665000  1
  H  H441  1  0.673900  0.510900  0.395400  1
  H  H442  1  0.510900  0.721500  0.395400  1
  H  H443  1  0.721500  0.884500  0.395400  1
  H  H444  1  0.884500  0.673900  0.395400  1
  H  H445  1  0.326100  0.489100  0.604600  1
  H  H446  1  0.489100  0.278500  0.604600  1
  H  H447  1  0.278500  0.115500  0.604600  1
  H  H448  1  0.115500  0.326100  0.604600  1
  H  H449  1  0.641200  0.448000  0.365000  1
  H  H450  1  0.448000  0.723800  0.365000  1
  H  H451  1  0.723800  0.917000  0.365000  1
  H  H452  1  0.917000  0.641200  0.365000  1
  H  H453  1  0.358800  0.552000  0.635000  1
  H  H454  1  0.552000  0.276200  0.635000  1
  H  H455  1  0.276200  0.083000  0.635000  1
  H  H456  1  0.083000  0.358800  0.635000  1
  H  H457  1  0.731100  0.397600  0.424000  1
  H  H458  1  0.397600  0.692900  0.424000  1
  H  H459  1  0.692900  0.026400  0.424000  1
  H  H460  1  0.026400  0.731100  0.424000  1
  H  H461  1  0.268900  0.602400  0.576000  1
  H  H462  1  0.602400  0.307100  0.576000  1
  H  H463  1  0.307100  0.973600  0.576000  1
  H  H464  1  0.973600  0.268900  0.576000  1
  H  H465  1  0.670400  0.405600  0.400200  1
  H  H466  1  0.405600  0.729800  0.400200  1
  H  H467  1  0.729800  0.994600  0.400200  1
  H  H468  1  0.994600  0.670400  0.400200  1
  H  H469  1  0.329600  0.594400  0.599800  1
  H  H470  1  0.594400  0.270200  0.599800  1
  H  H471  1  0.270200  0.005400  0.599800  1
  H  H472  1  0.005400  0.329600  0.599800  1
  H  H473  1  0.721500  0.444600  0.475800  1
  H  H474  1  0.444600  0.754300  0.475800  1
  H  H475  1  0.754300  0.031200  0.475800  1
  H  H476  1  0.031200  0.721500  0.475800  1
  H  H477  1  0.278500  0.555400  0.524200  1
  H  H478  1  0.555400  0.245700  0.524200  1
  H  H479  1  0.245700  0.968800  0.524200  1
  H  H480  1  0.968800  0.278500  0.524200  1
  H  H481  1  0.800500  0.450100  0.441000  1
  H  H482  1  0.450100  0.640500  0.441000  1
  H  H483  1  0.640500  0.990900  0.441000  1
  H  H484  1  0.990900  0.800500  0.441000  1
  H  H485  1  0.199500  0.549900  0.559000  1
  H  H486  1  0.549900  0.359500  0.559000  1
  H  H487  1  0.359500  0.009100  0.559000  1
  H  H488  1  0.009100  0.199500  0.559000  1
  H  H489  1  0.780500  0.472600  0.396000  1
  H  H490  1  0.472600  0.615500  0.396000  1
  H  H491  1  0.615500  0.923400  0.396000  1
  H  H492  1  0.923400  0.780500  0.396000  1
  H  H493  1  0.219500  0.527400  0.604000  1
  H  H494  1  0.527400  0.384500  0.604000  1
  H  H495  1  0.384500  0.076600  0.604000  1
  H  H496  1  0.076600  0.219500  0.604000  1
  H  H497  1  0.748600  0.409500  0.366200  1
  H  H498  1  0.409500  0.617600  0.366200  1
  H  H499  1  0.617600  0.956700  0.366200  1
  H  H500  1  0.956700  0.748600  0.366200  1
  H  H501  1  0.251400  0.590500  0.633800  1
  H  H502  1  0.590500  0.382400  0.633800  1
  H  H503  1  0.382400  0.043300  0.633800  1
  H  H504  1  0.043300  0.251400  0.633800  1
  H  H505  1  0.183500  0.849000  0.842000  1.0
  H  H506  1  0.849000  0.658500  0.842000  1.0
  H  H507  1  0.658500  0.993000  0.842000  1.0
  H  H508  1  0.993000  0.183500  0.842000  1.0
  H  H509  1  0.816500  0.151000  0.158000  1.0
  H  H510  1  0.151000  0.341500  0.158000  1.0
  H  H511  1  0.341500  0.007000  0.158000  1.0
  H  H512  1  0.007000  0.816500  0.158000  1.0
  H  H513  1  0.040000  0.676700  0.842400  1.0
  H  H514  1  0.676700  0.802400  0.842400  1.0
  H  H515  1  0.802400  0.165700  0.842400  1.0
  H  H516  1  0.165700  0.040000  0.842400  1.0
  H  H517  1  0.960000  0.323300  0.157600  1.0
  H  H518  1  0.323300  0.197600  0.157600  1.0
  H  H519  1  0.197600  0.834300  0.157600  1.0
  H  H520  1  0.834300  0.960000  0.157600  1.0
  H  H521  1  0.842000  0.666000  0.653400  1.0
  H  H522  1  0.666000  0.811400  0.653400  1.0
  H  H523  1  0.811400  0.987400  0.653400  1.0
  H  H524  1  0.987400  0.842000  0.653400  1.0
  H  H525  1  0.158000  0.334000  0.346600  1.0
  H  H526  1  0.334000  0.188600  0.346600  1.0
  H  H527  1  0.188600  0.012600  0.346600  1.0
  H  H528  1  0.012600  0.158000  0.346600  1.0
  H  H529  1  0.331000  0.853900  0.861800  1.0
  H  H530  1  0.853900  0.530800  0.861800  1.0
  H  H531  1  0.530800  0.007900  0.861800  1.0
  H  H532  1  0.007900  0.331000  0.861800  1.0
  H  H533  1  0.669000  0.146100  0.138200  1.0
  H  H534  1  0.146100  0.469200  0.138200  1.0
  H  H535  1  0.469200  0.992100  0.138200  1.0
  H  H536  1  0.992100  0.669000  0.138200  1.0
  H  H537  1  0.702000  0.527300  0.501200  1.0
  H  H538  1  0.527300  0.799200  0.501200  1.0
  H  H539  1  0.799200  0.973900  0.501200  1.0
  H  H540  1  0.973900  0.702000  0.501200  1.0
  H  H541  1  0.298000  0.472700  0.498800  1.0
  H  H542  1  0.472700  0.200800  0.498800  1.0
  H  H543  1  0.200800  0.026100  0.498800  1.0
  H  H544  1  0.026100  0.298000  0.498800  1.0
  H  H545  1  0.069000  0.553500  0.719800  1.0
  H  H546  1  0.553500  0.650800  0.719800  1.0
  H  H547  1  0.650800  0.166300  0.719800  1.0
  H  H548  1  0.166300  0.069000  0.719800  1.0
  H  H549  1  0.931000  0.446500  0.280200  1.0
  H  H550  1  0.446500  0.349200  0.280200  1.0
  H  H551  1  0.349200  0.833700  0.280200  1.0
  H  H552  1  0.833700  0.931000  0.280200  1.0
  H  H553  1  0.841100  0.543700  0.502800  1.0
  H  H554  1  0.543700  0.661700  0.502800  1.0
  H  H555  1  0.661700  0.959100  0.502800  1.0
  H  H556  1  0.959100  0.841100  0.502800  1.0
  H  H557  1  0.158900  0.456300  0.497200  1.0
  H  H558  1  0.456300  0.338300  0.497200  1.0
  H  H559  1  0.338300  0.040900  0.497200  1.0
  H  H560  1  0.040900  0.158900  0.497200  1.0
  H  H561  1  0.075500  0.545800  0.857200  1.0
  H  H562  1  0.545800  0.781700  0.857200  1.0
  H  H563  1  0.781700  0.311400  0.857200  1.0
  H  H564  1  0.311400  0.075500  0.857200  1.0
  H  H565  1  0.924500  0.454200  0.142800  1.0
  H  H566  1  0.454200  0.218300  0.142800  1.0
  H  H567  1  0.218300  0.688600  0.142800  1.0
  H  H568  1  0.688600  0.924500  0.142800  1.0
  H  H569  1  0.202500  0.708700  0.726600  1.0
  H  H570  1  0.708700  0.524100  0.726600  1.0
  H  H571  1  0.524100  0.017900  0.726600  1.0
  H  H572  1  0.017900  0.202500  0.726600  1.0
  H  H573  1  0.797500  0.291300  0.273400  1.0
  H  H574  1  0.291300  0.475900  0.273400  1.0
  H  H575  1  0.475900  0.982100  0.273400  1.0
  H  H576  1  0.982100  0.797500  0.273400  1.0
  H  H577  1  0.073200  0.468300  0.676800  1.0
  H  H578  1  0.468300  0.603600  0.676800  1.0
  H  H579  1  0.603600  0.208500  0.676800  1.0
  H  H580  1  0.208500  0.073200  0.676800  1.0
  H  H581  1  0.926800  0.531700  0.323200  1.0
  H  H582  1  0.531700  0.396400  0.323200  1.0
  H  H583  1  0.396400  0.791500  0.323200  1.0
  H  H584  1  0.791500  0.926800  0.323200  1.0
  H  H585  1  0.109900  0.437500  0.707600  1.0
  H  H586  1  0.437500  0.597700  0.707600  1.0
  H  H587  1  0.597700  0.270100  0.707600  1.0
  H  H588  1  0.270100  0.109900  0.707600  1.0
  H  H589  1  0.890100  0.562500  0.292400  1.0
  H  H590  1  0.562500  0.402300  0.292400  1.0
  H  H591  1  0.402300  0.729900  0.292400  1.0
  H  H592  1  0.729900  0.890100  0.292400  1.0
  H  H593  1  0.133200  0.504500  0.745600  1.0
  H  H594  1  0.504500  0.612400  0.745600  1.0
  H  H595  1  0.612400  0.241100  0.745600  1.0
  H  H596  1  0.241100  0.133200  0.745600  1.0
  H  H597  1  0.866800  0.495500  0.254400  1.0
  H  H598  1  0.495500  0.387600  0.254400  1.0
  H  H599  1  0.387600  0.758900  0.254400  1.0
  H  H600  1  0.758900  0.866800  0.254400  1.0
  H  H601  1  0.151800  0.518900  0.831000  1.0
  H  H602  1  0.518900  0.679200  0.831000  1.0
  H  H603  1  0.679200  0.312100  0.831000  1.0
  H  H604  1  0.312100  0.151800  0.831000  1.0
  H  H605  1  0.848200  0.481100  0.169000  1.0
  H  H606  1  0.481100  0.320800  0.169000  1.0
  H  H607  1  0.320800  0.687900  0.169000  1.0
  H  H608  1  0.687900  0.848200  0.169000  1.0
  H  H609  1  0.136600  0.451900  0.785400  1.0
  H  H610  1  0.451900  0.648800  0.785400  1.0
  H  H611  1  0.648800  0.333500  0.785400  1.0
  H  H612  1  0.333500  0.136600  0.785400  1.0
  H  H613  1  0.863400  0.548100  0.214600  1.0
  H  H614  1  0.548100  0.351200  0.214600  1.0
  H  H615  1  0.351200  0.666500  0.214600  1.0
  H  H616  1  0.666500  0.863400  0.214600  1.0
  H  H617  1  0.114300  0.477900  0.830600  1.0
  H  H618  1  0.477900  0.716300  0.830600  1.0
  H  H619  1  0.716300  0.352700  0.830600  1.0
  H  H620  1  0.352700  0.114300  0.830600  1.0
  H  H621  1  0.885700  0.522100  0.169400  1.0
  H  H622  1  0.522100  0.283700  0.169400  1.0
  H  H623  1  0.283700  0.647300  0.169400  1.0
  H  H624  1  0.647300  0.885700  0.169400  1.0
  H  H625  1  0.062300  0.405900  0.745200  1.0
  H  H626  1  0.405900  0.682900  0.745200  1.0
  H  H627  1  0.682900  0.339300  0.745200  1.0
  H  H628  1  0.339300  0.062300  0.745200  1.0
  H  H629  1  0.937700  0.594100  0.254800  1.0
  H  H630  1  0.594100  0.317100  0.254800  1.0
  H  H631  1  0.317100  0.660700  0.254800  1.0
  H  H632  1  0.660700  0.937700  0.254800  1.0
  H  H633  1  0.027900  0.395700  0.675600  1.0
  H  H634  1  0.395700  0.647700  0.675600  1.0
  H  H635  1  0.647700  0.279900  0.675600  1.0
  H  H636  1  0.279900  0.027900  0.675600  1.0
  H  H637  1  0.972100  0.604300  0.324400  1.0
  H  H638  1  0.604300  0.352300  0.324400  1.0
  H  H639  1  0.352300  0.720100  0.324400  1.0
  H  H640  1  0.720100  0.972100  0.324400  1.0
  H  H641  1  0.004600  0.419800  0.719800  1.0
  H  H642  1  0.419800  0.715200  0.719800  1.0
  H  H643  1  0.715200  0.300000  0.719800  1.0
  H  H644  1  0.300000  0.004600  0.719800  1.0
  H  H645  1  0.995400  0.580200  0.280200  1.0
  H  H646  1  0.580200  0.284800  0.280200  1.0
  H  H647  1  0.284800  0.700000  0.280200  1.0
  H  H648  1  0.700000  0.995400  0.280200  1.0
  H  H649  1  0.318500  0.694400  0.796400  1.0
  H  H650  1  0.694400  0.477900  0.796400  1.0
  H  H651  1  0.477900  0.102000  0.796400  1.0
  H  H652  1  0.102000  0.318500  0.796400  1.0
  H  H653  1  0.681500  0.305600  0.203600  1.0
  H  H654  1  0.305600  0.522100  0.203600  1.0
  H  H655  1  0.522100  0.898000  0.203600  1.0
  H  H656  1  0.898000  0.681500  0.203600  1.0
  H  H657  1  0.330900  0.682600  0.744200  1.0
  H  H658  1  0.682600  0.413300  0.744200  1.0
  H  H659  1  0.413300  0.061600  0.744200  1.0
  H  H660  1  0.061600  0.330900  0.744200  1.0
  H  H661  1  0.669100  0.317400  0.255800  1.0
  H  H662  1  0.317400  0.586700  0.255800  1.0
  H  H663  1  0.586700  0.938400  0.255800  1.0
  H  H664  1  0.938400  0.669100  0.255800  1.0
  H  H665  1  0.267200  0.668300  0.722800  1.0
  H  H666  1  0.668300  0.455600  0.722800  1.0
  H  H667  1  0.455600  0.054500  0.722800  1.0
  H  H668  1  0.054500  0.267200  0.722800  1.0
  H  H669  1  0.732800  0.331700  0.277200  1.0
  H  H670  1  0.331700  0.544400  0.277200  1.0
  H  H671  1  0.544400  0.945500  0.277200  1.0
  H  H672  1  0.945500  0.732800  0.277200  1.0
  H  H673  1  0.390200  0.768000  0.804800  1.0
  H  H674  1  0.768000  0.414600  0.804800  1.0
  H  H675  1  0.414600  0.036800  0.804800  1.0
  H  H676  1  0.036800  0.390200  0.804800  1.0
  H  H677  1  0.609800  0.232000  0.195200  1.0
  H  H678  1  0.232000  0.585400  0.195200  1.0
  H  H679  1  0.585400  0.963200  0.195200  1.0
  H  H680  1  0.963200  0.609800  0.195200  1.0
  H  H681  1  0.374000  0.817600  0.846200  1.0
  H  H682  1  0.817600  0.472200  0.846200  1.0
  H  H683  1  0.472200  0.028600  0.846200  1.0
  H  H684  1  0.028600  0.374000  0.846200  1.0
  H  H685  1  0.626000  0.182400  0.153800  1.0
  H  H686  1  0.182400  0.527800  0.153800  1.0
  H  H687  1  0.527800  0.971400  0.153800  1.0
  H  H688  1  0.971400  0.626000  0.153800  1.0
  H  H689  1  0.353700  0.799700  0.775400  1.0
  H  H690  1  0.799700  0.421700  0.775400  1.0
  H  H691  1  0.421700  0.975700  0.775400  1.0
  H  H692  1  0.975700  0.353700  0.775400  1.0
  H  H693  1  0.646300  0.200300  0.224600  1.0
  H  H694  1  0.200300  0.578300  0.224600  1.0
  H  H695  1  0.578300  0.024300  0.224600  1.0
  H  H696  1  0.024300  0.646300  0.224600  1.0
  H  H697  1  0.284800  0.766600  0.712000  1.0
  H  H698  1  0.766600  0.427200  0.712000  1.0
  H  H699  1  0.427200  0.945400  0.712000  1.0
  H  H700  1  0.945400  0.284800  0.712000  1.0
  H  H701  1  0.715200  0.233400  0.288000  1.0
  H  H702  1  0.233400  0.572800  0.288000  1.0
  H  H703  1  0.572800  0.054600  0.288000  1.0
  H  H704  1  0.054600  0.715200  0.288000  1.0
  H  H705  1  0.249300  0.703100  0.676800  1.0
  H  H706  1  0.703100  0.427500  0.676800  1.0
  H  H707  1  0.427500  0.973700  0.676800  1.0
  H  H708  1  0.973700  0.249300  0.676800  1.0
  H  H709  1  0.750700  0.296900  0.323200  1.0
  H  H710  1  0.296900  0.572500  0.323200  1.0
  H  H711  1  0.572500  0.026300  0.323200  1.0
  H  H712  1  0.026300  0.750700  0.323200  1.0
  H  H713  1  0.312900  0.718000  0.698000  1.0
  H  H714  1  0.718000  0.385100  0.698000  1.0
  H  H715  1  0.385100  0.980000  0.698000  1.0
  H  H716  1  0.980000  0.312900  0.698000  1.0
  H  H717  1  0.687100  0.282000  0.302000  1.0
  H  H718  1  0.282000  0.614900  0.302000  1.0
  H  H719  1  0.614900  0.020000  0.302000  1.0
  H  H720  1  0.020000  0.687100  0.302000  1.0
  H  H721  1  0.653300  0.486600  0.395400  1.0
  H  H722  1  0.486600  0.742100  0.395400  1.0
  H  H723  1  0.742100  0.908800  0.395400  1.0
  H  H724  1  0.908800  0.653300  0.395400  1.0
  H  H725  1  0.346700  0.513400  0.604600  1.0
  H  H726  1  0.513400  0.257900  0.604600  1.0
  H  H727  1  0.257900  0.091200  0.604600  1.0
  H  H728  1  0.091200  0.346700  0.604600  1.0
  H  H729  1  0.649800  0.434000  0.335000  1.0
  H  H730  1  0.434000  0.685200  0.335000  1.0
  H  H731  1  0.685200  0.901000  0.335000  1.0
  H  H732  1  0.901000  0.649800  0.335000  1.0
  H  H733  1  0.350200  0.566000  0.665000  1.0
  H  H734  1  0.566000  0.314800  0.665000  1.0
  H  H735  1  0.314800  0.099000  0.665000  1.0
  H  H736  1  0.099000  0.350200  0.665000  1.0
  H  H737  1  0.682600  0.496900  0.365400  1.0
  H  H738  1  0.496900  0.682800  0.365400  1.0
  H  H739  1  0.682800  0.868500  0.365400  1.0
  H  H740  1  0.868500  0.682600  0.365400  1.0
  H  H741  1  0.317400  0.503100  0.634600  1.0
  H  H742  1  0.503100  0.317200  0.634600  1.0
  H  H743  1  0.317200  0.131500  0.634600  1.0
  H  H744  1  0.131500  0.317400  0.634600  1.0
  H  H745  1  0.684200  0.434200  0.442600  1.0
  H  H746  1  0.434200  0.758400  0.442600  1.0
  H  H747  1  0.758400  0.008400  0.442600  1.0
  H  H748  1  0.008400  0.684200  0.442600  1.0
  H  H749  1  0.315800  0.565800  0.557400  1.0
  H  H750  1  0.565800  0.241600  0.557400  1.0
  H  H751  1  0.241600  0.991600  0.557400  1.0
  H  H752  1  0.991600  0.315800  0.557400  1.0
  H  H753  1  0.744900  0.426200  0.466400  1.0
  H  H754  1  0.426200  0.721500  0.466400  1.0
  H  H755  1  0.721500  0.040200  0.466400  1.0
  H  H756  1  0.040200  0.744900  0.466400  1.0
  H  H757  1  0.255100  0.573800  0.533600  1.0
  H  H758  1  0.573800  0.278500  0.533600  1.0
  H  H759  1  0.278500  0.959800  0.533600  1.0
  H  H760  1  0.959800  0.255100  0.533600  1.0
  H  H761  1  0.693900  0.387300  0.391000  1.0
  H  H762  1  0.387300  0.697100  0.391000  1.0
  H  H763  1  0.697100  0.003700  0.391000  1.0
  H  H764  1  0.003700  0.693900  0.391000  1.0
  H  H765  1  0.306100  0.612700  0.609000  1.0
  H  H766  1  0.612700  0.302900  0.609000  1.0
  H  H767  1  0.302900  0.996300  0.609000  1.0
  H  H768  1  0.996300  0.306100  0.609000  1.0
  H  H769  1  0.752500  0.437900  0.361000  1.0
  H  H770  1  0.437900  0.608500  0.361000  1.0
  H  H771  1  0.608500  0.923100  0.361000  1.0
  H  H772  1  0.923100  0.752500  0.361000  1.0
  H  H773  1  0.247500  0.562100  0.639000  1.0
  H  H774  1  0.562100  0.391500  0.639000  1.0
  H  H775  1  0.391500  0.076900  0.639000  1.0
  H  H776  1  0.076900  0.247500  0.639000  1.0
  H  H777  1  0.772700  0.415600  0.406200  1.0
  H  H778  1  0.415600  0.633500  0.406200  1.0
  H  H779  1  0.633500  0.990600  0.406200  1.0
  H  H780  1  0.990600  0.772700  0.406200  1.0
  H  H781  1  0.227300  0.584400  0.593800  1.0
  H  H782  1  0.584400  0.366500  0.593800  1.0
  H  H783  1  0.366500  0.009400  0.593800  1.0
  H  H784  1  0.009400  0.227300  0.593800  1.0
  H  H785  1  0.804500  0.478700  0.436000  1.0
  H  H786  1  0.478700  0.631500  0.436000  1.0
  H  H787  1  0.631500  0.957300  0.436000  1.0
  H  H788  1  0.957300  0.804500  0.436000  1.0
  H  H789  1  0.195500  0.521300  0.564000  1.0
  H  H790  1  0.521300  0.368500  0.564000  1.0
  H  H791  1  0.368500  0.042700  0.564000  1.0
  H  H792  1  0.042700  0.195500  0.564000  1.0
  O  O793  1  0.198300  0.023300  0.000000  1
  O  O794  1  0.023300  0.801700  0.000000  1
  O  O795  1  0.801700  0.976700  1.000000  1
  O  O796  1  0.976700  0.198300  0.000000  1
  O  O797  1  0.010700  0.813900  0.803000  1
  O  O798  1  0.813900  0.792300  0.803000  1
  O  O799  1  0.792300  0.989100  0.803000  1
  O  O800  1  0.989100  0.010700  0.803000  1
  O  O801  1  0.989300  0.186100  0.197000  1
  O  O802  1  0.186100  0.207700  0.197000  1
  O  O803  1  0.207700  0.010900  0.197000  1
  O  O804  1  0.010900  0.989300  0.197000  1
  O  O805  1  0.442900  0.038600  1.000000  1.0
  O  O806  1  0.038600  0.557100  1.000000  1.0
  O  O807  1  0.557100  0.961400  1.000000  1.0
  O  O808  1  0.961400  0.442900  1.000000  1.0
  O  O809  1  0.039100  0.684700  0.930420  1.0
  O  O810  1  0.684700  0.891320  0.930420  1.0
  O  O811  1  0.891320  0.245720  0.930420  1.0
  O  O812  1  0.245720  0.039100  0.930420  1.0
  O  O813  1  0.960900  0.315300  0.069580  1.0
  O  O814  1  0.315300  0.108680  0.069580  1.0
  O  O815  1  0.108680  0.754280  0.069580  1.0
  O  O816  1  0.754280  0.960900  0.069580  1.0
  O  O817  1  0.931970  0.689140  0.668280  1.0
  O  O818  1  0.689140  0.736310  0.668280  1.0
  O  O819  1  0.736310  0.979140  0.668280  1.0
  O  O820  1  0.979140  0.931970  0.668280  1.0
  O  O821  1  0.068030  0.310860  0.331720  1.0
  O  O822  1  0.310860  0.263690  0.331720  1.0
  O  O823  1  0.263690  0.020860  0.331720  1.0
  O  O824  1  0.020860  0.068030  0.331720  1.0
  O  O825  1  0.764360  0.673370  0.667580  1.0
  O  O826  1  0.673370  0.903220  0.667580  1.0
  O  O827  1  0.903220  0.994210  0.667580  1.0
  O  O828  1  0.994210  0.764360  0.667580  1.0
  O  O829  1  0.235640  0.326630  0.332420  1.0
  O  O830  1  0.326630  0.096780  0.332420  1.0
  O  O831  1  0.096780  0.005790  0.332420  1.0
  O  O832  1  0.005790  0.235640  0.332420  1.0
  O  O833  1  0.094920  0.768280  0.764200  1.0
  O  O834  1  0.768280  0.669280  0.764200  1.0
  O  O835  1  0.669280  0.995920  0.764200  1.0
  O  O836  1  0.995920  0.094920  0.764200  1.0
  O  O837  1  0.905080  0.231720  0.235800  1.0
  O  O838  1  0.231720  0.330720  0.235800  1.0
  O  O839  1  0.330720  0.004080  0.235800  1.0
  O  O840  1  0.004080  0.905080  0.235800  1.0
  O  O841  1  0.031970  0.693780  0.764440  1.0
  O  O842  1  0.693780  0.732470  0.764440  1.0
  O  O843  1  0.732470  0.070660  0.764440  1.0
  O  O844  1  0.070660  0.031970  0.764440  1.0
  O  O845  1  0.968030  0.306220  0.235560  1.0
  O  O846  1  0.306220  0.267530  0.235560  1.0
  O  O847  1  0.267530  0.929340  0.235560  1.0
  O  O848  1  0.929340  0.968030  0.235560  1.0
  O  O849  1  0.254300  0.943300  0.931660  1.0
  O  O850  1  0.943300  0.677360  0.931660  1.0
  O  O851  1  0.677360  0.988360  0.931660  1.0
  O  O852  1  0.988360  0.254300  0.931660  1.0
  O  O853  1  0.745700  0.056700  0.068340  1.0
  O  O854  1  0.056700  0.322640  0.068340  1.0
  O  O855  1  0.322640  0.011640  0.068340  1.0
  O  O856  1  0.011640  0.745700  0.068340  1.0
  O  O857  1  0.046490  0.607240  0.929980  1.0
  O  O858  1  0.607240  0.883490  0.929980  1.0
  O  O859  1  0.883490  0.322740  0.929980  1.0
  O  O860  1  0.322740  0.046490  0.929980  1.0
  O  O861  1  0.953510  0.392760  0.070020  1.0
  O  O862  1  0.392760  0.116510  0.070020  1.0
  O  O863  1  0.116510  0.677260  0.070020  1.0
  O  O864  1  0.677260  0.953510  0.070020  1.0
  O  O865  1  0.036010  0.619410  0.686420  1.0
  O  O866  1  0.619410  0.650410  0.686420  1.0
  O  O867  1  0.650410  0.067010  0.686420  1.0
  O  O868  1  0.067010  0.036010  0.686420  1.0
  O  O869  1  0.963990  0.380590  0.313580  1.0
  O  O870  1  0.380590  0.349590  0.313580  1.0
  O  O871  1  0.349590  0.932990  0.313580  1.0
  O  O872  1  0.932990  0.963990  0.313580  1.0
  O  O873  1  0.332430  0.949880  0.932560  1.0
  O  O874  1  0.949880  0.600130  0.932560  1.0
  O  O875  1  0.600130  0.982680  0.932560  1.0
  O  O876  1  0.982680  0.332430  0.932560  1.0
  O  O877  1  0.667570  0.050120  0.067440  1.0
  O  O878  1  0.050120  0.399870  0.067440  1.0
  O  O879  1  0.399870  0.017320  0.067440  1.0
  O  O880  1  0.017320  0.667570  0.067440  1.0
  O  O881  1  0.099910  0.694250  0.687900  1.0
  O  O882  1  0.694250  0.587990  0.687900  1.0
  O  O883  1  0.587990  0.993650  0.687900  1.0
  O  O884  1  0.993650  0.099910  0.687900  1.0
  O  O885  1  0.900090  0.305750  0.312100  1.0
  O  O886  1  0.305750  0.412010  0.312100  1.0
  O  O887  1  0.412010  0.006350  0.312100  1.0
  O  O888  1  0.006350  0.900090  0.312100  1.0
  O  O889  1  0.690740  0.591740  0.589280  1.0
  O  O890  1  0.591740  0.898540  0.589280  1.0
  O  O891  1  0.898540  0.997540  0.589280  1.0
  O  O892  1  0.997540  0.690740  0.589280  1.0
  O  O893  1  0.309260  0.408260  0.410720  1.0
  O  O894  1  0.408260  0.101460  0.410720  1.0
  O  O895  1  0.101460  0.002460  0.410720  1.0
  O  O896  1  0.002460  0.309260  0.410720  1.0
  O  O897  1  0.934380  0.615680  0.589760  1.0
  O  O898  1  0.615680  0.655380  0.589760  1.0
  O  O899  1  0.655380  0.974080  0.589760  1.0
  O  O900  1  0.974080  0.934380  0.589760  1.0
  O  O901  1  0.065620  0.384320  0.410240  1.0
  O  O902  1  0.384320  0.344620  0.410240  1.0
  O  O903  1  0.344620  0.025920  0.410240  1.0
  O  O904  1  0.025920  0.065620  0.410240  1.0
  O  O905  1  0.020100  0.578000  0.557600  1.0
  O  O906  1  0.578000  0.537500  0.557600  1.0
  O  O907  1  0.537500  0.979600  0.557600  1.0
  O  O908  1  0.979600  0.020100  0.557600  1.0
  O  O909  1  0.979900  0.422000  0.442400  1.0
  O  O910  1  0.422000  0.462500  0.442400  1.0
  O  O911  1  0.462500  0.020400  0.442400  1.0
  O  O912  1  0.020400  0.979900  0.442400  1.0
  Zn  Zn913  1  0.013250  0.730440  0.718020  0.1111111111111111
  Pd  Pd914  1  0.013250  0.730440  0.718020  0.8888888888888888
  Zn  Zn915  1  0.730440  0.704770  0.718020  0.1111111111111111
  Pd  Pd916  1  0.730440  0.704770  0.718020  0.8888888888888888
  Zn  Zn917  1  0.704770  0.987580  0.718020  0.1111111111111111
  Pd  Pd918  1  0.704770  0.987580  0.718020  0.8888888888888888
  Zn  Zn919  1  0.987580  0.013250  0.718020  0.1111111111111111
  Pd  Pd920  1  0.987580  0.013250  0.718020  0.8888888888888888
  Zn  Zn921  1  0.986750  0.269560  0.281980  0.1111111111111111
  Pd  Pd922  1  0.986750  0.269560  0.281980  0.8888888888888888
  Zn  Zn923  1  0.269560  0.295230  0.281980  0.1111111111111111
  Pd  Pd924  1  0.269560  0.295230  0.281980  0.8888888888888888
  Zn  Zn925  1  0.295230  0.012420  0.281980  0.1111111111111111
  Pd  Pd926  1  0.295230  0.012420  0.281980  0.8888888888888888
  Zn  Zn927  1  0.012420  0.986750  0.281980  0.1111111111111111
  Pd  Pd928  1  0.012420  0.986750  0.281980  0.8888888888888888
  Zn  Zn929  1  0.282280  0.025070  0.000000  0.2
  Pd  Pd930  1  0.282280  0.025070  0.000000  0.8
  Zn  Zn931  1  0.025070  0.717720  1.000000  0.2
  Pd  Pd932  1  0.025070  0.717720  1.000000  0.8
  Zn  Zn933  1  0.717720  0.974930  1.000000  0.2
  Pd  Pd934  1  0.717720  0.974930  1.000000  0.8
  Zn  Zn935  1  0.974930  0.282280  0.000000  0.2
  Pd  Pd936  1  0.974930  0.282280  0.000000  0.8
  Zn  Zn937  1  0.370420  0.032970  0.000000  0.8
  Pd  Pd938  1  0.370420  0.032970  0.000000  0.2
  Zn  Zn939  1  0.032970  0.629580  0.000000  0.8
  Pd  Pd940  1  0.032970  0.629580  0.000000  0.2
  Zn  Zn941  1  0.629580  0.967030  1.000000  0.8
  Pd  Pd942  1  0.629580  0.967030  1.000000  0.2
  Zn  Zn943  1  0.967030  0.370420  1.000000  0.8
  Pd  Pd944  1  0.967030  0.370420  1.000000  0.2
  Zn  Zn945  1  0.017450  0.646710  0.630120  0.8888888888888888
  Pd  Pd946  1  0.017450  0.646710  0.630120  0.1111111111111111
  Zn  Zn947  1  0.646710  0.612670  0.630120  0.8888888888888888
  Pd  Pd948  1  0.646710  0.612670  0.630120  0.1111111111111111
  Zn  Zn949  1  0.612670  0.983410  0.630120  0.8888888888888888
  Pd  Pd950  1  0.612670  0.983410  0.630120  0.1111111111111111
  Zn  Zn951  1  0.983410  0.017450  0.630120  0.8888888888888888
  Pd  Pd952  1  0.983410  0.017450  0.630120  0.1111111111111111
  Zn  Zn953  1  0.982550  0.353290  0.369880  0.8888888888888888
  Pd  Pd954  1  0.982550  0.353290  0.369880  0.1111111111111111
  Zn  Zn955  1  0.353290  0.387330  0.369880  0.8888888888888888
  Pd  Pd956  1  0.353290  0.387330  0.369880  0.1111111111111111
  Zn  Zn957  1  0.387330  0.016590  0.369880  0.8888888888888888
  Pd  Pd958  1  0.387330  0.016590  0.369880  0.1111111111111111
  Zn  Zn959  1  0.016590  0.982550  0.369880  0.8888888888888888
  Pd  Pd960  1  0.016590  0.982550  0.369880  0.1111111111111111
