# generated using pymatgen
data_Fe4Ni6PH168C207N49F6
_symmetry_space_group_name_H-M   'P 1'
_cell_length_a   19.57400000
_cell_length_b   19.57400000
_cell_length_c   35.07500000
_cell_angle_alpha   90.00000000
_cell_angle_beta   90.00000000
_cell_angle_gamma   120.00000000
_symmetry_Int_Tables_number   1
_chemical_formula_structural   Fe4Ni6PH168C207N49F6
_chemical_formula_sum   'Fe8 Ni12 P2 H336 C414 N98 F12'
_cell_volume   11638.24456994
_cell_formula_units_Z   2
loop_
 _symmetry_equiv_pos_site_id
 _symmetry_equiv_pos_as_xyz
  1  'x, y, z'
loop_
 _atom_site_type_symbol
 _atom_site_label
 _atom_site_symmetry_multiplicity
 _atom_site_fract_x
 _atom_site_fract_y
 _atom_site_fract_z
 _atom_site_occupancy
  Fe  Fe1  1  0.333333  0.666667  0.929870  1
  Fe  Fe2  1  0.000000  0.000000  0.769410  1
  Fe  Fe3  1  0.061180  0.432330  0.131700  1.0
  Fe  Fe4  1  0.371150  0.938820  0.131700  1.0
  Fe  Fe5  1  0.567670  0.628850  0.131700  1.0
  Fe  Fe6  1  0.766010  0.728550  0.567360  1.0
  Fe  Fe7  1  0.962540  0.233990  0.567360  1.0
  Fe  Fe8  1  0.271450  0.037460  0.567360  1.0
  Ni  Ni9  1  0.082910  0.449860  0.987460  1.0
  Ni  Ni10  1  0.366950  0.917090  0.987460  1.0
  Ni  Ni11  1  0.550140  0.633050  0.987460  1.0
  Ni  Ni12  1  0.115870  0.700410  0.176120  1.0
  Ni  Ni13  1  0.584540  0.884130  0.176120  1.0
  Ni  Ni14  1  0.299590  0.415460  0.176120  1.0
  Ni  Ni15  1  0.782790  0.749320  0.711520  1.0
  Ni  Ni16  1  0.966530  0.217210  0.711520  1.0
  Ni  Ni17  1  0.250680  0.033470  0.711520  1.0
  Ni  Ni18  1  0.033980  0.782510  0.523160  1.0
  Ni  Ni19  1  0.748530  0.966020  0.523160  1.0
  Ni  Ni20  1  0.217490  0.251470  0.523160  1.0
  P  P21  1  0.666667  0.333333  0.721100  1
  P  P22  1  0.666667  0.333333  0.978200  1
  H  H23  1  0.953900  0.181800  0.003100  1.0
  H  H24  1  0.227900  0.046100  0.003100  1.0
  H  H25  1  0.818200  0.772100  0.003100  1.0
  H  H26  1  0.917700  0.091500  0.950900  1.0
  H  H27  1  0.173800  0.082300  0.950900  1.0
  H  H28  1  0.908500  0.826200  0.950900  1.0
  H  H29  1  0.825100  0.082800  0.906100  1.0
  H  H30  1  0.257700  0.174900  0.906100  1.0
  H  H31  1  0.917200  0.742300  0.906100  1.0
  H  H32  1  0.792800  0.178200  0.904700  1.0
  H  H33  1  0.385400  0.207200  0.904700  1.0
  H  H34  1  0.821800  0.614600  0.904700  1.0
  H  H35  1  0.831300  0.274100  0.949900  1.0
  H  H36  1  0.442800  0.168700  0.949900  1.0
  H  H37  1  0.725900  0.557200  0.949900  1.0
  H  H38  1  0.961500  0.294100  0.029700  1.0
  H  H39  1  0.332600  0.038500  0.029700  1.0
  H  H40  1  0.705900  0.667400  0.029700  1.0
  H  H41  1  0.865200  0.315400  0.059900  1.0
  H  H42  1  0.450200  0.134800  0.059900  1.0
  H  H43  1  0.684600  0.549800  0.059900  1.0
  H  H44  1  0.829400  0.224100  0.049500  1.0
  H  H45  1  0.394700  0.170600  0.049500  1.0
  H  H46  1  0.775900  0.605300  0.049500  1.0
  H  H47  1  0.808300  0.278600  0.023700  1.0
  H  H48  1  0.470300  0.191700  0.023700  1.0
  H  H49  1  0.721400  0.529700  0.023700  1.0
  H  H50  1  0.870000  0.393100  0.002500  1.0
  H  H51  1  0.523100  0.130000  0.002500  1.0
  H  H52  1  0.606900  0.476900  0.002500  1.0
  H  H53  1  0.874200  0.516600  0.983900  1.0
  H  H54  1  0.642400  0.125800  0.983900  1.0
  H  H55  1  0.483400  0.357600  0.983900  1.0
  H  H56  1  0.945900  0.649300  0.969400  1.0
  H  H57  1  0.703400  0.054100  0.969400  1.0
  H  H58  1  0.350700  0.296600  0.969400  1.0
  H  H59  1  0.087600  0.713000  0.967100  1.0
  H  H60  1  0.625400  0.912400  0.967100  1.0
  H  H61  1  0.287000  0.374600  0.967100  1.0
  H  H62  1  0.140600  0.629200  0.969900  1.0
  H  H63  1  0.488600  0.859400  0.969900  1.0
  H  H64  1  0.370800  0.511400  0.969900  1.0
  H  H65  1  0.937400  0.343200  0.897900  1.0
  H  H66  1  0.405800  0.062600  0.897900  1.0
  H  H67  1  0.656800  0.594200  0.897900  1.0
  H  H68  1  0.814100  0.334700  0.894300  1.0
  H  H69  1  0.520600  0.185900  0.894300  1.0
  H  H70  1  0.665300  0.479400  0.894300  1.0
  H  H71  1  0.805900  0.449300  0.887300  1.0
  H  H72  1  0.643400  0.194100  0.887300  1.0
  H  H73  1  0.550700  0.356600  0.887300  1.0
  H  H74  1  0.921200  0.572500  0.883900  1.0
  H  H75  1  0.651300  0.078800  0.883900  1.0
  H  H76  1  0.427500  0.348700  0.883900  1.0
  H  H77  1  0.044600  0.581000  0.887500  1.0
  H  H78  1  0.536400  0.955400  0.887500  1.0
  H  H79  1  0.419000  0.463600  0.887500  1.0
  H  H80  1  0.118900  0.530900  0.902500  1.0
  H  H81  1  0.412000  0.881100  0.902500  1.0
  H  H82  1  0.469100  0.588000  0.902500  1.0
  H  H83  1  0.163400  0.467100  0.862200  1.0
  H  H84  1  0.303700  0.836600  0.862200  1.0
  H  H85  1  0.532900  0.696300  0.862200  1.0
  H  H86  1  0.109600  0.492800  0.838900  1.0
  H  H87  1  0.383200  0.890400  0.838900  1.0
  H  H88  1  0.507200  0.616800  0.838900  1.0
  H  H89  1  0.074500  0.402800  0.851600  1.0
  H  H90  1  0.328300  0.925500  0.851600  1.0
  H  H91  1  0.597200  0.671700  0.851600  1.0
  H  H92  1  0.108700  0.356000  0.898000  1.0
  H  H93  1  0.247300  0.891300  0.898000  1.0
  H  H94  1  0.644000  0.752700  0.898000  1.0
  H  H95  1  0.121900  0.242900  0.928800  1.0
  H  H96  1  0.121000  0.878100  0.928800  1.0
  H  H97  1  0.757100  0.879000  0.928800  1.0
  H  H98  1  0.142200  0.186600  0.985200  1.0
  H  H99  1  0.044400  0.857800  0.985200  1.0
  H  H100  1  0.813400  0.955600  0.985200  1.0
  H  H101  1  0.141100  0.242300  0.041200  1.0
  H  H102  1  0.101200  0.858900  0.041200  1.0
  H  H103  1  0.757700  0.898800  0.041200  1.0
  H  H104  1  0.115500  0.342400  0.046700  1.0
  H  H105  1  0.226900  0.884500  0.046700  1.0
  H  H106  1  0.657600  0.773100  0.046700  1.0
  H  H107  1  0.844900  0.536200  0.142900  1.0
  H  H108  1  0.691300  0.155100  0.142900  1.0
  H  H109  1  0.463800  0.308700  0.142900  1.0
  H  H110  1  0.762500  0.589700  0.134400  1.0
  H  H111  1  0.827200  0.237500  0.134400  1.0
  H  H112  1  0.410300  0.172800  0.134400  1.0
  H  H113  1  0.763800  0.679400  0.178900  1.0
  H  H114  1  0.915600  0.236200  0.178900  1.0
  H  H115  1  0.320600  0.084400  0.178900  1.0
  H  H116  1  0.847600  0.715700  0.231900  1.0
  H  H117  1  0.868100  0.152400  0.231900  1.0
  H  H118  1  0.284300  0.131900  0.231900  1.0
  H  H119  1  0.930000  0.662200  0.240300  1.0
  H  H120  1  0.732200  0.070000  0.240300  1.0
  H  H121  1  0.337800  0.267800  0.240300  1.0
  H  H122  1  0.947700  0.535200  0.168400  1.0
  H  H123  1  0.587500  0.052300  0.168400  1.0
  H  H124  1  0.464800  0.412500  0.168400  1.0
  H  H125  1  0.932700  0.454300  0.224100  1.0
  H  H126  1  0.521600  0.067300  0.224100  1.0
  H  H127  1  0.545700  0.478400  0.224100  1.0
  H  H128  1  0.849000  0.444300  0.212800  1.0
  H  H129  1  0.595300  0.151000  0.212800  1.0
  H  H130  1  0.555700  0.404700  0.212800  1.0
  H  H131  1  0.897500  0.499500  0.247900  1.0
  H  H132  1  0.602000  0.102500  0.247900  1.0
  H  H133  1  0.500500  0.398000  0.247900  1.0
  H  H134  1  0.007400  0.565000  0.253800  1.0
  H  H135  1  0.557600  0.992600  0.253800  1.0
  H  H136  1  0.435000  0.442400  0.253800  1.0
  H  H137  1  0.129400  0.621900  0.307200  1.0
  H  H138  1  0.492500  0.870600  0.307200  1.0
  H  H139  1  0.378100  0.507500  0.307200  1.0
  H  H140  1  0.262700  0.709800  0.320000  1.0
  H  H141  1  0.447100  0.737300  0.320000  1.0
  H  H142  1  0.290200  0.552900  0.320000  1.0
  H  H143  1  0.343300  0.798100  0.272900  1.0
  H  H144  1  0.454800  0.656700  0.272900  1.0
  H  H145  1  0.201900  0.545200  0.272900  1.0
  H  H146  1  0.290700  0.798600  0.213100  1.0
  H  H147  1  0.507900  0.709300  0.213100  1.0
  H  H148  1  0.201400  0.492100  0.213100  1.0
  H  H149  1  0.003400  0.795200  0.235200  1.0
  H  H150  1  0.791800  0.996600  0.235200  1.0
  H  H151  1  0.204800  0.208200  0.235200  1.0
  H  H152  1  0.951100  0.757600  0.296600  1.0
  H  H153  1  0.806500  0.048900  0.296600  1.0
  H  H154  1  0.242400  0.193500  0.296600  1.0
  H  H155  1  0.035100  0.780400  0.348400  1.0
  H  H156  1  0.745300  0.964900  0.348400  1.0
  H  H157  1  0.219600  0.254700  0.348400  1.0
  H  H158  1  0.171400  0.840800  0.338900  1.0
  H  H159  1  0.669400  0.828600  0.338900  1.0
  H  H160  1  0.159200  0.330600  0.338900  1.0
  H  H161  1  0.223700  0.878400  0.277500  1.0
  H  H162  1  0.654700  0.776300  0.277500  1.0
  H  H163  1  0.121600  0.345300  0.277500  1.0
  H  H164  1  0.203800  0.874600  0.216700  1.0
  H  H165  1  0.670800  0.796200  0.216700  1.0
  H  H166  1  0.125400  0.329200  0.216700  1.0
  H  H167  1  0.186000  0.955700  0.182000  1.0
  H  H168  1  0.769700  0.814000  0.182000  1.0
  H  H169  1  0.044300  0.230300  0.182000  1.0
  H  H170  1  0.194200  0.979300  0.226100  1.0
  H  H171  1  0.785100  0.805800  0.226100  1.0
  H  H172  1  0.020700  0.214900  0.226100  1.0
  H  H173  1  0.109400  0.937800  0.206100  1.0
  H  H174  1  0.828400  0.890600  0.206100  1.0
  H  H175  1  0.062200  0.171600  0.206100  1.0
  H  H176  1  0.049000  0.852400  0.168600  1.0
  H  H177  1  0.803400  0.951000  0.168600  1.0
  H  H178  1  0.147600  0.196600  0.168600  1.0
  H  H179  1  0.963600  0.802100  0.106600  1.0
  H  H180  1  0.838500  0.036400  0.106600  1.0
  H  H181  1  0.197900  0.161500  0.106600  1.0
  H  H182  1  0.916800  0.711100  0.056500  1.0
  H  H183  1  0.794300  0.083200  0.056500  1.0
  H  H184  1  0.288900  0.205700  0.056500  1.0
  H  H185  1  0.948600  0.610800  0.053900  1.0
  H  H186  1  0.662200  0.051400  0.053900  1.0
  H  H187  1  0.389200  0.337800  0.053900  1.0
  H  H188  1  0.027400  0.601600  0.101500  1.0
  H  H189  1  0.574200  0.972600  0.101500  1.0
  H  H190  1  0.398400  0.425800  0.101500  1.0
  H  H191  1  0.679000  0.605400  0.800400  1.0
  H  H192  1  0.926400  0.321000  0.800400  1.0
  H  H193  1  0.394600  0.073600  0.800400  1.0
  H  H194  1  0.670200  0.482000  0.805300  1.0
  H  H195  1  0.811800  0.329800  0.805300  1.0
  H  H196  1  0.518000  0.188200  0.805300  1.0
  H  H197  1  0.784400  0.473700  0.813400  1.0
  H  H198  1  0.689300  0.215600  0.813400  1.0
  H  H199  1  0.526300  0.310700  0.813400  1.0
  H  H200  1  0.907700  0.588900  0.816600  1.0
  H  H201  1  0.681200  0.092300  0.816600  1.0
  H  H202  1  0.411100  0.318800  0.816600  1.0
  H  H203  1  0.916500  0.712300  0.811800  1.0
  H  H204  1  0.795800  0.083500  0.811800  1.0
  H  H205  1  0.287700  0.204200  0.811800  1.0
  H  H206  1  0.859800  0.785900  0.795500  1.0
  H  H207  1  0.926100  0.140200  0.795500  1.0
  H  H208  1  0.214100  0.073900  0.795500  1.0
  H  H209  1  0.796900  0.830700  0.836900  1.0
  H  H210  1  0.033800  0.203100  0.836900  1.0
  H  H211  1  0.169300  0.966200  0.836900  1.0
  H  H212  1  0.834600  0.785600  0.858700  1.0
  H  H213  1  0.951000  0.165400  0.858700  1.0
  H  H214  1  0.214400  0.049000  0.858700  1.0
  H  H215  1  0.741400  0.742200  0.851500  1.0
  H  H216  1  0.000800  0.258600  0.851500  1.0
  H  H217  1  0.257800  0.999200  0.851500  1.0
  H  H218  1  0.689000  0.779200  0.799100  1.0
  H  H219  1  0.090200  0.311000  0.799100  1.0
  H  H220  1  0.220800  0.909800  0.799100  1.0
  H  H221  1  0.578200  0.786100  0.769400  1.0
  H  H222  1  0.207900  0.421800  0.769400  1.0
  H  H223  1  0.213900  0.792100  0.769400  1.0
  H  H224  1  0.517800  0.806500  0.718200  1.0
  H  H225  1  0.288700  0.482200  0.718200  1.0
  H  H226  1  0.193500  0.711300  0.718200  1.0
  H  H227  1  0.572500  0.806600  0.657700  1.0
  H  H228  1  0.234100  0.427500  0.657700  1.0
  H  H229  1  0.193400  0.765900  0.657700  1.0
  H  H230  1  0.674100  0.777000  0.652800  1.0
  H  H231  1  0.102900  0.325900  0.652800  1.0
  H  H232  1  0.223000  0.897100  0.652800  1.0
  H  H233  1  0.515100  0.622700  0.696000  1.0
  H  H234  1  0.107600  0.484900  0.696000  1.0
  H  H235  1  0.377300  0.892400  0.696000  1.0
  H  H236  1  0.416500  0.574000  0.748600  1.0
  H  H237  1  0.157500  0.583500  0.748600  1.0
  H  H238  1  0.426000  0.842500  0.748600  1.0
  H  H239  1  0.423900  0.494100  0.794600  1.0
  H  H240  1  0.070200  0.576100  0.794600  1.0
  H  H241  1  0.505900  0.929800  0.794600  1.0
  H  H242  1  0.513800  0.451300  0.793300  1.0
  H  H243  1  0.937500  0.486200  0.793300  1.0
  H  H244  1  0.548700  0.062500  0.793300  1.0
  H  H245  1  0.608200  0.501100  0.745900  1.0
  H  H246  1  0.892900  0.391800  0.745900  1.0
  H  H247  1  0.498900  0.107100  0.745900  1.0
  H  H248  1  0.626400  0.625600  0.668900  1.0
  H  H249  1  0.999200  0.373600  0.668900  1.0
  H  H250  1  0.374400  0.000800  0.668900  1.0
  H  H251  1  0.644800  0.524500  0.638300  1.0
  H  H252  1  0.879700  0.355200  0.638300  1.0
  H  H253  1  0.475500  0.120300  0.638300  1.0
  H  H254  1  0.554100  0.491600  0.649000  1.0
  H  H255  1  0.937500  0.445900  0.649000  1.0
  H  H256  1  0.508400  0.062500  0.649000  1.0
  H  H257  1  0.607300  0.469000  0.674800  1.0
  H  H258  1  0.861700  0.392700  0.674800  1.0
  H  H259  1  0.531000  0.138300  0.674800  1.0
  H  H260  1  0.721300  0.537200  0.697400  1.0
  H  H261  1  0.815900  0.278700  0.697400  1.0
  H  H262  1  0.462800  0.184100  0.697400  1.0
  H  H263  1  0.850400  0.538800  0.714500  1.0
  H  H264  1  0.688400  0.149600  0.714500  1.0
  H  H265  1  0.461200  0.311600  0.714500  1.0
  H  H266  1  0.982600  0.608900  0.726900  1.0
  H  H267  1  0.626300  0.017400  0.726900  1.0
  H  H268  1  0.391100  0.373700  0.726900  1.0
  H  H269  1  0.039900  0.748000  0.735500  1.0
  H  H270  1  0.708100  0.960100  0.735500  1.0
  H  H271  1  0.252000  0.291900  0.735500  1.0
  H  H272  1  0.964100  0.808400  0.727100  1.0
  H  H273  1  0.844300  0.035900  0.727100  1.0
  H  H274  1  0.191600  0.155700  0.727100  1.0
  H  H275  1  0.079100  0.724100  0.415200  1.0
  H  H276  1  0.645000  0.920900  0.415200  1.0
  H  H277  1  0.275900  0.355000  0.415200  1.0
  H  H278  1  0.067900  0.623500  0.375100  1.0
  H  H279  1  0.555600  0.932100  0.375100  1.0
  H  H280  1  0.376500  0.444400  0.375100  1.0
  H  H281  1  0.153200  0.573200  0.382600  1.0
  H  H282  1  0.420000  0.846800  0.382600  1.0
  H  H283  1  0.426800  0.580000  0.382600  1.0
  H  H284  1  0.249900  0.623500  0.430200  1.0
  H  H285  1  0.373600  0.750100  0.430200  1.0
  H  H286  1  0.376500  0.626400  0.430200  1.0
  H  H287  1  0.261200  0.724100  0.470300  1.0
  H  H288  1  0.462900  0.738800  0.470300  1.0
  H  H289  1  0.275900  0.537100  0.470300  1.0
  H  H290  1  0.181900  0.846800  0.459400  1.0
  H  H291  1  0.664900  0.818100  0.459400  1.0
  H  H292  1  0.153200  0.335100  0.459400  1.0
  H  H293  1  0.284500  0.882700  0.502700  1.0
  H  H294  1  0.598200  0.715500  0.502700  1.0
  H  H295  1  0.117300  0.401800  0.502700  1.0
  H  H296  1  0.304000  0.839000  0.469500  1.0
  H  H297  1  0.535000  0.696000  0.469500  1.0
  H  H298  1  0.161000  0.465000  0.469500  1.0
  H  H299  1  0.263500  0.793100  0.508200  1.0
  H  H300  1  0.529600  0.736500  0.508200  1.0
  H  H301  1  0.206900  0.470400  0.508200  1.0
  H  H302  1  0.182300  0.719100  0.530300  1.0
  H  H303  1  0.536800  0.817700  0.530300  1.0
  H  H304  1  0.280900  0.463200  0.530300  1.0
  H  H305  1  0.140600  0.632500  0.591000  1.0
  H  H306  1  0.491900  0.859400  0.591000  1.0
  H  H307  1  0.367500  0.508100  0.591000  1.0
  H  H308  1  0.052400  0.580400  0.634700  1.0
  H  H309  1  0.528000  0.947600  0.634700  1.0
  H  H310  1  0.419600  0.472000  0.634700  1.0
  H  H311  1  0.948800  0.610100  0.647300  1.0
  H  H312  1  0.661300  0.051200  0.647300  1.0
  H  H313  1  0.389900  0.338700  0.647300  1.0
  H  H314  1  0.940500  0.685500  0.602600  1.0
  H  H315  1  0.745000  0.059500  0.602600  1.0
  H  H316  1  0.314500  0.255000  0.602600  1.0
  H  H317  1  0.881000  0.515600  0.560600  1.0
  H  H318  1  0.634600  0.119000  0.560600  1.0
  H  H319  1  0.484400  0.365400  0.560600  1.0
  H  H320  1  0.933700  0.431800  0.565000  1.0
  H  H321  1  0.498100  0.066300  0.565000  1.0
  H  H322  1  0.568200  0.501900  0.565000  1.0
  H  H323  1  0.012000  0.427800  0.515600  1.0
  H  H324  1  0.415800  0.988000  0.515600  1.0
  H  H325  1  0.572200  0.584200  0.515600  1.0
  H  H326  1  0.037400  0.507600  0.461700  1.0
  H  H327  1  0.470200  0.962600  0.461700  1.0
  H  H328  1  0.492400  0.529800  0.461700  1.0
  H  H329  1  0.984600  0.591300  0.457300  1.0
  H  H330  1  0.606700  0.015400  0.457300  1.0
  H  H331  1  0.408700  0.393300  0.457300  1.0
  H  H332  1  0.869700  0.617200  0.527300  1.0
  H  H333  1  0.747500  0.130300  0.527300  1.0
  H  H334  1  0.382800  0.252500  0.527300  1.0
  H  H335  1  0.788900  0.603500  0.476000  1.0
  H  H336  1  0.814600  0.211100  0.476000  1.0
  H  H337  1  0.396500  0.185400  0.476000  1.0
  H  H338  1  0.775500  0.519200  0.488900  1.0
  H  H339  1  0.743700  0.224500  0.488900  1.0
  H  H340  1  0.480800  0.256300  0.488900  1.0
  H  H341  1  0.826400  0.561300  0.451600  1.0
  H  H342  1  0.734900  0.173600  0.451600  1.0
  H  H343  1  0.438700  0.265100  0.451600  1.0
  H  H344  1  0.898600  0.686400  0.441300  1.0
  H  H345  1  0.787800  0.101400  0.441300  1.0
  H  H346  1  0.313600  0.212200  0.441300  1.0
  H  H347  1  0.961800  0.804600  0.387700  1.0
  H  H348  1  0.842800  0.038200  0.387700  1.0
  H  H349  1  0.195400  0.157200  0.387700  1.0
  H  H350  1  0.051800  0.938400  0.377800  1.0
  H  H351  1  0.886600  0.948200  0.377800  1.0
  H  H352  1  0.061600  0.113400  0.377800  1.0
  H  H353  1  0.136200  0.014600  0.427100  1.0
  H  H354  1  0.878400  0.863800  0.427100  1.0
  H  H355  1  0.985400  0.121600  0.427100  1.0
  H  H356  1  0.130600  0.956900  0.486300  1.0
  H  H357  1  0.826300  0.869400  0.486300  1.0
  H  H358  1  0.043100  0.173700  0.486300  1.0
  C  C359  1  0.922100  0.182400  0.982800  1.0
  C  C360  1  0.260300  0.077900  0.982800  1.0
  C  C361  1  0.817600  0.739700  0.982800  1.0
  C  C362  1  0.897700  0.126800  0.952300  1.0
  C  C363  1  0.229100  0.102300  0.952300  1.0
  C  C364  1  0.873200  0.770900  0.952300  1.0
  C  C365  1  0.845800  0.123600  0.924700  1.0
  C  C366  1  0.277800  0.154200  0.924700  1.0
  C  C367  1  0.876400  0.722200  0.924700  1.0
  C  C368  1  0.825600  0.178900  0.924900  1.0
  C  C369  1  0.353300  0.174400  0.924900  1.0
  C  C370  1  0.821100  0.646700  0.924900  1.0
  C  C371  1  0.847700  0.236000  0.951200  1.0
  C  C372  1  0.388300  0.152300  0.951200  1.0
  C  C373  1  0.764000  0.611700  0.951200  1.0
  C  C374  1  0.897200  0.236800  0.981400  1.0
  C  C375  1  0.339600  0.102800  0.981400  1.0
  C  C376  1  0.763200  0.660400  0.981400  1.0
  C  C377  1  0.921700  0.298500  0.013500  1.0
  C  C378  1  0.376800  0.078300  0.013500  1.0
  C  C379  1  0.701500  0.623200  0.013500  1.0
  C  C380  1  0.849600  0.277200  0.039000  1.0
  C  C381  1  0.427600  0.150400  0.039000  1.0
  C  C382  1  0.722800  0.572400  0.039000  1.0
  C  C383  1  0.924500  0.417600  0.996300  1.0
  C  C384  1  0.493100  0.075500  0.996300  1.0
  C  C385  1  0.582400  0.506900  0.996300  1.0
  C  C386  1  0.966700  0.499800  0.984800  1.0
  C  C387  1  0.533100  0.033300  0.984800  1.0
  C  C388  1  0.500200  0.466900  0.984800  1.0
  C  C389  1  0.929800  0.541800  0.981000  1.0
  C  C390  1  0.612000  0.070200  0.981000  1.0
  C  C391  1  0.458200  0.388000  0.981000  1.0
  C  C392  1  0.972000  0.620000  0.973100  1.0
  C  C393  1  0.648000  0.028000  0.973100  1.0
  C  C394  1  0.380000  0.352000  0.973100  1.0
  C  C395  1  0.055200  0.657700  0.970600  1.0
  C  C396  1  0.602500  0.944800  0.970600  1.0
  C  C397  1  0.342300  0.397500  0.970600  1.0
  C  C398  1  0.085500  0.607300  0.973500  1.0
  C  C399  1  0.521800  0.914500  0.973500  1.0
  C  C400  1  0.392700  0.478200  0.973500  1.0
  C  C401  1  0.934200  0.389800  0.895100  1.0
  C  C402  1  0.455600  0.065800  0.895100  1.0
  C  C403  1  0.610200  0.544400  0.895100  1.0
  C  C404  1  0.860900  0.384700  0.893000  1.0
  C  C405  1  0.523800  0.139100  0.893000  1.0
  C  C406  1  0.615300  0.476200  0.893000  1.0
  C  C407  1  0.856100  0.452800  0.888800  1.0
  C  C408  1  0.596700  0.143900  0.888800  1.0
  C  C409  1  0.547200  0.403300  0.888800  1.0
  C  C410  1  0.924500  0.525900  0.886800  1.0
  C  C411  1  0.601400  0.075500  0.886800  1.0
  C  C412  1  0.474100  0.398600  0.886800  1.0
  C  C413  1  0.997800  0.531000  0.888900  1.0
  C  C414  1  0.533200  0.002200  0.888900  1.0
  C  C415  1  0.469000  0.466800  0.888900  1.0
  C  C416  1  0.002600  0.462900  0.893100  1.0
  C  C417  1  0.460300  0.997400  0.893100  1.0
  C  C418  1  0.537100  0.539700  0.893100  1.0
  C  C419  1  0.082100  0.474700  0.895400  1.0
  C  C420  1  0.392600  0.917900  0.895400  1.0
  C  C421  1  0.525300  0.607400  0.895400  1.0
  C  C422  1  0.109800  0.457900  0.858900  1.0
  C  C423  1  0.348100  0.890200  0.858900  1.0
  C  C424  1  0.542100  0.651900  0.858900  1.0
  C  C425  1  0.100900  0.370000  0.922900  1.0
  C  C426  1  0.269100  0.899100  0.922900  1.0
  C  C427  1  0.630000  0.730900  0.922900  1.0
  C  C428  1  0.110600  0.328000  0.956000  1.0
  C  C429  1  0.217400  0.889400  0.956000  1.0
  C  C430  1  0.672000  0.782600  0.956000  1.0
  C  C431  1  0.121900  0.264200  0.953100  1.0
  C  C432  1  0.142300  0.878100  0.953100  1.0
  C  C433  1  0.735800  0.857700  0.953100  1.0
  C  C434  1  0.133700  0.230300  0.986200  1.0
  C  C435  1  0.096600  0.866300  0.986200  1.0
  C  C436  1  0.769700  0.903400  0.986200  1.0
  C  C437  1  0.132000  0.263000  0.018500  1.0
  C  C438  1  0.131000  0.868000  0.018500  1.0
  C  C439  1  0.737000  0.869000  0.018500  1.0
  C  C440  1  0.118400  0.323900  0.022000  1.0
  C  C441  1  0.205500  0.881600  0.022000  1.0
  C  C442  1  0.676100  0.794500  0.022000  1.0
  C  C443  1  0.845500  0.572600  0.160900  1.0
  C  C444  1  0.727100  0.154500  0.160900  1.0
  C  C445  1  0.427400  0.272900  0.160900  1.0
  C  C446  1  0.796500  0.604400  0.155900  1.0
  C  C447  1  0.807900  0.203500  0.155900  1.0
  C  C448  1  0.395600  0.192100  0.155900  1.0
  C  C449  1  0.797300  0.657700  0.182300  1.0
  C  C450  1  0.860400  0.202700  0.182300  1.0
  C  C451  1  0.342300  0.139600  0.182300  1.0
  C  C452  1  0.847000  0.679200  0.213800  1.0
  C  C453  1  0.832200  0.153000  0.213800  1.0
  C  C454  1  0.320800  0.167800  0.213800  1.0
  C  C455  1  0.896000  0.647500  0.218800  1.0
  C  C456  1  0.751500  0.104000  0.218800  1.0
  C  C457  1  0.352500  0.248500  0.218800  1.0
  C  C458  1  0.895300  0.594200  0.192400  1.0
  C  C459  1  0.698900  0.104700  0.192400  1.0
  C  C460  1  0.405800  0.301100  0.192400  1.0
  C  C461  1  0.944500  0.554500  0.194400  1.0
  C  C462  1  0.610000  0.055500  0.194400  1.0
  C  C463  1  0.445500  0.390000  0.194400  1.0
  C  C464  1  0.901800  0.481100  0.222500  1.0
  C  C465  1  0.579300  0.098200  0.222500  1.0
  C  C466  1  0.518900  0.420700  0.222500  1.0
  C  C467  1  0.044500  0.605300  0.237600  1.0
  C  C468  1  0.560800  0.955500  0.237600  1.0
  C  C469  1  0.394700  0.439200  0.237600  1.0
  C  C470  1  0.130800  0.658000  0.252500  1.0
  C  C471  1  0.527200  0.869200  0.252500  1.0
  C  C472  1  0.342000  0.472800  0.252500  1.0
  C  C473  1  0.162100  0.657700  0.288100  1.0
  C  C474  1  0.495600  0.837900  0.288100  1.0
  C  C475  1  0.342300  0.504400  0.288100  1.0
  C  C476  1  0.241300  0.710000  0.295700  1.0
  C  C477  1  0.468700  0.758700  0.295700  1.0
  C  C478  1  0.290000  0.531300  0.295700  1.0
  C  C479  1  0.289100  0.762400  0.267700  1.0
  C  C480  1  0.473300  0.710900  0.267700  1.0
  C  C481  1  0.237600  0.526700  0.267700  1.0
  C  C482  1  0.257900  0.762700  0.232200  1.0
  C  C483  1  0.504800  0.742100  0.232200  1.0
  C  C484  1  0.237300  0.495200  0.232200  1.0
  C  C485  1  0.118500  0.840300  0.250600  1.0
  C  C486  1  0.721800  0.881500  0.250600  1.0
  C  C487  1  0.159700  0.278200  0.250600  1.0
  C  C488  1  0.037500  0.804400  0.256200  1.0
  C  C489  1  0.766900  0.962500  0.256200  1.0
  C  C490  1  0.195600  0.233100  0.256200  1.0
  C  C491  1  0.006400  0.782100  0.292700  1.0
  C  C492  1  0.775700  0.993600  0.292700  1.0
  C  C493  1  0.217900  0.224300  0.292700  1.0
  C  C494  1  0.056300  0.795600  0.323500  1.0
  C  C495  1  0.739300  0.943700  0.323500  1.0
  C  C496  1  0.204400  0.260700  0.323500  1.0
  C  C497  1  0.137300  0.831500  0.317900  1.0
  C  C498  1  0.694200  0.862700  0.317900  1.0
  C  C499  1  0.168500  0.305800  0.317900  1.0
  C  C500  1  0.168400  0.853900  0.281400  1.0
  C  C501  1  0.685500  0.831600  0.281400  1.0
  C  C502  1  0.146100  0.314500  0.281400  1.0
  C  C503  1  0.150000  0.869000  0.216600  1.0
  C  C504  1  0.719000  0.850000  0.216600  1.0
  C  C505  1  0.131000  0.281000  0.216600  1.0
  C  C506  1  0.160600  0.940300  0.207000  1.0
  C  C507  1  0.779700  0.839400  0.207000  1.0
  C  C508  1  0.059700  0.220300  0.207000  1.0
  C  C509  1  0.056000  0.808000  0.165800  1.0
  C  C510  1  0.752000  0.944000  0.165800  1.0
  C  C511  1  0.192000  0.248000  0.165800  1.0
  C  C512  1  0.023300  0.755900  0.133800  1.0
  C  C513  1  0.732600  0.976700  0.133800  1.0
  C  C514  1  0.244100  0.267400  0.133800  1.0
  C  C515  1  0.976600  0.761400  0.105600  1.0
  C  C516  1  0.784800  0.023400  0.105600  1.0
  C  C517  1  0.238600  0.215200  0.105600  1.0
  C  C518  1  0.948800  0.707400  0.075800  1.0
  C  C519  1  0.758600  0.051200  0.075800  1.0
  C  C520  1  0.292600  0.241400  0.075800  1.0
  C  C521  1  0.967700  0.647800  0.074300  1.0
  C  C522  1  0.680100  0.032300  0.074300  1.0
  C  C523  1  0.352200  0.319900  0.074300  1.0
  C  C524  1  0.014500  0.642300  0.102500  1.0
  C  C525  1  0.627800  0.985500  0.102500  1.0
  C  C526  1  0.357700  0.372200  0.102500  1.0
  C  C527  1  0.253000  0.588500  0.960100  1.0
  C  C528  1  0.335500  0.747000  0.960100  1.0
  C  C529  1  0.411500  0.664500  0.960100  1.0
  C  C530  1  0.257500  0.671600  0.899200  1.0
  C  C531  1  0.414100  0.742500  0.899200  1.0
  C  C532  1  0.328400  0.585900  0.899200  1.0
  C  C533  1  0.083900  0.457600  0.077800  1.0
  C  C534  1  0.373700  0.916100  0.077800  1.0
  C  C535  1  0.542400  0.626300  0.077800  1.0
  C  C536  1  0.019000  0.328000  0.117400  1.0
  C  C537  1  0.309000  0.981000  0.117400  1.0
  C  C538  1  0.672000  0.691000  0.117400  1.0
  C  C539  1  0.040900  0.410200  0.185400  1.0
  C  C540  1  0.369300  0.959100  0.185400  1.0
  C  C541  1  0.589800  0.630700  0.185400  1.0
  C  C542  1  0.104300  0.545100  0.147900  1.0
  C  C543  1  0.440800  0.895700  0.147900  1.0
  C  C544  1  0.454900  0.559200  0.147900  1.0
  C  C545  1  0.965200  0.426900  0.123700  1.0
  C  C546  1  0.461700  0.034800  0.123700  1.0
  C  C547  1  0.573100  0.538300  0.123700  1.0
  C  C548  1  0.157400  0.435100  0.140700  1.0
  C  C549  1  0.277700  0.842600  0.140700  1.0
  C  C550  1  0.564900  0.722300  0.140700  1.0
  C  C551  1  0.345000  0.652300  0.156900  1.0
  C  C552  1  0.307300  0.655000  0.156900  1.0
  C  C553  1  0.347700  0.692700  0.156900  1.0
  C  C554  1  0.381800  0.677300  0.119100  1.0
  C  C555  1  0.295500  0.618200  0.119100  1.0
  C  C556  1  0.322700  0.704500  0.119100  1.0
  C  C557  1  0.421600  0.701200  0.080900  1.0
  C  C558  1  0.279600  0.578400  0.080900  1.0
  C  C559  1  0.298800  0.720400  0.080900  1.0
  C  C560  1  0.389500  0.699500  0.049500  1.0
  C  C561  1  0.310000  0.610500  0.049500  1.0
  C  C562  1  0.300500  0.690000  0.049500  1.0
  C  C563  1  0.465800  0.773500  0.058000  1.0
  C  C564  1  0.307700  0.534200  0.058000  1.0
  C  C565  1  0.226500  0.692300  0.058000  1.0
  C  C566  1  0.999000  0.977000  0.545400  1.0
  C  C567  1  0.978000  0.001000  0.545400  1.0
  C  C568  1  0.023000  0.022000  0.545400  1.0
  C  C569  1  0.953700  0.962700  0.581000  1.0
  C  C570  1  0.009000  0.046300  0.581000  1.0
  C  C571  1  0.037300  0.991000  0.581000  1.0
  C  C572  1  0.030300  0.972000  0.648100  1.0
  C  C573  1  0.941700  0.969700  0.648100  1.0
  C  C574  1  0.028000  0.058300  0.648100  1.0
  C  C575  1  0.019600  0.889800  0.641500  1.0
  C  C576  1  0.870200  0.980400  0.641500  1.0
  C  C577  1  0.110200  0.129800  0.641500  1.0
  C  C578  1  0.914800  0.957200  0.615000  1.0
  C  C579  1  0.042400  0.085200  0.615000  1.0
  C  C580  1  0.042800  0.957600  0.615000  1.0
  C  C581  1  0.725400  0.602000  0.803700  1.0
  C  C582  1  0.876600  0.274600  0.803700  1.0
  C  C583  1  0.398000  0.123400  0.803700  1.0
  C  C584  1  0.720100  0.528700  0.806600  1.0
  C  C585  1  0.808600  0.279900  0.806600  1.0
  C  C586  1  0.471300  0.191400  0.806600  1.0
  C  C587  1  0.788000  0.523800  0.811400  1.0
  C  C588  1  0.735800  0.212000  0.811400  1.0
  C  C589  1  0.476200  0.264200  0.811400  1.0
  C  C590  1  0.861200  0.592200  0.813300  1.0
  C  C591  1  0.731000  0.138800  0.813300  1.0
  C  C592  1  0.407800  0.269000  0.813300  1.0
  C  C593  1  0.866600  0.665600  0.810500  1.0
  C  C594  1  0.799000  0.133400  0.810500  1.0
  C  C595  1  0.334400  0.201000  0.810500  1.0
  C  C596  1  0.798700  0.670500  0.805600  1.0
  C  C597  1  0.871800  0.201300  0.805600  1.0
  C  C598  1  0.329500  0.128200  0.805600  1.0
  C  C599  1  0.804100  0.748400  0.803300  1.0
  C  C600  1  0.944300  0.195900  0.803300  1.0
  C  C601  1  0.251600  0.055700  0.803300  1.0
  C  C602  1  0.793400  0.779500  0.840900  1.0
  C  C603  1  0.986100  0.206600  0.840900  1.0
  C  C604  1  0.220500  0.013900  0.840900  1.0
  C  C605  1  0.701500  0.768800  0.774400  1.0
  C  C606  1  0.067300  0.298500  0.774400  1.0
  C  C607  1  0.231200  0.932700  0.774400  1.0
  C  C608  1  0.660200  0.775500  0.742500  1.0
  C  C609  1  0.115300  0.339800  0.742500  1.0
  C  C610  1  0.224500  0.884700  0.742500  1.0
  C  C611  1  0.598200  0.786600  0.744700  1.0
  C  C612  1  0.188400  0.401800  0.744700  1.0
  C  C613  1  0.213400  0.811600  0.744700  1.0
  C  C614  1  0.561400  0.798300  0.715300  1.0
  C  C615  1  0.236900  0.438600  0.715300  1.0
  C  C616  1  0.201700  0.763100  0.715300  1.0
  C  C617  1  0.593400  0.797100  0.680300  1.0
  C  C618  1  0.203700  0.406600  0.680300  1.0
  C  C619  1  0.202900  0.796300  0.680300  1.0
  C  C620  1  0.656700  0.782000  0.677400  1.0
  C  C621  1  0.125300  0.343300  0.677400  1.0
  C  C622  1  0.218000  0.874700  0.677400  1.0
  C  C623  1  0.515300  0.589400  0.715600  1.0
  C  C624  1  0.074100  0.484700  0.715600  1.0
  C  C625  1  0.410600  0.925900  0.715600  1.0
  C  C626  1  0.456300  0.559800  0.747200  1.0
  C  C627  1  0.103500  0.543700  0.747200  1.0
  C  C628  1  0.440200  0.896500  0.747200  1.0
  C  C629  1  0.461000  0.511400  0.774300  1.0
  C  C630  1  0.050400  0.539000  0.774300  1.0
  C  C631  1  0.488600  0.949600  0.774300  1.0
  C  C632  1  0.514200  0.486500  0.774500  1.0
  C  C633  1  0.972300  0.485800  0.774500  1.0
  C  C634  1  0.513500  0.027700  0.774500  1.0
  C  C635  1  0.568600  0.515700  0.745800  1.0
  C  C636  1  0.947100  0.431400  0.745800  1.0
  C  C637  1  0.484300  0.052900  0.745800  1.0
  C  C638  1  0.571400  0.564200  0.717000  1.0
  C  C639  1  0.992800  0.428600  0.717000  1.0
  C  C640  1  0.435800  0.007200  0.717000  1.0
  C  C641  1  0.632000  0.587000  0.685300  1.0
  C  C642  1  0.955000  0.368000  0.685300  1.0
  C  C643  1  0.413000  0.045000  0.685300  1.0
  C  C644  1  0.607000  0.510500  0.659300  1.0
  C  C645  1  0.903500  0.393000  0.659300  1.0
  C  C646  1  0.489500  0.096500  0.659300  1.0
  C  C647  1  0.748000  0.592000  0.703100  1.0
  C  C648  1  0.844000  0.252000  0.703100  1.0
  C  C649  1  0.408000  0.156000  0.703100  1.0
  C  C650  1  0.831700  0.631600  0.713500  1.0
  C  C651  1  0.799900  0.168300  0.713500  1.0
  C  C652  1  0.368400  0.200100  0.713500  1.0
  C  C653  1  0.875800  0.594500  0.717300  1.0
  C  C654  1  0.718700  0.124200  0.717300  1.0
  C  C655  1  0.405500  0.281300  0.717300  1.0
  C  C656  1  0.952000  0.634100  0.724800  1.0
  C  C657  1  0.682100  0.048000  0.724800  1.0
  C  C658  1  0.365900  0.317900  0.724800  1.0
  C  C659  1  0.985300  0.716600  0.729500  1.0
  C  C660  1  0.731300  0.014700  0.729500  1.0
  C  C661  1  0.283400  0.268700  0.729500  1.0
  C  C662  1  0.940100  0.752600  0.725600  1.0
  C  C663  1  0.812500  0.059900  0.725600  1.0
  C  C664  1  0.247400  0.187500  0.725600  1.0
  C  C665  1  0.171100  0.733500  0.446600  1.0
  C  C666  1  0.562400  0.828900  0.446600  1.0
  C  C667  1  0.266500  0.437600  0.446600  1.0
  C  C668  1  0.113800  0.703700  0.418300  1.0
  C  C669  1  0.589900  0.886200  0.418300  1.0
  C  C670  1  0.296300  0.410100  0.418300  1.0
  C  C671  1  0.106900  0.643900  0.394400  1.0
  C  C672  1  0.537000  0.893100  0.394400  1.0
  C  C673  1  0.356100  0.463000  0.394400  1.0
  C  C674  1  0.157800  0.614000  0.398900  1.0
  C  C675  1  0.456200  0.842200  0.398900  1.0
  C  C676  1  0.386000  0.543800  0.398900  1.0
  C  C677  1  0.215200  0.643900  0.427200  1.0
  C  C678  1  0.428700  0.784800  0.427200  1.0
  C  C679  1  0.356100  0.571300  0.427200  1.0
  C  C680  1  0.221700  0.703700  0.451000  1.0
  C  C681  1  0.482000  0.778300  0.451000  1.0
  C  C682  1  0.296300  0.518000  0.451000  1.0
  C  C683  1  0.186900  0.804400  0.472800  1.0
  C  C684  1  0.617500  0.813100  0.472800  1.0
  C  C685  1  0.195600  0.382500  0.472800  1.0
  C  C686  1  0.266600  0.832200  0.489800  1.0
  C  C687  1  0.565600  0.733400  0.489800  1.0
  C  C688  1  0.167800  0.434400  0.489800  1.0
  C  C689  1  0.137600  0.725600  0.533000  1.0
  C  C690  1  0.588000  0.862400  0.533000  1.0
  C  C691  1  0.274400  0.412000  0.533000  1.0
  C  C692  1  0.089300  0.686800  0.564800  1.0
  C  C693  1  0.597500  0.910700  0.564800  1.0
  C  C694  1  0.313200  0.402500  0.564800  1.0
  C  C695  1  0.098000  0.642700  0.591800  1.0
  C  C696  1  0.544700  0.902000  0.591800  1.0
  C  C697  1  0.357300  0.455300  0.591800  1.0
  C  C698  1  0.047800  0.615800  0.617700  1.0
  C  C699  1  0.568000  0.952200  0.617700  1.0
  C  C700  1  0.384200  0.432000  0.617700  1.0
  C  C701  1  0.983600  0.630100  0.626100  1.0
  C  C702  1  0.646500  0.016400  0.626100  1.0
  C  C703  1  0.369900  0.353500  0.626100  1.0
  C  C704  1  0.982000  0.674000  0.600000  1.0
  C  C705  1  0.692000  0.018000  0.600000  1.0
  C  C706  1  0.326000  0.308000  0.600000  1.0
  C  C707  1  0.912700  0.513900  0.540500  1.0
  C  C708  1  0.601200  0.087300  0.540500  1.0
  C  C709  1  0.486100  0.398800  0.540500  1.0
  C  C710  1  0.944100  0.464200  0.543100  1.0
  C  C711  1  0.520100  0.055900  0.543100  1.0
  C  C712  1  0.535800  0.479900  0.543100  1.0
  C  C713  1  0.990500  0.461800  0.513800  1.0
  C  C714  1  0.471300  0.009500  0.513800  1.0
  C  C715  1  0.538200  0.528700  0.513800  1.0
  C  C716  1  0.005600  0.509200  0.481800  1.0
  C  C717  1  0.503600  0.994400  0.481800  1.0
  C  C718  1  0.490800  0.496400  0.481800  1.0
  C  C719  1  0.974200  0.558900  0.479100  1.0
  C  C720  1  0.584700  0.025800  0.479100  1.0
  C  C721  1  0.441100  0.415300  0.479100  1.0
  C  C722  1  0.927800  0.561300  0.508500  1.0
  C  C723  1  0.633500  0.072200  0.508500  1.0
  C  C724  1  0.438700  0.366500  0.508500  1.0
  C  C725  1  0.887700  0.610700  0.501600  1.0
  C  C726  1  0.723000  0.112300  0.501600  1.0
  C  C727  1  0.389300  0.277000  0.501600  1.0
  C  C728  1  0.812900  0.570000  0.477400  1.0
  C  C729  1  0.757100  0.187100  0.477400  1.0
  C  C730  1  0.430000  0.242900  0.477400  1.0
  C  C731  1  0.941000  0.720600  0.457400  1.0
  C  C732  1  0.779600  0.059000  0.457400  1.0
  C  C733  1  0.279400  0.220400  0.457400  1.0
  C  C734  1  0.992600  0.801200  0.442900  1.0
  C  C735  1  0.808600  0.007400  0.442900  1.0
  C  C736  1  0.198800  0.191400  0.442900  1.0
  C  C737  1  0.996000  0.835500  0.407700  1.0
  C  C738  1  0.839500  0.004000  0.407700  1.0
  C  C739  1  0.164500  0.160500  0.407700  1.0
  C  C740  1  0.049500  0.915000  0.401800  1.0
  C  C741  1  0.865500  0.950500  0.401800  1.0
  C  C742  1  0.085000  0.134500  0.401800  1.0
  C  C743  1  0.099600  0.960200  0.431100  1.0
  C  C744  1  0.860600  0.900400  0.431100  1.0
  C  C745  1  0.039800  0.139400  0.431100  1.0
  C  C746  1  0.096300  0.926000  0.466300  1.0
  C  C747  1  0.829700  0.903700  0.466300  1.0
  C  C748  1  0.074000  0.170300  0.466300  1.0
  C  C749  1  0.917600  0.916000  0.738000  1.0
  C  C750  1  0.998400  0.082400  0.738000  1.0
  C  C751  1  0.084000  0.001600  0.738000  1.0
  C  C752  1  0.917800  0.996200  0.800000  1.0
  C  C753  1  0.078400  0.082200  0.800000  1.0
  C  C754  1  0.003800  0.921600  0.800000  1.0
  C  C755  1  0.792100  0.750100  0.622500  1.0
  C  C756  1  0.958000  0.207900  0.622500  1.0
  C  C757  1  0.249900  0.042000  0.622500  1.0
  C  C758  1  0.646600  0.679400  0.584700  1.0
  C  C759  1  0.032800  0.353400  0.584700  1.0
  C  C760  1  0.320600  0.967200  0.584700  1.0
  C  C761  1  0.742300  0.707500  0.513800  1.0
  C  C762  1  0.965200  0.257700  0.513800  1.0
  C  C763  1  0.292500  0.034800  0.513800  1.0
  C  C764  1  0.873000  0.770300  0.553400  1.0
  C  C765  1  0.897300  0.127000  0.553400  1.0
  C  C766  1  0.229700  0.102700  0.553400  1.0
  C  C767  1  0.756200  0.624000  0.576200  1.0
  C  C768  1  0.867800  0.243800  0.576200  1.0
  C  C769  1  0.376000  0.132200  0.576200  1.0
  C  C770  1  0.768800  0.825600  0.557600  1.0
  C  C771  1  0.056800  0.231200  0.557600  1.0
  C  C772  1  0.174400  0.943200  0.557600  1.0
  N  N773  1  0.333333  0.666667  0.082800  1
  N  N774  1  0.000000  0.000000  0.616700  1
  N  N775  1  0.178800  0.710500  0.224600  1.0
  N  N776  1  0.531700  0.821200  0.224600  1.0
  N  N777  1  0.289500  0.468300  0.224600  1.0
  N  N778  1  0.042400  0.696400  0.132300  1.0
  N  N779  1  0.654000  0.957600  0.132300  1.0
  N  N780  1  0.303600  0.346000  0.132300  1.0
  N  N781  1  0.959800  0.377800  0.998300  1.0
  N  N782  1  0.418000  0.040200  0.998300  1.0
  N  N783  1  0.622200  0.582000  0.998300  1.0
  N  N784  1  0.043500  0.531200  0.981100  1.0
  N  N785  1  0.487700  0.956500  0.981100  1.0
  N  N786  1  0.468800  0.512300  0.981100  1.0
  N  N787  1  0.082700  0.424300  0.926200  1.0
  N  N788  1  0.341600  0.917300  0.926200  1.0
  N  N789  1  0.575700  0.658400  0.926200  1.0
  N  N790  1  0.108800  0.359300  0.990100  1.0
  N  N791  1  0.250500  0.891200  0.990100  1.0
  N  N792  1  0.640700  0.749500  0.990100  1.0
  N  N793  1  0.091800  0.466600  0.046300  1.0
  N  N794  1  0.374800  0.908200  0.046300  1.0
  N  N795  1  0.533400  0.625200  0.046300  1.0
  N  N796  1  0.196300  0.534000  0.977100  1.0
  N  N797  1  0.337700  0.803700  0.977100  1.0
  N  N798  1  0.466000  0.662300  0.977100  1.0
  N  N799  1  0.994800  0.261500  0.106400  1.0
  N  N800  1  0.266700  0.005200  0.106400  1.0
  N  N801  1  0.738500  0.733300  0.106400  1.0
  N  N802  1  0.902200  0.423200  0.116200  1.0
  N  N803  1  0.521000  0.097800  0.116200  1.0
  N  N804  1  0.576800  0.479000  0.116200  1.0
  N  N805  1  0.028100  0.396900  0.216400  1.0
  N  N806  1  0.368800  0.971900  0.216400  1.0
  N  N807  1  0.603100  0.631200  0.216400  1.0
  N  N808  1  0.210200  0.680700  0.880900  1.0
  N  N809  1  0.470500  0.789800  0.880900  1.0
  N  N810  1  0.319300  0.529500  0.880900  1.0
  N  N811  1  0.123800  0.610600  0.156700  1.0
  N  N812  1  0.486800  0.876200  0.156700  1.0
  N  N813  1  0.389400  0.513200  0.156700  1.0
  N  N814  1  0.022600  0.613100  0.206600  1.0
  N  N815  1  0.590500  0.977400  0.206600  1.0
  N  N816  1  0.386900  0.409500  0.206600  1.0
  N  N817  1  0.095100  0.792800  0.190900  1.0
  N  N818  1  0.697700  0.904900  0.190900  1.0
  N  N819  1  0.207200  0.302300  0.190900  1.0
  N  N820  1  0.213900  0.431500  0.148800  1.0
  N  N821  1  0.217600  0.786100  0.148800  1.0
  N  N822  1  0.568500  0.782400  0.148800  1.0
  N  N823  1  0.042700  0.846400  0.472200  1.0
  N  N824  1  0.803700  0.957300  0.472200  1.0
  N  N825  1  0.153600  0.196300  0.472200  1.0
  N  N826  1  0.754400  0.749700  0.771200  1.0
  N  N827  1  0.995300  0.245600  0.771200  1.0
  N  N828  1  0.250300  0.004700  0.771200  1.0
  N  N829  1  0.695200  0.774000  0.710000  1.0
  N  N830  1  0.078800  0.304800  0.710000  1.0
  N  N831  1  0.226000  0.921200  0.710000  1.0
  N  N832  1  0.710200  0.629200  0.701600  1.0
  N  N833  1  0.919000  0.289800  0.701600  1.0
  N  N834  1  0.370800  0.081000  0.701600  1.0
  N  N835  1  0.863700  0.709000  0.719700  1.0
  N  N836  1  0.845300  0.136300  0.719700  1.0
  N  N837  1  0.291000  0.154700  0.719700  1.0
  N  N838  1  0.799500  0.757900  0.653200  1.0
  N  N839  1  0.958400  0.200500  0.653200  1.0
  N  N840  1  0.242100  0.041600  0.653200  1.0
  N  N841  1  0.866500  0.863000  0.722000  1.0
  N  N842  1  0.996500  0.133500  0.722000  1.0
  N  N843  1  0.137000  0.003500  0.722000  1.0
  N  N844  1  0.588600  0.660500  0.594000  1.0
  N  N845  1  0.071900  0.411400  0.594000  1.0
  N  N846  1  0.339500  0.928100  0.594000  1.0
  N  N847  1  0.757100  0.565800  0.582600  1.0
  N  N848  1  0.808700  0.242900  0.582600  1.0
  N  N849  1  0.434200  0.191300  0.582600  1.0
  N  N850  1  0.729800  0.695200  0.481300  1.0
  N  N851  1  0.965400  0.270200  0.481300  1.0
  N  N852  1  0.304800  0.034600  0.481300  1.0
  N  N853  1  0.864400  0.989100  0.817200  1.0
  N  N854  1  0.124700  0.135600  0.817200  1.0
  N  N855  1  0.010900  0.875300  0.817200  1.0
  N  N856  1  0.936700  0.789400  0.543500  1.0
  N  N857  1  0.852700  0.063300  0.543500  1.0
  N  N858  1  0.210600  0.147300  0.543500  1.0
  N  N859  1  0.130600  0.768100  0.507400  1.0
  N  N860  1  0.637500  0.869400  0.507400  1.0
  N  N861  1  0.231900  0.362500  0.507400  1.0
  N  N862  1  0.028000  0.707600  0.568900  1.0
  N  N863  1  0.679600  0.972000  0.568900  1.0
  N  N864  1  0.292400  0.320400  0.568900  1.0
  N  N865  1  0.946500  0.690400  0.489700  1.0
  N  N866  1  0.743900  0.053500  0.489700  1.0
  N  N867  1  0.309600  0.256100  0.489700  1.0
  N  N868  1  0.767600  0.884600  0.550000  1.0
  N  N869  1  0.117000  0.232400  0.550000  1.0
  N  N870  1  0.115400  0.883000  0.550000  1.0
  F  F871  1  0.694700  0.286100  0.696400  1.0
  F  F872  1  0.591400  0.305300  0.696400  1.0
  F  F873  1  0.713900  0.408600  0.696400  1.0
  F  F874  1  0.748200  0.363400  0.743100  1.0
  F  F875  1  0.615200  0.251800  0.743100  1.0
  F  F876  1  0.636600  0.384800  0.743100  1.0
  F  F877  1  0.639100  0.260700  0.005700  1.0
  F  F878  1  0.621600  0.360900  0.005700  1.0
  F  F879  1  0.739300  0.378400  0.005700  1.0
  F  F880  1  0.720600  0.304700  0.955700  1.0
  F  F881  1  0.584100  0.279400  0.955700  1.0
  F  F882  1  0.695300  0.415900  0.955700  1.0
