
#######################################################################
#
#                 Cambridge Crystallographic Data Centre
#                                CCDC 
#
#######################################################################
#
# If this CIF has been generated from an entry in the Cambridge 
# Structural Database, then it will include bibliographic, chemical, 
# crystal, experimental, refinement or atomic coordinate data resulting 
# from the CCDC's data processing and validation procedures.
#
#######################################################################

data_RADTUN
_chemical_formula_moiety         
'C192 H168 Fe4 N48 Ni6,C8 H20 N1 1+,F6 P1 1-,33(C1 H4 O1),10(H2 O1)'
_chemical_name_systematic        
"Tetraethylammonium dodecakis(\m~2~-cyano-C,N)-dodecakis(N-(2-pyridylmethylene)-(S)-1-phenylethylamine-N,N')-dodecacyano-tetra-iron(iii)-hexa-nickel(ii) hexafluorophosphate methanol solvate decahydrate"
_symmetry_cell_setting           trigonal
_symmetry_space_group_name_H-M   'P 3'
_symmetry_Int_Tables_number      143
_space_group_name_Hall           'P 3'
loop_
_symmetry_equiv_pos_site_id
_symmetry_equiv_pos_as_xyz
1 x,y,z
2 -y,x-y,z
3 -x+y,-x,z
_cell_length_a                   19.574(3)
_cell_length_b                   19.574(3)
_cell_length_c                   35.075(9)
_cell_angle_alpha                90
_cell_angle_beta                 90
_cell_angle_gamma                120
_cell_volume                     11638.2
_exptl_crystal_colour            brown
_exptl_crystal_description       plate
_cell_formula_units_Z            2
loop_
_atom_site_label
_atom_site_type_symbol
_atom_site_fract_x
_atom_site_fract_y
_atom_site_fract_z
Ni3 Ni 0.91709(11) 0.36695(8) 1.01254(4)
Ni4 Ni 0.88413(14) 0.58454(10) 0.82388(5)
Fe3 Fe 0.6667 0.3333 1.07013(8)
Fe4 Fe 0.93882(14) 0.37115(10) 0.86830(5)
C65 C 1.0779(11) 0.2603(8) 1.0172(4)
H57 H 1.0461 0.2279 0.9969
C66 C 1.1023(13) 0.2291(10) 1.0477(6)
H58 H 1.0823 0.1738 1.0491
C67 C 1.1542(19) 0.2778(15) 1.0753(5)
H59 H 1.1749 0.2577 1.0939
C68 C 1.1744(16) 0.3533(12) 1.0751(5)
H60 H 1.2072 0.3854 1.0953
C69 C 1.1523(13) 0.3883(10) 1.0488(4)
H61 H 1.1687 0.4428 1.0501
C70 C 1.1028(9) 0.3396(7) 1.0186(4)
C71 C 1.0783(8) 0.3768(6) 0.9865(3)
H62 H 1.0385 0.3326 0.9703
C72 C 1.1504(12) 0.4276(9) 0.9610(4)
H63 H 1.1348 0.4502 0.9401
H64 H 1.1706 0.3947 0.9505
H65 H 1.1917 0.4703 0.9763
C73 C 1.0755(10) 0.4931(7) 1.0037(3)
H66 H 1.1300 0.5231 0.9975
C74 C 1.0333(11) 0.5331(8) 1.0152(3)
C75 C 1.0702(11) 0.6120(8) 1.0190(3)
H67 H 1.1258 0.6424 1.0161
C76 C 1.0280(12) 0.6480(8) 1.0269(3)
H68 H 1.0541 0.7034 1.0306
C77 C 0.9448(11) 0.6025(8) 1.0294(3)
H69 H 0.9124 0.6254 1.0329
C78 C 0.9145(11) 0.5218(8) 1.0265(3)
H70 H 0.8594 0.4886 1.0301
C79 C 1.0658(8) 0.4556(6) 1.1049(2)
H71 H 1.0626 0.4058 1.1021
C80 C 1.1391(10) 0.5238(8) 1.1070(2)
H72 H 1.1859 0.5206 1.1057
C81 C 1.1439(10) 0.5967(6) 1.1112(2)
H73 H 1.1941 0.6434 1.1127
C82 C 1.0755(8) 0.6014(5) 1.1132(2)
H74 H 1.0788 0.6513 1.1161
C83 C 1.0022(9) 0.5332(7) 1.1111(2)
H75 H 0.9554 0.5364 1.1125
C84 C 0.9974(9) 0.4603(6) 1.1069(2)
C85 C 0.9179(10) 0.3926(7) 1.1046(4)
H76 H 0.8811 0.4120 1.0975
C86 C 0.8902(8) 0.3481(6) 1.1411(3)
H77 H 0.8366 0.3037 1.1378
H78 H 0.8904 0.3832 1.1611
H79 H 0.9255 0.3283 1.1484
C87 C 0.8991(11) 0.2691(8) 1.0771(4)
H80 H 0.8913 0.2473 1.1020
C88 C 0.8894(11) 0.2174(7) 1.0440(5)
C89 C 0.8781(13) 0.1423(9) 1.0469(5)
H81 H 0.8781 0.1210 1.0712
C90 C 0.8663(12) 0.0966(9) 1.0138(6)
H82 H 0.8578 0.0444 1.0148
C91 C 0.8680(12) 0.1310(9) 0.9815(4)
H83 H 0.8589 0.1012 0.9588
C92 C 0.8816(11) 0.2055(8) 0.9780(4)
H84 H 0.8845 0.2269 0.9533
C93 C 1.1545(11) 0.7271(9) 0.8391(3)
H85 H 1.1551 0.6913 0.8571
C94 C 1.2035(13) 0.8079(10) 0.8441(3)
H86 H 1.2375 0.8272 0.8656
C95 C 1.2027(11) 0.8604(6) 0.8177(5)
H87 H 1.2362 0.9156 0.8211
C96 C 1.1530(11) 0.8322(8) 0.7862(4)
H88 H 1.1524 0.8681 0.7681
C97 C 1.1040(12) 0.7515(9) 0.7812(3)
H89 H 1.0700 0.7322 0.7597
C98 C 1.1047(9) 0.6989(6) 0.8076(4)
C99 C 1.0555(13) 0.6100(8) 0.8056(5)
H90 H 1.0523 0.5875 0.8316
C100 C 1.0982(13) 0.5793(10) 0.7775(4)
H91 H 1.0673 0.5216 0.7759
H92 H 1.1510 0.5953 0.7872
H93 H 1.1025 0.6020 0.7521
C101 C 0.9555(14) 0.5608(10) 0.7624(7)
H94 H 0.9926 0.5576 0.7462
N17 N 0.8212(7) 0.5317(4) 0.7754(2)
C102 C 0.8692(7) 0.5272(5) 0.7475(3)
C103 C 0.8379(9) 0.4956(6) 0.7119(3)
H95 H 0.8706 0.4925 0.6928
C104 C 0.7587(10) 0.4687(6) 0.7043(3)
H96 H 0.7373 0.4471 0.6800
C105 C 0.7109(9) 0.4733(6) 0.7323(4)
H97 H 0.6567 0.4548 0.7271
C106 C 0.7421(7) 0.5048(5) 0.7678(3)
H98 H 0.7093 0.5079 0.7869
C107 C 0.8815(18) 0.7218(14) 0.7494(5)
C108 C 0.9625(19) 0.7669(13) 0.7438(7)
H99 H 0.9966 0.7918 0.7648
C109 C 0.9936(17) 0.7757(12) 0.7073(10)
H100 H 1.0489 0.8065 0.7034
C110 C 0.9437(20) 0.7393(15) 0.6765(6)
H101 H 0.9649 0.7453 0.6516
C111 C 0.8627(18) 0.6942(12) 0.6821(6)
H102 H 0.8286 0.6694 0.6611
C112 C 0.8316(14) 0.6855(10) 0.7186(9)
H103 H 0.7763 0.6547 0.7225
C113 C 0.8500(24) 0.7190(13) 0.7834(6)
H104 H 0.7962 0.6708 0.7833
C114 C 0.8394(18) 0.7797(13) 0.7930(6)
H105 H 0.8140 0.7697 0.8180
H106 H 0.8058 0.7851 0.7739
H107 H 0.8906 0.8284 0.7939
C115 C 0.9440(15) 0.7520(11) 0.8342(6)
H108 H 0.9510 0.8034 0.8314
N18 N 0.9576(8) 0.6540(6) 0.8677(2)
C116 C 0.9767(8) 0.7326(6) 0.8662(3)
C117 C 1.0234(7) 0.7848(4) 0.8944(4)
H109 H 1.0364 0.8385 0.8934
C118 C 1.0512(11) 0.7586(7) 0.9242(3)
H110 H 1.0832 0.7943 0.9435
C119 C 1.0323(10) 0.6801(8) 0.9257(2)
H111 H 1.0514 0.6622 0.9461
C120 C 0.9855(7) 0.6278(5) 0.8975(3)
H112 H 0.9726 0.5742 0.8985
C121 C 0.7470(8) 0.3355(6) 1.0399(3)
C122 C 0.7425(9) 0.4141(7) 1.1008(4)
C123 C 0.9161(9) 0.3737(6) 0.9222(4)
C124 C 0.9810(13) 0.3090(9) 0.8826(4)
C125 C 0.9591(13) 0.3693(9) 0.8146(5)
C126 C 0.8957(12) 0.4408(8) 0.8521(4)
C127 C 1.0348(11) 0.4617(9) 0.8763(3)
C128 C 0.8426(12) 0.2777(8) 0.8593(4)
N19 N 1.0402(8) 0.4180(6) 1.0017(2)
N20 N 0.9565(7) 0.4877(5) 1.0189(2)
N21 N 0.9173(9) 0.3416(7) 1.0738(3)
N22 N 0.8912(8) 0.2505(6) 1.0099(3)
N23 N 0.9082(8) 0.3748(6) 0.9537(3)
N24 N 0.8037(7) 0.3377(5) 1.0229(3)
N25 N 1.0052(10) 0.2667(7) 0.8936(3)
N26 N 1.0978(11) 0.5210(8) 0.8838(4)
N27 N 0.9719(11) 0.3688(8) 0.7836(4)
N28 N 0.7898(9) 0.4705(7) 1.1191(3)
N29 N 0.8762(10) 0.4868(7) 0.8433(3)
N30 N 0.9774(12) 0.5905(7) 0.7934(4)
N31 N 0.9049(12) 0.6977(8) 0.8091(4)
N32 N 0.7861(9) 0.2176(6) 0.8512(3)
Ni3A Ni 0.63305(8) 0.55014(14) 1.01254(4)
Ni3B Ni 0.44986(14) 0.08291(11) 1.01254(4)
Ni4B Ni 0.70041(17) 0.11587(14) 0.82388(5)
Ni4A Ni 0.41546(10) 0.29959(17) 0.82388(5)
Fe4A Fe 0.62885(10) 0.56767(17) 0.86830(5)
Fe4B Fe 0.43233(17) 0.06118(14) 0.86830(5)
C65A C 0.7397(8) 0.8176(14) 1.0172(4)
C65B C 0.1824(14) -0.0779(11) 1.0172(4)
H57A H 0.7721 0.8182 0.9969
H57B H 0.1818 -0.0461 0.9969
C66A C 0.7709(10) 0.8732(16) 1.0477(6)
C66B C 0.1268(16) -0.1023(13) 1.0477(6)
H58A H 0.8262 0.9085 1.0491
H58B H 0.0915 -0.0823 1.0491
C67A C 0.7222(15) 0.8764(24) 1.0753(5)
C67B C 0.1236(24) -0.1542(19) 1.0753(5)
H59A H 0.7423 0.9172 1.0939
H59B H 0.0828 -0.1749 1.0939
C68A C 0.6467(12) 0.8211(20) 1.0751(5)
C68B C 0.1789(20) -0.1744(16) 1.0751(5)
H60A H 0.6146 0.8218 1.0953
H60B H 0.1782 -0.2072 1.0953
C69A C 0.6117(10) 0.7640(16) 1.0488(4)
C69B C 0.2360(16) -0.1523(13) 1.0488(4)
H61A H 0.5572 0.7259 1.0501
H61B H 0.2741 -0.1687 1.0501
C70A C 0.6604(7) 0.7632(11) 1.0186(4)
C70B C 0.2368(11) -0.1028(9) 1.0186(4)
C71A C 0.6232(6) 0.7015(10) 0.9865(3)
C71B C 0.2985(10) -0.0783(8) 0.9865(3)
H62A H 0.6674 0.7059 0.9703
H62B H 0.2941 -0.0385 0.9703
C72A C 0.5724(9) 0.7228(15) 0.9610(4)
C72B C 0.2772(15) -0.1504(12) 0.9610(4)
H63A H 0.5498 0.6846 0.9401
H63B H 0.3154 -0.1348 0.9401
H64A H 0.6053 0.7759 0.9505
H64B H 0.2241 -0.1706 0.9505
H65A H 0.5297 0.7214 0.9763
H65B H 0.2786 -0.1917 0.9763
C73A C 0.5069(7) 0.5824(12) 1.0037(3)
C73B C 0.4176(12) -0.0755(10) 1.0037(3)
H66A H 0.4769 0.6069 0.9975
H66B H 0.3931 -0.1300 0.9975
C74A C 0.4669(8) 0.5002(14) 1.0152(3)
C74B C 0.4998(14) -0.0333(11) 1.0152(3)
C75A C 0.3880(8) 0.4582(14) 1.0190(3)
C75B C 0.5418(14) -0.0702(11) 1.0190(3)
H67A H 0.3576 0.4834 1.0161
H67B H 0.5166 -0.1258 1.0161
C76A C 0.3520(8) 0.3800(14) 1.0269(3)
C76B C 0.6200(14) -0.0280(12) 1.0269(3)
H68A H 0.2966 0.3507 1.0306
H68B H 0.6493 -0.0541 1.0306
C77A C 0.3975(8) 0.3423(14) 1.0294(3)
C77B C 0.6577(14) 0.0552(11) 1.0294(3)
H69A H 0.3746 0.2870 1.0329
H69B H 0.7130 0.0876 1.0329
C78A C 0.4782(8) 0.3927(14) 1.0265(3)
C78B C 0.6073(14) 0.0855(11) 1.0265(3)
H70A H 0.5114 0.3708 1.0301
H70B H 0.6292 0.1406 1.0301
C79A C 0.5444(6) 0.6102(10) 1.1049(2)
C79B C 0.3898(10) -0.0658(8) 1.1049(2)
H71A H 0.5942 0.6568 1.1021
H71B H 0.3432 -0.0626 1.1021
C80A C 0.4762(8) 0.6153(13) 1.1070(2)
C80B C 0.3847(13) -0.1391(10) 1.1070(2)
H72A H 0.4794 0.6653 1.1057
H72B H 0.3347 -0.1859 1.1057
C81A C 0.4033(6) 0.5472(12) 1.1112(2)
C81B C 0.4528(12) -0.1439(10) 1.1112(2)
H73A H 0.3566 0.5507 1.1127
H73B H 0.4493 -0.1941 1.1127
C82A C 0.3986(5) 0.4741(9) 1.1132(2)
C82B C 0.5259(9) -0.0755(8) 1.1132(2)
H74A H 0.3487 0.4275 1.1161
H74B H 0.5725 -0.0788 1.1161
C83A C 0.4668(7) 0.4690(11) 1.1111(2)
C83B C 0.5310(11) -0.0022(9) 1.1111(2)
H75A H 0.4636 0.4190 1.1125
H75B H 0.5810 0.0446 1.1125
C84A C 0.5397(6) 0.5371(11) 1.1069(2)
C84B C 0.4629(11) 0.0026(9) 1.1069(2)
C85A C 0.6074(7) 0.5253(12) 1.1046(4)
C85B C 0.4747(12) 0.0821(10) 1.1046(4)
H76A H 0.5880 0.4691 1.0975
H76B H 0.5309 0.1189 1.0975
C86A C 0.6519(6) 0.5421(10) 1.1411(3)
C86B C 0.4579(10) 0.1098(8) 1.1411(3)
H77A H 0.6963 0.5329 1.1378
H77B H 0.4671 0.1634 1.1378
H78A H 0.6168 0.5072 1.1611
H78B H 0.4928 0.1096 1.1611
H79A H 0.6717 0.5972 1.1484
H79B H 0.4028 0.0745 1.1484
C87A C 0.7309(8) 0.6300(14) 1.0771(4)
C87B C 0.3700(14) 0.1009(11) 1.0771(4)
H80A H 0.7527 0.6440 1.1020
H80B H 0.3560 0.1087 1.1020
C88A C 0.7826(7) 0.6720(13) 1.0440(5)
C88B C 0.3280(13) 0.1106(11) 1.0440(5)
C89A C 0.8577(9) 0.7358(16) 1.0469(5)
C89B C 0.2642(16) 0.1219(13) 1.0469(5)
H81A H 0.8790 0.7571 1.0712
H81B H 0.2429 0.1219 1.0712
C90A C 0.9034(9) 0.7697(15) 1.0138(6)
C90B C 0.2303(15) 0.1337(12) 1.0138(6)
H82A H 0.9556 0.8134 1.0148
H82B H 0.1866 0.1422 1.0148
C91A C 0.8690(9) 0.7370(15) 0.9815(4)
C91B C 0.2630(15) 0.1320(12) 0.9815(4)
H83A H 0.8988 0.7577 0.9588
H83B H 0.2423 0.1411 0.9588
C92A C 0.7945(8) 0.6761(14) 0.9780(4)
C92B C 0.3239(14) 0.1184(11) 0.9780(4)
H84A H 0.7731 0.6576 0.9533
H84B H 0.3424 0.1155 0.9533
C93B C 0.5726(14) -0.1545(11) 0.8391(3)
C93A C 0.2729(9) 0.4274(14) 0.8391(3)
H85B H 0.5362 -0.1551 0.8571
H85A H 0.3087 0.4638 0.8571
C94B C 0.6044(16) -0.2035(13) 0.8441(3)
C94A C 0.1921(10) 0.3956(16) 0.8441(3)
H86B H 0.5897 -0.2375 0.8656
H86A H 0.1728 0.4103 0.8656
C95B C 0.6577(13) -0.2027(11) 0.8177(5)
C95A C 0.1396(6) 0.3423(13) 0.8177(5)
H87B H 0.6794 -0.2362 0.8211
H87A H 0.0844 0.3206 0.8211
C96B C 0.6792(14) -0.1530(11) 0.7862(4)
C96A C 0.1678(8) 0.3208(14) 0.7862(4)
H88B H 0.7157 -0.1524 0.7681
H88A H 0.1319 0.2843 0.7681
C97B C 0.6475(15) -0.1040(12) 0.7812(3)
C97A C 0.2485(9) 0.3525(15) 0.7812(3)
H89B H 0.6622 -0.0700 0.7597
H89A H 0.2678 0.3378 0.7597
C98B C 0.5942(11) -0.1047(9) 0.8076(4)
C98A C 0.3011(6) 0.4058(11) 0.8076(4)
C99B C 0.5545(15) -0.0555(13) 0.8056(5)
C99A C 0.3900(8) 0.4455(15) 0.8056(5)
H90B H 0.5352 -0.0523 0.8316
H90A H 0.4125 0.4648 0.8316
C100B C 0.4811(16) -0.0982(13) 0.7775(4)
C100A C 0.4207(10) 0.5189(16) 0.7775(4)
H91B H 0.4543 -0.0673 0.7759
H91A H 0.4784 0.5457 0.7759
H92B H 0.4443 -0.1510 0.7872
H92A H 0.4047 0.5557 0.7872
H93B H 0.4995 -0.1025 0.7521
H93A H 0.3980 0.5005 0.7521
C101B C 0.6053(17) 0.0445(14) 0.7624(7)
C101A C 0.4392(10) 0.3947(17) 0.7624(7)
H94B H 0.5650 0.0074 0.7462
H94A H 0.4424 0.4350 0.7462
N17B N 0.7105(8) 0.1788(7) 0.7754(2)
N17A N 0.4683(4) 0.2895(8) 0.7754(2)
C102B C 0.6580(9) 0.1308(7) 0.7475(3)
C102A C 0.4728(5) 0.3420(9) 0.7475(3)
C103B C 0.6577(11) 0.1621(9) 0.7119(3)
C103A C 0.5044(6) 0.3423(11) 0.7119(3)
H95B H 0.6219 0.1294 0.6928
H95A H 0.5075 0.3781 0.6928
C104B C 0.7100(12) 0.2413(10) 0.7043(3)
C104A C 0.5313(6) 0.2900(12) 0.7043(3)
H96B H 0.7098 0.2627 0.6800
H96A H 0.5529 0.2902 0.6800
C105B C 0.7624(11) 0.2891(9) 0.7323(4)
C105A C 0.5267(6) 0.2376(11) 0.7323(4)
H97B H 0.7981 0.3433 0.7271
H97A H 0.5452 0.2019 0.7271
C106B C 0.7627(9) 0.2579(7) 0.7678(3)
C106A C 0.4952(5) 0.2373(9) 0.7678(3)
H98B H 0.7986 0.2907 0.7869
H98A H 0.4921 0.2014 0.7869
C107B C 0.8403(23) 0.1185(18) 0.7494(5)
C107A C 0.2782(14) 0.1597(23) 0.7494(5)
C108B C 0.8044(23) 0.0375(19) 0.7438(7)
C108A C 0.2331(13) 0.1956(23) 0.7438(7)
H99B H 0.7952 0.0034 0.7648
H99A H 0.2082 0.2048 0.7648
C109B C 0.7821(21) 0.0064(17) 0.7073(10)
C109A C 0.2243(12) 0.2179(21) 0.7073(10)
H100B H 0.7576 -0.0489 0.7034
H100A H 0.1935 0.2424 0.7034
C110B C 0.7956(25) 0.0563(20) 0.6765(6)
C110A C 0.2607(15) 0.2044(25) 0.6765(6)
H101B H 0.7804 0.0351 0.6516
H101A H 0.2547 0.2196 0.6516
C111B C 0.8315(22) 0.1373(18) 0.6821(6)
C111A C 0.3058(12) 0.1685(22) 0.6821(6)
H102B H 0.8408 0.1714 0.6611
H102A H 0.3306 0.1592 0.6611
C112B C 0.8539(17) 0.1684(14) 0.7186(9)
C112A C 0.3145(10) 0.1461(17) 0.7186(9)
H103B H 0.8784 0.2237 0.7225
H103A H 0.3453 0.1216 0.7225
C113B C 0.8690(27) 0.1500(24) 0.7834(6)
C113A C 0.2810(13) 0.1310(27) 0.7834(6)
H104B H 0.8746 0.2038 0.7833
H104A H 0.3292 0.1254 0.7833
C114B C 0.9403(22) 0.1606(18) 0.7930(6)
C114A C 0.2203(13) 0.0597(22) 0.7930(6)
H105B H 0.9557 0.1860 0.8180
H105A H 0.2303 0.0443 0.8180
H106B H 0.9793 0.1942 0.7739
H106A H 0.2149 0.0207 0.7739
H107B H 0.9378 0.1094 0.7939
H107A H 0.1716 0.0622 0.7939
C115B C 0.8080(19) 0.0560(15) 0.8342(6)
C115A C 0.2480(11) 0.1920(19) 0.8342(6)
H108B H 0.8524 0.0490 0.8314
H108A H 0.1966 0.1476 0.8314
N18B N 0.6964(10) 0.0424(8) 0.8677(2)
N18A N 0.3460(6) 0.3036(10) 0.8677(2)
C116B C 0.7559(10) 0.0233(8) 0.8662(3)
C116A C 0.2674(6) 0.2441(10) 0.8662(3)
C117B C 0.7614(8) -0.0234(7) 0.8944(4)
C117A C 0.2152(4) 0.2386(8) 0.8944(4)
H109B H 0.8021 -0.0364 0.8934
H109A H 0.1615 0.1979 0.8934
C118B C 0.7074(13) -0.0512(11) 0.9242(3)
C118A C 0.2414(7) 0.2926(13) 0.9242(3)
H110B H 0.7111 -0.0832 0.9435
H110A H 0.2057 0.2889 0.9435
C119B C 0.6478(13) -0.0323(10) 0.9257(2)
C119A C 0.3199(8) 0.3522(13) 0.9257(2)
H111B H 0.6108 -0.0514 0.9461
H111A H 0.3378 0.3892 0.9461
C120B C 0.6423(9) 0.0145(7) 0.8975(3)
C120A C 0.3722(5) 0.3577(9) 0.8975(3)
H112B H 0.6016 0.0274 0.8985
H112A H 0.4258 0.3984 0.8985
C121A C 0.6645(6) 0.4115(10) 1.0399(3)
C121B C 0.5885(10) 0.2530(8) 1.0399(3)
C122A C 0.5859(7) 0.3284(11) 1.1008(4)
C122B C 0.6716(11) 0.2575(9) 1.1008(4)
C123A C 0.6263(6) 0.5424(11) 0.9222(4)
C123B C 0.4576(11) 0.0839(9) 0.9222(4)
C124B C 0.3280(16) 0.0190(13) 0.8826(4)
C124A C 0.6910(9) 0.6720(16) 0.8826(4)
C125B C 0.4102(16) 0.0409(13) 0.8146(5)
C125A C 0.6307(9) 0.5898(16) 0.8146(5)
C126B C 0.5451(14) 0.1043(12) 0.8521(4)
C126A C 0.5592(8) 0.4549(14) 0.8521(4)
C127B C 0.4269(14) -0.0348(11) 0.8763(3)
C127A C 0.5383(9) 0.5731(14) 0.8763(3)
C128A C 0.7223(8) 0.5649(14) 0.8593(4)
C128B C 0.4351(14) 0.1574(12) 0.8593(4)
N19A N 0.5820(6) 0.6222(10) 1.0017(2)
N19B N 0.3778(10) -0.0402(8) 1.0017(2)
N20A N 0.5123(5) 0.4688(9) 1.0189(2)
N20B N 0.5312(9) 0.0435(7) 1.0189(2)
N21A N 0.6584(7) 0.5757(11) 1.0738(3)
N21B N 0.4243(11) 0.0827(9) 1.0738(3)
N22A N 0.7495(6) 0.6407(10) 1.0099(3)
N22B N 0.3593(10) 0.1088(8) 1.0099(3)
N23A N 0.6252(6) 0.5334(10) 0.9537(3)
N23B N 0.4666(10) 0.0918(8) 0.9537(3)
N24A N 0.6623(5) 0.4660(9) 1.0229(3)
N24B N 0.5340(9) 0.1963(7) 1.0229(3)
N25B N 0.2615(12) -0.0052(10) 0.8936(3)
N25A N 0.7333(7) 0.7385(12) 0.8936(3)
N26B N 0.4232(14) -0.0978(11) 0.8838(4)
N26A N 0.4790(8) 0.5768(14) 0.8838(4)
N27B N 0.3969(14) 0.0281(11) 0.7836(4)
N27A N 0.6312(8) 0.6031(14) 0.7836(4)
N28A N 0.5295(7) 0.3193(11) 1.1191(3)
N28B N 0.6807(11) 0.2102(9) 1.1191(3)
N29B N 0.6106(12) 0.1238(10) 0.8433(3)
N29A N 0.5132(7) 0.3894(12) 0.8433(3)
N30B N 0.6131(14) 0.0226(12) 0.7934(4)
N30A N 0.4095(7) 0.3869(14) 0.7934(4)
N31B N 0.7928(14) 0.0951(12) 0.8091(4)
N31A N 0.3023(8) 0.2072(14) 0.8091(4)
N32A N 0.7824(6) 0.5685(11) 0.8512(3)
N32B N 0.4315(11) 0.2139(9) 0.8512(3)
C129 C 0.655(4) 0.3073(15) 0.8431(7)
C130 C 0.6182(17) 0.2955(19) 0.8809(7)
C131 C 0.5784(22) 0.2796(15) 0.9191(9)
C132 C 0.6105(24) 0.3100(14) 0.9505(9)
N33 N 0.6667 0.3333 0.9172(4)
C133 C 0.5342(12) 0.3077(8) 0.9420(5)
C129A C 0.6927(15) 0.3477(43) 0.8431(7)
C129B C 0.6523(43) 0.345(4) 0.8431(7)
C130B C 0.6773(25) 0.3818(17) 0.8809(7)
C130A C 0.7045(19) 0.3227(25) 0.8809(7)
C131A C 0.7204(15) 0.2988(27) 0.9191(9)
C131B C 0.7012(27) 0.4216(22) 0.9191(9)
C132A C 0.6900(14) 0.3005(28) 0.9505(9)
C132B C 0.6995(28) 0.3895(24) 0.9505(9)
C133B C 0.7735(14) 0.4658(12) 0.9420(5)
C133A C 0.6923(8) 0.2265(14) 0.9420(5)
C134 C 0.001(4) -0.022(3) 0.4546(9)
C135 C 0.0463(17) 0.009(2) 0.4190(7)
C136 C -0.0303(21) -0.0583(14) 0.3519(7)
C137 C -0.0196(11) -0.1298(8) 0.3585(4)
N34 N 0.0000 0.0000 0.3833(4)
C138 C 0.0852(9) 0.0424(14) 0.3850(7)
C134A C 0.022(3) 0.023(5) 0.4546(9)
C134B C -0.023(5) -0.001(4) 0.4546(9)
C135A C -0.009(2) 0.0373(26) 0.4190(7)
C135B C -0.0373(26) -0.0463(17) 0.4190(7)
C136A C 0.0583(14) 0.0280(25) 0.3519(7)
C136B C -0.0280(25) 0.0303(21) 0.3519(7)
C137A C 0.1298(8) 0.1102(14) 0.3585(4)
C137B C -0.1102(14) 0.0196(11) 0.3585(4)
C138A C -0.0424(14) 0.0428(17) 0.3850(7)
C138B C -0.0428(17) -0.0852(9) 0.3850(7)
P1 P 0.3333 0.6667 0.2789(3)
F1 F 0.3053(8) 0.5914(5) 0.3036(3)
F4 F 0.2518(10) 0.6152(7) 0.2569(4)
F1A F 0.4086(5) 0.7139(9) 0.3036(3)
F1B F 0.2861(9) 0.6947(8) 0.3036(3)
F4A F 0.3848(7) 0.6366(12) 0.2569(4)
F4B F 0.3634(12) 0.7482(10) 0.2569(4)
F2 F 0.3609(7) 0.6216(5) -0.0057(3)
P2 P 0.3333 0.6667 0.0218(2)
F3 F 0.2794(9) 0.5841(6) 0.0443(4)
F2B F 0.2607(9) 0.6391(7) -0.0057(3)
F2A F 0.3784(5) 0.7393(9) -0.0057(3)
F3A F 0.4159(6) 0.6953(11) 0.0443(4)
F3B F 0.3047(11) 0.7206(9) 0.0443(4)
Ni1 Ni 0.21721(12) -0.03347(9) 0.28848(4)
Fe1 Fe 0.0000 0.0000 0.23059(7)
Ni2 Ni -0.03398(14) -0.25147(10) 0.47684(5)
Fe2 Fe 0.23399(15) -0.03746(11) 0.43264(5)
C1 C 0.2746(8) -0.1234(5) 0.1963(2)
H1 H 0.3210 -0.0736 0.1996
C2 C 0.2799(9) -0.1914(7) 0.1934(2)
H2 H 0.3298 -0.1882 0.1947
C3 C 0.2120(7) -0.2642(5) 0.1886(2)
H3 H 0.2156 -0.3107 0.1866
C4 C 0.1388(9) -0.2690(5) 0.1867(2)
H4 H 0.0923 -0.3188 0.1834
C5 C 0.1334(9) -0.2010(7) 0.1895(2)
H5 H 0.0835 -0.2042 0.1882
C6 C 0.2013(7) -0.1282(5) 0.1944(2)
C7 C 0.1959(10) -0.0557(7) 0.1967(4)
H6 H 0.1402 -0.0739 0.2045
C8 C 0.2066(9) -0.0139(7) 0.1591(3)
H7 H 0.2031 0.0338 0.1631
H8 H 0.1654 -0.0490 0.1413
H9 H 0.2586 0.0008 0.1485
C9 C 0.2985(11) 0.0673(9) 0.2256(4)
H10 H 0.3110 0.0902 0.2009
C10 C 0.3398(11) 0.1153(8) 0.2575(4)
C11 C 0.4018(11) 0.1884(8) 0.2553(5)
H11 H 0.4218 0.2079 0.2306
C12 C 0.4386(11) 0.2369(8) 0.2847(5)
H12 H 0.4822 0.2887 0.2818
C13 C 0.4066(11) 0.2037(9) 0.3197(4)
H13 H 0.4275 0.2341 0.3423
C14 C 0.3433(9) 0.1253(7) 0.3226(4)
H14 H 0.3259 0.1029 0.3472
C15 C 0.4847(11) 0.0741(8) 0.2844(4)
H15 H 0.4849 0.1076 0.3040
C16 C 0.5437(14) 0.1035(10) 0.2528(6)
H16 H 0.5835 0.1575 0.2514
C17 C 0.5390(20) 0.0504(18) 0.2257(5)
H17 H 0.5761 0.0702 0.2054
C18 C 0.4858(19) -0.0277(13) 0.2255(6)
H18 H 0.4862 -0.0625 0.2067
C19 C 0.4314(11) -0.0529(8) 0.2542(4)
H19 H 0.3918 -0.1071 0.2541
C20 C 0.4286(11) -0.0072(8) 0.2830(3)
C21 C 0.3680(8) -0.0450(6) 0.3147(3)
H20 H 0.3736 -0.0008 0.3311
C22 C 0.3930(10) -0.0965(7) 0.3407(3)
H21 H 0.3552 -0.1203 0.3617
H22 H 0.4459 -0.0625 0.3510
H23 H 0.3927 -0.1383 0.3252
C23 C 0.2520(10) -0.1560(8) 0.2969(3)
H24 H 0.2787 -0.1841 0.3026
C24 C 0.1683(10) -0.2001(7) 0.2865(3)
C25 C 0.1242(10) -0.2813(7) 0.2827(3)
H25 H 0.1496 -0.3116 0.2855
C26 C 0.0480(11) -0.3179(8) 0.2752(4)
H26 H 0.0174 -0.3737 0.2731
C27 C 0.0147(14) -0.2687(10) 0.2705(3)
H27 H -0.0399 -0.2919 0.2645
C28 C 0.0599(10) -0.1875(7) 0.2744(3)
H28 H 0.0359 -0.1557 0.2729
C29 C -0.1711(19) -0.4376(17) 0.5534(7)
C30 C -0.1138(18) -0.4101(10) 0.5817(9)
H29 H -0.0791 -0.3550 0.5848
C31 C -0.1069(26) -0.463(2) 0.6056(6)
H30 H -0.0679 -0.4444 0.6249
C32 C -0.1578(21) -0.5438(19) 0.6011(7)
H31 H -0.1532 -0.5800 0.6174
C33 C -0.2152(19) -0.5713(10) 0.5728(9)
H32 H -0.2499 -0.6264 0.5698
C34 C -0.2217(26) -0.518(2) 0.5490(6)
H33 H -0.2612 -0.5371 0.5297
C35 C -0.1869(14) -0.3825(10) 0.5272(5)
H34 H -0.1819 -0.3351 0.5406
C36 C -0.2666(15) -0.4344(11) 0.5102(5)
H35 H -0.2845 -0.4018 0.4973
H36 H -0.3040 -0.4650 0.5305
H37 H -0.2635 -0.4704 0.4918
C37 C -0.1376(13) -0.4120(10) 0.4670(5)
H38 H -0.1823 -0.4632 0.4697
C38 C -0.0893(14) -0.4025(11) 0.4352(5)
C39 C -0.0980(15) -0.4553(11) 0.4082(5)
H39 H -0.1406 -0.5081 0.4090
C40 C -0.0478(17) -0.4320(13) 0.3823(6)
H40 H -0.0524 -0.4720 0.3653
C41 C 0.0164(17) -0.3535(14) 0.3739(5)
H41 H 0.0512 -0.3387 0.3527
C42 C 0.0180(16) -0.3080(11) 0.4000(5)
H42 H 0.0595 -0.2550 0.3974
C43 C 0.0873(11) -0.3988(8) 0.4595(3)
H43 H 0.1190 -0.3654 0.4394
C44 C 0.0559(11) -0.4799(9) 0.4569(3)
H44 H 0.0663 -0.5019 0.4350
C45 C 0.0095(9) -0.5287(6) 0.4862(5)
H45 H -0.0120 -0.5842 0.4844
C46 C -0.0056(12) -0.4964(8) 0.5182(4)
H46 H -0.0374 -0.5298 0.5383
C47 C 0.0258(11) -0.4153(9) 0.5209(3)
H47 H 0.0154 -0.3933 0.5427
C48 C 0.0722(8) -0.3665(6) 0.4915(3)
C49 C 0.1123(13) -0.2770(10) 0.4984(5)
H48 H 0.1303 -0.2525 0.4727
C50 C 0.1871(14) -0.2429(10) 0.5226(5)
H49 H 0.2111 -0.1854 0.5240
H50 H 0.2245 -0.2563 0.5111
H51 H 0.1736 -0.2651 0.5484
C51 C 0.0590(13) -0.2204(9) 0.5426(5)
H52 H 0.1014 -0.2122 0.5587
C52 C 0.0074(8) -0.1914(6) 0.5571(4)
C53 C 0.0040(11) -0.1605(7) 0.5923(3)
H53 H 0.0382 -0.1572 0.6123
C54 C -0.0495(11) -0.1345(6) 0.5982(3)
H54 H -0.0518 -0.1134 0.6222
C55 C -0.0996(9) -0.1394(7) 0.5689(4)
H55 H -0.1362 -0.1216 0.5729
C56 C -0.0963(9) -0.1703(6) 0.5337(3)
H56 H -0.1306 -0.1737 0.5137
N1 N -0.0427(9) -0.1963(5) 0.5278(3)
C57 C 0.0824(11) -0.0016(7) 0.2620(3)
C58 C 0.0822(8) 0.0784(6) 0.2000(3)
C59 C 0.2079(10) -0.0420(7) 0.3775(4)
C60 C 0.3534(13) 0.0328(10) 0.4153(5)
C61 C 0.2577(12) -0.0348(9) 0.4862(4)
C62 C 0.1270(11) -0.1027(8) 0.4466(3)
C63 C 0.2438(13) -0.1322(8) 0.4238(4)
C64 C 0.2312(13) 0.0568(9) 0.4424(4)
N2 N 0.2456(9) -0.0047(7) 0.2288(3)
N3 N 0.3048(8) 0.0788(6) 0.2900(3)
N4 N 0.2898(7) -0.0810(5) 0.2984(2)
N5 N 0.1363(8) -0.1547(5) 0.2803(2)
N6 N 0.2005(8) -0.0416(6) 0.3468(3)
N7 N 0.1335(8) -0.0035(5) 0.2780(3)
N8 N 0.4114(13) 0.0719(9) 0.4060(4)
N9 N 0.2429(10) -0.1913(7) 0.4174(3)
N10 N 0.2702(10) -0.0346(7) 0.5187(3)
N11 N 0.1356(8) 0.1247(6) 0.1828(3)
N12 N 0.0633(9) -0.1473(7) 0.4565(3)
N13 N -0.1306(11) -0.3625(7) 0.4926(4)
N14 N -0.0280(9) -0.3204(7) 0.4311(4)
N15 N 0.0535(10) -0.2561(7) 0.5103(3)
N16 N 0.2324(11) 0.1170(7) 0.4500(4)
Ni1B Ni -0.25068(15) -0.21721(12) 0.28848(4)
Ni1A Ni 0.03347(9) 0.25068(15) 0.28848(4)
Ni2A Ni 0.25147(10) 0.21749(17) 0.47684(5)
Ni2B Ni -0.21749(17) 0.03398(14) 0.47684(5)
Fe2B Fe -0.27145(19) -0.23399(15) 0.43264(5)
Fe2A Fe 0.03746(11) 0.27145(19) 0.43264(5)
C1B C -0.3980(9) -0.2746(8) 0.1963(2)
C1A C 0.1234(5) 0.3980(9) 0.1963(2)
H1B H -0.3946 -0.3210 0.1996
H1A H 0.0736 0.3946 0.1996
C2B C -0.4713(11) -0.2799(9) 0.1934(2)
C2A C 0.1914(7) 0.4713(11) 0.1934(2)
H2B H -0.5180 -0.3298 0.1947
H2A H 0.1882 0.5180 0.1947
C3B C -0.4762(9) -0.2120(7) 0.1886(2)
C3A C 0.2642(5) 0.4762(9) 0.1886(2)
H3B H -0.5263 -0.2156 0.1866
H3A H 0.3107 0.5263 0.1866
C4B C -0.4078(10) -0.1388(9) 0.1867(2)
C4A C 0.2690(5) 0.4078(10) 0.1867(2)
H4B H -0.4111 -0.0923 0.1834
H4A H 0.3188 0.4111 0.1834
C5B C -0.3344(11) -0.1334(9) 0.1895(2)
C5A C 0.2010(7) 0.3344(11) 0.1895(2)
H5B H -0.2877 -0.0835 0.1882
H5A H 0.2042 0.2877 0.1882
C6B C -0.3295(9) -0.2013(7) 0.1944(2)
C6A C 0.1282(5) 0.3295(9) 0.1944(2)
C7B C -0.2516(12) -0.1959(10) 0.1967(4)
C7A C 0.0557(7) 0.2516(12) 0.1967(4)
H6B H -0.2141 -0.1402 0.2045
H6A H 0.0739 0.2141 0.2045
C8B C -0.2205(11) -0.2066(9) 0.1591(3)
C8A C 0.0139(7) 0.2205(11) 0.1591(3)
H7B H -0.1693 -0.2031 0.1631
H7A H -0.0338 0.1693 0.1631
H8B H -0.2144 -0.1654 0.1413
H8A H 0.0490 0.2144 0.1413
H9B H -0.2578 -0.2586 0.1485
H9A H -0.0008 0.2578 0.1485
C9B C -0.2312(14) -0.2985(11) 0.2256(4)
C9A C -0.0673(9) 0.2312(14) 0.2256(4)
H10B H -0.2208 -0.3110 0.2009
H10A H -0.0902 0.2208 0.2009
C10B C -0.2245(14) -0.3398(11) 0.2575(4)
C10A C -0.1153(8) 0.2245(14) 0.2575(4)
C11B C -0.2134(14) -0.4018(11) 0.2553(5)
C11A C -0.1884(8) 0.2134(14) 0.2553(5)
H11B H -0.2139 -0.4218 0.2306
H11A H -0.2079 0.2139 0.2306
C12B C -0.2017(14) -0.4386(11) 0.2847(5)
C12A C -0.2369(8) 0.2017(14) 0.2847(5)
H12B H -0.1935 -0.4822 0.2818
H12A H -0.2887 0.1935 0.2818
C13B C -0.2029(14) -0.4066(11) 0.3197(4)
C13A C -0.2037(9) 0.2029(14) 0.3197(4)
H13B H -0.1934 -0.4275 0.3423
H13A H -0.2341 0.1934 0.3423
C14B C -0.2180(11) -0.3433(9) 0.3226(4)
C14A C -0.1253(7) 0.2180(11) 0.3226(4)
H14B H -0.2230 -0.3259 0.3472
H14A H -0.1029 0.2230 0.3472
C15B C -0.4106(14) -0.4847(11) 0.2844(4)
C15A C -0.0741(8) 0.4106(14) 0.2844(4)
H15B H -0.3773 -0.4849 0.3040
H15A H -0.1076 0.3773 0.3040
C16B C -0.4402(17) -0.5437(14) 0.2528(6)
C16A C -0.1035(10) 0.4402(17) 0.2528(6)
H16B H -0.4260 -0.5835 0.2514
H16A H -0.1575 0.4260 0.2514
C17B C -0.4886(27) -0.5390(20) 0.2257(5)
C17A C -0.0504(18) 0.4886(27) 0.2257(5)
H17B H -0.5059 -0.5761 0.2054
H17A H -0.0702 0.5059 0.2054
C18B C -0.5135(23) -0.4858(19) 0.2255(6)
C18A C 0.0277(13) 0.5135(23) 0.2255(6)
H18B H -0.5487 -0.4862 0.2067
H18A H 0.0625 0.5487 0.2067
C19B C -0.4843(14) -0.4314(11) 0.2542(4)
C19A C 0.0529(8) 0.4843(14) 0.2542(4)
H19B H -0.4989 -0.3918 0.2541
H19A H 0.1071 0.4989 0.2541
C20B C -0.4358(14) -0.4286(11) 0.2830(3)
C20A C 0.0072(8) 0.4358(14) 0.2830(3)
C21B C -0.4130(10) -0.3680(8) 0.3147(3)
C21A C 0.0450(6) 0.4130(10) 0.3147(3)
H20B H -0.3744 -0.3736 0.3311
H20A H 0.0008 0.3744 0.3311
C22B C -0.4895(12) -0.3930(10) 0.3407(3)
C22A C 0.0965(7) 0.4895(12) 0.3407(3)
H21B H -0.4755 -0.3552 0.3617
H21A H 0.1203 0.4755 0.3617
H22B H -0.5084 -0.4459 0.3510
H22A H 0.0625 0.5084 0.3510
H23B H -0.5310 -0.3927 0.3252
H23A H 0.1383 0.5310 0.3252
C23B C -0.4080(13) -0.2520(10) 0.2969(3)
C23A C 0.1560(8) 0.4080(13) 0.2969(3)
H24B H -0.4628 -0.2787 0.3026
H24A H 0.1841 0.4628 0.3026
C24B C -0.3684(12) -0.1683(10) 0.2865(3)
C24A C 0.2001(7) 0.3684(12) 0.2865(3)
C25B C -0.4055(12) -0.1242(10) 0.2827(3)
C25A C 0.2813(7) 0.4055(12) 0.2827(3)
H25B H -0.4612 -0.1496 0.2855
H25A H 0.3116 0.4612 0.2855
C26B C -0.3659(14) -0.0480(11) 0.2752(4)
C26A C 0.3179(8) 0.3659(14) 0.2752(4)
H26B H -0.3911 -0.0174 0.2731
H26A H 0.3737 0.3911 0.2731
C27B C -0.2834(17) -0.0147(14) 0.2705(3)
C27A C 0.2687(10) 0.2834(17) 0.2705(3)
H27B H -0.2520 0.0399 0.2645
H27A H 0.2919 0.2520 0.2645
C28B C -0.2474(12) -0.0599(10) 0.2744(3)
C28A C 0.1875(7) 0.2474(12) 0.2744(3)
H28B H -0.1916 -0.0359 0.2729
H28A H 0.1557 0.1916 0.2729
C29A C 0.4376(17) 0.2665(25) 0.5534(7)
C29B C -0.2665(25) 0.1711(19) 0.5534(7)
C30A C 0.4101(10) 0.2963(21) 0.5817(9)
C30B C -0.2963(21) 0.1138(18) 0.5817(9)
H29A H 0.3550 0.2759 0.5848
H29B H -0.2759 0.0791 0.5848
C31A C 0.463(2) 0.3561(33) 0.6056(6)
C31B C -0.3561(33) 0.1069(26) 0.6056(6)
H30A H 0.4444 0.3765 0.6249
H30B H -0.3765 0.0679 0.6249
C32A C 0.5438(19) 0.3860(28) 0.6011(7)
C32B C -0.3860(28) 0.1578(21) 0.6011(7)
H31A H 0.5800 0.4268 0.6174
H31B H -0.4268 0.1532 0.6174
C33A C 0.5713(10) 0.3561(21) 0.5728(9)
C33B C -0.3561(21) 0.2152(19) 0.5728(9)
H32A H 0.6264 0.3765 0.5698
H32B H -0.3765 0.2499 0.5698
C34A C 0.518(2) 0.2963(33) 0.5490(6)
C34B C -0.2963(33) 0.2217(26) 0.5490(6)
H33A H 0.5371 0.2759 0.5297
H33B H -0.2759 0.2612 0.5297
C35A C 0.3825(10) 0.1956(17) 0.5272(5)
C35B C -0.1956(17) 0.1869(14) 0.5272(5)
H34A H 0.3351 0.1532 0.5406
H34B H -0.1532 0.1819 0.5406
C36A C 0.4344(11) 0.1678(19) 0.5102(5)
C36B C -0.1678(19) 0.2666(15) 0.5102(5)
H35A H 0.4018 0.1173 0.4973
H35B H -0.1173 0.2845 0.4973
H36A H 0.4650 0.1610 0.5305
H36B H -0.1610 0.3040 0.5305
H37A H 0.4704 0.2069 0.4918
H37B H -0.2069 0.2635 0.4918
C37A C 0.4120(10) 0.2744(16) 0.4670(5)
C37B C -0.2744(16) 0.1376(13) 0.4670(5)
H38A H 0.4632 0.2809 0.4697
H38B H -0.2809 0.1823 0.4697
C38A C 0.4025(11) 0.3132(18) 0.4352(5)
C38B C -0.3132(18) 0.0893(14) 0.4352(5)
C39A C 0.4553(11) 0.3573(19) 0.4082(5)
C39B C -0.3573(19) 0.0980(15) 0.4082(5)
H39A H 0.5081 0.3675 0.4090
H39B H -0.3675 0.1406 0.4090
C40A C 0.4320(13) 0.3842(21) 0.3823(6)
C40B C -0.3842(21) 0.0478(17) 0.3823(6)
H40A H 0.4720 0.4196 0.3653
H40B H -0.4196 0.0524 0.3653
C41A C 0.3535(14) 0.3699(22) 0.3739(5)
C41B C -0.3699(22) -0.0164(17) 0.3739(5)
H41A H 0.3387 0.3899 0.3527
H41B H -0.3899 -0.0512 0.3527
C42A C 0.3080(11) 0.3260(19) 0.4000(5)
C42B C -0.3260(19) -0.0180(16) 0.4000(5)
H42A H 0.2550 0.3145 0.3974
H42B H -0.3145 -0.0595 0.3974
C43A C 0.3988(8) 0.4861(14) 0.4595(3)
C43B C -0.4861(14) -0.0873(11) 0.4595(3)
H43A H 0.3654 0.4844 0.4394
H43B H -0.4844 -0.1190 0.4394
C44A C 0.4799(9) 0.5358(14) 0.4569(3)
C44B C -0.5358(14) -0.0559(11) 0.4569(3)
H44A H 0.5019 0.5682 0.4350
H44B H -0.5682 -0.0663 0.4350
C45A C 0.5287(6) 0.5382(11) 0.4862(5)
C45B C -0.5382(11) -0.0095(9) 0.4862(5)
H45A H 0.5842 0.5722 0.4844
H45B H -0.5722 0.0120 0.4844
C46A C 0.4964(8) 0.4908(14) 0.5182(4)
C46B C -0.4908(14) 0.0056(12) 0.5182(4)
H46A H 0.5298 0.4924 0.5383
H46B H -0.4924 0.0374 0.5383
C47A C 0.4153(9) 0.4411(14) 0.5209(3)
C47B C -0.4411(14) -0.0258(11) 0.5209(3)
H47A H 0.3933 0.4087 0.5427
H47B H -0.4087 -0.0154 0.5427
C48A C 0.3665(6) 0.4387(10) 0.4915(3)
C48B C -0.4387(10) -0.0722(8) 0.4915(3)
C49A C 0.2770(10) 0.3893(16) 0.4984(5)
C49B C -0.3893(16) -0.1123(13) 0.4984(5)
H48A H 0.2525 0.3828 0.4727
H48B H -0.3828 -0.1303 0.4727
C50A C 0.2429(10) 0.4300(17) 0.5226(5)
C50B C -0.4300(17) -0.1871(14) 0.5226(5)
H49A H 0.1854 0.3965 0.5240
H49B H -0.3965 -0.2111 0.5240
H50A H 0.2563 0.4808 0.5111
H50B H -0.4808 -0.2245 0.5111
H51A H 0.2651 0.4387 0.5484
H51B H -0.4387 -0.1736 0.5484
C51A C 0.2204(9) 0.2794(16) 0.5426(5)
C51B C -0.2794(16) -0.0590(13) 0.5426(5)
H52A H 0.2122 0.3136 0.5587
H52B H -0.3136 -0.1014 0.5587
C52A C 0.1914(6) 0.1988(10) 0.5571(4)
C52B C -0.1988(10) -0.0074(8) 0.5571(4)
C53A C 0.1605(7) 0.1645(13) 0.5923(3)
C53B C -0.1645(13) -0.0040(11) 0.5923(3)
H53A H 0.1572 0.1954 0.6123
H53B H -0.1954 -0.0382 0.6123
C54A C 0.1345(6) 0.0850(13) 0.5982(3)
C54B C -0.0850(13) 0.0495(11) 0.5982(3)
H54A H 0.1134 0.0616 0.6222
H54B H -0.0616 0.0518 0.6222
C55A C 0.1394(7) 0.0398(11) 0.5689(4)
C55B C -0.0398(11) 0.0996(9) 0.5689(4)
H55A H 0.1216 -0.0146 0.5729
H55B H 0.0146 0.1362 0.5729
C56A C 0.1703(6) 0.0740(11) 0.5337(3)
C56B C -0.0740(11) 0.0963(9) 0.5337(3)
H56A H 0.1737 0.0431 0.5137
H56B H -0.0431 0.1306 0.5137
N1A N 0.1963(5) 0.1536(10) 0.5278(3)
N1B N -0.1536(10) 0.0427(9) 0.5278(3)
C57B C -0.0840(13) -0.0824(11) 0.2620(3)
C57A C 0.0016(7) 0.0840(13) 0.2620(3)
C58A C -0.0784(6) 0.0038(10) 0.2000(3)
C58B C -0.0038(10) -0.0822(8) 0.2000(3)
C59B C -0.2499(12) -0.2079(10) 0.3775(4)
C59A C 0.0420(7) 0.2499(12) 0.3775(4)
C60A C -0.0328(10) 0.3206(16) 0.4153(5)
C60B C -0.3206(16) -0.3534(13) 0.4153(5)
C61A C 0.0348(9) 0.2925(15) 0.4862(4)
C61B C -0.2925(15) -0.2577(12) 0.4862(4)
C62A C 0.1027(8) 0.2297(14) 0.4466(3)
C62B C -0.2297(14) -0.1270(11) 0.4466(3)
C63A C 0.1322(8) 0.3760(15) 0.4238(4)
C63B C -0.3760(15) -0.2438(13) 0.4238(4)
C64B C -0.1744(16) -0.2312(13) 0.4424(4)
C64A C -0.0568(9) 0.1744(16) 0.4424(4)
N2B N -0.2503(11) -0.2456(9) 0.2288(3)
N2A N 0.0047(7) 0.2503(11) 0.2288(3)
N3B N -0.2260(10) -0.3048(8) 0.2900(3)
N3A N -0.0788(6) 0.2260(10) 0.2900(3)
N4B N -0.3708(9) -0.2898(7) 0.2984(2)
N4A N 0.0810(5) 0.3708(9) 0.2984(2)
N5B N -0.2910(9) -0.1363(8) 0.2803(2)
N5A N 0.1547(5) 0.2910(9) 0.2803(2)
N6B N -0.2421(10) -0.2005(8) 0.3468(3)
N6A N 0.0416(6) 0.2421(10) 0.3468(3)
N7B N -0.1370(9) -0.1335(8) 0.2780(3)
N7A N 0.0035(5) 0.1370(9) 0.2780(3)
N8A N -0.0719(9) 0.3395(16) 0.4060(4)
N8B N -0.3395(16) -0.4114(13) 0.4060(4)
N9A N 0.1913(7) 0.4342(12) 0.4174(3)
N9B N -0.4342(12) -0.2429(10) 0.4174(3)
N10A N 0.0346(7) 0.3048(12) 0.5187(3)
N10B N -0.3048(12) -0.2702(10) 0.5187(3)
N11A N -0.1247(6) 0.0109(10) 0.1828(3)
N11B N -0.0109(10) -0.1356(8) 0.1828(3)
N12A N 0.1473(7) 0.2106(11) 0.4565(3)
N12B N -0.2106(11) -0.0633(9) 0.4565(3)
N13A N 0.3625(7) 0.2319(13) 0.4926(4)
N13B N -0.2319(13) 0.1306(11) 0.4926(4)
N14A N 0.3204(7) 0.2924(11) 0.4311(4)
N14B N -0.2924(11) 0.0280(9) 0.4311(4)
N15A N 0.2561(7) 0.3096(12) 0.5103(3)
N15B N -0.3096(12) -0.0535(10) 0.5103(3)
N16B N -0.1154(13) -0.2324(11) 0.4500(4)
N16A N -0.1170(7) 0.1154(13) 0.4500(4)
loop_
_geom_bond_atom_site_label_1
_geom_bond_atom_site_label_2
_geom_bond_site_symmetry_1
_geom_bond_site_symmetry_2
Ni1 N2 1_555 1_555
Fe1 C57 1_555 1_555
Ni2 N1 1_555 1_555
Fe2 C59 1_555 1_555
C1 H1 1_555 1_555
C2 C1 1_555 1_555
H2 C2 1_555 1_555
C3 C2 1_555 1_555
H3 C3 1_555 1_555
C4 C3 1_555 1_555
H4 C4 1_555 1_555
C5 C4 1_555 1_555
H5 C5 1_555 1_555
C6 C1 1_555 1_555
C7 C6 1_555 1_555
H6 C7 1_555 1_555
C8 C7 1_555 1_555
H7 C8 1_555 1_555
H8 C8 1_555 1_555
H9 C8 1_555 1_555
C9 H10 1_555 1_555
C10 C9 1_555 1_555
C11 C10 1_555 1_555
H11 C11 1_555 1_555
C12 C11 1_555 1_555
H12 C12 1_555 1_555
C13 C12 1_555 1_555
H13 C13 1_555 1_555
C14 C13 1_555 1_555
H14 C14 1_555 1_555
C15 H15 1_555 1_555
C16 C15 1_555 1_555
H16 C16 1_555 1_555
C17 C16 1_555 1_555
H17 C17 1_555 1_555
C18 C17 1_555 1_555
H18 C18 1_555 1_555
C19 C18 1_555 1_555
H19 C19 1_555 1_555
C20 C15 1_555 1_555
C21 C20 1_555 1_555
H20 C21 1_555 1_555
C22 C21 1_555 1_555
H21 C22 1_555 1_555
H22 C22 1_555 1_555
H23 C22 1_555 1_555
C23 H24 1_555 1_555
C24 C23 1_555 1_555
C25 C24 1_555 1_555
H25 C25 1_555 1_555
C26 C25 1_555 1_555
H26 C26 1_555 1_555
C27 C26 1_555 1_555
H27 C27 1_555 1_555
C28 C27 1_555 1_555
H28 C28 1_555 1_555
C29 C30 1_555 1_555
C30 H29 1_555 1_555
C31 C30 1_555 1_555
H30 C31 1_555 1_555
C32 C31 1_555 1_555
H31 C32 1_555 1_555
C33 C32 1_555 1_555
H32 C33 1_555 1_555
C34 C29 1_555 1_555
H33 C34 1_555 1_555
C35 C29 1_555 1_555
H34 C35 1_555 1_555
C36 C35 1_555 1_555
H35 C36 1_555 1_555
H36 C36 1_555 1_555
H37 C36 1_555 1_555
C37 H38 1_555 1_555
C38 C37 1_555 1_555
C39 C38 1_555 1_555
H39 C39 1_555 1_555
C40 C39 1_555 1_555
H40 C40 1_555 1_555
C41 C40 1_555 1_555
H41 C41 1_555 1_555
C42 C41 1_555 1_555
H42 C42 1_555 1_555
C43 H43 1_555 1_555
C44 C43 1_555 1_555
H44 C44 1_555 1_555
C45 C44 1_555 1_555
H45 C45 1_555 1_555
C46 C45 1_555 1_555
H46 C46 1_555 1_555
C47 C46 1_555 1_555
H47 C47 1_555 1_555
C48 C43 1_555 1_555
C49 C48 1_555 1_555
H48 C49 1_555 1_555
C50 C49 1_555 1_555
H49 C50 1_555 1_555
H50 C50 1_555 1_555
H51 C50 1_555 1_555
C51 H52 1_555 1_555
C52 C51 1_555 1_555
C53 C52 1_555 1_555
H53 C53 1_555 1_555
C54 C53 1_555 1_555
H54 C54 1_555 1_555
C55 C54 1_555 1_555
H55 C55 1_555 1_555
C56 C55 1_555 1_555
H56 C56 1_555 1_555
N1 C52 1_555 1_555
C57 N7 1_555 1_555
C58 Fe1 1_555 1_555
C59 N6 1_555 1_555
C60 Fe2 1_555 1_555
C61 Fe2 1_555 1_555
C62 Fe2 1_555 1_555
C63 Fe2 1_555 1_555
C64 Fe2 1_555 1_555
N2 C7 1_555 1_555
N3 Ni1 1_555 1_555
N4 Ni1 1_555 1_555
N5 Ni1 1_555 1_555
N6 Ni1 1_555 1_555
N7 Ni1 1_555 1_555
N8 C60 1_555 1_555
N9 C63 1_555 1_555
N10 C61 1_555 1_555
N11 C58 1_555 1_555
N12 Ni2 1_555 1_555
N13 Ni2 1_555 1_555
N14 Ni2 1_555 1_555
N15 Ni2 1_555 1_555
N16 C64 1_555 1_555
Ni3 N19 1_555 1_555
Ni4 N17 1_555 1_555
Fe3 C121 1_555 1_555
Fe4 C123 1_555 1_555
C65 H57 1_555 1_555
C66 C65 1_555 1_555
H58 C66 1_555 1_555
C67 C66 1_555 1_555
H59 C67 1_555 1_555
C68 C67 1_555 1_555
H60 C68 1_555 1_555
C69 C68 1_555 1_555
H61 C69 1_555 1_555
C70 C65 1_555 1_555
C71 C70 1_555 1_555
H62 C71 1_555 1_555
C72 C71 1_555 1_555
H63 C72 1_555 1_555
H64 C72 1_555 1_555
H65 C72 1_555 1_555
C73 H66 1_555 1_555
C74 C73 1_555 1_555
C75 C74 1_555 1_555
H67 C75 1_555 1_555
C76 C75 1_555 1_555
H68 C76 1_555 1_555
C77 C76 1_555 1_555
H69 C77 1_555 1_555
C78 C77 1_555 1_555
H70 C78 1_555 1_555
C79 H71 1_555 1_555
C80 C79 1_555 1_555
H72 C80 1_555 1_555
C81 C80 1_555 1_555
H73 C81 1_555 1_555
C82 C81 1_555 1_555
H74 C82 1_555 1_555
C83 C82 1_555 1_555
H75 C83 1_555 1_555
C84 C79 1_555 1_555
C85 C84 1_555 1_555
H76 C85 1_555 1_555
C86 C85 1_555 1_555
H77 C86 1_555 1_555
H78 C86 1_555 1_555
H79 C86 1_555 1_555
C87 H80 1_555 1_555
C88 C87 1_555 1_555
C89 C88 1_555 1_555
H81 C89 1_555 1_555
C90 C89 1_555 1_555
H82 C90 1_555 1_555
C91 C90 1_555 1_555
H83 C91 1_555 1_555
C92 C91 1_555 1_555
H84 C92 1_555 1_555
C93 H85 1_555 1_555
C94 C93 1_555 1_555
H86 C94 1_555 1_555
C95 C94 1_555 1_555
H87 C95 1_555 1_555
C96 C95 1_555 1_555
H88 C96 1_555 1_555
C97 C96 1_555 1_555
H89 C97 1_555 1_555
C98 C93 1_555 1_555
C99 C98 1_555 1_555
H90 C99 1_555 1_555
C100 C99 1_555 1_555
H91 C100 1_555 1_555
H92 C100 1_555 1_555
H93 C100 1_555 1_555
C101 H94 1_555 1_555
N17 C102 1_555 1_555
C102 C101 1_555 1_555
C103 C102 1_555 1_555
H95 C103 1_555 1_555
C104 C103 1_555 1_555
H96 C104 1_555 1_555
C105 C104 1_555 1_555
H97 C105 1_555 1_555
C106 N17 1_555 1_555
H98 C106 1_555 1_555
C107 C108 1_555 1_555
C108 H99 1_555 1_555
C109 C108 1_555 1_555
H100 C109 1_555 1_555
C110 C109 1_555 1_555
H101 C110 1_555 1_555
C111 C110 1_555 1_555
H102 C111 1_555 1_555
C112 C107 1_555 1_555
H103 C112 1_555 1_555
C113 C107 1_555 1_555
H104 C113 1_555 1_555
C114 C113 1_555 1_555
H105 C114 1_555 1_555
H106 C114 1_555 1_555
H107 C114 1_555 1_555
C115 H108 1_555 1_555
N18 Ni4 1_555 1_555
C116 C115 1_555 1_555
C117 C116 1_555 1_555
H109 C117 1_555 1_555
C118 C117 1_555 1_555
H110 C118 1_555 1_555
C119 C118 1_555 1_555
H111 C119 1_555 1_555
C120 N18 1_555 1_555
H112 C120 1_555 1_555
C121 N24 1_555 1_555
C122 Fe3 1_555 1_555
C123 N23 1_555 1_555
C124 Fe4 1_555 1_555
C125 Fe4 1_555 1_555
C126 Fe4 1_555 1_555
C127 Fe4 1_555 1_555
C128 Fe4 1_555 1_555
N19 C71 1_555 1_555
N20 Ni3 1_555 1_555
N21 Ni3 1_555 1_555
N22 Ni3 1_555 1_555
N23 Ni3 1_555 1_555
N24 Ni3 1_555 1_555
N25 C124 1_555 1_555
N26 C127 1_555 1_555
N27 C125 1_555 1_555
N28 C122 1_555 1_555
N29 Ni4 1_555 1_555
N30 Ni4 1_555 1_555
N31 Ni4 1_555 1_555
N32 C128 1_555 1_555
C129 C130 1_555 1_555
C130 C131 1_555 1_555
C131 C132 1_555 1_555
C132 N33 1_555 1_555
N33 C130 1_555 1_555
C133 C131 1_555 1_555
C134 C135 1_555 1_555
C135 N34 1_555 1_555
C136 C137 1_555 1_555
C137 C138B 1_555 1_555
N34 C136 1_555 1_555
P1 F1 1_555 1_555
F2 P2 1_555 1_555
P2 F3 1_555 1_555
F4 P1 1_555 1_555
C138 C135 1_555 1_555
Ni1B N2B 1_555 1_555
Ni1A N2A 1_555 1_555
Ni2A N16 1_555 1_555
Ni2B N1B 1_555 1_555
Fe2B C59B 1_555 1_555
Fe2A C59A 1_555 1_555
C1B H1B 1_555 1_555
C1A H1A 1_555 1_555
C2B C1B 1_555 1_555
C2A C1A 1_555 1_555
H2B C2B 1_555 1_555
H2A C2A 1_555 1_555
C3B C2B 1_555 1_555
C3A C2A 1_555 1_555
H3B C3B 1_555 1_555
H3A C3A 1_555 1_555
C4B C3B 1_555 1_555
C4A C3A 1_555 1_555
H4B C4B 1_555 1_555
H4A C4A 1_555 1_555
C5B C4B 1_555 1_555
C5A C4A 1_555 1_555
H5B C5B 1_555 1_555
H5A C5A 1_555 1_555
C6B C1B 1_555 1_555
C6A C1A 1_555 1_555
C7B C6B 1_555 1_555
C7A C6A 1_555 1_555
H6B C7B 1_555 1_555
H6A C7A 1_555 1_555
C8B C7B 1_555 1_555
C8A C7A 1_555 1_555
H7B C8B 1_555 1_555
H7A C8A 1_555 1_555
H8B C8B 1_555 1_555
H8A C8A 1_555 1_555
H9B C8B 1_555 1_555
H9A C8A 1_555 1_555
C9B H10B 1_555 1_555
C9A H10A 1_555 1_555
C10B C9B 1_555 1_555
C10A C9A 1_555 1_555
C11B C10B 1_555 1_555
C11A C10A 1_555 1_555
H11B C11B 1_555 1_555
H11A C11A 1_555 1_555
C12B C11B 1_555 1_555
C12A C11A 1_555 1_555
H12B C12B 1_555 1_555
H12A C12A 1_555 1_555
C13B C12B 1_555 1_555
C13A C12A 1_555 1_555
H13B C13B 1_555 1_555
H13A C13A 1_555 1_555
C14B C13B 1_555 1_555
C14A C13A 1_555 1_555
H14B C14B 1_555 1_555
H14A C14A 1_555 1_555
C15B H15B 1_555 1_555
C15A H15A 1_555 1_555
C16B C15B 1_555 1_555
C16A C15A 1_555 1_555
H16B C16B 1_555 1_555
H16A C16A 1_555 1_555
C17B C16B 1_555 1_555
C17A C16A 1_555 1_555
H17B C17B 1_555 1_555
H17A C17A 1_555 1_555
C18B C17B 1_555 1_555
C18A C17A 1_555 1_555
H18B C18B 1_555 1_555
H18A C18A 1_555 1_555
C19B C18B 1_555 1_555
C19A C18A 1_555 1_555
H19B C19B 1_555 1_555
H19A C19A 1_555 1_555
C20B C15B 1_555 1_555
C20A C15A 1_555 1_555
C21B C20B 1_555 1_555
C21A C20A 1_555 1_555
H20B C21B 1_555 1_555
H20A C21A 1_555 1_555
C22B C21B 1_555 1_555
C22A C21A 1_555 1_555
H21B C22B 1_555 1_555
H21A C22A 1_555 1_555
H22B C22B 1_555 1_555
H22A C22A 1_555 1_555
H23B C22B 1_555 1_555
H23A C22A 1_555 1_555
C23B H24B 1_555 1_555
C23A H24A 1_555 1_555
C24B C23B 1_555 1_555
C24A C23A 1_555 1_555
C25B C24B 1_555 1_555
C25A C24A 1_555 1_555
H25B C25B 1_555 1_555
H25A C25A 1_555 1_555
C26B C25B 1_555 1_555
C26A C25A 1_555 1_555
H26B C26B 1_555 1_555
H26A C26A 1_555 1_555
C27B C26B 1_555 1_555
C27A C26A 1_555 1_555
H27B C27B 1_555 1_555
H27A C27A 1_555 1_555
C28B C27B 1_555 1_555
C28A C27A 1_555 1_555
H28B C28B 1_555 1_555
H28A C28A 1_555 1_555
C29A C30A 1_555 1_555
C29B C30B 1_555 1_555
C30A H29A 1_555 1_555
C30B H29B 1_555 1_555
C31A C30A 1_555 1_555
C31B C30B 1_555 1_555
H30A C31A 1_555 1_555
H30B C31B 1_555 1_555
C32A C31A 1_555 1_555
C32B C31B 1_555 1_555
H31A C32A 1_555 1_555
H31B C32B 1_555 1_555
C33A C32A 1_555 1_555
C33B C32B 1_555 1_555
H32A C33A 1_555 1_555
H32B C33B 1_555 1_555
C34A C29A 1_555 1_555
C34B C29B 1_555 1_555
H33A C34A 1_555 1_555
H33B C34B 1_555 1_555
C35A C29A 1_555 1_555
C35B C29B 1_555 1_555
H34A C35A 1_555 1_555
H34B C35B 1_555 1_555
C36A C35A 1_555 1_555
C36B C35B 1_555 1_555
H35A C36A 1_555 1_555
H35B C36B 1_555 1_555
H36A C36A 1_555 1_555
H36B C36B 1_555 1_555
H37A C36A 1_555 1_555
H37B C36B 1_555 1_555
C37A H38A 1_555 1_555
C37B H38B 1_555 1_555
C38A C37A 1_555 1_555
C38B C37B 1_555 1_555
C39A C38A 1_555 1_555
C39B C38B 1_555 1_555
H39A C39A 1_555 1_555
H39B C39B 1_555 1_555
C40A C39A 1_555 1_555
C40B C39B 1_555 1_555
H40A C40A 1_555 1_555
H40B C40B 1_555 1_555
C41A C40A 1_555 1_555
C41B C40B 1_555 1_555
H41A C41A 1_555 1_555
H41B C41B 1_555 1_555
C42A C41A 1_555 1_555
C42B C41B 1_555 1_555
H42A C42A 1_555 1_555
H42B C42B 1_555 1_555
C43A H43A 1_555 1_555
C43B H43B 1_555 1_555
C44A C43A 1_555 1_555
C44B C43B 1_555 1_555
H44A C44A 1_555 1_555
H44B C44B 1_555 1_555
C45A C44A 1_555 1_555
C45B C44B 1_555 1_555
H45A C45A 1_555 1_555
H45B C45B 1_555 1_555
C46A C45A 1_555 1_555
C46B C45B 1_555 1_555
H46A C46A 1_555 1_555
H46B C46B 1_555 1_555
C47A C46A 1_555 1_555
C47B C46B 1_555 1_555
H47A C47A 1_555 1_555
H47B C47B 1_555 1_555
C48A C43A 1_555 1_555
C48B C43B 1_555 1_555
C49A C48A 1_555 1_555
C49B C48B 1_555 1_555
H48A C49A 1_555 1_555
H48B C49B 1_555 1_555
C50A C49A 1_555 1_555
C50B C49B 1_555 1_555
H49A C50A 1_555 1_555
H49B C50B 1_555 1_555
H50A C50A 1_555 1_555
H50B C50B 1_555 1_555
H51A C50A 1_555 1_555
H51B C50B 1_555 1_555
C51A H52A 1_555 1_555
C51B H52B 1_555 1_555
C52A C51A 1_555 1_555
C52B C51B 1_555 1_555
C53A C52A 1_555 1_555
C53B C52B 1_555 1_555
H53A C53A 1_555 1_555
H53B C53B 1_555 1_555
C54A C53A 1_555 1_555
C54B C53B 1_555 1_555
H54A C54A 1_555 1_555
H54B C54B 1_555 1_555
C55A C54A 1_555 1_555
C55B C54B 1_555 1_555
H55A C55A 1_555 1_555
H55B C55B 1_555 1_555
C56A C55A 1_555 1_555
C56B C55B 1_555 1_555
H56A C56A 1_555 1_555
H56B C56B 1_555 1_555
N1A Ni2A 1_555 1_555
N1B C52B 1_555 1_555
C57B Fe1 1_555 1_555
C57A Fe1 1_555 1_555
C58A Fe1 1_555 1_555
C58B Fe1 1_555 1_555
C59B N6B 1_555 1_555
C59A N6A 1_555 1_555
C60A Fe2A 1_555 1_555
C60B Fe2B 1_555 1_555
C61A Fe2A 1_555 1_555
C61B Fe2B 1_555 1_555
C62A Fe2A 1_555 1_555
C62B Fe2B 1_555 1_555
C63A Fe2A 1_555 1_555
C63B Fe2B 1_555 1_555
C64B Fe2B 1_555 1_555
C64A Fe2A 1_555 1_555
N2B C7B 1_555 1_555
N2A C7A 1_555 1_555
N3B Ni1B 1_555 1_555
N3A Ni1A 1_555 1_555
N4B Ni1B 1_555 1_555
N4A Ni1A 1_555 1_555
N5B Ni1B 1_555 1_555
N5A Ni1A 1_555 1_555
N6B Ni1B 1_555 1_555
N6A Ni1A 1_555 1_555
N7B Ni1B 1_555 1_555
N7A Ni1A 1_555 1_555
N8A C60A 1_555 1_555
N8B C60B 1_555 1_555
N9A C63A 1_555 1_555
N9B C63B 1_555 1_555
N10A C61A 1_555 1_555
N10B C61B 1_555 1_555
N11A C58A 1_555 1_555
N11B C58B 1_555 1_555
N12A Ni2A 1_555 1_555
N12B Ni2B 1_555 1_555
N13A Ni2A 1_555 1_555
N13B Ni2B 1_555 1_555
N14A Ni2A 1_555 1_555
N14B Ni2B 1_555 1_555
N15A Ni2A 1_555 1_555
N15B Ni2B 1_555 1_555
N16B Ni2 1_555 1_555
N16A Ni2B 1_555 1_555
Ni3A N19A 1_555 1_555
Ni3B N19B 1_555 1_555
Ni4B N32 1_555 1_555
Ni4A N17A 1_555 1_555
Fe4A C123A 1_555 1_555
Fe4B C123B 1_555 1_555
C65A H57A 1_555 1_555
C65B H57B 1_555 1_555
C66A C65A 1_555 1_555
C66B C65B 1_555 1_555
H58A C66A 1_555 1_555
H58B C66B 1_555 1_555
C67A C66A 1_555 1_555
C67B C66B 1_555 1_555
H59A C67A 1_555 1_555
H59B C67B 1_555 1_555
C68A C67A 1_555 1_555
C68B C67B 1_555 1_555
H60A C68A 1_555 1_555
H60B C68B 1_555 1_555
C69A C68A 1_555 1_555
C69B C68B 1_555 1_555
H61A C69A 1_555 1_555
H61B C69B 1_555 1_555
C70A C65A 1_555 1_555
C70B C65B 1_555 1_555
C71A C70A 1_555 1_555
C71B C70B 1_555 1_555
H62A C71A 1_555 1_555
H62B C71B 1_555 1_555
C72A C71A 1_555 1_555
C72B C71B 1_555 1_555
H63A C72A 1_555 1_555
H63B C72B 1_555 1_555
H64A C72A 1_555 1_555
H64B C72B 1_555 1_555
H65A C72A 1_555 1_555
H65B C72B 1_555 1_555
C73A H66A 1_555 1_555
C73B H66B 1_555 1_555
C74A C73A 1_555 1_555
C74B C73B 1_555 1_555
C75A C74A 1_555 1_555
C75B C74B 1_555 1_555
H67A C75A 1_555 1_555
H67B C75B 1_555 1_555
C76A C75A 1_555 1_555
C76B C75B 1_555 1_555
H68A C76A 1_555 1_555
H68B C76B 1_555 1_555
C77A C76A 1_555 1_555
C77B C76B 1_555 1_555
H69A C77A 1_555 1_555
H69B C77B 1_555 1_555
C78A C77A 1_555 1_555
C78B C77B 1_555 1_555
H70A C78A 1_555 1_555
H70B C78B 1_555 1_555
C79A H71A 1_555 1_555
C79B H71B 1_555 1_555
C80A C79A 1_555 1_555
C80B C79B 1_555 1_555
H72A C80A 1_555 1_555
H72B C80B 1_555 1_555
C81A C80A 1_555 1_555
C81B C80B 1_555 1_555
H73A C81A 1_555 1_555
H73B C81B 1_555 1_555
C82A C81A 1_555 1_555
C82B C81B 1_555 1_555
H74A C82A 1_555 1_555
H74B C82B 1_555 1_555
C83A C82A 1_555 1_555
C83B C82B 1_555 1_555
H75A C83A 1_555 1_555
H75B C83B 1_555 1_555
C84A C79A 1_555 1_555
C84B C79B 1_555 1_555
C85A C84A 1_555 1_555
C85B C84B 1_555 1_555
H76A C85A 1_555 1_555
H76B C85B 1_555 1_555
C86A C85A 1_555 1_555
C86B C85B 1_555 1_555
H77A C86A 1_555 1_555
H77B C86B 1_555 1_555
H78A C86A 1_555 1_555
H78B C86B 1_555 1_555
H79A C86A 1_555 1_555
H79B C86B 1_555 1_555
C87A H80A 1_555 1_555
C87B H80B 1_555 1_555
C88A C87A 1_555 1_555
C88B C87B 1_555 1_555
C89A C88A 1_555 1_555
C89B C88B 1_555 1_555
H81A C89A 1_555 1_555
H81B C89B 1_555 1_555
C90A C89A 1_555 1_555
C90B C89B 1_555 1_555
H82A C90A 1_555 1_555
H82B C90B 1_555 1_555
C91A C90A 1_555 1_555
C91B C90B 1_555 1_555
H83A C91A 1_555 1_555
H83B C91B 1_555 1_555
C92A C91A 1_555 1_555
C92B C91B 1_555 1_555
H84A C92A 1_555 1_555
H84B C92B 1_555 1_555
C93B H85B 1_555 1_555
C93A H85A 1_555 1_555
C94B C93B 1_555 1_555
C94A C93A 1_555 1_555
H86B C94B 1_555 1_555
H86A C94A 1_555 1_555
C95B C94B 1_555 1_555
C95A C94A 1_555 1_555
H87B C95B 1_555 1_555
H87A C95A 1_555 1_555
C96B C95B 1_555 1_555
C96A C95A 1_555 1_555
H88B C96B 1_555 1_555
H88A C96A 1_555 1_555
C97B C96B 1_555 1_555
C97A C96A 1_555 1_555
H89B C97B 1_555 1_555
H89A C97A 1_555 1_555
C98B C93B 1_555 1_555
C98A C93A 1_555 1_555
C99B C98B 1_555 1_555
C99A C98A 1_555 1_555
H90B C99B 1_555 1_555
H90A C99A 1_555 1_555
C100B C99B 1_555 1_555
C100A C99A 1_555 1_555
H91B C100B 1_555 1_555
H91A C100A 1_555 1_555
H92B C100B 1_555 1_555
H92A C100A 1_555 1_555
H93B C100B 1_555 1_555
H93A C100A 1_555 1_555
C101B H94B 1_555 1_555
C101A H94A 1_555 1_555
N17B Ni4B 1_555 1_555
N17A C102A 1_555 1_555
C102B C101B 1_555 1_555
C102A C101A 1_555 1_555
C103B C102B 1_555 1_555
C103A C102A 1_555 1_555
H95B C103B 1_555 1_555
H95A C103A 1_555 1_555
C104B C103B 1_555 1_555
C104A C103A 1_555 1_555
H96B C104B 1_555 1_555
H96A C104A 1_555 1_555
C105B C104B 1_555 1_555
C105A C104A 1_555 1_555
H97B C105B 1_555 1_555
H97A C105A 1_555 1_555
C106B N17B 1_555 1_555
C106A N17A 1_555 1_555
H98B C106B 1_555 1_555
H98A C106A 1_555 1_555
C107B C108B 1_555 1_555
C107A C108A 1_555 1_555
C108B H99B 1_555 1_555
C108A H99A 1_555 1_555
C109B C108B 1_555 1_555
C109A C108A 1_555 1_555
H100B C109B 1_555 1_555
H100A C109A 1_555 1_555
C110B C109B 1_555 1_555
C110A C109A 1_555 1_555
H101B C110B 1_555 1_555
H101A C110A 1_555 1_555
C111B C110B 1_555 1_555
C111A C110A 1_555 1_555
H102B C111B 1_555 1_555
H102A C111A 1_555 1_555
C112B C107B 1_555 1_555
C112A C107A 1_555 1_555
H103B C112B 1_555 1_555
H103A C112A 1_555 1_555
C113B C107B 1_555 1_555
C113A C107A 1_555 1_555
H104B C113B 1_555 1_555
H104A C113A 1_555 1_555
C114B C113B 1_555 1_555
C114A C113A 1_555 1_555
H105B C114B 1_555 1_555
H105A C114A 1_555 1_555
H106B C114B 1_555 1_555
H106A C114A 1_555 1_555
H107B C114B 1_555 1_555
H107A C114A 1_555 1_555
C115B H108B 1_555 1_555
C115A H108A 1_555 1_555
N18B Ni4B 1_555 1_555
N18A Ni4A 1_555 1_555
C116B C115B 1_555 1_555
C116A C115A 1_555 1_555
C117B C116B 1_555 1_555
C117A C116A 1_555 1_555
H109B C117B 1_555 1_555
H109A C117A 1_555 1_555
C118B C117B 1_555 1_555
C118A C117A 1_555 1_555
H110B C118B 1_555 1_555
H110A C118A 1_555 1_555
C119B C118B 1_555 1_555
C119A C118A 1_555 1_555
H111B C119B 1_555 1_555
H111A C119A 1_555 1_555
C120B N18B 1_555 1_555
C120A N18A 1_555 1_555
H112B C120B 1_555 1_555
H112A C120A 1_555 1_555
C121A Fe3 1_555 1_555
C121B Fe3 1_555 1_555
C122A Fe3 1_555 1_555
C122B Fe3 1_555 1_555
C123A N23A 1_555 1_555
C123B N23B 1_555 1_555
C124B Fe4B 1_555 1_555
C124A Fe4A 1_555 1_555
C125B Fe4B 1_555 1_555
C125A Fe4A 1_555 1_555
C126B Fe4B 1_555 1_555
C126A Fe4A 1_555 1_555
C127B Fe4B 1_555 1_555
C127A Fe4A 1_555 1_555
C128A Fe4A 1_555 1_555
C128B Fe4B 1_555 1_555
N19A C71A 1_555 1_555
N19B C71B 1_555 1_555
N20A Ni3A 1_555 1_555
N20B Ni3B 1_555 1_555
N21A Ni3A 1_555 1_555
N21B Ni3B 1_555 1_555
N22A Ni3A 1_555 1_555
N22B Ni3B 1_555 1_555
N23A Ni3A 1_555 1_555
N23B Ni3B 1_555 1_555
N24A Ni3A 1_555 1_555
N24B Ni3B 1_555 1_555
N25B C124B 1_555 1_555
N25A C124A 1_555 1_555
N26B C127B 1_555 1_555
N26A C127A 1_555 1_555
N27B C125B 1_555 1_555
N27A C125A 1_555 1_555
N28A C122A 1_555 1_555
N28B C122B 1_555 1_555
N29B Ni4B 1_555 1_555
N29A Ni4A 1_555 1_555
N30B Ni4B 1_555 1_555
N30A Ni4A 1_555 1_555
N31B Ni4B 1_555 1_555
N31A Ni4A 1_555 1_555
N32A Ni4 1_555 1_555
N32B Ni4A 1_555 1_555
C129A C129 1_555 1_555
C129B C129 1_555 1_555
C130B C130 1_555 1_555
C130A C129 1_555 1_555
C131A N33 1_555 1_555
C131B N33 1_555 1_555
C132A C132 1_555 1_555
C132B C132 1_555 1_555
C133B C131B 1_555 1_555
C133A C131A 1_555 1_555
C134A C134 1_555 1_555
C134B C134 1_555 1_555
C135A C135 1_555 1_555
C135B C134 1_555 1_555
C136A C136 1_555 1_555
C136B C136 1_555 1_555
C137A C138 1_555 1_555
C137B C136B 1_555 1_555
F1A P1 1_555 1_555
F1B P1 1_555 1_555
F2B P2 1_555 1_555
F2A P2 1_555 1_555
F3A P2 1_555 1_555
F3B P2 1_555 1_555
F4A P1 1_555 1_555
F4B P1 1_555 1_555
C138A N34 1_555 1_555
C138B C136 1_555 1_555
C5 C6 1_555 1_555
C9 N2 1_555 1_555
C10 N3 1_555 1_555
C14 N3 1_555 1_555
C19 C20 1_555 1_555
C21 N4 1_555 1_555
C23 N4 1_555 1_555
C24 N5 1_555 1_555
C28 N5 1_555 1_555
C33 C34 1_555 1_555
C35 N13 1_555 1_555
C37 N13 1_555 1_555
C38 N14 1_555 1_555
C42 N14 1_555 1_555
C47 C48 1_555 1_555
C49 N15 1_555 1_555
C51 N15 1_555 1_555
C56 N1 1_555 1_555
C62 N12 1_555 1_555
C69 C70 1_555 1_555
C73 N19 1_555 1_555
C74 N20 1_555 1_555
C78 N20 1_555 1_555
C83 C84 1_555 1_555
C85 N21 1_555 1_555
C87 N21 1_555 1_555
C88 N22 1_555 1_555
C92 N22 1_555 1_555
C97 C98 1_555 1_555
C99 N30 1_555 1_555
C101 N30 1_555 1_555
C105 C106 1_555 1_555
C111 C112 1_555 1_555
C113 N31 1_555 1_555
C115 N31 1_555 1_555
N18 C116 1_555 1_555
C119 C120 1_555 1_555
C126 N29 1_555 1_555
C130 C129B 1_555 1_555
C130 C130A 1_555 1_555
C131 N33 1_555 1_555
C132 C133 1_555 1_555
N33 C130B 1_555 1_555
N33 C130A 1_555 1_555
N33 C132A 1_555 1_555
N33 C132B 1_555 1_555
C135 C134A 1_555 1_555
C135 C135B 1_555 1_555
N34 C138 1_555 1_555
N34 C135A 1_555 1_555
N34 C135B 1_555 1_555
N34 C136A 1_555 1_555
N34 C136B 1_555 1_555
N34 C138B 1_555 1_555
C138 C136A 1_555 1_555
C5B C6B 1_555 1_555
C5A C6A 1_555 1_555
C9B N2B 1_555 1_555
C9A N2A 1_555 1_555
C10B N3B 1_555 1_555
C10A N3A 1_555 1_555
C14B N3B 1_555 1_555
C14A N3A 1_555 1_555
C19B C20B 1_555 1_555
C19A C20A 1_555 1_555
C21B N4B 1_555 1_555
C21A N4A 1_555 1_555
C23B N4B 1_555 1_555
C23A N4A 1_555 1_555
C24B N5B 1_555 1_555
C24A N5A 1_555 1_555
C28B N5B 1_555 1_555
C28A N5A 1_555 1_555
C33A C34A 1_555 1_555
C33B C34B 1_555 1_555
C35A N13A 1_555 1_555
C35B N13B 1_555 1_555
C37A N13A 1_555 1_555
C37B N13B 1_555 1_555
C38A N14A 1_555 1_555
C38B N14B 1_555 1_555
C42A N14A 1_555 1_555
C42B N14B 1_555 1_555
C47A C48A 1_555 1_555
C47B C48B 1_555 1_555
C49A N15A 1_555 1_555
C49B N15B 1_555 1_555
C51A N15A 1_555 1_555
C51B N15B 1_555 1_555
C52A N1A 1_555 1_555
C56A N1A 1_555 1_555
C56B N1B 1_555 1_555
C57B N7B 1_555 1_555
C57A N7A 1_555 1_555
C62A N12A 1_555 1_555
C62B N12B 1_555 1_555
C64B N16B 1_555 1_555
C64A N16A 1_555 1_555
C69A C70A 1_555 1_555
C69B C70B 1_555 1_555
C73A N19A 1_555 1_555
C73B N19B 1_555 1_555
C74A N20A 1_555 1_555
C74B N20B 1_555 1_555
C78A N20A 1_555 1_555
C78B N20B 1_555 1_555
C83A C84A 1_555 1_555
C83B C84B 1_555 1_555
C85A N21A 1_555 1_555
C85B N21B 1_555 1_555
C87A N21A 1_555 1_555
C87B N21B 1_555 1_555
C88A N22A 1_555 1_555
C88B N22B 1_555 1_555
C92A N22A 1_555 1_555
C92B N22B 1_555 1_555
C97B C98B 1_555 1_555
C97A C98A 1_555 1_555
C99B N30B 1_555 1_555
C99A N30A 1_555 1_555
C101B N30B 1_555 1_555
C101A N30A 1_555 1_555
N17B C102B 1_555 1_555
C105B C106B 1_555 1_555
C105A C106A 1_555 1_555
C111B C112B 1_555 1_555
C111A C112A 1_555 1_555
C113B N31B 1_555 1_555
C113A N31A 1_555 1_555
C115B N31B 1_555 1_555
C115A N31A 1_555 1_555
N18B C116B 1_555 1_555
N18A C116A 1_555 1_555
C119B C120B 1_555 1_555
C119A C120A 1_555 1_555
C121A N24A 1_555 1_555
C121B N24B 1_555 1_555
C126B N29B 1_555 1_555
C126A N29A 1_555 1_555
C128A N32A 1_555 1_555
C128B N32B 1_555 1_555
C129A C129B 1_555 1_555
C129A C130B 1_555 1_555
C129A C130A 1_555 1_555
C129B C130B 1_555 1_555
C130B C130A 1_555 1_555
C130B C131B 1_555 1_555
C130A C131A 1_555 1_555
C131A C132A 1_555 1_555
C131B C132B 1_555 1_555
C132A C132B 1_555 1_555
C132A C133A 1_555 1_555
C132B C133B 1_555 1_555
C134A C134B 1_555 1_555
C134A C135A 1_555 1_555
C134B C135A 1_555 1_555
C134B C135B 1_555 1_555
C135A C135B 1_555 1_555
C135A C138A 1_555 1_555
C135B C138B 1_555 1_555
C136A C136B 1_555 1_555
C136A C137A 1_555 1_555
C136B C138A 1_555 1_555
C137B C138A 1_555 1_555

#END
