
#######################################################################
#
#                 Cambridge Crystallographic Data Centre
#                                CCDC 
#
#######################################################################
#
# If this CIF has been generated from an entry in the Cambridge 
# Structural Database, then it will include bibliographic, chemical, 
# crystal, experimental, refinement or atomic coordinate data resulting 
# from the CCDC's data processing and validation procedures.
#
#######################################################################

data_RADTOH
_chemical_formula_moiety         
'C192 H168 Fe4 N48 Ni6,C8 H20 N1 1+,F6 P1 1-,31(C1 H4 O1),10(H2 O1)'
_chemical_name_systematic        
"Tetraethylammonium dodecakis(\m~2~-cyano-C,N)-dodecakis(N-(2-pyridylmethylene)-(R)-1-phenylethylamine-N,N')-dodecacyano-tetra-iron(iii)-hexa-nickel(ii) hexafluorophosphate methanol solvate decahydrate"
_symmetry_cell_setting           trigonal
_symmetry_space_group_name_H-M   'P 3'
_symmetry_Int_Tables_number      143
_space_group_name_Hall           'P 3'
loop_
_symmetry_equiv_pos_site_id
_symmetry_equiv_pos_as_xyz
1 x,y,z
2 -y,x-y,z
3 -x+y,-x,z
_cell_length_a                   19.567(5)
_cell_length_b                   19.567(5)
_cell_length_c                   35.123(13)
_cell_angle_alpha                90
_cell_angle_beta                 90
_cell_angle_gamma                120
_cell_volume                     11645.8
_exptl_crystal_colour            brown
_exptl_crystal_description       plates
_cell_formula_units_Z            2
loop_
_atom_site_label
_atom_site_type_symbol
_atom_site_fract_x
_atom_site_fract_y
_atom_site_fract_z
Ni3 Ni 0.21679(8) 0.25090(8) 0.42701(4)
Fe3 Fe 0.0000 0.0000 0.36942(7)
Ni4 Ni 0.25150(11) 0.03449(10) 0.61493(4)
Fe4 Fe 0.23401(10) 0.27173(10) 0.57068(5)
C65 C 0.4469(15) 0.1756(14) 0.6922(6)
C66 C 0.5267(16) 0.2317(19) 0.6904(8)
H57 H 0.5456 0.2704 0.6708
C67 C 0.579(2) 0.231(2) 0.7172(11)
H58 H 0.6332 0.2695 0.7159
C68 C 0.551(3) 0.1750(17) 0.7458(9)
H59 H 0.5865 0.1742 0.7641
C69 C 0.471(2) 0.1180(18) 0.7477(8)
H60 H 0.4522 0.0797 0.7672
C70 C 0.4191(15) 0.1189(18) 0.7209(9)
H61 H 0.3647 0.0806 0.7221
C71 C 0.3868(16) 0.1775(18) 0.6662(8)
H62 H 0.3386 0.1672 0.6806
C72 C 0.428(2) 0.2610(11) 0.6490(6)
H63 H 0.3906 0.2690 0.6340
H64 H 0.4718 0.2680 0.6325
H65 H 0.4496 0.3004 0.6696
C73 C 0.4235(14) 0.1408(19) 0.6079(6)
H66 H 0.4769 0.1770 0.6142
C74 C 0.4031(15) 0.0968(16) 0.5762(10)
C75 C 0.4519(10) 0.0923(9) 0.5454(4)
H67 H 0.5062 0.1311 0.5459
C76 C 0.4304(15) 0.0433(13) 0.5183(6)
H68 H 0.4679 0.0481 0.4997
C77 C 0.3504(11) -0.0194(10) 0.5153(5)
H69 H 0.3330 -0.0572 0.4953
C78 C 0.3015(8) -0.0212(9) 0.5428(4)
H70 H 0.2481 -0.0626 0.5416
C79 C 0.4164(16) -0.0254(13) 0.6596(6)
H71 H 0.3999 -0.0179 0.6839
C80 C 0.4964(15) 0.0098(17) 0.6490(9)
H72 H 0.5326 0.0533 0.6640
C81 C 0.529(2) -0.011(2) 0.6194(5)
H73 H 0.5836 0.0083 0.6159
C82 C 0.4773(15) -0.0581(10) 0.5987(7)
H74 H 0.4946 -0.0785 0.5787
C83 C 0.3955(12) -0.0868(10) 0.5998(5)
H75 H 0.3617 -0.1163 0.5795
C84 C 0.3667(11) -0.0693(11) 0.6329(4)
C85 C 0.2797(14) -0.1045(11) 0.6391(5)
H76 H 0.2566 -0.1211 0.6130
C86 C 0.2432(12) -0.1867(12) 0.6627(5)
H77 H 0.1859 -0.2099 0.6649
H78 H 0.2666 -0.1763 0.6882
H79 H 0.2550 -0.2235 0.6493
C87 C 0.2211(13) -0.0566(13) 0.6833(5)
H80 H 0.2151 -0.0948 0.7017
C88 C 0.1929(11) -0.0041(12) 0.6917(5)
C89 C 0.1619(12) -0.0028(15) 0.7276(5)
H81 H 0.1588 -0.0355 0.7483
C90 C 0.135(2) 0.0540(19) 0.7295(8)
H82 H 0.1112 0.0558 0.7527
C91 C 0.1401(14) 0.1001(14) 0.7040(7)
H83 H 0.1216 0.1362 0.7076
C92 C 0.1723(10) 0.0965(11) 0.6720(5)
H84 H 0.1776 0.1322 0.6524
C93 C 0.4318(5) 0.4852(5) 0.3925(3)
H85 H 0.3939 0.5019 0.3922
C94 C 0.4876(7) 0.5085(6) 0.3636(3)
H86 H 0.4879 0.5412 0.3436
C95 C 0.5431(6) 0.4839(6) 0.3640(3)
H87 H 0.5813 0.4999 0.3443
C96 C 0.5428(5) 0.4361(6) 0.3934(3)
H88 H 0.5807 0.4193 0.3937
C97 C 0.4870(5) 0.4127(5) 0.4222(3)
H89 H 0.4867 0.3800 0.4423
C98 C 0.4315(5) 0.4373(5) 0.4218(2)
C99 C 0.3690(7) 0.4131(7) 0.4541(3)
H90 H 0.3728 0.3736 0.4707
C100 C 0.3906(6) 0.4861(8) 0.4779(3)
H91 H 0.3527 0.4721 0.4989
H92 H 0.3892 0.5264 0.4620
H93 H 0.4438 0.5068 0.4884
C101 C 0.2505(6) 0.4091(6) 0.4356(3)
H94 H 0.2766 0.4640 0.4411
C102 C 0.1687(7) 0.3699(7) 0.4254(3)
C103 C 0.1234(7) 0.4029(8) 0.4210(3)
H95 H 0.1478 0.4585 0.4239
C104 C 0.0436(7) 0.3617(8) 0.4127(3)
H96 H 0.0127 0.3865 0.4102
C105 C 0.0126(8) 0.2811(9) 0.4083(3)
H97 H -0.0421 0.2488 0.4031
C106 C 0.0588(7) 0.2469(7) 0.4114(3)
H98 H 0.0361 0.1918 0.4072
C107 C 0.1348(5) 0.3347(5) 0.3290(2)
H99 H 0.0850 0.2876 0.3278
C108 C 0.1393(5) 0.4077(7) 0.3260(2)
H100 H 0.0926 0.4105 0.3229
C109 C 0.2122(7) 0.4766(5) 0.3278(2)
H101 H 0.2153 0.5265 0.3258
C110 C 0.2806(5) 0.4724(5) 0.3324(2)
H102 H 0.3304 0.5195 0.3336
C111 C 0.2761(5) 0.3994(6) 0.3353(2)
H103 H 0.3228 0.3966 0.3385
C112 C 0.2032(6) 0.3306(4) 0.3336(2)
C113 C 0.1956(7) 0.2522(7) 0.3377(4)
H104 H 0.1398 0.2158 0.3456
C114 C 0.2065(9) 0.2200(8) 0.2978(3)
H105 H 0.1998 0.1673 0.3012
H106 H 0.2595 0.2557 0.2878
H107 H 0.1670 0.2171 0.2797
C115 C 0.2937(8) 0.2355(7) 0.3634(3)
H108 H 0.3057 0.2282 0.3380
C116 C 0.3399(8) 0.2253(7) 0.3962(4)
C117 C 0.4014(8) 0.2103(7) 0.3942(5)
H109 H 0.4200 0.2072 0.3697
C118 C 0.4369(8) 0.1998(8) 0.4247(6)
H110 H 0.4815 0.1928 0.4231
C119 C 0.4013(8) 0.2003(8) 0.4581(4)
H111 H 0.4199 0.1891 0.4809
C120 C 0.3403(6) 0.2160(6) 0.4608(4)
H112 H 0.3212 0.2194 0.4852
C121 C 0.2313(8) 0.1747(9) 0.5802(3)
C122 C 0.1264(8) 0.2309(8) 0.5858(3)
C123 C 0.2588(7) 0.2921(8) 0.6247(4)
C124 C 0.2087(6) 0.2493(6) 0.5156(4)
C125 C 0.3480(11) 0.3188(8) 0.5559(4)
C126 C 0.2424(7) 0.3733(10) 0.5621(3)
C127 C 0.0825(6) 0.0842(6) 0.4005(3)
C128 C -0.0791(6) -0.0852(7) 0.3379(4)
N17 N 0.3646(8) 0.1301(9) 0.6293(4)
N18 N 0.3212(8) 0.0297(6) 0.5713(3)
N19 N 0.2552(7) -0.0535(7) 0.6507(4)
N20 N 0.1990(7) 0.0452(8) 0.6647(3)
N21 N 0.2877(5) 0.3749(5) 0.4377(2)
N22 N 0.1354(5) 0.2899(5) 0.4204(2)
N23 N 0.2436(6) 0.2522(6) 0.3684(3)
N24 N 0.3075(6) 0.2267(5) 0.4293(3)
N25 N 0.2311(8) 0.1159(8) 0.5868(3)
N26 N 0.0624(7) 0.2116(6) 0.5942(3)
N27 N 0.2722(8) 0.3059(8) 0.6569(3)
N28 N 0.2005(5) 0.2420(5) 0.4839(3)
N29 N 0.4076(8) 0.3385(9) 0.5437(3)
N30 N 0.2435(8) 0.4355(8) 0.5560(4)
N31 N 0.1323(5) 0.1362(5) 0.4161(2)
N32 N -0.1241(6) -0.1362(7) 0.3205(4)
Ni3A Ni -0.25090(8) -0.03411(11) 0.42701(4)
Ni3B Ni 0.03411(11) -0.21679(8) 0.42701(4)
Ni4B Ni -0.21701(15) -0.25150(11) 0.61493(4)
Ni4A Ni -0.03449(10) 0.21701(15) 0.61493(4)
Fe4B Fe 0.03772(14) -0.23401(10) 0.57068(5)
Fe4A Fe -0.27173(10) -0.03772(14) 0.57068(5)
C65B C -0.2713(21) -0.4469(15) 0.6922(6)
C65A C -0.1756(14) 0.2713(21) 0.6922(6)
C66B C -0.2950(25) -0.5267(16) 0.6904(8)
C66A C -0.2317(19) 0.2950(25) 0.6904(8)
H57B H -0.2752 -0.5456 0.6708
H57A H -0.2704 0.2752 0.6708
C67B C -0.348(3) -0.579(2) 0.7172(11)
C67A C -0.231(2) 0.348(3) 0.7172(11)
H58B H -0.3637 -0.6332 0.7159
H58A H -0.2695 0.3637 0.7159
C68B C -0.3760(34) -0.551(3) 0.7458(9)
C68A C -0.1750(17) 0.3760(34) 0.7458(9)
H59B H -0.4123 -0.5865 0.7641
H59A H -0.1742 0.4123 0.7641
C69B C -0.3530(27) -0.471(2) 0.7477(8)
C69A C -0.1180(18) 0.3530(27) 0.7477(8)
H60B H -0.3725 -0.4522 0.7672
H60A H -0.0797 0.3725 0.7672
C70B C -0.3002(23) -0.4191(15) 0.7209(9)
C70A C -0.1189(18) 0.3002(23) 0.7209(9)
H61B H -0.2841 -0.3647 0.7221
H61A H -0.0806 0.2841 0.7221
C71B C -0.2093(24) -0.3868(16) 0.6662(8)
C71A C -0.1775(18) 0.2093(24) 0.6662(8)
H62B H -0.1714 -0.3386 0.6806
H62A H -0.1672 0.1714 0.6806
C72B C -0.1670(23) -0.428(2) 0.6490(6)
C72A C -0.2610(11) 0.1670(23) 0.6490(6)
H63B H -0.1216 -0.3906 0.6340
H63A H -0.2690 0.1216 0.6340
H64B H -0.2038 -0.4718 0.6325
H64A H -0.2680 0.2038 0.6325
H65B H -0.1492 -0.4496 0.6696
H65A H -0.3004 0.1492 0.6696
C73B C -0.2827(24) -0.4235(14) 0.6079(6)
C73A C -0.1408(19) 0.2827(24) 0.6079(6)
H66B H -0.2999 -0.4769 0.6142
H66A H -0.1770 0.2999 0.6142
C74B C -0.3063(22) -0.4031(15) 0.5762(10)
C74A C -0.0968(16) 0.3063(22) 0.5762(10)
C75B C -0.3596(13) -0.4519(10) 0.5454(4)
C75A C -0.0923(9) 0.3596(13) 0.5454(4)
H67B H -0.3751 -0.5062 0.5459
H67A H -0.1311 0.3751 0.5459
C76B C -0.3871(20) -0.4304(15) 0.5183(6)
C76A C -0.0433(13) 0.3871(20) 0.5183(6)
H68B H -0.4198 -0.4679 0.4997
H68A H -0.0481 0.4198 0.4997
C77B C -0.3698(15) -0.3504(11) 0.5153(5)
C77A C 0.0194(10) 0.3698(15) 0.5153(5)
H69B H -0.3902 -0.3330 0.4953
H69A H 0.0572 0.3902 0.4953
C78B C -0.3227(12) -0.3015(8) 0.5428(4)
C78A C 0.0212(9) 0.3227(12) 0.5428(4)
H70B H -0.3107 -0.2481 0.5416
H70A H 0.0626 0.3107 0.5416
C79B C -0.4418(21) -0.4164(16) 0.6596(6)
C79A C 0.0254(13) 0.4418(21) 0.6596(6)
H71B H -0.4178 -0.3999 0.6839
H71A H 0.0179 0.4178 0.6839
C80B C -0.4866(23) -0.4964(15) 0.6490(9)
C80A C -0.0098(17) 0.4866(23) 0.6490(9)
H72B H -0.4793 -0.5326 0.6640
H72A H -0.0533 0.4793 0.6640
C81B C -0.540(3) -0.529(2) 0.6194(5)
C81A C 0.011(2) 0.540(3) 0.6194(5)
H73B H -0.5753 -0.5836 0.6159
H73A H -0.0083 0.5753 0.6159
C82B C -0.5354(18) -0.4773(15) 0.5987(7)
C82A C 0.0581(10) 0.5354(18) 0.5987(7)
H74B H -0.5731 -0.4946 0.5787
H74A H 0.0785 0.5731 0.5787
C83B C -0.4823(16) -0.3955(12) 0.5998(5)
C83A C 0.0868(10) 0.4823(16) 0.5998(5)
H75B H -0.4780 -0.3617 0.5795
H75A H 0.1163 0.4780 0.5795
C84B C -0.4360(16) -0.3667(11) 0.6329(4)
C84A C 0.0693(11) 0.4360(16) 0.6329(4)
C85B C -0.3842(18) -0.2797(14) 0.6391(5)
C85A C 0.1045(11) 0.3842(18) 0.6391(5)
H76B H -0.3777 -0.2566 0.6130
H76A H 0.1211 0.3777 0.6130
C86B C -0.4299(17) -0.2432(12) 0.6627(5)
C86A C 0.1867(12) 0.4299(17) 0.6627(5)
H77B H -0.3958 -0.1859 0.6649
H77A H 0.2099 0.3958 0.6649
H78B H -0.4429 -0.2666 0.6882
H78A H 0.1763 0.4429 0.6882
H79B H -0.4785 -0.2550 0.6493
H79A H 0.2235 0.4785 0.6493
C87B C -0.2777(18) -0.2211(13) 0.6833(5)
C87A C 0.0566(13) 0.2777(18) 0.6833(5)
H80B H -0.3099 -0.2151 0.7017
H80A H 0.0948 0.3099 0.7017
C88B C -0.1970(16) -0.1929(11) 0.6917(5)
C88A C 0.0041(12) 0.1970(16) 0.6917(5)
C89B C -0.1647(19) -0.1619(12) 0.7276(5)
C89A C 0.0028(15) 0.1647(19) 0.7276(5)
H81B H -0.1943 -0.1588 0.7483
H81A H 0.0355 0.1943 0.7483
C90B C -0.0810(28) -0.135(2) 0.7295(8)
C90A C -0.0540(19) 0.0810(28) 0.7295(8)
H82B H -0.0554 -0.1112 0.7527
H82A H -0.0558 0.0554 0.7527
C91B C -0.0400(20) -0.1401(14) 0.7040(7)
C91A C -0.1001(14) 0.0400(20) 0.7040(7)
H83B H 0.0146 -0.1216 0.7076
H83A H -0.1362 -0.0146 0.7076
C92B C -0.0758(15) -0.1723(10) 0.6720(5)
C92A C -0.0965(11) 0.0758(15) 0.6720(5)
H84B H -0.0454 -0.1776 0.6524
H84A H -0.1322 0.0454 0.6524
C93A C -0.4852(5) -0.0534(7) 0.3925(3)
C93B C 0.0534(7) -0.4318(5) 0.3925(3)
H85A H -0.5019 -0.1080 0.3922
H85B H 0.1080 -0.3939 0.3922
C94A C -0.5085(6) -0.0209(9) 0.3636(3)
C94B C 0.0209(9) -0.4876(7) 0.3636(3)
H86A H -0.5412 -0.0533 0.3436
H86B H 0.0533 -0.4879 0.3436
C95A C -0.4839(6) 0.0592(8) 0.3640(3)
C95B C -0.0592(8) -0.5431(6) 0.3640(3)
H87A H -0.4999 0.0814 0.3443
H87B H -0.0814 -0.5813 0.3443
C96A C -0.4361(6) 0.1067(8) 0.3934(3)
C96B C -0.1067(8) -0.5428(5) 0.3934(3)
H88A H -0.4193 0.1614 0.3937
H88B H -0.1614 -0.5807 0.3937
C97A C -0.4127(5) 0.0743(7) 0.4222(3)
C97B C -0.0743(7) -0.4870(5) 0.4222(3)
H89A H -0.3800 0.1067 0.4423
H89B H -0.1067 -0.4867 0.4423
C98A C -0.4373(5) -0.0058(7) 0.4218(2)
C98B C 0.0058(7) -0.4315(5) 0.4218(2)
C99A C -0.4131(7) -0.0441(10) 0.4541(3)
C99B C 0.0441(10) -0.3690(7) 0.4541(3)
H90A H -0.3736 -0.0008 0.4707
H90B H 0.0008 -0.3728 0.4707
C100A C -0.4861(8) -0.0955(10) 0.4779(3)
C100B C 0.0955(10) -0.3906(6) 0.4779(3)
H91A H -0.4721 -0.1194 0.4989
H91B H 0.1194 -0.3527 0.4989
H92A H -0.5264 -0.1372 0.4620
H92B H 0.1372 -0.3892 0.4620
H93A H -0.5068 -0.0630 0.4884
H93B H 0.0630 -0.4438 0.4884
C101A C -0.4091(6) -0.1586(8) 0.4356(3)
C101B C 0.1586(8) -0.2505(6) 0.4356(3)
H94A H -0.4640 -0.1874 0.4411
H94B H 0.1874 -0.2766 0.4411
C102A C -0.3699(7) -0.2012(10) 0.4254(3)
C102B C 0.2012(10) -0.1687(7) 0.4254(3)
C103A C -0.4029(8) -0.2795(11) 0.4210(3)
C103B C 0.2795(11) -0.1234(7) 0.4210(3)
H95A H -0.4585 -0.3107 0.4239
H95B H 0.3107 -0.1478 0.4239
C104A C -0.3617(8) -0.3181(11) 0.4127(3)
C104B C 0.3181(11) -0.0436(7) 0.4127(3)
H96A H -0.3865 -0.3738 0.4102
H96B H 0.3738 -0.0127 0.4102
C105A C -0.2811(9) -0.2685(12) 0.4083(3)
C105B C 0.2685(12) -0.0126(8) 0.4083(3)
H97A H -0.2488 -0.2909 0.4031
H97B H 0.2909 0.0421 0.4031
C106A C -0.2469(7) -0.1881(10) 0.4114(3)
C106B C 0.1881(10) -0.0588(7) 0.4114(3)
H98A H -0.1918 -0.1557 0.4072
H98B H 0.1557 -0.0361 0.4072
C107A C -0.3347(5) -0.1999(7) 0.3290(2)
C107B C 0.1999(7) -0.1348(5) 0.3290(2)
H99A H -0.2876 -0.2026 0.3278
H99B H 0.2026 -0.0850 0.3278
C108A C -0.4077(7) -0.2684(9) 0.3260(2)
C108B C 0.2684(9) -0.1393(5) 0.3260(2)
H100A H -0.4105 -0.3179 0.3229
H100B H 0.3179 -0.0926 0.3229
C109A C -0.4766(5) -0.2644(9) 0.3278(2)
C109B C 0.2644(9) -0.2122(7) 0.3278(2)
H101A H -0.5265 -0.3112 0.3258
H101B H 0.3112 -0.2153 0.3258
C110A C -0.4724(5) -0.1918(7) 0.3324(2)
C110B C 0.1918(7) -0.2806(5) 0.3324(2)
H102A H -0.5195 -0.1891 0.3336
H102B H 0.1891 -0.3304 0.3336
C111A C -0.3994(6) -0.1233(8) 0.3353(2)
C111B C 0.1233(8) -0.2761(5) 0.3353(2)
H103A H -0.3966 -0.0738 0.3385
H103B H 0.0738 -0.3228 0.3385
C112A C -0.3306(4) -0.1274(7) 0.3336(2)
C112B C 0.1274(7) -0.2032(6) 0.3336(2)
C113A C -0.2522(7) -0.0566(10) 0.3377(4)
C113B C 0.0566(10) -0.1956(7) 0.3377(4)
H104A H -0.2158 -0.0760 0.3456
H104B H 0.0760 -0.1398 0.3456
C114A C -0.2200(8) -0.0135(12) 0.2978(3)
C114B C 0.0135(12) -0.2065(9) 0.2978(3)
H105A H -0.1673 0.0325 0.3012
H105B H -0.0325 -0.1998 0.3012
H106A H -0.2557 0.0038 0.2878
H106B H -0.0038 -0.2595 0.2878
H107A H -0.2171 -0.0501 0.2797
H107B H 0.0501 -0.1670 0.2797
C115A C -0.2355(7) 0.0582(11) 0.3634(3)
C115B C -0.0582(11) -0.2937(8) 0.3634(3)
H108A H -0.2282 0.0775 0.3380
H108B H -0.0775 -0.3057 0.3380
C116A C -0.2253(7) 0.1146(11) 0.3962(4)
C116B C -0.1146(11) -0.3399(8) 0.3962(4)
C117A C -0.2103(7) 0.1911(11) 0.3942(5)
C117B C -0.1911(11) -0.4014(8) 0.3942(5)
H109A H -0.2072 0.2128 0.3697
H109B H -0.2128 -0.4200 0.3697
C118A C -0.1998(8) 0.2371(11) 0.4247(6)
C118B C -0.2371(11) -0.4369(8) 0.4247(6)
H110A H -0.1928 0.2887 0.4231
H110B H -0.2887 -0.4815 0.4231
C119A C -0.2003(8) 0.2010(11) 0.4581(4)
C119B C -0.2010(11) -0.4013(8) 0.4581(4)
H111A H -0.1891 0.2308 0.4809
H111B H -0.2308 -0.4199 0.4809
C120A C -0.2160(6) 0.1243(8) 0.4608(4)
C120B C -0.1243(8) -0.3403(6) 0.4608(4)
H112A H -0.2194 0.1018 0.4852
H112B H -0.1018 -0.3212 0.4852
C121B C -0.0566(12) -0.2313(8) 0.5802(3)
C121A C -0.1747(9) 0.0566(12) 0.5802(3)
C122B C 0.1045(11) -0.1264(8) 0.5858(3)
C122A C -0.2309(8) -0.1045(11) 0.5858(3)
C123A C -0.2921(8) -0.0333(11) 0.6247(4)
C123B C 0.0333(11) -0.2588(7) 0.6247(4)
C124A C -0.2493(6) -0.0406(8) 0.5156(4)
C124B C 0.0406(8) -0.2087(6) 0.5156(4)
C125B C -0.0292(14) -0.3480(11) 0.5559(4)
C125A C -0.3188(8) 0.0292(14) 0.5559(4)
C126B C 0.1309(12) -0.2424(7) 0.5621(3)
C126A C -0.3733(10) -0.1309(12) 0.5621(3)
C127A C -0.0842(6) -0.0017(8) 0.4005(3)
C127B C 0.0017(8) -0.0825(6) 0.4005(3)
C128A C 0.0852(7) 0.0061(9) 0.3379(4)
C128B C -0.0061(9) 0.0791(6) 0.3379(4)
N17B N -0.2345(12) -0.3646(8) 0.6293(4)
N17A N -0.1301(9) 0.2345(12) 0.6293(4)
N18B N -0.2915(10) -0.3212(8) 0.5713(3)
N18A N -0.0297(6) 0.2915(10) 0.5713(3)
N19B N -0.3087(10) -0.2552(7) 0.6507(4)
N19A N 0.0535(7) 0.3087(10) 0.6507(4)
N20B N -0.1538(11) -0.1990(7) 0.6647(3)
N20A N -0.0452(8) 0.1538(11) 0.6647(3)
N21A N -0.3749(5) -0.0872(7) 0.4377(2)
N21B N 0.0872(7) -0.2877(5) 0.4377(2)
N22A N -0.2899(5) -0.1545(7) 0.4204(2)
N22B N 0.1545(7) -0.1354(5) 0.4204(2)
N23A N -0.2522(6) -0.0086(8) 0.3684(3)
N23B N 0.0086(8) -0.2436(6) 0.3684(3)
N24A N -0.2267(5) 0.0808(8) 0.4293(3)
N24B N -0.0808(8) -0.3075(6) 0.4293(3)
N25B N -0.1152(11) -0.2311(8) 0.5868(3)
N25A N -0.1159(8) 0.1152(11) 0.5868(3)
N26B N 0.1492(9) -0.0624(7) 0.5942(3)
N26A N -0.2116(6) -0.1492(9) 0.5942(3)
N27A N -0.3059(8) -0.0337(11) 0.6569(3)
N27B N 0.0337(11) -0.2722(8) 0.6569(3)
N28A N -0.2420(5) -0.0415(7) 0.4839(3)
N28B N 0.0415(7) -0.2005(5) 0.4839(3)
N29B N -0.0691(12) -0.4076(8) 0.5437(3)
N29A N -0.3385(9) 0.0691(12) 0.5437(3)
N30B N 0.1920(11) -0.2435(8) 0.5560(4)
N30A N -0.4355(8) -0.1920(11) 0.5560(4)
N31A N -0.1362(5) -0.0039(7) 0.4161(2)
N31B N 0.0039(7) -0.1323(5) 0.4161(2)
N32A N 0.1362(7) 0.0121(9) 0.3205(4)
N32B N -0.0121(9) 0.1241(6) 0.3205(4)
P1 P 0.3333 0.6667 0.4166(2)
F1 F 0.2838(7) 0.5898(6) 0.4405(4)
F2 F 0.3664(9) 0.6110(9) 0.3962(4)
F1A F 0.4102(6) 0.6940(9) 0.4405(4)
F1B F 0.3060(9) 0.7162(7) 0.4405(4)
F2A F 0.3890(9) 0.7554(13) 0.3962(4)
F2B F 0.2446(13) 0.6336(9) 0.3962(4)
P2 P 0.3333 0.6667 0.1621(2)
F3 F 0.2850(11) 0.6976(11) 0.1854(5)
F4 F 0.2588(6) 0.6233(7) 0.1352(3)
F3A F 0.3024(11) 0.5874(16) 0.1854(5)
F3B F 0.4126(16) 0.7150(11) 0.1854(5)
F4A F 0.3767(7) 0.6355(9) 0.1352(3)
F4B F 0.3645(9) 0.7412(6) 0.1352(3)
C129 C 0.7098(17) 0.3813(19) 0.0226(6)
C130 C 0.672(2) 0.3616(13) -0.0158(5)
C131 C 0.698(2) 0.3920(14) 0.0873(8)
C132 C 0.7138(13) 0.4196(9) 0.0558(7)
N33 N 0.6667 0.3333 0.0567(3)
C133 C 0.6865(11) 0.4616(10) 0.0813(5)
C129A C 0.6187(19) 0.3285(25) 0.0226(6)
C129B C 0.6715(25) 0.2902(17) 0.0226(6)
C130A C 0.6384(13) 0.3104(24) -0.0158(5)
C130B C 0.6896(24) 0.328(2) -0.0158(5)
C131A C 0.6080(14) 0.3060(24) 0.0873(8)
C131B C 0.6940(24) 0.302(2) 0.0873(8)
C132B C 0.7058(16) 0.2862(13) 0.0558(7)
C132A C 0.5804(9) 0.2942(16) 0.0558(7)
C133B C 0.7751(15) 0.3135(11) 0.0813(5)
C133A C 0.5384(10) 0.2249(15) 0.0813(5)
C134 C -0.006(3) -0.0436(16) 0.5573(5)
C135 C -0.0338(15) -0.056(2) 0.4899(8)
C136 C -0.0423(9) -0.0857(16) 0.5252(8)
N34 N 0.0000 0.0000 0.5224(4)
C137 C 0.0000 0.0000 0.5927(8)
C138 C -0.1082(9) -0.1336(11) 0.4979(5)
C134A C 0.0436(16) 0.0376(34) 0.5573(5)
C134B C -0.0376(34) 0.006(3) 0.5573(5)
C135A C 0.056(2) 0.0222(25) 0.4899(8)
C135B C -0.0222(25) 0.0338(15) 0.4899(8)
C136B C -0.0434(18) 0.0423(9) 0.5252(8)
C136A C 0.0857(16) 0.0434(18) 0.5252(8)
C138A C 0.1336(11) 0.0254(14) 0.4979(5)
C138B C -0.0254(14) 0.1082(9) 0.4979(5)
Ni1 Ni 0.91763(8) 0.54977(8) 0.15151(4)
Fe1 Fe 0.6667 0.3333 0.20883(7)
Ni2 Ni 0.88307(10) 0.29865(10) -0.03657(4)
Fe2 Fe 0.93897(10) 0.56755(10) 0.00792(5)
C1 C 1.1532(7) 0.4241(7) -0.0201(3)
H1 H 1.1528 0.4579 -0.0008
C2 C 1.2037(6) 0.3936(9) -0.0171(3)
H2 H 1.2378 0.4066 0.0042
C3 C 1.2044(8) 0.3442(9) -0.0454(4)
H3 H 1.2389 0.3234 -0.0433
C4 C 1.1545(9) 0.3253(9) -0.0766(3)
H4 H 1.1549 0.2915 -0.0959
C5 C 1.1040(7) 0.3558(8) -0.0796(3)
H5 H 1.0699 0.3428 -0.1009
C6 C 1.1034(6) 0.4052(7) -0.0513(3)
C7 C 1.0538(9) 0.4439(10) -0.0592(5)
H6 H 1.0480 0.4641 -0.0339
C8 C 1.0966(10) 0.5149(11) -0.0835(6)
H7 H 1.0635 0.5387 -0.0877
H8 H 1.1090 0.4998 -0.1081
H9 H 1.1457 0.5531 -0.0709
C9 C 0.9486(11) 0.3922(12) -0.1047(7)
H10 H 0.9838 0.4297 -0.1226
N1 N 0.8206(6) 0.2906(6) -0.0857(2)
C10 C 0.8670(6) 0.3410(6) -0.1146(3)
C11 C 0.8339(9) 0.3384(8) -0.1499(3)
H11 H 0.8656 0.3728 -0.1697
C12 C 0.7544(10) 0.2855(9) -0.1564(3)
H12 H 0.7318 0.2837 -0.1806
C13 C 0.7080(6) 0.2351(8) -0.1275(4)
H13 H 0.6537 0.1989 -0.1319
C14 C 0.7411(6) 0.2377(6) -0.0921(3)
H14 H 0.7094 0.2032 -0.0723
C15 C 0.8931(18) 0.1571(13) -0.1128(7)
C16 C 0.8554(12) 0.1666(16) -0.1442(10)
H15 H 0.8033 0.1580 -0.1418
C17 C 0.894(2) 0.1889(16) -0.1791(8)
H16 H 0.8681 0.1954 -0.2005
C18 C 0.970(2) 0.2015(15) -0.1826(6)
H17 H 0.9965 0.2167 -0.2065
C19 C 1.0078(11) 0.1920(15) -0.1512(10)
H18 H 1.0599 0.2006 -0.1537
C20 C 0.9693(18) 0.1697(13) -0.1163(7)
H19 H 0.9951 0.1632 -0.0949
C21 C 0.8506(14) 0.1351(16) -0.0773(6)
H20 H 0.7988 0.1321 -0.0817
C22 C 0.8340(14) 0.0526(12) -0.0689(5)
H21 H 0.8129 0.0377 -0.0430
H22 H 0.8829 0.0507 -0.0710
H23 H 0.7953 0.0158 -0.0871
C23 C 0.9427(14) 0.1959(11) -0.0279(6)
H24 H 0.9556 0.1560 -0.0328
C24 C 0.9786(10) 0.2476(11) 0.0070(5)
C25 C 1.0282(9) 0.2424(10) 0.0305(4)
H25 H 1.0457 0.2056 0.0265
C26 C 1.0536(10) 0.2925(13) 0.0612(5)
H26 H 1.0848 0.2869 0.0803
C27 C 1.0340(8) 0.3513(10) 0.0646(4)
H27 H 1.0510 0.3864 0.0857
C28 C 0.9894(8) 0.3562(8) 0.0364(4)
H28 H 0.9800 0.3994 0.0369
C29 C 1.0010(6) 0.4678(4) 0.2509(2)
H29 H 0.9540 0.4179 0.2522
C30 C 1.0741(7) 0.4725(6) 0.2532(2)
H30 H 1.0772 0.4258 0.2560
C31 C 1.1429(5) 0.5455(7) 0.2513(2)
H31 H 1.1928 0.5487 0.2528
C32 C 1.1384(4) 0.6138(5) 0.2472(2)
H32 H 1.1854 0.6637 0.2459
C33 C 1.0653(5) 0.6091(4) 0.2449(2)
H33 H 1.0623 0.6558 0.2421
C34 C 0.9966(4) 0.5361(6) 0.2468(2)
C35 C 0.9173(7) 0.5247(8) 0.2421(3)
H34 H 0.8817 0.4681 0.2351
C36 C 0.8879(8) 0.5386(8) 0.2812(3)
H35 H 0.8355 0.5327 0.2781
H36 H 0.9248 0.5919 0.2904
H37 H 0.8850 0.4998 0.2998
C37 C 0.8993(6) 0.6306(7) 0.2152(3)
H38 H 0.8938 0.6451 0.2403
C38 C 0.8909(7) 0.6721(8) 0.1815(5)
C39 C 0.8764(6) 0.7341(8) 0.1861(5)
H39 H 0.8730 0.7529 0.2105
C40 C 0.8671(9) 0.7683(9) 0.1518(6)
H40 H 0.8599 0.8128 0.1530
C41 C 0.8685(8) 0.7368(8) 0.1176(4)
H41 H 0.8612 0.7579 0.0946
C42 C 0.8807(6) 0.6744(6) 0.1171(4)
H42 H 0.8804 0.6522 0.0930
C43 C 1.1523(5) 0.7639(5) 0.1865(3)
H43 H 1.1695 0.7264 0.1872
C44 C 1.1763(6) 0.8214(6) 0.2146(2)
H44 H 1.2100 0.8231 0.2345
C45 C 1.1510(7) 0.8763(5) 0.2136(3)
H45 H 1.1675 0.9156 0.2328
C46 C 1.1018(6) 0.8738(5) 0.1845(4)
H46 H 1.0845 0.9113 0.1838
C47 C 1.0777(5) 0.8163(6) 0.1564(3)
H47 H 1.0440 0.8146 0.1364
C48 C 1.1030(5) 0.7614(4) 0.1574(2)
C49 C 1.0814(7) 0.7009(7) 0.1249(4)
H48 H 1.0422 0.7064 0.1088
C50 C 1.1511(10) 0.7245(9) 0.0997(4)
H49 H 1.1360 0.6874 0.0784
H50 H 1.1933 0.7236 0.1143
H51 H 1.1697 0.7778 0.0899
C51 C 1.0754(6) 0.5839(6) 0.1427(3)
H52 H 1.1299 0.6095 0.1365
C52 C 1.0352(7) 0.5011(6) 0.1542(3)
C53 C 1.0702(7) 0.4548(7) 0.1578(3)
H53 H 1.1257 0.4783 0.1547
C54 C 1.0282(9) 0.3791(8) 0.1654(3)
H54 H 1.0535 0.3488 0.1686
C55 C 0.9487(10) 0.3442(8) 0.1685(3)
H55 H 0.9171 0.2889 0.1724
C56 C 0.9140(8) 0.3928(7) 0.1660(3)
H56 H 0.8588 0.3701 0.1699
C57 C 0.9599(8) 0.5886(7) -0.0463(4)
C58 C 0.8962(7) 0.4584(8) -0.0064(3)
C59 C 0.8424(8) 0.5637(8) -0.0020(3)
C60 C 0.9793(9) 0.6746(9) 0.0219(4)
C61 C 0.9182(6) 0.5455(6) 0.0616(4)
C62 C 1.0353(9) 0.5720(8) 0.0156(3)
C63 C 0.7514(7) 0.4167(7) 0.1787(3)
C64 C 0.7488(6) 0.3282(6) 0.2404(3)
N2 N 0.9743(7) 0.3868(8) -0.0707(3)
N3 N 0.8972(9) 0.2027(9) -0.0505(3)
N4 N 0.9568(6) 0.3025(7) 0.0070(3)
N5 N 0.9143(5) 0.5747(6) 0.2093(3)
N6 N 0.8934(5) 0.6413(5) 0.1482(3)
N7 N 1.0388(5) 0.6225(5) 0.1407(2)
N8 N 0.9567(6) 0.4689(5) 0.1582(2)
N9 N 0.9729(7) 0.6056(7) -0.0789(4)
N10 N 0.8798(6) 0.3944(6) -0.0170(3)
N11 N 0.7869(7) 0.5667(6) -0.0093(3)
N12 N 1.0074(7) 0.7399(7) 0.0333(3)
N13 N 0.9083(5) 0.5331(5) 0.0926(3)
N14 N 1.0969(8) 0.5757(7) 0.0226(3)
N15 N 0.8043(6) 0.4657(5) 0.1633(2)
N16 N 0.7940(6) 0.3214(6) 0.2583(3)
Ni1A Ni 0.45023(8) 0.36786(11) 0.15151(4)
Ni1B Ni 0.63214(11) 0.08237(8) 0.15151(4)
Ni2B Ni 0.41558(14) 0.11693(10) -0.03657(4)
Ni2A Ni 0.70135(10) 0.58442(14) -0.03657(4)
Fe2B Fe 0.62858(14) 0.06103(10) 0.00792(5)
Fe2A Fe 0.43245(10) 0.37142(14) 0.00792(5)
C1A C 0.5759(7) 0.7291(10) -0.0201(3)
C1B C 0.2709(10) -0.1532(7) -0.0201(3)
H1A H 0.5421 0.6949 -0.0008
H1B H 0.3051 -0.1528 -0.0008
C2A C 0.6064(9) 0.8101(11) -0.0171(3)
C2B C 0.1899(11) -0.2037(6) -0.0171(3)
H2A H 0.5934 0.8312 0.0042
H2B H 0.1688 -0.2378 0.0042
C3A C 0.6558(9) 0.8602(12) -0.0454(4)
C3B C 0.1398(12) -0.2044(8) -0.0454(4)
H3A H 0.6766 0.9155 -0.0433
H3B H 0.0845 -0.2389 -0.0433
C4A C 0.6747(9) 0.8292(13) -0.0766(3)
C4B C 0.1708(13) -0.1545(9) -0.0766(3)
H4A H 0.7085 0.8634 -0.0959
H4B H 0.1366 -0.1549 -0.0959
C5A C 0.6442(8) 0.7482(11) -0.0796(3)
C5B C 0.2518(11) -0.1040(7) -0.0796(3)
H5A H 0.6572 0.7271 -0.1009
H5B H 0.2729 -0.0699 -0.1009
C6A C 0.5948(7) 0.6982(9) -0.0513(3)
C6B C 0.3018(9) -0.1034(6) -0.0513(3)
C7A C 0.5561(10) 0.6099(13) -0.0592(5)
C7B C 0.3901(13) -0.0538(9) -0.0592(5)
H6A H 0.5359 0.5839 -0.0339
H6B H 0.4161 -0.0480 -0.0339
C8A C 0.4851(11) 0.5817(15) -0.0835(6)
C8B C 0.4183(15) -0.0966(10) -0.0835(6)
H7A H 0.4613 0.5248 -0.0877
H7B H 0.4752 -0.0635 -0.0877
H8A H 0.5002 0.6092 -0.1081
H8B H 0.3908 -0.1090 -0.1081
H9A H 0.4469 0.5926 -0.0709
H9B H 0.4074 -0.1457 -0.0709
C9B C 0.4436(16) 0.0514(11) -0.1047(7)
C9A C 0.6078(12) 0.5564(16) -0.1047(7)
H10B H 0.4459 0.0162 -0.1226
H10A H 0.5703 0.5541 -0.1226
N1B N 0.4700(8) 0.1794(6) -0.0857(2)
N1A N 0.7094(6) 0.5300(8) -0.0857(2)
C10B C 0.4740(8) 0.1330(6) -0.1146(3)
C10A C 0.6590(6) 0.5260(8) -0.1146(3)
C11A C 0.6616(8) 0.4955(12) -0.1499(3)
C11B C 0.5045(12) 0.1661(9) -0.1499(3)
H11A H 0.6272 0.4928 -0.1697
H11B H 0.5072 0.1344 -0.1697
C12A C 0.7145(9) 0.4689(13) -0.1564(3)
C12B C 0.5311(13) 0.2456(10) -0.1564(3)
H12A H 0.7163 0.4481 -0.1806
H12B H 0.5519 0.2682 -0.1806
C13A C 0.7649(8) 0.4729(10) -0.1275(4)
C13B C 0.5271(10) 0.2920(6) -0.1275(4)
H13A H 0.8011 0.4548 -0.1319
H13B H 0.5452 0.3463 -0.1319
C14A C 0.7623(6) 0.5034(8) -0.0921(3)
C14B C 0.4966(8) 0.2589(6) -0.0921(3)
H14A H 0.7968 0.5062 -0.0723
H14B H 0.4938 0.2906 -0.0723
C15B C 0.2640(22) 0.1069(18) -0.1128(7)
C15A C 0.8429(13) 0.7360(22) -0.1128(7)
C16B C 0.3112(20) 0.1446(12) -0.1442(10)
C16A C 0.8334(16) 0.6888(20) -0.1442(10)
H15B H 0.3547 0.1967 -0.1418
H15A H 0.8420 0.6453 -0.1418
C17B C 0.2949(26) 0.106(2) -0.1791(8)
C17A C 0.8111(16) 0.7051(26) -0.1791(8)
H16B H 0.3273 0.1319 -0.2005
H16A H 0.8046 0.6727 -0.2005
C18B C 0.2315(25) 0.030(2) -0.1826(6)
C18A C 0.7985(15) 0.7685(25) -0.1826(6)
H17B H 0.2202 0.0035 -0.2065
H17A H 0.7833 0.7798 -0.2065
C19B C 0.1842(19) -0.0078(11) -0.1512(10)
C19A C 0.8080(15) 0.8158(19) -0.1512(10)
H18B H 0.1407 -0.0599 -0.1537
H18A H 0.7994 0.8593 -0.1537
C20B C 0.2004(22) 0.0307(18) -0.1163(7)
C20A C 0.8303(13) 0.7996(22) -0.1163(7)
H19B H 0.1681 0.0049 -0.0949
H19A H 0.8368 0.8319 -0.0949
C21B C 0.2845(21) 0.1494(14) -0.0773(6)
C21A C 0.8649(16) 0.7155(21) -0.0773(6)
H20B H 0.3333 0.2012 -0.0817
H20A H 0.8679 0.6667 -0.0817
C22B C 0.2186(18) 0.1660(14) -0.0689(5)
C22A C 0.9474(12) 0.7814(18) -0.0689(5)
H21B H 0.2248 0.1871 -0.0430
H21A H 0.9623 0.7752 -0.0430
H22B H 0.1678 0.1171 -0.0710
H22A H 0.9493 0.8322 -0.0710
H23B H 0.2205 0.2047 -0.0871
H23A H 0.9842 0.7795 -0.0871
C23B C 0.2532(18) 0.0573(14) -0.0279(6)
C23A C 0.8041(11) 0.7468(18) -0.0279(6)
H24B H 0.2004 0.0444 -0.0328
H24A H 0.8440 0.7996 -0.0328
C24B C 0.2690(15) 0.0214(10) 0.0070(5)
C24A C 0.7524(11) 0.7310(15) 0.0070(5)
C25B C 0.2142(13) -0.0282(9) 0.0305(4)
C25A C 0.7576(10) 0.7858(13) 0.0305(4)
H25B H 0.1599 -0.0457 0.0265
H25A H 0.7944 0.8401 0.0265
C26B C 0.2389(16) -0.0536(10) 0.0612(5)
C26A C 0.7075(13) 0.7611(16) 0.0612(5)
H26B H 0.2021 -0.0848 0.0803
H26A H 0.7131 0.7979 0.0803
C27B C 0.3173(13) -0.0340(8) 0.0646(4)
C27A C 0.6487(10) 0.6827(13) 0.0646(4)
H27B H 0.3354 -0.0510 0.0857
H27A H 0.6136 0.6646 0.0857
C28B C 0.3668(11) 0.0106(8) 0.0364(4)
C28A C 0.6438(8) 0.6332(11) 0.0364(4)
H28B H 0.4194 0.0200 0.0369
H28A H 0.6006 0.5806 0.0369
C29A C 0.5322(4) 0.5332(7) 0.2509(2)
C29B C 0.4668(7) -0.0010(6) 0.2509(2)
H29A H 0.5821 0.5361 0.2522
H29B H 0.4639 0.0460 0.2522
C30A C 0.5275(6) 0.6016(9) 0.2532(2)
C30B C 0.3984(9) -0.0741(7) 0.2532(2)
H30A H 0.5742 0.6514 0.2560
H30B H 0.3486 -0.0772 0.2560
C31A C 0.4545(7) 0.5974(9) 0.2513(2)
C31B C 0.4026(9) -0.1429(5) 0.2513(2)
H31A H 0.4513 0.6441 0.2528
H31B H 0.3559 -0.1928 0.2528
C32A C 0.3862(5) 0.5246(6) 0.2472(2)
C32B C 0.4754(6) -0.1384(4) 0.2472(2)
H32A H 0.3363 0.5217 0.2459
H32B H 0.4783 -0.1854 0.2459
C33A C 0.3909(4) 0.4562(6) 0.2449(2)
C33B C 0.5438(6) -0.0653(5) 0.2449(2)
H33A H 0.3442 0.4065 0.2421
H33B H 0.5935 -0.0623 0.2421
C34A C 0.4639(6) 0.4605(7) 0.2468(2)
C34B C 0.5395(7) 0.0034(4) 0.2468(2)
C35A C 0.4753(8) 0.3926(11) 0.2421(3)
C35B C 0.6074(11) 0.0827(7) 0.2421(3)
H34A H 0.5319 0.4136 0.2351
H34B H 0.5864 0.1183 0.2351
C36A C 0.4614(8) 0.3493(11) 0.2812(3)
C36B C 0.6507(11) 0.1121(8) 0.2812(3)
H35A H 0.4673 0.3028 0.2781
H35B H 0.6972 0.1645 0.2781
H36A H 0.4081 0.3329 0.2904
H36B H 0.6671 0.0752 0.2904
H37A H 0.5002 0.3852 0.2998
H37B H 0.6148 0.1150 0.2998
C37A C 0.3694(7) 0.2687(9) 0.2152(3)
C37B C 0.7313(9) 0.1007(6) 0.2152(3)
H38A H 0.3549 0.2487 0.2403
H38B H 0.7513 0.1062 0.2403
C38A C 0.3279(8) 0.2188(11) 0.1815(5)
C38B C 0.7812(11) 0.1091(7) 0.1815(5)
C39A C 0.2659(8) 0.1423(10) 0.1861(5)
C39B C 0.8577(10) 0.1236(6) 0.1861(5)
H39A H 0.2471 0.1201 0.2105
H39B H 0.8799 0.1270 0.2105
C40A C 0.2317(9) 0.0988(13) 0.1518(6)
C40B C 0.9012(13) 0.1329(9) 0.1518(6)
H40A H 0.1872 0.0471 0.1530
H40B H 0.9529 0.1401 0.1530
C41A C 0.2632(8) 0.1317(11) 0.1176(4)
C41B C 0.8683(11) 0.1315(8) 0.1176(4)
H41A H 0.2421 0.1033 0.0946
H41B H 0.8967 0.1388 0.0946
C42A C 0.3256(6) 0.2063(8) 0.1171(4)
C42B C 0.7937(8) 0.1193(6) 0.1171(4)
H42A H 0.3478 0.2282 0.0930
H42B H 0.7718 0.1196 0.0930
C43A C 0.2361(5) 0.3884(7) 0.1865(3)
C43B C 0.6116(7) -0.1523(5) 0.1865(3)
H43A H 0.2736 0.4431 0.1872
H43B H 0.5569 -0.1695 0.1872
C44A C 0.1786(6) 0.3549(8) 0.2146(2)
C44B C 0.6451(8) -0.1763(6) 0.2146(2)
H44A H 0.1769 0.3869 0.2345
H44B H 0.6131 -0.2100 0.2345
C45A C 0.1237(5) 0.2747(9) 0.2136(3)
C45B C 0.7253(9) -0.1510(7) 0.2136(3)
H45A H 0.0844 0.2519 0.2328
H45B H 0.7481 -0.1675 0.2328
C46A C 0.1262(5) 0.2280(8) 0.1845(4)
C46B C 0.7720(8) -0.1018(6) 0.1845(4)
H46A H 0.0887 0.1732 0.1838
H46B H 0.8268 -0.0845 0.1838
C47A C 0.1837(6) 0.2614(8) 0.1564(3)
C47B C 0.7386(8) -0.0777(5) 0.1564(3)
H47A H 0.1854 0.2294 0.1364
H47B H 0.7706 -0.0440 0.1364
C48A C 0.2386(4) 0.3416(6) 0.1574(2)
C48B C 0.6584(6) -0.1030(5) 0.1574(2)
C49A C 0.2991(7) 0.3805(10) 0.1249(4)
C49B C 0.6195(10) -0.0814(7) 0.1249(4)
H48A H 0.2936 0.3358 0.1088
H48B H 0.6642 -0.0422 0.1088
C50A C 0.2755(9) 0.4266(13) 0.0997(4)
C50B C 0.5734(13) -0.1511(10) 0.0997(4)
H49A H 0.3126 0.4486 0.0784
H49B H 0.5514 -0.1360 0.0784
H50A H 0.2764 0.4697 0.1143
H50B H 0.5303 -0.1933 0.1143
H51A H 0.2222 0.3919 0.0899
H51B H 0.6081 -0.1697 0.0899
C51A C 0.4161(6) 0.4915(8) 0.1427(3)
C51B C 0.5085(8) -0.0754(6) 0.1427(3)
H52A H 0.3905 0.5204 0.1365
H52B H 0.4796 -0.1299 0.1365
C52A C 0.4989(6) 0.5341(9) 0.1542(3)
C52B C 0.4659(9) -0.0352(7) 0.1542(3)
C53A C 0.5452(7) 0.6154(10) 0.1578(3)
C53B C 0.3846(10) -0.0702(7) 0.1578(3)
H53A H 0.5217 0.6474 0.1547
H53B H 0.3526 -0.1257 0.1547
C54A C 0.6209(8) 0.6491(12) 0.1654(3)
C54B C 0.3509(12) -0.0282(9) 0.1654(3)
H54A H 0.6512 0.7047 0.1686
H54B H 0.2953 -0.0535 0.1686
C55A C 0.6558(8) 0.6045(13) 0.1685(3)
C55B C 0.3955(13) 0.0513(10) 0.1685(3)
H55A H 0.7111 0.6282 0.1724
H55B H 0.3718 0.0829 0.1724
C56A C 0.6072(7) 0.5212(11) 0.1660(3)
C56B C 0.4788(11) 0.0860(8) 0.1660(3)
H56A H 0.6299 0.4887 0.1699
H56B H 0.5113 0.1412 0.1699
C57B C 0.6287(11) 0.0401(8) -0.0463(4)
C57A C 0.4114(7) 0.3713(11) -0.0463(4)
C58B C 0.5622(11) 0.1038(7) -0.0064(3)
C58A C 0.5416(8) 0.4378(11) -0.0064(3)
C59B C 0.7213(11) 0.1576(8) -0.0020(3)
C59A C 0.4363(8) 0.2787(11) -0.0020(3)
C60A C 0.3254(9) 0.3047(13) 0.0219(4)
C60B C 0.6953(13) 0.0207(9) 0.0219(4)
C61A C 0.4545(6) 0.3727(8) 0.0616(4)
C61B C 0.6273(8) 0.0818(6) 0.0616(4)
C62B C 0.5367(12) -0.0353(9) 0.0156(3)
C62A C 0.4280(8) 0.4633(12) 0.0156(3)
C63A C 0.5833(7) 0.3347(10) 0.1787(3)
C63B C 0.6653(10) 0.2486(7) 0.1787(3)
C64A C 0.6718(6) 0.4206(8) 0.2404(3)
C64B C 0.5794(8) 0.2512(6) 0.2404(3)
N2B N 0.4125(11) 0.0257(7) -0.0707(3)
N2A N 0.6132(8) 0.5875(11) -0.0707(3)
N3B N 0.3055(13) 0.1028(9) -0.0505(3)
N3A N 0.7973(9) 0.6945(13) -0.0505(3)
N4B N 0.3457(9) 0.0432(6) 0.0070(3)
N4A N 0.6975(7) 0.6543(9) 0.0070(3)
N5A N 0.4253(6) 0.3396(8) 0.2093(3)
N5B N 0.6604(8) 0.0857(5) 0.2093(3)
N6A N 0.3587(5) 0.2521(7) 0.1482(3)
N6B N 0.7479(7) 0.1066(5) 0.1482(3)
N7A N 0.3775(5) 0.4163(7) 0.1407(2)
N7B N 0.5837(7) -0.0388(5) 0.1407(2)
N8A N 0.5311(5) 0.4878(8) 0.1582(2)
N8B N 0.5122(8) 0.0433(6) 0.1582(2)
N9B N 0.6327(10) 0.0271(7) -0.0789(4)
N9A N 0.3944(7) 0.3673(10) -0.0789(4)
N10B N 0.5146(8) 0.1202(6) -0.0170(3)
N10A N 0.6056(6) 0.4854(8) -0.0170(3)
N11B N 0.7798(9) 0.2131(7) -0.0093(3)
N11A N 0.4333(6) 0.2202(9) -0.0093(3)
N12A N 0.2601(7) 0.2675(10) 0.0333(3)
N12B N 0.7325(10) -0.0074(7) 0.0333(3)
N13A N 0.4669(5) 0.3752(7) 0.0926(3)
N13B N 0.6248(7) 0.0917(5) 0.0926(3)
N14B N 0.4788(11) -0.0969(8) 0.0226(3)
N14A N 0.4243(7) 0.5212(11) 0.0226(3)
N15A N 0.5343(5) 0.3386(8) 0.1633(2)
N15B N 0.6614(8) 0.1957(6) 0.1633(2)
N16A N 0.6786(6) 0.4726(8) 0.2583(3)
N16B N 0.5274(8) 0.2060(6) 0.2583(3)
loop_
_geom_bond_atom_site_label_1
_geom_bond_atom_site_label_2
_geom_bond_site_symmetry_1
_geom_bond_site_symmetry_2
Ni1 N5 1_555 1_555
Fe1 C63 1_555 1_555
Ni2 N1 1_555 1_555
Fe2 C57 1_555 1_555
C1 H1 1_555 1_555
C2 C1 1_555 1_555
H2 C2 1_555 1_555
C3 C2 1_555 1_555
H3 C3 1_555 1_555
C4 C3 1_555 1_555
H4 C4 1_555 1_555
C5 C4 1_555 1_555
H5 C5 1_555 1_555
C6 C1 1_555 1_555
C7 C6 1_555 1_555
H6 C7 1_555 1_555
C8 C7 1_555 1_555
H7 C8 1_555 1_555
H8 C8 1_555 1_555
H9 C8 1_555 1_555
C9 H10 1_555 1_555
N1 C10 1_555 1_555
C10 C9 1_555 1_555
C11 C10 1_555 1_555
H11 C11 1_555 1_555
C12 C11 1_555 1_555
H12 C12 1_555 1_555
C13 C12 1_555 1_555
H13 C13 1_555 1_555
C14 N1 1_555 1_555
H14 C14 1_555 1_555
C15 C16 1_555 1_555
C16 H15 1_555 1_555
C17 C16 1_555 1_555
H16 C17 1_555 1_555
C18 C17 1_555 1_555
H17 C18 1_555 1_555
C19 C18 1_555 1_555
H18 C19 1_555 1_555
C20 C15 1_555 1_555
H19 C20 1_555 1_555
C21 C15 1_555 1_555
H20 C21 1_555 1_555
C22 C21 1_555 1_555
H21 C22 1_555 1_555
H22 C22 1_555 1_555
H23 C22 1_555 1_555
C23 H24 1_555 1_555
C24 C23 1_555 1_555
C25 C24 1_555 1_555
H25 C25 1_555 1_555
C26 C25 1_555 1_555
H26 C26 1_555 1_555
C27 C26 1_555 1_555
H27 C27 1_555 1_555
C28 C27 1_555 1_555
H28 C28 1_555 1_555
C29 H29 1_555 1_555
C30 C29 1_555 1_555
H30 C30 1_555 1_555
C31 C30 1_555 1_555
H31 C31 1_555 1_555
C32 C31 1_555 1_555
H32 C32 1_555 1_555
C33 C32 1_555 1_555
H33 C33 1_555 1_555
C34 C29 1_555 1_555
C35 C34 1_555 1_555
H34 C35 1_555 1_555
C36 C35 1_555 1_555
H35 C36 1_555 1_555
H36 C36 1_555 1_555
H37 C36 1_555 1_555
C37 H38 1_555 1_555
C38 C37 1_555 1_555
C39 C38 1_555 1_555
H39 C39 1_555 1_555
C40 C39 1_555 1_555
H40 C40 1_555 1_555
C41 C40 1_555 1_555
H41 C41 1_555 1_555
C42 C41 1_555 1_555
H42 C42 1_555 1_555
C43 H43 1_555 1_555
C44 C43 1_555 1_555
H44 C44 1_555 1_555
C45 C44 1_555 1_555
H45 C45 1_555 1_555
C46 C45 1_555 1_555
H46 C46 1_555 1_555
C47 C46 1_555 1_555
H47 C47 1_555 1_555
C48 C43 1_555 1_555
C49 C48 1_555 1_555
H48 C49 1_555 1_555
C50 C49 1_555 1_555
H49 C50 1_555 1_555
H50 C50 1_555 1_555
H51 C50 1_555 1_555
C51 H52 1_555 1_555
C52 C51 1_555 1_555
C53 C52 1_555 1_555
H53 C53 1_555 1_555
C54 C53 1_555 1_555
H54 C54 1_555 1_555
C55 C54 1_555 1_555
H55 C55 1_555 1_555
C56 C55 1_555 1_555
H56 C56 1_555 1_555
C57 N9 1_555 1_555
C58 Fe2 1_555 1_555
C59 Fe2 1_555 1_555
C60 Fe2 1_555 1_555
C61 Fe2 1_555 1_555
C62 Fe2 1_555 1_555
C63 N15 1_555 1_555
C64 Fe1 1_555 1_555
N2 Ni2 1_555 1_555
N3 Ni2 1_555 1_555
N4 Ni2 1_555 1_555
N5 C35 1_555 1_555
N6 Ni1 1_555 1_555
N7 Ni1 1_555 1_555
N8 Ni1 1_555 1_555
N10 Ni2 1_555 1_555
N11 C59 1_555 1_555
N12 C60 1_555 1_555
N13 Ni1 1_555 1_555
N14 C62 1_555 1_555
N15 Ni1 1_555 1_555
N16 C64 1_555 1_555
Ni3 N21 1_555 1_555
Fe3 C127 1_555 1_555
Ni4 N17 1_555 1_555
Fe4 C121 1_555 1_555
C65 C66 1_555 1_555
C66 H57 1_555 1_555
C67 C66 1_555 1_555
H58 C67 1_555 1_555
C68 C67 1_555 1_555
H59 C68 1_555 1_555
C69 C68 1_555 1_555
H60 C69 1_555 1_555
C70 C65 1_555 1_555
H61 C70 1_555 1_555
C71 C65 1_555 1_555
H62 C71 1_555 1_555
C72 C71 1_555 1_555
H63 C72 1_555 1_555
H64 C72 1_555 1_555
H65 C72 1_555 1_555
C73 H66 1_555 1_555
C74 C73 1_555 1_555
C75 C74 1_555 1_555
H67 C75 1_555 1_555
C76 C75 1_555 1_555
H68 C76 1_555 1_555
C77 C76 1_555 1_555
H69 C77 1_555 1_555
C78 C77 1_555 1_555
H70 C78 1_555 1_555
C79 H71 1_555 1_555
C80 C79 1_555 1_555
H72 C80 1_555 1_555
C81 C80 1_555 1_555
H73 C81 1_555 1_555
C82 C81 1_555 1_555
H74 C82 1_555 1_555
C83 C82 1_555 1_555
H75 C83 1_555 1_555
C84 C79 1_555 1_555
C85 C84 1_555 1_555
H76 C85 1_555 1_555
C86 C85 1_555 1_555
H77 C86 1_555 1_555
H78 C86 1_555 1_555
H79 C86 1_555 1_555
C87 H80 1_555 1_555
C88 C87 1_555 1_555
C89 C88 1_555 1_555
H81 C89 1_555 1_555
C90 C89 1_555 1_555
H82 C90 1_555 1_555
C91 C90 1_555 1_555
H83 C91 1_555 1_555
C92 C91 1_555 1_555
H84 C92 1_555 1_555
C93 H85 1_555 1_555
C94 C93 1_555 1_555
H86 C94 1_555 1_555
C95 C94 1_555 1_555
H87 C95 1_555 1_555
C96 C95 1_555 1_555
H88 C96 1_555 1_555
C97 C96 1_555 1_555
H89 C97 1_555 1_555
C98 C93 1_555 1_555
C99 C98 1_555 1_555
H90 C99 1_555 1_555
C100 C99 1_555 1_555
H91 C100 1_555 1_555
H92 C100 1_555 1_555
H93 C100 1_555 1_555
C101 H94 1_555 1_555
C102 C101 1_555 1_555
C103 C102 1_555 1_555
H95 C103 1_555 1_555
C104 C103 1_555 1_555
H96 C104 1_555 1_555
C105 C104 1_555 1_555
H97 C105 1_555 1_555
C106 C105 1_555 1_555
H98 C106 1_555 1_555
C107 H99 1_555 1_555
C108 C107 1_555 1_555
H100 C108 1_555 1_555
C109 C108 1_555 1_555
H101 C109 1_555 1_555
C110 C109 1_555 1_555
H102 C110 1_555 1_555
C111 C110 1_555 1_555
H103 C111 1_555 1_555
C112 C107 1_555 1_555
C113 C112 1_555 1_555
H104 C113 1_555 1_555
C114 C113 1_555 1_555
H105 C114 1_555 1_555
H106 C114 1_555 1_555
H107 C114 1_555 1_555
C115 H108 1_555 1_555
C116 C115 1_555 1_555
C117 C116 1_555 1_555
H109 C117 1_555 1_555
C118 C117 1_555 1_555
H110 C118 1_555 1_555
C119 C118 1_555 1_555
H111 C119 1_555 1_555
C120 C119 1_555 1_555
H112 C120 1_555 1_555
C121 N25 1_555 1_555
C122 Fe4 1_555 1_555
C123 Fe4 1_555 1_555
C124 Fe4 1_555 1_555
C125 Fe4 1_555 1_555
C126 Fe4 1_555 1_555
C127 N31 1_555 1_555
C128 Fe3 1_555 1_555
N17 C71 1_555 1_555
N18 Ni4 1_555 1_555
N19 Ni4 1_555 1_555
N20 Ni4 1_555 1_555
N21 C99 1_555 1_555
N22 Ni3 1_555 1_555
N23 Ni3 1_555 1_555
N24 Ni3 1_555 1_555
N25 Ni4 1_555 1_555
N26 C122 1_555 1_555
N27 C123 1_555 1_555
N28 Ni3 1_555 1_555
N29 C125 1_555 1_555
N30 C126 1_555 1_555
N31 Ni3 1_555 1_555
N32 C128 1_555 1_555
P1 F1 1_555 1_555
F2 P1 1_555 1_555
P2 F3 1_555 1_555
F4 P2 1_555 1_555
C129 C130 1_555 1_555
C130 C129A 1_555 1_555
C131 C132 1_555 1_555
C132 C129 1_555 1_555
N33 C129 1_555 1_555
C133 C131 1_555 1_555
C134 C136 1_555 1_555
C135 C136 1_555 1_555
C136 N34 1_555 1_555
N34 C134 1_555 1_555
C137 C134 1_555 1_555
C138 C135 1_555 1_555
Ni1A N5A 1_555 1_555
Ni1B N5B 1_555 1_555
Ni2B N1B 1_555 1_555
Ni2A N11 1_555 1_555
Fe2B C57B 1_555 1_555
Fe2A C57A 1_555 1_555
C1A H1A 1_555 1_555
C1B H1B 1_555 1_555
C2A C1A 1_555 1_555
C2B C1B 1_555 1_555
H2A C2A 1_555 1_555
H2B C2B 1_555 1_555
C3A C2A 1_555 1_555
C3B C2B 1_555 1_555
H3A C3A 1_555 1_555
H3B C3B 1_555 1_555
C4A C3A 1_555 1_555
C4B C3B 1_555 1_555
H4A C4A 1_555 1_555
H4B C4B 1_555 1_555
C5A C4A 1_555 1_555
C5B C4B 1_555 1_555
H5A C5A 1_555 1_555
H5B C5B 1_555 1_555
C6A C1A 1_555 1_555
C6B C1B 1_555 1_555
C7A C6A 1_555 1_555
C7B C6B 1_555 1_555
H6A C7A 1_555 1_555
H6B C7B 1_555 1_555
C8A C7A 1_555 1_555
C8B C7B 1_555 1_555
H7A C8A 1_555 1_555
H7B C8B 1_555 1_555
H8A C8A 1_555 1_555
H8B C8B 1_555 1_555
H9A C8A 1_555 1_555
H9B C8B 1_555 1_555
C9B H10B 1_555 1_555
C9A H10A 1_555 1_555
N1B C10B 1_555 1_555
N1A Ni2A 1_555 1_555
C10B C9B 1_555 1_555
C10A C9A 1_555 1_555
C11A C10A 1_555 1_555
C11B C10B 1_555 1_555
H11A C11A 1_555 1_555
H11B C11B 1_555 1_555
C12A C11A 1_555 1_555
C12B C11B 1_555 1_555
H12A C12A 1_555 1_555
H12B C12B 1_555 1_555
C13A C12A 1_555 1_555
C13B C12B 1_555 1_555
H13A C13A 1_555 1_555
H13B C13B 1_555 1_555
C14A N1A 1_555 1_555
C14B N1B 1_555 1_555
H14A C14A 1_555 1_555
H14B C14B 1_555 1_555
C15B C16B 1_555 1_555
C15A C16A 1_555 1_555
C16B H15B 1_555 1_555
C16A H15A 1_555 1_555
C17B C16B 1_555 1_555
C17A C16A 1_555 1_555
H16B C17B 1_555 1_555
H16A C17A 1_555 1_555
C18B C17B 1_555 1_555
C18A C17A 1_555 1_555
H17B C18B 1_555 1_555
H17A C18A 1_555 1_555
C19B C18B 1_555 1_555
C19A C18A 1_555 1_555
H18B C19B 1_555 1_555
H18A C19A 1_555 1_555
C20B C15B 1_555 1_555
C20A C15A 1_555 1_555
H19B C20B 1_555 1_555
H19A C20A 1_555 1_555
C21B C15B 1_555 1_555
C21A C15A 1_555 1_555
H20B C21B 1_555 1_555
H20A C21A 1_555 1_555
C22B C21B 1_555 1_555
C22A C21A 1_555 1_555
H21B C22B 1_555 1_555
H21A C22A 1_555 1_555
H22B C22B 1_555 1_555
H22A C22A 1_555 1_555
H23B C22B 1_555 1_555
H23A C22A 1_555 1_555
C23B H24B 1_555 1_555
C23A H24A 1_555 1_555
C24B C23B 1_555 1_555
C24A C23A 1_555 1_555
C25B C24B 1_555 1_555
C25A C24A 1_555 1_555
H25B C25B 1_555 1_555
H25A C25A 1_555 1_555
C26B C25B 1_555 1_555
C26A C25A 1_555 1_555
H26B C26B 1_555 1_555
H26A C26A 1_555 1_555
C27B C26B 1_555 1_555
C27A C26A 1_555 1_555
H27B C27B 1_555 1_555
H27A C27A 1_555 1_555
C28B C27B 1_555 1_555
C28A C27A 1_555 1_555
H28B C28B 1_555 1_555
H28A C28A 1_555 1_555
C29A H29A 1_555 1_555
C29B H29B 1_555 1_555
C30A C29A 1_555 1_555
C30B C29B 1_555 1_555
H30A C30A 1_555 1_555
H30B C30B 1_555 1_555
C31A C30A 1_555 1_555
C31B C30B 1_555 1_555
H31A C31A 1_555 1_555
H31B C31B 1_555 1_555
C32A C31A 1_555 1_555
C32B C31B 1_555 1_555
H32A C32A 1_555 1_555
H32B C32B 1_555 1_555
C33A C32A 1_555 1_555
C33B C32B 1_555 1_555
H33A C33A 1_555 1_555
H33B C33B 1_555 1_555
C34A C29A 1_555 1_555
C34B C29B 1_555 1_555
C35A C34A 1_555 1_555
C35B C34B 1_555 1_555
H34A C35A 1_555 1_555
H34B C35B 1_555 1_555
C36A C35A 1_555 1_555
C36B C35B 1_555 1_555
H35A C36A 1_555 1_555
H35B C36B 1_555 1_555
H36A C36A 1_555 1_555
H36B C36B 1_555 1_555
H37A C36A 1_555 1_555
H37B C36B 1_555 1_555
C37A H38A 1_555 1_555
C37B H38B 1_555 1_555
C38A C37A 1_555 1_555
C38B C37B 1_555 1_555
C39A C38A 1_555 1_555
C39B C38B 1_555 1_555
H39A C39A 1_555 1_555
H39B C39B 1_555 1_555
C40A C39A 1_555 1_555
C40B C39B 1_555 1_555
H40A C40A 1_555 1_555
H40B C40B 1_555 1_555
C41A C40A 1_555 1_555
C41B C40B 1_555 1_555
H41A C41A 1_555 1_555
H41B C41B 1_555 1_555
C42A C41A 1_555 1_555
C42B C41B 1_555 1_555
H42A C42A 1_555 1_555
H42B C42B 1_555 1_555
C43A H43A 1_555 1_555
C43B H43B 1_555 1_555
C44A C43A 1_555 1_555
C44B C43B 1_555 1_555
H44A C44A 1_555 1_555
H44B C44B 1_555 1_555
C45A C44A 1_555 1_555
C45B C44B 1_555 1_555
H45A C45A 1_555 1_555
H45B C45B 1_555 1_555
C46A C45A 1_555 1_555
C46B C45B 1_555 1_555
H46A C46A 1_555 1_555
H46B C46B 1_555 1_555
C47A C46A 1_555 1_555
C47B C46B 1_555 1_555
H47A C47A 1_555 1_555
H47B C47B 1_555 1_555
C48A C43A 1_555 1_555
C48B C43B 1_555 1_555
C49A C48A 1_555 1_555
C49B C48B 1_555 1_555
H48A C49A 1_555 1_555
H48B C49B 1_555 1_555
C50A C49A 1_555 1_555
C50B C49B 1_555 1_555
H49A C50A 1_555 1_555
H49B C50B 1_555 1_555
H50A C50A 1_555 1_555
H50B C50B 1_555 1_555
H51A C50A 1_555 1_555
H51B C50B 1_555 1_555
C51A H52A 1_555 1_555
C51B H52B 1_555 1_555
C52A C51A 1_555 1_555
C52B C51B 1_555 1_555
C53A C52A 1_555 1_555
C53B C52B 1_555 1_555
H53A C53A 1_555 1_555
H53B C53B 1_555 1_555
C54A C53A 1_555 1_555
C54B C53B 1_555 1_555
H54A C54A 1_555 1_555
H54B C54B 1_555 1_555
C55A C54A 1_555 1_555
C55B C54B 1_555 1_555
H55A C55A 1_555 1_555
H55B C55B 1_555 1_555
C56A C55A 1_555 1_555
C56B C55B 1_555 1_555
H56A C56A 1_555 1_555
H56B C56B 1_555 1_555
C57B N9B 1_555 1_555
C57A N9A 1_555 1_555
C58B Fe2B 1_555 1_555
C58A Fe2A 1_555 1_555
C59B Fe2B 1_555 1_555
C59A Fe2A 1_555 1_555
C60A Fe2A 1_555 1_555
C60B Fe2B 1_555 1_555
C61A Fe2A 1_555 1_555
C61B Fe2B 1_555 1_555
C62B Fe2B 1_555 1_555
C62A Fe2A 1_555 1_555
C63A Fe1 1_555 1_555
C63B Fe1 1_555 1_555
C64A Fe1 1_555 1_555
C64B Fe1 1_555 1_555
N2B Ni2B 1_555 1_555
N2A Ni2A 1_555 1_555
N3B Ni2B 1_555 1_555
N3A Ni2A 1_555 1_555
N4B Ni2B 1_555 1_555
N4A Ni2A 1_555 1_555
N5A C35A 1_555 1_555
N5B C35B 1_555 1_555
N6A Ni1A 1_555 1_555
N6B Ni1B 1_555 1_555
N7A Ni1A 1_555 1_555
N7B Ni1B 1_555 1_555
N8A Ni1A 1_555 1_555
N8B Ni1B 1_555 1_555
N10B Ni2B 1_555 1_555
N10A Ni2A 1_555 1_555
N11B Ni2 1_555 1_555
N11A Ni2B 1_555 1_555
N12A C60A 1_555 1_555
N12B C60B 1_555 1_555
N13A Ni1A 1_555 1_555
N13B Ni1B 1_555 1_555
N14B C62B 1_555 1_555
N14A C62A 1_555 1_555
N15A Ni1A 1_555 1_555
N15B Ni1B 1_555 1_555
N16A C64A 1_555 1_555
N16B C64B 1_555 1_555
Ni3A N21A 1_555 1_555
Ni3B N21B 1_555 1_555
Ni4B N17B 1_555 1_555
Ni4A N26 1_555 1_555
Fe4B C121B 1_555 1_555
Fe4A C121A 1_555 1_555
C65B C66B 1_555 1_555
C65A C66A 1_555 1_555
C66B H57B 1_555 1_555
C66A H57A 1_555 1_555
C67B C66B 1_555 1_555
C67A C66A 1_555 1_555
H58B C67B 1_555 1_555
H58A C67A 1_555 1_555
C68B C67B 1_555 1_555
C68A C67A 1_555 1_555
H59B C68B 1_555 1_555
H59A C68A 1_555 1_555
C69B C68B 1_555 1_555
C69A C68A 1_555 1_555
H60B C69B 1_555 1_555
H60A C69A 1_555 1_555
C70B C65B 1_555 1_555
C70A C65A 1_555 1_555
H61B C70B 1_555 1_555
H61A C70A 1_555 1_555
C71B C65B 1_555 1_555
C71A C65A 1_555 1_555
H62B C71B 1_555 1_555
H62A C71A 1_555 1_555
C72B C71B 1_555 1_555
C72A C71A 1_555 1_555
H63B C72B 1_555 1_555
H63A C72A 1_555 1_555
H64B C72B 1_555 1_555
H64A C72A 1_555 1_555
H65B C72B 1_555 1_555
H65A C72A 1_555 1_555
C73B H66B 1_555 1_555
C73A H66A 1_555 1_555
C74B C73B 1_555 1_555
C74A C73A 1_555 1_555
C75B C74B 1_555 1_555
C75A C74A 1_555 1_555
H67B C75B 1_555 1_555
H67A C75A 1_555 1_555
C76B C75B 1_555 1_555
C76A C75A 1_555 1_555
H68B C76B 1_555 1_555
H68A C76A 1_555 1_555
C77B C76B 1_555 1_555
C77A C76A 1_555 1_555
H69B C77B 1_555 1_555
H69A C77A 1_555 1_555
C78B C77B 1_555 1_555
C78A C77A 1_555 1_555
H70B C78B 1_555 1_555
H70A C78A 1_555 1_555
C79B H71B 1_555 1_555
C79A H71A 1_555 1_555
C80B C79B 1_555 1_555
C80A C79A 1_555 1_555
H72B C80B 1_555 1_555
H72A C80A 1_555 1_555
C81B C80B 1_555 1_555
C81A C80A 1_555 1_555
H73B C81B 1_555 1_555
H73A C81A 1_555 1_555
C82B C81B 1_555 1_555
C82A C81A 1_555 1_555
H74B C82B 1_555 1_555
H74A C82A 1_555 1_555
C83B C82B 1_555 1_555
C83A C82A 1_555 1_555
H75B C83B 1_555 1_555
H75A C83A 1_555 1_555
C84B C79B 1_555 1_555
C84A C79A 1_555 1_555
C85B C84B 1_555 1_555
C85A C84A 1_555 1_555
H76B C85B 1_555 1_555
H76A C85A 1_555 1_555
C86B C85B 1_555 1_555
C86A C85A 1_555 1_555
H77B C86B 1_555 1_555
H77A C86A 1_555 1_555
H78B C86B 1_555 1_555
H78A C86A 1_555 1_555
H79B C86B 1_555 1_555
H79A C86A 1_555 1_555
C87B H80B 1_555 1_555
C87A H80A 1_555 1_555
C88B C87B 1_555 1_555
C88A C87A 1_555 1_555
C89B C88B 1_555 1_555
C89A C88A 1_555 1_555
H81B C89B 1_555 1_555
H81A C89A 1_555 1_555
C90B C89B 1_555 1_555
C90A C89A 1_555 1_555
H82B C90B 1_555 1_555
H82A C90A 1_555 1_555
C91B C90B 1_555 1_555
C91A C90A 1_555 1_555
H83B C91B 1_555 1_555
H83A C91A 1_555 1_555
C92B C91B 1_555 1_555
C92A C91A 1_555 1_555
H84B C92B 1_555 1_555
H84A C92A 1_555 1_555
C93A H85A 1_555 1_555
C93B H85B 1_555 1_555
C94A C93A 1_555 1_555
C94B C93B 1_555 1_555
H86A C94A 1_555 1_555
H86B C94B 1_555 1_555
C95A C94A 1_555 1_555
C95B C94B 1_555 1_555
H87A C95A 1_555 1_555
H87B C95B 1_555 1_555
C96A C95A 1_555 1_555
C96B C95B 1_555 1_555
H88A C96A 1_555 1_555
H88B C96B 1_555 1_555
C97A C96A 1_555 1_555
C97B C96B 1_555 1_555
H89A C97A 1_555 1_555
H89B C97B 1_555 1_555
C98A C93A 1_555 1_555
C98B C93B 1_555 1_555
C99A C98A 1_555 1_555
C99B C98B 1_555 1_555
H90A C99A 1_555 1_555
H90B C99B 1_555 1_555
C100A C99A 1_555 1_555
C100B C99B 1_555 1_555
H91A C100A 1_555 1_555
H91B C100B 1_555 1_555
H92A C100A 1_555 1_555
H92B C100B 1_555 1_555
H93A C100A 1_555 1_555
H93B C100B 1_555 1_555
C101A H94A 1_555 1_555
C101B H94B 1_555 1_555
C102A C101A 1_555 1_555
C102B C101B 1_555 1_555
C103A C102A 1_555 1_555
C103B C102B 1_555 1_555
H95A C103A 1_555 1_555
H95B C103B 1_555 1_555
C104A C103A 1_555 1_555
C104B C103B 1_555 1_555
H96A C104A 1_555 1_555
H96B C104B 1_555 1_555
C105A C104A 1_555 1_555
C105B C104B 1_555 1_555
H97A C105A 1_555 1_555
H97B C105B 1_555 1_555
C106A C105A 1_555 1_555
C106B C105B 1_555 1_555
H98A C106A 1_555 1_555
H98B C106B 1_555 1_555
C107A H99A 1_555 1_555
C107B H99B 1_555 1_555
C108A C107A 1_555 1_555
C108B C107B 1_555 1_555
H100A C108A 1_555 1_555
H100B C108B 1_555 1_555
C109A C108A 1_555 1_555
C109B C108B 1_555 1_555
H101A C109A 1_555 1_555
H101B C109B 1_555 1_555
C110A C109A 1_555 1_555
C110B C109B 1_555 1_555
H102A C110A 1_555 1_555
H102B C110B 1_555 1_555
C111A C110A 1_555 1_555
C111B C110B 1_555 1_555
H103A C111A 1_555 1_555
H103B C111B 1_555 1_555
C112A C107A 1_555 1_555
C112B C107B 1_555 1_555
C113A C112A 1_555 1_555
C113B C112B 1_555 1_555
H104A C113A 1_555 1_555
H104B C113B 1_555 1_555
C114A C113A 1_555 1_555
C114B C113B 1_555 1_555
H105A C114A 1_555 1_555
H105B C114B 1_555 1_555
H106A C114A 1_555 1_555
H106B C114B 1_555 1_555
H107A C114A 1_555 1_555
H107B C114B 1_555 1_555
C115A H108A 1_555 1_555
C115B H108B 1_555 1_555
C116A C115A 1_555 1_555
C116B C115B 1_555 1_555
C117A C116A 1_555 1_555
C117B C116B 1_555 1_555
H109A C117A 1_555 1_555
H109B C117B 1_555 1_555
C118A C117A 1_555 1_555
C118B C117B 1_555 1_555
H110A C118A 1_555 1_555
H110B C118B 1_555 1_555
C119A C118A 1_555 1_555
C119B C118B 1_555 1_555
H111A C119A 1_555 1_555
H111B C119B 1_555 1_555
C120A C119A 1_555 1_555
C120B C119B 1_555 1_555
H112A C120A 1_555 1_555
H112B C120B 1_555 1_555
C121B N25B 1_555 1_555
C121A N25A 1_555 1_555
C122B Fe4B 1_555 1_555
C122A Fe4A 1_555 1_555
C123A Fe4A 1_555 1_555
C123B Fe4B 1_555 1_555
C124A Fe4A 1_555 1_555
C124B Fe4B 1_555 1_555
C125B Fe4B 1_555 1_555
C125A Fe4A 1_555 1_555
C126B Fe4B 1_555 1_555
C126A Fe4A 1_555 1_555
C127A Fe3 1_555 1_555
C127B Fe3 1_555 1_555
C128A Fe3 1_555 1_555
C128B Fe3 1_555 1_555
N17B C71B 1_555 1_555
N17A Ni4A 1_555 1_555
N18B Ni4B 1_555 1_555
N18A Ni4A 1_555 1_555
N19B Ni4B 1_555 1_555
N19A Ni4A 1_555 1_555
N20B Ni4B 1_555 1_555
N20A Ni4A 1_555 1_555
N21A C99A 1_555 1_555
N21B C99B 1_555 1_555
N22A Ni3A 1_555 1_555
N22B Ni3B 1_555 1_555
N23A Ni3A 1_555 1_555
N23B Ni3B 1_555 1_555
N24A Ni3A 1_555 1_555
N24B Ni3B 1_555 1_555
N25B Ni4B 1_555 1_555
N25A Ni4A 1_555 1_555
N26B Ni4 1_555 1_555
N26A Ni4B 1_555 1_555
N27A C123A 1_555 1_555
N27B C123B 1_555 1_555
N28A Ni3A 1_555 1_555
N28B Ni3B 1_555 1_555
N29B C125B 1_555 1_555
N29A C125A 1_555 1_555
N30B C126B 1_555 1_555
N30A C126A 1_555 1_555
N31A Ni3A 1_555 1_555
N31B Ni3B 1_555 1_555
N32A C128A 1_555 1_555
N32B C128B 1_555 1_555
F1A P1 1_555 1_555
F1B P1 1_555 1_555
F2A P1 1_555 1_555
F2B P1 1_555 1_555
F3A P2 1_555 1_555
F3B P2 1_555 1_555
F4A P2 1_555 1_555
F4B P2 1_555 1_555
C129A C129 1_555 1_555
C129B C129 1_555 1_555
C130A C130 1_555 1_555
C130B C129 1_555 1_555
C131A C131 1_555 1_555
C131B C131 1_555 1_555
C132B N33 1_555 1_555
C132A N33 1_555 1_555
C133B C131B 1_555 1_555
C133A C131A 1_555 1_555
C134A C134 1_555 1_555
C134B C134 1_555 1_555
C135A C135 1_555 1_555
C135B C135 1_555 1_555
C136B N34 1_555 1_555
C136A N34 1_555 1_555
C138A C135A 1_555 1_555
C138B C135B 1_555 1_555
C5 C6 1_555 1_555
C7 N2 1_555 1_555
C9 N2 1_555 1_555
C13 C14 1_555 1_555
C19 C20 1_555 1_555
C21 N3 1_555 1_555
C23 N3 1_555 1_555
C24 N4 1_555 1_555
C28 N4 1_555 1_555
C33 C34 1_555 1_555
C37 N5 1_555 1_555
C38 N6 1_555 1_555
C42 N6 1_555 1_555
C47 C48 1_555 1_555
C49 N7 1_555 1_555
C51 N7 1_555 1_555
C52 N8 1_555 1_555
C56 N8 1_555 1_555
C58 N10 1_555 1_555
C61 N13 1_555 1_555
C69 C70 1_555 1_555
C73 N17 1_555 1_555
C74 N18 1_555 1_555
C78 N18 1_555 1_555
C83 C84 1_555 1_555
C85 N19 1_555 1_555
C87 N19 1_555 1_555
C88 N20 1_555 1_555
C92 N20 1_555 1_555
C97 C98 1_555 1_555
C101 N21 1_555 1_555
C102 N22 1_555 1_555
C106 N22 1_555 1_555
C111 C112 1_555 1_555
C113 N23 1_555 1_555
C115 N23 1_555 1_555
C116 N24 1_555 1_555
C120 N24 1_555 1_555
C124 N28 1_555 1_555
C130 C130B 1_555 1_555
C131 N33 1_555 1_555
C132 N33 1_555 1_555
C132 C133 1_555 1_555
N33 C129A 1_555 1_555
N33 C129B 1_555 1_555
N33 C131A 1_555 1_555
N33 C131B 1_555 1_555
C135 N34 1_555 1_555
C136 C138 1_555 1_555
N34 C134A 1_555 1_555
N34 C134B 1_555 1_555
N34 C135A 1_555 1_555
N34 C135B 1_555 1_555
C137 C134A 1_555 1_555
C137 C134B 1_555 1_555
C5A C6A 1_555 1_555
C5B C6B 1_555 1_555
C7A N2A 1_555 1_555
C7B N2B 1_555 1_555
C9B N2B 1_555 1_555
C9A N2A 1_555 1_555
N1A C10A 1_555 1_555
C13A C14A 1_555 1_555
C13B C14B 1_555 1_555
C19B C20B 1_555 1_555
C19A C20A 1_555 1_555
C21B N3B 1_555 1_555
C21A N3A 1_555 1_555
C23B N3B 1_555 1_555
C23A N3A 1_555 1_555
C24B N4B 1_555 1_555
C24A N4A 1_555 1_555
C28B N4B 1_555 1_555
C28A N4A 1_555 1_555
C33A C34A 1_555 1_555
C33B C34B 1_555 1_555
C37A N5A 1_555 1_555
C37B N5B 1_555 1_555
C38A N6A 1_555 1_555
C38B N6B 1_555 1_555
C42A N6A 1_555 1_555
C42B N6B 1_555 1_555
C47A C48A 1_555 1_555
C47B C48B 1_555 1_555
C49A N7A 1_555 1_555
C49B N7B 1_555 1_555
C51A N7A 1_555 1_555
C51B N7B 1_555 1_555
C52A N8A 1_555 1_555
C52B N8B 1_555 1_555
C56A N8A 1_555 1_555
C56B N8B 1_555 1_555
C58B N10B 1_555 1_555
C58A N10A 1_555 1_555
C59B N11B 1_555 1_555
C59A N11A 1_555 1_555
C61A N13A 1_555 1_555
C61B N13B 1_555 1_555
C63A N15A 1_555 1_555
C63B N15B 1_555 1_555
C69B C70B 1_555 1_555
C69A C70A 1_555 1_555
C71A N17A 1_555 1_555
C73B N17B 1_555 1_555
C73A N17A 1_555 1_555
C74B N18B 1_555 1_555
C74A N18A 1_555 1_555
C78B N18B 1_555 1_555
C78A N18A 1_555 1_555
C83B C84B 1_555 1_555
C83A C84A 1_555 1_555
C85B N19B 1_555 1_555
C85A N19A 1_555 1_555
C87B N19B 1_555 1_555
C87A N19A 1_555 1_555
C88B N20B 1_555 1_555
C88A N20A 1_555 1_555
C92B N20B 1_555 1_555
C92A N20A 1_555 1_555
C97A C98A 1_555 1_555
C97B C98B 1_555 1_555
C101A N21A 1_555 1_555
C101B N21B 1_555 1_555
C102A N22A 1_555 1_555
C102B N22B 1_555 1_555
C106A N22A 1_555 1_555
C106B N22B 1_555 1_555
C111A C112A 1_555 1_555
C111B C112B 1_555 1_555
C113A N23A 1_555 1_555
C113B N23B 1_555 1_555
C115A N23A 1_555 1_555
C115B N23B 1_555 1_555
C116A N24A 1_555 1_555
C116B N24B 1_555 1_555
C120A N24A 1_555 1_555
C120B N24B 1_555 1_555
C122B N26B 1_555 1_555
C122A N26A 1_555 1_555
C124A N28A 1_555 1_555
C124B N28B 1_555 1_555
C127A N31A 1_555 1_555
C127B N31B 1_555 1_555
C129A C129B 1_555 1_555
C129A C130A 1_555 1_555
C129A C132A 1_555 1_555
C129B C130A 1_555 1_555
C129B C130B 1_555 1_555
C129B C132B 1_555 1_555
C130A C130B 1_555 1_555
C131A C131B 1_555 1_555
C131A C132A 1_555 1_555
C131B C132B 1_555 1_555
C132B C133B 1_555 1_555
C132A C133A 1_555 1_555
C134A C134B 1_555 1_555
C134A C136A 1_555 1_555
C134B C136B 1_555 1_555
C135A C135B 1_555 1_555
C135A C136A 1_555 1_555
C135B C136B 1_555 1_555
C136B C138B 1_555 1_555
C136A C138A 1_555 1_555

#END
