# generated using pymatgen
data_Fe4Ni6PH168C206N49F6
_symmetry_space_group_name_H-M   'P 1'
_cell_length_a   19.56700000
_cell_length_b   19.56700000
_cell_length_c   35.12300000
_cell_angle_alpha   90.00000000
_cell_angle_beta   90.00000000
_cell_angle_gamma   120.00000000
_symmetry_Int_Tables_number   1
_chemical_formula_structural   Fe4Ni6PH168C206N49F6
_chemical_formula_sum   'Fe8 Ni12 P2 H336 C412 N98 F12'
_cell_volume   11645.83748703
_cell_formula_units_Z   2
loop_
 _symmetry_equiv_pos_site_id
 _symmetry_equiv_pos_as_xyz
  1  'x, y, z'
loop_
 _atom_site_type_symbol
 _atom_site_label
 _atom_site_symmetry_multiplicity
 _atom_site_fract_x
 _atom_site_fract_y
 _atom_site_fract_z
 _atom_site_occupancy
  Fe  Fe1  1  0.000000  0.000000  0.630580  1
  Fe  Fe2  1  0.333333  0.666667  0.791170  1
  Fe  Fe3  1  0.765990  0.037720  0.429320  1.0
  Fe  Fe4  1  0.271730  0.234010  0.429320  1.0
  Fe  Fe5  1  0.962280  0.728270  0.429320  1.0
  Fe  Fe6  1  0.061030  0.628580  0.992080  1.0
  Fe  Fe7  1  0.567550  0.938970  0.992080  1.0
  Fe  Fe8  1  0.371420  0.432450  0.992080  1.0
  Ni  Ni9  1  0.783210  0.034110  0.572990  1.0
  Ni  Ni10  1  0.250900  0.216790  0.572990  1.0
  Ni  Ni11  1  0.965890  0.749100  0.572990  1.0
  Ni  Ni12  1  0.748500  0.782990  0.385070  1.0
  Ni  Ni13  1  0.034490  0.251500  0.385070  1.0
  Ni  Ni14  1  0.217010  0.965510  0.385070  1.0
  Ni  Ni15  1  0.082370  0.632140  0.848490  1.0
  Ni  Ni16  1  0.549770  0.917630  0.848490  1.0
  Ni  Ni17  1  0.367860  0.450230  0.848490  1.0
  Ni  Ni18  1  0.116930  0.415580  0.036570  1.0
  Ni  Ni19  1  0.298650  0.883070  0.036570  1.0
  Ni  Ni20  1  0.584420  0.701350  0.036570  1.0
  P  P21  1  0.666667  0.333333  0.583400  1
  P  P22  1  0.666667  0.333333  0.837900  1
  H  H23  1  0.454400  0.724800  0.329200  1.0
  H  H24  1  0.270400  0.545600  0.329200  1.0
  H  H25  1  0.275200  0.729600  0.329200  1.0
  H  H26  1  0.366800  0.636300  0.284100  1.0
  H  H27  1  0.269500  0.633200  0.284100  1.0
  H  H28  1  0.363700  0.730500  0.284100  1.0
  H  H29  1  0.413500  0.587700  0.235900  1.0
  H  H30  1  0.174200  0.586500  0.235900  1.0
  H  H31  1  0.412300  0.825800  0.235900  1.0
  H  H32  1  0.547800  0.627500  0.232800  1.0
  H  H33  1  0.079700  0.452200  0.232800  1.0
  H  H34  1  0.372500  0.920300  0.232800  1.0
  H  H35  1  0.635300  0.715900  0.277900  1.0
  H  H36  1  0.080600  0.364700  0.277900  1.0
  H  H37  1  0.284100  0.919400  0.277900  1.0
  H  H38  1  0.661400  0.828600  0.319400  1.0
  H  H39  1  0.167200  0.338600  0.319400  1.0
  H  H40  1  0.171400  0.832800  0.319400  1.0
  H  H41  1  0.609400  0.878400  0.366000  1.0
  H  H42  1  0.269000  0.390600  0.366000  1.0
  H  H43  1  0.121600  0.731000  0.366000  1.0
  H  H44  1  0.528200  0.796200  0.367500  1.0
  H  H45  1  0.268000  0.471800  0.367500  1.0
  H  H46  1  0.203800  0.732000  0.367500  1.0
  H  H47  1  0.550400  0.850800  0.330400  1.0
  H  H48  1  0.300400  0.449600  0.330400  1.0
  H  H49  1  0.149200  0.699600  0.330400  1.0
  H  H50  1  0.523100  0.700100  0.385800  1.0
  H  H51  1  0.177000  0.476900  0.385800  1.0
  H  H52  1  0.299900  0.823000  0.385800  1.0
  H  H53  1  0.493800  0.624900  0.454100  1.0
  H  H54  1  0.131100  0.506200  0.454100  1.0
  H  H55  1  0.375100  0.868900  0.454100  1.0
  H  H56  1  0.532100  0.580200  0.500300  1.0
  H  H57  1  0.048100  0.467900  0.500300  1.0
  H  H58  1  0.419800  0.951900  0.500300  1.0
  H  H59  1  0.667000  0.609800  0.504700  1.0
  H  H60  1  0.942800  0.333000  0.504700  1.0
  H  H61  1  0.390200  0.057200  0.504700  1.0
  H  H62  1  0.751900  0.689300  0.458400  1.0
  H  H63  1  0.937400  0.248100  0.458400  1.0
  H  H64  1  0.310700  0.062600  0.458400  1.0
  H  H65  1  0.600100  0.582200  0.316100  1.0
  H  H66  1  0.982100  0.399900  0.316100  1.0
  H  H67  1  0.417800  0.017900  0.316100  1.0
  H  H68  1  0.467400  0.520700  0.336000  1.0
  H  H69  1  0.053300  0.532600  0.336000  1.0
  H  H70  1  0.479300  0.946700  0.336000  1.0
  H  H71  1  0.416400  0.424700  0.384100  1.0
  H  H72  1  0.008300  0.583600  0.384100  1.0
  H  H73  1  0.575300  0.991700  0.384100  1.0
  H  H74  1  0.505400  0.426900  0.421300  1.0
  H  H75  1  0.921500  0.494600  0.421300  1.0
  H  H76  1  0.573100  0.078500  0.421300  1.0
  H  H77  1  0.638300  0.522000  0.420500  1.0
  H  H78  1  0.883700  0.361700  0.420500  1.0
  H  H79  1  0.478000  0.116300  0.420500  1.0
  H  H80  1  0.743400  0.622300  0.387000  1.0
  H  H81  1  0.878900  0.256600  0.387000  1.0
  H  H82  1  0.377700  0.121100  0.387000  1.0
  H  H83  1  0.814100  0.604200  0.335100  1.0
  H  H84  1  0.790100  0.185900  0.335100  1.0
  H  H85  1  0.395800  0.209900  0.335100  1.0
  H  H86  1  0.733400  0.557100  0.311800  1.0
  H  H87  1  0.823700  0.266600  0.311800  1.0
  H  H88  1  0.442900  0.176300  0.311800  1.0
  H  H89  1  0.745000  0.521500  0.350700  1.0
  H  H90  1  0.776500  0.255000  0.350700  1.0
  H  H91  1  0.478500  0.223500  0.350700  1.0
  H  H92  1  0.784900  0.690100  0.298300  1.0
  H  H93  1  0.905200  0.215100  0.298300  1.0
  H  H94  1  0.309900  0.094800  0.298300  1.0
  H  H95  1  0.841200  0.805700  0.251700  1.0
  H  H96  1  0.964500  0.158800  0.251700  1.0
  H  H97  1  0.194300  0.035500  0.251700  1.0
  H  H98  1  0.888800  0.944600  0.247300  1.0
  H  H99  1  0.055800  0.111200  0.247300  1.0
  H  H100  1  0.055400  0.944200  0.247300  1.0
  H  H101  1  0.878400  0.014600  0.292400  1.0
  H  H102  1  0.136200  0.121600  0.292400  1.0
  H  H103  1  0.985400  0.863800  0.292400  1.0
  H  H104  1  0.822400  0.954600  0.347600  1.0
  H  H105  1  0.132200  0.177600  0.347600  1.0
  H  H106  1  0.045400  0.867800  0.347600  1.0
  H  H107  1  0.606100  0.108000  0.607800  1.0
  H  H108  1  0.501900  0.393900  0.607800  1.0
  H  H109  1  0.892000  0.498100  0.607800  1.0
  H  H110  1  0.512100  0.053300  0.656400  1.0
  H  H111  1  0.541200  0.487900  0.656400  1.0
  H  H112  1  0.946700  0.458800  0.656400  1.0
  H  H113  1  0.418700  0.918600  0.655700  1.0
  H  H114  1  0.499900  0.581300  0.655700  1.0
  H  H115  1  0.081400  0.500100  0.655700  1.0
  H  H116  1  0.419300  0.838600  0.606300  1.0
  H  H117  1  0.419300  0.580700  0.606300  1.0
  H  H118  1  0.161400  0.580700  0.606300  1.0
  H  H119  1  0.513300  0.893300  0.557700  1.0
  H  H120  1  0.380000  0.486700  0.557700  1.0
  H  H121  1  0.106700  0.620000  0.557700  1.0
  H  H122  1  0.627200  0.000800  0.529300  1.0
  H  H123  1  0.373600  0.372800  0.529300  1.0
  H  H124  1  0.999200  0.626400  0.529300  1.0
  H  H125  1  0.647300  0.119400  0.501100  1.0
  H  H126  1  0.472100  0.352700  0.501100  1.0
  H  H127  1  0.880600  0.527900  0.501100  1.0
  H  H128  1  0.610800  0.137200  0.538000  1.0
  H  H129  1  0.526400  0.389200  0.538000  1.0
  H  H130  1  0.862800  0.473600  0.538000  1.0
  H  H131  1  0.556200  0.063000  0.511600  1.0
  H  H132  1  0.506800  0.443800  0.511600  1.0
  H  H133  1  0.937000  0.493200  0.511600  1.0
  H  H134  1  0.723400  0.187400  0.558900  1.0
  H  H135  1  0.464000  0.276600  0.558900  1.0
  H  H136  1  0.812600  0.536000  0.558900  1.0
  H  H137  1  0.852200  0.310700  0.576100  1.0
  H  H138  1  0.458500  0.147800  0.576100  1.0
  H  H139  1  0.689300  0.541500  0.576100  1.0
  H  H140  1  0.987300  0.373800  0.589800  1.0
  H  H141  1  0.386500  0.012700  0.589800  1.0
  H  H142  1  0.626200  0.613500  0.589800  1.0
  H  H143  1  0.042100  0.290900  0.596900  1.0
  H  H144  1  0.248800  0.957900  0.596900  1.0
  H  H145  1  0.709100  0.751200  0.596900  1.0
  H  H146  1  0.963900  0.155700  0.592800  1.0
  H  H147  1  0.191800  0.036100  0.592800  1.0
  H  H148  1  0.844300  0.808200  0.592800  1.0
  H  H149  1  0.915000  0.202600  0.672200  1.0
  H  H150  1  0.287600  0.085000  0.672200  1.0
  H  H151  1  0.797400  0.712400  0.672200  1.0
  H  H152  1  0.907400  0.317900  0.677100  1.0
  H  H153  1  0.410500  0.092600  0.677100  1.0
  H  H154  1  0.682100  0.589500  0.677100  1.0
  H  H155  1  0.784700  0.311200  0.674200  1.0
  H  H156  1  0.526500  0.215300  0.674200  1.0
  H  H157  1  0.688800  0.473500  0.674200  1.0
  H  H158  1  0.669600  0.189100  0.666400  1.0
  H  H159  1  0.519500  0.330400  0.666400  1.0
  H  H160  1  0.810900  0.480500  0.666400  1.0
  H  H161  1  0.677200  0.073800  0.661500  1.0
  H  H162  1  0.396600  0.322800  0.661500  1.0
  H  H163  1  0.926200  0.603400  0.661500  1.0
  H  H164  1  0.860200  0.076000  0.654400  1.0
  H  H165  1  0.215800  0.139800  0.654400  1.0
  H  H166  1  0.924000  0.784200  0.654400  1.0
  H  H167  1  0.800200  0.967500  0.698800  1.0
  H  H168  1  0.167300  0.199800  0.698800  1.0
  H  H169  1  0.032500  0.832700  0.698800  1.0
  H  H170  1  0.740500  0.996200  0.712200  1.0
  H  H171  1  0.255700  0.259500  0.712200  1.0
  H  H172  1  0.003800  0.744300  0.712200  1.0
  H  H173  1  0.833000  0.050100  0.720300  1.0
  H  H174  1  0.217100  0.167000  0.720300  1.0
  H  H175  1  0.949900  0.782900  0.720300  1.0
  H  H176  1  0.694300  0.922500  0.662000  1.0
  H  H177  1  0.228200  0.305700  0.662000  1.0
  H  H178  1  0.077500  0.771800  0.662000  1.0
  H  H179  1  0.580000  0.787200  0.630300  1.0
  H  H180  1  0.207200  0.420000  0.630300  1.0
  H  H181  1  0.212800  0.792800  0.630300  1.0
  H  H182  1  0.518500  0.711300  0.576900  1.0
  H  H183  1  0.192800  0.481500  0.576900  1.0
  H  H184  1  0.288700  0.807200  0.576900  1.0
  H  H185  1  0.580100  0.769200  0.519100  1.0
  H  H186  1  0.189100  0.419900  0.519100  1.0
  H  H187  1  0.230800  0.810900  0.519100  1.0
  H  H188  1  0.678800  0.898200  0.514800  1.0
  H  H189  1  0.219400  0.321200  0.514800  1.0
  H  H190  1  0.101800  0.780600  0.514800  1.0
  H  H191  1  0.847200  0.305100  0.000800  1.0
  H  H192  1  0.457900  0.152800  0.000800  1.0
  H  H193  1  0.694900  0.542100  0.000800  1.0
  H  H194  1  0.762200  0.168800  0.995800  1.0
  H  H195  1  0.406600  0.237800  0.995800  1.0
  H  H196  1  0.831200  0.593400  0.995800  1.0
  H  H197  1  0.761100  0.084500  0.043300  1.0
  H  H198  1  0.323400  0.238900  0.043300  1.0
  H  H199  1  0.915500  0.676600  0.043300  1.0
  H  H200  1  0.845100  0.136600  0.095900  1.0
  H  H201  1  0.291500  0.154900  0.095900  1.0
  H  H202  1  0.863400  0.708500  0.095900  1.0
  H  H203  1  0.930100  0.272900  0.100900  1.0
  H  H204  1  0.342800  0.069900  0.100900  1.0
  H  H205  1  0.727100  0.657200  0.100900  1.0
  H  H206  1  0.952000  0.416100  0.033900  1.0
  H  H207  1  0.464100  0.048000  0.033900  1.0
  H  H208  1  0.583900  0.535900  0.033900  1.0
  H  H209  1  0.936500  0.475200  0.087700  1.0
  H  H210  1  0.538700  0.063500  0.087700  1.0
  H  H211  1  0.524800  0.461300  0.087700  1.0
  H  H212  1  0.891000  0.390800  0.108100  1.0
  H  H213  1  0.499800  0.109000  0.108100  1.0
  H  H214  1  0.609200  0.500200  0.108100  1.0
  H  H215  1  0.854300  0.407400  0.070900  1.0
  H  H216  1  0.553100  0.145700  0.070900  1.0
  H  H217  1  0.592600  0.446900  0.070900  1.0
  H  H218  1  0.016200  0.445900  0.122600  1.0
  H  H219  1  0.429700  0.983800  0.122600  1.0
  H  H220  1  0.554100  0.570300  0.122600  1.0
  H  H221  1  0.134400  0.507200  0.169700  1.0
  H  H222  1  0.372800  0.865600  0.169700  1.0
  H  H223  1  0.492800  0.627200  0.169700  1.0
  H  H224  1  0.268200  0.551900  0.180600  1.0
  H  H225  1  0.283700  0.731800  0.180600  1.0
  H  H226  1  0.448100  0.716300  0.180600  1.0
  H  H227  1  0.346300  0.545200  0.131900  1.0
  H  H228  1  0.198900  0.653700  0.131900  1.0
  H  H229  1  0.454800  0.801100  0.131900  1.0
  H  H230  1  0.290600  0.493800  0.072300  1.0
  H  H231  1  0.203200  0.709400  0.072300  1.0
  H  H232  1  0.506200  0.796800  0.072300  1.0
  H  H233  1  0.196700  0.354700  0.141800  1.0
  H  H234  1  0.158000  0.803300  0.141800  1.0
  H  H235  1  0.645300  0.842000  0.141800  1.0
  H  H236  1  0.131900  0.327300  0.200500  1.0
  H  H237  1  0.195400  0.868100  0.200500  1.0
  H  H238  1  0.672700  0.804600  0.200500  1.0
  H  H239  1  0.003500  0.220200  0.206500  1.0
  H  H240  1  0.216700  0.996500  0.206500  1.0
  H  H241  1  0.779800  0.783300  0.206500  1.0
  H  H242  1  0.940100  0.140700  0.153700  1.0
  H  H243  1  0.200600  0.059900  0.153700  1.0
  H  H244  1  0.859300  0.799400  0.153700  1.0
  H  H245  1  0.004900  0.168100  0.094900  1.0
  H  H246  1  0.163200  0.995100  0.094900  1.0
  H  H247  1  0.831900  0.836800  0.094900  1.0
  H  H248  1  0.201200  0.333300  0.081700  1.0
  H  H249  1  0.132100  0.798800  0.081700  1.0
  H  H250  1  0.666700  0.867900  0.081700  1.0
  H  H251  1  0.187100  0.224800  0.043000  1.0
  H  H252  1  0.037700  0.812900  0.043000  1.0
  H  H253  1  0.775200  0.962300  0.043000  1.0
  H  H254  1  0.117100  0.167800  0.071000  1.0
  H  H255  1  0.050700  0.882900  0.071000  1.0
  H  H256  1  0.832200  0.949300  0.071000  1.0
  H  H257  1  0.204700  0.220500  0.087100  1.0
  H  H258  1  0.015800  0.795300  0.087100  1.0
  H  H259  1  0.779500  0.984200  0.087100  1.0
  H  H260  1  0.044400  0.200400  0.032800  1.0
  H  H261  1  0.156000  0.955600  0.032800  1.0
  H  H262  1  0.799600  0.844000  0.032800  1.0
  H  H263  1  0.954300  0.159900  0.973500  1.0
  H  H264  1  0.205600  0.045700  0.973500  1.0
  H  H265  1  0.840100  0.794400  0.973500  1.0
  H  H266  1  0.915200  0.202100  0.919700  1.0
  H  H267  1  0.286900  0.084800  0.919700  1.0
  H  H268  1  0.797900  0.713100  0.919700  1.0
  H  H269  1  0.949000  0.335400  0.914300  1.0
  H  H270  1  0.386400  0.051000  0.914300  1.0
  H  H271  1  0.664600  0.613600  0.914300  1.0
  H  H272  1  0.020000  0.419400  0.963100  1.0
  H  H273  1  0.399400  0.980000  0.963100  1.0
  H  H274  1  0.580600  0.600600  0.963100  1.0
  H  H275  1  0.046000  0.463900  0.747800  1.0
  H  H276  1  0.417900  0.954000  0.747800  1.0
  H  H277  1  0.536100  0.582100  0.747800  1.0
  H  H278  1  0.922800  0.348600  0.744000  1.0
  H  H279  1  0.425800  0.077200  0.744000  1.0
  H  H280  1  0.651400  0.574200  0.744000  1.0
  H  H281  1  0.807200  0.355900  0.747200  1.0
  H  H282  1  0.548700  0.192800  0.747200  1.0
  H  H283  1  0.644100  0.451300  0.747200  1.0
  H  H284  1  0.814600  0.478300  0.754100  1.0
  H  H285  1  0.663700  0.185400  0.754100  1.0
  H  H286  1  0.521700  0.336300  0.754100  1.0
  H  H287  1  0.937700  0.593500  0.757900  1.0
  H  H288  1  0.655800  0.062300  0.757900  1.0
  H  H289  1  0.406500  0.344200  0.757900  1.0
  H  H290  1  0.118300  0.586400  0.764900  1.0
  H  H291  1  0.468100  0.881700  0.764900  1.0
  H  H292  1  0.413600  0.531900  0.764900  1.0
  H  H293  1  0.164500  0.697200  0.721900  1.0
  H  H294  1  0.532700  0.835500  0.721900  1.0
  H  H295  1  0.302800  0.467300  0.721900  1.0
  H  H296  1  0.075200  0.667100  0.709600  1.0
  H  H297  1  0.591900  0.924800  0.709600  1.0
  H  H298  1  0.332900  0.408100  0.709600  1.0
  H  H299  1  0.115000  0.614800  0.700200  1.0
  H  H300  1  0.499800  0.885000  0.700200  1.0
  H  H301  1  0.385200  0.500200  0.700200  1.0
  H  H302  1  0.106200  0.751300  0.759700  1.0
  H  H303  1  0.645100  0.893800  0.759700  1.0
  H  H304  1  0.248700  0.354900  0.759700  1.0
  H  H305  1  0.127000  0.879900  0.789500  1.0
  H  H306  1  0.752900  0.873000  0.789500  1.0
  H  H307  1  0.120100  0.247100  0.789500  1.0
  H  H308  1  0.140100  0.952900  0.847000  1.0
  H  H309  1  0.812800  0.859900  0.847000  1.0
  H  H310  1  0.047100  0.187200  0.847000  1.0
  H  H311  1  0.138800  0.896700  0.905400  1.0
  H  H312  1  0.757900  0.861200  0.905400  1.0
  H  H313  1  0.103300  0.242100  0.905400  1.0
  H  H314  1  0.119600  0.771800  0.907000  1.0
  H  H315  1  0.652200  0.880400  0.907000  1.0
  H  H316  1  0.228200  0.347800  0.907000  1.0
  H  H317  1  0.830500  0.556900  0.812800  1.0
  H  H318  1  0.726400  0.169500  0.812800  1.0
  H  H319  1  0.443100  0.273600  0.812800  1.0
  H  H320  1  0.790000  0.613100  0.765500  1.0
  H  H321  1  0.823100  0.210000  0.765500  1.0
  H  H322  1  0.386900  0.176900  0.765500  1.0
  H  H323  1  0.832500  0.748100  0.767200  1.0
  H  H324  1  0.915600  0.167500  0.767200  1.0
  H  H325  1  0.251900  0.084400  0.767200  1.0
  H  H326  1  0.915500  0.826800  0.816200  1.0
  H  H327  1  0.911300  0.084500  0.816200  1.0
  H  H328  1  0.173200  0.088700  0.816200  1.0
  H  H329  1  0.956000  0.770600  0.863600  1.0
  H  H330  1  0.814600  0.044000  0.863600  1.0
  H  H331  1  0.229400  0.185400  0.863600  1.0
  H  H332  1  0.957800  0.664200  0.891200  1.0
  H  H333  1  0.706400  0.042200  0.891200  1.0
  H  H334  1  0.335800  0.293600  0.891200  1.0
  H  H335  1  0.864000  0.551400  0.921600  1.0
  H  H336  1  0.687400  0.136000  0.921600  1.0
  H  H337  1  0.448600  0.312600  0.921600  1.0
  H  H338  1  0.806700  0.530300  0.885700  1.0
  H  H339  1  0.723600  0.193300  0.885700  1.0
  H  H340  1  0.469700  0.276400  0.885700  1.0
  H  H341  1  0.830300  0.608100  0.910100  1.0
  H  H342  1  0.777800  0.169700  0.910100  1.0
  H  H343  1  0.391900  0.222200  0.910100  1.0
  H  H344  1  0.870100  0.479600  0.863500  1.0
  H  H345  1  0.609500  0.129900  0.863500  1.0
  H  H346  1  0.520400  0.390500  0.863500  1.0
  H  H347  1  0.874300  0.352600  0.845300  1.0
  H  H348  1  0.478300  0.125700  0.845300  1.0
  H  H349  1  0.647400  0.521700  0.845300  1.0
  H  H350  1  0.946500  0.295300  0.831400  1.0
  H  H351  1  0.348800  0.053500  0.831400  1.0
  H  H352  1  0.704700  0.651200  0.831400  1.0
  H  H353  1  0.082900  0.371800  0.827600  1.0
  H  H354  1  0.288900  0.917100  0.827600  1.0
  H  H355  1  0.628200  0.711100  0.827600  1.0
  H  H356  1  0.141200  0.511300  0.830100  1.0
  H  H357  1  0.370100  0.858800  0.830100  1.0
  H  H358  1  0.488700  0.629900  0.830100  1.0
  C  C359  1  0.000000  0.000000  0.407300  1
  C  C360  1  0.553100  0.728700  0.307800  1.0
  C  C361  1  0.175600  0.446900  0.307800  1.0
  C  C362  1  0.271300  0.824400  0.307800  1.0
  C  C363  1  0.473300  0.705000  0.309600  1.0
  C  C364  1  0.231700  0.526700  0.309600  1.0
  C  C365  1  0.295000  0.768300  0.309600  1.0
  C  C366  1  0.421000  0.652000  0.282800  1.0
  C  C367  1  0.231000  0.579000  0.282800  1.0
  C  C368  1  0.348000  0.769000  0.282800  1.0
  C  C369  1  0.449000  0.624000  0.254200  1.0
  C  C370  1  0.175000  0.551000  0.254200  1.0
  C  C371  1  0.376000  0.825000  0.254200  1.0
  C  C372  1  0.529000  0.647000  0.252300  1.0
  C  C373  1  0.118000  0.471000  0.252300  1.0
  C  C374  1  0.353000  0.882000  0.252300  1.0
  C  C375  1  0.580900  0.699800  0.279100  1.0
  C  C376  1  0.118900  0.419100  0.279100  1.0
  C  C377  1  0.300200  0.881100  0.279100  1.0
  C  C378  1  0.613200  0.790700  0.333800  1.0
  C  C379  1  0.177500  0.386800  0.333800  1.0
  C  C380  1  0.209300  0.822500  0.333800  1.0
  C  C381  1  0.572000  0.833000  0.351000  1.0
  C  C382  1  0.261000  0.428000  0.351000  1.0
  C  C383  1  0.167000  0.739000  0.351000  1.0
  C  C384  1  0.576500  0.717300  0.392100  1.0
  C  C385  1  0.140800  0.423500  0.392100  1.0
  C  C386  1  0.282700  0.859200  0.392100  1.0
  C  C387  1  0.596900  0.693700  0.423800  1.0
  C  C388  1  0.096800  0.403100  0.423800  1.0
  C  C389  1  0.306300  0.903200  0.423800  1.0
  C  C390  1  0.548100  0.640400  0.454600  1.0
  C  C391  1  0.092300  0.451900  0.454600  1.0
  C  C392  1  0.359600  0.907700  0.454600  1.0
  C  C393  1  0.569600  0.612900  0.481700  1.0
  C  C394  1  0.043300  0.430400  0.481700  1.0
  C  C395  1  0.387100  0.956700  0.481700  1.0
  C  C396  1  0.649600  0.630200  0.484700  1.0
  C  C397  1  0.980600  0.350400  0.484700  1.0
  C  C398  1  0.369800  0.019400  0.484700  1.0
  C  C399  1  0.698500  0.677300  0.457200  1.0
  C  C400  1  0.978800  0.301500  0.457200  1.0
  C  C401  1  0.322700  0.021200  0.457200  1.0
  C  C402  1  0.583600  0.558200  0.340400  1.0
  C  C403  1  0.974600  0.416400  0.340400  1.0
  C  C404  1  0.441800  0.025400  0.340400  1.0
  C  C405  1  0.503600  0.513400  0.351000  1.0
  C  C406  1  0.009800  0.496400  0.351000  1.0
  C  C407  1  0.486600  0.990200  0.351000  1.0
  C  C408  1  0.471000  0.460000  0.380600  1.0
  C  C409  1  0.989000  0.529000  0.380600  1.0
  C  C410  1  0.540000  0.011000  0.380600  1.0
  C  C411  1  0.522700  0.464600  0.401300  1.0
  C  C412  1  0.941900  0.477300  0.401300  1.0
  C  C413  1  0.535400  0.058100  0.401300  1.0
  C  C414  1  0.604500  0.517700  0.400200  1.0
  C  C415  1  0.913200  0.395500  0.400200  1.0
  C  C416  1  0.482300  0.086800  0.400200  1.0
  C  C417  1  0.633300  0.564000  0.367100  1.0
  C  C418  1  0.930700  0.366700  0.367100  1.0
  C  C419  1  0.436000  0.069300  0.367100  1.0
  C  C420  1  0.720300  0.615800  0.360900  1.0
  C  C421  1  0.895500  0.279700  0.360900  1.0
  C  C422  1  0.384200  0.104500  0.360900  1.0
  C  C423  1  0.756800  0.570100  0.337300  1.0
  C  C424  1  0.813300  0.243200  0.337300  1.0
  C  C425  1  0.429900  0.186700  0.337300  1.0
  C  C426  1  0.778900  0.722300  0.316700  1.0
  C  C427  1  0.943400  0.221100  0.316700  1.0
  C  C428  1  0.277700  0.056600  0.316700  1.0
  C  C429  1  0.807100  0.803000  0.308300  1.0
  C  C430  1  0.995900  0.192900  0.308300  1.0
  C  C431  1  0.197000  0.004100  0.308300  1.0
  C  C432  1  0.838100  0.835300  0.272400  1.0
  C  C433  1  0.997200  0.161900  0.272400  1.0
  C  C434  1  0.164700  0.002800  0.272400  1.0
  C  C435  1  0.865000  0.919000  0.270500  1.0
  C  C436  1  0.054000  0.135000  0.270500  1.0
  C  C437  1  0.081000  0.946000  0.270500  1.0
  C  C438  1  0.859900  0.960000  0.296000  1.0
  C  C439  1  0.100100  0.140100  0.296000  1.0
  C  C440  1  0.040000  0.899900  0.296000  1.0
  C  C441  1  0.827700  0.924200  0.328000  1.0
  C  C442  1  0.096500  0.172300  0.328000  1.0
  C  C443  1  0.075800  0.903500  0.328000  1.0
  C  C444  1  0.568200  0.053400  0.607500  1.0
  C  C445  1  0.485200  0.431800  0.607500  1.0
  C  C446  1  0.946600  0.514800  0.607500  1.0
  C  C447  1  0.512400  0.020900  0.636400  1.0
  C  C448  1  0.508500  0.487600  0.636400  1.0
  C  C449  1  0.979100  0.491500  0.636400  1.0
  C  C450  1  0.456900  0.940800  0.636000  1.0
  C  C451  1  0.483900  0.543100  0.636000  1.0
  C  C452  1  0.059200  0.516100  0.636000  1.0
  C  C453  1  0.457200  0.893300  0.606600  1.0
  C  C454  1  0.436100  0.542800  0.606600  1.0
  C  C455  1  0.106700  0.563900  0.606600  1.0
  C  C456  1  0.513000  0.925700  0.577800  1.0
  C  C457  1  0.412700  0.487000  0.577800  1.0
  C  C458  1  0.074300  0.587300  0.577800  1.0
  C  C459  1  0.568500  0.005800  0.578200  1.0
  C  C460  1  0.437300  0.431500  0.578200  1.0
  C  C461  1  0.994200  0.562700  0.578200  1.0
  C  C462  1  0.631000  0.044100  0.545900  1.0
  C  C463  1  0.413100  0.369000  0.545900  1.0
  C  C464  1  0.955900  0.586900  0.545900  1.0
  C  C465  1  0.609400  0.095500  0.522100  1.0
  C  C466  1  0.486100  0.390600  0.522100  1.0
  C  C467  1  0.904500  0.513900  0.522100  1.0
  C  C468  1  0.749500  0.158600  0.564400  1.0
  C  C469  1  0.409100  0.250500  0.564400  1.0
  C  C470  1  0.841400  0.590900  0.564400  1.0
  C  C471  1  0.831300  0.201200  0.574600  1.0
  C  C472  1  0.369900  0.168700  0.574600  1.0
  C  C473  1  0.798800  0.630100  0.574600  1.0
  C  C474  1  0.876600  0.279500  0.579000  1.0
  C  C475  1  0.402900  0.123400  0.579000  1.0
  C  C476  1  0.720500  0.597100  0.579000  1.0
  C  C477  1  0.956400  0.318100  0.587300  1.0
  C  C478  1  0.361700  0.043600  0.587300  1.0
  C  C479  1  0.681900  0.638300  0.587300  1.0
  C  C480  1  0.987400  0.268500  0.591700  1.0
  C  C481  1  0.281100  0.012600  0.591700  1.0
  C  C482  1  0.731500  0.718900  0.591700  1.0
  C  C483  1  0.941200  0.188100  0.588600  1.0
  C  C484  1  0.246900  0.058800  0.588600  1.0
  C  C485  1  0.811900  0.753100  0.588600  1.0
  C  C486  1  0.865200  0.199900  0.671000  1.0
  C  C487  1  0.334700  0.134800  0.671000  1.0
  C  C488  1  0.800100  0.665300  0.671000  1.0
  C  C489  1  0.860700  0.268400  0.674000  1.0
  C  C490  1  0.407700  0.139300  0.674000  1.0
  C  C491  1  0.731600  0.592300  0.674000  1.0
  C  C492  1  0.787800  0.264400  0.672200  1.0
  C  C493  1  0.476600  0.212200  0.672200  1.0
  C  C494  1  0.735600  0.523400  0.672200  1.0
  C  C495  1  0.719400  0.191800  0.667600  1.0
  C  C496  1  0.472400  0.280600  0.667600  1.0
  C  C497  1  0.808200  0.527600  0.667600  1.0
  C  C498  1  0.723900  0.123300  0.664700  1.0
  C  C499  1  0.399400  0.276100  0.664700  1.0
  C  C500  1  0.876700  0.600600  0.664700  1.0
  C  C501  1  0.796800  0.127400  0.666400  1.0
  C  C502  1  0.330600  0.203200  0.666400  1.0
  C  C503  1  0.872600  0.669400  0.666400  1.0
  C  C504  1  0.804400  0.056600  0.662300  1.0
  C  C505  1  0.252200  0.195600  0.662300  1.0
  C  C506  1  0.943400  0.747800  0.662300  1.0
  C  C507  1  0.793500  0.013500  0.702200  1.0
  C  C508  1  0.220000  0.206500  0.702200  1.0
  C  C509  1  0.986500  0.780000  0.702200  1.0
  C  C510  1  0.706300  0.941800  0.636600  1.0
  C  C511  1  0.235500  0.293700  0.636600  1.0
  C  C512  1  0.058200  0.764500  0.636600  1.0
  C  C513  1  0.660100  0.885400  0.603800  1.0
  C  C514  1  0.225300  0.339900  0.603800  1.0
  C  C515  1  0.114600  0.774700  0.603800  1.0
  C  C516  1  0.598600  0.808900  0.605800  1.0
  C  C517  1  0.210300  0.401400  0.605800  1.0
  C  C518  1  0.191100  0.789700  0.605800  1.0
  C  C519  1  0.563100  0.762900  0.575300  1.0
  C  C520  1  0.199800  0.436900  0.575300  1.0
  C  C521  1  0.237100  0.800200  0.575300  1.0
  C  C522  1  0.598700  0.799000  0.541900  1.0
  C  C523  1  0.200300  0.401300  0.541900  1.0
  C  C524  1  0.201000  0.799700  0.541900  1.0
  C  C525  1  0.659700  0.875700  0.539200  1.0
  C  C526  1  0.216000  0.340300  0.539200  1.0
  C  C527  1  0.124300  0.784000  0.539200  1.0
  C  C528  1  0.768700  0.943400  0.419800  1.0
  C  C529  1  0.174700  0.231300  0.419800  1.0
  C  C530  1  0.056600  0.825300  0.419800  1.0
  C  C531  1  0.873600  0.104500  0.414200  1.0
  C  C532  1  0.230900  0.126400  0.414200  1.0
  C  C533  1  0.895500  0.769100  0.414200  1.0
  C  C534  1  0.741200  0.033300  0.375300  1.0
  C  C535  1  0.292100  0.258800  0.375300  1.0
  C  C536  1  0.966700  0.707900  0.375300  1.0
  C  C537  1  0.791300  0.040600  0.484400  1.0
  C  C538  1  0.249300  0.208700  0.484400  1.0
  C  C539  1  0.959400  0.750700  0.484400  1.0
  C  C540  1  0.652000  0.970800  0.444100  1.0
  C  C541  1  0.318800  0.348000  0.444100  1.0
  C  C542  1  0.029200  0.681200  0.444100  1.0
  C  C543  1  0.757600  0.130900  0.437900  1.0
  C  C544  1  0.373300  0.242400  0.437900  1.0
  C  C545  1  0.869100  0.626700  0.437900  1.0
  C  C546  1  0.917500  0.001700  0.599500  1.0
  C  C547  1  0.084200  0.082500  0.599500  1.0
  C  C548  1  0.998300  0.915800  0.599500  1.0
  C  C549  1  0.079100  0.993900  0.662100  1.0
  C  C550  1  0.914800  0.920900  0.662100  1.0
  C  C551  1  0.006100  0.085200  0.662100  1.0
  C  C552  1  0.290200  0.671500  0.977400  1.0
  C  C553  1  0.381300  0.709800  0.977400  1.0
  C  C554  1  0.328500  0.618700  0.977400  1.0
  C  C555  1  0.328000  0.689600  0.015800  1.0
  C  C556  1  0.361600  0.672000  0.015800  1.0
  C  C557  1  0.310400  0.638400  0.015800  1.0
  C  C558  1  0.302000  0.694000  0.912700  1.0
  C  C559  1  0.392000  0.698000  0.912700  1.0
  C  C560  1  0.306000  0.608000  0.912700  1.0
  C  C561  1  0.286200  0.705800  0.944200  1.0
  C  C562  1  0.419600  0.713800  0.944200  1.0
  C  C563  1  0.294200  0.580400  0.944200  1.0
  C  C564  1  0.313500  0.775100  0.918700  1.0
  C  C565  1  0.461600  0.686500  0.918700  1.0
  C  C566  1  0.224900  0.538400  0.918700  1.0
  C  C567  1  0.006000  0.962400  0.442700  1.0
  C  C568  1  0.956400  0.994000  0.442700  1.0
  C  C569  1  0.037600  0.043600  0.442700  1.0
  C  C570  1  0.033800  0.977800  0.510100  1.0
  C  C571  1  0.944000  0.966200  0.510100  1.0
  C  C572  1  0.022200  0.056000  0.510100  1.0
  C  C573  1  0.042300  0.956600  0.474800  1.0
  C  C574  1  0.914300  0.957700  0.474800  1.0
  C  C575  1  0.043400  0.085700  0.474800  1.0
  C  C576  1  0.108200  0.974600  0.502100  1.0
  C  C577  1  0.866400  0.891800  0.502100  1.0
  C  C578  1  0.025400  0.133600  0.502100  1.0
  C  C579  1  0.846800  0.270900  0.020100  1.0
  C  C580  1  0.424100  0.153200  0.020100  1.0
  C  C581  1  0.729100  0.575900  0.020100  1.0
  C  C582  1  0.796300  0.189900  0.017100  1.0
  C  C583  1  0.393600  0.203700  0.017100  1.0
  C  C584  1  0.810100  0.606400  0.017100  1.0
  C  C585  1  0.795600  0.139800  0.045400  1.0
  C  C586  1  0.344200  0.204400  0.045400  1.0
  C  C587  1  0.860200  0.655800  0.045400  1.0
  C  C588  1  0.845500  0.170800  0.076600  1.0
  C  C589  1  0.325300  0.154500  0.076600  1.0
  C  C590  1  0.829200  0.674700  0.076600  1.0
  C  C591  1  0.896000  0.251800  0.079600  1.0
  C  C592  1  0.355800  0.104000  0.079600  1.0
  C  C593  1  0.748200  0.644200  0.079600  1.0
  C  C594  1  0.896600  0.301800  0.051300  1.0
  C  C595  1  0.405200  0.103400  0.051300  1.0
  C  C596  1  0.698200  0.594800  0.051300  1.0
  C  C597  1  0.946200  0.390100  0.059200  1.0
  C  C598  1  0.443900  0.053800  0.059200  1.0
  C  C599  1  0.609900  0.556100  0.059200  1.0
  C  C600  1  0.903400  0.418300  0.083500  1.0
  C  C601  1  0.514900  0.096600  0.083500  1.0
  C  C602  1  0.581700  0.485100  0.083500  1.0
  C  C603  1  0.051400  0.443600  0.104700  1.0
  C  C604  1  0.392200  0.948600  0.104700  1.0
  C  C605  1  0.556400  0.607800  0.104700  1.0
  C  C606  1  0.133000  0.474000  0.114600  1.0
  C  C607  1  0.341000  0.867000  0.114600  1.0
  C  C608  1  0.526000  0.659000  0.114600  1.0
  C  C609  1  0.166100  0.504500  0.149900  1.0
  C  C610  1  0.338400  0.833900  0.149900  1.0
  C  C611  1  0.495500  0.661600  0.149900  1.0
  C  C612  1  0.245600  0.531100  0.156400  1.0
  C  C613  1  0.285500  0.754400  0.156400  1.0
  C  C614  1  0.468900  0.714500  0.156400  1.0
  C  C615  1  0.292000  0.527100  0.127500  1.0
  C  C616  1  0.235100  0.708000  0.127500  1.0
  C  C617  1  0.472900  0.764900  0.127500  1.0
  C  C618  1  0.258900  0.496600  0.092100  1.0
  C  C619  1  0.237700  0.741100  0.092100  1.0
  C  C620  1  0.503400  0.762300  0.092100  1.0
  C  C621  1  0.106900  0.264000  0.112800  1.0
  C  C622  1  0.157100  0.893100  0.112800  1.0
  C  C623  1  0.736000  0.842900  0.112800  1.0
  C  C624  1  0.144600  0.311200  0.144200  1.0
  C  C625  1  0.166600  0.855400  0.144200  1.0
  C  C626  1  0.688800  0.833400  0.144200  1.0
  C  C627  1  0.106000  0.294900  0.179100  1.0
  C  C628  1  0.188900  0.894000  0.179100  1.0
  C  C629  1  0.705100  0.811100  0.179100  1.0
  C  C630  1  0.030000  0.231500  0.182600  1.0
  C  C631  1  0.201500  0.970000  0.182600  1.0
  C  C632  1  0.768500  0.798500  0.182600  1.0
  C  C633  1  0.992200  0.184200  0.151200  1.0
  C  C634  1  0.192000  0.007800  0.151200  1.0
  C  C635  1  0.815800  0.808000  0.151200  1.0
  C  C636  1  0.030700  0.200400  0.116300  1.0
  C  C637  1  0.169700  0.969300  0.116300  1.0
  C  C638  1  0.799600  0.830300  0.116300  1.0
  C  C639  1  0.149400  0.284500  0.077300  1.0
  C  C640  1  0.135100  0.850600  0.077300  1.0
  C  C641  1  0.715500  0.864900  0.077300  1.0
  C  C642  1  0.166000  0.218600  0.068900  1.0
  C  C643  1  0.052600  0.834000  0.068900  1.0
  C  C644  1  0.781400  0.947400  0.068900  1.0
  C  C645  1  0.057300  0.253200  0.027900  1.0
  C  C646  1  0.195900  0.942700  0.027900  1.0
  C  C647  1  0.746800  0.804100  0.027900  1.0
  C  C648  1  0.021400  0.269000  0.993000  1.0
  C  C649  1  0.247600  0.978600  0.993000  1.0
  C  C650  1  0.731000  0.752400  0.993000  1.0
  C  C651  1  0.971800  0.214200  0.969500  1.0
  C  C652  1  0.242400  0.028200  0.969500  1.0
  C  C653  1  0.785800  0.757600  0.969500  1.0
  C  C654  1  0.946400  0.238900  0.938800  1.0
  C  C655  1  0.292500  0.053600  0.938800  1.0
  C  C656  1  0.761100  0.707500  0.938800  1.0
  C  C657  1  0.966000  0.317300  0.935400  1.0
  C  C658  1  0.351300  0.034000  0.935400  1.0
  C  C659  1  0.682700  0.648700  0.935400  1.0
  C  C660  1  0.010600  0.366800  0.963600  1.0
  C  C661  1  0.356200  0.989400  0.963600  1.0
  C  C662  1  0.633200  0.643800  0.963600  1.0
  C  C663  1  0.999000  0.466800  0.749100  1.0
  C  C664  1  0.467800  0.001000  0.749100  1.0
  C  C665  1  0.533200  0.532200  0.749100  1.0
  C  C666  1  0.925900  0.398400  0.746800  1.0
  C  C667  1  0.472500  0.074100  0.746800  1.0
  C  C668  1  0.601600  0.527500  0.746800  1.0
  C  C669  1  0.857100  0.402600  0.748700  1.0
  C  C670  1  0.545500  0.142900  0.748700  1.0
  C  C671  1  0.597400  0.454500  0.748700  1.0
  C  C672  1  0.861600  0.475400  0.752800  1.0
  C  C673  1  0.613800  0.138400  0.752800  1.0
  C  C674  1  0.524600  0.386200  0.752800  1.0
  C  C675  1  0.934700  0.543800  0.755100  1.0
  C  C676  1  0.609100  0.065300  0.755100  1.0
  C  C677  1  0.456200  0.390900  0.755100  1.0
  C  C678  1  0.003400  0.539500  0.753200  1.0
  C  C679  1  0.536100  0.996600  0.753200  1.0
  C  C680  1  0.460500  0.463900  0.753200  1.0
  C  C681  1  0.082700  0.607400  0.757900  1.0
  C  C682  1  0.524700  0.917300  0.757900  1.0
  C  C683  1  0.392600  0.475300  0.757900  1.0
  C  C684  1  0.112100  0.650700  0.718800  1.0
  C  C685  1  0.538600  0.887900  0.718800  1.0
  C  C686  1  0.349300  0.461400  0.718800  1.0
  C  C687  1  0.100700  0.731300  0.784800  1.0
  C  C688  1  0.630600  0.899300  0.784800  1.0
  C  C689  1  0.268700  0.369400  0.784800  1.0
  C  C690  1  0.109100  0.781200  0.818500  1.0
  C  C691  1  0.672100  0.890900  0.818500  1.0
  C  C692  1  0.218800  0.327900  0.818500  1.0
  C  C693  1  0.123600  0.857700  0.813900  1.0
  C  C694  1  0.734100  0.876400  0.813900  1.0
  C  C695  1  0.142300  0.265900  0.813900  1.0
  C  C696  1  0.132900  0.901200  0.848200  1.0
  C  C697  1  0.768300  0.867100  0.848200  1.0
  C  C698  1  0.098800  0.231700  0.848200  1.0
  C  C699  1  0.131500  0.868300  0.882400  1.0
  C  C700  1  0.736800  0.868500  0.882400  1.0
  C  C701  1  0.131700  0.263200  0.882400  1.0
  C  C702  1  0.119300  0.793700  0.882900  1.0
  C  C703  1  0.674400  0.880700  0.882900  1.0
  C  C704  1  0.206300  0.325600  0.882900  1.0
  C  C705  1  0.847700  0.611600  0.813500  1.0
  C  C706  1  0.763900  0.152300  0.813500  1.0
  C  C707  1  0.388400  0.236100  0.813500  1.0
  C  C708  1  0.823700  0.645100  0.785400  1.0
  C  C709  1  0.821400  0.176300  0.785400  1.0
  C  C710  1  0.354900  0.178600  0.785400  1.0
  C  C711  1  0.849000  0.725300  0.786400  1.0
  C  C712  1  0.876300  0.151000  0.786400  1.0
  C  C713  1  0.274700  0.123700  0.786400  1.0
  C  C714  1  0.898200  0.772000  0.815500  1.0
  C  C715  1  0.873800  0.101800  0.815500  1.0
  C  C716  1  0.228000  0.126200  0.815500  1.0
  C  C717  1  0.922300  0.738600  0.843600  1.0
  C  C718  1  0.816300  0.077700  0.843600  1.0
  C  C719  1  0.261400  0.183700  0.843600  1.0
  C  C720  1  0.897000  0.658400  0.842600  1.0
  C  C721  1  0.761400  0.103000  0.842600  1.0
  C  C722  1  0.341600  0.238600  0.842600  1.0
  C  C723  1  0.918600  0.619500  0.875100  1.0
  C  C724  1  0.700900  0.081400  0.875100  1.0
  C  C725  1  0.380500  0.299100  0.875100  1.0
  C  C726  1  0.848900  0.573400  0.900300  1.0
  C  C727  1  0.724500  0.151100  0.900300  1.0
  C  C728  1  0.426600  0.275500  0.900300  1.0
  C  C729  1  0.924600  0.508500  0.857300  1.0
  C  C730  1  0.583900  0.075400  0.857300  1.0
  C  C731  1  0.491500  0.416100  0.857300  1.0
  C  C732  1  0.964800  0.465900  0.845800  1.0
  C  C733  1  0.501100  0.035200  0.845800  1.0
  C  C734  1  0.534100  0.498900  0.845800  1.0
  C  C735  1  0.929800  0.384600  0.842200  1.0
  C  C736  1  0.454800  0.070200  0.842200  1.0
  C  C737  1  0.615400  0.545200  0.842200  1.0
  C  C738  1  0.971800  0.350900  0.834600  1.0
  C  C739  1  0.379100  0.028200  0.834600  1.0
  C  C740  1  0.649100  0.620900  0.834600  1.0
  C  C741  1  0.051300  0.395500  0.831500  1.0
  C  C742  1  0.344200  0.948700  0.831500  1.0
  C  C743  1  0.604500  0.655800  0.831500  1.0
  C  C744  1  0.086000  0.478800  0.834000  1.0
  C  C745  1  0.392800  0.914000  0.834000  1.0
  C  C746  1  0.521200  0.607200  0.834000  1.0
  C  C747  1  0.040100  0.628700  0.046300  1.0
  C  C748  1  0.588600  0.959900  0.046300  1.0
  C  C749  1  0.371300  0.411400  0.046300  1.0
  C  C750  1  0.103800  0.562200  0.006400  1.0
  C  C751  1  0.458400  0.896200  0.006400  1.0
  C  C752  1  0.437800  0.541600  0.006400  1.0
  C  C753  1  0.157600  0.721300  0.002000  1.0
  C  C754  1  0.563700  0.842400  0.002000  1.0
  C  C755  1  0.278700  0.436300  0.002000  1.0
  C  C756  1  0.020700  0.695300  0.978100  1.0
  C  C757  1  0.674600  0.979300  0.978100  1.0
  C  C758  1  0.304700  0.325400  0.978100  1.0
  C  C759  1  0.081800  0.627300  0.938400  1.0
  C  C760  1  0.545500  0.918200  0.938400  1.0
  C  C761  1  0.372700  0.454500  0.938400  1.0
  C  C762  1  0.964700  0.536700  0.984400  1.0
  C  C763  1  0.572000  0.035300  0.984400  1.0
  C  C764  1  0.463300  0.428000  0.984400  1.0
  C  C765  1  0.248600  0.665300  0.821300  1.0
  C  C766  1  0.416700  0.751400  0.821300  1.0
  C  C767  1  0.334700  0.583300  0.821300  1.0
  C  C768  1  0.251200  0.579400  0.759600  1.0
  C  C769  1  0.328200  0.748800  0.759600  1.0
  C  C770  1  0.420600  0.671800  0.759600  1.0
  N  N771  1  0.333333  0.666667  0.943300  1
  N  N772  1  0.000000  0.000000  0.477600  1
  N  N773  1  0.635400  0.765500  0.370700  1.0
  N  N774  1  0.130100  0.364600  0.370700  1.0
  N  N775  1  0.234500  0.869900  0.370700  1.0
  N  N776  1  0.678800  0.708500  0.428700  1.0
  N  N777  1  0.029700  0.321200  0.428700  1.0
  N  N778  1  0.291500  0.970300  0.428700  1.0
  N  N779  1  0.744800  0.691300  0.349300  1.0
  N  N780  1  0.946500  0.255200  0.349300  1.0
  N  N781  1  0.308700  0.053500  0.349300  1.0
  N  N782  1  0.801000  0.846200  0.335300  1.0
  N  N783  1  0.045200  0.199000  0.335300  1.0
  N  N784  1  0.153800  0.954800  0.335300  1.0
  N  N785  1  0.712300  0.087200  0.562300  1.0
  N  N786  1  0.374900  0.287700  0.562300  1.0
  N  N787  1  0.912800  0.625100  0.562300  1.0
  N  N788  1  0.864600  0.154500  0.579600  1.0
  N  N789  1  0.289900  0.135400  0.579600  1.0
  N  N790  1  0.845500  0.710100  0.579600  1.0
  N  N791  1  0.756400  0.008600  0.631600  1.0
  N  N792  1  0.252200  0.243600  0.631600  1.0
  N  N793  1  0.991400  0.747800  0.631600  1.0
  N  N794  1  0.692500  0.919200  0.570700  1.0
  N  N795  1  0.226700  0.307500  0.570700  1.0
  N  N796  1  0.080800  0.773300  0.570700  1.0
  N  N797  1  0.768900  0.884800  0.413200  1.0
  N  N798  1  0.115900  0.231100  0.413200  1.0
  N  N799  1  0.115200  0.884100  0.413200  1.0
  N  N800  1  0.937600  0.149200  0.405800  1.0
  N  N801  1  0.211600  0.062400  0.405800  1.0
  N  N802  1  0.850800  0.788400  0.405800  1.0
  N  N803  1  0.727800  0.033700  0.343100  1.0
  N  N804  1  0.305900  0.272200  0.343100  1.0
  N  N805  1  0.966300  0.694100  0.343100  1.0
  N  N806  1  0.799500  0.041500  0.516100  1.0
  N  N807  1  0.242000  0.200500  0.516100  1.0
  N  N808  1  0.958500  0.758000  0.516100  1.0
  N  N809  1  0.592400  0.930900  0.456300  1.0
  N  N810  1  0.338500  0.407600  0.456300  1.0
  N  N811  1  0.069100  0.661500  0.456300  1.0
  N  N812  1  0.756500  0.192000  0.444000  1.0
  N  N813  1  0.435500  0.243500  0.444000  1.0
  N  N814  1  0.808000  0.564500  0.444000  1.0
  N  N815  1  0.867700  0.003900  0.583900  1.0
  N  N816  1  0.136200  0.132300  0.583900  1.0
  N  N817  1  0.996100  0.863800  0.583900  1.0
  N  N818  1  0.124100  0.987900  0.679500  1.0
  N  N819  1  0.863800  0.875900  0.679500  1.0
  N  N820  1  0.012100  0.136200  0.679500  1.0
  N  N821  1  0.179400  0.470000  0.085700  1.0
  N  N822  1  0.290600  0.820600  0.085700  1.0
  N  N823  1  0.530000  0.709400  0.085700  1.0
  N  N824  1  0.025700  0.412500  0.070700  1.0
  N  N825  1  0.386800  0.974300  0.070700  1.0
  N  N826  1  0.587500  0.613200  0.070700  1.0
  N  N827  1  0.102800  0.305500  0.050500  1.0
  N  N828  1  0.202700  0.897200  0.050500  1.0
  N  N829  1  0.694500  0.797300  0.050500  1.0
  N  N830  1  0.043200  0.345700  0.993000  1.0
  N  N831  1  0.302500  0.956800  0.993000  1.0
  N  N832  1  0.654300  0.697500  0.993000  1.0
  N  N833  1  0.085700  0.660400  0.790700  1.0
  N  N834  1  0.574700  0.914300  0.790700  1.0
  N  N835  1  0.339600  0.425300  0.790700  1.0
  N  N836  1  0.106600  0.747900  0.851800  1.0
  N  N837  1  0.641300  0.893400  0.851800  1.0
  N  N838  1  0.252100  0.358700  0.851800  1.0
  N  N839  1  0.961200  0.583700  0.859300  1.0
  N  N840  1  0.622500  0.038800  0.859300  1.0
  N  N841  1  0.416300  0.377500  0.859300  1.0
  N  N842  1  0.043300  0.512200  0.841800  1.0
  N  N843  1  0.468900  0.956700  0.841800  1.0
  N  N844  1  0.487800  0.531100  0.841800  1.0
  N  N845  1  0.027100  0.632700  0.078900  1.0
  N  N846  1  0.605600  0.972900  0.078900  1.0
  N  N847  1  0.367300  0.394400  0.078900  1.0
  N  N848  1  0.120200  0.514600  0.017000  1.0
  N  N849  1  0.394400  0.879800  0.017000  1.0
  N  N850  1  0.485400  0.605600  0.017000  1.0
  N  N851  1  0.213100  0.779800  0.009300  1.0
  N  N852  1  0.566700  0.786900  0.009300  1.0
  N  N853  1  0.220200  0.433300  0.009300  1.0
  N  N854  1  0.992600  0.732500  0.966700  1.0
  N  N855  1  0.739900  0.007400  0.966700  1.0
  N  N856  1  0.267500  0.260100  0.966700  1.0
  N  N857  1  0.091700  0.624800  0.907400  1.0
  N  N858  1  0.533100  0.908300  0.907400  1.0
  N  N859  1  0.375200  0.466900  0.907400  1.0
  N  N860  1  0.903100  0.478800  0.977400  1.0
  N  N861  1  0.575700  0.096900  0.977400  1.0
  N  N862  1  0.521200  0.424300  0.977400  1.0
  N  N863  1  0.195700  0.661400  0.836700  1.0
  N  N864  1  0.465700  0.804300  0.836700  1.0
  N  N865  1  0.338600  0.534300  0.836700  1.0
  N  N866  1  0.206000  0.527400  0.741700  1.0
  N  N867  1  0.321400  0.794000  0.741700  1.0
  N  N868  1  0.472600  0.678600  0.741700  1.0
  F  F869  1  0.716200  0.306000  0.559500  1.0
  F  F870  1  0.589800  0.283800  0.559500  1.0
  F  F871  1  0.694000  0.410200  0.559500  1.0
  F  F872  1  0.633600  0.244600  0.603800  1.0
  F  F873  1  0.611000  0.366400  0.603800  1.0
  F  F874  1  0.755400  0.389000  0.603800  1.0
  F  F875  1  0.715000  0.412600  0.814600  1.0
  F  F876  1  0.697600  0.285000  0.814600  1.0
  F  F877  1  0.587400  0.302400  0.814600  1.0
  F  F878  1  0.741200  0.364500  0.864800  1.0
  F  F879  1  0.623300  0.258800  0.864800  1.0
  F  F880  1  0.635500  0.376700  0.864800  1.0
