# generated using pymatgen
data_H395Pd30C289N121O5
_symmetry_space_group_name_H-M   'P 1'
_cell_length_a   26.50300000
_cell_length_b   30.88700000
_cell_length_c   35.74300000
_cell_angle_alpha   85.46800000
_cell_angle_beta   85.73500000
_cell_angle_gamma   89.85000000
_symmetry_Int_Tables_number   1
_chemical_formula_structural   H395Pd30C289N121O5
_chemical_formula_sum   'H790 Pd60 C578 N242 O10'
_cell_volume   29086.74234569
_cell_formula_units_Z   2
loop_
 _symmetry_equiv_pos_site_id
 _symmetry_equiv_pos_as_xyz
  1  'x, y, z'
loop_
 _atom_site_type_symbol
 _atom_site_label
 _atom_site_symmetry_multiplicity
 _atom_site_fract_x
 _atom_site_fract_y
 _atom_site_fract_z
 _atom_site_occupancy
  H  H1  1  0.245000  0.594500  0.785000  1
  H  H2  1  0.755000  0.405500  0.215000  1
  H  H3  1  0.270800  0.657400  0.682000  1
  H  H4  1  0.729200  0.342600  0.318000  1
  H  H5  1  0.136200  0.598800  0.711300  1
  H  H6  1  0.863800  0.401200  0.288700  1
  H  H7  1  0.182000  0.584000  0.827000  1
  H  H8  1  0.818000  0.416000  0.173000  1
  H  H9  1  0.076500  0.494200  0.851000  1
  H  H10  1  0.923500  0.505800  0.149000  1
  H  H11  1  0.060800  0.493400  0.787400  1
  H  H12  1  0.939200  0.506600  0.212600  1
  H  H13  1  0.113200  0.534200  0.742800  1
  H  H14  1  0.886800  0.465800  0.257200  1
  H  H15  1  0.338200  0.678200  0.696900  1
  H  H16  1  0.661800  0.321800  0.303100  1
  H  H17  1  0.435400  0.686100  0.775200  1
  H  H18  1  0.564600  0.313900  0.224800  1
  H  H19  1  0.307700  0.619900  0.800900  1
  H  H20  1  0.692300  0.380100  0.199100  1
  H  H21  1  0.235400  0.692900  0.638900  1
  H  H22  1  0.764600  0.307100  0.361100  1
  H  H23  1  0.148900  0.673200  0.556900  1
  H  H24  1  0.851100  0.326800  0.443100  1
  H  H25  1  0.129600  0.598100  0.650900  1
  H  H26  1  0.870400  0.401900  0.349100  1
  H  H27  1  0.864300  0.645100  0.774800  1
  H  H28  1  0.135700  0.354900  0.225200  1
  H  H29  1  0.864300  0.679200  0.663600  1
  H  H30  1  0.135700  0.320800  0.336400  1
  H  H31  1  0.989700  0.628400  0.706400  1
  H  H32  1  0.010300  0.371600  0.293600  1
  H  H33  1  0.897700  0.587200  0.807500  1
  H  H34  1  0.102300  0.412800  0.192500  1
  H  H35  1  0.019000  0.580300  0.865300  1
  H  H36  1  0.981000  0.419700  0.134700  1
  H  H37  1  0.067300  0.610900  0.814400  1
  H  H38  1  0.932700  0.389100  0.185600  1
  H  H39  1  0.030300  0.639300  0.763000  1
  H  H40  1  0.969700  0.360700  0.237000  1
  H  H41  1  0.785700  0.648000  0.776700  1
  H  H42  1  0.214300  0.352000  0.223300  1
  H  H43  1  0.678100  0.730100  0.746000  1
  H  H44  1  0.321900  0.269900  0.254000  1
  H  H45  1  0.804100  0.723100  0.680600  1
  H  H46  1  0.195900  0.276900  0.319400  1
  H  H47  1  0.004400  0.609000  0.646400  1
  H  H48  1  0.995600  0.391000  0.353600  1
  H  H49  1  0.029000  0.680200  0.550600  1
  H  H50  1  0.971000  0.319800  0.449400  1
  H  H51  1  0.868200  0.909000  0.734900  1
  H  H52  1  0.131800  0.091000  0.265100  1
  H  H53  1  0.004200  0.892700  0.679600  1
  H  H54  1  0.995800  0.107300  0.320400  1
  H  H55  1  0.878600  0.844800  0.640500  1
  H  H56  1  0.121400  0.155200  0.359500  1
  H  H57  1  0.809000  0.810200  0.671900  1
  H  H58  1  0.191000  0.189800  0.328100  1
  H  H59  1  0.670400  0.851700  0.699400  1
  H  H60  1  0.329600  0.148300  0.300600  1
  H  H61  1  0.703200  0.915000  0.717300  1
  H  H62  1  0.296800  0.085000  0.282700  1
  H  H63  1  0.789700  0.927200  0.714500  1
  H  H64  1  0.210300  0.072800  0.285500  1
  H  H65  1  0.909300  0.918200  0.780000  1
  H  H66  1  0.090700  0.081800  0.220000  1
  H  H67  1  0.013600  0.000800  0.805600  1
  H  H68  1  0.986400  0.999200  0.194400  1
  H  H69  1  0.025900  0.953400  0.707400  1
  H  H70  1  0.974100  0.046600  0.292600  1
  H  H71  1  0.032500  0.893300  0.618100  1
  H  H72  1  0.967500  0.106700  0.381900  1
  H  H73  1  0.046200  0.810800  0.540100  1
  H  H74  1  0.953800  0.189200  0.459900  1
  H  H75  1  0.929300  0.799800  0.615100  1
  H  H76  1  0.070700  0.200200  0.384900  1
  H  H77  1  0.817300  0.694900  0.899400  1
  H  H78  1  0.182700  0.305100  0.100600  1
  H  H79  1  0.943800  0.760000  0.917100  1
  H  H80  1  0.056200  0.240000  0.082900  1
  H  H81  1  0.825200  0.825500  0.875500  1
  H  H82  1  0.174800  0.174500  0.124500  1
  H  H83  1  0.772000  0.701200  0.846300  1
  H  H84  1  0.228000  0.298800  0.153700  1
  H  H85  1  0.633500  0.747400  0.837600  1
  H  H86  1  0.366500  0.252600  0.162400  1
  H  H87  1  0.655500  0.810400  0.865700  1
  H  H88  1  0.344500  0.189600  0.134300  1
  H  H89  1  0.736600  0.815600  0.887400  1
  H  H90  1  0.263400  0.184400  0.112600  1
  H  H91  1  0.949600  0.698700  0.961900  1
  H  H92  1  0.050400  0.301300  0.038100  1
  H  H93  1  0.963800  0.574300  0.949200  1
  H  H94  1  0.036200  0.425700  0.050800  1
  H  H95  1  0.877200  0.644800  0.883300  1
  H  H96  1  0.122800  0.355200  0.116700  1
  H  H97  1  0.964500  0.821300  0.936500  1
  H  H98  1  0.035500  0.178700  0.063500  1
  H  H99  1  0.989200  0.941500  0.897000  1
  H  H100  1  0.010800  0.058500  0.103000  1
  H  H101  1  0.881900  0.876700  0.856200  1
  H  H102  1  0.118100  0.123300  0.143800  1
  H  H103  1  0.299300  0.821300  0.657000  1
  H  H104  1  0.700700  0.178700  0.343000  1
  H  H105  1  0.172800  0.886500  0.686700  1
  H  H106  1  0.827200  0.113500  0.313300  1
  H  H107  1  0.291300  0.882700  0.753000  1
  H  H108  1  0.708700  0.117300  0.247000  1
  H  H109  1  0.349500  0.776400  0.691000  1
  H  H110  1  0.650500  0.223600  0.309000  1
  H  H111  1  0.482600  0.789800  0.734200  1
  H  H112  1  0.517400  0.210200  0.265800  1
  H  H113  1  0.456400  0.855000  0.756000  1
  H  H114  1  0.543600  0.145000  0.244000  1
  H  H115  1  0.377800  0.884600  0.740200  1
  H  H116  1  0.622200  0.115400  0.259800  1
  H  H117  1  0.163200  0.889200  0.624900  1
  H  H118  1  0.836800  0.110800  0.375100  1
  H  H119  1  0.155300  0.802300  0.549400  1
  H  H120  1  0.844700  0.197700  0.450600  1
  H  H121  1  0.245700  0.779900  0.631800  1
  H  H122  1  0.754300  0.220100  0.368200  1
  H  H123  1  0.154000  0.947300  0.712200  1
  H  H124  1  0.846000  0.052700  0.287800  1
  H  H125  1  0.134200  0.992300  0.812500  1
  H  H126  1  0.865800  0.007700  0.187500  1
  H  H127  1  0.235900  0.900400  0.796600  1
  H  H128  1  0.764100  0.099600  0.203400  1
  H  H129  1  0.258900  0.802600  0.891000  1
  H  H130  1  0.741100  0.197400  0.109000  1
  H  H131  1  0.118500  0.750900  0.914200  1
  H  H132  1  0.881500  0.249100  0.085800  1
  H  H133  1  0.239800  0.671800  0.903900  1
  H  H134  1  0.760200  0.328200  0.096100  1
  H  H135  1  0.307000  0.675600  0.861900  1
  H  H136  1  0.693000  0.324400  0.138100  1
  H  H137  1  0.450000  0.704200  0.876200  1
  H  H138  1  0.550000  0.295800  0.123800  1
  H  H139  1  0.424700  0.764800  0.905500  1
  H  H140  1  0.575300  0.235200  0.094500  1
  H  H141  1  0.337100  0.781000  0.915400  1
  H  H142  1  0.662900  0.219000  0.084600  1
  H  H143  1  0.216400  0.860200  0.870100  1
  H  H144  1  0.783600  0.139800  0.129900  1
  H  H145  1  0.108500  0.937400  0.906700  1
  H  H146  1  0.891500  0.062600  0.093300  1
  H  H147  1  0.099600  0.812800  0.937300  1
  H  H148  1  0.900400  0.187200  0.062700  1
  H  H149  1  0.093000  0.694000  0.958500  1
  H  H150  1  0.907000  0.306000  0.041500  1
  H  H151  1  0.064400  0.570600  0.947500  1
  H  H152  1  0.935600  0.429400  0.052500  1
  H  H153  1  0.178400  0.627600  0.886200  1
  H  H154  1  0.821600  0.372400  0.113800  1
  H  H155  1  0.184100  0.935600  0.547700  1
  H  H156  1  0.815900  0.064400  0.452300  1
  H  H157  1  0.186000  0.910000  0.513800  1
  H  H158  1  0.814000  0.090000  0.486200  1
  H  H159  1  0.048500  0.912900  0.505800  1
  H  H160  1  0.951500  0.087100  0.494200  1
  H  H161  1  0.041400  0.941700  0.537200  1
  H  H162  1  0.958600  0.058300  0.462800  1
  H  H163  1  0.093200  0.955800  0.474000  1
  H  H164  1  0.906800  0.044200  0.526000  1
  H  H165  1  0.079300  0.989000  0.505100  1
  H  H166  1  0.920700  0.011000  0.494900  1
  H  H167  1  0.147500  0.989100  0.521100  1
  H  H168  1  0.852500  0.010900  0.478900  1
  H  H169  1  0.162900  0.967100  0.483100  1
  H  H170  1  0.837100  0.032900  0.516900  1
  H  H171  1  0.187600  0.543800  0.959100  1
  H  H172  1  0.812400  0.456200  0.040900  1
  H  H173  1  0.143600  0.513800  0.968700  1
  H  H174  1  0.856400  0.486200  0.031300  1
  H  H175  1  0.153300  0.458300  0.878400  1
  H  H176  1  0.846700  0.541700  0.121600  1
  H  H177  1  0.205600  0.476600  0.875400  1
  H  H178  1  0.794400  0.523400  0.124600  1
  H  H179  1  0.209800  0.427600  0.922300  1
  H  H180  1  0.790200  0.572400  0.077700  1
  H  H181  1  0.153200  0.438300  0.938200  1
  H  H182  1  0.846800  0.561700  0.061800  1
  H  H183  1  0.207700  0.468500  0.976100  1
  H  H184  1  0.792300  0.531500  0.023900  1
  H  H185  1  0.239500  0.492200  0.940300  1
  H  H186  1  0.760500  0.507800  0.059700  1
  H  H187  1  0.000000  0.556500  0.575300  1
  H  H188  1  0.000000  0.443500  0.424700  1
  H  H189  1  0.014800  0.576500  0.536700  1
  H  H190  1  0.985200  0.423500  0.463300  1
  H  H191  1  0.156400  0.571700  0.546100  1
  H  H192  1  0.843600  0.428300  0.453900  1
  H  H193  1  0.140200  0.538900  0.577500  1
  H  H194  1  0.859800  0.461100  0.422500  1
  H  H195  1  0.032100  0.506800  0.529300  1
  H  H196  1  0.967900  0.493200  0.470700  1
  H  H197  1  0.052600  0.500300  0.570600  1
  H  H198  1  0.947400  0.499700  0.429400  1
  H  H199  1  0.123500  0.503800  0.527600  1
  H  H200  1  0.876500  0.496200  0.472400  1
  H  H201  1  0.103400  0.547700  0.506500  1
  H  H202  1  0.896600  0.452300  0.493500  1
  H  H203  1  0.167000  0.060700  0.747200  1
  H  H204  1  0.833000  0.939300  0.252800  1
  H  H205  1  0.158000  0.060400  0.706500  1
  H  H206  1  0.842000  0.939600  0.293500  1
  H  H207  1  0.020300  0.058900  0.709700  1
  H  H208  1  0.979700  0.941100  0.290300  1
  H  H209  1  0.022200  0.076900  0.747100  1
  H  H210  1  0.977800  0.923100  0.252900  1
  H  H211  1  0.144100  0.129800  0.719000  1
  H  H212  1  0.855900  0.870200  0.281000  1
  H  H213  1  0.110500  0.114200  0.757000  1
  H  H214  1  0.889500  0.885800  0.243000  1
  H  H215  1  0.054800  0.132800  0.709300  1
  H  H216  1  0.945200  0.867200  0.290700  1
  H  H217  1  0.084000  0.100400  0.682100  1
  H  H218  1  0.916000  0.899600  0.317900  1
  H  H219  1  0.089500  0.617100  0.035000  1
  H  H220  1  0.910500  0.382900  0.965000  1
  H  H221  1  0.077600  0.664100  0.036900  1
  H  H222  1  0.922400  0.335900  0.963100  1
  H  H223  1  0.934400  0.645800  0.037000  1
  H  H224  1  0.065600  0.354200  0.963000  1
  H  H225  1  0.952200  0.601400  0.049100  1
  H  H226  1  0.047800  0.398600  0.950900  1
  H  H227  1  0.055400  0.639900  0.096000  1
  H  H228  1  0.944600  0.360100  0.904000  1
  H  H229  1  0.034300  0.595300  0.082800  1
  H  H230  1  0.965700  0.404700  0.917200  1
  H  H231  1  0.963600  0.638500  0.098600  1
  H  H232  1  0.036400  0.361500  0.901400  1
  H  H233  1  0.986800  0.678800  0.071600  1
  H  H234  1  0.013200  0.321200  0.928400  1
  H  H235  1  0.215400  0.977000  0.927700  1
  H  H236  1  0.784600  0.023000  0.072300  1
  H  H237  1  0.246700  0.937100  0.925100  1
  H  H238  1  0.753300  0.062900  0.074900  1
  H  H239  1  0.288900  0.988600  0.831200  1
  H  H240  1  0.711100  0.011400  0.168800  1
  H  H241  1  0.246300  0.019700  0.826500  1
  H  H242  1  0.753700  0.980300  0.173500  1
  H  H243  1  0.307800  0.040500  0.868300  1
  H  H244  1  0.692200  0.959500  0.131700  1
  H  H245  1  0.249600  0.043700  0.883900  1
  H  H246  1  0.750400  0.956300  0.116100  1
  H  H247  1  0.315000  0.972200  0.899500  1
  H  H248  1  0.685000  0.027800  0.100500  1
  H  H249  1  0.292000  0.004300  0.929700  1
  H  H250  1  0.708000  0.995700  0.070300  1
  H  H251  1  0.446900  0.619600  0.900000  1
  H  H252  1  0.553100  0.380400  0.100000  1
  H  H253  1  0.400800  0.591600  0.906300  1
  H  H254  1  0.599200  0.408400  0.093700  1
  H  H255  1  0.393100  0.563600  0.806900  1
  H  H256  1  0.606900  0.436400  0.193100  1
  H  H257  1  0.447400  0.576600  0.803600  1
  H  H258  1  0.552600  0.423400  0.196400  1
  H  H259  1  0.462800  0.542100  0.901800  1
  H  H260  1  0.537200  0.457900  0.098200  1
  H  H261  1  0.491800  0.571200  0.867600  1
  H  H262  1  0.508200  0.428800  0.132400  1
  H  H263  1  0.450500  0.514600  0.840900  1
  H  H264  1  0.549500  0.485400  0.159100  1
  H  H265  1  0.397600  0.525700  0.863200  1
  H  H266  1  0.602400  0.474300  0.136800  1
  H  H267  1  0.478900  0.771300  0.644100  1
  H  H268  1  0.521100  0.228700  0.355900  1
  H  H269  1  0.521100  0.752200  0.665400  1
  H  H270  1  0.478900  0.247800  0.334600  1
  H  H271  1  0.476300  0.643300  0.693800  1
  H  H272  1  0.523700  0.356700  0.306200  1
  H  H273  1  0.440800  0.648700  0.663300  1
  H  H274  1  0.559200  0.351300  0.336700  1
  H  H275  1  0.531300  0.723300  0.609100  1
  H  H276  1  0.468700  0.276700  0.390900  1
  H  H277  1  0.471900  0.712600  0.610800  1
  H  H278  1  0.528100  0.287400  0.389200  1
  H  H279  1  0.542300  0.671900  0.658600  1
  H  H280  1  0.457700  0.328100  0.341400  1
  H  H281  1  0.513200  0.648700  0.627800  1
  H  H282  1  0.486800  0.351300  0.372200  1
  H  H283  1  0.297200  0.676500  0.544600  1
  H  H284  1  0.702800  0.323500  0.455400  1
  H  H285  1  0.248600  0.665700  0.528600  1
  H  H286  1  0.751400  0.334300  0.471400  1
  H  H287  1  0.255400  0.791400  0.509700  1
  H  H288  1  0.744600  0.208600  0.490300  1
  H  H289  1  0.293900  0.793900  0.537900  1
  H  H290  1  0.706100  0.206100  0.462100  1
  H  H291  1  0.344200  0.746300  0.513400  1
  H  H292  1  0.655800  0.253700  0.486600  1
  H  H293  1  0.320000  0.767800  0.476500  1
  H  H294  1  0.680000  0.232200  0.523500  1
  H  H295  1  0.314300  0.690700  0.482600  1
  H  H296  1  0.685700  0.309300  0.517400  1
  H  H297  1  0.260600  0.714100  0.479100  1
  H  H298  1  0.739400  0.285900  0.520900  1
  H  H299  1  0.837500  0.967400  0.891400  1
  H  H300  1  0.162500  0.032600  0.108600  1
  H  H301  1  0.880700  0.983700  0.910700  1
  H  H302  1  0.119300  0.016300  0.089300  1
  H  H303  1  0.913900  0.046800  0.815500  1
  H  H304  1  0.086100  0.953200  0.184500  1
  H  H305  1  0.874200  0.022400  0.798300  1
  H  H306  1  0.125800  0.977600  0.201700  1
  H  H307  1  0.810300  0.030500  0.893000  1
  H  H308  1  0.189700  0.969500  0.107000  1
  H  H309  1  0.865700  0.049000  0.897300  1
  H  H310  1  0.134300  0.951000  0.102700  1
  H  H311  1  0.854900  0.076800  0.844700  1
  H  H312  1  0.145100  0.923200  0.155300  1
  H  H313  1  0.816200  0.040300  0.835800  1
  H  H314  1  0.183800  0.959700  0.164200  1
  H  H315  1  0.878000  0.511100  0.945800  1
  H  H316  1  0.122000  0.488900  0.054200  1
  H  H317  1  0.838100  0.543100  0.935200  1
  H  H318  1  0.161900  0.456900  0.064800  1
  H  H319  1  0.880000  0.504900  0.835400  1
  H  H320  1  0.120000  0.495100  0.164600  1
  H  H321  1  0.926600  0.484500  0.849800  1
  H  H322  1  0.073400  0.515500  0.150200  1
  H  H323  1  0.845000  0.450000  0.866100  1
  H  H324  1  0.155000  0.550000  0.133900  1
  H  H325  1  0.888100  0.447100  0.895200  1
  H  H326  1  0.111900  0.552900  0.104800  1
  H  H327  1  0.819400  0.465600  0.928100  1
  H  H328  1  0.180600  0.534400  0.071900  1
  H  H329  1  0.803600  0.500600  0.895600  1
  H  H330  1  0.196400  0.499400  0.104400  1
  H  H331  1  0.906400  0.814300  0.516700  1
  H  H332  1  0.093600  0.185700  0.483300  1
  H  H333  1  0.958400  0.815800  0.497400  1
  H  H334  1  0.041600  0.184200  0.502600  1
  H  H335  1  0.946400  0.695100  0.502100  1
  H  H336  1  0.053600  0.304900  0.497900  1
  H  H337  1  0.902700  0.690800  0.531100  1
  H  H338  1  0.097300  0.309200  0.468900  1
  H  H339  1  0.889900  0.794400  0.461700  1
  H  H340  1  0.110100  0.205600  0.538300  1
  H  H341  1  0.942500  0.769000  0.457500  1
  H  H342  1  0.057500  0.231000  0.542500  1
  H  H343  1  0.882800  0.719400  0.466700  1
  H  H344  1  0.117200  0.280600  0.533300  1
  H  H345  1  0.855800  0.742700  0.501400  1
  H  H346  1  0.144200  0.257300  0.498600  1
  H  H347  1  0.641200  0.814300  0.635600  1
  H  H348  1  0.358800  0.185700  0.364400  1
  H  H349  1  0.691600  0.825500  0.615700  1
  H  H350  1  0.308400  0.174500  0.384300  1
  H  H351  1  0.701800  0.699900  0.637300  1
  H  H352  1  0.298200  0.300100  0.362700  1
  H  H353  1  0.658500  0.699800  0.666400  1
  H  H354  1  0.341500  0.300200  0.333600  1
  H  H355  1  0.638400  0.782400  0.580400  1
  H  H356  1  0.361600  0.217600  0.419600  1
  H  H357  1  0.694900  0.764600  0.583800  1
  H  H358  1  0.305100  0.235400  0.416200  1
  H  H359  1  0.607900  0.734500  0.629800  1
  H  H360  1  0.392100  0.265500  0.370200  1
  H  H361  1  0.640700  0.706800  0.600600  1
  H  H362  1  0.359300  0.293200  0.399400  1
  H  H363  1  0.088300  0.857400  0.010500  1
  H  H364  1  0.911700  0.142600  0.989500  1
  H  H365  1  0.104500  0.902800  0.998500  1
  H  H366  1  0.895500  0.097200  0.001500  1
  H  H367  1  0.964200  0.923100  0.994800  1
  H  H368  1  0.035800  0.076900  0.005200  1
  H  H369  1  0.949800  0.876300  0.996000  1
  H  H370  1  0.050200  0.123700  0.004000  1
  H  H371  1  0.050500  0.932300  0.037300  1
  H  H372  1  0.949500  0.067700  0.962700  1
  H  H373  1  0.061000  0.887400  0.061000  1
  H  H374  1  0.939000  0.112600  0.939000  1
  H  H375  1  0.989200  0.857000  0.045700  1
  H  H376  1  0.010800  0.143000  0.954300  1
  H  H377  1  0.972600  0.905400  0.054100  1
  H  H378  1  0.027400  0.094600  0.945900  1
  H  H379  1  0.632500  0.619500  0.775200  1
  H  H380  1  0.367500  0.380500  0.224800  1
  H  H381  1  0.684100  0.600400  0.777000  1
  H  H382  1  0.315900  0.399600  0.223000  1
  H  H383  1  0.657500  0.634700  0.877800  1
  H  H384  1  0.342500  0.365300  0.122200  1
  H  H385  1  0.615700  0.663900  0.866100  1
  H  H386  1  0.384300  0.336100  0.133900  1
  H  H387  1  0.617600  0.558400  0.812600  1
  H  H388  1  0.382400  0.441600  0.187400  1
  H  H389  1  0.667200  0.566500  0.834400  1
  H  H390  1  0.332800  0.433500  0.165600  1
  H  H391  1  0.599800  0.585600  0.872000  1
  H  H392  1  0.400200  0.414400  0.128000  1
  H  H393  1  0.577000  0.614500  0.838000  1
  H  H394  1  0.423000  0.385500  0.162000  1
  H  H395  1  0.546300  0.598200  0.178600  1
  H  H396  1  0.453700  0.401800  0.821400  1
  H  H397  1  0.657200  0.678500  0.133800  1
  H  H398  1  0.342800  0.321500  0.866200  1
  H  H399  1  0.675600  0.606600  0.230300  1
  H  H400  1  0.324400  0.393400  0.769700  1
  H  H401  1  0.629100  0.581100  0.280800  1
  H  H402  1  0.370900  0.418900  0.719200  1
  H  H403  1  0.538500  0.482700  0.315000  1
  H  H404  1  0.461500  0.517300  0.685000  1
  H  H405  1  0.508100  0.482700  0.256600  1
  H  H406  1  0.491900  0.517300  0.743400  1
  H  H407  1  0.536100  0.537300  0.209100  1
  H  H408  1  0.463900  0.462700  0.790900  1
  H  H409  1  0.604500  0.706300  0.098300  1
  H  H410  1  0.395500  0.293700  0.901700  1
  H  H411  1  0.493500  0.677700  0.036600  1
  H  H412  1  0.506500  0.322300  0.963400  1
  H  H413  1  0.517600  0.601800  0.127400  1
  H  H414  1  0.482400  0.398200  0.872600  1
  H  H415  1  0.730600  0.702200  0.135900  1
  H  H416  1  0.269400  0.297800  0.864100  1
  H  H417  1  0.845000  0.721800  0.196000  1
  H  H418  1  0.155000  0.278200  0.804000  1
  H  H419  1  0.738200  0.639900  0.237900  1
  H  H420  1  0.261800  0.360100  0.762100  1
  H  H421  1  0.245700  0.595300  0.281800  1
  H  H422  1  0.754300  0.404700  0.718200  1
  H  H423  1  0.243700  0.670200  0.185100  1
  H  H424  1  0.756300  0.329800  0.814900  1
  H  H425  1  0.363900  0.593100  0.203700  1
  H  H426  1  0.636100  0.406900  0.796300  1
  H  H427  1  0.304600  0.573100  0.320600  1
  H  H428  1  0.695400  0.426900  0.679400  1
  H  H429  1  0.388800  0.468400  0.332800  1
  H  H430  1  0.611200  0.531600  0.667200  1
  H  H431  1  0.407700  0.469100  0.269800  1
  H  H432  1  0.592300  0.530900  0.730200  1
  H  H433  1  0.373500  0.524900  0.229300  1
  H  H434  1  0.626500  0.475100  0.770700  1
  H  H435  1  0.182300  0.620900  0.301000  1
  H  H436  1  0.817700  0.379100  0.699000  1
  H  H437  1  0.068800  0.701100  0.286300  1
  H  H438  1  0.931200  0.298900  0.713700  1
  H  H439  1  0.174200  0.694900  0.204100  1
  H  H440  1  0.825800  0.305100  0.795900  1
  H  H441  1  0.379600  0.598000  0.146600  1
  H  H442  1  0.620400  0.402000  0.853400  1
  H  H443  1  0.382200  0.674300  0.054000  1
  H  H444  1  0.617800  0.325700  0.946000  1
  H  H445  1  0.282200  0.697600  0.136400  1
  H  H446  1  0.717800  0.302400  0.863600  1
  H  H447  1  0.252500  0.660700  0.403500  1
  H  H448  1  0.747500  0.339300  0.596500  1
  H  H449  1  0.383900  0.726900  0.397700  1
  H  H450  1  0.616100  0.273100  0.602300  1
  H  H451  1  0.249400  0.791900  0.392700  1
  H  H452  1  0.750600  0.208100  0.607300  1
  H  H453  1  0.185900  0.670100  0.366700  1
  H  H454  1  0.814100  0.329900  0.633300  1
  H  H455  1  0.048700  0.718900  0.383700  1
  H  H456  1  0.951300  0.281100  0.616300  1
  H  H457  1  0.080400  0.776600  0.414400  1
  H  H458  1  0.919600  0.223400  0.585600  1
  H  H459  1  0.168600  0.779700  0.422100  1
  H  H460  1  0.831400  0.220300  0.577900  1
  H  H461  1  0.300700  0.609400  0.380900  1
  H  H462  1  0.699300  0.390600  0.619100  1
  H  H463  1  0.412200  0.541300  0.422900  1
  H  H464  1  0.587800  0.458700  0.577100  1
  H  H465  1  0.408700  0.665700  0.435000  1
  H  H466  1  0.591300  0.334300  0.565000  1
  H  H467  1  0.298800  0.842700  0.361400  1
  H  H468  1  0.701200  0.157300  0.638600  1
  H  H469  1  0.398900  0.916300  0.403300  1
  H  H470  1  0.601100  0.083700  0.596700  1
  H  H471  1  0.405400  0.790400  0.424800  1
  H  H472  1  0.594600  0.209600  0.575200  1
  H  H473  1  0.237700  0.886700  0.253100  1
  H  H474  1  0.762300  0.113300  0.746900  1
  H  H475  1  0.357900  0.883100  0.177800  1
  H  H476  1  0.642100  0.116900  0.822200  1
  H  H477  1  0.224900  0.829000  0.156600  1
  H  H478  1  0.775100  0.171000  0.843400  1
  H  H479  1  0.166500  0.788200  0.195900  1
  H  H480  1  0.833500  0.211800  0.804100  1
  H  H481  1  0.038900  0.812600  0.252900  1
  H  H482  1  0.961100  0.187400  0.747100  1
  H  H483  1  0.070500  0.877900  0.270400  1
  H  H484  1  0.929500  0.122100  0.729600  1
  H  H485  1  0.153600  0.899100  0.248200  1
  H  H486  1  0.846400  0.100900  0.751800  1
  H  H487  1  0.381100  0.943900  0.203100  1
  H  H488  1  0.618900  0.056100  0.796900  1
  H  H489  1  0.395000  0.984800  0.303700  1
  H  H490  1  0.605000  0.015200  0.696300  1
  H  H491  1  0.294800  0.893100  0.293000  1
  H  H492  1  0.705200  0.106900  0.707000  1
  H  H493  1  0.368000  0.888100  0.113200  1
  H  H494  1  0.632000  0.111900  0.886800  1
  H  H495  1  0.372500  0.802300  0.037400  1
  H  H496  1  0.627500  0.197700  0.962600  1
  H  H497  1  0.276100  0.784300  0.125400  1
  H  H498  1  0.723900  0.215700  0.874600  1
  H  H499  1  0.656600  0.891900  0.211800  1
  H  H500  1  0.343400  0.108100  0.788200  1
  H  H501  1  0.522900  0.883400  0.163700  1
  H  H502  1  0.477100  0.116600  0.836300  1
  H  H503  1  0.649600  0.832700  0.114800  1
  H  H504  1  0.350400  0.167300  0.885200  1
  H  H505  1  0.719400  0.797100  0.136800  1
  H  H506  1  0.280600  0.202900  0.863200  1
  H  H507  1  0.855700  0.834000  0.161400  1
  H  H508  1  0.144300  0.166000  0.838600  1
  H  H509  1  0.821300  0.894900  0.189000  1
  H  H510  1  0.178700  0.105100  0.811000  1
  H  H511  1  0.732700  0.906200  0.191100  1
  H  H512  1  0.267300  0.093800  0.808900  1
  H  H513  1  0.611600  0.901700  0.261800  1
  H  H514  1  0.388400  0.098300  0.738200  1
  H  H515  1  0.510300  0.988100  0.293600  1
  H  H516  1  0.489700  0.011900  0.706400  1
  H  H517  1  0.508800  0.946700  0.190900  1
  H  H518  1  0.491200  0.053300  0.809100  1
  H  H519  1  0.596400  0.788500  0.092800  1
  H  H520  1  0.403600  0.211500  0.907200  1
  H  H521  1  0.487600  0.806100  0.025800  1
  H  H522  1  0.512400  0.193900  0.974200  1
  H  H523  1  0.498600  0.887900  0.103600  1
  H  H524  1  0.501400  0.112100  0.896400  1
  H  H525  1  0.671300  0.806800  0.345300  1
  H  H526  1  0.328700  0.193200  0.654700  1
  H  H527  1  0.547600  0.735500  0.382700  1
  H  H528  1  0.452400  0.264500  0.617300  1
  H  H529  1  0.679200  0.674900  0.352200  1
  H  H530  1  0.320800  0.325100  0.647800  1
  H  H531  1  0.735300  0.689200  0.303100  1
  H  H532  1  0.264700  0.310800  0.696900  1
  H  H533  1  0.871200  0.742700  0.294400  1
  H  H534  1  0.128800  0.257300  0.705600  1
  H  H535  1  0.840400  0.800600  0.328200  1
  H  H536  1  0.159600  0.199400  0.671800  1
  H  H537  1  0.757200  0.800100  0.354300  1
  H  H538  1  0.242800  0.199900  0.645700  1
  H  H539  1  0.532400  0.796600  0.415900  1
  H  H540  1  0.467600  0.203400  0.584100  1
  H  H541  1  0.519100  0.921700  0.391200  1
  H  H542  1  0.480900  0.078300  0.608800  1
  H  H543  1  0.618200  0.855800  0.330700  1
  H  H544  1  0.381800  0.144200  0.669300  1
  H  H545  1  0.627500  0.621900  0.342600  1
  H  H546  1  0.372500  0.378100  0.657400  1
  H  H547  1  0.532200  0.548800  0.407600  1
  H  H548  1  0.467800  0.451200  0.592400  1
  H  H549  1  0.533600  0.673500  0.420600  1
  H  H550  1  0.466400  0.326500  0.579400  1
  H  H551  1  0.638300  0.449000  0.337600  1
  H  H552  1  0.361700  0.551000  0.662400  1
  H  H553  1  0.672800  0.478400  0.312400  1
  H  H554  1  0.327200  0.521600  0.687600  1
  H  H555  1  0.678600  0.534600  0.401900  1
  H  H556  1  0.321400  0.465400  0.598100  1
  H  H557  1  0.631200  0.515300  0.421200  1
  H  H558  1  0.368800  0.484700  0.578800  1
  H  H559  1  0.714200  0.435100  0.360700  1
  H  H560  1  0.285800  0.564900  0.639300  1
  H  H561  1  0.728100  0.486000  0.356500  1
  H  H562  1  0.271900  0.514000  0.643500  1
  H  H563  1  0.705000  0.466700  0.419700  1
  H  H564  1  0.295000  0.533300  0.580300  1
  H  H565  1  0.652700  0.446100  0.409100  1
  H  H566  1  0.347300  0.553900  0.590900  1
  H  H567  1  0.072900  0.616700  0.418800  1
  H  H568  1  0.927100  0.383300  0.581200  1
  H  H569  1  0.024000  0.633900  0.405800  1
  H  H570  1  0.976000  0.366100  0.594200  1
  H  H571  1  0.043500  0.592500  0.308000  1
  H  H572  1  0.956500  0.407500  0.692000  1
  H  H573  1  0.081000  0.564500  0.327500  1
  H  H574  1  0.919000  0.435500  0.672500  1
  H  H575  1  0.004200  0.564600  0.416700  1
  H  H576  1  0.995800  0.435400  0.583300  1
  H  H577  1  0.060400  0.550300  0.402700  1
  H  H578  1  0.939600  0.449700  0.597300  1
  H  H579  1  0.009200  0.537100  0.354200  1
  H  H580  1  0.990800  0.462900  0.645800  1
  H  H581  1  0.984600  0.584600  0.355000  1
  H  H582  1  0.015400  0.415400  0.645000  1
  H  H583  1  0.579600  0.809200  0.977700  1
  H  H584  1  0.420400  0.190800  0.022300  1
  H  H585  1  0.629400  0.805600  0.994700  1
  H  H586  1  0.370600  0.194400  0.005300  1
  H  H587  1  0.623600  0.681300  0.004800  1
  H  H588  1  0.376400  0.318700  0.995200  1
  H  H589  1  0.584000  0.690200  0.977700  1
  H  H590  1  0.416000  0.309800  0.022300  1
  H  H591  1  0.598600  0.763000  0.935300  1
  H  H592  1  0.401400  0.237000  0.064700  1
  H  H593  1  0.652900  0.784500  0.938600  1
  H  H594  1  0.347100  0.215500  0.061400  1
  H  H595  1  0.676000  0.730000  0.977500  1
  H  H596  1  0.324000  0.270000  0.022500  1
  H  H597  1  0.652600  0.708900  0.943000  1
  H  H598  1  0.347400  0.291100  0.057000  1
  H  H599  1  0.383500  0.887000  0.485600  1
  H  H600  1  0.616500  0.113000  0.514400  1
  H  H601  1  0.403900  0.847500  0.506100  1
  H  H602  1  0.596100  0.152500  0.493900  1
  H  H603  1  0.541500  0.864100  0.486000  1
  H  H604  1  0.458500  0.135900  0.514000  1
  H  H605  1  0.529300  0.910900  0.477300  1
  H  H606  1  0.470700  0.089100  0.522700  1
  H  H607  1  0.487000  0.855700  0.536200  1
  H  H608  1  0.513000  0.144300  0.463800  1
  H  H609  1  0.508100  0.904000  0.538800  1
  H  H610  1  0.491900  0.096000  0.461200  1
  H  H611  1  0.439000  0.933300  0.509300  1
  H  H612  1  0.561000  0.066700  0.490700  1
  H  H613  1  0.418500  0.901500  0.545000  1
  H  H614  1  0.581500  0.098500  0.455000  1
  H  H615  1  0.004700  0.791700  0.190200  1
  H  H616  1  0.995300  0.208300  0.809800  1
  H  H617  1  0.035400  0.781600  0.155200  1
  H  H618  1  0.964600  0.218400  0.844800  1
  H  H619  1  0.067700  0.667800  0.181700  1
  H  H620  1  0.932300  0.332200  0.818300  1
  H  H621  1  0.024900  0.669100  0.211200  1
  H  H622  1  0.975100  0.330900  0.788800  1
  H  H623  1  0.959400  0.729400  0.194100  1
  H  H624  1  0.040600  0.270600  0.805900  1
  H  H625  1  0.962200  0.745200  0.150100  1
  H  H626  1  0.037800  0.254800  0.849900  1
  H  H627  1  0.027500  0.701500  0.138000  1
  H  H628  1  0.972500  0.298500  0.862000  1
  H  H629  1  0.983400  0.673200  0.161500  1
  H  H630  1  0.016600  0.326800  0.838500  1
  H  H631  1  0.233300  0.790000  0.035500  1
  H  H632  1  0.766700  0.210000  0.964500  1
  H  H633  1  0.276300  0.791000  0.006000  1
  H  H634  1  0.723700  0.209000  0.994000  1
  H  H635  1  0.295000  0.667400  0.022500  1
  H  H636  1  0.705000  0.332600  0.977500  1
  H  H637  1  0.245300  0.669900  0.044800  1
  H  H638  1  0.754700  0.330100  0.955200  1
  H  H639  1  0.191600  0.740700  0.011500  1
  H  H640  1  0.808400  0.259300  0.988500  1
  H  H641  1  0.224200  0.758500  0.974000  1
  H  H642  1  0.775800  0.241500  0.026000  1
  H  H643  1  0.273500  0.707300  0.975800  1
  H  H644  1  0.726500  0.292700  0.024200  1
  H  H645  1  0.220600  0.685200  0.990200  1
  H  H646  1  0.779400  0.314800  0.009800  1
  H  H647  1  0.890300  0.659300  0.319100  1
  H  H648  1  0.109700  0.340700  0.680900  1
  H  H649  1  0.846000  0.630900  0.332300  1
  H  H650  1  0.154000  0.369100  0.667700  1
  H  H651  1  0.835500  0.592500  0.233600  1
  H  H652  1  0.164500  0.407500  0.766400  1
  H  H653  1  0.885000  0.615100  0.224100  1
  H  H654  1  0.115000  0.384900  0.775900  1
  H  H655  1  0.934000  0.609100  0.297400  1
  H  H656  1  0.066000  0.390900  0.702600  1
  H  H657  1  0.896400  0.579000  0.324900  1
  H  H658  1  0.103600  0.421000  0.675100  1
  H  H659  1  0.859600  0.555600  0.281500  1
  H  H660  1  0.140400  0.444400  0.718500  1
  H  H661  1  0.914300  0.565000  0.260400  1
  H  H662  1  0.085700  0.435000  0.739600  1
  H  H663  1  0.416000  0.616600  0.516700  1
  H  H664  1  0.584000  0.383400  0.483300  1
  H  H665  1  0.409500  0.570100  0.509600  1
  H  H666  1  0.590500  0.429900  0.490400  1
  H  H667  1  0.550600  0.574500  0.497600  1
  H  H668  1  0.449400  0.425500  0.502400  1
  H  H669  1  0.555800  0.622600  0.490400  1
  H  H670  1  0.444200  0.377400  0.509600  1
  H  H671  1  0.503500  0.636800  0.540300  1
  H  H672  1  0.496500  0.363200  0.459700  1
  H  H673  1  0.536600  0.596500  0.555800  1
  H  H674  1  0.463400  0.403500  0.444200  1
  H  H675  1  0.472600  0.546800  0.544500  1
  H  H676  1  0.527400  0.453200  0.455500  1
  H  H677  1  0.445700  0.583600  0.568400  1
  H  H678  1  0.554300  0.416400  0.431600  1
  H  H679  1  0.873300  0.695100  0.107700  1
  H  H680  1  0.126700  0.304900  0.892300  1
  H  H681  1  0.838800  0.703600  0.076800  1
  H  H682  1  0.161200  0.296400  0.923200  1
  H  H683  1  0.836300  0.824500  0.073600  1
  H  H684  1  0.163700  0.175500  0.926400  1
  H  H685  1  0.884100  0.818600  0.092900  1
  H  H686  1  0.115900  0.181400  0.907100  1
  H  H687  1  0.915000  0.720900  0.047500  1
  H  H688  1  0.085000  0.279100  0.952500  1
  H  H689  1  0.930700  0.745100  0.083200  1
  H  H690  1  0.069300  0.254900  0.916800  1
  H  H691  1  0.907600  0.797900  0.036900  1
  H  H692  1  0.092400  0.202100  0.963100  1
  H  H693  1  0.854200  0.774100  0.034700  1
  H  H694  1  0.145800  0.225900  0.965300  1
  H  H695  1  0.497300  0.563800  0.023000  1
  H  H696  1  0.502700  0.436200  0.977000  1
  H  H697  1  0.518900  0.551600  0.059800  1
  H  H698  1  0.481100  0.448400  0.940200  1
  H  H699  1  0.378400  0.536600  0.089000  1
  H  H700  1  0.621600  0.463400  0.911000  1
  H  H701  1  0.361000  0.564000  0.056200  1
  H  H702  1  0.639000  0.436000  0.943800  1
  H  H703  1  0.466800  0.496400  0.074600  1
  H  H704  1  0.533200  0.503600  0.925400  1
  H  H705  1  0.482500  0.493500  0.030500  1
  H  H706  1  0.517500  0.506500  0.969500  1
  H  H707  1  0.408600  0.530800  0.014000  1
  H  H708  1  0.591400  0.469200  0.986000  1
  H  H709  1  0.391000  0.491600  0.044400  1
  H  H710  1  0.609000  0.508400  0.955600  1
  H  H711  1  0.313100  0.509200  0.458500  1
  H  H712  1  0.686900  0.490800  0.541500  1
  H  H713  1  0.264600  0.527700  0.445900  1
  H  H714  1  0.735400  0.472300  0.554100  1
  H  H715  1  0.268900  0.458700  0.359300  1
  H  H716  1  0.731100  0.541300  0.640700  1
  H  H717  1  0.304700  0.434500  0.383700  1
  H  H718  1  0.695300  0.565500  0.616300  1
  H  H719  1  0.236200  0.462700  0.470200  1
  H  H720  1  0.763800  0.537300  0.529800  1
  H  H721  1  0.288700  0.440000  0.457400  1
  H  H722  1  0.711300  0.560000  0.542600  1
  H  H723  1  0.229300  0.421600  0.415100  1
  H  H724  1  0.770700  0.578400  0.584900  1
  H  H725  1  0.213600  0.471600  0.407500  1
  H  H726  1  0.786400  0.528400  0.592500  1
  H  H727  1  0.306100  0.021200  0.343400  1
  H  H728  1  0.693900  0.978800  0.656600  1
  H  H729  1  0.271400  0.998900  0.320100  1
  H  H730  1  0.728600  0.001100  0.679900  1
  H  H731  1  0.255000  0.930400  0.415100  1
  H  H732  1  0.745000  0.069600  0.584900  1
  H  H733  1  0.303800  0.945800  0.427700  1
  H  H734  1  0.696200  0.054200  0.572300  1
  H  H735  1  0.211000  0.987800  0.367600  1
  H  H736  1  0.789000  0.012200  0.632400  1
  H  H737  1  0.229200  0.037300  0.368900  1
  H  H738  1  0.770800  0.962700  0.631100  1
  H  H739  1  0.287800  0.015800  0.413800  1
  H  H740  1  0.712200  0.984200  0.586200  1
  H  H741  1  0.233300  0.996900  0.429800  1
  H  H742  1  0.766700  0.003100  0.570200  1
  H  H743  1  0.352300  0.905500  0.006500  1
  H  H744  1  0.647700  0.094500  0.993500  1
  H  H745  1  0.361800  0.941000  0.031100  1
  H  H746  1  0.638200  0.059000  0.968900  1
  H  H747  1  0.504300  0.932700  0.021400  1
  H  H748  1  0.495700  0.067300  0.978600  1
  H  H749  1  0.493000  0.909500  0.987900  1
  H  H750  1  0.507000  0.090500  0.012100  1
  H  H751  1  0.472000  0.977100  0.970000  1
  H  H752  1  0.528000  0.022900  0.030000  1
  H  H753  1  0.447400  0.984400  0.011400  1
  H  H754  1  0.552600  0.015600  0.988600  1
  H  H755  1  0.405800  0.932200  0.958900  1
  H  H756  1  0.594200  0.067800  0.041100  1
  H  H757  1  0.380800  0.975400  0.974500  1
  H  H758  1  0.619200  0.024600  0.025500  1
  H  H759  1  0.366400  0.040300  0.201500  1
  H  H760  1  0.633600  0.959700  0.798500  1
  H  H761  1  0.378600  0.068600  0.231600  1
  H  H762  1  0.621400  0.931400  0.768400  1
  H  H763  1  0.520200  0.061200  0.217500  1
  H  H764  1  0.479800  0.938800  0.782500  1
  H  H765  1  0.507800  0.048200  0.180000  1
  H  H766  1  0.492200  0.951800  0.820000  1
  H  H767  1  0.486500  0.117200  0.176200  1
  H  H768  1  0.513500  0.882800  0.823800  1
  H  H769  1  0.463200  0.113200  0.219200  1
  H  H770  1  0.536800  0.886800  0.780800  1
  H  H771  1  0.394000  0.113200  0.180300  1
  H  H772  1  0.606000  0.886800  0.819700  1
  H  H773  1  0.419200  0.074600  0.157700  1
  H  H774  1  0.580800  0.925400  0.842300  1
  H  H775  1  0.659400  0.996200  0.286200  1
  H  H776  1  0.340600  0.003800  0.713800  1
  H  H777  1  0.615400  0.023900  0.297000  1
  H  H778  1  0.384600  0.976100  0.703000  1
  H  H779  1  0.619500  0.973800  0.392100  1
  H  H780  1  0.380500  0.026200  0.607900  1
  H  H781  1  0.649600  0.933900  0.385500  1
  H  H782  1  0.350400  0.066100  0.614500  1
  H  H783  1  0.700100  0.000100  0.382200  1
  H  H784  1  0.299900  0.999900  0.617800  1
  H  H785  1  0.711100  0.970300  0.347700  1
  H  H786  1  0.288900  0.029700  0.652300  1
  H  H787  1  0.697800  0.039400  0.321700  1
  H  H788  1  0.302200  0.960600  0.678300  1
  H  H789  1  0.647000  0.044200  0.348500  1
  H  H790  1  0.353000  0.955800  0.651500  1
  Pd  Pd791  1  0.108010  0.888770  0.553230  1
  Pd  Pd792  1  0.891990  0.111230  0.446770  1
  Pd  Pd793  1  0.147450  0.533240  0.899290  1
  Pd  Pd794  1  0.852550  0.466760  0.100710  1
  Pd  Pd795  1  0.077870  0.599380  0.578690  1
  Pd  Pd796  1  0.922130  0.400620  0.421310  1
  Pd  Pd797  1  0.087980  0.019570  0.742900  1
  Pd  Pd798  1  0.912020  0.980430  0.257100  1
  Pd  Pd799  1  0.014570  0.632780  0.998580  1
  Pd  Pd800  1  0.985430  0.367220  0.001420  1
  Pd  Pd801  1  0.211770  0.953690  0.862660  1
  Pd  Pd802  1  0.788230  0.046310  0.137340  1
  Pd  Pd803  1  0.400700  0.628610  0.842270  1
  Pd  Pd804  1  0.599300  0.371390  0.157730  1
  Pd  Pd805  1  0.441210  0.718590  0.694270  1
  Pd  Pd806  1  0.558790  0.281410  0.305730  1
  Pd  Pd807  1  0.234760  0.734350  0.560950  1
  Pd  Pd808  1  0.765240  0.265650  0.439050  1
  Pd  Pd809  1  0.912310  0.971090  0.845880  1
  Pd  Pd810  1  0.087690  0.028910  0.154120  1
  Pd  Pd811  1  0.908880  0.550760  0.884540  1
  Pd  Pd812  1  0.091120  0.449240  0.115460  1
  Pd  Pd813  1  0.955280  0.752780  0.545840  1
  Pd  Pd814  1  0.044720  0.247220  0.454160  1
  Pd  Pd815  1  0.706080  0.769470  0.668600  1
  Pd  Pd816  1  0.293920  0.230530  0.331400  1
  Pd  Pd817  1  0.034140  0.885040  0.960250  1
  Pd  Pd818  1  0.965860  0.114960  0.039750  1
  Pd  Pd819  1  0.681660  0.666100  0.813130  1
  Pd  Pd820  1  0.318340  0.333900  0.186870  1
  Pd  Pd821  1  0.618800  0.525150  0.353040  1
  Pd  Pd822  1  0.381200  0.474850  0.646960  1
  Pd  Pd823  1  0.086920  0.638370  0.350170  1
  Pd  Pd824  1  0.913080  0.361630  0.649830  1
  Pd  Pd825  1  0.574810  0.745730  0.024660  1
  Pd  Pd826  1  0.425190  0.254270  0.975340  1
  Pd  Pd827  1  0.464310  0.866910  0.449620  1
  Pd  Pd828  1  0.535690  0.133090  0.550380  1
  Pd  Pd829  1  0.071470  0.738520  0.209200  1
  Pd  Pd830  1  0.928530  0.261480  0.790800  1
  Pd  Pd831  1  0.295800  0.734650  0.056560  1
  Pd  Pd832  1  0.704200  0.265350  0.943440  1
  Pd  Pd833  1  0.833170  0.660690  0.267780  1
  Pd  Pd834  1  0.166830  0.339310  0.732220  1
  Pd  Pd835  1  0.477180  0.600820  0.463790  1
  Pd  Pd836  1  0.522820  0.399180  0.536210  1
  Pd  Pd837  1  0.823470  0.761980  0.121440  1
  Pd  Pd838  1  0.176530  0.238020  0.878560  1
  Pd  Pd839  1  0.441700  0.595450  0.072820  1
  Pd  Pd840  1  0.558300  0.404550  0.927180  1
  Pd  Pd841  1  0.319620  0.513900  0.388160  1
  Pd  Pd842  1  0.680380  0.486100  0.611840  1
  Pd  Pd843  1  0.314960  0.942390  0.358130  1
  Pd  Pd844  1  0.685040  0.057610  0.641870  1
  Pd  Pd845  1  0.429500  0.885430  0.039980  1
  Pd  Pd846  1  0.570500  0.114570  0.960020  1
  Pd  Pd847  1  0.445890  0.012090  0.227700  1
  Pd  Pd848  1  0.554110  0.987910  0.772300  1
  Pd  Pd849  1  0.600460  0.950780  0.329860  1
  Pd  Pd850  1  0.399540  0.049220  0.670140  1
  C  C851  1  0.185600  0.591800  0.752900  1
  C  C852  1  0.814400  0.408200  0.247100  1
  C  C853  1  0.233400  0.604100  0.761300  1
  C  C854  1  0.766600  0.395900  0.238700  1
  C  C855  1  0.265000  0.630200  0.735900  1
  C  C856  1  0.735000  0.369800  0.264100  1
  C  C857  1  0.249100  0.640800  0.700000  1
  C  C858  1  0.750900  0.359200  0.300000  1
  C  C859  1  0.202400  0.627900  0.689900  1
  C  C860  1  0.797600  0.372100  0.310100  1
  C  C861  1  0.169700  0.605200  0.717100  1
  C  C862  1  0.830300  0.394800  0.282900  1
  C  C863  1  0.152100  0.564000  0.779800  1
  C  C864  1  0.847900  0.436000  0.220200  1
  C  C865  1  0.157800  0.564900  0.818900  1
  C  C866  1  0.842200  0.435100  0.181100  1
  C  C867  1  0.095500  0.512800  0.832800  1
  C  C868  1  0.904500  0.487200  0.167200  1
  C  C869  1  0.086800  0.511300  0.794900  1
  C  C870  1  0.913200  0.488700  0.205100  1
  C  C871  1  0.116900  0.536200  0.768800  1
  C  C872  1  0.883100  0.463800  0.231200  1
  C  C873  1  0.313700  0.646400  0.746700  1
  C  C874  1  0.686300  0.353600  0.253300  1
  C  C875  1  0.346900  0.671300  0.722000  1
  C  C876  1  0.653100  0.328700  0.278000  1
  C  C877  1  0.404300  0.675800  0.767600  1
  C  C878  1  0.595700  0.324200  0.232400  1
  C  C879  1  0.329000  0.636700  0.782800  1
  C  C880  1  0.671000  0.363300  0.217200  1
  C  C881  1  0.185300  0.641400  0.651800  1
  C  C882  1  0.814700  0.358600  0.348200  1
  C  C883  1  0.209400  0.677000  0.629200  1
  C  C884  1  0.790600  0.323000  0.370800  1
  C  C885  1  0.158300  0.665300  0.581600  1
  C  C886  1  0.841700  0.334700  0.418400  1
  C  C887  1  0.147300  0.621100  0.636400  1
  C  C888  1  0.852700  0.378900  0.363600  1
  C  C889  1  0.931500  0.632200  0.745300  1
  C  C890  1  0.068500  0.367800  0.254700  1
  C  C891  1  0.881000  0.647100  0.750300  1
  C  C892  1  0.119000  0.352900  0.249700  1
  C  C893  1  0.855700  0.664300  0.720800  1
  C  C894  1  0.144300  0.335700  0.279200  1
  C  C895  1  0.881400  0.667900  0.684700  1
  C  C896  1  0.118600  0.332100  0.315300  1
  C  C897  1  0.931100  0.655000  0.679800  1
  C  C898  1  0.068900  0.345000  0.320200  1
  C  C899  1  0.955500  0.637300  0.710100  1
  C  C900  1  0.044500  0.362700  0.289900  1
  C  C901  1  0.958200  0.615600  0.778600  1
  C  C902  1  0.041800  0.384400  0.221400  1
  C  C903  1  0.932600  0.593100  0.809000  1
  C  C904  1  0.067400  0.406900  0.191000  1
  C  C905  1  0.003800  0.588100  0.842500  1
  C  C906  1  0.996200  0.411900  0.157500  1
  C  C907  1  0.031800  0.607900  0.813100  1
  C  C908  1  0.968200  0.392100  0.186900  1
  C  C909  1  0.010600  0.623100  0.782500  1
  C  C910  1  0.989400  0.376900  0.217500  1
  C  C911  1  0.803900  0.681000  0.727400  1
  C  C912  1  0.196100  0.319000  0.272600  1
  C  C913  1  0.773400  0.669000  0.758800  1
  C  C914  1  0.226600  0.331000  0.241200  1
  C  C915  1  0.709900  0.716800  0.740700  1
  C  C916  1  0.290100  0.283200  0.259300  1
  C  C917  1  0.784100  0.712700  0.702700  1
  C  C918  1  0.215900  0.287300  0.297300  1
  C  C919  1  0.959100  0.661500  0.642200  1
  C  C920  1  0.040900  0.338500  0.357800  1
  C  C921  1  0.996900  0.633900  0.630400  1
  C  C922  1  0.003100  0.366100  0.369600  1
  C  C923  1  0.011000  0.675500  0.574600  1
  C  C924  1  0.989000  0.324500  0.425400  1
  C  C925  1  0.948300  0.697500  0.617400  1
  C  C926  1  0.051700  0.302500  0.382600  1
  C  C927  1  0.864700  0.874900  0.689100  1
  C  C928  1  0.135300  0.125100  0.310900  1
  C  C929  1  0.888100  0.898000  0.714600  1
  C  C930  1  0.111900  0.102000  0.285400  1
  C  C931  1  0.939900  0.905400  0.711400  1
  C  C932  1  0.060100  0.094600  0.288600  1
  C  C933  1  0.968600  0.888600  0.681800  1
  C  C934  1  0.031400  0.111400  0.318200  1
  C  C935  1  0.946000  0.865800  0.655100  1
  C  C936  1  0.054000  0.134200  0.344900  1
  C  C937  1  0.894300  0.859700  0.658800  1
  C  C938  1  0.105700  0.140300  0.341200  1
  C  C939  1  0.808500  0.869400  0.693000  1
  C  C940  1  0.191500  0.130600  0.307000  1
  C  C941  1  0.787200  0.831700  0.681700  1
  C  C942  1  0.212800  0.168300  0.318300  1
  C  C943  1  0.706100  0.855900  0.697600  1
  C  C944  1  0.293900  0.144100  0.302400  1
  C  C945  1  0.725700  0.893500  0.708300  1
  C  C946  1  0.274300  0.106500  0.291700  1
  C  C947  1  0.776600  0.901100  0.706600  1
  C  C948  1  0.223400  0.098900  0.293400  1
  C  C949  1  0.964300  0.930000  0.739300  1
  C  C950  1  0.035700  0.070000  0.260700  1
  C  C951  1  0.939800  0.934100  0.773500  1
  C  C952  1  0.060200  0.065900  0.226500  1
  C  C953  1  0.001000  0.982200  0.788400  1
  C  C954  1  0.999000  0.017800  0.211600  1
  C  C955  1  0.008200  0.954500  0.731400  1
  C  C956  1  0.991800  0.045500  0.268600  1
  C  C957  1  0.975600  0.850000  0.621700  1
  C  C958  1  0.024400  0.150000  0.378300  1
  C  C959  1  0.019800  0.869200  0.606800  1
  C  C960  1  0.980200  0.130800  0.393200  1
  C  C961  1  0.027700  0.820800  0.561500  1
  C  C962  1  0.972300  0.179200  0.438500  1
  C  C963  1  0.959400  0.814400  0.605000  1
  C  C964  1  0.040600  0.185600  0.395000  1
  C  C965  1  0.814500  0.759100  0.883200  1
  C  C966  1  0.185500  0.240900  0.116800  1
  C  C967  1  0.836100  0.721200  0.897400  1
  C  C968  1  0.163900  0.278800  0.102600  1
  C  C969  1  0.885100  0.721200  0.909000  1
  C  C970  1  0.114900  0.278800  0.091000  1
  C  C971  1  0.910700  0.760000  0.908500  1
  C  C972  1  0.089300  0.240000  0.091500  1
  C  C973  1  0.889400  0.799400  0.895600  1
  C  C974  1  0.110600  0.200600  0.104400  1
  C  C975  1  0.840800  0.799000  0.883500  1
  C  C976  1  0.159200  0.201000  0.116500  1
  C  C977  1  0.761500  0.757500  0.870200  1
  C  C978  1  0.238500  0.242500  0.129800  1
  C  C979  1  0.747600  0.723000  0.851100  1
  C  C980  1  0.252400  0.277000  0.148900  1
  C  C981  1  0.666800  0.750500  0.845200  1
  C  C982  1  0.333200  0.249500  0.154800  1
  C  C983  1  0.679400  0.787800  0.862700  1
  C  C984  1  0.320600  0.212200  0.137300  1
  C  C985  1  0.727300  0.790800  0.875300  1
  C  C986  1  0.272700  0.209200  0.124700  1
  C  C987  1  0.908600  0.679200  0.920500  1
  C  C988  1  0.091400  0.320800  0.079500  1
  C  C989  1  0.941800  0.674000  0.949100  1
  C  C990  1  0.058200  0.326000  0.050900  1
  C  C991  1  0.950200  0.601800  0.941600  1
  C  C992  1  0.049800  0.398200  0.058400  1
  C  C993  1  0.899000  0.642800  0.903200  1
  C  C994  1  0.101000  0.357200  0.096800  1
  C  C995  1  0.918500  0.841300  0.895400  1
  C  C996  1  0.081500  0.158700  0.104600  1
  C  C997  1  0.957200  0.845400  0.919500  1
  C  C998  1  0.042800  0.154600  0.080500  1
  C  C999  1  0.971000  0.915100  0.896900  1
  C  C1000  1  0.029000  0.084900  0.103100  1
  C  C1001  1  0.908100  0.877600  0.872900  1
  C  C1002  1  0.091900  0.122400  0.127100  1
  C  C1003  1  0.303200  0.848900  0.706200  1
  C  C1004  1  0.696800  0.151100  0.293800  1
  C  C1005  1  0.280700  0.838100  0.674400  1
  C  C1006  1  0.719300  0.161900  0.325600  1
  C  C1007  1  0.232200  0.851100  0.667200  1
  C  C1008  1  0.767800  0.148900  0.332800  1
  C  C1009  1  0.206000  0.877100  0.691600  1
  C  C1010  1  0.794000  0.122900  0.308400  1
  C  C1011  1  0.227600  0.889600  0.723300  1
  C  C1012  1  0.772400  0.110400  0.276700  1
  C  C1013  1  0.276600  0.874900  0.731000  1
  C  C1014  1  0.723400  0.125100  0.269000  1
  C  C1015  1  0.354900  0.832600  0.715100  1
  C  C1016  1  0.645100  0.167400  0.284900  1
  C  C1017  1  0.371300  0.793200  0.704100  1
  C  C1018  1  0.628700  0.206800  0.295900  1
  C  C1019  1  0.449800  0.800400  0.729700  1
  C  C1020  1  0.550200  0.199600  0.270300  1
  C  C1021  1  0.434800  0.839300  0.741800  1
  C  C1022  1  0.565200  0.160700  0.258200  1
  C  C1023  1  0.387200  0.856500  0.733300  1
  C  C1024  1  0.612800  0.143500  0.266700  1
  C  C1025  1  0.209400  0.838100  0.633700  1
  C  C1026  1  0.790600  0.161900  0.366300  1
  C  C1027  1  0.174300  0.862700  0.615300  1
  C  C1028  1  0.825700  0.137300  0.384700  1
  C  C1029  1  0.170000  0.811500  0.571000  1
  C  C1030  1  0.830000  0.188500  0.429000  1
  C  C1031  1  0.222900  0.798400  0.619100  1
  C  C1032  1  0.777100  0.201600  0.380900  1
  C  C1033  1  0.200100  0.918300  0.749700  1
  C  C1034  1  0.799900  0.081700  0.250300  1
  C  C1035  1  0.162800  0.946800  0.737500  1
  C  C1036  1  0.837200  0.053200  0.262500  1
  C  C1037  1  0.151400  0.973400  0.796200  1
  C  C1038  1  0.848600  0.026600  0.203800  1
  C  C1039  1  0.211100  0.919700  0.787000  1
  C  C1040  1  0.788900  0.080300  0.213000  1
  C  C1041  1  0.257600  0.736000  0.896200  1
  C  C1042  1  0.742400  0.264000  0.103800  1
  C  C1043  1  0.237100  0.778100  0.896000  1
  C  C1044  1  0.762900  0.221900  0.104000  1
  C  C1045  1  0.185400  0.784700  0.902900  1
  C  C1046  1  0.814600  0.215300  0.097100  1
  C  C1047  1  0.154100  0.747500  0.909800  1
  C  C1048  1  0.845900  0.252500  0.090200  1
  C  C1049  1  0.174300  0.706500  0.910300  1
  C  C1050  1  0.825700  0.293500  0.089700  1
  C  C1051  1  0.226200  0.700300  0.903500  1
  C  C1052  1  0.773800  0.299700  0.096500  1
  C  C1053  1  0.313500  0.728900  0.890000  1
  C  C1054  1  0.686500  0.271100  0.110000  1
  C  C1055  1  0.330900  0.693700  0.871700  1
  C  C1056  1  0.669100  0.306300  0.128300  1
  C  C1057  1  0.414900  0.710500  0.879600  1
  C  C1058  1  0.585100  0.289500  0.120400  1
  C  C1059  1  0.400000  0.746300  0.897100  1
  C  C1060  1  0.600000  0.253700  0.102900  1
  C  C1061  1  0.347900  0.756200  0.902900  1
  C  C1062  1  0.652100  0.243800  0.097100  1
  C  C1063  1  0.163800  0.827800  0.903800  1
  C  C1064  1  0.836200  0.172200  0.096200  1
  C  C1065  1  0.185800  0.863700  0.885200  1
  C  C1066  1  0.814200  0.136300  0.114800  1
  C  C1067  1  0.122400  0.909000  0.906400  1
  C  C1068  1  0.877600  0.091000  0.093600  1
  C  C1069  1  0.117400  0.836600  0.924000  1
  C  C1070  1  0.882600  0.163400  0.076000  1
  C  C1071  1  0.141100  0.667700  0.920300  1
  C  C1072  1  0.858900  0.332300  0.079700  1
  C  C1073  1  0.100700  0.667900  0.946900  1
  C  C1074  1  0.899300  0.332100  0.053100  1
  C  C1075  1  0.084100  0.596000  0.940300  1
  C  C1076  1  0.915900  0.404000  0.059700  1
  C  C1077  1  0.150800  0.629200  0.904600  1
  C  C1078  1  0.849200  0.370800  0.095400  1
  C  C1079  1  0.094900  0.960500  0.500900  1
  C  C1080  1  0.905100  0.039500  0.499100  1
  C  C1081  1  0.142900  0.962800  0.507600  1
  C  C1082  1  0.857100  0.037200  0.492400  1
  C  C1083  1  0.185100  0.451300  0.926200  1
  C  C1084  1  0.814900  0.548700  0.073800  1
  C  C1085  1  0.205200  0.482500  0.950400  1
  C  C1086  1  0.794800  0.517500  0.049600  1
  C  C1087  1  0.051600  0.520600  0.547800  1
  C  C1088  1  0.948400  0.479400  0.452200  1
  C  C1089  1  0.104400  0.530900  0.531200  1
  C  C1090  1  0.895600  0.469100  0.468800  1
  C  C1091  1  0.120100  0.107400  0.730800  1
  C  C1092  1  0.879900  0.892600  0.269200  1
  C  C1093  1  0.073900  0.105300  0.708700  1
  C  C1094  1  0.926100  0.894700  0.291300  1
  C  C1095  1  0.036900  0.627100  0.076600  1
  C  C1096  1  0.963100  0.372900  0.923400  1
  C  C1097  1  0.984500  0.646800  0.075000  1
  C  C1098  1  0.015500  0.353200  0.925000  1
  C  C1099  1  0.276500  0.023600  0.875700  1
  C  C1100  1  0.723500  0.976400  0.124300  1
  C  C1101  1  0.285400  0.990300  0.906500  1
  C  C1102  1  0.714600  0.009700  0.093500  1
  C  C1103  1  0.458100  0.561700  0.879000  1
  C  C1104  1  0.541900  0.438300  0.121000  1
  C  C1105  1  0.429600  0.538300  0.851000  1
  C  C1106  1  0.570400  0.461700  0.149000  1
  C  C1107  1  0.501400  0.714200  0.626100  1
  C  C1108  1  0.498600  0.285800  0.373900  1
  C  C1109  1  0.510400  0.671400  0.645900  1
  C  C1110  1  0.489600  0.328600  0.354100  1
  C  C1111  1  0.312200  0.751100  0.501000  1
  C  C1112  1  0.687800  0.248900  0.499000  1
  C  C1113  1  0.289100  0.709400  0.495400  1
  C  C1114  1  0.710900  0.290600  0.504600  1
  C  C1115  1  0.846100  0.029600  0.883000  1
  C  C1116  1  0.153900  0.970400  0.117000  1
  C  C1117  1  0.849500  0.045000  0.845800  1
  C  C1118  1  0.150500  0.955000  0.154200  1
  C  C1119  1  0.865600  0.467300  0.881500  1
  C  C1120  1  0.134400  0.532700  0.118500  1
  C  C1121  1  0.832700  0.487700  0.908300  1
  C  C1122  1  0.167300  0.512300  0.091700  1
  C  C1123  1  0.913500  0.775200  0.475400  1
  C  C1124  1  0.086500  0.224800  0.524600  1
  C  C1125  1  0.888900  0.736500  0.488200  1
  C  C1126  1  0.111100  0.263500  0.511800  1
  C  C1127  1  0.662700  0.770500  0.598300  1
  C  C1128  1  0.337300  0.229500  0.401700  1
  C  C1129  1  0.642400  0.729700  0.618300  1
  C  C1130  1  0.357600  0.270300  0.381700  1
  C  C1131  1  0.047500  0.900400  0.037600  1
  C  C1132  1  0.952500  0.099600  0.962400  1
  C  C1133  1  0.993600  0.888000  0.036800  1
  C  C1134  1  0.006400  0.112000  0.963200  1
  C  C1135  1  0.638500  0.581000  0.822300  1
  C  C1136  1  0.361500  0.419000  0.177700  1
  C  C1137  1  0.608700  0.604700  0.848900  1
  C  C1138  1  0.391300  0.395300  0.151100  1
  C  C1139  1  0.608900  0.597900  0.210000  1
  C  C1140  1  0.391100  0.402100  0.790000  1
  C  C1141  1  0.578900  0.610500  0.179600  1
  C  C1142  1  0.421100  0.389500  0.820400  1
  C  C1143  1  0.598000  0.641300  0.151000  1
  C  C1144  1  0.402000  0.358700  0.849000  1
  C  C1145  1  0.644200  0.658000  0.153400  1
  C  C1146  1  0.355800  0.342000  0.846600  1
  C  C1147  1  0.673500  0.647000  0.182700  1
  C  C1148  1  0.326500  0.353000  0.817300  1
  C  C1149  1  0.655000  0.615700  0.210400  1
  C  C1150  1  0.345000  0.384300  0.789600  1
  C  C1151  1  0.586500  0.564000  0.239700  1
  C  C1152  1  0.413500  0.436000  0.760300  1
  C  C1153  1  0.604100  0.561000  0.275500  1
  C  C1154  1  0.395900  0.439000  0.724500  1
  C  C1155  1  0.551200  0.503300  0.295400  1
  C  C1156  1  0.448800  0.496700  0.704600  1
  C  C1157  1  0.532500  0.503600  0.261400  1
  C  C1158  1  0.467500  0.496400  0.738600  1
  C  C1159  1  0.550000  0.535600  0.232900  1
  C  C1160  1  0.450000  0.464400  0.767100  1
  C  C1161  1  0.566800  0.652100  0.118500  1
  C  C1162  1  0.433200  0.347900  0.881500  1
  C  C1163  1  0.577400  0.687600  0.093900  1
  C  C1164  1  0.422600  0.312400  0.906100  1
  C  C1165  1  0.512400  0.671000  0.057800  1
  C  C1166  1  0.487600  0.329000  0.942200  1
  C  C1167  1  0.526600  0.626700  0.110900  1
  C  C1168  1  0.473400  0.373300  0.889100  1
  C  C1169  1  0.724200  0.668800  0.186300  1
  C  C1170  1  0.275800  0.331200  0.813700  1
  C  C1171  1  0.746700  0.696900  0.158700  1
  C  C1172  1  0.253300  0.303100  0.841300  1
  C  C1173  1  0.813600  0.707900  0.193500  1
  C  C1174  1  0.186400  0.292100  0.806500  1
  C  C1175  1  0.751000  0.660200  0.218100  1
  C  C1176  1  0.249000  0.339800  0.781900  1
  C  C1177  1  0.308700  0.587800  0.246500  1
  C  C1178  1  0.691300  0.412200  0.753500  1
  C  C1179  1  0.261500  0.605300  0.257900  1
  C  C1180  1  0.738500  0.394700  0.742100  1
  C  C1181  1  0.237500  0.636000  0.236100  1
  C  C1182  1  0.762500  0.364000  0.763900  1
  C  C1183  1  0.260200  0.649500  0.201000  1
  C  C1184  1  0.739800  0.350500  0.799000  1
  C  C1185  1  0.307200  0.633200  0.188800  1
  C  C1186  1  0.692800  0.366800  0.811200  1
  C  C1187  1  0.331300  0.603300  0.211800  1
  C  C1188  1  0.668700  0.396700  0.788200  1
  C  C1189  1  0.333400  0.553500  0.270300  1
  C  C1190  1  0.666600  0.446500  0.729700  1
  C  C1191  1  0.324700  0.551300  0.309400  1
  C  C1192  1  0.675300  0.448700  0.690600  1
  C  C1193  1  0.374500  0.490200  0.316700  1
  C  C1194  1  0.625500  0.509800  0.683300  1
  C  C1195  1  0.386000  0.490500  0.279800  1
  C  C1196  1  0.614000  0.509500  0.720200  1
  C  C1197  1  0.365200  0.523600  0.255700  1
  C  C1198  1  0.634800  0.476400  0.744300  1
  C  C1199  1  0.187400  0.654900  0.250400  1
  C  C1200  1  0.812600  0.345100  0.749600  1
  C  C1201  1  0.165500  0.642000  0.285700  1
  C  C1202  1  0.834500  0.358000  0.714300  1
  C  C1203  1  0.099300  0.688500  0.276600  1
  C  C1204  1  0.900700  0.311500  0.723400  1
  C  C1205  1  0.160800  0.685500  0.228700  1
  C  C1206  1  0.839200  0.314500  0.771300  1
  C  C1207  1  0.329800  0.647700  0.149500  1
  C  C1208  1  0.670200  0.352300  0.850500  1
  C  C1209  1  0.367800  0.623200  0.133000  1
  C  C1210  1  0.632200  0.376800  0.867000  1
  C  C1211  1  0.368500  0.667100  0.079000  1
  C  C1212  1  0.631500  0.332900  0.921000  1
  C  C1213  1  0.310100  0.681400  0.126900  1
  C  C1214  1  0.689900  0.318600  0.873100  1
  C  C1215  1  0.242200  0.725400  0.396300  1
  C  C1216  1  0.757800  0.274600  0.603700  1
  C  C1217  1  0.269800  0.687800  0.400800  1
  C  C1218  1  0.730200  0.312200  0.599200  1
  C  C1219  1  0.322500  0.688000  0.401600  1
  C  C1220  1  0.677500  0.312000  0.598400  1
  C  C1221  1  0.348000  0.726900  0.398000  1
  C  C1222  1  0.652000  0.273100  0.602000  1
  C  C1223  1  0.322200  0.766200  0.394700  1
  C  C1224  1  0.677800  0.233800  0.605300  1
  C  C1225  1  0.267800  0.765500  0.394300  1
  C  C1226  1  0.732200  0.234500  0.605700  1
  C  C1227  1  0.187100  0.725700  0.394500  1
  C  C1228  1  0.812900  0.274300  0.605500  1
  C  C1229  1  0.164900  0.692000  0.376700  1
  C  C1230  1  0.835100  0.308000  0.623300  1
  C  C1231  1  0.083900  0.720600  0.386800  1
  C  C1232  1  0.916100  0.279400  0.613200  1
  C  C1233  1  0.102500  0.755100  0.405000  1
  C  C1234  1  0.897500  0.244900  0.595000  1
  C  C1235  1  0.155100  0.757100  0.409300  1
  C  C1236  1  0.844900  0.242900  0.590700  1
  C  C1237  1  0.349100  0.646800  0.407000  1
  C  C1238  1  0.650900  0.353200  0.593000  1
  C  C1239  1  0.330600  0.608500  0.394100  1
  C  C1240  1  0.669400  0.391500  0.605900  1
  C  C1241  1  0.395900  0.568500  0.418800  1
  C  C1242  1  0.604100  0.431500  0.581200  1
  C  C1243  1  0.393700  0.641000  0.426000  1
  C  C1244  1  0.606300  0.359000  0.574000  1
  C  C1245  1  0.346700  0.809200  0.394100  1
  C  C1246  1  0.653300  0.190800  0.605900  1
  C  C1247  1  0.327200  0.845500  0.375800  1
  C  C1248  1  0.672800  0.154500  0.624200  1
  C  C1249  1  0.386400  0.888300  0.399600  1
  C  C1250  1  0.613600  0.111700  0.600400  1
  C  C1251  1  0.389200  0.815000  0.413300  1
  C  C1252  1  0.610800  0.185000  0.586700  1
  C  C1253  1  0.223400  0.855400  0.207000  1
  C  C1254  1  0.776600  0.144600  0.793000  1
  C  C1255  1  0.252500  0.877900  0.229900  1
  C  C1256  1  0.747500  0.122100  0.770100  1
  C  C1257  1  0.303100  0.887700  0.219100  1
  C  C1258  1  0.696900  0.112300  0.780900  1
  C  C1259  1  0.323800  0.875500  0.185500  1
  C  C1260  1  0.676200  0.124500  0.814500  1
  C  C1261  1  0.295900  0.852300  0.162100  1
  C  C1262  1  0.704100  0.147700  0.837900  1
  C  C1263  1  0.244900  0.843300  0.172800  1
  C  C1264  1  0.755100  0.156700  0.827200  1
  C  C1265  1  0.169700  0.845200  0.219700  1
  C  C1266  1  0.830300  0.154800  0.780300  1
  C  C1267  1  0.147400  0.806900  0.211300  1
  C  C1268  1  0.852600  0.193100  0.788700  1
  C  C1269  1  0.072600  0.821000  0.244700  1
  C  C1270  1  0.927400  0.179000  0.755300  1
  C  C1271  1  0.090900  0.860100  0.254900  1
  C  C1272  1  0.909100  0.139900  0.745100  1
  C  C1273  1  0.140200  0.872300  0.241900  1
  C  C1274  1  0.859800  0.127700  0.758100  1
  C  C1275  1  0.331800  0.913900  0.244100  1
  C  C1276  1  0.668200  0.086100  0.755900  1
  C  C1277  1  0.370800  0.942700  0.229200  1
  C  C1278  1  0.629200  0.057300  0.770800  1
  C  C1279  1  0.379300  0.965900  0.288300  1
  C  C1280  1  0.620700  0.034100  0.711700  1
  C  C1281  1  0.320200  0.912600  0.281800  1
  C  C1282  1  0.679800  0.087400  0.718200  1
  C  C1283  1  0.318900  0.837900  0.126800  1
  C  C1284  1  0.681100  0.162100  0.873200  1
  C  C1285  1  0.356300  0.861800  0.104800  1
  C  C1286  1  0.643700  0.138200  0.895200  1
  C  C1287  1  0.358300  0.811800  0.060500  1
  C  C1288  1  0.641700  0.188200  0.939500  1
  C  C1289  1  0.302400  0.801100  0.111900  1
  C  C1290  1  0.697600  0.198900  0.888100  1
  C  C1291  1  0.662700  0.861100  0.162900  1
  C  C1292  1  0.337300  0.138900  0.837100  1
  C  C1293  1  0.638100  0.883300  0.191800  1
  C  C1294  1  0.361900  0.116700  0.808200  1
  C  C1295  1  0.585900  0.892900  0.191300  1
  C  C1296  1  0.414100  0.107100  0.808700  1
  C  C1297  1  0.558300  0.878400  0.163100  1
  C  C1298  1  0.441700  0.121600  0.836900  1
  C  C1299  1  0.582200  0.856400  0.133800  1
  C  C1300  1  0.417800  0.143600  0.866200  1
  C  C1301  1  0.633500  0.848000  0.134400  1
  C  C1302  1  0.366500  0.152000  0.865600  1
  C  C1303  1  0.717700  0.853700  0.163000  1
  C  C1304  1  0.282300  0.146300  0.837000  1
  C  C1305  1  0.739900  0.817500  0.147300  1
  C  C1306  1  0.260100  0.182500  0.852700  1
  C  C1307  1  0.820300  0.839000  0.162000  1
  C  C1308  1  0.179700  0.161000  0.838000  1
  C  C1309  1  0.799900  0.875200  0.178500  1
  C  C1310  1  0.200100  0.124800  0.821500  1
  C  C1311  1  0.747400  0.882200  0.179400  1
  C  C1312  1  0.252600  0.117800  0.820600  1
  C  C1313  1  0.563400  0.918600  0.221800  1
  C  C1314  1  0.436600  0.081400  0.778200  1
  C  C1315  1  0.583600  0.919600  0.256200  1
  C  C1316  1  0.416400  0.080400  0.743800  1
  C  C1317  1  0.524300  0.970600  0.274800  1
  C  C1318  1  0.475700  0.029400  0.725200  1
  C  C1319  1  0.522800  0.946000  0.214600  1
  C  C1320  1  0.477200  0.054000  0.785400  1
  C  C1321  1  0.553100  0.842700  0.103700  1
  C  C1322  1  0.446900  0.157300  0.896300  1
  C  C1323  1  0.568600  0.805300  0.084800  1
  C  C1324  1  0.431400  0.194700  0.915200  1
  C  C1325  1  0.505000  0.815600  0.046000  1
  C  C1326  1  0.495000  0.184400  0.954000  1
  C  C1327  1  0.511200  0.863500  0.091300  1
  C  C1328  1  0.488800  0.136500  0.908700  1
  C  C1329  1  0.683400  0.741800  0.346600  1
  C  C1330  1  0.316600  0.258200  0.653400  1
  C  C1331  1  0.655400  0.779400  0.351600  1
  C  C1332  1  0.344600  0.220600  0.648400  1
  C  C1333  1  0.605000  0.777900  0.365500  1
  C  C1334  1  0.395000  0.222100  0.634500  1
  C  C1335  1  0.582300  0.737100  0.373700  1
  C  C1336  1  0.417700  0.262900  0.626300  1
  C  C1337  1  0.608400  0.699700  0.369200  1
  C  C1338  1  0.391600  0.300300  0.630800  1
  C  C1339  1  0.660700  0.700900  0.355300  1
  C  C1340  1  0.339300  0.299100  0.644700  1
  C  C1341  1  0.738300  0.744500  0.331100  1
  C  C1342  1  0.261700  0.255500  0.668900  1
  C  C1343  1  0.757400  0.711400  0.309100  1
  C  C1344  1  0.242600  0.288600  0.690900  1
  C  C1345  1  0.836600  0.742800  0.303500  1
  C  C1346  1  0.163400  0.257200  0.696500  1
  C  C1347  1  0.818300  0.777400  0.324400  1
  C  C1348  1  0.181700  0.222600  0.675600  1
  C  C1349  1  0.769400  0.777800  0.339100  1
  C  C1350  1  0.230600  0.222200  0.660900  1
  C  C1351  1  0.578000  0.818800  0.372100  1
  C  C1352  1  0.422000  0.181200  0.627900  1
  C  C1353  1  0.542200  0.821800  0.400100  1
  C  C1354  1  0.457800  0.178200  0.599900  1
  C  C1355  1  0.534300  0.894800  0.385700  1
  C  C1356  1  0.465700  0.105200  0.614300  1
  C  C1357  1  0.592200  0.856900  0.350400  1
  C  C1358  1  0.407800  0.143100  0.649600  1
  C  C1359  1  0.584600  0.655200  0.379700  1
  C  C1360  1  0.415400  0.344800  0.620300  1
  C  C1361  1  0.602000  0.618400  0.362700  1
  C  C1362  1  0.398000  0.381600  0.637300  1
  C  C1363  1  0.546700  0.576600  0.400600  1
  C  C1364  1  0.453300  0.423400  0.599400  1
  C  C1365  1  0.546600  0.649300  0.408200  1
  C  C1366  1  0.453400  0.350700  0.591800  1
  C  C1367  1  0.700300  0.464700  0.362900  1
  C  C1368  1  0.299700  0.535300  0.637100  1
  C  C1369  1  0.678300  0.469000  0.401600  1
  C  C1370  1  0.321700  0.531000  0.598400  1
  C  C1371  1  0.032900  0.571300  0.397700  1
  C  C1372  1  0.967100  0.428700  0.602300  1
  C  C1373  1  0.016000  0.567900  0.358200  1
  C  C1374  1  0.984000  0.432100  0.641800  1
  C  C1375  1  0.625400  0.766900  0.952600  1
  C  C1376  1  0.374600  0.233100  0.047400  1
  C  C1377  1  0.644400  0.726000  0.964900  1
  C  C1378  1  0.355600  0.274000  0.035100  1
  C  C1379  1  0.489000  0.885400  0.523400  1
  C  C1380  1  0.511000  0.114600  0.476600  1
  C  C1381  1  0.437600  0.902800  0.520100  1
  C  C1382  1  0.562400  0.097200  0.479900  1
  C  C1383  1  0.982600  0.735100  0.171200  1
  C  C1384  1  0.017400  0.264900  0.828800  1
  C  C1385  1  0.008200  0.696900  0.162800  1
  C  C1386  1  0.991800  0.303100  0.837200  1
  C  C1387  1  0.226500  0.744300  0.999600  1
  C  C1388  1  0.773500  0.255700  0.000400  1
  C  C1389  1  0.247100  0.705200  0.996900  1
  C  C1390  1  0.752900  0.294800  0.003100  1
  C  C1391  1  0.898200  0.600200  0.302600  1
  C  C1392  1  0.101800  0.399800  0.697400  1
  C  C1393  1  0.884000  0.578900  0.272100  1
  C  C1394  1  0.116000  0.421100  0.727900  1
  C  C1395  1  0.511800  0.605900  0.537400  1
  C  C1396  1  0.488200  0.394100  0.462600  1
  C  C1397  1  0.464100  0.578100  0.544200  1
  C  C1398  1  0.535900  0.421900  0.455800  1
  C  C1399  1  0.902300  0.739000  0.067800  1
  C  C1400  1  0.097700  0.261000  0.932200  1
  C  C1401  1  0.880700  0.780400  0.051600  1
  C  C1402  1  0.119300  0.219600  0.948400  1
  C  C1403  1  0.465200  0.511500  0.049200  1
  C  C1404  1  0.534800  0.488500  0.950800  1
  C  C1405  1  0.410300  0.519200  0.040500  1
  C  C1406  1  0.589700  0.480800  0.959500  1
  C  C1407  1  0.263600  0.462100  0.449800  1
  C  C1408  1  0.736400  0.537900  0.550200  1
  C  C1409  1  0.242100  0.451900  0.413000  1
  C  C1410  1  0.757900  0.548100  0.587000  1
  C  C1411  1  0.240100  0.006600  0.371300  1
  C  C1412  1  0.759900  0.993400  0.628700  1
  C  C1413  1  0.260600  0.995200  0.409600  1
  C  C1414  1  0.739400  0.004800  0.590400  1
  C  C1415  1  0.451900  0.963200  0.992100  1
  C  C1416  1  0.548100  0.036800  0.007900  1
  C  C1417  1  0.401600  0.949600  0.981000  1
  C  C1418  1  0.598400  0.050400  0.019000  1
  C  C1419  1  0.467400  0.098000  0.195800  1
  C  C1420  1  0.532600  0.902000  0.804200  1
  C  C1421  1  0.415300  0.086900  0.182600  1
  C  C1422  1  0.584700  0.913100  0.817400  1
  C  C1423  1  0.685100  0.988000  0.360700  1
  C  C1424  1  0.314900  0.012000  0.639300  1
  C  C1425  1  0.668200  0.023500  0.334500  1
  C  C1426  1  0.331800  0.976500  0.665500  1
  C  C1427  1  0.316700  0.956600  0.500700  1
  C  C1428  1  0.683300  0.043400  0.499300  1
  N  N1429  1  0.129900  0.539800  0.844400  1
  N  N1430  1  0.870100  0.460200  0.155600  1
  N  N1431  1  0.391700  0.686200  0.732600  1
  N  N1432  1  0.608300  0.313800  0.267400  1
  N  N1433  1  0.373800  0.651200  0.792100  1
  N  N1434  1  0.626200  0.348800  0.207900  1
  N  N1435  1  0.195300  0.687900  0.594700  1
  N  N1436  1  0.804700  0.312100  0.405300  1
  N  N1437  1  0.133900  0.632500  0.601300  1
  N  N1438  1  0.866100  0.367500  0.398700  1
  N  N1439  1  0.953800  0.579100  0.840100  1
  N  N1440  1  0.046200  0.420900  0.159900  1
  N  N1441  1  0.726100  0.685400  0.765900  1
  N  N1442  1  0.273900  0.314600  0.234100  1
  N  N1443  1  0.736800  0.729300  0.709300  1
  N  N1444  1  0.263200  0.270700  0.290700  1
  N  N1445  1  0.023600  0.641100  0.597100  1
  N  N1446  1  0.976400  0.358900  0.402900  1
  N  N1447  1  0.974500  0.703600  0.583900  1
  N  N1448  1  0.025500  0.296400  0.416100  1
  N  N1449  1  0.737000  0.824600  0.684400  1
  N  N1450  1  0.263000  0.175400  0.315600  1
  N  N1451  1  0.957200  0.960000  0.798900  1
  N  N1452  1  0.042800  0.040000  0.201100  1
  N  N1453  1  0.026700  0.979300  0.756000  1
  N  N1454  1  0.973300  0.020700  0.244000  1
  N  N1455  1  0.045400  0.854800  0.576700  1
  N  N1456  1  0.954600  0.145200  0.423300  1
  N  N1457  1  0.985000  0.799700  0.574500  1
  N  N1458  1  0.015000  0.200300  0.425500  1
  N  N1459  1  0.701400  0.718600  0.838800  1
  N  N1460  1  0.298600  0.281400  0.161200  1
  N  N1461  1  0.963100  0.636000  0.959600  1
  N  N1462  1  0.036900  0.364000  0.040400  1
  N  N1463  1  0.919500  0.603800  0.913500  1
  N  N1464  1  0.080500  0.396200  0.086500  1
  N  N1465  1  0.984200  0.881500  0.919800  1
  N  N1466  1  0.015800  0.118500  0.080200  1
  N  N1467  1  0.934200  0.914000  0.874000  1
  N  N1468  1  0.065800  0.086000  0.126000  1
  N  N1469  1  0.419000  0.777000  0.711500  1
  N  N1470  1  0.581000  0.223000  0.288500  1
  N  N1471  1  0.155000  0.850200  0.583700  1
  N  N1472  1  0.845000  0.149800  0.416300  1
  N  N1473  1  0.204100  0.785700  0.587000  1
  N  N1474  1  0.795900  0.214300  0.413000  1
  N  N1475  1  0.139000  0.973300  0.760800  1
  N  N1476  1  0.861000  0.026700  0.239200  1
  N  N1477  1  0.188400  0.946800  0.809800  1
  N  N1478  1  0.811600  0.053200  0.190200  1
  N  N1479  1  0.380900  0.683600  0.867000  1
  N  N1480  1  0.619100  0.316400  0.133000  1
  N  N1481  1  0.167000  0.903700  0.886600  1
  N  N1482  1  0.833000  0.096300  0.113400  1
  N  N1483  1  0.096900  0.876100  0.925600  1
  N  N1484  1  0.903100  0.123900  0.074400  1
  N  N1485  1  0.071600  0.632600  0.957000  1
  N  N1486  1  0.928400  0.367400  0.043000  1
  N  N1487  1  0.122200  0.593300  0.914600  1
  N  N1488  1  0.877800  0.406700  0.085400  1
  N  N1489  1  0.165200  0.925700  0.529500  1
  N  N1490  1  0.834800  0.074300  0.470500  1
  N  N1491  1  0.065300  0.928700  0.521800  1
  N  N1492  1  0.934700  0.071300  0.478200  1
  N  N1493  1  0.170900  0.520100  0.951700  1
  N  N1494  1  0.829100  0.479900  0.048300  1
  N  N1495  1  0.175900  0.473900  0.890500  1
  N  N1496  1  0.824100  0.526100  0.109500  1
  N  N1497  1  0.026800  0.562200  0.557700  1
  N  N1498  1  0.973200  0.437800  0.442300  1
  N  N1499  1  0.129000  0.556900  0.558100  1
  N  N1500  1  0.871000  0.443100  0.441900  1
  N  N1501  1  0.142700  0.064000  0.730100  1
  N  N1502  1  0.857300  0.936000  0.269900  1
  N  N1503  1  0.041600  0.068200  0.726700  1
  N  N1504  1  0.958400  0.931800  0.273300  1
  N  N1505  1  0.063700  0.636700  0.038600  1
  N  N1506  1  0.936300  0.363300  0.961400  1
  N  N1507  1  0.962300  0.629700  0.043000  1
  N  N1508  1  0.037700  0.370300  0.957000  1
  N  N1509  1  0.239400  0.963400  0.912800  1
  N  N1510  1  0.760600  0.036600  0.087200  1
  N  N1511  1  0.261000  0.000500  0.843300  1
  N  N1512  1  0.739000  0.999500  0.156700  1
  N  N1513  1  0.427200  0.600300  0.889200  1
  N  N1514  1  0.572800  0.399700  0.110800  1
  N  N1515  1  0.419200  0.572600  0.820100  1
  N  N1516  1  0.580800  0.427400  0.179900  1
  N  N1517  1  0.491600  0.745900  0.654900  1
  N  N1518  1  0.508400  0.254100  0.345100  1
  N  N1519  1  0.466400  0.661900  0.674300  1
  N  N1520  1  0.533600  0.338100  0.325700  1
  N  N1521  1  0.270700  0.687900  0.531900  1
  N  N1522  1  0.729300  0.312100  0.468100  1
  N  N1523  1  0.276400  0.775200  0.524700  1
  N  N1524  1  0.723600  0.224800  0.475300  1
  N  N1525  1  0.864400  0.986400  0.888800  1
  N  N1526  1  0.135600  0.013600  0.111200  1
  N  N1527  1  0.887500  0.027500  0.820600  1
  N  N1528  1  0.112500  0.972500  0.179400  1
  N  N1529  1  0.860500  0.522900  0.926200  1
  N  N1530  1  0.139500  0.477100  0.073800  1
  N  N1531  1  0.896300  0.497200  0.856800  1
  N  N1532  1  0.103700  0.502800  0.143200  1
  N  N1533  1  0.931900  0.797700  0.506300  1
  N  N1534  1  0.068100  0.202300  0.493700  1
  N  N1535  1  0.922200  0.710300  0.515400  1
  N  N1536  1  0.077800  0.289700  0.484600  1
  N  N1537  1  0.671400  0.803000  0.626500  1
  N  N1538  1  0.328600  0.197000  0.373500  1
  N  N1539  1  0.676100  0.716500  0.647300  1
  N  N1540  1  0.323900  0.283500  0.352700  1
  N  N1541  1  0.076800  0.885000  0.004700  1
  N  N1542  1  0.923200  0.115000  0.995300  1
  N  N1543  1  0.976000  0.895100  0.998600  1
  N  N1544  1  0.024000  0.104900  0.001400  1
  N  N1545  1  0.657800  0.612500  0.790800  1
  N  N1546  1  0.342200  0.387500  0.209200  1
  N  N1547  1  0.637700  0.642700  0.858400  1
  N  N1548  1  0.362300  0.357300  0.141600  1
  N  N1549  1  0.587600  0.531600  0.302400  1
  N  N1550  1  0.412400  0.468400  0.697600  1
  N  N1551  1  0.550700  0.697100  0.063700  1
  N  N1552  1  0.449300  0.302900  0.936300  1
  N  N1553  1  0.499600  0.635900  0.080900  1
  N  N1554  1  0.500400  0.364100  0.919100  1
  N  N1555  1  0.790100  0.717000  0.162400  1
  N  N1556  1  0.209900  0.283000  0.837600  1
  N  N1557  1  0.795400  0.680700  0.220600  1
  N  N1558  1  0.204600  0.319300  0.779400  1
  N  N1559  1  0.344000  0.519100  0.331900  1
  N  N1560  1  0.656000  0.480900  0.668100  1
  N  N1561  1  0.122100  0.657800  0.299100  1
  N  N1562  1  0.877900  0.342200  0.700900  1
  N  N1563  1  0.117400  0.701700  0.241800  1
  N  N1564  1  0.882600  0.298300  0.758200  1
  N  N1565  1  0.388400  0.634300  0.098100  1
  N  N1566  1  0.611600  0.365700  0.901900  1
  N  N1567  1  0.330000  0.691000  0.092300  1
  N  N1568  1  0.670000  0.309000  0.907700  1
  N  N1569  1  0.114500  0.690000  0.373700  1
  N  N1570  1  0.885500  0.310000  0.626300  1
  N  N1571  1  0.354800  0.570500  0.400200  1
  N  N1572  1  0.645200  0.429500  0.599800  1
  N  N1573  1  0.415400  0.603200  0.431800  1
  N  N1574  1  0.584600  0.396800  0.568200  1
  N  N1575  1  0.347700  0.885500  0.377800  1
  N  N1576  1  0.652300  0.114500  0.622200  1
  N  N1577  1  0.407800  0.854400  0.415800  1
  N  N1578  1  0.592200  0.145600  0.584200  1
  N  N1579  1  0.100100  0.795100  0.223800  1
  N  N1580  1  0.899900  0.204900  0.776200  1
  N  N1581  1  0.393400  0.968000  0.251200  1
  N  N1582  1  0.606600  0.032000  0.748800  1
  N  N1583  1  0.344000  0.938300  0.303900  1
  N  N1584  1  0.656000  0.061700  0.696100  1
  N  N1585  1  0.376000  0.848500  0.072200  1
  N  N1586  1  0.624000  0.151500  0.927800  1
  N  N1587  1  0.322500  0.788300  0.079000  1
  N  N1588  1  0.677500  0.211700  0.921000  1
  N  N1589  1  0.790800  0.811600  0.147100  1
  N  N1590  1  0.209200  0.188400  0.852900  1
  N  N1591  1  0.563800  0.945900  0.281800  1
  N  N1592  1  0.436200  0.054100  0.718200  1
  N  N1593  1  0.503200  0.971400  0.240900  1
  N  N1594  1  0.496800  0.028600  0.759100  1
  N  N1595  1  0.544100  0.794000  0.055800  1
  N  N1596  1  0.455900  0.206000  0.944200  1
  N  N1597  1  0.487300  0.850300  0.062400  1
  N  N1598  1  0.512700  0.149700  0.937600  1
  N  N1599  1  0.807000  0.710500  0.296100  1
  N  N1600  1  0.193000  0.289500  0.703900  1
  N  N1601  1  0.519500  0.860300  0.406300  1
  N  N1602  1  0.480500  0.139700  0.593700  1
  N  N1603  1  0.570200  0.895000  0.356600  1
  N  N1604  1  0.429800  0.105000  0.643400  1
  N  N1605  1  0.584900  0.578800  0.373200  1
  N  N1606  1  0.415100  0.421200  0.626800  1
  N  N1607  1  0.528100  0.609200  0.418400  1
  N  N1608  1  0.471900  0.390800  0.581600  1
  N  N1609  1  0.659100  0.472900  0.336700  1
  N  N1610  1  0.340900  0.527100  0.663300  1
  N  N1611  1  0.654100  0.513800  0.400700  1
  N  N1612  1  0.345900  0.486200  0.599300  1
  N  N1613  1  0.051000  0.616200  0.400000  1
  N  N1614  1  0.949000  0.383800  0.600000  1
  N  N1615  1  0.056500  0.585200  0.330800  1
  N  N1616  1  0.943500  0.414800  0.669200  1
  N  N1617  1  0.604200  0.790100  0.985200  1
  N  N1618  1  0.395800  0.209900  0.014800  1
  N  N1619  1  0.607900  0.702800  0.990700  1
  N  N1620  1  0.392100  0.297200  0.009300  1
  N  N1621  1  0.412400  0.874000  0.493800  1
  N  N1622  1  0.587600  0.126000  0.506200  1
  N  N1623  1  0.515700  0.884100  0.485300  1
  N  N1624  1  0.484300  0.115900  0.514700  1
  N  N1625  1  0.020200  0.769900  0.177600  1
  N  N1626  1  0.979800  0.230100  0.822400  1
  N  N1627  1  0.042100  0.684900  0.191400  1
  N  N1628  1  0.957900  0.315100  0.808600  1
  N  N1629  1  0.255200  0.773000  0.021800  1
  N  N1630  1  0.744800  0.227000  0.978200  1
  N  N1631  1  0.269200  0.685700  0.029500  1
  N  N1632  1  0.730800  0.314300  0.970500  1
  N  N1633  1  0.869100  0.638200  0.312300  1
  N  N1634  1  0.130900  0.361800  0.687700  1
  N  N1635  1  0.861200  0.607000  0.243400  1
  N  N1636  1  0.138800  0.393000  0.756600  1
  N  N1637  1  0.433100  0.591300  0.512000  1
  N  N1638  1  0.566900  0.408700  0.488000  1
  N  N1639  1  0.533400  0.600400  0.498200  1
  N  N1640  1  0.466600  0.399600  0.501800  1
  N  N1641  1  0.860600  0.716400  0.091600  1
  N  N1642  1  0.139400  0.283600  0.908400  1
  N  N1643  1  0.859000  0.804200  0.082400  1
  N  N1644  1  0.141000  0.195800  0.917600  1
  N  N1645  1  0.489400  0.553800  0.047700  1
  N  N1646  1  0.510600  0.446200  0.952300  1
  N  N1647  1  0.388700  0.550700  0.066100  1
  N  N1648  1  0.611300  0.449300  0.933900  1
  N  N1649  1  0.288400  0.506400  0.442100  1
  N  N1650  1  0.711600  0.493600  0.557900  1
  N  N1651  1  0.282600  0.457500  0.382300  1
  N  N1652  1  0.717400  0.542500  0.617700  1
  N  N1653  1  0.282700  0.999200  0.343800  1
  N  N1654  1  0.717300  0.000800  0.656200  1
  N  N1655  1  0.280900  0.950200  0.409700  1
  N  N1656  1  0.719100  0.049800  0.590300  1
  N  N1657  1  0.376900  0.922900  0.014300  1
  N  N1658  1  0.623100  0.077100  0.985700  1
  N  N1659  1  0.478800  0.924300  0.007400  1
  N  N1660  1  0.521200  0.075700  0.992600  1
  N  N1661  1  0.392100  0.054800  0.211200  1
  N  N1662  1  0.607900  0.945200  0.788800  1
  N  N1663  1  0.494200  0.057300  0.202400  1
  N  N1664  1  0.505800  0.942700  0.797600  1
  N  N1665  1  0.638100  0.003800  0.306100  1
  N  N1666  1  0.361900  0.996200  0.693900  1
  N  N1667  1  0.639400  0.960100  0.374500  1
  N  N1668  1  0.360600  0.039900  0.625500  1
  N  N1669  1  0.186300  0.601600  0.016300  1
  N  N1670  1  0.813700  0.398400  0.983700  1
  O  O1671  1  0.228000  0.585500  0.008000  1
  O  O1672  1  0.772000  0.414500  0.992000  1
  O  O1673  1  0.178200  0.625000  0.041900  1
  O  O1674  1  0.821800  0.375000  0.958100  1
  O  O1675  1  0.150600  0.588100  0.002100  1
  O  O1676  1  0.849400  0.411900  0.997900  1
  O  O1677  1  0.351200  0.951100  0.466700  1
  O  O1678  1  0.648800  0.048900  0.533300  1
  O  O1679  1  0.842700  0.852900  0.393800  1
  O  O1680  1  0.157300  0.147100  0.606200  1
