
#######################################################################
#
#                 Cambridge Crystallographic Data Centre
#                                CCDC 
#
#######################################################################
#
# If this CIF has been generated from an entry in the Cambridge 
# Structural Database, then it will include bibliographic, chemical, 
# crystal, experimental, refinement or atomic coordinate data resulting 
# from the CCDC's data processing and validation procedures.
#
#######################################################################

data_RAKPOI
_chemical_formula_moiety         
'C144 H198 N60 Pd15 30+,30(N1 O3 1-),57.5(H2 O1),1.5(C1 H4 O1)'
_chemical_name_systematic        
'hexakis(\m~5~-1,3-bis(5-Pyrimidinyl)-5-(3-pyridyl)benzene)-pentadecakis(ethylenediamine-palladium(ii)) pentanitrate clathate pentacosanitrate methanol solvate hydrate'
_symmetry_cell_setting           triclinic
_symmetry_space_group_name_H-M   'P -1'
_symmetry_Int_Tables_number      2
_space_group_name_Hall           '-P 1'
loop_
_symmetry_equiv_pos_site_id
_symmetry_equiv_pos_as_xyz
1 x,y,z
2 -x,-y,-z
_cell_length_a                   26.503(3)
_cell_length_b                   30.887(3)
_cell_length_c                   35.743(4)
_cell_angle_alpha                85.468(2)
_cell_angle_beta                 85.735(2)
_cell_angle_gamma                89.850(2)
_cell_volume                     29086.7
_exptl_crystal_colour            colorless
_chemical_melting_point          '240 deg.C(dec.)'
_cell_formula_units_Z            4
_exptl_crystal_recrystallization_method methanol/water
loop_
_atom_site_label
_atom_site_type_symbol
_atom_site_fract_x
_atom_site_fract_y
_atom_site_fract_z
Pd1 Pd 0.10801(4) 0.88877(3) -0.44677(3)
Pd2 Pd 0.14745(4) 0.53324(3) -0.10071(2)
Pd3 Pd 0.07787(4) 0.59938(3) -0.42131(3)
Pd4 Pd 0.08798(4) 1.01957(3) -0.25710(3)
Pd5 Pd 0.01457(3) 0.63278(3) -0.00142(2)
Pd6 Pd 0.21177(4) 0.95369(3) -0.13734(2)
Pd7 Pd 0.40070(4) 0.62861(3) -0.15773(3)
Pd8 Pd 0.44121(4) 0.71859(3) -0.30573(3)
Pd9 Pd 0.23476(4) 0.73435(3) -0.43905(2)
Pd10 Pd -0.08769(4) 0.97109(3) -0.15412(3)
Pd11 Pd -0.09112(4) 0.55076(3) -0.11546(3)
Pd12 Pd -0.04472(4) 0.75278(3) -0.45416(3)
Pd13 Pd -0.29392(4) 0.76947(3) -0.33140(3)
Pd14 Pd 0.03414(4) 0.88504(3) -0.03975(3)
Pd15 Pd -0.31834(4) 0.66610(4) -0.18687(3)
C1 C 0.1856(5) 0.5918(4) -0.2471(3)
C2 C 0.2334(5) 0.6041(4) -0.2387(3)
H1 H 0.2450 0.5945 -0.2150
C3 C 0.2650(5) 0.6302(4) -0.2641(3)
C4 C 0.2491(4) 0.6408(4) -0.3000(3)
H2 H 0.2708 0.6574 -0.3180
C5 C 0.2024(5) 0.6279(4) -0.3101(3)
C6 C 0.1697(5) 0.6052(4) -0.2829(3)
H3 H 0.1362 0.5988 -0.2887
N1 N 0.1299(4) 0.5398(3) -0.1556(2)
C7 C 0.1521(4) 0.5640(4) -0.2202(3)
C8 C 0.1578(4) 0.5649(4) -0.1811(3)
H4 H 0.1820 0.5840 -0.1730
C9 C 0.0955(5) 0.5128(4) -0.1672(3)
H5 H 0.0765 0.4942 -0.1490
C10 C 0.0868(5) 0.5113(5) -0.2051(3)
H6 H 0.0608 0.4934 -0.2126
C11 C 0.1169(5) 0.5362(4) -0.2312(3)
H7 H 0.1132 0.5342 -0.2572
N2 N 0.3917(4) 0.6862(3) -0.2674(3)
N3 N 0.3738(4) 0.6512(3) -0.2079(3)
C12 C 0.3137(5) 0.6464(4) -0.2533(3)
C13 C 0.3469(4) 0.6713(4) -0.2780(3)
H8 H 0.3382 0.6782 -0.3031
C14 C 0.4043(4) 0.6758(4) -0.2324(3)
H9 H 0.4354 0.6861 -0.2248
C15 C 0.3290(5) 0.6367(4) -0.2172(3)
H10 H 0.3077 0.6199 -0.1991
N4 N 0.1953(4) 0.6879(3) -0.4053(2)
N5 N 0.1339(4) 0.6325(3) -0.3987(3)
C16 C 0.1853(5) 0.6414(4) -0.3482(3)
C17 C 0.2094(5) 0.6770(4) -0.3708(3)
H11 H 0.2354 0.6929 -0.3611
C18 C 0.1583(5) 0.6653(4) -0.4184(3)
H12 H 0.1489 0.6732 -0.4431
C19 C 0.1473(5) 0.6211(4) -0.3636(3)
H13 H 0.1296 0.5981 -0.3491
C20 C -0.0685(5) 0.6322(5) -0.2547(3)
C21 C -0.1190(6) 0.6471(5) -0.2497(4)
H14 H -0.1357 0.6451 -0.2252
C22 C -0.1443(5) 0.6643(4) -0.2792(3)
C23 C -0.1186(5) 0.6679(4) -0.3153(4)
H15 H -0.1357 0.6792 -0.3364
C24 C -0.0689(5) 0.6550(4) -0.3202(3)
C25 C -0.0445(5) 0.6373(5) -0.2899(4)
H16 H -0.0103 0.6284 -0.2936
N6 N -0.0462(4) 0.5791(4) -0.1599(3)
C26 C -0.0418(5) 0.6156(5) -0.2214(4)
C27 C -0.0674(5) 0.5931(4) -0.1910(3)
H17 H -0.1023 0.5872 -0.1925
C28 C 0.0038(5) 0.5881(5) -0.1575(4)
H18 H 0.0190 0.5803 -0.1347
C29 C 0.0318(6) 0.6079(5) -0.1869(4)
H19 H 0.0673 0.6109 -0.1856
C30 C 0.0106(5) 0.6231(5) -0.2175(4)
H20 H 0.0303 0.6393 -0.2370
N7 N -0.2739(4) 0.6854(4) -0.2341(3)
N8 N -0.2632(4) 0.7293(3) -0.2907(3)
C31 C -0.1961(5) 0.6810(4) -0.2726(3)
C32 C -0.2266(5) 0.6690(4) -0.2412(4)
H21 H -0.2143 0.6480 -0.2233
C33 C -0.2901(5) 0.7168(5) -0.2593(4)
H22 H -0.3219 0.7301 -0.2540
C34 C -0.2159(5) 0.7127(4) -0.2973(4)
H23 H -0.1959 0.7231 -0.3194
N9 N 0.0236(4) 0.6411(3) -0.4029(3)
N10 N -0.0255(4) 0.7036(3) -0.4161(3)
C35 C -0.0409(5) 0.6615(4) -0.3578(3)
C36 C -0.0031(5) 0.6339(4) -0.3696(3)
H24 H 0.0044 0.6090 -0.3536
C37 C 0.0110(5) 0.6755(4) -0.4254(3)
H25 H 0.0290 0.6802 -0.4494
C38 C -0.0517(4) 0.6975(4) -0.3826(3)
C39 C -0.1353(4) 0.8749(4) -0.3109(3)
C40 C -0.1119(4) 0.8980(4) -0.2854(3)
H26 H -0.1318 0.9090 -0.2651
C41 C -0.0601(5) 0.9054(4) -0.2886(3)
C42 C -0.0314(5) 0.8886(4) -0.3182(3)
H27 H 0.0042 0.8927 -0.3204
C43 C -0.0540(5) 0.8658(4) -0.3449(3)
C44 C -0.1057(5) 0.8597(4) -0.3412(3)
H28 H -0.1214 0.8448 -0.3595
N11 N -0.2630(4) 0.8246(3) -0.3156(3)
C45 C -0.1915(5) 0.8694(4) -0.3070(3)
C46 C -0.2128(5) 0.8317(4) -0.3183(3)
H29 H -0.1910 0.8102 -0.3281
C47 C -0.2939(5) 0.8559(4) -0.3024(3)
H30 H -0.3296 0.8517 -0.3006
C48 C -0.2743(5) 0.8935(4) -0.2917(4)
H31 H -0.2968 0.9150 -0.2827
C49 C -0.2234(5) 0.9011(4) -0.2934(3)
H32 H -0.2103 0.9272 -0.2855
N12 N -0.0428(4) 0.9600(3) -0.2011(3)
N13 N 0.0267(4) 0.9793(3) -0.2440(3)
C50 C -0.0357(5) 0.9300(4) -0.2607(3)
C51 C -0.0602(5) 0.9341(4) -0.2265(3)
H33 H -0.0907 0.9182 -0.2200
C52 C 0.0010(4) 0.9822(4) -0.2116(3)
H34 H 0.0136 1.0008 -0.1944
C53 C 0.0082(4) 0.9545(4) -0.2686(3)
H35 H 0.0259 0.9534 -0.2926
N14 N 0.0454(4) 0.8548(4) -0.4233(3)
N15 N -0.0150(4) 0.7997(3) -0.4255(3)
C54 C -0.0244(5) 0.8500(4) -0.3783(4)
C55 C 0.0198(5) 0.8692(5) -0.3932(3)
H36 H 0.0325 0.8933 -0.3819
C56 C 0.0277(5) 0.8208(4) -0.4385(3)
H37 H 0.0462 0.8108 -0.4599
C57 C -0.0406(5) 0.8144(4) -0.3950(3)
H38 H -0.0707 0.7998 -0.3849
C58 C -0.1855(5) 0.7591(4) -0.1168(3)
C59 C -0.1639(4) 0.7212(4) -0.1026(3)
H39 H -0.1827 0.6949 -0.1006
C60 C -0.1149(5) 0.7212(4) -0.0910(3)
C61 C -0.0893(5) 0.7600(4) -0.0915(4)
H40 H -0.0562 0.7600 -0.0829
C62 C -0.1106(5) 0.7994(4) -0.1044(3)
C63 C -0.1592(5) 0.7990(4) -0.1165(3)
H41 H -0.1748 0.8255 -0.1245
N16 N -0.2986(4) 0.7186(4) -0.1612(3)
C64 C -0.2385(5) 0.7575(4) -0.1298(3)
C65 C -0.2524(5) 0.7230(4) -0.1489(3)
H42 H -0.2280 0.7012 -0.1537
C66 C -0.3332(5) 0.7505(4) -0.1548(3)
H43 H -0.3665 0.7474 -0.1624
C67 C -0.3206(5) 0.7878(4) -0.1373(3)
H44 H -0.3445 0.8104 -0.1343
C68 C -0.2727(5) 0.7908(4) -0.1247(3)
H45 H -0.2634 0.8156 -0.1126
N17 N -0.0369(4) 0.6360(3) -0.0404(3)
N18 N -0.0805(4) 0.6038(3) -0.0865(3)
C69 C -0.0914(5) 0.6792(4) -0.0795(4)
C70 C -0.0582(4) 0.6740(4) -0.0509(3)
H46 H -0.0504 0.6987 -0.0381
C71 C -0.0498(5) 0.6018(4) -0.0584(3)
H47 H -0.0362 0.5743 -0.0508
C72 C -0.1010(4) 0.6428(4) -0.0968(3)
H48 H -0.1228 0.6448 -0.1167
N19 N -0.0158(4) 0.8815(3) -0.0802(3)
N20 N -0.0658(4) 0.9140(3) -0.1260(3)
C73 C -0.0815(5) 0.8413(4) -0.1046(4)
C74 C -0.0428(4) 0.8454(4) -0.0805(3)
H49 H -0.0355 0.8213 -0.0635
C75 C -0.0290(5) 0.9151(4) -0.1031(3)
H50 H -0.0108 0.9415 -0.1030
C76 C -0.0919(5) 0.8776(4) -0.1271(4)
H51 H -0.1181 0.8767 -0.1438
C77 C 0.3032(5) 0.8489(4) -0.2938(3)
C78 C 0.2807(4) 0.8381(4) -0.3256(3)
H52 H 0.2993 0.8213 -0.3430
C79 C 0.2322(4) 0.8511(4) -0.3328(3)
C80 C 0.2060(5) 0.8771(4) -0.3084(3)
H53 H 0.1728 0.8865 -0.3133
C81 C 0.2276(4) 0.8896(4) -0.2767(3)
C82 C 0.2766(5) 0.8749(4) -0.2690(3)
H54 H 0.2913 0.8827 -0.2470
N21 N 0.4190(4) 0.7770(3) -0.2885(3)
C83 C 0.3549(4) 0.8326(4) -0.2849(3)
C84 C 0.3713(5) 0.7932(4) -0.2959(3)
H55 H 0.3495 0.7764 -0.3090
C85 C 0.4498(5) 0.8004(4) -0.2703(4)
H56 H 0.4826 0.7898 -0.2658
C86 C 0.4348(5) 0.8393(5) -0.2582(4)
H57 H 0.4564 0.8550 -0.2440
C87 C 0.3872(5) 0.8565(4) -0.2667(3)
H58 H 0.3778 0.8846 -0.2598
N22 N 0.1550(4) 0.8502(3) -0.4163(3)
N23 N 0.2041(4) 0.7857(3) -0.4130(3)
C88 C 0.2094(5) 0.8381(4) -0.3663(3)
C89 C 0.1743(5) 0.8627(5) -0.3847(3)
H59 H 0.1632 0.8892 -0.3751
C90 C 0.1700(4) 0.8115(4) -0.4290(3)
H60 H 0.1553 0.8023 -0.4506
C91 C 0.2229(4) 0.7984(4) -0.3809(3)
H61 H 0.2457 0.7799 -0.3682
N24 N 0.1390(3) 0.9733(3) -0.2392(3)
N25 N 0.1884(4) 0.9468(3) -0.1902(3)
C92 C 0.2001(4) 0.9183(4) -0.2503(3)
C93 C 0.1628(5) 0.9468(4) -0.2625(3)
H62 H 0.1540 0.9473 -0.2878
C94 C 0.1514(4) 0.9734(4) -0.2038(3)
H63 H 0.1342 0.9923 -0.1875
C95 C 0.2111(5) 0.9197(4) -0.2130(3)
H64 H 0.2359 0.9004 -0.2034
C96 C 0.2576(4) 0.7360(4) -0.1038(3)
C97 C 0.2371(5) 0.7781(4) -0.1040(3)
H65 H 0.2589 0.8026 -0.1090
C98 C 0.1854(4) 0.7847(4) -0.0971(3)
C99 C 0.1541(5) 0.7475(4) -0.0902(3)
H66 H 0.1185 0.7509 -0.0858
C100 C 0.1743(4) 0.7065(4) -0.0897(3)
C101 C 0.2262(4) 0.7003(4) -0.0965(3)
H67 H 0.2398 0.6718 -0.0961
N26 N 0.3809(4) 0.6836(3) -0.1330(3)
C102 C 0.3135(4) 0.7289(4) -0.1100(3)
C103 C 0.3309(4) 0.6937(4) -0.1283(3)
H68 H 0.3070 0.6756 -0.1381
C104 C 0.4149(5) 0.7105(5) -0.1204(4)
H69 H 0.4500 0.7042 -0.1238
C105 C 0.4000(5) 0.7463(4) -0.1029(4)
H70 H 0.4247 0.7648 -0.0945
C106 C 0.3479(5) 0.7562(4) -0.0971(3)
H71 H 0.3371 0.7810 -0.0846
N27 N 0.1670(4) 0.9037(3) -0.1134(3)
N28 N 0.0969(4) 0.8761(3) -0.0744(3)
C107 C 0.1638(4) 0.8278(4) -0.0962(3)
C108 C 0.1858(5) 0.8637(4) -0.1148(3)
H72 H 0.2164 0.8602 -0.1299
C109 C 0.1224(5) 0.9090(4) -0.0936(3)
H73 H 0.1085 0.9374 -0.0933
C110 C 0.1174(5) 0.8366(4) -0.0760(3)
H74 H 0.0996 0.8128 -0.0627
N29 N 0.0716(4) 0.6326(3) -0.0430(3)
N30 N 0.1222(3) 0.5933(3) -0.0854(2)
C111 C 0.1411(4) 0.6677(3) -0.0797(3)
C112 C 0.1007(4) 0.6679(4) -0.0531(3)
H75 H 0.0930 0.6940 -0.0415
C113 C 0.0841(4) 0.5960(4) -0.0597(3)
H76 H 0.0644 0.5706 -0.0525
C114 C 0.1508(4) 0.6292(4) -0.0954(3)
H77 H 0.1784 0.6276 -0.1138
N61 N 0.1652(4) 0.9257(4) -0.4705(3)
H156 H 0.1841 0.9356 -0.4523
H157 H 0.1860 0.9100 -0.4862
N62 N 0.0653(5) 0.9287(4) -0.4782(3)
H158 H 0.0485 0.9129 -0.4942
H159 H 0.0414 0.9417 -0.4628
C229 C 0.0949(9) 0.9605(12) -0.4991(11)
H160 H 0.0932 0.9558 -0.5260
H161 H 0.0793 0.9890 -0.4949
C230 C 0.1429(7) 0.9628(6) -0.4924(5)
H162 H 0.1475 0.9891 -0.4789
H163 H 0.1629 0.9671 -0.5169
N63 N 0.1709(4) 0.5201(4) -0.0483(3)
H164 H 0.1876 0.5438 -0.0409
H165 H 0.1436 0.5138 -0.0313
N64 N 0.1759(4) 0.4739(3) -0.1095(3)
H166 H 0.1533 0.4583 -0.1216
H167 H 0.2056 0.4766 -0.1246
C231 C 0.1851(6) 0.4513(5) -0.0738(4)
H168 H 0.2098 0.4276 -0.0777
H169 H 0.1532 0.4383 -0.0618
C232 C 0.2052(5) 0.4825(5) -0.0496(4)
H170 H 0.2077 0.4685 -0.0239
H171 H 0.2395 0.4922 -0.0597
N65 N 0.0268(4) 0.5622(4) -0.4423(3)
H172 H 0.0000 0.5565 -0.4247
H173 H 0.0148 0.5765 -0.4633
N66 N 0.1290(4) 0.5569(4) -0.4419(3)
H174 H 0.1564 0.5717 -0.4539
H175 H 0.1402 0.5389 -0.4225
C233 C 0.0516(7) 0.5206(6) -0.4522(5)
H176 H 0.0321 0.5068 -0.4707
H177 H 0.0526 0.5003 -0.4294
C234 C 0.1044(7) 0.5309(6) -0.4688(5)
H178 H 0.1235 0.5038 -0.4724
H179 H 0.1034 0.5477 -0.4935
N67 N 0.1427(4) 1.0640(3) -0.2699(3)
H180 H 0.1670 1.0607 -0.2528
H181 H 0.1580 1.0604 -0.2935
N68 N 0.0416(4) 1.0682(4) -0.2733(3)
H182 H 0.0203 1.0589 -0.2903
H183 H 0.0222 1.0769 -0.2529
C235 C 0.1201(5) 1.1074(5) -0.2692(5)
H184 H 0.1441 1.1298 -0.2810
H185 H 0.1105 1.1142 -0.2430
C236 C 0.0739(6) 1.1053(5) -0.2913(5)
H186 H 0.0548 1.1328 -0.2907
H187 H 0.0840 1.1004 -0.3179
N69 N 0.0637(4) 0.6367(4) 0.0386(3)
H188 H 0.0895 0.6171 0.0350
H189 H 0.0776 0.6641 0.0369
N70 N -0.0377(4) 0.6297(3) 0.0430(3)
H190 H -0.0656 0.6458 0.0370
H191 H -0.0478 0.6014 0.0491
C237 C 0.0369(5) 0.6271(5) 0.0766(3)
H192 H 0.0554 0.6399 0.0960
H193 H 0.0343 0.5953 0.0828
C238 C -0.0155(5) 0.6468(4) 0.0750(4)
H194 H -0.0364 0.6385 0.0986
H195 H -0.0132 0.6788 0.0716
N71 N 0.2394(4) 0.9634(3) -0.0872(3)
H196 H 0.2154 0.9770 -0.0723
H197 H 0.2467 0.9371 -0.0749
N72 N 0.2610(4) 1.0005(3) -0.1567(3)
H198 H 0.2889 0.9886 -0.1688
H199 H 0.2463 1.0197 -0.1735
C239 C 0.2765(5) 1.0236(5) -0.1243(4)
H200 H 0.3078 1.0405 -0.1317
H201 H 0.2496 1.0437 -0.1161
C240 C 0.2854(6) 0.9903(5) -0.0935(4)
H202 H 0.3150 0.9722 -0.1005
H203 H 0.2920 1.0043 -0.0703
N73 N 0.4272(4) 0.6003(4) -0.1108(3)
H204 H 0.4469 0.6196 -0.1000
H205 H 0.4008 0.5916 -0.0937
N74 N 0.4192(4) 0.5726(4) -0.1799(3)
H206 H 0.3931 0.5636 -0.1931
H207 H 0.4474 0.5766 -0.1964
C241 C 0.4581(6) 0.5617(5) -0.1210(4)
H208 H 0.4628 0.5421 -0.0982
H209 H 0.4918 0.5712 -0.1324
C242 C 0.4296(6) 0.5383(5) -0.1490(4)
H210 H 0.4505 0.5146 -0.1591
H211 H 0.3976 0.5257 -0.1368
N75 N 0.4916(4) 0.7459(4) -0.3451(3)
H212 H 0.4789 0.7713 -0.3559
H213 H 0.5211 0.7522 -0.3346
N76 N 0.4664(5) 0.6619(4) -0.3257(4)
H214 H 0.4763 0.6433 -0.3062
H215 H 0.4408 0.6487 -0.3367
C243 C 0.5014(5) 0.7142(5) -0.3739(4)
H216 H 0.5313 0.7233 -0.3909
H217 H 0.4719 0.7126 -0.3892
C244 C 0.5104(6) 0.6714(5) -0.3541(5)
H218 H 0.5423 0.6719 -0.3414
H219 H 0.5132 0.6487 -0.3722
N77 N 0.2707(4) 0.6879(4) -0.4681(3)
H220 H 0.2972 0.6765 -0.4554
H221 H 0.2486 0.6657 -0.4714
N78 N 0.2764(4) 0.7752(3) -0.4753(3)
H222 H 0.2554 0.7914 -0.4903
H223 H 0.2939 0.7939 -0.4621
C245 C 0.3122(6) 0.7511(5) -0.4990(4)
H224 H 0.3442 0.7463 -0.4866
H225 H 0.3200 0.7678 -0.5235
C246 C 0.2891(6) 0.7094(5) -0.5046(4)
H226 H 0.3143 0.6907 -0.5174
H227 H 0.2606 0.7141 -0.5209
N79 N -0.1356(6) 0.9864(5) -0.1112(4)
H228 H -0.1625 0.9674 -0.1086
H229 H -0.1193 0.9837 -0.0893
N80 N -0.1125(5) 1.0275(4) -0.1794(3)
H230 H -0.0861 1.0468 -0.1845
H231 H -0.1258 1.0224 -0.2017
C247 C -0.1539(15) 1.0296(10) -0.1170(7)
H232 H -0.1897 1.0305 -0.1070
H233 H -0.1343 1.0490 -0.1027
C248 C -0.1505(8) 1.0450(6) -0.1542(5)
H234 H -0.1451 1.0768 -0.1553
H235 H -0.1838 1.0403 -0.1642
N81 N -0.1395(5) 0.5229(5) -0.0738(4)
H236 H -0.1220 0.5111 -0.0542
H237 H -0.1619 0.5431 -0.0648
N82 N -0.1037(6) 0.4972(4) -0.1432(4)
H238 H -0.1200 0.5049 -0.1646
H239 H -0.0734 0.4845 -0.1502
C249 C -0.1344(7) 0.4673(6) -0.1185(8)
H240 H -0.1550 0.4500 -0.1339
H241 H -0.1119 0.4471 -0.1048
C250 C -0.1673(8) 0.4877(7) -0.0917(8)
H242 H -0.1806 0.4656 -0.0719
H243 H -0.1964 0.5006 -0.1044
N83 N -0.0681(5) 0.7977(4) -0.4937(3)
H244 H -0.0936 0.8143 -0.4833
H245 H -0.0416 0.8158 -0.5026
N84 N -0.0778(5) 0.7103(4) -0.4846(3)
H246 H -0.0536 0.6951 -0.4979
H247 H -0.0973 0.6908 -0.4689
C251 C -0.0865(9) 0.7752(7) -0.5246(5)
H248 H -0.1101 0.7944 -0.5383
H249 H -0.0575 0.7690 -0.5425
C252 C -0.1111(8) 0.7365(6) -0.5118(5)
H250 H -0.1172 0.7194 -0.5333
H251 H -0.1442 0.7427 -0.4986
N85 N -0.3286(4) 0.8030(3) -0.3735(3)
H252 H -0.3588 0.8143 -0.3644
H253 H -0.3084 0.8255 -0.3843
N86 N -0.3239(4) 0.7165(4) -0.3527(4)
H254 H -0.2982 0.6999 -0.3627
H255 H -0.3415 0.6998 -0.3336
C253 C -0.3373(6) 0.7705(6) -0.4017(5)
H256 H -0.3616 0.7824 -0.4196
H257 H -0.3051 0.7646 -0.4162
C254 C -0.3576(6) 0.7297(5) -0.3817(5)
H258 H -0.3921 0.7345 -0.3702
H259 H -0.3593 0.7068 -0.3994
N87 N 0.0768(5) 0.8850(4) 0.0047(3)
H260 H 0.0883 0.8574 0.0105
H261 H 0.1045 0.9028 -0.0015
N88 N -0.0240(5) 0.8951(4) -0.0014(3)
H262 H -0.0358 0.9231 -0.0052
H263 H -0.0502 0.8763 -0.0040
C255 C 0.0475(6) 0.9004(7) 0.0376(4)
H264 H 0.0505 0.9323 0.0373
H265 H 0.0610 0.8874 0.0610
C256 C -0.0064(8) 0.8880(7) 0.0368(4)
H266 H -0.0108 0.8570 0.0457
H267 H -0.0274 0.9054 0.0541
N89 N -0.3422(5) 0.6125(4) -0.2092(3)
H268 H -0.3675 0.6195 -0.2248
H269 H -0.3159 0.6004 -0.2230
N90 N -0.3623(5) 0.6427(4) -0.1416(3)
H270 H -0.3425 0.6347 -0.1222
H271 H -0.3843 0.6639 -0.1339
C257 C -0.3615(7) 0.5810(5) -0.1777(5)
H272 H -0.3824 0.5584 -0.1874
H273 H -0.3328 0.5665 -0.1656
C258 C -0.3913(6) 0.6047(6) -0.1511(5)
H274 H -0.4002 0.5856 -0.1280
H275 H -0.4230 0.6145 -0.1620
Pd16 Pd 0.61880(4) 0.52515(3) 0.35304(3)
Pd17 Pd 0.08692(4) 0.63837(3) 0.35017(3)
Pd18 Pd 0.57481(4) 0.74573(3) 0.02466(2)
Pd19 Pd 0.46431(4) 0.86691(3) 0.44962(2)
Pd20 Pd 0.07147(4) 0.73852(3) 0.20920(3)
Pd21 Pd 0.29580(4) 0.73465(3) 0.05656(2)
Pd22 Pd 0.83317(4) 0.66069(4) 0.26778(3)
Pd23 Pd 0.47718(4) 0.60082(3) 0.46379(3)
Pd24 Pd 0.82347(4) 0.76198(3) 0.12144(3)
Pd25 Pd 0.44170(4) 0.59545(3) 0.07282(3)
Pd26 Pd 0.31962(4) 0.51390(3) 0.38816(3)
Pd27 Pd 0.31496(4) 0.94239(3) 0.35813(2)
Pd28 Pd 0.42950(4) 0.88543(3) 0.03998(2)
Pd29 Pd 0.44589(3) 1.01209(3) 0.22770(2)
Pd30 Pd 0.60046(3) 0.95078(3) 0.32986(2)
C115 C 0.6089(5) 0.5979(4) 0.2100(3)
C116 C 0.5789(5) 0.6105(4) 0.1796(3)
H78 H 0.5463 0.5982 0.1786
C117 C 0.5980(5) 0.6413(4) 0.1510(3)
C118 C 0.6442(4) 0.6580(4) 0.1534(3)
H79 H 0.6572 0.6785 0.1338
C119 C 0.6735(5) 0.6470(4) 0.1827(3)
C120 C 0.6550(5) 0.6157(4) 0.2104(3)
H80 H 0.6756 0.6066 0.2303
N31 N 0.5876(4) 0.5316(3) 0.3024(3)
C121 C 0.5865(5) 0.5640(4) 0.2397(3)
C122 C 0.6041(5) 0.5610(5) 0.2755(4)
H81 H 0.6291 0.5811 0.2808
C123 C 0.5512(5) 0.5033(4) 0.2954(4)
H82 H 0.5385 0.4827 0.3150
C124 C 0.5325(5) 0.5036(4) 0.2614(4)
H83 H 0.5081 0.4827 0.2566
C125 C 0.5500(5) 0.5356(5) 0.2329(4)
H84 H 0.5361 0.5373 0.2091
N32 N 0.5507(4) 0.6971(3) 0.0637(3)
N33 N 0.4996(4) 0.6359(3) 0.0809(3)
C126 C 0.5668(5) 0.6521(4) 0.1185(3)
C127 C 0.5774(5) 0.6876(4) 0.0939(3)
H85 H 0.6045 0.7063 0.0983
C128 C 0.5124(4) 0.6710(4) 0.0578(3)
H86 H 0.4935 0.6777 0.0366
C129 C 0.5266(5) 0.6267(4) 0.1109(3)
H87 H 0.5176 0.6018 0.1274
N34 N 0.7901(4) 0.7170(4) 0.1624(3)
N35 N 0.7954(4) 0.6807(4) 0.2206(3)
C130 C 0.7242(5) 0.6688(4) 0.1863(3)
C131 C 0.7467(5) 0.6969(4) 0.1587(3)
H88 H 0.7306 0.7022 0.1359
C132 C 0.8136(5) 0.7079(4) 0.1935(3)
H89 H 0.8450 0.7218 0.1960
C133 C 0.7510(5) 0.6602(4) 0.2181(4)
H90 H 0.7382 0.6399 0.2379
C134 C 0.3087(5) 0.5878(4) 0.2465(3)
C135 C 0.2615(5) 0.6053(4) 0.2579(4)
H91 H 0.2457 0.5953 0.2818
C136 C 0.2375(5) 0.6360(4) 0.2361(3)
C137 C 0.2602(4) 0.6495(4) 0.2010(3)
H92 H 0.2437 0.6702 0.1851
C138 C 0.3072(4) 0.6332(3) 0.1888(3)
C139 C 0.3313(5) 0.6033(4) 0.2118(3)
H93 H 0.3639 0.5931 0.2037
N36 N 0.3440(4) 0.5191(3) 0.3319(3)
C140 C 0.3334(5) 0.5535(4) 0.2703(4)
C141 C 0.3247(5) 0.5513(5) 0.3094(3)
H94 H 0.3046 0.5731 0.3206
C142 C 0.3745(5) 0.4902(4) 0.3167(4)
H95 H 0.3888 0.4684 0.3328
C143 C 0.3860(5) 0.4905(5) 0.2798(4)
H96 H 0.4077 0.4691 0.2698
C144 C 0.3652(5) 0.5236(5) 0.2557(4)
H97 H 0.3735 0.5249 0.2293
N37 N 0.1221(4) 0.6578(3) 0.2991(3)
N38 N 0.1174(4) 0.7017(3) 0.2418(3)
C145 C 0.1874(5) 0.6549(4) 0.2504(3)
C146 C 0.1655(5) 0.6420(4) 0.2857(3)
H98 H 0.1823 0.6209 0.3010
C147 C 0.0993(5) 0.6885(4) 0.2766(4)
H99 H 0.0688 0.7011 0.2863
C148 C 0.1608(5) 0.6855(4) 0.2287(3)
H100 H 0.1742 0.6949 0.2041
N39 N 0.3884(4) 0.6343(3) 0.0981(3)
N40 N 0.3300(4) 0.6910(3) 0.0923(2)
C149 C 0.3298(5) 0.6477(4) 0.1495(3)
C150 C 0.3678(4) 0.6232(4) 0.1330(3)
H101 H 0.3796 0.5980 0.1466
C151 C 0.3685(5) 0.6671(4) 0.0790(3)
H102 H 0.3822 0.6743 0.0540
C152 C 0.3101(4) 0.6814(4) 0.1269(3)
H103 H 0.2822 0.6976 0.1364
C153 C 0.2422(4) 0.7254(4) 0.3963(3)
C154 C 0.2698(4) 0.6878(4) 0.4008(3)
H104 H 0.2525 0.6607 0.4035
C155 C 0.3225(5) 0.6880(4) 0.4016(3)
C156 C 0.3480(5) 0.7269(4) 0.3980(3)
H105 H 0.3839 0.7269 0.3977
C157 C 0.3222(5) 0.7662(4) 0.3947(3)
C158 C 0.2678(5) 0.7655(4) 0.3943(3)
H106 H 0.2494 0.7919 0.3927
N41 N 0.1145(4) 0.6900(3) 0.3737(3)
C159 C 0.1871(5) 0.7257(4) 0.3945(3)
C160 C 0.1649(5) 0.6920(4) 0.3767(3)
H107 H 0.1859 0.6701 0.3667
C161 C 0.0839(5) 0.7206(5) 0.3868(4)
H108 H 0.0487 0.7189 0.3837
C162 C 0.1025(5) 0.7551(5) 0.4050(4)
H109 H 0.0804 0.7766 0.4144
C163 C 0.1551(5) 0.7571(4) 0.4093(4)
H110 H 0.1686 0.7797 0.4221
N42 N 0.3548(4) 0.5705(3) 0.4002(3)
N43 N 0.4154(4) 0.6032(3) 0.4318(3)
C164 C 0.3491(5) 0.6468(4) 0.4070(3)
C165 C 0.3306(5) 0.6085(4) 0.3941(3)
H111 H 0.3007 0.6094 0.3809
C166 C 0.3959(5) 0.5685(4) 0.4188(3)
H112 H 0.4122 0.5413 0.4229
C167 C 0.3937(4) 0.6410(4) 0.4260(3)
H113 H 0.4087 0.6657 0.4350
N44 N 0.3477(4) 0.8855(3) 0.3778(3)
N45 N 0.4078(4) 0.8544(3) 0.4158(3)
C168 C 0.3467(4) 0.8092(4) 0.3941(3)
C169 C 0.3272(5) 0.8455(4) 0.3758(3)
H114 H 0.2988 0.8427 0.3614
C170 C 0.3864(4) 0.8883(4) 0.3996(3)
H115 H 0.3989 0.9163 0.4033
C171 C 0.3892(4) 0.8150(4) 0.4133(3)
H116 H 0.4054 0.7904 0.4248
C172 C 0.2234(5) 0.8554(4) 0.2070(3)
C173 C 0.2525(5) 0.8779(4) 0.2299(3)
H117 H 0.2377 0.8867 0.2531
C174 C 0.3031(5) 0.8877(4) 0.2191(3)
C175 C 0.3238(5) 0.8755(4) 0.1855(3)
H118 H 0.3579 0.8831 0.1778
C176 C 0.2959(5) 0.8523(4) 0.1621(3)
C177 C 0.2449(5) 0.8433(4) 0.1728(3)
H119 H 0.2249 0.8290 0.1566
N46 N 0.1001(4) 0.7951(4) 0.2238(3)
C178 C 0.1697(5) 0.8452(4) 0.2197(3)
C179 C 0.1474(5) 0.8069(4) 0.2113(3)
H120 H 0.1665 0.7882 0.1959
C180 C 0.0726(5) 0.8210(5) 0.2447(5)
H121 H 0.0389 0.8126 0.2529
C181 C 0.0909(5) 0.8601(5) 0.2549(4)
H122 H 0.0705 0.8779 0.2704
C182 C 0.1402(5) 0.8723(5) 0.2419(4)
H123 H 0.1536 0.8991 0.2482
N47 N 0.3934(4) 0.9680(3) 0.2512(3)
N48 N 0.3440(4) 0.9383(3) 0.3039(2)
C183 C 0.3318(4) 0.9139(4) 0.2441(3)
C184 C 0.3708(5) 0.9427(4) 0.2292(3)
H124 H 0.3811 0.9439 0.2031
C185 C 0.3793(4) 0.9659(4) 0.2883(3)
H125 H 0.3950 0.9848 0.3037
C186 C 0.3202(4) 0.9126(4) 0.2818(3)
H126 H 0.2948 0.8931 0.2930
N49 N 0.3760(4) 0.8485(3) 0.0722(2)
N50 N 0.3225(4) 0.7883(3) 0.0790(2)
C187 C 0.3189(5) 0.8379(4) 0.1268(3)
C188 C 0.3563(4) 0.8618(4) 0.1048(3)
H127 H 0.3680 0.8881 0.1132
C189 C 0.3583(4) 0.8118(4) 0.0605(3)
H128 H 0.3725 0.8023 0.0374
C190 C 0.3024(4) 0.8011(4) 0.1119(3)
H129 H 0.2761 0.7843 0.1254
C191 C 0.6627(4) 0.8611(4) 0.1629(3)
C192 C 0.6381(5) 0.8833(4) 0.1918(3)
H130 H 0.6566 0.8919 0.2118
C193 C 0.5859(4) 0.8929(4) 0.1913(3)
C194 C 0.5583(4) 0.8784(4) 0.1631(3)
H131 H 0.5229 0.8834 0.1637
C195 C 0.5822(4) 0.8564(4) 0.1338(3)
C196 C 0.6335(4) 0.8480(4) 0.1344(3)
H132 H 0.6496 0.8327 0.1148
N51 N 0.7908(4) 0.8116(3) 0.1471(3)
C197 C 0.7177(5) 0.8537(4) 0.1630(3)
C198 C 0.7399(5) 0.8175(4) 0.1473(3)
H133 H 0.7194 0.7971 0.1368
C199 C 0.8203(5) 0.8390(5) 0.1620(4)
H134 H 0.8557 0.8340 0.1614
C200 C 0.7999(5) 0.8752(5) 0.1785(4)
H135 H 0.8213 0.8949 0.1890
C201 C 0.7474(5) 0.8822(4) 0.1794(4)
H136 H 0.7327 0.9062 0.1911
N52 N 0.5638(3) 0.9459(3) 0.2818(2)
N53 N 0.5032(3) 0.9714(3) 0.2409(2)
C202 C 0.5634(4) 0.9186(4) 0.2218(3)
C203 C 0.5836(4) 0.9196(4) 0.2562(3)
H137 H 0.6116 0.9017 0.2618
C204 C 0.5243(4) 0.9706(4) 0.2748(3)
H138 H 0.5103 0.9881 0.2936
C205 C 0.5228(4) 0.9460(4) 0.2146(3)
H139 H 0.5088 0.9467 0.1909
N54 N 0.5441(4) 0.7940(3) 0.0558(3)
N55 N 0.4873(4) 0.8503(3) 0.0624(3)
C206 C 0.5531(5) 0.8427(4) 0.1037(3)
C207 C 0.5686(5) 0.8053(4) 0.0848(3)
H140 H 0.5964 0.7885 0.0928
C208 C 0.5050(5) 0.8156(4) 0.0460(3)
H141 H 0.4876 0.8061 0.0258
C209 C 0.5112(4) 0.8635(4) 0.0913(3)
H142 H 0.4986 0.8879 0.1036
C210 C 0.6834(5) 0.7418(5) 0.3466(4)
C211 C 0.6554(5) 0.7794(4) 0.3516(4)
H143 H 0.6713 0.8068 0.3453
C212 C 0.6050(5) 0.7779(4) 0.3655(4)
C213 C 0.5823(5) 0.7371(4) 0.3737(4)
H144 H 0.5476 0.7355 0.3827
C214 C 0.6084(5) 0.6997(4) 0.3692(4)
C215 C 0.6607(5) 0.7009(4) 0.3553(4)
H145 H 0.6792 0.6749 0.3522
N56 N 0.8070(4) 0.7105(3) 0.2961(3)
C216 C 0.7383(5) 0.7445(4) 0.3311(4)
C217 C 0.7574(5) 0.7114(4) 0.3091(4)
H146 H 0.7353 0.6892 0.3031
C218 C 0.8366(5) 0.7428(5) 0.3035(4)
H147 H 0.8712 0.7427 0.2944
C219 C 0.8183(6) 0.7774(5) 0.3244(4)
H148 H 0.8404 0.8006 0.3282
C220 C 0.7694(5) 0.7778(4) 0.3391(4)
H149 H 0.7572 0.8001 0.3543
N57 N 0.5195(3) 0.8603(3) 0.4063(3)
N58 N 0.5702(4) 0.8950(3) 0.3566(3)
C221 C 0.5780(4) 0.8188(4) 0.3721(3)
C222 C 0.5422(5) 0.8218(4) 0.4001(4)
H150 H 0.5324 0.7966 0.4159
C223 C 0.5343(4) 0.8948(4) 0.3857(3)
H151 H 0.5191 0.9217 0.3912
C224 C 0.5922(5) 0.8569(4) 0.3504(4)
H152 H 0.6182 0.8558 0.3307
N59 N 0.5849(4) 0.5788(4) 0.3732(3)
N60 N 0.5281(4) 0.6092(3) 0.4184(3)
C225 C 0.5846(5) 0.6552(4) 0.3797(4)
C226 C 0.6020(5) 0.6184(4) 0.3627(4)
H153 H 0.6275 0.6219 0.3426
C227 C 0.5467(5) 0.5766(4) 0.4006(3)
H154 H 0.5322 0.5488 0.4076
C228 C 0.5466(5) 0.6493(4) 0.4082(4)
H155 H 0.5336 0.6735 0.4206
N91 N 0.6591(5) 0.4729(4) 0.3367(3)
H276 H 0.6383 0.4490 0.3376
H277 H 0.6728 0.4784 0.3124
N92 N 0.6541(5) 0.5138(4) 0.4007(3)
H278 H 0.6786 0.5346 0.4019
H279 H 0.6312 0.5153 0.4212
C259 C 0.7003(8) 0.4647(6) 0.3629(5)
H280 H 0.7142 0.4351 0.3607
H281 H 0.7281 0.4860 0.3565
C260 C 0.6783(8) 0.4690(6) 0.4016(5)
H282 H 0.7050 0.4667 0.4197
H283 H 0.6527 0.4461 0.4091
N93 N 0.0510(4) 0.6162(4) 0.4000(3)
H284 H 0.0729 0.6167 0.4188
H285 H 0.0240 0.6339 0.4058
N94 N 0.0565(5) 0.5852(5) 0.3308(4)
H286 H 0.0435 0.5925 0.3080
H287 H 0.0810 0.5645 0.3275
C261 C 0.0329(6) 0.5713(5) 0.3977(5)
H288 H 0.0042 0.5646 0.4167
H289 H 0.0604 0.5503 0.4027
C262 C 0.0160(7) 0.5679(6) 0.3582(6)
H290 H 0.0092 0.5371 0.3542
H291 H -0.0154 0.5846 0.3550
N95 N 0.6042(6) 0.7901(4) -0.0148(3)
H292 H 0.5796 0.8092 -0.0223
H293 H 0.6294 0.8056 -0.0053
N96 N 0.6079(5) 0.7028(4) -0.0093(3)
H294 H 0.6236 0.6813 0.0048
H295 H 0.5840 0.6902 -0.0223
C263 C 0.6254(15) 0.7669(8) -0.0474(6)
H296 H 0.5986 0.7630 -0.0647
H297 H 0.6529 0.7845 -0.0614
C264 C 0.6444(12) 0.7260(7) -0.0351(7)
H298 H 0.6760 0.7300 -0.0225
H299 H 0.6526 0.7089 -0.0570
N97 N 0.4124(4) 0.8740(4) 0.4938(3)
H300 H 0.3835 0.8870 0.4856
H301 H 0.4039 0.8475 0.5061
N98 N 0.5157(4) 0.8841(4) 0.4853(3)
H302 H 0.5415 0.8641 0.4860
H303 H 0.5293 0.9109 0.4773
C265 C 0.4890(6) 0.8854(5) 0.5234(4)
H304 H 0.4870 0.8557 0.5362
H305 H 0.5081 0.9040 0.5388
C266 C 0.4376(7) 0.9028(6) 0.5201(4)
H306 H 0.4390 0.9333 0.5093
H307 H 0.4185 0.9015 0.5450
N99 N 0.0202(4) 0.7699(4) 0.1776(4)
H308 H 0.0047 0.7917 0.1902
H309 H 0.0354 0.7816 0.1552
N100 N 0.0421(5) 0.6849(4) 0.1914(4)
H310 H 0.0677 0.6678 0.1817
H311 H 0.0249 0.6691 0.2112
C267 C -0.0174(7) 0.7351(7) 0.1712(6)
H312 H -0.0406 0.7294 0.1941
H313 H -0.0378 0.7452 0.1501
C268 C 0.0082(7) 0.6969(6) 0.1628(5)
H314 H 0.0275 0.7015 0.1380
H315 H -0.0166 0.6732 0.1615
N101 N 0.2552(4) 0.7730(4) 0.0218(3)
H316 H 0.2333 0.7900 0.0355
H317 H 0.2763 0.7910 0.0060
N102 N 0.2692(5) 0.6857(4) 0.0295(3)
H318 H 0.2950 0.6674 0.0225
H319 H 0.2453 0.6699 0.0448
C269 C 0.2265(7) 0.7443(6) -0.0004(5)
H320 H 0.1916 0.7407 0.0115
H321 H 0.2242 0.7585 -0.0260
C270 C 0.2471(11) 0.7052(7) -0.0031(7)
H322 H 0.2735 0.7073 -0.0242
H323 H 0.2206 0.6852 -0.0098
N103 N 0.8691(5) 0.6382(4) 0.3123(3)
H324 H 0.8903 0.6593 0.3191
H325 H 0.8460 0.6309 0.3323
N104 N 0.8612(5) 0.6070(4) 0.2434(3)
H326 H 0.8355 0.5925 0.2336
H327 H 0.8850 0.6151 0.2241
C271 C 0.8982(15) 0.6002(11) 0.3026(7)
H328 H 0.9340 0.6091 0.2974
H329 H 0.8964 0.5790 0.3249
C272 C 0.8840(7) 0.5789(5) 0.2721(5)
H330 H 0.8596 0.5556 0.2815
H331 H 0.9143 0.5650 0.2604
N105 N 0.4331(5) 0.5913(4) 0.5120(3)
H332 H 0.4160 0.6166 0.5167
H333 H 0.4095 0.5701 0.5096
N106 N 0.5334(4) 0.6004(4) 0.4982(4)
H334 H 0.5506 0.5745 0.4976
H335 H 0.5558 0.6226 0.4904
C273 C 0.5118(6) 0.6059(5) 0.5374(4)
H336 H 0.5035 0.6368 0.5403
H337 H 0.5366 0.5965 0.5558
C274 C 0.4641(7) 0.5781(6) 0.5442(5)
H338 H 0.4726 0.5468 0.5445
H339 H 0.4457 0.5836 0.5684
N107 N 0.8606(5) 0.7164(4) 0.0916(3)
H340 H 0.8733 0.6951 0.1077
H341 H 0.8388 0.7036 0.0768
N108 N 0.8590(4) 0.8042(4) 0.0824(3)
H342 H 0.8363 0.8245 0.0736
H343 H 0.8841 0.8186 0.0929
C275 C 0.9023(6) 0.7390(5) 0.0678(4)
H344 H 0.9150 0.7209 0.0475
H345 H 0.9307 0.7451 0.0832
C276 C 0.8807(6) 0.7804(5) 0.0516(4)
H346 H 0.9076 0.7979 0.0369
H347 H 0.8542 0.7741 0.0347
N109 N 0.4894(4) 0.5538(4) 0.0477(3)
H348 H 0.4973 0.5638 0.0230
H349 H 0.5189 0.5516 0.0598
N110 N 0.3887(5) 0.5507(5) 0.0661(4)
H350 H 0.3784 0.5366 0.0890
H351 H 0.3610 0.5640 0.0562
C277 C 0.4652(7) 0.5115(5) 0.0492(6)
H352 H 0.4668 0.4964 0.0746
H353 H 0.4825 0.4935 0.0305
C278 C 0.4103(6) 0.5192(5) 0.0405(6)
H354 H 0.4086 0.5308 0.0140
H355 H 0.3910 0.4916 0.0444
N111 N 0.2884(5) 0.5064(4) 0.4421(3)
H356 H 0.3131 0.5092 0.4585
H357 H 0.2646 0.5277 0.4459
N112 N 0.2826(5) 0.4575(4) 0.3823(3)
H358 H 0.2689 0.4587 0.3593
H359 H 0.3047 0.4345 0.3837
C279 C 0.2636(8) 0.4621(5) 0.4498(4)
H360 H 0.2362 0.4627 0.4702
H361 H 0.2887 0.4400 0.4574
C280 C 0.2421(7) 0.4519(6) 0.4130(5)
H362 H 0.2293 0.4216 0.4151
H363 H 0.2136 0.4716 0.4075
N113 N 0.2827(4) 0.9992(4) 0.3438(3)
H364 H 0.3061 1.0212 0.3434
H365 H 0.2714 0.9989 0.3201
N114 N 0.2809(5) 0.9502(4) 0.4097(3)
H366 H 0.2550 0.9304 0.4151
H367 H 0.3038 0.9458 0.4277
C281 C 0.2401(7) 1.0066(6) 0.3713(5)
H368 H 0.2110 0.9878 0.3676
H369 H 0.2292 1.0373 0.3689
C282 C 0.2606(7) 0.9952(5) 0.4096(4)
H370 H 0.2878 1.0158 0.4138
H371 H 0.2333 0.9969 0.4298
N115 N 0.3769(4) 0.9229(4) 0.0143(3)
H372 H 0.3523 0.9055 0.0065
H373 H 0.3618 0.9410 0.0311
N116 N 0.4788(4) 0.9243(4) 0.0074(3)
H374 H 0.5043 0.9327 0.0214
H375 H 0.4930 0.9095 -0.0121
C283 C 0.4519(6) 0.9632(5) -0.0079(4)
H376 H 0.4720 0.9771 -0.0300
H377 H 0.4474 0.9844 0.0114
C284 C 0.4016(6) 0.9496(6) -0.0190(5)
H378 H 0.4058 0.9322 -0.0411
H379 H 0.3808 0.9754 -0.0255
N117 N 0.3921(4) 1.0548(3) 0.2112(3)
H380 H 0.3664 1.0403 0.2015
H381 H 0.3786 1.0686 0.2316
N118 N 0.4942(4) 1.0573(3) 0.2024(3)
H382 H 0.5202 1.0612 0.2175
H383 H 0.5078 1.0482 0.1800
C285 C 0.4674(6) 1.0980(5) 0.1958(4)
H384 H 0.4865 1.1172 0.1762
H385 H 0.4632 1.1132 0.2192
C286 C 0.4153(5) 1.0869(4) 0.1826(4)
H386 H 0.3940 1.1132 0.1803
H387 H 0.4192 1.0746 0.1577
N119 N 0.6381(4) 1.0038(3) 0.3061(3)
H388 H 0.6594 0.9962 0.2862
H389 H 0.6154 1.0239 0.2970
N120 N 0.6394(4) 0.9601(3) 0.3745(3)
H390 H 0.6195 0.9738 0.3921
H391 H 0.6496 0.9339 0.3855
C287 C 0.6851(5) 0.9880(5) 0.3607(3)
H392 H 0.7001 1.0001 0.3822
H393 H 0.7111 0.9703 0.3477
C288 C 0.6682(5) 1.0235(4) 0.3345(4)
H394 H 0.6978 1.0394 0.3217
H395 H 0.6470 1.0442 0.3485
N121 N 1.1863(5) 0.6016(5) 0.0163(4)
O1 O 1.2280(6) 0.5855(8) 0.0080(7)
O2 O 1.1782(4) 0.6250(6) 0.0419(4)
O3 O 1.1506(6) 0.5881(7) 0.0021(6)
C289 C 0.3167(7) -0.0434(7) 0.5007(5)
O4 O 0.3512(4) -0.0489(3) 0.4667(3)
O5 O 0.8427(9) 0.8529(8) 0.3938(7)
loop_
_geom_bond_atom_site_label_1
_geom_bond_atom_site_label_2
_geom_bond_site_symmetry_1
_geom_bond_site_symmetry_2
Pd1 N14 1_555 1_555
Pd2 N1 1_555 1_555
Pd3 N5 1_555 1_555
Pd4 N13 1_555 1_555
Pd5 N17 1_555 1_555
Pd6 N25 1_555 1_555
Pd7 N3 1_555 1_555
Pd8 N2 1_555 1_555
Pd9 N4 1_555 1_555
Pd10 N12 1_555 1_555
Pd11 N6 1_555 1_555
Pd12 N10 1_555 1_555
Pd13 N8 1_555 1_555
Pd14 N19 1_555 1_555
Pd15 N7 1_555 1_555
Pd16 N31 1_555 1_555
Pd17 N37 1_555 1_555
Pd18 N32 1_555 1_555
Pd19 N45 1_555 1_555
Pd20 N38 1_555 1_555
Pd21 N40 1_555 1_555
Pd22 N35 1_555 1_555
Pd23 N43 1_555 1_555
Pd24 N34 1_555 1_555
Pd25 N33 1_555 1_555
Pd26 N36 1_555 1_555
Pd27 N44 1_555 1_555
Pd28 N49 1_555 1_555
Pd29 N47 1_555 1_555
Pd30 N52 1_555 1_555
C1 C2 1_555 1_555
C2 H1 1_555 1_555
C3 C2 1_555 1_555
C4 C3 1_555 1_555
H2 C4 1_555 1_555
C5 C4 1_555 1_555
C6 C1 1_555 1_555
H3 C6 1_555 1_555
N1 C8 1_555 1_555
C7 C1 1_555 1_555
C8 C7 1_555 1_555
H4 C8 1_555 1_555
C9 N1 1_555 1_555
H5 C9 1_555 1_555
C10 C9 1_555 1_555
H6 C10 1_555 1_555
C11 C7 1_555 1_555
H7 C11 1_555 1_555
N2 C13 1_555 1_555
N3 C14 1_555 1_555
C12 C3 1_555 1_555
C13 C12 1_555 1_555
H8 C13 1_555 1_555
C14 N2 1_555 1_555
H9 C14 1_555 1_555
C15 N3 1_555 1_555
H10 C15 1_555 1_555
N4 C17 1_555 1_555
N5 C18 1_555 1_555
C16 C5 1_555 1_555
C17 C16 1_555 1_555
H11 C17 1_555 1_555
C18 N4 1_555 1_555
H12 C18 1_555 1_555
C19 N5 1_555 1_555
H13 C19 1_555 1_555
C20 C21 1_555 1_555
C21 H14 1_555 1_555
C22 C21 1_555 1_555
C23 C22 1_555 1_555
H15 C23 1_555 1_555
C24 C23 1_555 1_555
C25 C20 1_555 1_555
H16 C25 1_555 1_555
N6 C27 1_555 1_555
C26 C20 1_555 1_555
C27 C26 1_555 1_555
H17 C27 1_555 1_555
C28 N6 1_555 1_555
H18 C28 1_555 1_555
C29 C28 1_555 1_555
H19 C29 1_555 1_555
C30 C26 1_555 1_555
H20 C30 1_555 1_555
N7 C32 1_555 1_555
N8 C33 1_555 1_555
C31 C22 1_555 1_555
C32 C31 1_555 1_555
H21 C32 1_555 1_555
C33 N7 1_555 1_555
H22 C33 1_555 1_555
C34 N8 1_555 1_555
H23 C34 1_555 1_555
N9 Pd3 1_555 1_555
N10 C37 1_555 1_555
C35 C24 1_555 1_555
C36 N9 1_555 1_555
H24 C36 1_555 1_555
C37 N9 1_555 1_555
H25 C37 1_555 1_555
C38 N10 1_555 1_555
C39 C40 1_555 1_555
C40 H26 1_555 1_555
C41 C40 1_555 1_555
C42 C41 1_555 1_555
H27 C42 1_555 1_555
C43 C42 1_555 1_555
C44 C39 1_555 1_555
H28 C44 1_555 1_555
N11 Pd13 1_555 1_555
C45 C39 1_555 1_555
C46 N11 1_555 1_555
H29 C46 1_555 1_555
C47 N11 1_555 1_555
H30 C47 1_555 1_555
C48 C47 1_555 1_555
H31 C48 1_555 1_555
C49 C45 1_555 1_555
H32 C49 1_555 1_555
N12 C51 1_555 1_555
N13 C52 1_555 1_555
C50 C41 1_555 1_555
C51 C50 1_555 1_555
H33 C51 1_555 1_555
C52 N12 1_555 1_555
H34 C52 1_555 1_555
C53 N13 1_555 1_555
H35 C53 1_555 1_555
N14 C55 1_555 1_555
N15 Pd12 1_555 1_555
C54 C43 1_555 1_555
C55 C54 1_555 1_555
H36 C55 1_555 1_555
C56 N14 1_555 1_555
H37 C56 1_555 1_555
C57 N15 1_555 1_555
H38 C57 1_555 1_555
C58 C59 1_555 1_555
C59 H39 1_555 1_555
C60 C59 1_555 1_555
C61 C60 1_555 1_555
H40 C61 1_555 1_555
C62 C61 1_555 1_555
C63 C58 1_555 1_555
H41 C63 1_555 1_555
N16 Pd15 1_555 1_555
C64 C58 1_555 1_555
C65 N16 1_555 1_555
H42 C65 1_555 1_555
C66 N16 1_555 1_555
H43 C66 1_555 1_555
C67 C66 1_555 1_555
H44 C67 1_555 1_555
C68 C64 1_555 1_555
H45 C68 1_555 1_555
N17 C70 1_555 1_555
N18 Pd11 1_555 1_555
C69 C60 1_555 1_555
C70 C69 1_555 1_555
H46 C70 1_555 1_555
C71 N17 1_555 1_555
H47 C71 1_555 1_555
C72 N18 1_555 1_555
H48 C72 1_555 1_555
N19 C74 1_555 1_555
N20 Pd10 1_555 1_555
C73 C62 1_555 1_555
C74 C73 1_555 1_555
H49 C74 1_555 1_555
C75 N19 1_555 1_555
H50 C75 1_555 1_555
C76 N20 1_555 1_555
H51 C76 1_555 1_555
C77 C78 1_555 1_555
C78 H52 1_555 1_555
C79 C78 1_555 1_555
C80 C79 1_555 1_555
H53 C80 1_555 1_555
C81 C80 1_555 1_555
C82 C77 1_555 1_555
H54 C82 1_555 1_555
N21 Pd8 1_555 1_555
C83 C77 1_555 1_555
C84 N21 1_555 1_555
H55 C84 1_555 1_555
C85 N21 1_555 1_555
H56 C85 1_555 1_555
C86 C85 1_555 1_555
H57 C86 1_555 1_555
C87 C83 1_555 1_555
H58 C87 1_555 1_555
N22 Pd1 1_555 1_555
N23 Pd9 1_555 1_555
C88 C79 1_555 1_555
C89 N22 1_555 1_555
H59 C89 1_555 1_555
C90 N22 1_555 1_555
H60 C90 1_555 1_555
C91 N23 1_555 1_555
H61 C91 1_555 1_555
N24 Pd4 1_555 1_555
N25 C94 1_555 1_555
C92 C81 1_555 1_555
C93 N24 1_555 1_555
H62 C93 1_555 1_555
C94 N24 1_555 1_555
H63 C94 1_555 1_555
C95 N25 1_555 1_555
H64 C95 1_555 1_555
C96 C97 1_555 1_555
C97 H65 1_555 1_555
C98 C97 1_555 1_555
C99 C98 1_555 1_555
H66 C99 1_555 1_555
C100 C99 1_555 1_555
C101 C96 1_555 1_555
H67 C101 1_555 1_555
N26 Pd7 1_555 1_555
C102 C96 1_555 1_555
C103 N26 1_555 1_555
H68 C103 1_555 1_555
C104 N26 1_555 1_555
H69 C104 1_555 1_555
C105 C104 1_555 1_555
H70 C105 1_555 1_555
C106 C102 1_555 1_555
H71 C106 1_555 1_555
N27 Pd6 1_555 1_555
N28 Pd14 1_555 1_555
C107 C98 1_555 1_555
C108 N27 1_555 1_555
H72 C108 1_555 1_555
C109 N27 1_555 1_555
H73 C109 1_555 1_555
C110 N28 1_555 1_555
H74 C110 1_555 1_555
N29 Pd5 1_555 1_555
N30 Pd2 1_555 1_555
C111 C100 1_555 1_555
C112 N29 1_555 1_555
H75 C112 1_555 1_555
C113 N29 1_555 1_555
H76 C113 1_555 1_555
C114 N30 1_555 1_555
H77 C114 1_555 1_555
C115 C116 1_555 1_555
C116 H78 1_555 1_555
C117 C116 1_555 1_555
C118 C117 1_555 1_555
H79 C118 1_555 1_555
C119 C118 1_555 1_555
C120 C115 1_555 1_555
H80 C120 1_555 1_555
N31 C122 1_555 1_555
C121 C115 1_555 1_555
C122 C121 1_555 1_555
H81 C122 1_555 1_555
C123 N31 1_555 1_555
H82 C123 1_555 1_555
C124 C123 1_555 1_555
H83 C124 1_555 1_555
C125 C121 1_555 1_555
H84 C125 1_555 1_555
N32 C127 1_555 1_555
N33 C128 1_555 1_555
C126 C117 1_555 1_555
C127 C126 1_555 1_555
H85 C127 1_555 1_555
C128 N32 1_555 1_555
H86 C128 1_555 1_555
C129 N33 1_555 1_555
H87 C129 1_555 1_555
N34 C131 1_555 1_555
N35 C132 1_555 1_555
C130 C119 1_555 1_555
C131 C130 1_555 1_555
H88 C131 1_555 1_555
C132 N34 1_555 1_555
H89 C132 1_555 1_555
C133 N35 1_555 1_555
H90 C133 1_555 1_555
C134 C135 1_555 1_555
C135 H91 1_555 1_555
C136 C135 1_555 1_555
C137 C136 1_555 1_555
H92 C137 1_555 1_555
C138 C137 1_555 1_555
C139 C134 1_555 1_555
H93 C139 1_555 1_555
N36 C141 1_555 1_555
C140 C134 1_555 1_555
C141 C140 1_555 1_555
H94 C141 1_555 1_555
C142 N36 1_555 1_555
H95 C142 1_555 1_555
C143 C142 1_555 1_555
H96 C143 1_555 1_555
C144 C140 1_555 1_555
H97 C144 1_555 1_555
N37 C146 1_555 1_555
N38 C147 1_555 1_555
C145 C136 1_555 1_555
C146 C145 1_555 1_555
H98 C146 1_555 1_555
C147 N37 1_555 1_555
H99 C147 1_555 1_555
C148 N38 1_555 1_555
H100 C148 1_555 1_555
N39 Pd25 1_555 1_555
N40 C151 1_555 1_555
C149 C138 1_555 1_555
C150 N39 1_555 1_555
H101 C150 1_555 1_555
C151 N39 1_555 1_555
H102 C151 1_555 1_555
C152 N40 1_555 1_555
H103 C152 1_555 1_555
C153 C154 1_555 1_555
C154 H104 1_555 1_555
C155 C154 1_555 1_555
C156 C155 1_555 1_555
H105 C156 1_555 1_555
C157 C156 1_555 1_555
C158 C153 1_555 1_555
H106 C158 1_555 1_555
N41 Pd17 1_555 1_555
C159 C153 1_555 1_555
C160 N41 1_555 1_555
H107 C160 1_555 1_555
C161 N41 1_555 1_555
H108 C161 1_555 1_555
C162 C161 1_555 1_555
H109 C162 1_555 1_555
C163 C159 1_555 1_555
H110 C163 1_555 1_555
N42 Pd26 1_555 1_555
N43 C166 1_555 1_555
C164 C155 1_555 1_555
C165 N42 1_555 1_555
H111 C165 1_555 1_555
C166 N42 1_555 1_555
H112 C166 1_555 1_555
C167 N43 1_555 1_555
H113 C167 1_555 1_555
N44 C169 1_555 1_555
N45 C170 1_555 1_555
C168 C157 1_555 1_555
C169 C168 1_555 1_555
H114 C169 1_555 1_555
C170 N44 1_555 1_555
H115 C170 1_555 1_555
C171 N45 1_555 1_555
H116 C171 1_555 1_555
C172 C173 1_555 1_555
C173 H117 1_555 1_555
C174 C173 1_555 1_555
C175 C174 1_555 1_555
H118 C175 1_555 1_555
C176 C175 1_555 1_555
C177 C172 1_555 1_555
H119 C177 1_555 1_555
N46 Pd20 1_555 1_555
C178 C172 1_555 1_555
C179 N46 1_555 1_555
H120 C179 1_555 1_555
C180 N46 1_555 1_555
H121 C180 1_555 1_555
C181 C180 1_555 1_555
H122 C181 1_555 1_555
C182 C178 1_555 1_555
H123 C182 1_555 1_555
N47 C184 1_555 1_555
N48 Pd27 1_555 1_555
C183 C174 1_555 1_555
C184 C183 1_555 1_555
H124 C184 1_555 1_555
C185 N47 1_555 1_555
H125 C185 1_555 1_555
C186 N48 1_555 1_555
H126 C186 1_555 1_555
N49 C188 1_555 1_555
N50 Pd21 1_555 1_555
C187 C176 1_555 1_555
C188 C187 1_555 1_555
H127 C188 1_555 1_555
C189 N49 1_555 1_555
H128 C189 1_555 1_555
C190 N50 1_555 1_555
H129 C190 1_555 1_555
C191 C192 1_555 1_555
C192 H130 1_555 1_555
C193 C192 1_555 1_555
C194 C193 1_555 1_555
H131 C194 1_555 1_555
C195 C194 1_555 1_555
C196 C191 1_555 1_555
H132 C196 1_555 1_555
N51 Pd24 1_555 1_555
C197 C191 1_555 1_555
C198 N51 1_555 1_555
H133 C198 1_555 1_555
C199 N51 1_555 1_555
H134 C199 1_555 1_555
C200 C199 1_555 1_555
H135 C200 1_555 1_555
C201 C197 1_555 1_555
H136 C201 1_555 1_555
N52 C203 1_555 1_555
N53 Pd29 1_555 1_555
C202 C193 1_555 1_555
C203 C202 1_555 1_555
H137 C203 1_555 1_555
C204 N52 1_555 1_555
H138 C204 1_555 1_555
C205 N53 1_555 1_555
H139 C205 1_555 1_555
N54 Pd18 1_555 1_555
N55 Pd28 1_555 1_555
C206 C195 1_555 1_555
C207 N54 1_555 1_555
H140 C207 1_555 1_555
C208 N54 1_555 1_555
H141 C208 1_555 1_555
C209 N55 1_555 1_555
H142 C209 1_555 1_555
C210 C211 1_555 1_555
C211 H143 1_555 1_555
C212 C211 1_555 1_555
C213 C212 1_555 1_555
H144 C213 1_555 1_555
C214 C213 1_555 1_555
C215 C210 1_555 1_555
H145 C215 1_555 1_555
N56 Pd22 1_555 1_555
C216 C210 1_555 1_555
C217 N56 1_555 1_555
H146 C217 1_555 1_555
C218 N56 1_555 1_555
H147 C218 1_555 1_555
C219 C218 1_555 1_555
H148 C219 1_555 1_555
C220 C216 1_555 1_555
H149 C220 1_555 1_555
N57 Pd19 1_555 1_555
N58 Pd30 1_555 1_555
C221 C212 1_555 1_555
C222 N57 1_555 1_555
H150 C222 1_555 1_555
C223 N57 1_555 1_555
H151 C223 1_555 1_555
C224 N58 1_555 1_555
H152 C224 1_555 1_555
N59 Pd16 1_555 1_555
N60 Pd23 1_555 1_555
C225 C214 1_555 1_555
C226 N59 1_555 1_555
H153 C226 1_555 1_555
C227 N59 1_555 1_555
H154 C227 1_555 1_555
C228 N60 1_555 1_555
H155 C228 1_555 1_555
N61 Pd1 1_555 1_555
H156 N61 1_555 1_555
H157 N61 1_555 1_555
N62 Pd1 1_555 1_555
H158 N62 1_555 1_555
H159 N62 1_555 1_555
C229 N62 1_555 1_555
H160 C229 1_555 1_555
H161 C229 1_555 1_555
C230 N61 1_555 1_555
H162 C230 1_555 1_555
H163 C230 1_555 1_555
N63 Pd2 1_555 1_555
H164 N63 1_555 1_555
H165 N63 1_555 1_555
N64 Pd2 1_555 1_555
H166 N64 1_555 1_555
H167 N64 1_555 1_555
C231 N64 1_555 1_555
H168 C231 1_555 1_555
H169 C231 1_555 1_555
C232 N63 1_555 1_555
H170 C232 1_555 1_555
H171 C232 1_555 1_555
N65 Pd3 1_555 1_555
H172 N65 1_555 1_555
H173 N65 1_555 1_555
N66 Pd3 1_555 1_555
H174 N66 1_555 1_555
H175 N66 1_555 1_555
C233 N65 1_555 1_555
H176 C233 1_555 1_555
H177 C233 1_555 1_555
C234 N66 1_555 1_555
H178 C234 1_555 1_555
H179 C234 1_555 1_555
N67 Pd4 1_555 1_555
H180 N67 1_555 1_555
H181 N67 1_555 1_555
N68 Pd4 1_555 1_555
H182 N68 1_555 1_555
H183 N68 1_555 1_555
C235 N67 1_555 1_555
H184 C235 1_555 1_555
H185 C235 1_555 1_555
C236 N68 1_555 1_555
H186 C236 1_555 1_555
H187 C236 1_555 1_555
N69 Pd5 1_555 1_555
H188 N69 1_555 1_555
H189 N69 1_555 1_555
N70 Pd5 1_555 1_555
H190 N70 1_555 1_555
H191 N70 1_555 1_555
C237 N69 1_555 1_555
H192 C237 1_555 1_555
H193 C237 1_555 1_555
C238 N70 1_555 1_555
H194 C238 1_555 1_555
H195 C238 1_555 1_555
N71 Pd6 1_555 1_555
H196 N71 1_555 1_555
H197 N71 1_555 1_555
N72 Pd6 1_555 1_555
H198 N72 1_555 1_555
H199 N72 1_555 1_555
C239 N72 1_555 1_555
H200 C239 1_555 1_555
H201 C239 1_555 1_555
C240 N71 1_555 1_555
H202 C240 1_555 1_555
H203 C240 1_555 1_555
N73 Pd7 1_555 1_555
H204 N73 1_555 1_555
H205 N73 1_555 1_555
N74 Pd7 1_555 1_555
H206 N74 1_555 1_555
H207 N74 1_555 1_555
C241 N73 1_555 1_555
H208 C241 1_555 1_555
H209 C241 1_555 1_555
C242 N74 1_555 1_555
H210 C242 1_555 1_555
H211 C242 1_555 1_555
N75 Pd8 1_555 1_555
H212 N75 1_555 1_555
H213 N75 1_555 1_555
N76 Pd8 1_555 1_555
H214 N76 1_555 1_555
H215 N76 1_555 1_555
C243 N75 1_555 1_555
H216 C243 1_555 1_555
H217 C243 1_555 1_555
C244 N76 1_555 1_555
H218 C244 1_555 1_555
H219 C244 1_555 1_555
N77 Pd9 1_555 1_555
H220 N77 1_555 1_555
H221 N77 1_555 1_555
N78 Pd9 1_555 1_555
H222 N78 1_555 1_555
H223 N78 1_555 1_555
C245 N78 1_555 1_555
H224 C245 1_555 1_555
H225 C245 1_555 1_555
C246 N77 1_555 1_555
H226 C246 1_555 1_555
H227 C246 1_555 1_555
N79 Pd10 1_555 1_555
H228 N79 1_555 1_555
H229 N79 1_555 1_555
N80 Pd10 1_555 1_555
H230 N80 1_555 1_555
H231 N80 1_555 1_555
C247 N79 1_555 1_555
H232 C247 1_555 1_555
H233 C247 1_555 1_555
C248 N80 1_555 1_555
H234 C248 1_555 1_555
H235 C248 1_555 1_555
N81 Pd11 1_555 1_555
H236 N81 1_555 1_555
H237 N81 1_555 1_555
N82 Pd11 1_555 1_555
H238 N82 1_555 1_555
H239 N82 1_555 1_555
C249 N82 1_555 1_555
H240 C249 1_555 1_555
H241 C249 1_555 1_555
C250 N81 1_555 1_555
H242 C250 1_555 1_555
H243 C250 1_555 1_555
N83 Pd12 1_555 1_555
H244 N83 1_555 1_555
H245 N83 1_555 1_555
N84 Pd12 1_555 1_555
H246 N84 1_555 1_555
H247 N84 1_555 1_555
C251 N83 1_555 1_555
H248 C251 1_555 1_555
H249 C251 1_555 1_555
C252 N84 1_555 1_555
H250 C252 1_555 1_555
H251 C252 1_555 1_555
N85 Pd13 1_555 1_555
H252 N85 1_555 1_555
H253 N85 1_555 1_555
N86 Pd13 1_555 1_555
H254 N86 1_555 1_555
H255 N86 1_555 1_555
C253 N85 1_555 1_555
H256 C253 1_555 1_555
H257 C253 1_555 1_555
C254 N86 1_555 1_555
H258 C254 1_555 1_555
H259 C254 1_555 1_555
N87 Pd14 1_555 1_555
H260 N87 1_555 1_555
H261 N87 1_555 1_555
N88 Pd14 1_555 1_555
H262 N88 1_555 1_555
H263 N88 1_555 1_555
C255 N87 1_555 1_555
H264 C255 1_555 1_555
H265 C255 1_555 1_555
C256 N88 1_555 1_555
H266 C256 1_555 1_555
H267 C256 1_555 1_555
N89 Pd15 1_555 1_555
H268 N89 1_555 1_555
H269 N89 1_555 1_555
N90 Pd15 1_555 1_555
H270 N90 1_555 1_555
H271 N90 1_555 1_555
C257 N89 1_555 1_555
H272 C257 1_555 1_555
H273 C257 1_555 1_555
C258 N90 1_555 1_555
H274 C258 1_555 1_555
H275 C258 1_555 1_555
N91 Pd16 1_555 1_555
H276 N91 1_555 1_555
H277 N91 1_555 1_555
N92 Pd16 1_555 1_555
H278 N92 1_555 1_555
H279 N92 1_555 1_555
C259 N91 1_555 1_555
H280 C259 1_555 1_555
H281 C259 1_555 1_555
C260 N92 1_555 1_555
H282 C260 1_555 1_555
H283 C260 1_555 1_555
N93 Pd17 1_555 1_555
H284 N93 1_555 1_555
H285 N93 1_555 1_555
N94 Pd17 1_555 1_555
H286 N94 1_555 1_555
H287 N94 1_555 1_555
C261 N93 1_555 1_555
H288 C261 1_555 1_555
H289 C261 1_555 1_555
C262 N94 1_555 1_555
H290 C262 1_555 1_555
H291 C262 1_555 1_555
N95 Pd18 1_555 1_555
H292 N95 1_555 1_555
H293 N95 1_555 1_555
N96 Pd18 1_555 1_555
H294 N96 1_555 1_555
H295 N96 1_555 1_555
C263 N95 1_555 1_555
H296 C263 1_555 1_555
H297 C263 1_555 1_555
C264 N96 1_555 1_555
H298 C264 1_555 1_555
H299 C264 1_555 1_555
N97 Pd19 1_555 1_555
H300 N97 1_555 1_555
H301 N97 1_555 1_555
N98 Pd19 1_555 1_555
H302 N98 1_555 1_555
H303 N98 1_555 1_555
C265 N98 1_555 1_555
H304 C265 1_555 1_555
H305 C265 1_555 1_555
C266 N97 1_555 1_555
H306 C266 1_555 1_555
H307 C266 1_555 1_555
N99 Pd20 1_555 1_555
H308 N99 1_555 1_555
H309 N99 1_555 1_555
N100 Pd20 1_555 1_555
H310 N100 1_555 1_555
H311 N100 1_555 1_555
C267 N99 1_555 1_555
H312 C267 1_555 1_555
H313 C267 1_555 1_555
C268 N100 1_555 1_555
H314 C268 1_555 1_555
H315 C268 1_555 1_555
N101 Pd21 1_555 1_555
H316 N101 1_555 1_555
H317 N101 1_555 1_555
N102 Pd21 1_555 1_555
H318 N102 1_555 1_555
H319 N102 1_555 1_555
C269 N101 1_555 1_555
H320 C269 1_555 1_555
H321 C269 1_555 1_555
C270 N102 1_555 1_555
H322 C270 1_555 1_555
H323 C270 1_555 1_555
N103 Pd22 1_555 1_555
H324 N103 1_555 1_555
H325 N103 1_555 1_555
N104 Pd22 1_555 1_555
H326 N104 1_555 1_555
H327 N104 1_555 1_555
C271 N103 1_555 1_555
H328 C271 1_555 1_555
H329 C271 1_555 1_555
C272 N104 1_555 1_555
H330 C272 1_555 1_555
H331 C272 1_555 1_555
N105 Pd23 1_555 1_555
H332 N105 1_555 1_555
H333 N105 1_555 1_555
N106 Pd23 1_555 1_555
H334 N106 1_555 1_555
H335 N106 1_555 1_555
C273 N106 1_555 1_555
H336 C273 1_555 1_555
H337 C273 1_555 1_555
C274 N105 1_555 1_555
H338 C274 1_555 1_555
H339 C274 1_555 1_555
N107 Pd24 1_555 1_555
H340 N107 1_555 1_555
H341 N107 1_555 1_555
N108 Pd24 1_555 1_555
H342 N108 1_555 1_555
H343 N108 1_555 1_555
C275 N107 1_555 1_555
H344 C275 1_555 1_555
H345 C275 1_555 1_555
C276 N108 1_555 1_555
H346 C276 1_555 1_555
H347 C276 1_555 1_555
N109 Pd25 1_555 1_555
H348 N109 1_555 1_555
H349 N109 1_555 1_555
N110 Pd25 1_555 1_555
H350 N110 1_555 1_555
H351 N110 1_555 1_555
C277 N109 1_555 1_555
H352 C277 1_555 1_555
H353 C277 1_555 1_555
C278 N110 1_555 1_555
H354 C278 1_555 1_555
H355 C278 1_555 1_555
N111 Pd26 1_555 1_555
H356 N111 1_555 1_555
H357 N111 1_555 1_555
N112 Pd26 1_555 1_555
H358 N112 1_555 1_555
H359 N112 1_555 1_555
C279 N111 1_555 1_555
H360 C279 1_555 1_555
H361 C279 1_555 1_555
C280 N112 1_555 1_555
H362 C280 1_555 1_555
H363 C280 1_555 1_555
N113 Pd27 1_555 1_555
H364 N113 1_555 1_555
H365 N113 1_555 1_555
N114 Pd27 1_555 1_555
H366 N114 1_555 1_555
H367 N114 1_555 1_555
C281 N113 1_555 1_555
H368 C281 1_555 1_555
H369 C281 1_555 1_555
C282 N114 1_555 1_555
H370 C282 1_555 1_555
H371 C282 1_555 1_555
N115 Pd28 1_555 1_555
H372 N115 1_555 1_555
H373 N115 1_555 1_555
N116 Pd28 1_555 1_555
H374 N116 1_555 1_555
H375 N116 1_555 1_555
C283 N116 1_555 1_555
H376 C283 1_555 1_555
H377 C283 1_555 1_555
C284 N115 1_555 1_555
H378 C284 1_555 1_555
H379 C284 1_555 1_555
N117 Pd29 1_555 1_555
H380 N117 1_555 1_555
H381 N117 1_555 1_555
N118 Pd29 1_555 1_555
H382 N118 1_555 1_555
H383 N118 1_555 1_555
C285 N118 1_555 1_555
H384 C285 1_555 1_555
H385 C285 1_555 1_555
C286 N117 1_555 1_555
H386 C286 1_555 1_555
H387 C286 1_555 1_555
N119 Pd30 1_555 1_555
H388 N119 1_555 1_555
H389 N119 1_555 1_555
N120 Pd30 1_555 1_555
H390 N120 1_555 1_555
H391 N120 1_555 1_555
C287 N120 1_555 1_555
H392 C287 1_555 1_555
H393 C287 1_555 1_555
C288 N119 1_555 1_555
H394 C288 1_555 1_555
H395 C288 1_555 1_555
N121 O1 1_555 1_555
O2 N121 1_555 1_555
O3 N121 1_555 1_555
C289 O4 1_555 1_555
C5 C6 1_555 1_555
C10 C11 1_555 1_555
C12 C15 1_555 1_555
C16 C19 1_555 1_555
C24 C25 1_555 1_555
C29 C30 1_555 1_555
C31 C34 1_555 1_555
C35 C36 1_555 1_555
C35 C38 1_555 1_555
C43 C44 1_555 1_555
C45 C46 1_555 1_555
C48 C49 1_555 1_555
C50 C53 1_555 1_555
N15 C56 1_555 1_555
C54 C57 1_555 1_555
C62 C63 1_555 1_555
C64 C65 1_555 1_555
C67 C68 1_555 1_555
N18 C71 1_555 1_555
C69 C72 1_555 1_555
N20 C75 1_555 1_555
C73 C76 1_555 1_555
C81 C82 1_555 1_555
C83 C84 1_555 1_555
C86 C87 1_555 1_555
N23 C90 1_555 1_555
C88 C89 1_555 1_555
C88 C91 1_555 1_555
C92 C93 1_555 1_555
C92 C95 1_555 1_555
C100 C101 1_555 1_555
C102 C103 1_555 1_555
C105 C106 1_555 1_555
N28 C109 1_555 1_555
C107 C108 1_555 1_555
C107 C110 1_555 1_555
N30 C113 1_555 1_555
C111 C112 1_555 1_555
C111 C114 1_555 1_555
C119 C120 1_555 1_555
C124 C125 1_555 1_555
C126 C129 1_555 1_555
C130 C133 1_555 1_555
C138 C139 1_555 1_555
C143 C144 1_555 1_555
C145 C148 1_555 1_555
C149 C150 1_555 1_555
C149 C152 1_555 1_555
C157 C158 1_555 1_555
C159 C160 1_555 1_555
C162 C163 1_555 1_555
C164 C165 1_555 1_555
C164 C167 1_555 1_555
C168 C171 1_555 1_555
C176 C177 1_555 1_555
C178 C179 1_555 1_555
C181 C182 1_555 1_555
N48 C185 1_555 1_555
C183 C186 1_555 1_555
N50 C189 1_555 1_555
C187 C190 1_555 1_555
C195 C196 1_555 1_555
C197 C198 1_555 1_555
C200 C201 1_555 1_555
N53 C204 1_555 1_555
C202 C205 1_555 1_555
N55 C208 1_555 1_555
C206 C207 1_555 1_555
C206 C209 1_555 1_555
C214 C215 1_555 1_555
C216 C217 1_555 1_555
C219 C220 1_555 1_555
N58 C223 1_555 1_555
C221 C222 1_555 1_555
C221 C224 1_555 1_555
N60 C227 1_555 1_555
C225 C226 1_555 1_555
C225 C228 1_555 1_555
C229 C230 1_555 1_555
C231 C232 1_555 1_555
C233 C234 1_555 1_555
C235 C236 1_555 1_555
C237 C238 1_555 1_555
C239 C240 1_555 1_555
C241 C242 1_555 1_555
C243 C244 1_555 1_555
C245 C246 1_555 1_555
C247 C248 1_555 1_555
C249 C250 1_555 1_555
C251 C252 1_555 1_555
C253 C254 1_555 1_555
C255 C256 1_555 1_555
C257 C258 1_555 1_555
C259 C260 1_555 1_555
C261 C262 1_555 1_555
C263 C264 1_555 1_555
C265 C266 1_555 1_555
C267 C268 1_555 1_555
C269 C270 1_555 1_555
C271 C272 1_555 1_555
C273 C274 1_555 1_555
C275 C276 1_555 1_555
C277 C278 1_555 1_555
C279 C280 1_555 1_555
C281 C282 1_555 1_555
C283 C284 1_555 1_555
C285 C286 1_555 1_555
C287 C288 1_555 1_555

#END
