
#######################################################################
#
#                 Cambridge Crystallographic Data Centre
#                                CCDC 
#
#######################################################################
#
# If this CIF has been generated from an entry in the Cambridge 
# Structural Database, then it will include bibliographic, chemical, 
# crystal, experimental, refinement or atomic coordinate data resulting 
# from the CCDC's data processing and validation procedures.
#
#######################################################################

data_RAKTAY
_chemical_formula_moiety         'C142 H132 N16 O4 Zn2'
_chemical_name_systematic        
bis((\m~2~-5-(4-(6-(N-(4-Pyridyl)carbamoyl)pyridine-2-carboxamido)phenyl)-10,15,20-tris(4-n-pentylphenyl)porphyrin)-zinc(ii))
_symmetry_cell_setting           triclinic
_symmetry_space_group_name_H-M   'P -1'
_symmetry_Int_Tables_number      2
_space_group_name_Hall           '-P 1'
loop_
_symmetry_equiv_pos_site_id
_symmetry_equiv_pos_as_xyz
1 x,y,z
2 -x,-y,-z
_cell_length_a                   11.676(7)
_cell_length_b                   16.849(10)
_cell_length_c                   17.478(11)
_cell_angle_alpha                116.307(12)
_cell_angle_beta                 100.205(14)
_cell_angle_gamma                95.904(13)
_cell_volume                     2968.76
_exptl_crystal_colour            purple
_exptl_crystal_description       block
_cell_formula_units_Z            1
loop_
_atom_site_label
_atom_site_type_symbol
_atom_site_fract_x
_atom_site_fract_y
_atom_site_fract_z
Zn1 Zn 0.30257(9) 0.45632(5) 1.16221(6)
O1 O 1.0793(5) 0.8975(3) 1.3753(4)
O2 O 1.0352(6) 1.3506(3) 1.5213(4)
N1 N 0.3839(6) 0.5448(4) 1.1270(4)
N2 N 0.1767(6) 0.4009(4) 1.0421(4)
N3 N 0.2493(6) 0.3418(4) 1.1736(4)
N4 N 0.4577(6) 0.4860(4) 1.2577(4)
N5 N 0.9035(6) 0.9442(4) 1.3899(4)
H1 H 0.8735 0.9919 1.4081
N6 N 1.0204(6) 1.1176(4) 1.4535(4)
N7 N 0.9432(6) 1.2606(4) 1.5681(4)
H2 H 0.9301 1.2063 1.5609
N8 N 0.2213(6) 0.5539(4) 1.2548(4)
C1 C 0.5565(7) 0.6205(4) 1.2568(5)
C2 C 0.4802(8) 0.6136(5) 1.1816(5)
C3 C 0.4892(7) 0.6805(5) 1.1509(5)
H3 H 0.5447 0.7347 1.1770
C4 C 0.4001(8) 0.6482(5) 1.0760(5)
H4 H 0.3843 0.6761 1.0409
C5 C 0.3345(7) 0.5628(5) 1.0610(5)
C6 C 0.2389(7) 0.5073(5) 0.9892(5)
C7 C 0.1665(7) 0.4288(5) 0.9797(5)
C8 C 0.0730(7) 0.3685(5) 0.9039(5)
H5 H 0.0502 0.3732 0.8526
C9 C 0.0231(7) 0.3024(5) 0.9205(5)
H6 H -0.0400 0.2541 0.8835
C10 C 0.0893(7) 0.3235(5) 1.0075(5)
C11 C 0.0688(7) 0.2696(5) 1.0487(5)
C12 C 0.1430(7) 0.2798(5) 1.1257(5)
C13 C 0.1255(8) 0.2244(5) 1.1675(5)
H7 H 0.0585 0.1799 1.1513
C14 C 0.2214(8) 0.2473(5) 1.2339(6)
H8 H 0.2347 0.2208 1.2706
C15 C 0.3007(7) 0.3222(5) 1.2369(5)
C16 C 0.4119(7) 0.3631(5) 1.2953(5)
C17 C 0.4866(8) 0.4412(5) 1.3056(5)
C18 C 0.5988(8) 0.4877(5) 1.3672(5)
H9 H 0.6381 0.4710 1.4072
C19 C 0.6381(8) 0.5595(5) 1.3576(5)
H10 H 0.7088 0.6018 1.3896
C20 C 0.5505(8) 0.5584(5) 1.2890(5)
C21 C 0.6580(7) 0.7015(4) 1.3000(4)
C22 C 0.7566(8) 0.7023(5) 1.2661(5)
H11 H 0.7664 0.6489 1.2211
C23 C 0.8400(8) 0.7800(5) 1.2975(5)
H12 H 0.9068 0.7789 1.2752
C24 C 0.8242(7) 0.8614(5) 1.3631(5)
C25 C 0.7291(8) 0.8609(5) 1.3980(5)
H13 H 0.7201 0.9144 1.4432
C26 C 0.6451(7) 0.7822(5) 1.3676(5)
H14 H 0.5804 0.7832 1.3921
C27 C 1.0179(7) 0.9575(5) 1.3903(5)
C28 C 1.0740(7) 1.0497(4) 1.4075(5)
C29 C 1.1703(7) 1.0634(5) 1.3785(5)
H15 H 1.2041 1.0147 1.3482
C30 C 1.2190(7) 1.1480(5) 1.3930(5)
H16 H 1.2848 1.1581 1.3729
C31 C 1.1642(7) 1.2189(5) 1.4401(5)
H17 H 1.1933 1.2778 1.4521
C32 C 1.0686(7) 1.2001(5) 1.4677(5)
C33 C 1.0147(7) 1.2790(5) 1.5222(5)
C34 C 0.8881(7) 1.3246(5) 1.6272(5)
C35 C 0.8591(7) 1.3119(5) 1.6948(5)
H18 H 0.8754 1.2622 1.7016
C36 C 0.1946(7) 0.6260(5) 1.2474(5)
H19 H 0.2126 0.6348 1.2016
C37 C 0.1972(8) 0.5456(5) 1.3234(5)
H20 H 0.2189 0.4974 1.3308
C38 C 0.8570(8) 1.3975(5) 1.6163(5)
H21 H 0.8722 1.4072 1.5703
C39 C 0.2099(7) 0.5331(4) 0.9184(5)
C40 C 0.2995(7) 0.5528(5) 0.8806(5)
H22 H 0.3763 0.5463 0.8985
C41 C 0.2752(7) 0.5813(5) 0.8182(5)
H23 H 0.3360 0.5932 0.7945
C42 C 0.1632(8) 0.5929(5) 0.7896(5)
C43 C 0.0727(8) 0.5714(5) 0.8244(5)
H24 H -0.0044 0.5760 0.8046
C44 C 0.0967(7) 0.5436(4) 0.8877(5)
H25 H 0.0353 0.5314 0.9107
C45 C -0.0365(7) 0.1932(5) 1.0032(5)
C46 C -0.1514(8) 0.2086(6) 0.9950(6)
H26 H -0.1628 0.2677 1.0166
C47 C -0.2486(9) 0.1388(5) 0.9557(6)
H27 H -0.3238 0.1525 0.9525
C48 C -0.2401(9) 0.0485(6) 0.9206(7)
C49 C -0.1242(8) 0.0329(5) 0.9252(6)
H28 H -0.1132 -0.0263 0.8998
C50 C -0.0264(8) 0.1027(5) 0.9663(6)
H29 H 0.0490 0.0892 0.9696
C51 C 0.4624(7) 0.3188(5) 1.3463(5)
C52 C 0.4639(8) 0.3462(5) 1.4340(5)
H30 H 0.4322 0.3961 1.4645
C53 C 0.5119(8) 0.3006(6) 1.4767(6)
H31 H 0.5117 0.3205 1.5355
C54 C 0.5609(7) 0.2255(5) 1.4337(5)
C55 C 0.5612(9) 0.1993(6) 1.3484(6)
H32 H 0.5946 0.1501 1.3188
C56 C 0.5130(8) 0.2441(5) 1.3037(5)
H33 H 0.5144 0.2242 1.2451
C57 C 0.1370(9) 0.6314(6) 0.7274(6)
H34 H 0.0521 0.6156 0.7011
H35 H 0.1765 0.6046 0.6803
C58 C 0.1788(9) 0.7362(6) 0.7745(7)
H36 H 0.1426 0.7617 0.8237
H37 H 0.2642 0.7508 0.7986
C59 C 0.1517(11) 0.7814(8) 0.7197(10)
H38 H 0.0664 0.7695 0.6964
H39 H 0.1881 0.7578 0.6704
C60 C 0.1994(14) 0.8830(9) 0.7756(15)
H40 H 0.2535 0.8964 0.8307
H41 H 0.2412 0.9066 0.7443
C61 C 0.0954(15) 0.9217(12) 0.7913(14)
H42 H 0.0388 0.9016 0.7360
H43 H 0.1183 0.9865 0.8205
H44 H 0.0603 0.9027 0.8277
C62 C -0.3526(11) -0.0248(8) 0.8649(10)
H45 H -0.4078 -0.0029 0.8342
H46 H -0.3326 -0.0781 0.8214
C63 C -0.4083(13) -0.0479(9) 0.9254(10)
H47 H -0.4886 -0.0822 0.8938
H48 H -0.4138 0.0079 0.9745
C64 C -0.3394(14) -0.1043(10) 0.9634(10)
H49 H -0.3277 -0.1575 0.9144
H50 H -0.2614 -0.0678 0.9993
C65 C -0.3993(16) -0.1336(11) 1.0168(11)
H51 H -0.4812 -0.1626 0.9844
H52 H -0.4000 -0.0807 1.0707
C66 C -0.3365(16) -0.2024(10) 1.0415(13)
H53 H -0.3558 -0.2611 0.9908
H54 H -0.3643 -0.2063 1.0885
H55 H -0.2519 -0.1808 1.0601
C67 C 0.6131(8) 0.1742(6) 1.4796(6)
H56 H 0.5748 0.1818 1.5266
H57 H 0.6970 0.2009 1.5063
C68 C 0.5993(13) 0.0702(9) 1.4173(11)
H58 H 0.6406 0.0630 1.3718
H59 H 0.6385 0.0440 1.4514
C69 C 0.4762(9) 0.0187(6) 1.3744(6)
H60 H 0.4356 0.0475 1.3435
H61 H 0.4366 0.0230 1.4200
C70 C 0.4614(15) -0.0788(9) 1.3108(14)
H62 H 0.4983 -0.0829 1.2641
H63 H 0.5050 -0.1069 1.3412
C71 C 0.3402(14) -0.1317(7) 1.2705(9)
H64 H 0.3418 -0.1932 1.2316
H65 H 0.2964 -0.1067 1.2376
H66 H 0.3025 -0.1298 1.3156
C35A C 0.1409(7) 0.6881(5) 1.3052(5)
C34A C 0.1119(7) 0.6754(5) 1.3728(5)
N7A N 0.0568(6) 0.7394(4) 1.4319(4)
H2A H 0.0699 0.7937 1.4391
C33A C -0.0147(7) 0.7210(5) 1.4778(5)
O2A O -0.0352(6) 0.6494(3) 1.4787(4)
C32A C -0.0686(7) 0.7999(5) 1.5323(5)
N6A N -0.0204(6) 0.8824(4) 1.5465(4)
C28A C -0.0740(7) 0.9503(4) 1.5925(5)
C27A C -0.0179(7) 1.0425(5) 1.6097(5)
O1A O -0.0793(5) 1.1025(3) 1.6247(4)
N5A N 0.0965(6) 1.0558(4) 1.6101(4)
H1A H 0.1265 1.0081 1.5919
C24A C 0.1758(7) 1.1386(5) 1.6369(5)
C23A C 0.1600(8) 1.2200(5) 1.7025(5)
C22A C 0.2434(8) 1.2977(5) 1.7339(5)
C21A C 0.3420(7) 1.2985(4) 1.7000(4)
C1A C 0.4435(7) 1.3795(4) 1.7432(5)
C2A C 0.5198(8) 1.3864(5) 1.8184(5)
N1A N 0.6161(6) 1.4552(4) 1.8730(4)
Zn1A Zn 0.69743(9) 1.54368(5) 1.83779(6)
N2A N 0.8233(6) 1.5991(4) 1.9579(4)
C7A C 0.8335(7) 1.5712(5) 2.0203(5)
C6A C 0.7611(7) 1.4927(5) 2.0108(5)
C5A C 0.6655(7) 1.4372(5) 1.9390(5)
C4A C 0.5999(8) 1.3518(5) 1.9240(5)
C3A C 0.5108(7) 1.3195(5) 1.8491(5)
H3A H 0.4553 1.2653 1.8230
H4A H 0.6157 1.3239 1.9591
C39A C 0.7901(7) 1.4669(4) 2.0816(5)
C40A C 0.7005(7) 1.4472(5) 2.1194(5)
H22A H 0.6237 1.4537 2.1015
C41A C 0.7248(7) 1.4187(5) 2.1818(5)
H23A H 0.6640 1.4068 2.2055
C42A C 0.8368(8) 1.4071(5) 2.2104(5)
C43A C 0.9273(8) 1.4286(5) 2.1756(5)
H24A H 1.0044 1.4240 2.1954
C44A C 0.9033(7) 1.4564(4) 2.1123(5)
H25A H 0.9647 1.4686 2.0893
C57A C 0.8630(9) 1.3686(6) 2.2726(6)
H34A H 0.9479 1.3844 2.2989
H35A H 0.8235 1.3954 2.3197
C58A C 0.8212(9) 1.2638(6) 2.2255(7)
H36A H 0.8574 1.2383 2.1763
H37A H 0.7358 1.2492 2.2014
C59A C 0.8483(11) 1.2186(8) 2.2803(10)
H38A H 0.9336 1.2305 2.3036
H39A H 0.8119 1.2422 2.3296
C60A C 0.8006(14) 1.1170(9) 2.2244(15)
H40A H 0.7465 1.1036 2.1693
H41A H 0.7588 1.0934 2.2557
C61A C 0.9046(15) 1.0783(12) 2.2087(14)
H42A H 0.9612 1.0984 2.2640
H43A H 0.8817 1.0135 2.1795
H44A H 0.9397 1.0973 2.1723
C8A C 0.9270(7) 1.6315(5) 2.0961(5)
H5A H 0.9498 1.6268 2.1474
C9A C 0.9769(7) 1.6976(5) 2.0795(5)
H6A H 1.0400 1.7459 2.1165
C10A C 0.9107(7) 1.6765(5) 1.9925(5)
C11A C 0.9312(7) 1.7304(5) 1.9513(5)
C12A C 0.8570(7) 1.7202(5) 1.8743(5)
N3A N 0.7507(6) 1.6582(4) 1.8264(4)
N4A N 0.5423(6) 1.5140(4) 1.7423(4)
C17A C 0.5134(8) 1.5588(5) 1.6944(5)
C16A C 0.5881(7) 1.6369(5) 1.7047(5)
C15A C 0.6993(7) 1.6778(5) 1.7631(5)
C14A C 0.7786(8) 1.7527(5) 1.7661(6)
C13A C 0.8745(8) 1.7756(5) 1.8325(5)
H7A H 0.9415 1.8201 1.8487
H8A H 0.7653 1.7792 1.7294
C51A C 0.5376(7) 1.6812(5) 1.6537(5)
C52A C 0.5361(8) 1.6538(5) 1.5660(5)
H30A H 0.5678 1.6039 1.5355
C53A C 0.4881(8) 1.6994(6) 1.5233(6)
H31A H 0.4883 1.6795 1.4645
C54A C 0.4391(7) 1.7745(5) 1.5663(5)
C55A C 0.4388(9) 1.8007(6) 1.6516(6)
H32A H 0.4054 1.8499 1.6812
C56A C 0.4870(8) 1.7559(5) 1.6963(5)
H33A H 0.4856 1.7758 1.7549
C67A C 0.3869(8) 1.8258(6) 1.5204(6)
H56A H 0.4252 1.8182 1.4734
H57A H 0.3030 1.7991 1.4937
C68A C 0.4007(13) 1.9298(9) 1.5827(11)
H58A H 0.3594 1.9370 1.6282
H59A H 0.3615 1.9560 1.5486
C69A C 0.5238(9) 1.9813(6) 1.6256(6)
H60A H 0.5644 1.9525 1.6565
H61A H 0.5634 1.9770 1.5800
C70A C 0.5386(15) 2.0788(9) 1.6892(14)
H62A H 0.5017 2.0829 1.7359
H63A H 0.4950 2.1069 1.6588
C71A C 0.6598(14) 2.1317(7) 1.7295(9)
H64A H 0.6582 2.1932 1.7684
H65A H 0.7036 2.1067 1.7624
H66A H 0.6975 2.1298 1.6844
C18A C 0.4012(8) 1.5123(5) 1.6328(5)
H9A H 0.3619 1.5290 1.5928
C19A C 0.3619(8) 1.4405(5) 1.6424(5)
H10A H 0.2912 1.3982 1.6104
C20A C 0.4495(8) 1.4416(5) 1.7110(5)
N8A N 0.7787(6) 1.4461(4) 1.7452(4)
C36A C 0.8054(7) 1.3740(5) 1.7526(5)
C37A C 0.8028(8) 1.4544(5) 1.6766(5)
H20A H 0.7811 1.5026 1.6692
H19A H 0.7874 1.3652 1.7984
C45A C 1.0365(7) 1.8068(5) 1.9968(5)
C46A C 1.1514(8) 1.7914(6) 2.0050(6)
H26A H 1.1628 1.7323 1.9834
C47A C 1.2486(9) 1.8612(5) 2.0443(6)
H27A H 1.3238 1.8475 2.0475
C48A C 1.2401(9) 1.9515(6) 2.0794(7)
C49A C 1.1242(8) 1.9671(5) 2.0748(6)
H28A H 1.1132 2.0263 2.1002
C50A C 1.0264(8) 1.8973(5) 2.0337(6)
H29A H 0.9510 1.9108 2.0304
C62A C 1.3526(11) 2.0248(8) 2.1351(10)
H45A H 1.4078 2.0029 2.1658
H46A H 1.3326 2.0781 2.1786
C63A C 1.4083(13) 2.0479(9) 2.0746(10)
H47A H 1.4886 2.0822 2.1062
H48A H 1.4138 1.9921 2.0255
C64A C 1.3394(14) 2.1043(10) 2.0366(10)
H49A H 1.3277 2.1575 2.0856
H50A H 1.2614 2.0678 2.0007
C65A C 1.3993(16) 2.1336(11) 1.9832(11)
H51A H 1.4812 2.1626 2.0156
H52A H 1.4000 2.0807 1.9293
C66A C 1.3365(16) 2.2024(10) 1.9585(13)
H53A H 1.3558 2.2611 2.0092
H54A H 1.3643 2.2063 1.9115
H55A H 1.2519 2.1808 1.9399
C26A C 0.3549(7) 1.2178(5) 1.6324(5)
C25A C 0.2709(8) 1.1391(5) 1.6020(5)
H13A H 0.2799 1.0856 1.5568
H14A H 0.4196 1.2168 1.6079
H11A H 0.2336 1.3511 1.7789
H12A H 0.0932 1.2211 1.7248
C29A C -0.1703(7) 0.9366(5) 1.6215(5)
H15A H -0.2041 0.9853 1.6518
C30A C -0.2190(7) 0.8520(5) 1.6070(5)
H16A H -0.2848 0.8419 1.6271
C31A C -0.1642(7) 0.7811(5) 1.5599(5)
H17A H -0.1933 0.7222 1.5479
C38A C 0.1430(8) 0.6025(5) 1.3837(5)
H21A H 0.1278 0.5928 1.4297
H18A H 0.1246 0.7378 1.2984
loop_
_geom_bond_atom_site_label_1
_geom_bond_atom_site_label_2
_geom_bond_site_symmetry_1
_geom_bond_site_symmetry_2
Zn1 N1 1_555 1_555
O1 C27 1_555 1_555
O2 C33 1_555 1_555
N1 C2 1_555 1_555
N2 Zn1 1_555 1_555
N3 Zn1 1_555 1_555
N4 Zn1 1_555 1_555
N5 H1 1_555 1_555
N6 C28 1_555 1_555
N7 H2 1_555 1_555
N8 Zn1 1_555 1_555
C1 C2 1_555 1_555
C2 C3 1_555 1_555
C3 H3 1_555 1_555
C4 C3 1_555 1_555
H4 C4 1_555 1_555
C5 N1 1_555 1_555
C6 C5 1_555 1_555
C7 N2 1_555 1_555
C8 C7 1_555 1_555
H5 C8 1_555 1_555
C9 C8 1_555 1_555
H6 C9 1_555 1_555
C10 N2 1_555 1_555
C11 C10 1_555 1_555
C12 N3 1_555 1_555
C13 C12 1_555 1_555
H7 C13 1_555 1_555
C14 C13 1_555 1_555
H8 C14 1_555 1_555
C15 N3 1_555 1_555
C16 C15 1_555 1_555
C17 N4 1_555 1_555
C18 C17 1_555 1_555
H9 C18 1_555 1_555
C19 C18 1_555 1_555
H10 C19 1_555 1_555
C20 N4 1_555 1_555
C21 C1 1_555 1_555
C22 C21 1_555 1_555
H11 C22 1_555 1_555
C23 C22 1_555 1_555
H12 C23 1_555 1_555
C24 N5 1_555 1_555
C25 C24 1_555 1_555
H13 C25 1_555 1_555
C26 C21 1_555 1_555
H14 C26 1_555 1_555
C27 N5 1_555 1_555
C28 C27 1_555 1_555
C29 C28 1_555 1_555
H15 C29 1_555 1_555
C30 C29 1_555 1_555
H16 C30 1_555 1_555
C31 C30 1_555 1_555
H17 C31 1_555 1_555
C32 N6 1_555 1_555
C33 N7 1_555 1_555
C34 N7 1_555 1_555
C35 C34 1_555 1_555
H18 C35 1_555 1_555
C36 N8 1_555 1_555
H19 C36 1_555 1_555
C37 N8 1_555 1_555
H20 C37 1_555 1_555
C38 C34 1_555 1_555
H21 C38 1_555 1_555
C39 C6 1_555 1_555
C40 C39 1_555 1_555
H22 C40 1_555 1_555
C41 C40 1_555 1_555
H23 C41 1_555 1_555
C42 C41 1_555 1_555
C43 C42 1_555 1_555
H24 C43 1_555 1_555
C44 C39 1_555 1_555
H25 C44 1_555 1_555
C45 C11 1_555 1_555
C46 C45 1_555 1_555
H26 C46 1_555 1_555
C47 C46 1_555 1_555
H27 C47 1_555 1_555
C48 C47 1_555 1_555
C49 C48 1_555 1_555
H28 C49 1_555 1_555
C50 C45 1_555 1_555
H29 C50 1_555 1_555
C51 C16 1_555 1_555
C52 C51 1_555 1_555
H30 C52 1_555 1_555
C53 C52 1_555 1_555
H31 C53 1_555 1_555
C54 C53 1_555 1_555
C55 C54 1_555 1_555
H32 C55 1_555 1_555
C56 C51 1_555 1_555
H33 C56 1_555 1_555
C57 C42 1_555 1_555
H34 C57 1_555 1_555
H35 C57 1_555 1_555
C58 C57 1_555 1_555
H36 C58 1_555 1_555
H37 C58 1_555 1_555
C59 C58 1_555 1_555
H38 C59 1_555 1_555
H39 C59 1_555 1_555
C60 C59 1_555 1_555
H40 C60 1_555 1_555
H41 C60 1_555 1_555
C61 C60 1_555 1_555
H42 C61 1_555 1_555
H43 C61 1_555 1_555
H44 C61 1_555 1_555
C62 C48 1_555 1_555
H45 C62 1_555 1_555
H46 C62 1_555 1_555
C63 C62 1_555 1_555
H47 C63 1_555 1_555
H48 C63 1_555 1_555
C64 C63 1_555 1_555
H49 C64 1_555 1_555
H50 C64 1_555 1_555
C65 C64 1_555 1_555
H51 C65 1_555 1_555
H52 C65 1_555 1_555
C66 C65 1_555 1_555
H53 C66 1_555 1_555
H54 C66 1_555 1_555
H55 C66 1_555 1_555
C67 C54 1_555 1_555
H56 C67 1_555 1_555
H57 C67 1_555 1_555
C68 C67 1_555 1_555
H58 C68 1_555 1_555
H59 C68 1_555 1_555
C69 C68 1_555 1_555
H60 C69 1_555 1_555
H61 C69 1_555 1_555
C70 C69 1_555 1_555
H62 C70 1_555 1_555
H63 C70 1_555 1_555
C71 C70 1_555 1_555
H64 C71 1_555 1_555
H65 C71 1_555 1_555
H66 C71 1_555 1_555
C35A C36 1_555 1_555
C34A C35A 1_555 1_555
N7A C34A 1_555 1_555
H2A N7A 1_555 1_555
C33A N7A 1_555 1_555
O2A C33A 1_555 1_555
C32A C33A 1_555 1_555
N6A C32A 1_555 1_555
C28A N6A 1_555 1_555
C27A C28A 1_555 1_555
O1A C27A 1_555 1_555
N5A C27A 1_555 1_555
H1A N5A 1_555 1_555
C24A N5A 1_555 1_555
C23A C24A 1_555 1_555
C22A C23A 1_555 1_555
C21A C22A 1_555 1_555
C1A C21A 1_555 1_555
C2A C1A 1_555 1_555
N1A C2A 1_555 1_555
Zn1A N1A 1_555 1_555
N2A Zn1A 1_555 1_555
C7A N2A 1_555 1_555
C6A C7A 1_555 1_555
C5A N1A 1_555 1_555
C4A C5A 1_555 1_555
C3A C2A 1_555 1_555
H3A C3A 1_555 1_555
H4A C4A 1_555 1_555
C39A C6A 1_555 1_555
C40A C39A 1_555 1_555
H22A C40A 1_555 1_555
C41A C40A 1_555 1_555
H23A C41A 1_555 1_555
C42A C41A 1_555 1_555
C43A C42A 1_555 1_555
H24A C43A 1_555 1_555
C44A C39A 1_555 1_555
H25A C44A 1_555 1_555
C57A C42A 1_555 1_555
H34A C57A 1_555 1_555
H35A C57A 1_555 1_555
C58A C57A 1_555 1_555
H36A C58A 1_555 1_555
H37A C58A 1_555 1_555
C59A C58A 1_555 1_555
H38A C59A 1_555 1_555
H39A C59A 1_555 1_555
C60A C59A 1_555 1_555
H40A C60A 1_555 1_555
H41A C60A 1_555 1_555
C61A C60A 1_555 1_555
H42A C61A 1_555 1_555
H43A C61A 1_555 1_555
H44A C61A 1_555 1_555
C8A C7A 1_555 1_555
H5A C8A 1_555 1_555
C9A C8A 1_555 1_555
H6A C9A 1_555 1_555
C10A N2A 1_555 1_555
C11A C10A 1_555 1_555
C12A C11A 1_555 1_555
N3A Zn1A 1_555 1_555
N4A Zn1A 1_555 1_555
C17A N4A 1_555 1_555
C16A C17A 1_555 1_555
C15A N3A 1_555 1_555
C14A C15A 1_555 1_555
C13A C12A 1_555 1_555
H7A C13A 1_555 1_555
H8A C14A 1_555 1_555
C51A C16A 1_555 1_555
C52A C51A 1_555 1_555
H30A C52A 1_555 1_555
C53A C52A 1_555 1_555
H31A C53A 1_555 1_555
C54A C53A 1_555 1_555
C55A C54A 1_555 1_555
H32A C55A 1_555 1_555
C56A C51A 1_555 1_555
H33A C56A 1_555 1_555
C67A C54A 1_555 1_555
H56A C67A 1_555 1_555
H57A C67A 1_555 1_555
C68A C67A 1_555 1_555
H58A C68A 1_555 1_555
H59A C68A 1_555 1_555
C69A C68A 1_555 1_555
H60A C69A 1_555 1_555
H61A C69A 1_555 1_555
C70A C69A 1_555 1_555
H62A C70A 1_555 1_555
H63A C70A 1_555 1_555
C71A C70A 1_555 1_555
H64A C71A 1_555 1_555
H65A C71A 1_555 1_555
H66A C71A 1_555 1_555
C18A C17A 1_555 1_555
H9A C18A 1_555 1_555
C19A C18A 1_555 1_555
H10A C19A 1_555 1_555
C20A C1A 1_555 1_555
N8A Zn1A 1_555 1_555
C36A C35 1_555 1_555
C37A C38 1_555 1_555
H20A C37A 1_555 1_555
H19A C36A 1_555 1_555
C45A C11A 1_555 1_555
C46A C45A 1_555 1_555
H26A C46A 1_555 1_555
C47A C46A 1_555 1_555
H27A C47A 1_555 1_555
C48A C47A 1_555 1_555
C49A C48A 1_555 1_555
H28A C49A 1_555 1_555
C50A C45A 1_555 1_555
H29A C50A 1_555 1_555
C62A C48A 1_555 1_555
H45A C62A 1_555 1_555
H46A C62A 1_555 1_555
C63A C62A 1_555 1_555
H47A C63A 1_555 1_555
H48A C63A 1_555 1_555
C64A C63A 1_555 1_555
H49A C64A 1_555 1_555
H50A C64A 1_555 1_555
C65A C64A 1_555 1_555
H51A C65A 1_555 1_555
H52A C65A 1_555 1_555
C66A C65A 1_555 1_555
H53A C66A 1_555 1_555
H54A C66A 1_555 1_555
H55A C66A 1_555 1_555
C26A C21A 1_555 1_555
C25A C24A 1_555 1_555
H13A C25A 1_555 1_555
H14A C26A 1_555 1_555
H11A C22A 1_555 1_555
H12A C23A 1_555 1_555
C29A C28A 1_555 1_555
H15A C29A 1_555 1_555
C30A C29A 1_555 1_555
H16A C30A 1_555 1_555
C31A C32A 1_555 1_555
H17A C31A 1_555 1_555
C38A C37 1_555 1_555
H21A C38A 1_555 1_555
H18A C35A 1_555 1_555
C1 C20 1_555 1_555
C4 C5 1_555 1_555
C6 C7 1_555 1_555
C9 C10 1_555 1_555
C11 C12 1_555 1_555
C14 C15 1_555 1_555
C16 C17 1_555 1_555
C19 C20 1_555 1_555
C23 C24 1_555 1_555
C25 C26 1_555 1_555
C31 C32 1_555 1_555
C32 C33 1_555 1_555
C43 C44 1_555 1_555
C49 C50 1_555 1_555
C55 C56 1_555 1_555
C34A C38A 1_555 1_555
C6A C5A 1_555 1_555
C4A C3A 1_555 1_555
C43A C44A 1_555 1_555
C9A C10A 1_555 1_555
C12A N3A 1_555 1_555
N4A C20A 1_555 1_555
C16A C15A 1_555 1_555
C14A C13A 1_555 1_555
C55A C56A 1_555 1_555
C19A C20A 1_555 1_555
N8A C36A 1_555 1_555
N8A C37A 1_555 1_555
C49A C50A 1_555 1_555
C26A C25A 1_555 1_555
C30A C31A 1_555 1_555

#END
