
#######################################################################
#
#                 Cambridge Crystallographic Data Centre
#                                CCDC 
#
#######################################################################
#
# If this CIF has been generated from an entry in the Cambridge 
# Structural Database, then it will include bibliographic, chemical, 
# crystal, experimental, refinement or atomic coordinate data resulting 
# from the CCDC's data processing and validation procedures.
#
#######################################################################

data_RANCEO
_chemical_formula_moiety         
'C126 H120 Ag3 Cs1 N6 O18 P6 Sn2,3.5(C3 H7 N1 O1)'
_chemical_name_systematic        
'hexakis(\m~3~-4-(Diphenylphosphino)benzene-1,2-diolato)-cesium-tri-silver-tin(iv) dimethylformamide unknown solvate'
_symmetry_cell_setting           rhombohedral
_symmetry_space_group_name_H-M   'R -3'
_symmetry_Int_Tables_number      148
_space_group_name_Hall           '-R 3'
loop_
_symmetry_equiv_pos_site_id
_symmetry_equiv_pos_as_xyz
1 x,y,z
2 -y,x-y,z
3 -x+y,-x,z
4 2/3+x,1/3+y,1/3+z
5 2/3-y,1/3+x-y,1/3+z
6 2/3-x+y,1/3-x,1/3+z
7 1/3+x,2/3+y,2/3+z
8 2/3+y,1/3-x+y,1/3-z
9 2/3+x-y,1/3+x,1/3-z
10 -x,-y,-z
11 y,-x+y,-z
12 x-y,x,-z
13 1/3-x,2/3-y,2/3-z
14 1/3+y,2/3-x+y,2/3-z
15 1/3+x-y,2/3+x,2/3-z
16 2/3-x,1/3-y,1/3-z
17 1/3-y,2/3+x-y,2/3+z
18 1/3-x+y,2/3-x,2/3+z
_cell_length_a                   23.7157(3)
_cell_length_b                   23.7157(3)
_cell_length_c                   88.5147(5)
_cell_angle_alpha                90
_cell_angle_beta                 90
_cell_angle_gamma                120.00
_cell_volume                     43114
_exptl_crystal_colour            colorless
_exptl_crystal_description       block
_cell_formula_units_Z            12
_exptl_crystal_recrystallization_method 'diethyl ether/dimethylformamide'
loop_
_atom_site_label
_atom_site_type_symbol
_atom_site_fract_x
_atom_site_fract_y
_atom_site_fract_z
Cs1 Cs 0.0000 1.0000 0.109962(10)
Sn1 Sn 0.0000 1.0000 0.067116(10)
Sn2 Sn 0.0000 1.0000 0.152982(10)
Ag1 Ag 0.30680(3) 1.04460(3) 0.111431(7)
P1 P 0.29400(9) 1.02177(10) 0.08471(2)
P2 P 0.32057(10) 1.10678(10) 0.13406(2)
O1 O 0.0466(2) 0.9627(2) 0.05460(5)
O2 O 0.0797(2) 1.0270(2) 0.08101(5)
O3 O 0.0802(2) 1.0464(2) 0.13891(6)
O4 O 0.0642(2) 0.9852(2) 0.16555(6)
O9 O 0.2317(4) 0.9315(3) 0.12323(9)
O10 O 0.3928(3) 1.0075(4) 0.11474(8)
N1 N 0.1226(3) 0.8646(3) 0.12643(8)
N2 N 0.4005(5) 0.9151(5) 0.11927(10)
C1 C 0.1012(3) 0.9725(3) 0.06115(8)
C2 C 0.1196(3) 1.0074(3) 0.07508(8)
C3 C 0.1770(3) 1.0199(3) 0.08215(8)
H1 H 0.1892 1.0430 0.0914
C4 C 0.2172(3) 0.9987(3) 0.07565(8)
C5 C 0.1977(4) 0.9630(4) 0.06207(8)
H2 H 0.2242 0.9478 0.0576
C6 C 0.1402(4) 0.9499(4) 0.05516(8)
H3 H 0.1271 0.9250 0.0461
C7 C 0.3559(4) 1.0920(4) 0.07438(9)
C8 C 0.4151(4) 1.1303(4) 0.08116(11)
H4 H 0.4230 1.1185 0.0909
C9 C 0.4647(5) 1.1867(4) 0.07408(14)
H5 H 0.5059 1.2121 0.0788
C10 C 0.4518(5) 1.2040(5) 0.06009(14)
H6 H 0.4841 1.2424 0.0553
C11 C 0.3927(5) 1.1663(5) 0.05318(13)
H7 H 0.3847 1.1780 0.0435
C12 C 0.3446(5) 1.1108(5) 0.06039(11)
H8 H 0.3034 1.0854 0.0557
C13 C 0.3085(4) 0.9553(4) 0.08063(8)
C14 C 0.2581(4) 0.8916(4) 0.08360(9)
H9 H 0.2167 0.8845 0.0868
C15 C 0.2679(4) 0.8390(4) 0.08192(10)
H10 H 0.2330 0.7960 0.0836
C16 C 0.3283(5) 0.8491(5) 0.07788(10)
H11 H 0.3357 0.8133 0.0771
C17 C 0.3775(4) 0.9107(5) 0.07495(10)
H12 H 0.4187 0.9173 0.0718
C18 C 0.3686(4) 0.9638(4) 0.07648(9)
H13 H 0.4039 1.0064 0.0747
C19 C 0.1320(3) 1.0453(3) 0.14503(8)
C20 C 0.1236(4) 1.0133(3) 0.15918(8)
C21 C 0.1758(4) 1.0123(4) 0.16554(9)
H14 H 0.1705 0.9906 0.1749
C22 C 0.2363(4) 1.0424(4) 0.15853(8)
H15 H 0.2720 1.0418 0.1633
C23 C 0.2451(4) 1.0733(4) 0.14470(8)
C24 C 0.1926(3) 1.0743(3) 0.13802(8)
H16 H 0.1982 1.0952 0.1285
C25 C 0.3801(4) 1.1030(4) 0.14642(8)
C26 C 0.3753(4) 1.0430(4) 0.14868(10)
H17 H 0.3403 1.0051 0.1443
C27 C 0.4213(5) 1.0379(5) 0.15727(11)
H18 H 0.4170 0.9963 0.1590
C28 C 0.4737(5) 1.0932(5) 0.16339(11)
H19 H 0.5061 1.0896 0.1690
C29 C 0.4789(5) 1.1538(5) 0.16137(11)
H20 H 0.5145 1.1917 0.1656
C30 C 0.4313(4) 1.1583(4) 0.15312(10)
H21 H 0.4338 1.1993 0.1520
C31 C 0.3481(4) 1.1932(4) 0.13168(9)
C32 C 0.3251(4) 1.2251(4) 0.14051(10)
H22 H 0.2940 1.2020 0.1482
C33 C 0.3472(5) 1.2911(4) 0.13829(11)
H23 H 0.3302 1.3127 0.1442
C34 C 0.3947(6) 1.3254(5) 0.12731(12)
H24 H 0.4110 1.3706 0.1259
C35 C 0.4179(5) 1.2932(5) 0.11842(12)
H25 H 0.4501 1.3161 0.1109
C36 C 0.3936(4) 1.2269(4) 0.12062(10)
H26 H 0.4085 1.2044 0.1144
C73 C 0.1742(6) 0.9194(5) 0.12664(13)
H53 H 0.1699 0.9556 0.1297
C74 C 0.0609(5) 0.8586(6) 0.13053(12)
H54 H 0.0679 0.9008 0.1341
H55 H 0.0407 0.8262 0.1386
H56 H 0.0322 0.8449 0.1217
C75 C 0.1194(6) 0.8059(5) 0.12128(15)
H57 H 0.1633 0.8146 0.1188
H58 H 0.0917 0.7899 0.1123
H59 H 0.1010 0.7729 0.1293
C76 C 0.3706(5) 0.9463(5) 0.11460(11)
H60 H 0.3278 0.9203 0.1107
C77 C 0.4656(6) 0.9509(8) 0.12616(14)
H61 H 0.4792 0.9972 0.1268
H62 H 0.4967 0.9455 0.1199
H63 H 0.4642 0.9338 0.1363
C78 C 0.3691(7) 0.8440(6) 0.11722(14)
H64 H 0.3260 0.8276 0.1127
H65 H 0.3644 0.8231 0.1271
H66 H 0.3959 0.8339 0.1106
O2A O -0.0270(2) 1.0527(3) 0.08101(5)
O1A O 0.0373(2) 1.0839(3) 0.05460(5)
C1A C 0.0275(3) 1.1287(4) 0.06115(8)
C2A C -0.0074(3) 1.1122(4) 0.07508(8)
C3A C -0.0199(3) 1.1571(4) 0.08215(8)
H1A H -0.0430 1.1462 0.0914
C4A C 0.0013(3) 1.2185(4) 0.07565(8)
P1A P -0.02177(10) 1.27223(13) 0.08471(2)
Ag1A Ag -0.04460(3) 1.26220(4) 0.111431(7)
P2A P -0.10678(10) 1.21379(14) 0.13406(2)
C23A C -0.0733(4) 1.1718(6) 0.14470(8)
C22A C -0.0424(4) 1.1939(6) 0.15853(8)
C21A C -0.0123(4) 1.1635(6) 0.16554(9)
C20A C -0.0133(3) 1.1103(5) 0.15918(8)
O4A O 0.0148(2) 1.0790(3) 0.16555(6)
O3A O -0.0464(2) 1.0338(3) 0.13891(6)
O2B O -0.0527(3) 0.9203(2) 0.08101(5)
O1B O -0.0839(3) 0.9534(2) 0.05460(5)
C1B C -0.1287(4) 0.8988(3) 0.06115(8)
C2B C -0.1122(4) 0.8804(3) 0.07508(8)
C3B C -0.1571(4) 0.8230(3) 0.08215(8)
H1B H -0.1462 0.8108 0.0914
C4B C -0.2185(4) 0.7828(3) 0.07565(8)
P1B P -0.27223(13) 0.70600(9) 0.08471(2)
Ag1B Ag -0.26220(4) 0.69320(3) 0.111431(7)
P2B P -0.21379(14) 0.67943(10) 0.13406(2)
C23B C -0.1718(6) 0.7549(4) 0.14470(8)
C22B C -0.1939(6) 0.7637(4) 0.15853(8)
C21B C -0.1635(6) 0.8242(4) 0.16554(9)
C20B C -0.1103(5) 0.8764(4) 0.15918(8)
O4B O -0.0790(3) 0.9358(2) 0.16555(6)
O3B O -0.0338(3) 0.9198(2) 0.13891(6)
C19B C -0.0867(4) 0.8680(3) 0.14503(8)
C24B C -0.1183(4) 0.8074(3) 0.13802(8)
H16B H -0.1030 0.8018 0.1285
H14B H -0.1799 0.8295 0.1749
H15B H -0.2302 0.7280 0.1633
C25B C -0.2771(6) 0.6199(4) 0.14642(8)
C26B C -0.3323(6) 0.6247(4) 0.14868(10)
H17B H -0.3352 0.6597 0.1443
C27B C -0.3834(7) 0.5787(5) 0.15727(11)
H18B H -0.4207 0.5830 0.1590
C28B C -0.3805(7) 0.5263(5) 0.16339(11)
H19B H -0.4165 0.4939 0.1690
C29B C -0.3251(7) 0.5211(5) 0.16137(11)
H20B H -0.3228 0.4855 0.1656
C30B C -0.2730(6) 0.5687(4) 0.15312(10)
H21B H -0.2345 0.5662 0.1520
C31B C -0.1549(6) 0.6519(4) 0.13168(9)
C32B C -0.1000(6) 0.6749(4) 0.14051(10)
H22B H -0.0920 0.7060 0.1482
C33B C -0.0561(6) 0.6528(5) 0.13829(11)
H23B H -0.0175 0.6698 0.1442
C34B C -0.0693(8) 0.6053(6) 0.12731(12)
H24B H -0.0404 0.5890 0.1259
C35B C -0.1247(7) 0.5821(5) 0.11842(12)
H25B H -0.1340 0.5499 0.1109
C36B C -0.1667(6) 0.6064(4) 0.12062(10)
H26B H -0.2041 0.5915 0.1144
O9B O -0.3002(5) 0.7683(4) 0.12323(9)
C73B C -0.2548(8) 0.8258(6) 0.12664(13)
N1B N -0.2580(4) 0.8774(3) 0.12643(8)
C74B C -0.2023(8) 0.9391(5) 0.13053(12)
H54B H -0.1671 0.9321 0.1341
H55B H -0.2145 0.9593 0.1386
H56B H -0.1873 0.9678 0.1217
C75B C -0.3135(8) 0.8806(6) 0.12128(15)
H57B H -0.3487 0.8367 0.1188
H58B H -0.3018 0.9083 0.1123
H59B H -0.3281 0.8990 0.1293
H53B H -0.2143 0.8301 0.1297
O10B O -0.3853(5) 0.6072(3) 0.11474(8)
C76B C -0.4243(7) 0.6294(5) 0.11460(11)
N2B N -0.4854(7) 0.5995(5) 0.11927(10)
C77B C -0.5147(10) 0.5344(6) 0.12616(14)
H61B H -0.4820 0.5208 0.1268
H62B H -0.5512 0.5033 0.1199
H63B H -0.5304 0.5358 0.1363
C78B C -0.5251(9) 0.6309(7) 0.11722(14)
H64B H -0.4984 0.6740 0.1127
H65B H -0.5413 0.6356 0.1271
H66B H -0.5620 0.6041 0.1106
H60B H -0.4075 0.6722 0.1107
C7B C -0.2639(6) 0.6441(4) 0.07438(9)
C8B C -0.2848(6) 0.5849(4) 0.08116(11)
H4B H -0.3045 0.5770 0.0909
C9B C -0.2780(6) 0.5353(5) 0.07408(14)
H5B H -0.2938 0.4941 0.0788
C10B C -0.2478(7) 0.5482(5) 0.06009(14)
H6B H -0.2417 0.5159 0.0553
C11B C -0.2264(7) 0.6073(5) 0.05318(13)
H7B H -0.2067 0.6153 0.0435
C12B C -0.2338(7) 0.6554(5) 0.06039(11)
H8B H -0.2180 0.6966 0.0557
C13B C -0.3532(6) 0.6915(4) 0.08063(8)
C14B C -0.3665(6) 0.7419(4) 0.08360(9)
H9B H -0.3322 0.7833 0.0868
C15B C -0.4289(6) 0.7321(4) 0.08192(10)
H10B H -0.4370 0.7670 0.0836
C16B C -0.4792(7) 0.6717(5) 0.07788(10)
H11B H -0.5224 0.6643 0.0771
C17B C -0.4668(6) 0.6225(4) 0.07495(10)
H12B H -0.5014 0.5813 0.0718
C18B C -0.4048(6) 0.6314(4) 0.07648(9)
H13B H -0.3975 0.5961 0.0747
C5B C -0.2347(6) 0.8023(4) 0.06207(8)
H2B H -0.2764 0.7758 0.0576
C6B C -0.1903(6) 0.8598(4) 0.05516(8)
H3B H -0.2021 0.8729 0.0461
C19A C -0.0453(3) 1.0867(4) 0.14503(8)
C24A C -0.0743(3) 1.1183(4) 0.13802(8)
H16A H -0.0952 1.1030 0.1285
H14A H 0.0094 1.1799 0.1749
H15A H -0.0418 1.2302 0.1633
C25A C -0.1030(4) 1.2771(6) 0.14642(8)
C26A C -0.0430(4) 1.3323(6) 0.14868(10)
H17A H -0.0051 1.3352 0.1443
C27A C -0.0379(5) 1.3834(7) 0.15727(11)
H18A H 0.0037 1.4207 0.1590
C28A C -0.0932(5) 1.3805(7) 0.16339(11)
H19A H -0.0896 1.4165 0.1690
C29A C -0.1538(5) 1.3251(7) 0.16137(11)
H20A H -0.1917 1.3228 0.1656
C30A C -0.1583(4) 1.2730(6) 0.15312(10)
H21A H -0.1993 1.2345 0.1520
C31A C -0.1932(4) 1.1549(6) 0.13168(9)
C32A C -0.2251(4) 1.1000(6) 0.14051(10)
H22A H -0.2020 1.0920 0.1482
C33A C -0.2911(4) 1.0561(6) 0.13829(11)
H23A H -0.3127 1.0175 0.1442
C34A C -0.3254(5) 1.0693(8) 0.12731(12)
H24A H -0.3706 1.0404 0.1259
C35A C -0.2932(5) 1.1247(7) 0.11842(12)
H25A H -0.3161 1.1340 0.1109
C36A C -0.2269(4) 1.1667(6) 0.12062(10)
H26A H -0.2044 1.2041 0.1144
O9A O 0.0685(3) 1.3002(5) 0.12323(9)
C73A C 0.0806(5) 1.2548(8) 0.12664(13)
N1A N 0.1354(3) 1.2580(4) 0.12643(8)
C74A C 0.1414(6) 1.2023(8) 0.13053(12)
H54A H 0.0992 1.1671 0.1341
H55A H 0.1738 1.2145 0.1386
H56A H 0.1551 1.1873 0.1217
C75A C 0.1941(5) 1.3135(8) 0.12128(15)
H57A H 0.1854 1.3487 0.1188
H58A H 0.2101 1.3018 0.1123
H59A H 0.2271 1.3281 0.1293
H53A H 0.0444 1.2143 0.1297
O10A O -0.0075(4) 1.3853(5) 0.11474(8)
C76A C 0.0537(5) 1.4243(7) 0.11460(11)
N2A N 0.0849(5) 1.4854(7) 0.11927(10)
C77A C 0.0491(8) 1.5147(10) 0.12616(14)
H61A H 0.0028 1.4820 0.1268
H62A H 0.0545 1.5512 0.1199
H63A H 0.0662 1.5304 0.1363
C78A C 0.1560(6) 1.5251(9) 0.11722(14)
H64A H 0.1724 1.4984 0.1127
H65A H 0.1769 1.5413 0.1271
H66A H 0.1661 1.5620 0.1106
H60A H 0.0797 1.4075 0.1107
C7A C -0.0920(4) 1.2639(6) 0.07438(9)
C8A C -0.1303(4) 1.2848(6) 0.08116(11)
H4A H -0.1185 1.3045 0.0909
C9A C -0.1867(4) 1.2780(6) 0.07408(14)
H5A H -0.2121 1.2938 0.0788
C10A C -0.2040(5) 1.2478(7) 0.06009(14)
H6A H -0.2424 1.2417 0.0553
C11A C -0.1663(5) 1.2264(7) 0.05318(13)
H7A H -0.1780 1.2067 0.0435
C12A C -0.1108(5) 1.2338(7) 0.06039(11)
H8A H -0.0854 1.2180 0.0557
C13A C 0.0447(4) 1.3532(6) 0.08063(8)
C14A C 0.1084(4) 1.3665(6) 0.08360(9)
H9A H 0.1155 1.3322 0.0868
C15A C 0.1610(4) 1.4289(6) 0.08192(10)
H10A H 0.2040 1.4370 0.0836
C16A C 0.1509(5) 1.4792(7) 0.07788(10)
H11A H 0.1867 1.5224 0.0771
C17A C 0.0893(5) 1.4668(6) 0.07495(10)
H12A H 0.0827 1.5014 0.0718
C18A C 0.0362(4) 1.4048(6) 0.07648(9)
H13A H -0.0064 1.3975 0.0747
C5A C 0.0370(4) 1.2347(6) 0.06207(8)
H2A H 0.0522 1.2764 0.0576
C6A C 0.0501(4) 1.1903(6) 0.05516(8)
H3A H 0.0750 1.2021 0.0461
Cs2 Cs -0.3333 0.3333 -0.047091(10)
Sn3 Sn -0.3333 0.3333 -0.003263(9)
Sn4 Sn -0.3333 0.3333 -0.091223(10)
Ag2 Ag -0.0555(2) 0.3230(3) -0.04663(5)
P3 P -0.05190(9) 0.32530(9) -0.01929(2)
P4 P -0.04319(9) 0.34422(10) -0.07327(2)
O5 O -0.2928(2) 0.2914(2) 0.00992(5)
O6 O -0.2561(2) 0.3495(2) -0.01716(5)
O7 O -0.2562(2) 0.3543(2) -0.07684(5)
O8 O -0.2820(2) 0.3043(2) -0.10474(5)
O11 O -0.1591(3) 0.1991(3) -0.04656(7)
O13 O 0.0620(4) 0.3258(4) -0.04744(8)
N3 N -0.2545(3) 0.1812(3) -0.03628(8)
N5 N 0.0820(4) 0.2473(4) -0.03885(9)
C37 C -0.2383(3) 0.2983(3) 0.00373(8)
C38 C -0.2181(3) 0.3288(3) -0.01074(8)
C39 C -0.1630(3) 0.3356(3) -0.01728(8)
H27 H -0.1502 0.3552 -0.0270
C40 C -0.1249(3) 0.3140(3) -0.00993(8)
C41 C -0.1434(4) 0.2860(4) 0.00437(9)
H28 H -0.1172 0.2723 0.0096
C42 C -0.1995(4) 0.2781(4) 0.01105(8)
H29 H -0.2118 0.2586 0.0208
C43 C 0.0163(3) 0.4009(4) -0.01244(9)
C44 C 0.0746(4) 0.4255(4) -0.02043(11)
H30 H 0.0767 0.4034 -0.0292
C45 C 0.1303(4) 0.4828(4) -0.01561(12)
H31 H 0.1698 0.5004 -0.0212
C46 C 0.1265(5) 0.5126(4) -0.00268(12)
H32 H 0.1644 0.5503 0.0008
C47 C 0.0697(5) 0.4897(4) 0.00532(11)
H33 H 0.0683 0.5120 0.0141
C48 C 0.0130(4) 0.4322(4) 0.00039(9)
H34 H -0.0266 0.4156 0.0059
C49 C -0.0378(3) 0.2625(4) -0.01112(9)
C50 C -0.0612(4) 0.2037(4) -0.01842(10)
H35 H -0.0834 0.1968 -0.0278
C51 C -0.0529(4) 0.1543(4) -0.01233(12)
H36 H -0.0692 0.1140 -0.0175
C52 C -0.0205(4) 0.1644(5) 0.00130(13)
H37 H -0.0142 0.1310 0.0055
C53 C 0.0032(4) 0.2246(5) 0.00909(10)
H38 H 0.0241 0.2309 0.0186
C54 C -0.0041(4) 0.2733(4) 0.00278(9)
H39 H 0.0135 0.3143 0.0077
C55 C -0.2134(3) 0.3399(3) -0.08330(8)
C56 C -0.2257(3) 0.3154(3) -0.09819(8)
C57 C -0.1813(4) 0.3035(4) -0.10574(9)
H40 H -0.1890 0.2889 -0.1159
C58 C -0.1257(4) 0.3130(4) -0.09830(9)
H41 H -0.0950 0.3055 -0.1035
C59 C -0.1146(3) 0.3334(3) -0.08332(8)
C60 C -0.1581(3) 0.3480(3) -0.07584(8)
H42 H -0.1498 0.3633 -0.0657
C61 C 0.0232(4) 0.4228(4) -0.07890(9)
C62 C 0.0145(4) 0.4648(4) -0.08840(11)
H43 H -0.0276 0.4511 -0.0924
C63 C 0.0655(5) 0.5256(4) -0.09211(13)
H44 H 0.0584 0.5537 -0.0985
C64 C 0.1267(5) 0.5452(4) -0.08647(12)
H45 H 0.1620 0.5867 -0.0892
C65 C 0.1373(4) 0.5061(5) -0.07714(11)
H46 H 0.1799 0.5200 -0.0735
C66 C 0.0854(4) 0.4451(4) -0.07293(10)
H47 H 0.0925 0.4187 -0.0660
C67 C -0.0239(4) 0.2854(4) -0.08145(8)
C68 C 0.0326(4) 0.3027(4) -0.08972(10)
H48 H 0.0616 0.3471 -0.0921
C69 C 0.0460(4) 0.2550(5) -0.09438(12)
H49 H 0.0845 0.2672 -0.1000
C70 C 0.0056(5) 0.1913(5) -0.09109(10)
H50 H 0.0164 0.1594 -0.0941
C71 C -0.0511(5) 0.1734(4) -0.08338(10)
H51 H -0.0805 0.1286 -0.0815
C72 C -0.0663(4) 0.2197(4) -0.07832(10)
H52 H -0.1052 0.2067 -0.0728
C79 C -0.2074(4) 0.2044(5) -0.04661(10)
H67 H -0.2121 0.2275 -0.0548
C80 C -0.3073(5) 0.1941(5) -0.03730(12)
H68 H -0.3034 0.2177 -0.0467
H69 H -0.3058 0.2206 -0.0286
H70 H -0.3487 0.1529 -0.0373
C81 C -0.2500(5) 0.1470(5) -0.02311(11)
H71 H -0.2119 0.1415 -0.0241
H72 H -0.2894 0.1042 -0.0224
H73 H -0.2457 0.1723 -0.0140
C85 C 0.0588(5) 0.2734(7) -0.04841(12)
H81 H 0.0371 0.2480 -0.0571
C86 C 0.1158(5) 0.2827(5) -0.02527(10)
H82 H 0.1183 0.3252 -0.0252
H83 H 0.1599 0.2889 -0.0252
H84 H 0.0920 0.2577 -0.0163
C87 C 0.0741(6) 0.1834(6) -0.04077(16)
H85 H 0.0509 0.1643 -0.0502
H86 H 0.0491 0.1556 -0.0323
H87 H 0.1171 0.1869 -0.0411
O6A O -0.3495(2) 0.3944(3) -0.01716(5)
O5A O -0.2914(2) 0.4158(3) 0.00992(5)
C37A C -0.2983(3) 0.4634(4) 0.00373(8)
C38A C -0.3288(3) 0.4531(4) -0.01074(8)
C39A C -0.3356(3) 0.5014(4) -0.01728(8)
H27A H -0.3552 0.4946 -0.0270
C40A C -0.3140(3) 0.5611(4) -0.00993(8)
P3A P -0.32530(9) 0.62280(13) -0.01929(2)
Ag2A Ag -0.3230(3) 0.6215(4) -0.04663(5)
P4A P -0.34422(10) 0.61259(13) -0.07327(2)
C59A C -0.3334(3) 0.5520(4) -0.08332(8)
C58A C -0.3130(4) 0.5613(6) -0.09830(9)
C57A C -0.3035(4) 0.5152(6) -0.10574(9)
C56A C -0.3154(3) 0.4589(4) -0.09819(8)
O8A O -0.3043(2) 0.4137(3) -0.10474(5)
O7A O -0.3543(2) 0.3895(3) -0.07684(5)
O6B O -0.3944(3) 0.2561(2) -0.01716(5)
O5B O -0.4158(3) 0.2928(2) 0.00992(5)
C37B C -0.4634(4) 0.2383(3) 0.00373(8)
C38B C -0.4531(4) 0.2181(3) -0.01074(8)
C39B C -0.5014(4) 0.1630(3) -0.01728(8)
H27B H -0.4946 0.1502 -0.0270
C40B C -0.5611(4) 0.1249(3) -0.00993(8)
P3B P -0.62280(13) 0.05190(9) -0.01929(2)
Ag2B Ag -0.6215(4) 0.0555(2) -0.04663(5)
P4B P -0.61259(13) 0.04319(9) -0.07327(2)
C59B C -0.5520(4) 0.1146(3) -0.08332(8)
C58B C -0.5613(6) 0.1257(4) -0.09830(9)
C57B C -0.5152(6) 0.1813(4) -0.10574(9)
C56B C -0.4589(4) 0.2257(3) -0.09819(8)
O8B O -0.4137(3) 0.2820(2) -0.10474(5)
O7B O -0.3895(3) 0.2562(2) -0.07684(5)
C55B C -0.4467(4) 0.2134(3) -0.08330(8)
C60B C -0.4939(4) 0.1581(3) -0.07584(8)
H42B H -0.4869 0.1498 -0.0657
H40B H -0.5221 0.1890 -0.1159
H41B H -0.5995 0.0950 -0.1035
C61B C -0.6004(6) -0.0232(4) -0.07890(9)
C62B C -0.5497(6) -0.0145(4) -0.08840(11)
H43B H -0.5213 0.0276 -0.0924
C63B C -0.5399(6) -0.0655(5) -0.09211(13)
H44B H -0.5047 -0.0584 -0.0985
C64B C -0.5815(6) -0.1267(5) -0.08647(12)
H45B H -0.5753 -0.1620 -0.0892
C65B C -0.6312(6) -0.1373(4) -0.07714(11)
H46B H -0.6599 -0.1799 -0.0735
C66B C -0.6403(6) -0.0854(4) -0.07293(10)
H47B H -0.6738 -0.0925 -0.0660
C67B C -0.6907(6) 0.0239(4) -0.08145(8)
C68B C -0.7299(6) -0.0326(4) -0.08972(10)
H48B H -0.7145 -0.0616 -0.0921
C69B C -0.7910(6) -0.0460(4) -0.09438(12)
H49B H -0.8173 -0.0845 -0.1000
C70B C -0.8143(7) -0.0056(5) -0.09109(10)
H50B H -0.8570 -0.0164 -0.0941
C71B C -0.7755(6) 0.0511(5) -0.08338(10)
H51B H -0.7909 0.0805 -0.0815
C72B C -0.7140(6) 0.0663(4) -0.07832(10)
H52B H -0.6881 0.1052 -0.0728
O11B O -0.6418(4) 0.1591(3) -0.04656(7)
C79B C -0.5882(6) 0.2074(4) -0.04661(10)
N3B N -0.5643(4) 0.2545(3) -0.03628(8)
C80B C -0.4986(7) 0.3073(5) -0.03730(12)
H68B H -0.4789 0.3034 -0.0467
H69B H -0.4736 0.3058 -0.0286
H70B H -0.4984 0.3487 -0.0373
C81B C -0.6030(7) 0.2500(5) -0.02311(11)
H71B H -0.6466 0.2119 -0.0241
H72B H -0.6064 0.2894 -0.0224
H73B H -0.5820 0.2457 -0.0140
H67B H -0.5604 0.2121 -0.0548
O13B O -0.7362(6) -0.0620(4) -0.04744(8)
C85B C -0.7854(9) -0.0588(5) -0.04841(12)
N5B N -0.8347(6) -0.0820(4) -0.03885(9)
C86B C -0.8331(7) -0.1158(5) -0.02527(10)
H82B H -0.7931 -0.1183 -0.0252
H83B H -0.8710 -0.1599 -0.0252
H84B H -0.8343 -0.0920 -0.0163
C87B C -0.8907(8) -0.0741(6) -0.04077(16)
H85B H -0.8866 -0.0509 -0.0502
H86B H -0.8935 -0.0491 -0.0323
H87B H -0.9302 -0.1171 -0.0411
H81B H -0.7891 -0.0371 -0.0571
C43B C -0.6154(5) -0.0163(3) -0.01244(9)
C44B C -0.6491(6) -0.0746(4) -0.02043(11)
H30B H -0.6733 -0.0767 -0.0292
C45B C -0.6475(6) -0.1303(4) -0.01561(12)
H31B H -0.6694 -0.1698 -0.0212
C46B C -0.6139(6) -0.1265(5) -0.00268(12)
H32B H -0.6141 -0.1644 0.0008
C47B C -0.5800(6) -0.0697(5) 0.00532(11)
H33B H -0.5563 -0.0683 0.0141
C48B C -0.5808(6) -0.0130(4) 0.00039(9)
H34B H -0.5578 0.0266 0.0059
C49B C -0.6997(5) 0.0378(3) -0.01112(9)
C50B C -0.7351(6) 0.0612(4) -0.01842(10)
H35B H -0.7198 0.0834 -0.0278
C51B C -0.7928(6) 0.0529(4) -0.01233(12)
H36B H -0.8168 0.0692 -0.0175
C52B C -0.8151(6) 0.0205(4) 0.00130(13)
H37B H -0.8548 0.0142 0.0055
C53B C -0.7786(6) -0.0032(4) 0.00909(10)
H38B H -0.7932 -0.0241 0.0186
C54B C -0.7226(6) 0.0041(4) 0.00278(9)
H39B H -0.6992 -0.0135 0.0077
C41B C -0.5706(6) 0.1434(4) 0.00437(9)
H28B H -0.6105 0.1172 0.0096
C42B C -0.5224(6) 0.1995(4) 0.01105(8)
H29B H -0.5296 0.2118 0.0208
C55A C -0.3399(3) 0.4467(4) -0.08330(8)
C60A C -0.3480(3) 0.4939(4) -0.07584(8)
H42A H -0.3633 0.4869 -0.0657
H40A H -0.2889 0.5221 -0.1159
H41A H -0.3055 0.5995 -0.1035
C61A C -0.4228(4) 0.6004(6) -0.07890(9)
C62A C -0.4648(4) 0.5497(6) -0.08840(11)
H43A H -0.4511 0.5213 -0.0924
C63A C -0.5256(4) 0.5399(6) -0.09211(13)
H44A H -0.5537 0.5047 -0.0985
C64A C -0.5452(4) 0.5815(6) -0.08647(12)
H45A H -0.5867 0.5753 -0.0892
C65A C -0.5061(5) 0.6312(6) -0.07714(11)
H46A H -0.5200 0.6599 -0.0735
C66A C -0.4451(4) 0.6403(6) -0.07293(10)
H47A H -0.4187 0.6738 -0.0660
C67A C -0.2854(4) 0.6907(6) -0.08145(8)
C68A C -0.3027(4) 0.7299(6) -0.08972(10)
H48A H -0.3471 0.7145 -0.0921
C69A C -0.2550(5) 0.7910(6) -0.09438(12)
H49A H -0.2672 0.8173 -0.1000
C70A C -0.1913(5) 0.8143(7) -0.09109(10)
H50A H -0.1594 0.8570 -0.0941
C71A C -0.1734(4) 0.7755(6) -0.08338(10)
H51A H -0.1286 0.7909 -0.0815
C72A C -0.2197(4) 0.7140(6) -0.07832(10)
H52A H -0.2067 0.6881 -0.0728
O11A O -0.1991(3) 0.6418(4) -0.04656(7)
C79A C -0.2044(5) 0.5882(6) -0.04661(10)
N3A N -0.1812(3) 0.5643(4) -0.03628(8)
C80A C -0.1941(5) 0.4986(7) -0.03730(12)
H68A H -0.2177 0.4789 -0.0467
H69A H -0.2206 0.4736 -0.0286
H70A H -0.1529 0.4984 -0.0373
C81A C -0.1470(5) 0.6030(7) -0.02311(11)
H71A H -0.1415 0.6466 -0.0241
H72A H -0.1042 0.6064 -0.0224
H73A H -0.1723 0.5820 -0.0140
H67A H -0.2275 0.5604 -0.0548
O13A O -0.3258(4) 0.7362(6) -0.04744(8)
C85A C -0.2734(7) 0.7854(9) -0.04841(12)
N5A N -0.2473(4) 0.8347(6) -0.03885(9)
C86A C -0.2827(5) 0.8331(7) -0.02527(10)
H82A H -0.3252 0.7931 -0.0252
H83A H -0.2889 0.8710 -0.0252
H84A H -0.2577 0.8343 -0.0163
C87A C -0.1834(6) 0.8907(8) -0.04077(16)
H85A H -0.1643 0.8866 -0.0502
H86A H -0.1556 0.8935 -0.0323
H87A H -0.1869 0.9302 -0.0411
H81A H -0.2480 0.7891 -0.0571
C43A C -0.4009(4) 0.6154(5) -0.01244(9)
C44A C -0.4255(4) 0.6491(6) -0.02043(11)
H30A H -0.4034 0.6733 -0.0292
C45A C -0.4828(4) 0.6475(6) -0.01561(12)
H31A H -0.5004 0.6694 -0.0212
C46A C -0.5126(4) 0.6139(6) -0.00268(12)
H32A H -0.5503 0.6141 0.0008
C47A C -0.4897(4) 0.5800(6) 0.00532(11)
H33A H -0.5120 0.5563 0.0141
C48A C -0.4322(4) 0.5808(6) 0.00039(9)
H34A H -0.4156 0.5578 0.0059
C49A C -0.2625(4) 0.6997(5) -0.01112(9)
C50A C -0.2037(4) 0.7351(6) -0.01842(10)
H35A H -0.1968 0.7198 -0.0278
C51A C -0.1543(4) 0.7928(6) -0.01233(12)
H36A H -0.1140 0.8168 -0.0175
C52A C -0.1644(5) 0.8151(6) 0.00130(13)
H37A H -0.1310 0.8548 0.0055
C53A C -0.2246(5) 0.7786(6) 0.00909(10)
H38A H -0.2309 0.7932 0.0186
C54A C -0.2733(4) 0.7226(6) 0.00278(9)
H39A H -0.3143 0.6992 0.0077
C41A C -0.2860(4) 0.5706(6) 0.00437(9)
H28A H -0.2723 0.6105 0.0096
C42A C -0.2781(4) 0.5224(6) 0.01105(8)
H29A H -0.2586 0.5296 0.0208
O12 O -0.0662(5) 0.4634(4) -0.04334(10)
N4 N 0.0322(6) 0.5567(5) -0.04214(10)
C82 C -0.0073(7) 0.4900(5) -0.04404(11)
H74 H 0.0124 0.4643 -0.0459
C83 C 0.0045(8) 0.5992(6) -0.03969(14)
H75 H -0.0431 0.5728 -0.0393
H76 H 0.0173 0.6306 -0.0480
H77 H 0.0207 0.6226 -0.0301
C84 C 0.1005(7) 0.5850(7) -0.04301(15)
H78 H 0.1115 0.5509 -0.0449
H79 H 0.1201 0.6069 -0.0335
H80 H 0.1172 0.6167 -0.0513
O14 O 0.3361(10) 0.9029(10) 0.1871(2)
N6 N 0.2805(6) 0.8687(6) 0.16597(15)
C88 C 0.3247(11) 0.8815(13) 0.1761(2)
C89 C 0.2882(13) 0.8452(14) 0.1523(3)
C90 C 0.2341(9) 0.8816(9) 0.1670(2)
Ag3? Ag -0.037(3) 0.352(5) -0.04504(16)
O15? O -0.2938(18) 0.3851(18) 0.0750(4)
N7? N -0.3333 0.3333 0.0520(3)
C91? C -0.3333 0.3333 0.0675(3)
C92? C -0.3686(8) 0.3670(8) 0.04480(19)
C93? C 0.582(2) 1.269(2) 0.1020(5)
C94? C 0.560(2) 1.246(2) 0.1188(5)
C95? C 0.5520(17) 1.1930(17) 0.1235(4)
C96? C 0.619(2) 1.223(2) 0.1286(5)
C97? C 0.499(2) 1.149(2) 0.1199(5)
C98? C -0.3333 0.3333 -0.1449(6)
C99? C -0.326(2) 0.399(2) -0.1421(5)
C100? C -0.404(2) 0.388(2) -0.1565(5)
loop_
_geom_bond_atom_site_label_1
_geom_bond_atom_site_label_2
_geom_bond_site_symmetry_1
_geom_bond_site_symmetry_2
Cs1 Sn1 1_555 1_555
Cs2 Sn3 1_555 1_555
Sn1 O1 1_555 1_555
Sn2 Cs1 1_555 1_555
Sn3 O5 1_555 1_555
Sn4 Cs2 1_555 1_555
Ag1 P1 1_555 1_555
Ag2 P3 1_555 1_555
P1 C4 1_555 1_555
P2 Ag1 1_555 1_555
P3 C40 1_555 1_555
P4 Ag2 1_555 1_555
O1 C1 1_555 1_555
O2 Cs1 1_555 1_555
O3 Cs1 1_555 1_555
O4 Sn2 1_555 1_555
O5 C37 1_555 1_555
O6 Cs2 1_555 1_555
O7 Cs2 1_555 1_555
O8 Sn4 1_555 1_555
O9 Ag1 1_555 1_555
O10 Ag1 1_555 1_555
O11 Ag2 1_555 1_555
O12 C82 1_555 1_555
O13 Ag2 1_555 1_555
O14 C88 1_555 1_555
N1 C73 1_555 1_555
N2 C76 1_555 1_555
N3 C79 1_555 1_555
N4 C82 1_555 1_555
N5 C85 1_555 1_555
N6 C88 1_555 1_555
C1 C2 1_555 1_555
C2 O2 1_555 1_555
C3 C2 1_555 1_555
H1 C3 1_555 1_555
C4 C3 1_555 1_555
C5 C4 1_555 1_555
H2 C5 1_555 1_555
C6 C1 1_555 1_555
H3 C6 1_555 1_555
C7 P1 1_555 1_555
C8 C7 1_555 1_555
H4 C8 1_555 1_555
C9 C8 1_555 1_555
H5 C9 1_555 1_555
C10 C9 1_555 1_555
H6 C10 1_555 1_555
C11 C10 1_555 1_555
H7 C11 1_555 1_555
C12 C7 1_555 1_555
H8 C12 1_555 1_555
C13 P1 1_555 1_555
C14 C13 1_555 1_555
H9 C14 1_555 1_555
C15 C14 1_555 1_555
H10 C15 1_555 1_555
C16 C15 1_555 1_555
H11 C16 1_555 1_555
C17 C16 1_555 1_555
H12 C17 1_555 1_555
C18 C13 1_555 1_555
H13 C18 1_555 1_555
C19 O3 1_555 1_555
C20 O4 1_555 1_555
C21 C20 1_555 1_555
H14 C21 1_555 1_555
C22 C21 1_555 1_555
H15 C22 1_555 1_555
C23 P2 1_555 1_555
C24 C19 1_555 1_555
H16 C24 1_555 1_555
C25 P2 1_555 1_555
C26 C25 1_555 1_555
H17 C26 1_555 1_555
C27 C26 1_555 1_555
H18 C27 1_555 1_555
C28 C27 1_555 1_555
H19 C28 1_555 1_555
C29 C28 1_555 1_555
H20 C29 1_555 1_555
C30 C25 1_555 1_555
H21 C30 1_555 1_555
C31 P2 1_555 1_555
C32 C31 1_555 1_555
H22 C32 1_555 1_555
C33 C32 1_555 1_555
H23 C33 1_555 1_555
C34 C33 1_555 1_555
H24 C34 1_555 1_555
C35 C34 1_555 1_555
H25 C35 1_555 1_555
C36 C31 1_555 1_555
H26 C36 1_555 1_555
C37 C38 1_555 1_555
C38 O6 1_555 1_555
C39 C38 1_555 1_555
H27 C39 1_555 1_555
C40 C39 1_555 1_555
C41 C40 1_555 1_555
H28 C41 1_555 1_555
C42 C37 1_555 1_555
H29 C42 1_555 1_555
C43 P3 1_555 1_555
C44 C43 1_555 1_555
H30 C44 1_555 1_555
C45 C44 1_555 1_555
H31 C45 1_555 1_555
C46 C45 1_555 1_555
H32 C46 1_555 1_555
C47 C46 1_555 1_555
H33 C47 1_555 1_555
C48 C43 1_555 1_555
H34 C48 1_555 1_555
C49 P3 1_555 1_555
C50 C49 1_555 1_555
H35 C50 1_555 1_555
C51 C50 1_555 1_555
H36 C51 1_555 1_555
C52 C51 1_555 1_555
H37 C52 1_555 1_555
C53 C52 1_555 1_555
H38 C53 1_555 1_555
C54 C49 1_555 1_555
H39 C54 1_555 1_555
C55 O7 1_555 1_555
C56 O8 1_555 1_555
C57 C56 1_555 1_555
H40 C57 1_555 1_555
C58 C57 1_555 1_555
H41 C58 1_555 1_555
C59 P4 1_555 1_555
C60 C55 1_555 1_555
H42 C60 1_555 1_555
C61 P4 1_555 1_555
C62 C61 1_555 1_555
H43 C62 1_555 1_555
C63 C62 1_555 1_555
H44 C63 1_555 1_555
C64 C63 1_555 1_555
H45 C64 1_555 1_555
C65 C64 1_555 1_555
H46 C65 1_555 1_555
C66 C61 1_555 1_555
H47 C66 1_555 1_555
C67 P4 1_555 1_555
C68 C67 1_555 1_555
H48 C68 1_555 1_555
C69 C68 1_555 1_555
H49 C69 1_555 1_555
C70 C69 1_555 1_555
H50 C70 1_555 1_555
C71 C70 1_555 1_555
H51 C71 1_555 1_555
C72 C67 1_555 1_555
H52 C72 1_555 1_555
C73 O9 1_555 1_555
H53 C73 1_555 1_555
C74 N1 1_555 1_555
H54 C74 1_555 1_555
H55 C74 1_555 1_555
H56 C74 1_555 1_555
C75 N1 1_555 1_555
H57 C75 1_555 1_555
H58 C75 1_555 1_555
H59 C75 1_555 1_555
C76 O10 1_555 1_555
H60 C76 1_555 1_555
C77 N2 1_555 1_555
H61 C77 1_555 1_555
H62 C77 1_555 1_555
H63 C77 1_555 1_555
C78 N2 1_555 1_555
H64 C78 1_555 1_555
H65 C78 1_555 1_555
H66 C78 1_555 1_555
C79 O11 1_555 1_555
H67 C79 1_555 1_555
C80 N3 1_555 1_555
H68 C80 1_555 1_555
H69 C80 1_555 1_555
H70 C80 1_555 1_555
C81 N3 1_555 1_555
H71 C81 1_555 1_555
H72 C81 1_555 1_555
H73 C81 1_555 1_555
C82 H74 1_555 1_555
C83 N4 1_555 1_555
H75 C83 1_555 1_555
H76 C83 1_555 1_555
H77 C83 1_555 1_555
C84 N4 1_555 1_555
H78 C84 1_555 1_555
H79 C84 1_555 1_555
H80 C84 1_555 1_555
C85 O13 1_555 1_555
H81 C85 1_555 1_555
C86 N5 1_555 1_555
H82 C86 1_555 1_555
H83 C86 1_555 1_555
H84 C86 1_555 1_555
C87 N5 1_555 1_555
H85 C87 1_555 1_555
H86 C87 1_555 1_555
H87 C87 1_555 1_555
C89 N6 1_555 1_555
C90 N6 1_555 1_555
O2A Cs1 1_555 1_555
O1A Sn1 1_555 1_555
C1A O1A 1_555 1_555
C2A O2A 1_555 1_555
C3A C2A 1_555 1_555
H1A C3A 1_555 1_555
C4A C3A 1_555 1_555
P1A C4A 1_555 1_555
Ag1A P1A 1_555 1_555
P2A Ag1A 1_555 1_555
C23A P2A 1_555 1_555
C22A C23A 1_555 1_555
C21A C22A 1_555 1_555
C20A C21A 1_555 1_555
O4A Sn2 1_555 1_555
O3A Cs1 1_555 1_555
O2B Cs1 1_555 1_555
O1B Sn1 1_555 1_555
C1B O1B 1_555 1_555
C2B O2B 1_555 1_555
C3B C2B 1_555 1_555
H1B C3B 1_555 1_555
C4B C3B 1_555 1_555
P1B C4B 1_555 1_555
Ag1B P1B 1_555 1_555
P2B Ag1B 1_555 1_555
C23B P2B 1_555 1_555
C22B C23B 1_555 1_555
C21B C22B 1_555 1_555
C20B C21B 1_555 1_555
O4B Sn2 1_555 1_555
O3B Cs1 1_555 1_555
C19B C20B 1_555 1_555
C24B C23B 1_555 1_555
H16B C24B 1_555 1_555
H14B C21B 1_555 1_555
H15B C22B 1_555 1_555
C25B P2B 1_555 1_555
C26B C25B 1_555 1_555
H17B C26B 1_555 1_555
C27B C26B 1_555 1_555
H18B C27B 1_555 1_555
C28B C27B 1_555 1_555
H19B C28B 1_555 1_555
C29B C28B 1_555 1_555
H20B C29B 1_555 1_555
C30B C25B 1_555 1_555
H21B C30B 1_555 1_555
C31B P2B 1_555 1_555
C32B C31B 1_555 1_555
H22B C32B 1_555 1_555
C33B C32B 1_555 1_555
H23B C33B 1_555 1_555
C34B C33B 1_555 1_555
H24B C34B 1_555 1_555
C35B C34B 1_555 1_555
H25B C35B 1_555 1_555
C36B C31B 1_555 1_555
H26B C36B 1_555 1_555
O9B Ag1B 1_555 1_555
C73B O9B 1_555 1_555
N1B C73B 1_555 1_555
C74B N1B 1_555 1_555
H54B C74B 1_555 1_555
H55B C74B 1_555 1_555
H56B C74B 1_555 1_555
C75B N1B 1_555 1_555
H57B C75B 1_555 1_555
H58B C75B 1_555 1_555
H59B C75B 1_555 1_555
H53B C73B 1_555 1_555
O10B Ag1B 1_555 1_555
C76B O10B 1_555 1_555
N2B C76B 1_555 1_555
C77B N2B 1_555 1_555
H61B C77B 1_555 1_555
H62B C77B 1_555 1_555
H63B C77B 1_555 1_555
C78B N2B 1_555 1_555
H64B C78B 1_555 1_555
H65B C78B 1_555 1_555
H66B C78B 1_555 1_555
H60B C76B 1_555 1_555
C7B P1B 1_555 1_555
C8B C7B 1_555 1_555
H4B C8B 1_555 1_555
C9B C8B 1_555 1_555
H5B C9B 1_555 1_555
C10B C9B 1_555 1_555
H6B C10B 1_555 1_555
C11B C10B 1_555 1_555
H7B C11B 1_555 1_555
C12B C7B 1_555 1_555
H8B C12B 1_555 1_555
C13B P1B 1_555 1_555
C14B C13B 1_555 1_555
H9B C14B 1_555 1_555
C15B C14B 1_555 1_555
H10B C15B 1_555 1_555
C16B C15B 1_555 1_555
H11B C16B 1_555 1_555
C17B C16B 1_555 1_555
H12B C17B 1_555 1_555
C18B C13B 1_555 1_555
H13B C18B 1_555 1_555
C5B C4B 1_555 1_555
H2B C5B 1_555 1_555
C6B C1B 1_555 1_555
H3B C6B 1_555 1_555
C19A C20A 1_555 1_555
C24A C23A 1_555 1_555
H16A C24A 1_555 1_555
H14A C21A 1_555 1_555
H15A C22A 1_555 1_555
C25A P2A 1_555 1_555
C26A C25A 1_555 1_555
H17A C26A 1_555 1_555
C27A C26A 1_555 1_555
H18A C27A 1_555 1_555
C28A C27A 1_555 1_555
H19A C28A 1_555 1_555
C29A C28A 1_555 1_555
H20A C29A 1_555 1_555
C30A C25A 1_555 1_555
H21A C30A 1_555 1_555
C31A P2A 1_555 1_555
C32A C31A 1_555 1_555
H22A C32A 1_555 1_555
C33A C32A 1_555 1_555
H23A C33A 1_555 1_555
C34A C33A 1_555 1_555
H24A C34A 1_555 1_555
C35A C34A 1_555 1_555
H25A C35A 1_555 1_555
C36A C31A 1_555 1_555
H26A C36A 1_555 1_555
O9A Ag1A 1_555 1_555
C73A O9A 1_555 1_555
N1A C73A 1_555 1_555
C74A N1A 1_555 1_555
H54A C74A 1_555 1_555
H55A C74A 1_555 1_555
H56A C74A 1_555 1_555
C75A N1A 1_555 1_555
H57A C75A 1_555 1_555
H58A C75A 1_555 1_555
H59A C75A 1_555 1_555
H53A C73A 1_555 1_555
O10A Ag1A 1_555 1_555
C76A O10A 1_555 1_555
N2A C76A 1_555 1_555
C77A N2A 1_555 1_555
H61A C77A 1_555 1_555
H62A C77A 1_555 1_555
H63A C77A 1_555 1_555
C78A N2A 1_555 1_555
H64A C78A 1_555 1_555
H65A C78A 1_555 1_555
H66A C78A 1_555 1_555
H60A C76A 1_555 1_555
C7A P1A 1_555 1_555
C8A C7A 1_555 1_555
H4A C8A 1_555 1_555
C9A C8A 1_555 1_555
H5A C9A 1_555 1_555
C10A C9A 1_555 1_555
H6A C10A 1_555 1_555
C11A C10A 1_555 1_555
H7A C11A 1_555 1_555
C12A C7A 1_555 1_555
H8A C12A 1_555 1_555
C13A P1A 1_555 1_555
C14A C13A 1_555 1_555
H9A C14A 1_555 1_555
C15A C14A 1_555 1_555
H10A C15A 1_555 1_555
C16A C15A 1_555 1_555
H11A C16A 1_555 1_555
C17A C16A 1_555 1_555
H12A C17A 1_555 1_555
C18A C13A 1_555 1_555
H13A C18A 1_555 1_555
C5A C4A 1_555 1_555
H2A C5A 1_555 1_555
C6A C1A 1_555 1_555
H3A C6A 1_555 1_555
O6A Cs2 1_555 1_555
O5A Sn3 1_555 1_555
C37A O5A 1_555 1_555
C38A O6A 1_555 1_555
C39A C38A 1_555 1_555
H27A C39A 1_555 1_555
C40A C39A 1_555 1_555
P3A C40A 1_555 1_555
Ag2A P3A 1_555 1_555
P4A Ag2A 1_555 1_555
C59A P4A 1_555 1_555
C58A C59A 1_555 1_555
C57A C58A 1_555 1_555
C56A C57A 1_555 1_555
O8A Sn4 1_555 1_555
O7A Cs2 1_555 1_555
O6B Cs2 1_555 1_555
O5B Sn3 1_555 1_555
C37B O5B 1_555 1_555
C38B O6B 1_555 1_555
C39B C38B 1_555 1_555
H27B C39B 1_555 1_555
C40B C39B 1_555 1_555
P3B C40B 1_555 1_555
Ag2B P3B 1_555 1_555
P4B Ag2B 1_555 1_555
C59B P4B 1_555 1_555
C58B C59B 1_555 1_555
C57B C58B 1_555 1_555
C56B C57B 1_555 1_555
O8B Sn4 1_555 1_555
O7B Cs2 1_555 1_555
C55B C56B 1_555 1_555
C60B C59B 1_555 1_555
H42B C60B 1_555 1_555
H40B C57B 1_555 1_555
H41B C58B 1_555 1_555
C61B P4B 1_555 1_555
C62B C61B 1_555 1_555
H43B C62B 1_555 1_555
C63B C62B 1_555 1_555
H44B C63B 1_555 1_555
C64B C63B 1_555 1_555
H45B C64B 1_555 1_555
C65B C64B 1_555 1_555
H46B C65B 1_555 1_555
C66B C61B 1_555 1_555
H47B C66B 1_555 1_555
C67B P4B 1_555 1_555
C68B C67B 1_555 1_555
H48B C68B 1_555 1_555
C69B C68B 1_555 1_555
H49B C69B 1_555 1_555
C70B C69B 1_555 1_555
H50B C70B 1_555 1_555
C71B C70B 1_555 1_555
H51B C71B 1_555 1_555
C72B C67B 1_555 1_555
H52B C72B 1_555 1_555
O11B Ag2B 1_555 1_555
C79B O11B 1_555 1_555
N3B C79B 1_555 1_555
C80B N3B 1_555 1_555
H68B C80B 1_555 1_555
H69B C80B 1_555 1_555
H70B C80B 1_555 1_555
C81B N3B 1_555 1_555
H71B C81B 1_555 1_555
H72B C81B 1_555 1_555
H73B C81B 1_555 1_555
H67B C79B 1_555 1_555
O13B Ag2B 1_555 1_555
C85B O13B 1_555 1_555
N5B C85B 1_555 1_555
C86B N5B 1_555 1_555
H82B C86B 1_555 1_555
H83B C86B 1_555 1_555
H84B C86B 1_555 1_555
C87B N5B 1_555 1_555
H85B C87B 1_555 1_555
H86B C87B 1_555 1_555
H87B C87B 1_555 1_555
H81B C85B 1_555 1_555
C43B P3B 1_555 1_555
C44B C43B 1_555 1_555
H30B C44B 1_555 1_555
C45B C44B 1_555 1_555
H31B C45B 1_555 1_555
C46B C45B 1_555 1_555
H32B C46B 1_555 1_555
C47B C46B 1_555 1_555
H33B C47B 1_555 1_555
C48B C43B 1_555 1_555
H34B C48B 1_555 1_555
C49B P3B 1_555 1_555
C50B C49B 1_555 1_555
H35B C50B 1_555 1_555
C51B C50B 1_555 1_555
H36B C51B 1_555 1_555
C52B C51B 1_555 1_555
H37B C52B 1_555 1_555
C53B C52B 1_555 1_555
H38B C53B 1_555 1_555
C54B C49B 1_555 1_555
H39B C54B 1_555 1_555
C41B C40B 1_555 1_555
H28B C41B 1_555 1_555
C42B C37B 1_555 1_555
H29B C42B 1_555 1_555
C55A C56A 1_555 1_555
C60A C59A 1_555 1_555
H42A C60A 1_555 1_555
H40A C57A 1_555 1_555
H41A C58A 1_555 1_555
C61A P4A 1_555 1_555
C62A C61A 1_555 1_555
H43A C62A 1_555 1_555
C63A C62A 1_555 1_555
H44A C63A 1_555 1_555
C64A C63A 1_555 1_555
H45A C64A 1_555 1_555
C65A C64A 1_555 1_555
H46A C65A 1_555 1_555
C66A C61A 1_555 1_555
H47A C66A 1_555 1_555
C67A P4A 1_555 1_555
C68A C67A 1_555 1_555
H48A C68A 1_555 1_555
C69A C68A 1_555 1_555
H49A C69A 1_555 1_555
C70A C69A 1_555 1_555
H50A C70A 1_555 1_555
C71A C70A 1_555 1_555
H51A C71A 1_555 1_555
C72A C67A 1_555 1_555
H52A C72A 1_555 1_555
O11A Ag2A 1_555 1_555
C79A O11A 1_555 1_555
N3A C79A 1_555 1_555
C80A N3A 1_555 1_555
H68A C80A 1_555 1_555
H69A C80A 1_555 1_555
H70A C80A 1_555 1_555
C81A N3A 1_555 1_555
H71A C81A 1_555 1_555
H72A C81A 1_555 1_555
H73A C81A 1_555 1_555
H67A C79A 1_555 1_555
O13A Ag2A 1_555 1_555
C85A O13A 1_555 1_555
N5A C85A 1_555 1_555
C86A N5A 1_555 1_555
H82A C86A 1_555 1_555
H83A C86A 1_555 1_555
H84A C86A 1_555 1_555
C87A N5A 1_555 1_555
H85A C87A 1_555 1_555
H86A C87A 1_555 1_555
H87A C87A 1_555 1_555
H81A C85A 1_555 1_555
C43A P3A 1_555 1_555
C44A C43A 1_555 1_555
H30A C44A 1_555 1_555
C45A C44A 1_555 1_555
H31A C45A 1_555 1_555
C46A C45A 1_555 1_555
H32A C46A 1_555 1_555
C47A C46A 1_555 1_555
H33A C47A 1_555 1_555
C48A C43A 1_555 1_555
H34A C48A 1_555 1_555
C49A P3A 1_555 1_555
C50A C49A 1_555 1_555
H35A C50A 1_555 1_555
C51A C50A 1_555 1_555
H36A C51A 1_555 1_555
C52A C51A 1_555 1_555
H37A C52A 1_555 1_555
C53A C52A 1_555 1_555
H38A C53A 1_555 1_555
C54A C49A 1_555 1_555
H39A C54A 1_555 1_555
C41A C40A 1_555 1_555
H28A C41A 1_555 1_555
C42A C37A 1_555 1_555
H29A C42A 1_555 1_555
Sn1 O2A 1_555 1_555
Sn1 O2B 1_555 1_555
Sn1 O2 1_555 1_555
Sn2 O3 1_555 1_555
Sn2 O3A 1_555 1_555
Sn2 O3B 1_555 1_555
Sn3 O6A 1_555 1_555
Sn3 O6B 1_555 1_555
Sn3 O6 1_555 1_555
Sn4 O7 1_555 1_555
Sn4 O7A 1_555 1_555
Sn4 O7B 1_555 1_555
C5 C6 1_555 1_555
C11 C12 1_555 1_555
C17 C18 1_555 1_555
C19 C20 1_555 1_555
C22 C23 1_555 1_555
C23 C24 1_555 1_555
C29 C30 1_555 1_555
C35 C36 1_555 1_555
C41 C42 1_555 1_555
C47 C48 1_555 1_555
C53 C54 1_555 1_555
C55 C56 1_555 1_555
C58 C59 1_555 1_555
C59 C60 1_555 1_555
C65 C66 1_555 1_555
C71 C72 1_555 1_555
C1A C2A 1_555 1_555
C20A O4A 1_555 1_555
O3A C19A 1_555 1_555
C1B C2B 1_555 1_555
C20B O4B 1_555 1_555
O3B C19B 1_555 1_555
C19B C24B 1_555 1_555
C29B C30B 1_555 1_555
C35B C36B 1_555 1_555
C11B C12B 1_555 1_555
C17B C18B 1_555 1_555
C5B C6B 1_555 1_555
C19A C24A 1_555 1_555
C29A C30A 1_555 1_555
C35A C36A 1_555 1_555
C11A C12A 1_555 1_555
C17A C18A 1_555 1_555
C5A C6A 1_555 1_555
C37A C38A 1_555 1_555
C56A O8A 1_555 1_555
O7A C55A 1_555 1_555
C37B C38B 1_555 1_555
C56B O8B 1_555 1_555
O7B C55B 1_555 1_555
C55B C60B 1_555 1_555
C65B C66B 1_555 1_555
C71B C72B 1_555 1_555
C47B C48B 1_555 1_555
C53B C54B 1_555 1_555
C41B C42B 1_555 1_555
C55A C60A 1_555 1_555
C65A C66A 1_555 1_555
C71A C72A 1_555 1_555
C47A C48A 1_555 1_555
C53A C54A 1_555 1_555
C41A C42A 1_555 1_555

#END
