# generated using pymatgen
data_Cs2Ag9Sn4P12H261C296N19O45
_symmetry_space_group_name_H-M   'P 1'
_cell_length_a   23.71570000
_cell_length_b   23.71570000
_cell_length_c   32.52717735
_cell_angle_alpha   68.61998075
_cell_angle_beta   68.61998075
_cell_angle_gamma   60.00000000
_symmetry_Int_Tables_number   1
_chemical_formula_structural   Cs2Ag9Sn4P12H261C296N19O45
_chemical_formula_sum   'Cs4 Ag18 Sn8 P24 H522 C592 N38 O90'
_cell_volume   14371.32049270
_cell_formula_units_Z   2
loop_
 _symmetry_equiv_pos_site_id
 _symmetry_equiv_pos_as_xyz
  1  'x, y, z'
loop_
 _atom_site_type_symbol
 _atom_site_label
 _atom_site_symmetry_multiplicity
 _atom_site_fract_x
 _atom_site_fract_y
 _atom_site_fract_z
 _atom_site_occupancy
  Ag  Ag1  1  0.082040  0.656040  0.864880  1
  Ag  Ag2  1  0.397040  0.082040  0.864880  1
  Ag  Ag3  1  0.656040  0.397040  0.864880  1
  Ag  Ag4  1  0.602960  0.917960  0.135120  1
  Ag  Ag5  1  0.343960  0.602960  0.135120  1
  Ag  Ag6  1  0.917960  0.343960  0.135120  1
  Ag  Ag7  1  0.581769  0.150769  0.334293  1.0
  Ag  Ag8  1  0.933169  0.581769  0.334293  1.0
  Ag  Ag9  1  0.150769  0.933169  0.334293  1.0
  Ag  Ag10  1  0.066831  0.418231  0.665707  1.0
  Ag  Ag11  1  0.849231  0.066831  0.665707  1.0
  Ag  Ag12  1  0.418231  0.849231  0.665707  1.0
  Ag  Ag13  1  0.102130  0.668130  0.860110  1.0
  Ag  Ag14  1  0.369630  0.102130  0.860110  1.0
  Ag  Ag15  1  0.668130  0.369630  0.860110  1.0
  Ag  Ag16  1  0.630370  0.897870  0.139890  1.0
  Ag  Ag17  1  0.331870  0.630370  0.139890  1.0
  Ag  Ag18  1  0.897870  0.331870  0.139890  1.0
  C  C19  1  0.051340  0.546740  0.867880  1
  C  C20  1  0.534040  0.051340  0.867880  1
  C  C21  1  0.546740  0.534040  0.867880  1
  C  C22  1  0.465960  0.948660  0.132120  1
  C  C23  1  0.453260  0.465960  0.132120  1
  C  C24  1  0.948660  0.453260  0.132120  1
  C  C25  1  0.035190  0.444990  0.880930  1
  C  C26  1  0.638890  0.035190  0.880930  1
  C  C27  1  0.444990  0.638890  0.880930  1
  C  C28  1  0.361110  0.964810  0.119070  1
  C  C29  1  0.555010  0.361110  0.119070  1
  C  C30  1  0.964810  0.555010  0.119070  1
  C  C31  1  0.942510  0.558510  0.870970  1
  C  C32  1  0.628010  0.942510  0.870970  1
  C  C33  1  0.558510  0.628010  0.870970  1
  C  C34  1  0.371990  0.057490  0.129030  1
  C  C35  1  0.441490  0.371990  0.129030  1
  C  C36  1  0.057490  0.441490  0.129030  1
  C  C37  1  0.499200  0.267100  0.528300  1
  C  C38  1  0.705400  0.499200  0.528300  1
  C  C39  1  0.267100  0.705400  0.528300  1
  C  C40  1  0.294600  0.500800  0.471700  1
  C  C41  1  0.732900  0.294600  0.471700  1
  C  C42  1  0.500800  0.732900  0.471700  1
  C  C43  1  0.559500  0.290700  0.456900  1
  C  C44  1  0.692900  0.559500  0.456900  1
  C  C45  1  0.290700  0.692900  0.456900  1
  C  C46  1  0.307100  0.440500  0.543100  1
  C  C47  1  0.709300  0.307100  0.543100  1
  C  C48  1  0.440500  0.709300  0.543100  1
  C  C49  1  0.598900  0.185500  0.501000  1
  C  C50  1  0.714600  0.598900  0.501000  1
  C  C51  1  0.185500  0.714600  0.501000  1
  C  C52  1  0.285400  0.401100  0.499000  1
  C  C53  1  0.814500  0.285400  0.499000  1
  C  C54  1  0.401100  0.814500  0.499000  1
  C  C55  1  0.265800  0.265867  0.202500  1
  C  C56  1  0.734189  0.734156  0.797500  1
  C  C57  1  0.323800  0.219600  0.134400  1
  C  C58  1  0.322200  0.323800  0.134400  1
  C  C59  1  0.219600  0.322200  0.134400  1
  C  C60  1  0.677800  0.676200  0.865600  1
  C  C61  1  0.780400  0.677800  0.865600  1
  C  C62  1  0.676200  0.780400  0.865600  1
  C  C63  1  0.316000  0.211000  0.306000  1
  C  C64  1  0.167000  0.316000  0.306000  1
  C  C65  1  0.211000  0.167000  0.306000  1
  C  C66  1  0.833000  0.684000  0.694000  1
  C  C67  1  0.789000  0.833000  0.694000  1
  C  C68  1  0.684000  0.789000  0.694000  1
  C  C69  1  0.321200  0.195200  0.356400  1
  C  C70  1  0.127200  0.321200  0.356400  1
  C  C71  1  0.195200  0.127200  0.356400  1
  C  C72  1  0.872800  0.678800  0.643600  1
  C  C73  1  0.804800  0.872800  0.643600  1
  C  C74  1  0.678800  0.804800  0.643600  1
  C  C75  1  0.324500  0.235500  0.370500  1
  C  C76  1  0.069500  0.324500  0.370500  1
  C  C77  1  0.235500  0.069500  0.370500  1
  C  C78  1  0.930500  0.675500  0.629500  1
  C  C79  1  0.764500  0.930500  0.629500  1
  C  C80  1  0.675500  0.764500  0.629500  1
  C  C81  1  0.252400  0.267400  0.385800  1
  C  C82  1  0.094400  0.252400  0.385800  1
  C  C83  1  0.267400  0.094400  0.385800  1
  C  C84  1  0.905600  0.747600  0.614200  1
  C  C85  1  0.732600  0.905600  0.614200  1
  C  C86  1  0.747600  0.732600  0.614200  1
  C  C87  1  0.381100  0.230100  0.359700  1
  C  C88  1  0.029100  0.381100  0.359700  1
  C  C89  1  0.230100  0.029100  0.359700  1
  C  C90  1  0.970900  0.618900  0.640300  1
  C  C91  1  0.769900  0.970900  0.640300  1
  C  C92  1  0.618900  0.769900  0.640300  1
  C  C93  1  0.478200  0.478267  0.565300  1
  C  C94  1  0.521789  0.521756  0.434700  1
  C  C95  1  0.468100  0.417100  0.573700  1
  C  C96  1  0.541100  0.468100  0.573700  1
  C  C97  1  0.417100  0.541100  0.573700  1
  C  C98  1  0.458900  0.531900  0.426300  1
  C  C99  1  0.582900  0.458900  0.426300  1
  C  C100  1  0.531900  0.582900  0.426300  1
  C  C101  1  0.560500  0.364500  0.530500  1
  C  C102  1  0.544500  0.560500  0.530500  1
  C  C103  1  0.364500  0.544500  0.530500  1
  C  C104  1  0.455500  0.439500  0.469500  1
  C  C105  1  0.635500  0.455500  0.469500  1
  C  C106  1  0.439500  0.635500  0.469500  1
  C  C107  1  0.837650  0.067550  0.183450  1.0
  C  C108  1  0.911350  0.837650  0.183450  1.0
  C  C109  1  0.067550  0.911350  0.183450  1.0
  C  C110  1  0.088650  0.162350  0.816550  1.0
  C  C111  1  0.932450  0.088650  0.816550  1.0
  C  C112  1  0.162350  0.932450  0.816550  1.0
  C  C113  1  0.805320  0.037120  0.225240  1.0
  C  C114  1  0.932320  0.805320  0.225240  1.0
  C  C115  1  0.037120  0.932320  0.225240  1.0
  C  C116  1  0.067680  0.194680  0.774760  1.0
  C  C117  1  0.962880  0.067680  0.774760  1.0
  C  C118  1  0.194680  0.962880  0.774760  1.0
  C  C119  1  0.740850  0.074950  0.246450  1.0
  C  C120  1  0.937750  0.740850  0.246450  1.0
  C  C121  1  0.074950  0.937750  0.246450  1.0
  C  C122  1  0.062250  0.259150  0.753550  1.0
  C  C123  1  0.925050  0.062250  0.753550  1.0
  C  C124  1  0.259150  0.925050  0.753550  1.0
  C  C125  1  0.707150  0.142850  0.226950  1.0
  C  C126  1  0.923050  0.707150  0.226950  1.0
  C  C127  1  0.142850  0.923050  0.226950  1.0
  C  C128  1  0.076950  0.292850  0.773050  1.0
  C  C129  1  0.857150  0.076950  0.773050  1.0
  C  C130  1  0.292850  0.857150  0.773050  1.0
  C  C131  1  0.740230  0.172630  0.186210  1.0
  C  C132  1  0.900930  0.740230  0.186210  1.0
  C  C133  1  0.172630  0.900930  0.186210  1.0
  C  C134  1  0.099070  0.259770  0.813790  1.0
  C  C135  1  0.827370  0.099070  0.813790  1.0
  C  C136  1  0.259770  0.827370  0.813790  1.0
  C  C137  1  0.804640  0.135140  0.165480  1.0
  C  C138  1  0.894740  0.804640  0.165480  1.0
  C  C139  1  0.135140  0.894740  0.165480  1.0
  C  C140  1  0.105260  0.195360  0.834520  1.0
  C  C141  1  0.864860  0.105260  0.834520  1.0
  C  C142  1  0.195360  0.864860  0.834520  1.0
  C  C143  1  0.569720  0.189520  0.223140  1.0
  C  C144  1  0.017620  0.569720  0.223140  1.0
  C  C145  1  0.189520  0.017620  0.223140  1.0
  C  C146  1  0.982380  0.430280  0.776860  1.0
  C  C147  1  0.810480  0.982380  0.776860  1.0
  C  C148  1  0.430280  0.810480  0.776860  1.0
  C  C149  1  0.503740  0.203640  0.243480  1.0
  C  C150  1  0.049140  0.503740  0.243480  1.0
  C  C151  1  0.203640  0.049140  0.243480  1.0
  C  C152  1  0.950860  0.496260  0.756520  1.0
  C  C153  1  0.796360  0.950860  0.756520  1.0
  C  C154  1  0.496260  0.796360  0.756520  1.0
  C  C155  1  0.461220  0.203920  0.222240  1.0
  C  C156  1  0.112620  0.461220  0.222240  1.0
  C  C157  1  0.203920  0.112620  0.222240  1.0
  C  C158  1  0.887380  0.538780  0.777760  1.0
  C  C159  1  0.796080  0.887380  0.777760  1.0
  C  C160  1  0.538780  0.796080  0.777760  1.0
  C  C161  1  0.488110  0.187710  0.180270  1.0
  C  C162  1  0.143910  0.488110  0.180270  1.0
  C  C163  1  0.187710  0.143910  0.180270  1.0
  C  C164  1  0.856090  0.511890  0.819730  1.0
  C  C165  1  0.812290  0.856090  0.819730  1.0
  C  C166  1  0.511890  0.812290  0.819730  1.0
  C  C167  1  0.554120  0.173220  0.159540  1.0
  C  C168  1  0.113120  0.554120  0.159540  1.0
  C  C169  1  0.173220  0.113120  0.159540  1.0
  C  C170  1  0.886880  0.445880  0.840460  1.0
  C  C171  1  0.826780  0.886880  0.840460  1.0
  C  C172  1  0.445880  0.826780  0.840460  1.0
  C  C173  1  0.595010  0.173410  0.181170  1.0
  C  C174  1  0.050410  0.595010  0.181170  1.0
  C  C175  1  0.173410  0.050410  0.181170  1.0
  C  C176  1  0.949590  0.404990  0.818830  1.0
  C  C177  1  0.826590  0.949590  0.818830  1.0
  C  C178  1  0.404990  0.826590  0.818830  1.0
  C  C179  1  0.610870  0.272570  0.241890  1.0
  C  C180  1  0.874670  0.610870  0.241890  1.0
  C  C181  1  0.272570  0.874670  0.241890  1.0
  C  C182  1  0.125330  0.389130  0.758110  1.0
  C  C183  1  0.727430  0.125330  0.758110  1.0
  C  C184  1  0.389130  0.727430  0.758110  1.0
  C  C185  1  0.658300  0.282900  0.250800  1.0
  C  C186  1  0.808000  0.658300  0.250800  1.0
  C  C187  1  0.282900  0.808000  0.250800  1.0
  C  C188  1  0.192000  0.341700  0.749200  1.0
  C  C189  1  0.717100  0.192000  0.749200  1.0
  C  C190  1  0.341700  0.717100  0.749200  1.0
  C  C191  1  0.650180  0.346980  0.245760  1.0
  C  C192  1  0.757080  0.650180  0.245760  1.0
  C  C193  1  0.346980  0.757080  0.245760  1.0
  C  C194  1  0.242920  0.349820  0.754240  1.0
  C  C195  1  0.653020  0.242920  0.754240  1.0
  C  C196  1  0.349820  0.653020  0.754240  1.0
  C  C197  1  0.593820  0.401320  0.233640  1.0
  C  C198  1  0.771220  0.593820  0.233640  1.0
  C  C199  1  0.401320  0.771220  0.233640  1.0
  C  C200  1  0.228780  0.406180  0.766360  1.0
  C  C201  1  0.598680  0.228780  0.766360  1.0
  C  C202  1  0.406180  0.598680  0.766360  1.0
  C  C203  1  0.547550  0.391850  0.224850  1.0
  C  C204  1  0.835750  0.547550  0.224850  1.0
  C  C205  1  0.391850  0.835750  0.224850  1.0
  C  C206  1  0.164250  0.452450  0.775150  1.0
  C  C207  1  0.608150  0.164250  0.775150  1.0
  C  C208  1  0.452450  0.608150  0.775150  1.0
  C  C209  1  0.554920  0.328320  0.229440  1.0
  C  C210  1  0.887320  0.554920  0.229440  1.0
  C  C211  1  0.328320  0.887320  0.229440  1.0
  C  C212  1  0.112680  0.445080  0.770560  1.0
  C  C213  1  0.671680  0.112680  0.770560  1.0
  C  C214  1  0.445080  0.671680  0.770560  1.0
  C  C215  1  0.722970  0.941670  0.435090  1.0
  C  C216  1  0.900270  0.722970  0.435090  1.0
  C  C217  1  0.941670  0.900270  0.435090  1.0
  C  C218  1  0.099730  0.277030  0.564910  1.0
  C  C219  1  0.058330  0.099730  0.564910  1.0
  C  C220  1  0.277030  0.058330  0.564910  1.0
  C  C221  1  0.717220  0.951120  0.477540  1.0
  C  C222  1  0.854120  0.717220  0.477540  1.0
  C  C223  1  0.951120  0.854120  0.477540  1.0
  C  C224  1  0.145880  0.282780  0.522460  1.0
  C  C225  1  0.048880  0.145880  0.522460  1.0
  C  C226  1  0.282780  0.048880  0.522460  1.0
  C  C227  1  0.658660  0.997960  0.496620  1.0
  C  C228  1  0.846760  0.658660  0.496620  1.0
  C  C229  1  0.997960  0.846760  0.496620  1.0
  C  C230  1  0.153240  0.341340  0.503380  1.0
  C  C231  1  0.002040  0.153240  0.503380  1.0
  C  C232  1  0.341340  0.002040  0.503380  1.0
  C  C233  1  0.605170  0.035370  0.475590  1.0
  C  C234  1  0.883870  0.605170  0.475590  1.0
  C  C235  1  0.035370  0.883870  0.475590  1.0
  C  C236  1  0.116130  0.394830  0.524410  1.0
  C  C237  1  0.964630  0.116130  0.524410  1.0
  C  C238  1  0.394830  0.964630  0.524410  1.0
  C  C239  1  0.610200  0.027100  0.434100  1.0
  C  C240  1  0.928600  0.610200  0.434100  1.0
  C  C241  1  0.027100  0.928600  0.434100  1.0
  C  C242  1  0.071400  0.389800  0.565900  1.0
  C  C243  1  0.972900  0.071400  0.565900  1.0
  C  C244  1  0.389800  0.972900  0.565900  1.0
  C  C245  1  0.669380  0.980280  0.414060  1.0
  C  C246  1  0.936280  0.669380  0.414060  1.0
  C  C247  1  0.980280  0.936280  0.414060  1.0
  C  C248  1  0.063720  0.330620  0.585940  1.0
  C  C249  1  0.019720  0.063720  0.585940  1.0
  C  C250  1  0.330620  0.019720  0.585940  1.0
  C  C251  1  0.473480  0.130680  0.439260  1.0
  C  C252  1  0.956580  0.473480  0.439260  1.0
  C  C253  1  0.130680  0.956580  0.439260  1.0
  C  C254  1  0.043420  0.526520  0.560740  1.0
  C  C255  1  0.869320  0.043420  0.560740  1.0
  C  C256  1  0.526520  0.869320  0.560740  1.0
  C  C257  1  0.476020  0.183620  0.446040  1.0
  C  C258  1  0.894320  0.476020  0.446040  1.0
  C  C259  1  0.183620  0.894320  0.446040  1.0
  C  C260  1  0.105680  0.523980  0.553960  1.0
  C  C261  1  0.816380  0.105680  0.553960  1.0
  C  C262  1  0.523980  0.816380  0.553960  1.0
  C  C263  1  0.421430  0.226130  0.471810  1.0
  C  C264  1  0.880630  0.421430  0.471810  1.0
  C  C265  1  0.226130  0.880630  0.471810  1.0
  C  C266  1  0.119370  0.578570  0.528190  1.0
  C  C267  1  0.773870  0.119370  0.528190  1.0
  C  C268  1  0.578570  0.773870  0.528190  1.0
  C  C269  1  0.362910  0.217110  0.490170  1.0
  C  C270  1  0.929810  0.362910  0.490170  1.0
  C  C271  1  0.217110  0.929810  0.490170  1.0
  C  C272  1  0.070190  0.637090  0.509830  1.0
  C  C273  1  0.782890  0.070190  0.509830  1.0
  C  C274  1  0.637090  0.782890  0.509830  1.0
  C  C275  1  0.359730  0.163730  0.484110  1.0
  C  C276  1  0.992430  0.359730  0.484110  1.0
  C  C277  1  0.163730  0.992430  0.484110  1.0
  C  C278  1  0.007570  0.640270  0.515890  1.0
  C  C279  1  0.836270  0.007570  0.515890  1.0
  C  C280  1  0.640270  0.836270  0.515890  1.0
  C  C281  1  0.415580  0.119880  0.459360  1.0
  C  C282  1  0.005180  0.415580  0.459360  1.0
  C  C283  1  0.119880  0.005180  0.459360  1.0
  C  C284  1  0.994820  0.584420  0.540640  1.0
  C  C285  1  0.880120  0.994820  0.540640  1.0
  C  C286  1  0.584420  0.880120  0.540640  1.0
  C  C287  1  0.520220  0.023220  0.395040  1.0
  C  C288  1  0.061520  0.520220  0.395040  1.0
  C  C289  1  0.023220  0.061520  0.395040  1.0
  C  C290  1  0.938480  0.479780  0.604960  1.0
  C  C291  1  0.976780  0.938480  0.604960  1.0
  C  C292  1  0.479780  0.976780  0.604960  1.0
  C  C293  1  0.534390  0.959490  0.421530  1.0
  C  C294  1  0.084590  0.534390  0.421530  1.0
  C  C295  1  0.959490  0.084590  0.421530  1.0
  C  C296  1  0.915410  0.465610  0.578470  1.0
  C  C297  1  0.040510  0.915410  0.578470  1.0
  C  C298  1  0.465610  0.040510  0.578470  1.0
  C  C299  1  0.514510  0.917810  0.414870  1.0
  C  C300  1  0.152810  0.514510  0.414870  1.0
  C  C301  1  0.917810  0.152810  0.414870  1.0
  C  C302  1  0.847190  0.485490  0.585130  1.0
  C  C303  1  0.082190  0.847190  0.585130  1.0
  C  C304  1  0.485490  0.082190  0.585130  1.0
  C  C305  1  0.477990  0.941990  0.381930  1.0
  C  C306  1  0.198090  0.477990  0.381930  1.0
  C  C307  1  0.941990  0.198090  0.381930  1.0
  C  C308  1  0.801910  0.522010  0.618070  1.0
  C  C309  1  0.058010  0.801910  0.618070  1.0
  C  C310  1  0.522010  0.058010  0.618070  1.0
  C  C311  1  0.463680  0.006280  0.355260  1.0
  C  C312  1  0.174780  0.463680  0.355260  1.0
  C  C313  1  0.006280  0.174780  0.355260  1.0
  C  C314  1  0.825220  0.536320  0.644740  1.0
  C  C315  1  0.993720  0.825220  0.644740  1.0
  C  C316  1  0.536320  0.993720  0.644740  1.0
  C  C317  1  0.485780  0.046080  0.361860  1.0
  C  C318  1  0.106280  0.485780  0.361860  1.0
  C  C319  1  0.046080  0.106280  0.361860  1.0
  C  C320  1  0.893720  0.514220  0.638140  1.0
  C  C321  1  0.953920  0.893720  0.638140  1.0
  C  C322  1  0.514220  0.953920  0.638140  1.0
  C  C323  1  0.699160  0.128160  0.379920  1.0
  C  C324  1  0.792760  0.699160  0.379920  1.0
  C  C325  1  0.128160  0.792760  0.379920  1.0
  C  C326  1  0.207240  0.300840  0.620080  1.0
  C  C327  1  0.871840  0.207240  0.620080  1.0
  C  C328  1  0.300840  0.871840  0.620080  1.0
  C  C329  1  0.808570  0.071770  0.391590  1.0
  C  C330  1  0.728070  0.808570  0.391590  1.0
  C  C331  1  0.071770  0.728070  0.391590  1.0
  C  C332  1  0.271930  0.191430  0.608410  1.0
  C  C333  1  0.928230  0.271930  0.608410  1.0
  C  C334  1  0.191430  0.928230  0.608410  1.0
  C  C335  1  0.759320  0.192220  0.363840  1.0
  C  C336  1  0.684620  0.759320  0.363840  1.0
  C  C337  1  0.192220  0.684620  0.363840  1.0
  C  C338  1  0.315380  0.240680  0.636160  1.0
  C  C339  1  0.807780  0.315380  0.636160  1.0
  C  C340  1  0.240680  0.807780  0.636160  1.0
  C  C341  1  0.514800  0.309700  0.343800  1.0
  C  C342  1  0.831700  0.514800  0.343800  1.0
  C  C343  1  0.309700  0.831700  0.343800  1.0
  C  C344  1  0.168300  0.485200  0.656200  1.0
  C  C345  1  0.690300  0.168300  0.656200  1.0
  C  C346  1  0.485200  0.690300  0.656200  1.0
  C  C347  1  0.408240  0.388540  0.378480  1.0
  C  C348  1  0.824740  0.408240  0.378480  1.0
  C  C349  1  0.388540  0.824740  0.378480  1.0
  C  C350  1  0.175260  0.591760  0.621520  1.0
  C  C351  1  0.611460  0.175260  0.621520  1.0
  C  C352  1  0.591760  0.611460  0.621520  1.0
  C  C353  1  0.513680  0.407880  0.351660  1.0
  C  C354  1  0.726780  0.513680  0.351660  1.0
  C  C355  1  0.407880  0.726780  0.351660  1.0
  C  C356  1  0.273220  0.486320  0.648340  1.0
  C  C357  1  0.592120  0.273220  0.648340  1.0
  C  C358  1  0.486320  0.592120  0.648340  1.0
  C  C359  1  0.234570  0.459670  0.011190  1.0
  C  C360  1  0.294570  0.234570  0.011190  1.0
  C  C361  1  0.459670  0.294570  0.011190  1.0
  C  C362  1  0.705430  0.765430  0.988810  1.0
  C  C363  1  0.540330  0.705430  0.988810  1.0
  C  C364  1  0.765430  0.540330  0.988810  1.0
  C  C365  1  0.228840  0.463840  0.967780  1.0
  C  C366  1  0.339540  0.228840  0.967780  1.0
  C  C367  1  0.463840  0.339540  0.967780  1.0
  C  C368  1  0.660460  0.771160  0.032220  1.0
  C  C369  1  0.536160  0.660460  0.032220  1.0
  C  C370  1  0.771160  0.536160  0.032220  1.0
  C  C371  1  0.180280  0.518680  0.948160  1.0
  C  C372  1  0.352880  0.180280  0.948160  1.0
  C  C373  1  0.518680  0.352880  0.948160  1.0
  C  C374  1  0.647120  0.819720  0.051840  1.0
  C  C375  1  0.481320  0.647120  0.051840  1.0
  C  C376  1  0.819720  0.481320  0.051840  1.0
  C  C377  1  0.134830  0.571030  0.970210  1.0
  C  C378  1  0.323930  0.134830  0.970210  1.0
  C  C379  1  0.571030  0.323930  0.970210  1.0
  C  C380  1  0.676070  0.865170  0.029790  1.0
  C  C381  1  0.428970  0.676070  0.029790  1.0
  C  C382  1  0.865170  0.428970  0.029790  1.0
  C  C383  1  0.139030  0.566230  0.013110  1.0
  C  C384  1  0.281630  0.139030  0.013110  1.0
  C  C385  1  0.566230  0.281630  0.013110  1.0
  C  C386  1  0.718370  0.860970  0.986890  1.0
  C  C387  1  0.433770  0.718370  0.986890  1.0
  C  C388  1  0.860970  0.433770  0.986890  1.0
  C  C389  1  0.188450  0.511350  0.033150  1.0
  C  C390  1  0.267050  0.188450  0.033150  1.0
  C  C391  1  0.511350  0.267050  0.033150  1.0
  C  C392  1  0.732950  0.811550  0.966850  1.0
  C  C393  1  0.488650  0.732950  0.966850  1.0
  C  C394  1  0.811550  0.488650  0.966850  1.0
  C  C395  1  0.996140  0.627840  0.962680  1.0
  C  C396  1  0.413340  0.996140  0.962680  1.0
  C  C397  1  0.627840  0.413340  0.962680  1.0
  C  C398  1  0.586660  0.003860  0.037320  1.0
  C  C399  1  0.372160  0.586660  0.037320  1.0
  C  C400  1  0.003860  0.372160  0.037320  1.0
  C  C401  1  0.945830  0.669530  0.938710  1.0
  C  C402  1  0.445930  0.945830  0.938710  1.0
  C  C403  1  0.669530  0.445930  0.938710  1.0
  C  C404  1  0.554070  0.054170  0.061290  1.0
  C  C405  1  0.330470  0.554070  0.061290  1.0
  C  C406  1  0.054170  0.330470  0.061290  1.0
  C  C407  1  0.885310  0.663110  0.953170  1.0
  C  C408  1  0.498410  0.885310  0.953170  1.0
  C  C409  1  0.663110  0.498410  0.953170  1.0
  C  C410  1  0.501590  0.114690  0.046830  1.0
  C  C411  1  0.336890  0.501590  0.046830  1.0
  C  C412  1  0.114690  0.336890  0.046830  1.0
  C  C413  1  0.876180  0.616580  0.991960  1.0
  C  C414  1  0.515280  0.876180  0.991960  1.0
  C  C415  1  0.616580  0.515280  0.991960  1.0
  C  C416  1  0.484720  0.123820  0.008040  1.0
  C  C417  1  0.383420  0.484720  0.008040  1.0
  C  C418  1  0.123820  0.383420  0.008040  1.0
  C  C419  1  0.924980  0.574680  0.015960  1.0
  C  C420  1  0.484380  0.924980  0.015960  1.0
  C  C421  1  0.574680  0.484380  0.015960  1.0
  C  C422  1  0.515620  0.075020  0.984040  1.0
  C  C423  1  0.425320  0.515620  0.984040  1.0
  C  C424  1  0.075020  0.425320  0.984040  1.0
  C  C425  1  0.986610  0.580410  0.001170  1.0
  C  C426  1  0.431810  0.986610  0.001170  1.0
  C  C427  1  0.580410  0.431810  0.001170  1.0
  C  C428  1  0.568190  0.013390  0.998830  1.0
  C  C429  1  0.419590  0.568190  0.998830  1.0
  C  C430  1  0.013390  0.419590  0.998830  1.0
  C  C431  1  0.048920  0.710820  0.966640  1.0
  C  C432  1  0.273620  0.048920  0.966640  1.0
  C  C433  1  0.710820  0.273620  0.966640  1.0
  C  C434  1  0.726380  0.951080  0.033360  1.0
  C  C435  1  0.289180  0.726380  0.033360  1.0
  C  C436  1  0.951080  0.289180  0.033360  1.0
  C  C437  1  0.079620  0.753520  0.944740  1.0
  C  C438  1  0.222120  0.079620  0.944740  1.0
  C  C439  1  0.753520  0.222120  0.944740  1.0
  C  C440  1  0.777880  0.920380  0.055260  1.0
  C  C441  1  0.246480  0.777880  0.055260  1.0
  C  C442  1  0.920380  0.246480  0.055260  1.0
  C  C443  1  0.065230  0.805130  0.963010  1.0
  C  C444  1  0.166630  0.065230  0.963010  1.0
  C  C445  1  0.805130  0.166630  0.963010  1.0
  C  C446  1  0.833370  0.934770  0.036990  1.0
  C  C447  1  0.194870  0.833370  0.036990  1.0
  C  C448  1  0.934770  0.194870  0.036990  1.0
  C  C449  1  0.019200  0.813800  0.003900  1.0
  C  C450  1  0.163100  0.019200  0.003900  1.0
  C  C451  1  0.813800  0.163100  0.003900  1.0
  C  C452  1  0.836900  0.980800  0.996100  1.0
  C  C453  1  0.186200  0.836900  0.996100  1.0
  C  C454  1  0.980800  0.186200  0.996100  1.0
  C  C455  1  0.987710  0.769510  0.027270  1.0
  C  C456  1  0.215510  0.987710  0.027270  1.0
  C  C457  1  0.769510  0.215510  0.027270  1.0
  C  C458  1  0.784490  0.012290  0.972730  1.0
  C  C459  1  0.230490  0.784490  0.972730  1.0
  C  C460  1  0.012290  0.230490  0.972730  1.0
  C  C461  1  0.001320  0.719820  0.008340  1.0
  C  C462  1  0.270520  0.001320  0.008340  1.0
  C  C463  1  0.719820  0.270520  0.008340  1.0
  C  C464  1  0.729480  0.998680  0.991660  1.0
  C  C465  1  0.280180  0.729480  0.991660  1.0
  C  C466  1  0.998680  0.280180  0.991660  1.0
  C  C467  1  0.296700  0.530000  0.750100  1.0
  C  C468  1  0.423200  0.296700  0.750100  1.0
  C  C469  1  0.530000  0.423200  0.750100  1.0
  C  C470  1  0.576800  0.703300  0.249900  1.0
  C  C471  1  0.470000  0.576800  0.249900  1.0
  C  C472  1  0.703300  0.470000  0.249900  1.0
  C  C473  1  0.323890  0.557090  0.705430  1.0
  C  C474  1  0.413590  0.323890  0.705430  1.0
  C  C475  1  0.557090  0.413590  0.705430  1.0
  C  C476  1  0.586410  0.676110  0.294570  1.0
  C  C477  1  0.442910  0.586410  0.294570  1.0
  C  C478  1  0.676110  0.442910  0.294570  1.0
  C  C479  1  0.287040  0.620940  0.682780  1.0
  C  C480  1  0.409240  0.287040  0.682780  1.0
  C  C481  1  0.620940  0.409240  0.682780  1.0
  C  C482  1  0.590760  0.712960  0.317220  1.0
  C  C483  1  0.379060  0.590760  0.317220  1.0
  C  C484  1  0.712960  0.379060  0.317220  1.0
  C  C485  1  0.224000  0.659600  0.705100  1.0
  C  C486  1  0.411300  0.224000  0.705100  1.0
  C  C487  1  0.659600  0.411300  0.705100  1.0
  C  C488  1  0.588700  0.776000  0.294900  1.0
  C  C489  1  0.340400  0.588700  0.294900  1.0
  C  C490  1  0.776000  0.340400  0.294900  1.0
  C  C491  1  0.197920  0.635320  0.750040  1.0
  C  C492  1  0.416720  0.197920  0.750040  1.0
  C  C493  1  0.635320  0.416720  0.750040  1.0
  C  C494  1  0.583280  0.802080  0.249960  1.0
  C  C495  1  0.364680  0.583280  0.249960  1.0
  C  C496  1  0.802080  0.364680  0.249960  1.0
  C  C497  1  0.233940  0.569740  0.772480  1.0
  C  C498  1  0.423840  0.233940  0.772480  1.0
  C  C499  1  0.569740  0.423840  0.772480  1.0
  C  C500  1  0.576160  0.766060  0.227520  1.0
  C  C501  1  0.430260  0.576160  0.227520  1.0
  C  C502  1  0.766060  0.430260  0.227520  1.0
  C  C503  1  0.055700  0.679300  0.763300  1.0
  C  C504  1  0.501700  0.055700  0.763300  1.0
  C  C505  1  0.679300  0.501700  0.763300  1.0
  C  C506  1  0.498300  0.944300  0.236700  1.0
  C  C507  1  0.320700  0.498300  0.236700  1.0
  C  C508  1  0.944300  0.320700  0.236700  1.0
  C  C509  1  0.073900  0.638100  0.734800  1.0
  C  C510  1  0.553200  0.073900  0.734800  1.0
  C  C511  1  0.638100  0.553200  0.734800  1.0
  C  C512  1  0.446800  0.926100  0.265200  1.0
  C  C513  1  0.361900  0.446800  0.265200  1.0
  C  C514  1  0.926100  0.361900  0.265200  1.0
  C  C515  1  0.026610  0.632010  0.723670  1.0
  C  C516  1  0.617710  0.026610  0.723670  1.0
  C  C517  1  0.632010  0.617710  0.723670  1.0
  C  C518  1  0.382290  0.973390  0.276330  1.0
  C  C519  1  0.367990  0.382290  0.276330  1.0
  C  C520  1  0.973390  0.367990  0.276330  1.0
  C  C521  1  0.959770  0.667970  0.740590  1.0
  C  C522  1  0.631670  0.959770  0.740590  1.0
  C  C523  1  0.667970  0.631670  0.740590  1.0
  C  C524  1  0.368330  0.040230  0.259410  1.0
  C  C525  1  0.332030  0.368330  0.259410  1.0
  C  C526  1  0.040230  0.332030  0.259410  1.0
  C  C527  1  0.939840  0.708340  0.768580  1.0
  C  C528  1  0.583240  0.939840  0.768580  1.0
  C  C529  1  0.708340  0.583240  0.768580  1.0
  C  C530  1  0.416760  0.060160  0.231420  1.0
  C  C531  1  0.291660  0.416760  0.231420  1.0
  C  C532  1  0.060160  0.291660  0.231420  1.0
  C  C533  1  0.987530  0.713230  0.781210  1.0
  C  C534  1  0.518030  0.987530  0.781210  1.0
  C  C535  1  0.713230  0.518030  0.781210  1.0
  C  C536  1  0.481970  0.012470  0.218790  1.0
  C  C537  1  0.286770  0.481970  0.218790  1.0
  C  C538  1  0.012470  0.286770  0.218790  1.0
  C  C539  1  0.105350  0.772150  0.755650  1.0
  C  C540  1  0.366850  0.105350  0.755650  1.0
  C  C541  1  0.772150  0.366850  0.755650  1.0
  C  C542  1  0.633150  0.894650  0.244350  1.0
  C  C543  1  0.227850  0.633150  0.244350  1.0
  C  C544  1  0.894650  0.227850  0.244350  1.0
  C  C545  1  0.057120  0.819620  0.730840  1.0
  C  C546  1  0.392420  0.057120  0.730840  1.0
  C  C547  1  0.819620  0.392420  0.730840  1.0
  C  C548  1  0.607580  0.942880  0.269160  1.0
  C  C549  1  0.180380  0.607580  0.269160  1.0
  C  C550  1  0.942880  0.180380  0.269160  1.0
  C  C551  1  0.048380  0.885380  0.716860  1.0
  C  C552  1  0.349380  0.048380  0.716860  1.0
  C  C553  1  0.885380  0.349380  0.716860  1.0
  C  C554  1  0.650620  0.951620  0.283140  1.0
  C  C555  1  0.114620  0.650620  0.283140  1.0
  C  C556  1  0.951620  0.114620  0.283140  1.0
  C  C557  1  0.085490  0.905390  0.726730  1.0
  C  C558  1  0.282390  0.085490  0.726730  1.0
  C  C559  1  0.905390  0.282390  0.726730  1.0
  C  C560  1  0.717610  0.914510  0.273270  1.0
  C  C561  1  0.094610  0.717610  0.273270  1.0
  C  C562  1  0.914510  0.094610  0.273270  1.0
  C  C563  1  0.134480  0.858880  0.749860  1.0
  C  C564  1  0.256780  0.134480  0.749860  1.0
  C  C565  1  0.858880  0.256780  0.749860  1.0
  C  C566  1  0.743220  0.865520  0.250140  1.0
  C  C567  1  0.141120  0.743220  0.250140  1.0
  C  C568  1  0.865520  0.141120  0.250140  1.0
  C  C569  1  0.144620  0.792320  0.765040  1.0
  C  C570  1  0.298020  0.144620  0.765040  1.0
  C  C571  1  0.792320  0.298020  0.765040  1.0
  C  C572  1  0.701980  0.855380  0.234960  1.0
  C  C573  1  0.207680  0.701980  0.234960  1.0
  C  C574  1  0.855380  0.207680  0.234960  1.0
  C  C575  1  0.254010  0.634810  0.860170  1.0
  C  C576  1  0.251010  0.254010  0.860170  1.0
  C  C577  1  0.634810  0.251010  0.860170  1.0
  C  C578  1  0.748990  0.745990  0.139830  1.0
  C  C579  1  0.365190  0.748990  0.139830  1.0
  C  C580  1  0.745990  0.365190  0.139830  1.0
  C  C581  1  0.344600  0.535900  0.888100  1.0
  C  C582  1  0.231400  0.344600  0.888100  1.0
  C  C583  1  0.535900  0.231400  0.888100  1.0
  C  C584  1  0.768600  0.655400  0.111900  1.0
  C  C585  1  0.464100  0.768600  0.111900  1.0
  C  C586  1  0.655400  0.464100  0.111900  1.0
  C  C587  1  0.273110  0.626110  0.930670  1.0
  C  C588  1  0.170110  0.273110  0.930670  1.0
  C  C589  1  0.626110  0.170110  0.930670  1.0
  C  C590  1  0.829890  0.726890  0.069330  1.0
  C  C591  1  0.373890  0.829890  0.069330  1.0
  C  C592  1  0.726890  0.373890  0.069330  1.0
  C  C593  1  0.989610  0.833810  0.854770  1.0
  C  C594  1  0.321810  0.989610  0.854770  1.0
  C  C595  1  0.833810  0.321810  0.854770  1.0
  C  C596  1  0.678190  0.010390  0.145230  1.0
  C  C597  1  0.166190  0.678190  0.145230  1.0
  C  C598  1  0.010390  0.166190  0.145230  1.0
  C  C599  1  0.909470  0.858370  0.924190  1.0
  C  C600  1  0.307970  0.909470  0.924190  1.0
  C  C601  1  0.858370  0.307970  0.924190  1.0
  C  C602  1  0.692030  0.090530  0.075810  1.0
  C  C603  1  0.141630  0.692030  0.075810  1.0
  C  C604  1  0.090530  0.141630  0.075810  1.0
  C  C605  1  0.966670  0.931470  0.877690  1.0
  C  C606  1  0.224170  0.966670  0.877690  1.0
  C  C607  1  0.931470  0.224170  0.877690  1.0
  C  C608  1  0.775830  0.033330  0.122310  1.0
  C  C609  1  0.068530  0.775830  0.122310  1.0
  C  C610  1  0.033330  0.068530  0.122310  1.0
  Cs  Cs611  1  0.890038  0.890038  0.329886  1
  Cs  Cs612  1  0.109962  0.109962  0.670114  1
  Cs  Cs613  1  0.380391  0.380458  0.858727  1
  Cs  Cs614  1  0.619598  0.619565  0.141273  1
  H  H615  1  0.033500  0.594000  0.862300  1
  H  H616  1  0.510200  0.033500  0.862300  1
  H  H617  1  0.594000  0.510200  0.862300  1
  H  H618  1  0.489800  0.966500  0.137700  1
  H  H619  1  0.406000  0.489800  0.137700  1
  H  H620  1  0.966500  0.406000  0.137700  1
  H  H621  1  0.082400  0.423400  0.882100  1
  H  H622  1  0.612100  0.082400  0.882100  1
  H  H623  1  0.423400  0.612100  0.882100  1
  H  H624  1  0.387900  0.917600  0.117900  1
  H  H625  1  0.576600  0.387900  0.117900  1
  H  H626  1  0.917600  0.576600  0.117900  1
  H  H627  1  0.030700  0.434700  0.856000  1
  H  H628  1  0.678600  0.030700  0.856000  1
  H  H629  1  0.434700  0.678600  0.856000  1
  H  H630  1  0.321400  0.969300  0.144000  1
  H  H631  1  0.565300  0.321400  0.144000  1
  H  H632  1  0.969300  0.565300  0.144000  1
  H  H633  1  0.009400  0.428200  0.909700  1
  H  H634  1  0.652700  0.009400  0.909700  1
  H  H635  1  0.428200  0.652700  0.909700  1
  H  H636  1  0.347300  0.990600  0.090300  1
  H  H637  1  0.571800  0.347300  0.090300  1
  H  H638  1  0.990600  0.571800  0.090300  1
  H  H639  1  0.933400  0.605500  0.865300  1
  H  H640  1  0.595800  0.933400  0.865300  1
  H  H641  1  0.605500  0.595800  0.865300  1
  H  H642  1  0.404200  0.066600  0.134700  1
  H  H643  1  0.394500  0.404200  0.134700  1
  H  H644  1  0.066600  0.394500  0.134700  1
  H  H645  1  0.913400  0.546700  0.899500  1
  H  H646  1  0.640400  0.913400  0.899500  1
  H  H647  1  0.546700  0.640400  0.899500  1
  H  H648  1  0.359600  0.086600  0.100500  1
  H  H649  1  0.453300  0.359600  0.100500  1
  H  H650  1  0.086600  0.453300  0.100500  1
  H  H651  1  0.934100  0.551800  0.846100  1
  H  H652  1  0.668000  0.934100  0.846100  1
  H  H653  1  0.551800  0.668000  0.846100  1
  H  H654  1  0.332000  0.065900  0.153900  1
  H  H655  1  0.448200  0.332000  0.153900  1
  H  H656  1  0.065900  0.448200  0.153900  1
  H  H657  1  0.719400  0.054800  0.274200  1.0
  H  H658  1  0.951600  0.719400  0.274200  1.0
  H  H659  1  0.054800  0.951600  0.274200  1.0
  H  H660  1  0.048400  0.280600  0.725800  1.0
  H  H661  1  0.945200  0.048400  0.725800  1.0
  H  H662  1  0.280600  0.945200  0.725800  1.0
  H  H663  1  0.718200  0.218800  0.172800  1.0
  H  H664  1  0.890200  0.718200  0.172800  1.0
  H  H665  1  0.218800  0.890200  0.172800  1.0
  H  H666  1  0.109800  0.281800  0.827200  1.0
  H  H667  1  0.781200  0.109800  0.827200  1.0
  H  H668  1  0.281800  0.781200  0.827200  1.0
  H  H669  1  0.826800  0.156000  0.138300  1.0
  H  H670  1  0.878900  0.826800  0.138300  1.0
  H  H671  1  0.156000  0.878900  0.138300  1.0
  H  H672  1  0.121100  0.173200  0.861700  1.0
  H  H673  1  0.844000  0.121100  0.861700  1.0
  H  H674  1  0.173200  0.844000  0.861700  1.0
  H  H675  1  0.486100  0.213600  0.272700  1.0
  H  H676  1  0.027600  0.486100  0.272700  1.0
  H  H677  1  0.213600  0.027600  0.272700  1.0
  H  H678  1  0.972400  0.513900  0.727300  1.0
  H  H679  1  0.786400  0.972400  0.727300  1.0
  H  H680  1  0.513900  0.786400  0.727300  1.0
  H  H681  1  0.415300  0.215000  0.236400  1.0
  H  H682  1  0.133300  0.415300  0.236400  1.0
  H  H683  1  0.215000  0.133300  0.236400  1.0
  H  H684  1  0.866700  0.584700  0.763600  1.0
  H  H685  1  0.785000  0.866700  0.763600  1.0
  H  H686  1  0.584700  0.785000  0.763600  1.0
  H  H687  1  0.460600  0.186400  0.165900  1.0
  H  H688  1  0.187100  0.460600  0.165900  1.0
  H  H689  1  0.186400  0.187100  0.165900  1.0
  H  H690  1  0.812900  0.539400  0.834100  1.0
  H  H691  1  0.813600  0.812900  0.834100  1.0
  H  H692  1  0.539400  0.813600  0.834100  1.0
  H  H693  1  0.571800  0.163200  0.130500  1.0
  H  H694  1  0.134500  0.571800  0.130500  1.0
  H  H695  1  0.163200  0.134500  0.130500  1.0
  H  H696  1  0.865500  0.428200  0.869500  1.0
  H  H697  1  0.836800  0.865500  0.869500  1.0
  H  H698  1  0.428200  0.836800  0.869500  1.0
  H  H699  1  0.640900  0.162300  0.167100  1.0
  H  H700  1  0.029700  0.640900  0.167100  1.0
  H  H701  1  0.162300  0.029700  0.167100  1.0
  H  H702  1  0.970300  0.359100  0.832900  1.0
  H  H703  1  0.837700  0.970300  0.832900  1.0
  H  H704  1  0.359100  0.837700  0.832900  1.0
  H  H705  1  0.696500  0.245400  0.260400  1.0
  H  H706  1  0.797700  0.696500  0.260400  1.0
  H  H707  1  0.245400  0.797700  0.260400  1.0
  H  H708  1  0.202300  0.303500  0.739600  1.0
  H  H709  1  0.754600  0.202300  0.739600  1.0
  H  H710  1  0.303500  0.754600  0.739600  1.0
  H  H711  1  0.683400  0.353400  0.250800  1.0
  H  H712  1  0.712400  0.683400  0.250800  1.0
  H  H713  1  0.353400  0.712400  0.250800  1.0
  H  H714  1  0.287600  0.316600  0.749200  1.0
  H  H715  1  0.646600  0.287600  0.749200  1.0
  H  H716  1  0.316600  0.646600  0.749200  1.0
  H  H717  1  0.587200  0.445300  0.231300  1.0
  H  H718  1  0.736200  0.587200  0.231300  1.0
  H  H719  1  0.445300  0.736200  0.231300  1.0
  H  H720  1  0.263800  0.412800  0.768700  1.0
  H  H721  1  0.554700  0.263800  0.768700  1.0
  H  H722  1  0.412800  0.554700  0.768700  1.0
  H  H723  1  0.509500  0.429600  0.215400  1.0
  H  H724  1  0.845500  0.509500  0.215400  1.0
  H  H725  1  0.429600  0.845500  0.215400  1.0
  H  H726  1  0.154500  0.490500  0.784600  1.0
  H  H727  1  0.570400  0.154500  0.784600  1.0
  H  H728  1  0.490500  0.570400  0.784600  1.0
  H  H729  1  0.521400  0.322800  0.224100  1.0
  H  H730  1  0.931700  0.521400  0.224100  1.0
  H  H731  1  0.322800  0.931700  0.224100  1.0
  H  H732  1  0.068300  0.478600  0.775900  1.0
  H  H733  1  0.677200  0.068300  0.775900  1.0
  H  H734  1  0.478600  0.677200  0.775900  1.0
  H  H735  1  0.654600  0.005000  0.524700  1.0
  H  H736  1  0.815700  0.654600  0.524700  1.0
  H  H737  1  0.005000  0.815700  0.524700  1.0
  H  H738  1  0.184300  0.345400  0.475300  1.0
  H  H739  1  0.995000  0.184300  0.475300  1.0
  H  H740  1  0.345400  0.995000  0.475300  1.0
  H  H741  1  0.564700  0.066900  0.489900  1.0
  H  H742  1  0.878500  0.564700  0.489900  1.0
  H  H743  1  0.066900  0.878500  0.489900  1.0
  H  H744  1  0.121500  0.435300  0.510100  1.0
  H  H745  1  0.933100  0.121500  0.510100  1.0
  H  H746  1  0.435300  0.933100  0.510100  1.0
  H  H747  1  0.673300  0.974500  0.385500  1.0
  H  H748  1  0.966700  0.673300  0.385500  1.0
  H  H749  1  0.974500  0.966700  0.385500  1.0
  H  H750  1  0.033300  0.326700  0.614500  1.0
  H  H751  1  0.025500  0.033300  0.614500  1.0
  H  H752  1  0.326700  0.025500  0.614500  1.0
  H  H753  1  0.515400  0.190900  0.432900  1.0
  H  H754  1  0.860800  0.515400  0.432900  1.0
  H  H755  1  0.190900  0.860800  0.432900  1.0
  H  H756  1  0.139200  0.484600  0.567100  1.0
  H  H757  1  0.809100  0.139200  0.567100  1.0
  H  H758  1  0.484600  0.809100  0.567100  1.0
  H  H759  1  0.424000  0.261700  0.477000  1.0
  H  H760  1  0.837300  0.424000  0.477000  1.0
  H  H761  1  0.261700  0.837300  0.477000  1.0
  H  H762  1  0.162700  0.576000  0.523000  1.0
  H  H763  1  0.738300  0.162700  0.523000  1.0
  H  H764  1  0.576000  0.738300  0.523000  1.0
  H  H765  1  0.324900  0.247500  0.507000  1.0
  H  H766  1  0.920600  0.324900  0.507000  1.0
  H  H767  1  0.247500  0.920600  0.507000  1.0
  H  H768  1  0.079400  0.675100  0.493000  1.0
  H  H769  1  0.752500  0.079400  0.493000  1.0
  H  H770  1  0.675100  0.752500  0.493000  1.0
  H  H771  1  0.319900  0.157200  0.496800  1.0
  H  H772  1  0.026100  0.319900  0.496800  1.0
  H  H773  1  0.157200  0.026100  0.496800  1.0
  H  H774  1  0.973900  0.680100  0.503200  1.0
  H  H775  1  0.842800  0.973900  0.503200  1.0
  H  H776  1  0.680100  0.842800  0.503200  1.0
  H  H777  1  0.414200  0.082500  0.456000  1.0
  H  H778  1  0.047300  0.414200  0.456000  1.0
  H  H779  1  0.082500  0.047300  0.456000  1.0
  H  H780  1  0.952700  0.585800  0.544000  1.0
  H  H781  1  0.917500  0.952700  0.544000  1.0
  H  H782  1  0.585800  0.917500  0.544000  1.0
  H  H783  1  0.557800  0.943800  0.444600  1.0
  H  H784  1  0.053800  0.557800  0.444600  1.0
  H  H785  1  0.943800  0.053800  0.444600  1.0
  H  H786  1  0.946200  0.442200  0.555400  1.0
  H  H787  1  0.056200  0.946200  0.555400  1.0
  H  H788  1  0.442200  0.056200  0.555400  1.0
  H  H789  1  0.525600  0.873300  0.432600  1.0
  H  H790  1  0.168500  0.525600  0.432600  1.0
  H  H791  1  0.873300  0.168500  0.432600  1.0
  H  H792  1  0.831500  0.474400  0.567400  1.0
  H  H793  1  0.126700  0.831500  0.567400  1.0
  H  H794  1  0.474400  0.126700  0.567400  1.0
  H  H795  1  0.463100  0.914500  0.377700  1.0
  H  H796  1  0.244700  0.463100  0.377700  1.0
  H  H797  1  0.914500  0.244700  0.377700  1.0
  H  H798  1  0.755300  0.536900  0.622300  1.0
  H  H799  1  0.085500  0.755300  0.622300  1.0
  H  H800  1  0.536900  0.085500  0.622300  1.0
  H  H801  1  0.439000  0.023100  0.332700  1.0
  H  H802  1  0.205200  0.439000  0.332700  1.0
  H  H803  1  0.023100  0.205200  0.332700  1.0
  H  H804  1  0.794800  0.561000  0.667300  1.0
  H  H805  1  0.976900  0.794800  0.667300  1.0
  H  H806  1  0.561000  0.976900  0.667300  1.0
  H  H807  1  0.477100  0.089700  0.343200  1.0
  H  H808  1  0.090000  0.477100  0.343200  1.0
  H  H809  1  0.089700  0.090000  0.343200  1.0
  H  H810  1  0.910000  0.522900  0.656800  1.0
  H  H811  1  0.910300  0.910000  0.656800  1.0
  H  H812  1  0.522900  0.910300  0.656800  1.0
  H  H813  1  0.700400  0.084600  0.389100  1.0
  H  H814  1  0.825900  0.700400  0.389100  1.0
  H  H815  1  0.084600  0.825900  0.389100  1.0
  H  H816  1  0.174100  0.299600  0.610900  1.0
  H  H817  1  0.915400  0.174100  0.610900  1.0
  H  H818  1  0.299600  0.915400  0.610900  1.0
  H  H819  1  0.798000  0.033000  0.402300  1.0
  H  H820  1  0.766700  0.798000  0.402300  1.0
  H  H821  1  0.033000  0.766700  0.402300  1.0
  H  H822  1  0.233300  0.202000  0.597700  1.0
  H  H823  1  0.967000  0.233300  0.597700  1.0
  H  H824  1  0.202000  0.967000  0.597700  1.0
  H  H825  1  0.820700  0.075900  0.415800  1.0
  H  H826  1  0.687600  0.820700  0.415800  1.0
  H  H827  1  0.075900  0.687600  0.415800  1.0
  H  H828  1  0.312400  0.179300  0.584200  1.0
  H  H829  1  0.924100  0.312400  0.584200  1.0
  H  H830  1  0.179300  0.924100  0.584200  1.0
  H  H831  1  0.846100  0.065600  0.365100  1.0
  H  H832  1  0.723200  0.846100  0.365100  1.0
  H  H833  1  0.065600  0.723200  0.365100  1.0
  H  H834  1  0.276800  0.153900  0.634900  1.0
  H  H835  1  0.934400  0.276800  0.634900  1.0
  H  H836  1  0.153900  0.934400  0.634900  1.0
  H  H837  1  0.717900  0.229900  0.356400  1.0
  H  H838  1  0.695800  0.717900  0.356400  1.0
  H  H839  1  0.229900  0.695800  0.356400  1.0
  H  H840  1  0.304200  0.282100  0.643600  1.0
  H  H841  1  0.770100  0.304200  0.643600  1.0
  H  H842  1  0.282100  0.770100  0.643600  1.0
  H  H843  1  0.796000  0.189500  0.336900  1.0
  H  H844  1  0.677600  0.796000  0.336900  1.0
  H  H845  1  0.189500  0.677600  0.336900  1.0
  H  H846  1  0.322400  0.204000  0.663100  1.0
  H  H847  1  0.810500  0.322400  0.663100  1.0
  H  H848  1  0.204000  0.810500  0.663100  1.0
  H  H849  1  0.769700  0.198800  0.387900  1.0
  H  H850  1  0.643600  0.769700  0.387900  1.0
  H  H851  1  0.198800  0.643600  0.387900  1.0
  H  H852  1  0.356400  0.230300  0.612100  1.0
  H  H853  1  0.801200  0.356400  0.612100  1.0
  H  H854  1  0.230300  0.801200  0.612100  1.0
  H  H855  1  0.561500  0.296800  0.332100  1.0
  H  H856  1  0.809600  0.561500  0.332100  1.0
  H  H857  1  0.296800  0.809600  0.332100  1.0
  H  H858  1  0.190400  0.438500  0.667900  1.0
  H  H859  1  0.703200  0.190400  0.667900  1.0
  H  H860  1  0.438500  0.703200  0.667900  1.0
  H  H861  1  0.394000  0.355200  0.380400  1.0
  H  H862  1  0.870400  0.394000  0.380400  1.0
  H  H863  1  0.355200  0.870400  0.380400  1.0
  H  H864  1  0.129600  0.606000  0.619600  1.0
  H  H865  1  0.644800  0.129600  0.619600  1.0
  H  H866  1  0.606000  0.644800  0.619600  1.0
  H  H867  1  0.383400  0.431300  0.359700  1.0
  H  H868  1  0.825600  0.383400  0.359700  1.0
  H  H869  1  0.431300  0.825600  0.359700  1.0
  H  H870  1  0.174400  0.616600  0.640300  1.0
  H  H871  1  0.568700  0.174400  0.640300  1.0
  H  H872  1  0.616600  0.568700  0.640300  1.0
  H  H873  1  0.399500  0.394100  0.408900  1.0
  H  H874  1  0.797500  0.399500  0.408900  1.0
  H  H875  1  0.394100  0.797500  0.408900  1.0
  H  H876  1  0.202500  0.600500  0.591100  1.0
  H  H877  1  0.605900  0.202500  0.591100  1.0
  H  H878  1  0.600500  0.605900  0.591100  1.0
  H  H879  1  0.561300  0.385700  0.338100  1.0
  H  H880  1  0.714900  0.561300  0.338100  1.0
  H  H881  1  0.385700  0.714900  0.338100  1.0
  H  H882  1  0.285100  0.438700  0.661900  1.0
  H  H883  1  0.614300  0.285100  0.661900  1.0
  H  H884  1  0.438700  0.614300  0.661900  1.0
  H  H885  1  0.508500  0.414200  0.381300  1.0
  H  H886  1  0.696000  0.508500  0.381300  1.0
  H  H887  1  0.414200  0.696000  0.381300  1.0
  H  H888  1  0.304000  0.491500  0.618700  1.0
  H  H889  1  0.585800  0.304000  0.618700  1.0
  H  H890  1  0.491500  0.585800  0.618700  1.0
  H  H891  1  0.493500  0.451400  0.331800  1.0
  H  H892  1  0.723300  0.493500  0.331800  1.0
  H  H893  1  0.451400  0.723300  0.331800  1.0
  H  H894  1  0.276700  0.506500  0.668200  1.0
  H  H895  1  0.548600  0.276700  0.668200  1.0
  H  H896  1  0.506500  0.548600  0.668200  1.0
  H  H897  1  0.177200  0.521600  0.919000  1.0
  H  H898  1  0.382200  0.177200  0.919000  1.0
  H  H899  1  0.521600  0.382200  0.919000  1.0
  H  H900  1  0.617800  0.822800  0.081000  1.0
  H  H901  1  0.478400  0.617800  0.081000  1.0
  H  H902  1  0.822800  0.478400  0.081000  1.0
  H  H903  1  0.107600  0.600900  0.028800  1.0
  H  H904  1  0.262700  0.107600  0.028800  1.0
  H  H905  1  0.600900  0.262700  0.028800  1.0
  H  H906  1  0.737300  0.892400  0.971200  1.0
  H  H907  1  0.399100  0.737300  0.971200  1.0
  H  H908  1  0.892400  0.399100  0.971200  1.0
  H  H909  1  0.191000  0.508800  0.062400  1.0
  H  H910  1  0.237800  0.191000  0.062400  1.0
  H  H911  1  0.508800  0.237800  0.062400  1.0
  H  H912  1  0.762200  0.809000  0.937600  1.0
  H  H913  1  0.491200  0.762200  0.937600  1.0
  H  H914  1  0.809000  0.491200  0.937600  1.0
  H  H915  1  0.952500  0.702500  0.912400  1.0
  H  H916  1  0.432600  0.952500  0.912400  1.0
  H  H917  1  0.702500  0.432600  0.912400  1.0
  H  H918  1  0.567400  0.047500  0.087600  1.0
  H  H919  1  0.297500  0.567400  0.087600  1.0
  H  H920  1  0.047500  0.297500  0.087600  1.0
  H  H921  1  0.851400  0.690600  0.936400  1.0
  H  H922  1  0.521600  0.851400  0.936400  1.0
  H  H923  1  0.690600  0.521600  0.936400  1.0
  H  H924  1  0.478400  0.148600  0.063600  1.0
  H  H925  1  0.309400  0.478400  0.063600  1.0
  H  H926  1  0.148600  0.309400  0.063600  1.0
  H  H927  1  0.834800  0.613300  0.002400  1.0
  H  H928  1  0.549500  0.834800  0.002400  1.0
  H  H929  1  0.613300  0.549500  0.002400  1.0
  H  H930  1  0.450500  0.165200  0.997600  1.0
  H  H931  1  0.386700  0.450500  0.997600  1.0
  H  H932  1  0.165200  0.386700  0.997600  1.0
  H  H933  1  0.917600  0.542200  0.042300  1.0
  H  H934  1  0.497900  0.917600  0.042300  1.0
  H  H935  1  0.542200  0.497900  0.042300  1.0
  H  H936  1  0.502100  0.082400  0.957700  1.0
  H  H937  1  0.457800  0.502100  0.957700  1.0
  H  H938  1  0.082400  0.457800  0.957700  1.0
  H  H939  1  0.020700  0.551900  0.017700  1.0
  H  H940  1  0.409700  0.020700  0.017700  1.0
  H  H941  1  0.551900  0.409700  0.017700  1.0
  H  H942  1  0.590300  0.979300  0.982300  1.0
  H  H943  1  0.448100  0.590300  0.982300  1.0
  H  H944  1  0.979300  0.448100  0.982300  1.0
  H  H945  1  0.111200  0.747600  0.916600  1.0
  H  H946  1  0.224600  0.111200  0.916600  1.0
  H  H947  1  0.747600  0.224600  0.916600  1.0
  H  H948  1  0.775400  0.888800  0.083400  1.0
  H  H949  1  0.252400  0.775400  0.083400  1.0
  H  H950  1  0.888800  0.252400  0.083400  1.0
  H  H951  1  0.086700  0.834300  0.947500  1.0
  H  H952  1  0.131500  0.086700  0.947500  1.0
  H  H953  1  0.834300  0.131500  0.947500  1.0
  H  H954  1  0.868500  0.913300  0.052500  1.0
  H  H955  1  0.165700  0.868500  0.052500  1.0
  H  H956  1  0.913300  0.165700  0.052500  1.0
  H  H957  1  0.008700  0.849300  0.016500  1.0
  H  H958  1  0.125500  0.008700  0.016500  1.0
  H  H959  1  0.849300  0.125500  0.016500  1.0
  H  H960  1  0.874500  0.991300  0.983500  1.0
  H  H961  1  0.150700  0.874500  0.983500  1.0
  H  H962  1  0.991300  0.150700  0.983500  1.0
  H  H963  1  0.957300  0.774600  0.055800  1.0
  H  H964  1  0.212300  0.957300  0.055800  1.0
  H  H965  1  0.774600  0.212300  0.055800  1.0
  H  H966  1  0.787700  0.042700  0.944200  1.0
  H  H967  1  0.225400  0.787700  0.944200  1.0
  H  H968  1  0.042700  0.225400  0.944200  1.0
  H  H969  1  0.978800  0.691500  0.023100  1.0
  H  H970  1  0.306600  0.978800  0.023100  1.0
  H  H971  1  0.691500  0.306600  0.023100  1.0
  H  H972  1  0.693400  0.021200  0.976900  1.0
  H  H973  1  0.308500  0.693400  0.976900  1.0
  H  H974  1  0.021200  0.308500  0.976900  1.0
  H  H975  1  0.304900  0.638000  0.652300  1.0
  H  H976  1  0.404800  0.304900  0.652300  1.0
  H  H977  1  0.638000  0.404800  0.652300  1.0
  H  H978  1  0.595200  0.695100  0.347700  1.0
  H  H979  1  0.362000  0.595200  0.347700  1.0
  H  H980  1  0.695100  0.362000  0.347700  1.0
  H  H981  1  0.198500  0.703000  0.689500  1.0
  H  H982  1  0.409000  0.198500  0.689500  1.0
  H  H983  1  0.703000  0.409000  0.689500  1.0
  H  H984  1  0.591000  0.801500  0.310500  1.0
  H  H985  1  0.297000  0.591000  0.310500  1.0
  H  H986  1  0.801500  0.297000  0.310500  1.0
  H  H987  1  0.215500  0.552600  0.802900  1.0
  H  H988  1  0.429000  0.215500  0.802900  1.0
  H  H989  1  0.552600  0.429000  0.802900  1.0
  H  H990  1  0.571000  0.784500  0.197100  1.0
  H  H991  1  0.447400  0.571000  0.197100  1.0
  H  H992  1  0.784500  0.447400  0.197100  1.0
  H  H993  1  0.120000  0.613700  0.722800  1.0
  H  H994  1  0.543500  0.120000  0.722800  1.0
  H  H995  1  0.613700  0.543500  0.722800  1.0
  H  H996  1  0.456500  0.880000  0.277200  1.0
  H  H997  1  0.386300  0.456500  0.277200  1.0
  H  H998  1  0.880000  0.386300  0.277200  1.0
  H  H999  1  0.040100  0.603200  0.704500  1.0
  H  H1000  1  0.652200  0.040100  0.704500  1.0
  H  H1001  1  0.603200  0.652200  0.704500  1.0
  H  H1002  1  0.347800  0.959900  0.295500  1.0
  H  H1003  1  0.396800  0.347800  0.295500  1.0
  H  H1004  1  0.959900  0.396800  0.295500  1.0
  H  H1005  1  0.927200  0.664500  0.732400  1.0
  H  H1006  1  0.675900  0.927200  0.732400  1.0
  H  H1007  1  0.664500  0.675900  0.732400  1.0
  H  H1008  1  0.324100  0.072800  0.267600  1.0
  H  H1009  1  0.335500  0.324100  0.267600  1.0
  H  H1010  1  0.072800  0.335500  0.267600  1.0
  H  H1011  1  0.893600  0.733400  0.779500  1.0
  H  H1012  1  0.593500  0.893600  0.779500  1.0
  H  H1013  1  0.733400  0.593500  0.779500  1.0
  H  H1014  1  0.406500  0.106400  0.220500  1.0
  H  H1015  1  0.266600  0.406500  0.220500  1.0
  H  H1016  1  0.106400  0.266600  0.220500  1.0
  H  H1017  1  0.973500  0.739800  0.802000  1.0
  H  H1018  1  0.484700  0.973500  0.802000  1.0
  H  H1019  1  0.739800  0.484700  0.802000  1.0
  H  H1020  1  0.515300  0.026500  0.198000  1.0
  H  H1021  1  0.260200  0.515300  0.198000  1.0
  H  H1022  1  0.026500  0.260200  0.198000  1.0
  H  H1023  1  0.030500  0.806600  0.723700  1.0
  H  H1024  1  0.439200  0.030500  0.723700  1.0
  H  H1025  1  0.806600  0.439200  0.723700  1.0
  H  H1026  1  0.560800  0.969500  0.276300  1.0
  H  H1027  1  0.193400  0.560800  0.276300  1.0
  H  H1028  1  0.969500  0.193400  0.276300  1.0
  H  H1029  1  0.015500  0.917300  0.700000  1.0
  H  H1030  1  0.367200  0.015500  0.700000  1.0
  H  H1031  1  0.917300  0.367200  0.700000  1.0
  H  H1032  1  0.632800  0.984500  0.300000  1.0
  H  H1033  1  0.082700  0.632800  0.300000  1.0
  H  H1034  1  0.984500  0.082700  0.300000  1.0
  H  H1035  1  0.077700  0.951100  0.717700  1.0
  H  H1036  1  0.253500  0.077700  0.717700  1.0
  H  H1037  1  0.951100  0.253500  0.717700  1.0
  H  H1038  1  0.746500  0.922300  0.282300  1.0
  H  H1039  1  0.048900  0.746500  0.282300  1.0
  H  H1040  1  0.922300  0.048900  0.282300  1.0
  H  H1041  1  0.162000  0.872400  0.755500  1.0
  H  H1042  1  0.210100  0.162000  0.755500  1.0
  H  H1043  1  0.872400  0.210100  0.755500  1.0
  H  H1044  1  0.789900  0.838000  0.244500  1.0
  H  H1045  1  0.127600  0.789900  0.244500  1.0
  H  H1046  1  0.838000  0.127600  0.244500  1.0
  H  H1047  1  0.178000  0.760900  0.781600  1.0
  H  H1048  1  0.279500  0.178000  0.781600  1.0
  H  H1049  1  0.760900  0.279500  0.781600  1.0
  H  H1050  1  0.720500  0.822000  0.218400  1.0
  H  H1051  1  0.239100  0.720500  0.218400  1.0
  H  H1052  1  0.822000  0.239100  0.218400  1.0
  H  H1053  1  0.266900  0.615200  0.835600  1.0
  H  H1054  1  0.282300  0.266900  0.835600  1.0
  H  H1055  1  0.615200  0.282300  0.835600  1.0
  H  H1056  1  0.717700  0.733100  0.164400  1.0
  H  H1057  1  0.384800  0.717700  0.164400  1.0
  H  H1058  1  0.733100  0.384800  0.164400  1.0
  H  H1059  1  0.350100  0.525600  0.859900  1.0
  H  H1060  1  0.264400  0.350100  0.859900  1.0
  H  H1061  1  0.525600  0.264400  0.859900  1.0
  H  H1062  1  0.735600  0.649900  0.140100  1.0
  H  H1063  1  0.474400  0.735600  0.140100  1.0
  H  H1064  1  0.649900  0.474400  0.140100  1.0
  H  H1065  1  0.334400  0.502200  0.914200  1.0
  H  H1066  1  0.249200  0.334400  0.914200  1.0
  H  H1067  1  0.502200  0.249200  0.914200  1.0
  H  H1068  1  0.750800  0.665600  0.085800  1.0
  H  H1069  1  0.497800  0.750800  0.085800  1.0
  H  H1070  1  0.665600  0.497800  0.085800  1.0
  H  H1071  1  0.386000  0.535700  0.888100  1.0
  H  H1072  1  0.190200  0.386000  0.888100  1.0
  H  H1073  1  0.535700  0.190200  0.888100  1.0
  H  H1074  1  0.809800  0.614000  0.111900  1.0
  H  H1075  1  0.464300  0.809800  0.111900  1.0
  H  H1076  1  0.614000  0.464300  0.111900  1.0
  H  H1077  1  0.236000  0.670700  0.927700  1.0
  H  H1078  1  0.165600  0.236000  0.927700  1.0
  H  H1079  1  0.670700  0.165600  0.927700  1.0
  H  H1080  1  0.834400  0.764000  0.072300  1.0
  H  H1081  1  0.329300  0.834400  0.072300  1.0
  H  H1082  1  0.764000  0.329300  0.072300  1.0
  H  H1083  1  0.311800  0.628800  0.932800  1.0
  H  H1084  1  0.126600  0.311800  0.932800  1.0
  H  H1085  1  0.628800  0.126600  0.932800  1.0
  H  H1086  1  0.873400  0.688200  0.067200  1.0
  H  H1087  1  0.371200  0.873400  0.067200  1.0
  H  H1088  1  0.688200  0.371200  0.067200  1.0
  H  H1089  1  0.259700  0.596000  0.958000  1.0
  H  H1090  1  0.186300  0.259700  0.958000  1.0
  H  H1091  1  0.596000  0.186300  0.958000  1.0
  H  H1092  1  0.813700  0.740300  0.042000  1.0
  H  H1093  1  0.404000  0.813700  0.042000  1.0
  H  H1094  1  0.740300  0.404000  0.042000  1.0
  H  H1095  1  0.020000  0.846200  0.828700  1.0
  H  H1096  1  0.305100  0.020000  0.828700  1.0
  H  H1097  1  0.846200  0.305100  0.828700  1.0
  H  H1098  1  0.694900  0.980000  0.171300  1.0
  H  H1099  1  0.153800  0.694900  0.171300  1.0
  H  H1100  1  0.980000  0.153800  0.171300  1.0
  H  H1101  1  0.906900  0.818300  0.924400  1.0
  H  H1102  1  0.350400  0.906900  0.924400  1.0
  H  H1103  1  0.818300  0.350400  0.924400  1.0
  H  H1104  1  0.649600  0.093100  0.075600  1.0
  H  H1105  1  0.181700  0.649600  0.075600  1.0
  H  H1106  1  0.093100  0.181700  0.075600  1.0
  H  H1107  1  0.865300  0.896200  0.924400  1.0
  H  H1108  1  0.314100  0.865300  0.924400  1.0
  H  H1109  1  0.896200  0.314100  0.924400  1.0
  H  H1110  1  0.685900  0.134700  0.075600  1.0
  H  H1111  1  0.103800  0.685900  0.075600  1.0
  H  H1112  1  0.134700  0.103800  0.075600  1.0
  H  H1113  1  0.924300  0.850600  0.951100  1.0
  H  H1114  1  0.274000  0.924300  0.951100  1.0
  H  H1115  1  0.850600  0.274000  0.951100  1.0
  H  H1116  1  0.726000  0.075700  0.048900  1.0
  H  H1117  1  0.149400  0.726000  0.048900  1.0
  H  H1118  1  0.075700  0.149400  0.048900  1.0
  H  H1119  1  0.999300  0.936800  0.849400  1.0
  H  H1120  1  0.214500  0.999300  0.849400  1.0
  H  H1121  1  0.936800  0.214500  0.849400  1.0
  H  H1122  1  0.785500  0.000700  0.150600  1.0
  H  H1123  1  0.063200  0.785500  0.150600  1.0
  H  H1124  1  0.000700  0.063200  0.150600  1.0
  H  H1125  1  0.983200  0.925800  0.903100  1.0
  H  H1126  1  0.187900  0.983200  0.903100  1.0
  H  H1127  1  0.925800  0.187900  0.903100  1.0
  H  H1128  1  0.812100  0.016800  0.096900  1.0
  H  H1129  1  0.074200  0.812100  0.096900  1.0
  H  H1130  1  0.016800  0.074200  0.096900  1.0
  H  H1131  1  0.924000  0.971300  0.876700  1.0
  H  H1132  1  0.228000  0.924000  0.876700  1.0
  H  H1133  1  0.971300  0.228000  0.876700  1.0
  H  H1134  1  0.772000  0.076000  0.123300  1.0
  H  H1135  1  0.028700  0.772000  0.123300  1.0
  H  H1136  1  0.076000  0.028700  0.123300  1.0
  N  N1137  1  0.009940  0.517640  0.873580  1
  N  N1138  1  0.598840  0.009940  0.873580  1
  N  N1139  1  0.517640  0.598840  0.873580  1
  N  N1140  1  0.401160  0.990060  0.126420  1
  N  N1141  1  0.482360  0.401160  0.126420  1
  N  N1142  1  0.990060  0.482360  0.126420  1
  N  N1143  1  0.553530  0.245830  0.497910  1
  N  N1144  1  0.702730  0.553530  0.497910  1
  N  N1145  1  0.245830  0.702730  0.497910  1
  N  N1146  1  0.297270  0.446470  0.502090  1
  N  N1147  1  0.754170  0.297270  0.502090  1
  N  N1148  1  0.446470  0.754170  0.502090  1
  N  N1149  1  0.281300  0.281367  0.156000  1
  N  N1150  1  0.718689  0.718656  0.844000  1
  N  N1151  1  0.750970  0.131570  0.379290  1.0
  N  N1152  1  0.738170  0.750970  0.379290  1.0
  N  N1153  1  0.131570  0.738170  0.379290  1.0
  N  N1154  1  0.261830  0.249030  0.620710  1.0
  N  N1155  1  0.868430  0.261830  0.620710  1.0
  N  N1156  1  0.249030  0.868430  0.620710  1.0
  N  N1157  1  0.480230  0.366130  0.357810  1.0
  N  N1158  1  0.795830  0.480230  0.357810  1.0
  N  N1159  1  0.366130  0.795830  0.357810  1.0
  N  N1160  1  0.204170  0.519770  0.642190  1.0
  N  N1161  1  0.633870  0.204170  0.642190  1.0
  N  N1162  1  0.519770  0.633870  0.642190  1.0
  N  N1163  1  0.290780  0.600580  0.891160  1.0
  N  N1164  1  0.217480  0.290780  0.891160  1.0
  N  N1165  1  0.600580  0.217480  0.891160  1.0
  N  N1166  1  0.782520  0.709220  0.108840  1.0
  N  N1167  1  0.399420  0.782520  0.108840  1.0
  N  N1168  1  0.709220  0.399420  0.108840  1.0
  N  N1169  1  0.956850  0.873550  0.883450  1.0
  N  N1170  1  0.286150  0.956850  0.883450  1.0
  N  N1171  1  0.873550  0.286150  0.883450  1.0
  N  N1172  1  0.713850  0.043150  0.116550  1.0
  N  N1173  1  0.126450  0.713850  0.116550  1.0
  N  N1174  1  0.043150  0.126450  0.116550  1.0
  O  O1175  1  0.109540  0.513740  0.869980  1
  O  O1176  1  0.506740  0.109540  0.869980  1
  O  O1177  1  0.513740  0.506740  0.869980  1
  O  O1178  1  0.493260  0.890460  0.130020  1
  O  O1179  1  0.486260  0.493260  0.130020  1
  O  O1180  1  0.890460  0.486260  0.130020  1
  O  O1181  1  0.476800  0.246100  0.561300  1
  O  O1182  1  0.715800  0.476800  0.561300  1
  O  O1183  1  0.246100  0.715800  0.561300  1
  O  O1184  1  0.284200  0.523200  0.438700  1
  O  O1185  1  0.753900  0.284200  0.438700  1
  O  O1186  1  0.523200  0.753900  0.438700  1
  O  O1187  1  0.218800  0.246100  0.225000  1
  O  O1188  1  0.310100  0.218800  0.225000  1
  O  O1189  1  0.246100  0.310100  0.225000  1
  O  O1190  1  0.689900  0.781200  0.775000  1
  O  O1191  1  0.753900  0.689900  0.775000  1
  O  O1192  1  0.781200  0.753900  0.775000  1
  O  O1193  1  0.898800  0.029300  0.163800  1.0
  O  O1194  1  0.908100  0.898800  0.163800  1.0
  O  O1195  1  0.029300  0.908100  0.163800  1.0
  O  O1196  1  0.091900  0.101200  0.836200  1.0
  O  O1197  1  0.970700  0.091900  0.836200  1.0
  O  O1198  1  0.101200  0.970700  0.836200  1.0
  O  O1199  1  0.839290  0.971690  0.243030  1.0
  O  O1200  1  0.945990  0.839290  0.243030  1.0
  O  O1201  1  0.971690  0.945990  0.243030  1.0
  O  O1202  1  0.054010  0.160710  0.756970  1.0
  O  O1203  1  0.028310  0.054010  0.756970  1.0
  O  O1204  1  0.160710  0.028310  0.756970  1.0
  O  O1205  1  0.780890  0.894890  0.416730  1.0
  O  O1206  1  0.907490  0.780890  0.416730  1.0
  O  O1207  1  0.894890  0.907490  0.416730  1.0
  O  O1208  1  0.092510  0.219110  0.583270  1.0
  O  O1209  1  0.105110  0.092510  0.583270  1.0
  O  O1210  1  0.219110  0.105110  0.583270  1.0
  O  O1211  1  0.770250  0.913450  0.496650  1.0
  O  O1212  1  0.819650  0.770250  0.496650  1.0
  O  O1213  1  0.913450  0.819650  0.496650  1.0
  O  O1214  1  0.180350  0.229750  0.503350  1.0
  O  O1215  1  0.086550  0.180350  0.503350  1.0
  O  O1216  1  0.229750  0.086550  0.503350  1.0
  O  O1217  1  0.645070  0.176970  0.369690  1.0
  O  O1218  1  0.808270  0.645070  0.369690  1.0
  O  O1219  1  0.176970  0.808270  0.369690  1.0
  O  O1220  1  0.191730  0.354930  0.630310  1.0
  O  O1221  1  0.823030  0.191730  0.630310  1.0
  O  O1222  1  0.354930  0.823030  0.630310  1.0
  O  O1223  1  0.492460  0.270560  0.344220  1.0
  O  O1224  1  0.892760  0.492460  0.344220  1.0
  O  O1225  1  0.270560  0.892760  0.344220  1.0
  O  O1226  1  0.107240  0.507540  0.655780  1.0
  O  O1227  1  0.729440  0.107240  0.655780  1.0
  O  O1228  1  0.507540  0.729440  0.655780  1.0
  O  O1229  1  0.282880  0.405880  0.029760  1.0
  O  O1230  1  0.281480  0.282880  0.029760  1.0
  O  O1231  1  0.405880  0.281480  0.029760  1.0
  O  O1232  1  0.718520  0.717120  0.970240  1.0
  O  O1233  1  0.594120  0.718520  0.970240  1.0
  O  O1234  1  0.717120  0.594120  0.970240  1.0
  O  O1235  1  0.273260  0.411560  0.948520  1.0
  O  O1236  1  0.366660  0.273260  0.948520  1.0
  O  O1237  1  0.411560  0.366660  0.948520  1.0
  O  O1238  1  0.633340  0.726740  0.051480  1.0
  O  O1239  1  0.588440  0.633340  0.051480  1.0
  O  O1240  1  0.726740  0.588440  0.051480  1.0
  O  O1241  1  0.333040  0.466340  0.769480  1.0
  O  O1242  1  0.431140  0.333040  0.769480  1.0
  O  O1243  1  0.466340  0.431140  0.769480  1.0
  O  O1244  1  0.568860  0.666960  0.230520  1.0
  O  O1245  1  0.533660  0.568860  0.230520  1.0
  O  O1246  1  0.666960  0.533660  0.230520  1.0
  O  O1247  1  0.386740  0.518440  0.685780  1.0
  O  O1248  1  0.409040  0.386740  0.685780  1.0
  O  O1249  1  0.518440  0.409040  0.685780  1.0
  O  O1250  1  0.590960  0.613260  0.314220  1.0
  O  O1251  1  0.481560  0.590960  0.314220  1.0
  O  O1252  1  0.613260  0.481560  0.314220  1.0
  O  O1253  1  0.205660  0.688360  0.860320  1.0
  O  O1254  1  0.245660  0.205660  0.860320  1.0
  O  O1255  1  0.688360  0.245660  0.860320  1.0
  O  O1256  1  0.754340  0.794340  0.139680  1.0
  O  O1257  1  0.311640  0.754340  0.139680  1.0
  O  O1258  1  0.794340  0.311640  0.139680  1.0
  O  O1259  1  0.985440  0.783640  0.857680  1.0
  O  O1260  1  0.373240  0.985440  0.857680  1.0
  O  O1261  1  0.783640  0.373240  0.857680  1.0
  O  O1262  1  0.626760  0.014560  0.142320  1.0
  O  O1263  1  0.216360  0.626760  0.142320  1.0
  O  O1264  1  0.014560  0.216360  0.142320  1.0
  P  P1265  1  0.621290  0.187520  0.254130  1.0
  P  P1266  1  0.937060  0.621290  0.254130  1.0
  P  P1267  1  0.187520  0.937060  0.254130  1.0
  P  P1268  1  0.062940  0.378710  0.745870  1.0
  P  P1269  1  0.812480  0.062940  0.745870  1.0
  P  P1270  1  0.378710  0.812480  0.745870  1.0
  P  P1271  1  0.545370  0.079730  0.402180  1.0
  P  P1272  1  0.972720  0.545370  0.402180  1.0
  P  P1273  1  0.079730  0.972720  0.402180  1.0
  P  P1274  1  0.027280  0.454630  0.597820  1.0
  P  P1275  1  0.920270  0.027280  0.597820  1.0
  P  P1276  1  0.454630  0.920270  0.597820  1.0
  P  P1277  1  0.071190  0.642090  0.942130  1.0
  P  P1278  1  0.344590  0.071190  0.942130  1.0
  P  P1279  1  0.642090  0.344590  0.942130  1.0
  P  P1280  1  0.655410  0.928810  0.057870  1.0
  P  P1281  1  0.357910  0.655410  0.057870  1.0
  P  P1282  1  0.928810  0.357910  0.057870  1.0
  P  P1283  1  0.116460  0.685860  0.780190  1.0
  P  P1284  1  0.417490  0.116460  0.780190  1.0
  P  P1285  1  0.685860  0.417490  0.780190  1.0
  P  P1286  1  0.582510  0.883540  0.219810  1.0
  P  P1287  1  0.314140  0.582510  0.219810  1.0
  P  P1288  1  0.883540  0.314140  0.219810  1.0
  Sn  Sn1289  1  0.932884  0.932884  0.201348  1
  Sn  Sn1290  1  0.067116  0.067116  0.798652  1
  Sn  Sn1291  1  0.847018  0.847018  0.458946  1
  Sn  Sn1292  1  0.152982  0.152982  0.541054  1
  Sn  Sn1293  1  0.336563  0.336630  0.990211  1
  Sn  Sn1294  1  0.663426  0.663393  0.009789  1
  Sn  Sn1295  1  0.424523  0.424590  0.726331  1
  Sn  Sn1296  1  0.575466  0.575433  0.273669  1
