
#######################################################################
#
#                 Cambridge Crystallographic Data Centre
#                                CCDC 
#
#######################################################################
#
# If this CIF has been generated from an entry in the Cambridge 
# Structural Database, then it will include bibliographic, chemical, 
# crystal, experimental, refinement or atomic coordinate data resulting 
# from the CCDC's data processing and validation procedures.
#
#######################################################################

data_RAPWOX
_chemical_formula_moiety         
'C144 H108 Fe4 N24 8+,3(C1 F3 O3 S1 1-),4(C2 H3 N1),5(Cl1 O4 1-),2(C4 H10 O1)'
_chemical_name_systematic        
"hexakis(\m-N,N'-bis(pyridin-2-ylmethylene)biphenyl-4,4'-diamine)-tetra-iron pentaperchlorate tris(trifluoromethanesulfonate) acetonitrile diethyl ether solvate"
_symmetry_cell_setting           monoclinic
_symmetry_space_group_name_H-M   'C 2/c'
_symmetry_Int_Tables_number      15
_space_group_name_Hall           '-C 2yn'
loop_
_symmetry_equiv_pos_site_id
_symmetry_equiv_pos_as_xyz
1 x,y,z
2 -x,y,1/2-z
3 1/2+x,1/2+y,z
4 1/2-x,1/2+y,1/2-z
5 -x,-y,-z
6 x,-y,1/2+z
7 1/2-x,1/2-y,-z
8 1/2+x,1/2-y,1/2+z
_cell_length_a                   34.8667(8)
_cell_length_b                   18.4699(4)
_cell_length_c                   54.2074(11)
_cell_angle_alpha                90
_cell_angle_beta                 96.3680(10)
_cell_angle_gamma                90
_cell_volume                     34693.3
_exptl_crystal_colour            purple
_exptl_crystal_description       block
_cell_formula_units_Z            8
loop_
_atom_site_label
_atom_site_type_symbol
_atom_site_fract_x
_atom_site_fract_y
_atom_site_fract_z
C145 C 0.3721(4) 0.0893(6) 0.1566(2)
O1 O 0.3624(2) 0.2132(4) 0.14054(12)
O2 O 0.3063(2) 0.1417(4) 0.14556(14)
O3 O 0.3460(2) 0.1864(4) 0.18144(11)
S1 S 0.34354(7) 0.16575(14) 0.15565(5)
F1 F 0.3748(2) 0.0567(4) 0.13543(15)
F2 F 0.3622(2) 0.0368(4) 0.17186(14)
F3 F 0.4115(2) 0.1020(4) 0.16583(14)
C146 C 0.5113(7) 0.1939(8) 0.0350(2)
O4 O 0.4618(4) 0.2056(9) -0.0026(2)
O5 O 0.4737(4) 0.3083(7) 0.0274(3)
O6 O 0.4414(4) 0.2012(8) 0.0392(2)
S2 S 0.46660(13) 0.2313(3) 0.02243(9)
F4 F 0.5398(2) 0.2121(6) 0.02138(19)
F5 F 0.5106(3) 0.1218(5) 0.03513(18)
F6 F 0.5221(3) 0.2168(6) 0.05794(17)
C147 C 0.4536(4) 0.9560(8) 0.0182(2)
C148 C 0.4866(6) 0.9113(16) 0.0319(4)
H109 H 0.5076 0.9068 0.0214
H110 H 0.4771 0.8630 0.0355
H111 H 0.4961 0.9357 0.0474
N25 N 0.4288(3) 0.9845(5) 0.0086(2)
N26 N 0.2146(3) 0.9437(5) 0.37723(17)
C149 C 0.2111(5) 1.0022(6) 0.3797(2)
C150 C 0.2081(7) 1.0844(6) 0.3841(4)
H112 H 0.1919 1.0932 0.3974
H113 H 0.1965 1.1079 0.3688
H114 H 0.2339 1.1043 0.3888
N27 N 0.1674(3) 0.9779(5) 0.2458(2)
C151 C 0.1385(3) 0.9941(6) 0.2375(2)
C152 C 0.0983(3) 1.0117(6) 0.2248(3)
H115 H 0.1003 1.0498 0.2124
H116 H 0.0819 1.0285 0.2372
H117 H 0.0870 0.9682 0.2166
O7 O 0.15794(16) 0.7922(3) 0.14351(10)
O8 O 0.13833(17) 0.7203(3) 0.10884(10)
O9 O 0.13261(17) 0.6773(3) 0.14904(11)
O10 O 0.19409(16) 0.6894(3) 0.13504(10)
Cl1 Cl 0.15579(6) 0.71998(10) 0.13401(4)
O11 O 0.28462(17) 1.2506(3) 0.07989(10)
O12 O 0.29399(17) 1.2357(3) 0.03808(10)
O13 O 0.24437(16) 1.1735(3) 0.05510(11)
O14 O 0.24076(18) 1.2981(3) 0.04916(11)
Cl2 Cl 0.26572(6) 1.23911(10) 0.05548(3)
O15 O 0.0769(2) 0.1400(5) 0.13783(13)
O16 O 0.0748(3) 0.1477(6) 0.17996(18)
O17 O 0.1292(2) 0.1923(4) 0.16218(12)
O18 O 0.1144(3) 0.0708(6) 0.1648(3)
Cl3 Cl 0.09847(7) 0.14221(14) 0.16165(4)
O19 O 0.4026(3) 0.6101(11) 0.0491(3)
O20 O 0.3393(2) 0.6228(4) 0.02835(14)
O21 O 0.3527(5) 0.6567(5) 0.07085(17)
Cl4 Cl 0.36106(11) 0.60562(19) 0.05151(6)
O22 O 0.3522(4) 0.5323(6) 0.05952(19)
O23 O -0.0875(3) 0.3147(7) 0.1067(4)
O24 O -0.0280(3) 0.3684(6) 0.1096(5)
O25 O -0.0827(4) 0.4364(7) 0.0987(4)
O26 O -0.0649(8) 0.3642(19) 0.0721(3)
Cl5 Cl -0.06548(12) 0.3710(2) 0.10076(10)
C1 C 0.3482(3) 0.8348(5) 0.03912(17)
C2 C 0.3287(3) 0.9006(5) 0.00458(15)
H1 H 0.3134 0.9377 -0.0037
C3 C 0.3548(3) 0.8629(6) -0.00895(19)
H2 H 0.3560 0.8727 -0.0260
C4 C 0.3775(4) 0.8132(6) 0.0029(2)
H3 H 0.3963 0.7889 -0.0055
C5 C 0.3740(3) 0.7967(5) 0.0276(2)
H4 H 0.3893 0.7599 0.0360
C6 C 0.3410(3) 0.8229(5) 0.06526(16)
H5 H 0.3546 0.7873 0.0754
C7 C 0.3079(3) 0.8537(5) 0.09881(15)
C8 C 0.3215(2) 0.9020(4) 0.11710(15)
H6 H 0.3364 0.9425 0.1131
C9 C 0.3134(2) 0.8917(4) 0.14113(15)
H7 H 0.3237 0.9240 0.1538
C10 C 0.2904(2) 0.8338(4) 0.14695(15)
C11 C 0.2776(3) 0.7849(4) 0.12849(16)
H8 H 0.2630 0.7442 0.1326
C12 C 0.2857(3) 0.7936(4) 0.10443(15)
H9 H 0.2765 0.7599 0.0919
C13 C 0.2799(3) 0.8229(4) 0.17280(15)
C14 C 0.3066(2) 0.8336(5) 0.19423(16)
H10 H 0.3320 0.8499 0.1924
C15 C 0.2966(2) 0.8211(5) 0.21690(14)
H11 H 0.3154 0.8272 0.2308
C16 C 0.2601(2) 0.7999(4) 0.22076(14)
C17 C 0.2321(3) 0.7943(5) 0.20037(16)
H12 H 0.2060 0.7841 0.2027
C18 C 0.2428(3) 0.8040(5) 0.17657(16)
H13 H 0.2240 0.7974 0.1626
C19 C 0.2367(2) 0.8438(5) 0.25637(15)
H14 H 0.2310 0.8881 0.2478
C20 C 0.2311(2) 0.8351(5) 0.28235(16)
C21 C 0.2378(3) 0.7556(5) 0.31556(16)
H15 H 0.2457 0.7104 0.3228
C22 C 0.2212(3) 0.8076(5) 0.32989(15)
H16 H 0.2174 0.7964 0.3465
C23 C 0.2106(3) 0.8729(5) 0.32064(16)
H17 H 0.1999 0.9082 0.3306
C24 C 0.2158(3) 0.8874(5) 0.29598(16)
H18 H 0.2088 0.9331 0.2888
C25 C 0.2331(2) 0.9767(4) 0.01232(15)
C26 C 0.2782(3) 1.0691(4) 0.01730(14)
H19 H 0.3016 1.0882 0.0253
C27 C 0.2565(3) 1.1105(5) -0.00038(15)
H20 H 0.2654 1.1571 -0.0045
C28 C 0.2225(3) 1.0849(5) -0.01204(15)
H21 H 0.2074 1.1131 -0.0242
C29 C 0.2106(3) 1.0164(5) -0.00556(16)
H22 H 0.1872 0.9968 -0.0134
C30 C 0.2237(3) 0.9046(5) 0.01980(17)
H23 H 0.2013 0.8802 0.0125
C31 C 0.2385(3) 0.8024(4) 0.04396(15)
C32 C 0.2607(3) 0.7447(4) 0.03770(17)
H24 H 0.2824 0.7525 0.0288
C33 C 0.2511(3) 0.6752(5) 0.04451(18)
H25 H 0.2661 0.6354 0.0400
C34 C 0.2199(3) 0.6626(4) 0.05790(16)
C35 C 0.1978(3) 0.7217(4) 0.06369(15)
H26 H 0.1759 0.7138 0.0723
C36 C 0.2067(2) 0.7908(4) 0.05731(15)
H27 H 0.1916 0.8304 0.0618
C37 C 0.2111(3) 0.5879(4) 0.06550(16)
C38 C 0.2176(2) 0.5272(4) 0.05207(14)
H28 H 0.2296 0.5325 0.0373
C39 C 0.2075(2) 0.4590(4) 0.05897(14)
H29 H 0.2121 0.4184 0.0489
C40 C 0.1899(2) 0.4493(4) 0.08120(14)
C41 C 0.1833(3) 0.5083(5) 0.09522(16)
H30 H 0.1714 0.5027 0.1100
C42 C 0.1939(3) 0.5752(5) 0.08798(17)
H31 H 0.1898 0.6154 0.0983
C43 C 0.2070(3) 0.3362(4) 0.09677(14)
H32 H 0.2329 0.3527 0.0988
C44 C 0.1975(2) 0.2647(4) 0.10321(13)
C45 C 0.1475(3) 0.1841(4) 0.10407(15)
H33 H 0.1212 0.1719 0.0994
C46 C 0.1709(3) 0.1326(4) 0.11746(16)
H34 H 0.1603 0.0892 0.1232
C47 C 0.2090(3) 0.1468(5) 0.12195(14)
H35 H 0.2263 0.1115 0.1296
C48 C 0.2230(3) 0.2154(5) 0.11513(15)
H36 H 0.2495 0.2272 0.1187
C49 C 0.3204(2) 1.0575(4) 0.07657(13)
C50 C 0.3668(2) 1.0148(4) 0.05279(15)
H37 H 0.3748 0.9792 0.0418
C51 C 0.3915(3) 1.0725(5) 0.06006(16)
H38 H 0.4161 1.0757 0.0542
C52 C 0.3797(2) 1.1250(5) 0.07590(15)
H39 H 0.3957 1.1655 0.0807
C53 C 0.3449(2) 1.1169(4) 0.08426(14)
H40 H 0.3366 1.1516 0.0955
C54 C 0.2830(2) 1.0469(4) 0.08361(14)
H41 H 0.2724 1.0784 0.0949
C55 C 0.2249(2) 0.9819(4) 0.07993(14)
C56 C 0.1948(2) 1.0179(4) 0.06653(15)
H42 H 0.1998 1.0501 0.0536
C57 C 0.1576(2) 1.0076(5) 0.07181(15)
H43 H 0.1373 1.0337 0.0626
C58 C 0.1488(2) 0.9601(4) 0.09026(14)
C59 C 0.1793(2) 0.9238(4) 0.10357(16)
H44 H 0.1742 0.8912 0.1164
C60 C 0.2176(2) 0.9343(4) 0.09851(14)
H45 H 0.2382 0.9091 0.1077
C61 C 0.1083(2) 0.9462(5) 0.09477(14)
C62 C 0.0829(3) 0.9999(4) 0.09862(15)
H46 H 0.0911 1.0488 0.0977
C63 C 0.0450(2) 0.9862(5) 0.10392(16)
H47 H 0.0288 1.0248 0.1080
C64 C 0.0317(2) 0.9158(5) 0.10308(16)
C65 C 0.0569(3) 0.8590(5) 0.09803(16)
H48 H 0.0480 0.8103 0.0970
C66 C 0.0941(3) 0.8752(5) 0.09471(16)
H49 H 0.1113 0.8366 0.0922
C67 C -0.0275(3) 0.8740(5) 0.08761(18)
H50 H -0.0159 0.8608 0.0732
C68 C -0.0686(2) 0.8634(4) 0.08895(17)
C69 C -0.1176(2) 0.8792(5) 0.11410(17)
H51 H -0.1260 0.8947 0.1293
C70 C -0.1446(3) 0.8503(5) 0.09590(17)
H52 H -0.1709 0.8474 0.0987
C71 C -0.1332(3) 0.8261(5) 0.07414(19)
H53 H -0.1513 0.8050 0.0618
C72 C -0.0941(3) 0.8330(5) 0.07040(18)
H54 H -0.0852 0.8170 0.0554
C73 C 0.3350(3) 0.6907(5) 0.25382(17)
C74 C 0.3334(3) 0.7664(6) 0.28760(17)
H55 H 0.3192 0.7886 0.2995
C75 C 0.3709(3) 0.7804(8) 0.2889(2)
H56 H 0.3830 0.8101 0.3018
C76 C 0.3912(4) 0.7526(9) 0.2721(3)
H57 H 0.4176 0.7653 0.2721
C77 C 0.3743(3) 0.7054(7) 0.2547(2)
H58 H 0.3893 0.6828 0.2433
C78 C 0.3109(3) 0.6456(5) 0.23657(16)
H59 H 0.3212 0.6209 0.2234
C79 C 0.2522(2) 0.5958(4) 0.22205(15)
C80 C 0.2481(3) 0.6146(5) 0.19683(15)
H60 H 0.2617 0.6545 0.1910
C81 C 0.2232(3) 0.5730(5) 0.18051(15)
H61 H 0.2199 0.5859 0.1634
C82 C 0.2031(3) 0.5140(4) 0.18814(15)
C83 C 0.2085(2) 0.4955(4) 0.21371(14)
H62 H 0.1952 0.4551 0.2195
C84 C 0.2332(2) 0.5360(4) 0.23050(14)
H63 H 0.2369 0.5228 0.2475
C85 C 0.1770(3) 0.4705(4) 0.17067(14)
C86 C 0.1850(3) 0.3969(5) 0.16740(16)
H64 H 0.2057 0.3748 0.1775
C87 C 0.1633(3) 0.3566(5) 0.14988(14)
H65 H 0.1691 0.3070 0.1475
C88 C 0.1329(2) 0.3894(4) 0.13573(15)
C89 C 0.1235(3) 0.4606(4) 0.13940(16)
H66 H 0.1018 0.4819 0.1300
C90 C 0.1458(3) 0.5003(4) 0.15664(15)
H67 H 0.1396 0.5497 0.1590
C91 C 0.0818(2) 0.3126(5) 0.12006(16)
H68 H 0.0730 0.3131 0.1360
C92 C 0.0613(3) 0.2722(5) 0.09969(16)
C93 C 0.0624(3) 0.2432(5) 0.05829(19)
H69 H 0.0743 0.2444 0.0434
C94 C 0.0269(4) 0.2074(7) 0.0587(2)
H70 H 0.0149 0.1850 0.0441
C95 C 0.0100(3) 0.2045(6) 0.0796(2)
H71 H -0.0139 0.1798 0.0800
C96 C 0.0272(3) 0.2374(6) 0.10053(18)
H72 H 0.0154 0.2360 0.1155
C97 C 0.2303(2) 0.5856(4) 0.29288(14)
C98 C 0.2959(3) 0.5932(5) 0.30282(15)
H73 H 0.3200 0.6153 0.3008
C99 C 0.2952(3) 0.5357(5) 0.31922(16)
H74 H 0.3185 0.5190 0.3282
C100 C 0.2614(3) 0.5033(5) 0.32238(15)
H75 H 0.2606 0.4646 0.3339
C101 C 0.2282(2) 0.5268(4) 0.30890(15)
H76 H 0.2042 0.5036 0.3104
C102 C 0.1972(2) 0.6145(4) 0.27797(14)
H77 H 0.1719 0.5969 0.2790
C103 C 0.1723(2) 0.6997(4) 0.24809(14)
C104 C 0.1659(2) 0.6830(5) 0.22339(14)
H78 H 0.1803 0.6463 0.2163
C105 C 0.1374(2) 0.7217(4) 0.20894(15)
H79 H 0.1332 0.7124 0.1916
C106 C 0.1151(2) 0.7728(4) 0.21896(15)
C107 C 0.1216(3) 0.7850(5) 0.24461(16)
H80 H 0.1060 0.8190 0.2521
C108 C 0.1500(2) 0.7488(4) 0.25898(15)
H81 H 0.1543 0.7576 0.2763
C109 C 0.0870(2) 0.8182(4) 0.20290(14)
C110 C 0.0976(2) 0.8526(4) 0.18253(15)
H82 H 0.1232 0.8461 0.1784
C111 C 0.0728(2) 0.8967(5) 0.16752(15)
H83 H 0.0814 0.9213 0.1538
C112 C 0.0348(2) 0.9039(4) 0.17315(14)
C113 C 0.0226(2) 0.8686(5) 0.19337(15)
H84 H -0.0034 0.8722 0.1969
C114 C 0.0493(2) 0.8276(4) 0.20837(16)
H85 H 0.0415 0.8054 0.2228
C115 C 0.0122(2) 1.0149(5) 0.15973(15)
H86 H 0.0326 1.0359 0.1704
C116 C -0.0156(2) 1.0590(5) 0.14467(15)
C117 C -0.0682(3) 1.0541(5) 0.11503(16)
H87 H -0.0855 1.0270 0.1038
C118 C -0.0716(3) 1.1301(5) 0.11522(19)
H88 H -0.0914 1.1532 0.1046
C119 C -0.0467(3) 1.1702(5) 0.13048(19)
H89 H -0.0491 1.2214 0.1309
C120 C -0.0175(3) 1.1354(5) 0.14564(16)
H90 H 0.0006 1.1623 0.1564
C121 C 0.1580(2) 0.2550(5) 0.03964(15)
H91 H 0.1690 0.2190 0.0508
C122 C 0.1234(2) 0.3621(5) 0.03131(14)
C123 C 0.1260(3) 0.3575(5) 0.00644(17)
H92 H 0.1142 0.3927 -0.0047
C124 C 0.1463(3) 0.3003(6) -0.00214(18)
H93 H 0.1492 0.2964 -0.0193
C125 C 0.1621(2) 0.2493(6) 0.01414(17)
H94 H 0.1759 0.2098 0.0082
C126 C 0.1029(2) 0.4181(5) 0.04270(16)
H95 H 0.0912 0.4569 0.0331
C127 C 0.0793(2) 0.4707(4) 0.07714(15)
C128 C 0.0918(3) 0.5406(5) 0.07733(16)
H96 H 0.1139 0.5526 0.0694
C129 C 0.0724(3) 0.5953(5) 0.08903(17)
H97 H 0.0819 0.6435 0.0898
C130 C 0.0385(3) 0.5771(4) 0.09965(16)
C131 C 0.0259(2) 0.5080(5) 0.09816(15)
H98 H 0.0025 0.4965 0.1048
C132 C 0.0453(2) 0.4536(5) 0.08755(15)
H99 H 0.0359 0.4053 0.0872
C133 C 0.0180(3) 0.6368(4) 0.11208(16)
C134 C 0.0403(2) 0.6902(5) 0.12537(18)
H100 H 0.0677 0.6880 0.1268
C135 C 0.0219(3) 0.7456(5) 0.13621(18)
H101 H 0.0369 0.7812 0.1455
C136 C -0.0175(2) 0.7508(4) 0.13399(15)
C137 C -0.0400(3) 0.6965(5) 0.12173(17)
H102 H -0.0673 0.6982 0.1207
C138 C -0.0212(2) 0.6398(5) 0.11098(18)
H103 H -0.0362 0.6023 0.1027
C139 C -0.0596(2) 0.7937(5) 0.16067(17)
H104 H -0.0645 0.7448 0.1647
C140 C -0.0789(2) 0.8528(4) 0.17187(15)
C141 C -0.0840(2) 0.9778(5) 0.17341(16)
H105 H -0.0781 1.0246 0.1676
C142 C -0.1077(3) 0.9714(6) 0.19243(18)
H106 H -0.1172 1.0135 0.1997
C143 C -0.1171(3) 0.9044(6) 0.20055(18)
H107 H -0.1338 0.8998 0.2132
C144 C -0.1024(3) 0.8443(5) 0.19044(17)
H108 H -0.1084 0.7973 0.1961
N1 N 0.3244(2) 0.8874(4) 0.02787(12)
N2 N 0.3153(2) 0.8636(3) 0.07328(12)
N3 N 0.24964(19) 0.7886(4) 0.24549(12)
N4 N 0.24258(19) 0.7690(4) 0.29166(11)
N5 N 0.26686(18) 1.0027(3) 0.02341(11)
N6 N 0.2473(2) 0.8748(4) 0.03686(12)
N7 N 0.17927(19) 0.3783(3) 0.08809(11)
N8 N 0.1595(2) 0.2480(3) 0.09756(11)
N9 N 0.33213(18) 1.0090(3) 0.06108(11)
N10 N 0.26403(18) 0.9921(3) 0.07386(11)
N11 N -0.00817(19) 0.9010(3) 0.10613(13)
N12 N -0.0807(2) 0.8858(4) 0.11092(13)
N13 N 0.3140(2) 0.7231(4) 0.27061(13)
N14 N 0.27556(18) 0.6403(4) 0.23970(12)
N15 N 0.11174(19) 0.3470(3) 0.11581(12)
N16 N 0.07937(19) 0.2753(4) 0.07855(13)
N17 N 0.26456(19) 0.6183(3) 0.29004(11)
N18 N 0.20432(18) 0.6662(3) 0.26307(11)
N19 N 0.00782(18) 0.9475(3) 0.15802(12)
N20 N -0.04174(19) 1.0190(4) 0.12988(13)
N21 N 0.13861(19) 0.3111(4) 0.04833(12)
N22 N 0.1008(2) 0.4145(4) 0.06622(12)
N23 N -0.03567(18) 0.8094(4) 0.14507(12)
N24 N -0.06953(19) 0.9188(4) 0.16319(12)
Fe1 Fe 0.29148(3) 0.93659(6) 0.04966(2)
Fe2 Fe 0.25855(3) 0.70004(6) 0.26632(2)
Fe3 Fe 0.12832(3) 0.33043(6) 0.08268(2)
Fe4 Fe -0.03648(3) 0.91433(6) 0.13546(2)
loop_
_geom_bond_atom_site_label_1
_geom_bond_atom_site_label_2
_geom_bond_site_symmetry_1
_geom_bond_site_symmetry_2
C1 C5 1_555 1_555
C2 H1 1_555 1_555
C3 C2 1_555 1_555
H2 C3 1_555 1_555
C4 C3 1_555 1_555
H3 C4 1_555 1_555
C5 C4 1_555 1_555
H4 C5 1_555 1_555
C6 C1 1_555 1_555
H5 C6 1_555 1_555
C7 C8 1_555 1_555
C8 H6 1_555 1_555
C9 C8 1_555 1_555
H7 C9 1_555 1_555
C10 C9 1_555 1_555
C11 C10 1_555 1_555
H8 C11 1_555 1_555
C12 C7 1_555 1_555
H9 C12 1_555 1_555
C13 C10 1_555 1_555
C14 C13 1_555 1_555
H10 C14 1_555 1_555
C15 C14 1_555 1_555
H11 C15 1_555 1_555
C16 C15 1_555 1_555
C17 C16 1_555 1_555
H12 C17 1_555 1_555
C18 C13 1_555 1_555
H13 C18 1_555 1_555
C19 H14 1_555 1_555
C20 C19 1_555 1_555
C21 H15 1_555 1_555
C22 C21 1_555 1_555
H16 C22 1_555 1_555
C23 C22 1_555 1_555
H17 C23 1_555 1_555
C24 C20 1_555 1_555
H18 C24 1_555 1_555
C25 C29 1_555 1_555
C26 H19 1_555 1_555
C27 C26 1_555 1_555
H20 C27 1_555 1_555
C28 C27 1_555 1_555
H21 C28 1_555 1_555
C29 C28 1_555 1_555
H22 C29 1_555 1_555
C30 C25 1_555 1_555
H23 C30 1_555 1_555
C31 C32 1_555 1_555
C32 H24 1_555 1_555
C33 C32 1_555 1_555
H25 C33 1_555 1_555
C34 C33 1_555 1_555
C35 C34 1_555 1_555
H26 C35 1_555 1_555
C36 C31 1_555 1_555
H27 C36 1_555 1_555
C37 C34 1_555 1_555
C38 C37 1_555 1_555
H28 C38 1_555 1_555
C39 C38 1_555 1_555
H29 C39 1_555 1_555
C40 C39 1_555 1_555
C41 C40 1_555 1_555
H30 C41 1_555 1_555
C42 C37 1_555 1_555
H31 C42 1_555 1_555
C43 H32 1_555 1_555
C44 C43 1_555 1_555
C45 H33 1_555 1_555
C46 C45 1_555 1_555
H34 C46 1_555 1_555
C47 C46 1_555 1_555
H35 C47 1_555 1_555
C48 C44 1_555 1_555
H36 C48 1_555 1_555
C49 C53 1_555 1_555
C50 H37 1_555 1_555
C51 C50 1_555 1_555
H38 C51 1_555 1_555
C52 C51 1_555 1_555
H39 C52 1_555 1_555
C53 C52 1_555 1_555
H40 C53 1_555 1_555
C54 C49 1_555 1_555
H41 C54 1_555 1_555
C55 C56 1_555 1_555
C56 H42 1_555 1_555
C57 C56 1_555 1_555
H43 C57 1_555 1_555
C58 C57 1_555 1_555
C59 C58 1_555 1_555
H44 C59 1_555 1_555
C60 C55 1_555 1_555
H45 C60 1_555 1_555
C61 C58 1_555 1_555
C62 C61 1_555 1_555
H46 C62 1_555 1_555
C63 C62 1_555 1_555
H47 C63 1_555 1_555
C64 C63 1_555 1_555
C65 C64 1_555 1_555
H48 C65 1_555 1_555
C66 C61 1_555 1_555
H49 C66 1_555 1_555
C67 H50 1_555 1_555
C68 C67 1_555 1_555
C69 H51 1_555 1_555
C70 C69 1_555 1_555
H52 C70 1_555 1_555
C71 C70 1_555 1_555
H53 C71 1_555 1_555
C72 C68 1_555 1_555
H54 C72 1_555 1_555
C73 C77 1_555 1_555
C74 H55 1_555 1_555
C75 C74 1_555 1_555
H56 C75 1_555 1_555
C76 C75 1_555 1_555
H57 C76 1_555 1_555
C77 C76 1_555 1_555
H58 C77 1_555 1_555
C78 C73 1_555 1_555
H59 C78 1_555 1_555
C79 C80 1_555 1_555
C80 H60 1_555 1_555
C81 C80 1_555 1_555
H61 C81 1_555 1_555
C82 C81 1_555 1_555
C83 C82 1_555 1_555
H62 C83 1_555 1_555
C84 C79 1_555 1_555
H63 C84 1_555 1_555
C85 C82 1_555 1_555
C86 C85 1_555 1_555
H64 C86 1_555 1_555
C87 C86 1_555 1_555
H65 C87 1_555 1_555
C88 C87 1_555 1_555
C89 C88 1_555 1_555
H66 C89 1_555 1_555
C90 C85 1_555 1_555
H67 C90 1_555 1_555
C91 H68 1_555 1_555
C92 C91 1_555 1_555
C93 H69 1_555 1_555
C94 C93 1_555 1_555
H70 C94 1_555 1_555
C95 C94 1_555 1_555
H71 C95 1_555 1_555
C96 C92 1_555 1_555
H72 C96 1_555 1_555
C97 C101 1_555 1_555
C98 H73 1_555 1_555
C99 C98 1_555 1_555
H74 C99 1_555 1_555
C100 C99 1_555 1_555
H75 C100 1_555 1_555
C101 C100 1_555 1_555
H76 C101 1_555 1_555
C102 C97 1_555 1_555
H77 C102 1_555 1_555
C103 C104 1_555 1_555
C104 H78 1_555 1_555
C105 C104 1_555 1_555
H79 C105 1_555 1_555
C106 C105 1_555 1_555
C107 C106 1_555 1_555
H80 C107 1_555 1_555
C108 C103 1_555 1_555
H81 C108 1_555 1_555
C109 C106 1_555 1_555
C110 C109 1_555 1_555
H82 C110 1_555 1_555
C111 C110 1_555 1_555
H83 C111 1_555 1_555
C112 C111 1_555 1_555
C113 C112 1_555 1_555
H84 C113 1_555 1_555
C114 C109 1_555 1_555
H85 C114 1_555 1_555
C115 H86 1_555 1_555
C116 C115 1_555 1_555
C117 H87 1_555 1_555
C118 C117 1_555 1_555
H88 C118 1_555 1_555
C119 C118 1_555 1_555
H89 C119 1_555 1_555
C120 C116 1_555 1_555
H90 C120 1_555 1_555
C121 H91 1_555 1_555
C122 C123 1_555 1_555
C123 H92 1_555 1_555
C124 C123 1_555 1_555
H93 C124 1_555 1_555
C125 C121 1_555 1_555
H94 C125 1_555 1_555
C126 C122 1_555 1_555
H95 C126 1_555 1_555
C127 C128 1_555 1_555
C128 H96 1_555 1_555
C129 C128 1_555 1_555
H97 C129 1_555 1_555
C130 C129 1_555 1_555
C131 C130 1_555 1_555
H98 C131 1_555 1_555
C132 C127 1_555 1_555
H99 C132 1_555 1_555
C133 C130 1_555 1_555
C134 C133 1_555 1_555
H100 C134 1_555 1_555
C135 C134 1_555 1_555
H101 C135 1_555 1_555
C136 C135 1_555 1_555
C137 C136 1_555 1_555
H102 C137 1_555 1_555
C138 C133 1_555 1_555
H103 C138 1_555 1_555
C139 H104 1_555 1_555
C140 C139 1_555 1_555
C141 H105 1_555 1_555
C142 C141 1_555 1_555
H106 C142 1_555 1_555
C143 C142 1_555 1_555
H107 C143 1_555 1_555
C144 C140 1_555 1_555
H108 C144 1_555 1_555
N1 C1 1_555 1_555
N2 C6 1_555 1_555
N3 C16 1_555 1_555
N4 C20 1_555 1_555
N5 C25 1_555 1_555
N6 C30 1_555 1_555
N7 C40 1_555 1_555
N8 C44 1_555 1_555
N9 C49 1_555 1_555
N10 C54 1_555 1_555
N11 C64 1_555 1_555
N12 C68 1_555 1_555
N13 C73 1_555 1_555
N14 C78 1_555 1_555
N15 C88 1_555 1_555
N16 C92 1_555 1_555
N17 C97 1_555 1_555
N18 C102 1_555 1_555
N19 C112 1_555 1_555
N20 C116 1_555 1_555
N21 C121 1_555 1_555
N22 C126 1_555 1_555
N23 C136 1_555 1_555
N24 C140 1_555 1_555
Fe1 N1 1_555 1_555
Fe2 N3 1_555 1_555
Fe3 N7 1_555 1_555
Fe4 N11 1_555 1_555
C145 S1 1_555 1_555
O1 S1 1_555 1_555
O2 S1 1_555 1_555
O3 S1 1_555 1_555
F1 C145 1_555 1_555
F2 C145 1_555 1_555
F3 C145 1_555 1_555
C146 S2 1_555 1_555
O4 S2 1_555 1_555
O5 S2 1_555 1_555
O6 S2 1_555 1_555
F4 C146 1_555 1_555
F5 C146 1_555 1_555
F6 C146 1_555 1_555
C147 C148 1_555 1_555
C148 H109 1_555 1_555
H110 C148 1_555 1_555
H111 C148 1_555 1_555
N25 C147 1_555 1_555
N26 C149 1_555 1_555
C149 C150 1_555 1_555
C150 H112 1_555 1_555
H113 C150 1_555 1_555
H114 C150 1_555 1_555
N27 C151 1_555 1_555
C151 C152 1_555 1_555
C152 H115 1_555 1_555
H116 C152 1_555 1_555
H117 C152 1_555 1_555
O7 Cl1 1_555 1_555
O8 Cl1 1_555 1_555
O9 Cl1 1_555 1_555
O10 Cl1 1_555 1_555
O11 Cl2 1_555 1_555
O12 Cl2 1_555 1_555
O13 Cl2 1_555 1_555
O14 Cl2 1_555 1_555
O15 Cl3 1_555 1_555
O16 Cl3 1_555 1_555
O17 Cl3 1_555 1_555
O18 Cl3 1_555 1_555
O19 Cl4 1_555 1_555
O20 Cl4 1_555 1_555
O21 Cl4 1_555 1_555
Cl4 O22 1_555 1_555
O23 Cl5 1_555 1_555
O24 Cl5 1_555 1_555
O25 Cl5 1_555 1_555
O26 Cl5 1_555 1_555
C2 N1 1_555 1_555
C7 N2 1_555 1_555
C11 C12 1_555 1_555
C17 C18 1_555 1_555
C19 N3 1_555 1_555
C21 N4 1_555 1_555
C23 C24 1_555 1_555
C26 N5 1_555 1_555
C31 N6 1_555 1_555
C35 C36 1_555 1_555
C41 C42 1_555 1_555
C43 N7 1_555 1_555
C45 N8 1_555 1_555
C47 C48 1_555 1_555
C50 N9 1_555 1_555
C55 N10 1_555 1_555
C59 C60 1_555 1_555
C65 C66 1_555 1_555
C67 N11 1_555 1_555
C69 N12 1_555 1_555
C71 C72 1_555 1_555
C74 N13 1_555 1_555
C79 N14 1_555 1_555
C83 C84 1_555 1_555
C89 C90 1_555 1_555
C91 N15 1_555 1_555
C93 N16 1_555 1_555
C95 C96 1_555 1_555
C98 N17 1_555 1_555
C103 N18 1_555 1_555
C107 C108 1_555 1_555
C113 C114 1_555 1_555
C115 N19 1_555 1_555
C117 N20 1_555 1_555
C119 C120 1_555 1_555
C122 N21 1_555 1_555
C124 C125 1_555 1_555
C127 N22 1_555 1_555
C131 C132 1_555 1_555
C137 C138 1_555 1_555
C139 N23 1_555 1_555
C141 N24 1_555 1_555
C143 C144 1_555 1_555
N2 Fe1 1_555 1_555
N4 Fe2 1_555 1_555
N5 Fe1 1_555 1_555
N6 Fe1 1_555 1_555
N8 Fe3 1_555 1_555
N9 Fe1 1_555 1_555
N10 Fe1 1_555 1_555
N12 Fe4 1_555 1_555
N13 Fe2 1_555 1_555
N14 Fe2 1_555 1_555
N15 Fe3 1_555 1_555
N16 Fe3 1_555 1_555
N17 Fe2 1_555 1_555
N18 Fe2 1_555 1_555
N19 Fe4 1_555 1_555
N20 Fe4 1_555 1_555
N21 Fe3 1_555 1_555
N22 Fe3 1_555 1_555
N23 Fe4 1_555 1_555
N24 Fe4 1_555 1_555

#END
