
#######################################################################
#
#                 Cambridge Crystallographic Data Centre
#                                CCDC 
#
#######################################################################
#
# If this CIF has been generated from an entry in the Cambridge 
# Structural Database, then it will include bibliographic, chemical, 
# crystal, experimental, refinement or atomic coordinate data resulting 
# from the CCDC's data processing and validation procedures.
#
#######################################################################

data_RAPWUD
_chemical_formula_moiety         
'C144 H108 Fe4 N24 8+,8(F6 P1 1-),9(C2 H3 N1),3(C4 H10 O1)'
_chemical_name_systematic        
"hexakis(\m-N,N'-bis(pyridin-2-ylmethylene)biphenyl-4,4'-diamine)-tetra-iron octakis(hexafluorophosphate) acetonitrile diethyl ether solvate"
_symmetry_cell_setting           orthorhombic
_symmetry_space_group_name_H-M   'P n a 21'
_symmetry_Int_Tables_number      33
_space_group_name_Hall           'P 2c -2n'
loop_
_symmetry_equiv_pos_site_id
_symmetry_equiv_pos_as_xyz
1 x,y,z
2 -x,-y,1/2+z
3 1/2-x,1/2+y,1/2+z
4 1/2+x,1/2-y,z
_cell_length_a                   34.2735(5)
_cell_length_b                   32.0208(9)
_cell_length_c                   18.4925(3)
_cell_angle_alpha                90
_cell_angle_beta                 90
_cell_angle_gamma                90
_cell_volume                     20294.9
_exptl_crystal_colour            purple
_exptl_crystal_description       needle
_cell_formula_units_Z            4
loop_
_atom_site_label
_atom_site_type_symbol
_atom_site_fract_x
_atom_site_fract_y
_atom_site_fract_z
C145 C -0.2929(8) -0.4626(8) -0.1104(16)
C146 C -0.3242(9) -0.4382(10) -0.124(2)
H109 H -0.3157 -0.4127 -0.1489
H110 H -0.3368 -0.4306 -0.0782
H111 H -0.3427 -0.4534 -0.1545
N25 N -0.2623(7) -0.4822(8) -0.1111(15)
C147 C -0.1867(9) -0.8078(10) -0.129(2)
C148 C -0.1995(8) -0.8252(9) -0.2070(16)
H112 H -0.2016 -0.8557 -0.2050
H113 H -0.1798 -0.8174 -0.2431
H114 H -0.2247 -0.8132 -0.2205
N26 N -0.1923(7) -0.8010(8) -0.0711(16)
C149 C -0.4240(15) -0.6749(16) -0.278(3)
C150 C -0.456(3) -0.643(3) -0.300(6)
H115 H -0.4713 -0.6353 -0.2572
H116 H -0.4729 -0.6569 -0.3351
H117 H -0.4442 -0.6184 -0.3213
N27 N -0.4013(17) -0.6993(18) -0.273(3)
C151 C -0.5808(7) -0.5759(7) -0.3037(16)
C152 C -0.6247(8) -0.5945(7) -0.296(2)
H118 H -0.6353 -0.5872 -0.2485
H119 H -0.6240 -0.6249 -0.3011
H120 H -0.6413 -0.5826 -0.3340
N28 N -0.5518(5) -0.5628(5) -0.3020(13)
C153 C -0.6358(6) -0.4788(6) -0.1993(10)
C154 C -0.6743(6) -0.4581(7) -0.1993(11)
H121 H -0.6890 -0.4667 -0.2423
H122 H -0.6708 -0.4278 -0.1998
H123 H -0.6888 -0.4662 -0.1557
N29 N -0.6068(5) -0.4931(5) -0.1985(11)
C155 C -0.5746(8) -0.2615(8) -0.533(2)
C156 C -0.5457(7) -0.2918(7) -0.5351(14)
H124 H -0.5577 -0.3195 -0.5335
H125 H -0.5283 -0.2883 -0.4934
H126 H -0.5306 -0.2889 -0.5799
N30 N -0.6027(8) -0.2469(10) -0.5315(16)
C157 C -0.3858(7) -0.5010(9) 0.0562(13)
C158 C -0.4095(7) -0.4860(8) -0.0088(13)
H127 H -0.3957 -0.4629 -0.0324
H128 H -0.4351 -0.4764 0.0076
H129 H -0.4128 -0.5090 -0.0431
N31 N -0.3604(6) -0.5105(7) 0.0912(12)
C159 C -0.1457(7) -0.7457(7) 0.2170(12)
C160 C -0.1209(7) -0.7808(7) 0.2546(15)
H130 H -0.1215 -0.8062 0.2250
H131 H -0.1318 -0.7868 0.3024
H132 H -0.0938 -0.7713 0.2598
N32 N -0.1569(6) -0.7285(6) 0.1694(11)
F1 F -0.2731(2) -0.5673(2) -0.4478(5)
F2 F -0.3350(2) -0.6373(2) -0.4637(5)
F3 F -0.2910(3) -0.6210(3) -0.3812(5)
F4 F -0.3108(3) -0.5896(3) -0.5367(5)
F5 F -0.2703(2) -0.6354(2) -0.4699(7)
F6 F -0.3361(2) -0.5713(2) -0.4312(7)
P1 P -0.30332(14) -0.60297(15) -0.4570(3)
F7 F -0.0770(6) -0.4974(4) -0.2590(12)
F8 F -0.0493(3) -0.4139(4) -0.3254(8)
F9 F -0.0352(4) -0.4451(7) -0.2255(8)
F10 F -0.0954(3) -0.4300(4) -0.2503(6)
F11 F -0.0302(5) -0.4745(5) -0.3358(12)
F12 F -0.0922(4) -0.4620(6) -0.3559(8)
P2 P -0.06285(15) -0.45509(18) -0.2892(3)
F13 F -0.2636(4) -0.3174(4) -0.2538(9)
F14 F -0.3162(4) -0.3570(5) -0.2355(9)
F15 F -0.2339(4) -0.3715(5) -0.3045(11)
F16 F -0.2941(5) -0.3480(4) -0.3470(8)
F17 F -0.2570(5) -0.3804(5) -0.2041(12)
F18 F -0.2921(7) -0.4069(7) -0.2823(19)
P3 P -0.2760(3) -0.3628(3) -0.2742(7)
F19 F -0.7623(6) -0.6089(5) -0.3946(8)
F20 F -0.7157(5) -0.5641(17) -0.2950(13)
F21 F -0.7685(3) -0.5465(3) -0.3514(17)
F22 F -0.7691(6) -0.5995(8) -0.2883(10)
F23 F -0.7212(9) -0.5599(7) -0.4079(16)
F24 F -0.7106(6) -0.6108(5) -0.354(2)
P4 P -0.74154(16) -0.58023(16) -0.3498(3)
F25 F -0.6550(3) -0.3775(4) -0.4254(8)
F26 F -0.5996(5) -0.3418(5) -0.3089(15)
F27 F -0.6410(4) -0.3883(5) -0.3160(8)
F28 F -0.6559(3) -0.3242(4) -0.3527(8)
F29 F -0.6116(7) -0.3245(7) -0.4234(17)
F30 F -0.5948(3) -0.3919(3) -0.3918(7)
P5 P -0.62514(10) -0.35718(12) -0.3720(3)
F31 F -0.89948(19) -0.4848(2) -0.5493(4)
F32 F -0.86903(16) -0.4393(2) -0.4090(4)
F33 F -0.91946(17) -0.4301(2) -0.4829(4)
F34 F -0.9106(2) -0.4921(2) -0.4295(5)
F35 F -0.85844(19) -0.4313(2) -0.5280(4)
F36 F -0.8488(2) -0.4942(2) -0.4750(5)
P6 P -0.88434(9) -0.46241(11) -0.4792(2)
F37 F -0.9630(4) -0.2738(3) -0.3816(9)
F38 F -1.0161(5) -0.2311(5) -0.3705(9)
F39 F -1.0122(5) -0.2379(5) -0.2563(8)
F40 F -0.9596(4) -0.2149(3) -0.3179(9)
F41 F -1.0161(3) -0.2942(3) -0.3212(7)
F42 F -0.9609(4) -0.2763(3) -0.2633(8)
P7 P -0.98834(13) -0.25446(14) -0.3203(3)
C1 C -0.3117(4) -0.8573(4) -0.5898(7)
C2 C -0.3735(4) -0.8894(5) -0.5912(10)
H1 H -0.4001 -0.8900 -0.6058
C3 C -0.3572(6) -0.9244(5) -0.5564(12)
H2 H -0.3731 -0.9467 -0.5398
C4 C -0.3166(5) -0.9249(4) -0.5473(11)
H3 H -0.3046 -0.9497 -0.5300
C5 C -0.2933(4) -0.8904(4) -0.5628(7)
H4 H -0.2660 -0.8905 -0.5546
C6 C -0.2936(4) -0.8175(4) -0.6080(7)
H5 H -0.2661 -0.8143 -0.6039
C7 C -0.2936(3) -0.7485(3) -0.6509(8)
C8 C -0.2918(4) -0.7339(4) -0.7178(7)
H6 H -0.3057 -0.7473 -0.7556
C9 C -0.2698(4) -0.6996(5) -0.7320(7)
H7 H -0.2664 -0.6914 -0.7810
C10 C -0.2530(3) -0.6772(4) -0.6810(8)
C11 C -0.2529(6) -0.6918(5) -0.6151(9)
H8 H -0.2372 -0.6778 -0.5803
C12 C -0.2747(5) -0.7275(5) -0.5915(10)
H9 H -0.2765 -0.7362 -0.5425
C13 C -0.2295(3) -0.6377(3) -0.6967(7)
C14 C -0.2006(3) -0.6375(3) -0.7485(6)
H10 H -0.1962 -0.6614 -0.7777
C15 C -0.1780(3) -0.6018(4) -0.7573(7)
H11 H -0.1581 -0.6016 -0.7930
C16 C -0.1840(3) -0.5658(3) -0.7147(6)
C17 C -0.2144(3) -0.5653(4) -0.6660(7)
H12 H -0.2197 -0.5411 -0.6381
C18 C -0.2369(3) -0.6007(4) -0.6584(7)
H13 H -0.2583 -0.6000 -0.6258
C19 C -0.1622(3) -0.5072(4) -0.7770(8)
H14 H -0.1823 -0.5124 -0.8112
C20 C -0.1344(3) -0.4718(4) -0.7865(7)
C21 C -0.0815(5) -0.4404(4) -0.7255(9)
H15 H -0.0629 -0.4395 -0.6874
C22 C -0.0825(5) -0.4082(6) -0.7788(11)
H16 H -0.0634 -0.3867 -0.7789
C23 C -0.1114(6) -0.4087(5) -0.8295(11)
H17 H -0.1129 -0.3868 -0.8639
C24 C -0.1382(4) -0.4402(5) -0.8316(8)
H18 H -0.1592 -0.4393 -0.8650
C25 C -0.3826(4) -0.7832(4) -0.7835(8)
C26 C -0.3545(3) -0.8483(4) -0.7737(8)
H19 H -0.3422 -0.8690 -0.7448
C27 C -0.3592(4) -0.8572(5) -0.8465(8)
H20 H -0.3517 -0.8831 -0.8673
C28 C -0.3765(4) -0.8238(5) -0.8879(8)
H21 H -0.3803 -0.8276 -0.9384
C29 C -0.3875(4) -0.7868(5) -0.8569(8)
H22 H -0.3981 -0.7647 -0.8849
C30 C -0.3947(4) -0.7458(4) -0.7429(8)
H23 H -0.4062 -0.7224 -0.7665
C31 C -0.4026(3) -0.7078(2) -0.6416(7)
C32 C -0.4409(2) -0.7042(2) -0.6177(7)
H24 H -0.4589 -0.7262 -0.6263
C33 C -0.4528(2) -0.6685(3) -0.5812(7)
H25 H -0.4790 -0.6661 -0.5649
C34 C -0.4265(3) -0.6363(2) -0.5686(7)
C35 C -0.3882(2) -0.6399(3) -0.5925(7)
H26 H -0.3702 -0.6179 -0.5839
C36 C -0.3762(2) -0.6756(3) -0.6290(7)
H27 H -0.3500 -0.6780 -0.6453
C37 C -0.4414(3) -0.5985(3) -0.5259(6)
C38 C -0.4708(3) -0.5731(3) -0.5531(5)
H28 H -0.4844 -0.5810 -0.5958
C39 C -0.4804(3) -0.5361(3) -0.5180(6)
H29 H -0.5005 -0.5187 -0.5366
C40 C -0.4605(3) -0.5245(3) -0.4556(6)
C41 C -0.4311(3) -0.5499(3) -0.4284(5)
H30 H -0.4175 -0.5420 -0.3857
C42 C -0.4215(3) -0.5869(3) -0.4635(6)
H31 H -0.4014 -0.6043 -0.4449
C43 C -0.4952(4) -0.4876(4) -0.3714(9)
H32 H -0.5067 -0.5137 -0.3593
C44 C -0.5057(3) -0.4495(4) -0.3356(7)
C45 C -0.4901(3) -0.3795(5) -0.3286(8)
H33 H -0.4749 -0.3560 -0.3426
C46 C -0.5186(4) -0.3752(5) -0.2750(8)
H34 H -0.5234 -0.3485 -0.2544
C47 C -0.5385(4) -0.4072(7) -0.2532(10)
H35 H -0.5581 -0.4041 -0.2172
C48 C -0.5309(4) -0.4454(5) -0.2827(9)
H36 H -0.5441 -0.4693 -0.2647
C49 C -0.4423(3) -0.8103(4) -0.5629(5)
N1 N -0.4252(2) -0.8177(4) -0.6299(5)
C50 C -0.4465(3) -0.8371(4) -0.6843(5)
H37 H -0.4348 -0.8422 -0.7301
C51 C -0.4848(3) -0.8492(4) -0.6718(5)
H38 H -0.4994 -0.8625 -0.7090
C52 C -0.5020(2) -0.8418(4) -0.6049(6)
H39 H -0.5282 -0.8501 -0.5964
C53 C -0.4807(3) -0.8224(4) -0.5505(5)
H40 H -0.4924 -0.8173 -0.5047
C54 C -0.4167(5) -0.7933(7) -0.5122(11)
H41 H -0.4251 -0.7865 -0.4646
C55 C -0.3546(5) -0.7748(5) -0.4783(8)
C56 C -0.3370(4) -0.8035(5) -0.4376(8)
H42 H -0.3409 -0.8321 -0.4496
C57 C -0.3126(4) -0.7940(5) -0.3768(8)
H43 H -0.3035 -0.8151 -0.3448
C58 C -0.3030(4) -0.7530(5) -0.3675(8)
C59 C -0.3198(4) -0.7230(5) -0.4109(8)
H44 H -0.3137 -0.6944 -0.4030
C60 C -0.3455(4) -0.7336(5) -0.4659(8)
H45 H -0.3568 -0.7124 -0.4951
C61 C -0.2781(4) -0.7371(4) -0.3024(7)
C62 C -0.2847(4) -0.7533(4) -0.2375(7)
H46 H -0.3029 -0.7754 -0.2313
C63 C -0.2642(3) -0.7371(4) -0.1783(7)
H47 H -0.2704 -0.7462 -0.1307
C64 C -0.2355(3) -0.7084(4) -0.1884(7)
C65 C -0.2290(4) -0.6941(5) -0.2565(7)
H48 H -0.2088 -0.6743 -0.2647
C66 C -0.2514(4) -0.7079(4) -0.3145(7)
H49 H -0.2477 -0.6968 -0.3615
C67 C -0.1769(3) -0.6999(3) -0.1267(7)
H50 H -0.1647 -0.7154 -0.1643
C68 C -0.1555(3) -0.6860(4) -0.0654(7)
C69 C -0.1600(3) -0.6483(3) 0.0387(7)
H51 H -0.1744 -0.6315 0.0716
C70 C -0.1221(4) -0.6567(4) 0.0544(8)
H52 H -0.1113 -0.6459 0.0978
C71 C -0.0995(4) -0.6797(4) 0.0108(9)
H53 H -0.0734 -0.6865 0.0240
C72 C -0.1156(3) -0.6937(4) -0.0558(8)
H54 H -0.1003 -0.7075 -0.0914
C73 C -0.0716(4) -0.4755(4) -0.5510(7)
C74 C -0.0270(4) -0.5169(5) -0.6183(8)
H55 H -0.0217 -0.5384 -0.6522
C75 C 0.0030(4) -0.4991(6) -0.5775(8)
H56 H 0.0292 -0.5055 -0.5901
C76 C -0.0030(4) -0.4750(7) -0.5248(11)
H57 H 0.0180 -0.4661 -0.4949
C77 C -0.0429(5) -0.4609(6) -0.5107(9)
H58 H -0.0480 -0.4415 -0.4730
C78 C -0.1109(4) -0.4674(5) -0.5423(8)
H59 H -0.1198 -0.4507 -0.5031
C79 C -0.1767(3) -0.4741(4) -0.5825(8)
C80 C -0.1962(3) -0.4894(5) -0.5195(8)
H60 H -0.1823 -0.5038 -0.4827
C81 C -0.2348(4) -0.4829(4) -0.5137(8)
H61 H -0.2475 -0.4919 -0.4708
C82 C -0.2574(3) -0.4637(4) -0.5664(8)
C83 C -0.2372(3) -0.4476(4) -0.6281(8)
H62 H -0.2516 -0.4338 -0.6649
C84 C -0.1964(3) -0.4519(4) -0.6352(9)
H63 H -0.1829 -0.4400 -0.6750
C85 C -0.2994(4) -0.4560(4) -0.5593(7)
C86 C -0.3199(3) -0.4864(5) -0.5288(10)
H64 H -0.3073 -0.5112 -0.5128
C87 C -0.3638(4) -0.4812(4) -0.5199(9)
H65 H -0.3795 -0.5031 -0.5011
C88 C -0.3792(4) -0.4447(4) -0.5393(7)
C89 C -0.3576(5) -0.4140(4) -0.5684(11)
H66 H -0.3694 -0.3883 -0.5815
C90 C -0.3171(4) -0.4205(5) -0.5794(10)
H67 H -0.3021 -0.3990 -0.6015
C91 C -0.4406(4) -0.4353(6) -0.5936(8)
H68 H -0.4293 -0.4390 -0.6400
C92 C -0.4796(5) -0.4241(5) -0.5831(9)
C93 C -0.5310(4) -0.4109(4) -0.4988(9)
H69 H -0.5392 -0.4082 -0.4500
C94 C -0.5576(4) -0.4049(4) -0.5542(12)
H70 H -0.5836 -0.3965 -0.5438
C95 C -0.5457(6) -0.4113(7) -0.6247(15)
H71 H -0.5639 -0.4086 -0.6633
C96 C -0.5079(5) -0.4214(6) -0.6387(12)
H72 H -0.5002 -0.4269 -0.6871
C97 C -0.0881(3) -0.5992(4) -0.7046(7)
C98 C -0.0637(3) -0.5506(5) -0.7868(7)
H73 H -0.0607 -0.5224 -0.8016
C99 C -0.0482(3) -0.5811(5) -0.8297(8)
H74 H -0.0346 -0.5738 -0.8727
C100 C -0.0526(3) -0.6251(5) -0.8097(7)
H75 H -0.0419 -0.6470 -0.8382
C101 C -0.0743(3) -0.6331(4) -0.7437(7)
H76 H -0.0789 -0.6609 -0.7277
C102 C -0.1066(3) -0.6036(4) -0.6315(7)
H77 H -0.1104 -0.6299 -0.6090
C103 C -0.1333(4) -0.5747(5) -0.5292(7)
C104 C -0.1649(3) -0.5969(4) -0.5178(7)
H78 H -0.1775 -0.6106 -0.5568
C105 C -0.1798(3) -0.6003(4) -0.4474(7)
H79 H -0.2038 -0.6143 -0.4396
C106 C -0.1599(4) -0.5833(4) -0.3888(7)
C107 C -0.1267(4) -0.5612(5) -0.3993(9)
H80 H -0.1130 -0.5491 -0.3599
C108 C -0.1127(4) -0.5568(5) -0.4732(7)
H81 H -0.0894 -0.5417 -0.4827
C109 C -0.1749(3) -0.5894(4) -0.3142(8)
C110 C -0.2152(4) -0.5808(4) -0.2982(8)
H82 H -0.2320 -0.5720 -0.3361
C111 C -0.2298(4) -0.5849(4) -0.2314(6)
H83 H -0.2567 -0.5799 -0.2224
C112 C -0.2042(3) -0.5969(4) -0.1736(8)
C113 C -0.1659(4) -0.6049(4) -0.1907(8)
H84 H -0.1489 -0.6144 -0.1538
C114 C -0.1518(3) -0.5996(5) -0.2578(8)
H85 H -0.1246 -0.6032 -0.2658
C115 C -0.2235(3) -0.5695(5) -0.0659(8)
H86 H -0.2171 -0.5431 -0.0861
C116 C -0.2380(3) -0.5739(4) 0.0060(7)
C117 C -0.2577(3) -0.6223(4) 0.0943(7)
H87 H -0.2627 -0.6504 0.1082
C118 C -0.2650(3) -0.5899(4) 0.1449(8)
H88 H -0.2744 -0.5965 0.1919
C119 C -0.2589(3) -0.5509(5) 0.1270(8)
H89 H -0.2632 -0.5294 0.1616
C120 C -0.2456(4) -0.5400(4) 0.0548(10)
H90 H -0.2420 -0.5118 0.0405
C121 C -0.3963(4) -0.3622(4) -0.4168(10)
C122 C -0.4452(4) -0.3377(4) -0.4907(8)
H91 H -0.4681 -0.3425 -0.5184
C123 C -0.4301(5) -0.3009(6) -0.4940(9)
H92 H -0.4433 -0.2791 -0.5186
C124 C -0.3926(4) -0.2930(4) -0.4597(11)
H93 H -0.3793 -0.2672 -0.4661
C125 C -0.3772(4) -0.3240(4) -0.4182(10)
H94 H -0.3541 -0.3197 -0.3909
C126 C -0.3829(4) -0.3980(4) -0.3735(9)
H95 H -0.3598 -0.3967 -0.3452
C127 C -0.3910(3) -0.4642(3) -0.3307(7)
C128 C -0.4115(4) -0.4794(4) -0.2725(8)
H96 H -0.4367 -0.4679 -0.2637
C129 C -0.3988(3) -0.5090(5) -0.2273(8)
H97 H -0.4135 -0.5162 -0.1856
C130 C -0.3635(3) -0.5292(4) -0.2424(6)
C131 C -0.3407(5) -0.5140(5) -0.2968(11)
H98 H -0.3153 -0.5251 -0.3040
C132 C -0.3544(4) -0.4819(4) -0.3425(8)
H99 H -0.3387 -0.4723 -0.3814
C133 C -0.3483(3) -0.5635(4) -0.2006(8)
C134 C -0.3438(3) -0.5607(4) -0.1247(7)
H100 H -0.3552 -0.5377 -0.1000
C135 C -0.3234(3) -0.5902(4) -0.0849(7)
H101 H -0.3189 -0.5859 -0.0347
C136 C -0.3102(3) -0.6244(4) -0.1169(7)
C137 C -0.3151(5) -0.6319(4) -0.1898(10)
H102 H -0.3052 -0.6568 -0.2108
C138 C -0.3345(4) -0.6027(4) -0.2326(7)
H103 H -0.3388 -0.6081 -0.2824
C139 C -0.3100(3) -0.6844(3) -0.0410(7)
H104 H -0.3374 -0.6867 -0.0469
C140 C -0.2874(4) -0.7122(4) 0.0063(7)
C141 C -0.2280(3) -0.7274(4) 0.0519(7)
H105 H -0.2010 -0.7212 0.0555
C142 C -0.2419(3) -0.7604(3) 0.0939(7)
H106 H -0.2256 -0.7766 0.1248
C143 C -0.2827(3) -0.7675(4) 0.0859(6)
H107 H -0.2944 -0.7897 0.1122
C144 C -0.3050(4) -0.7443(4) 0.0433(7)
H108 H -0.3322 -0.7497 0.0385
N2 N -0.3514(4) -0.8541(3) -0.6045(6)
N3 N -0.3146(3) -0.7868(3) -0.6294(6)
N4 N -0.1581(2) -0.5301(3) -0.7215(5)
N5 N -0.1078(3) -0.4727(3) -0.7304(6)
N6 N -0.3657(3) -0.8130(3) -0.7403(6)
N7 N -0.3891(3) -0.7461(3) -0.6751(6)
N8 N -0.4689(3) -0.4840(3) -0.4216(7)
N9 N -0.4841(2) -0.4162(3) -0.3601(6)
N10 N -0.3810(3) -0.7871(4) -0.5324(6)
N11 N -0.2145(3) -0.6906(3) -0.1294(5)
N12 N -0.1776(3) -0.6619(3) -0.0184(5)
N13 N -0.0637(2) -0.5027(4) -0.6082(6)
N14 N -0.1357(3) -0.4831(3) -0.5893(6)
N15 N -0.4209(3) -0.4403(3) -0.5313(6)
N16 N -0.4924(3) -0.4209(3) -0.5138(7)
N17 N -0.0836(2) -0.5587(3) -0.7223(5)
N18 N -0.1167(3) -0.5695(3) -0.6020(6)
N19 N -0.2198(2) -0.6037(3) -0.1015(6)
N20 N -0.2440(2) -0.6148(3) 0.0271(5)
N21 N -0.4313(3) -0.3702(3) -0.4509(6)
N22 N -0.4040(3) -0.4309(3) -0.3763(6)
N23 N -0.2888(3) -0.6560(3) -0.0743(5)
N24 N -0.2490(3) -0.7038(3) 0.0075(5)
Fe1 Fe -0.37027(5) -0.80007(6) -0.63627(11)
Fe2 Fe -0.11123(4) -0.51929(6) -0.66125(11)
Fe3 Fe -0.45005(5) -0.42837(6) -0.44128(12)
Fe4 Fe -0.23253(5) -0.65523(5) -0.05009(10)
loop_
_geom_bond_atom_site_label_1
_geom_bond_atom_site_label_2
_geom_bond_site_symmetry_1
_geom_bond_site_symmetry_2
C1 C5 1_555 1_555
C2 H1 1_555 1_555
C3 C2 1_555 1_555
H2 C3 1_555 1_555
C4 C3 1_555 1_555
H3 C4 1_555 1_555
C5 C4 1_555 1_555
H4 C5 1_555 1_555
C6 C1 1_555 1_555
H5 C6 1_555 1_555
C7 C8 1_555 1_555
C8 H6 1_555 1_555
C9 C8 1_555 1_555
H7 C9 1_555 1_555
C10 C9 1_555 1_555
C11 C10 1_555 1_555
H8 C11 1_555 1_555
C12 C7 1_555 1_555
H9 C12 1_555 1_555
C13 C10 1_555 1_555
C14 C13 1_555 1_555
H10 C14 1_555 1_555
C15 C14 1_555 1_555
H11 C15 1_555 1_555
C16 C15 1_555 1_555
C17 C16 1_555 1_555
H12 C17 1_555 1_555
C18 C13 1_555 1_555
H13 C18 1_555 1_555
C19 H14 1_555 1_555
C20 C19 1_555 1_555
C21 H15 1_555 1_555
C22 C21 1_555 1_555
H16 C22 1_555 1_555
C23 C22 1_555 1_555
H17 C23 1_555 1_555
C24 C20 1_555 1_555
H18 C24 1_555 1_555
C25 C29 1_555 1_555
C26 H19 1_555 1_555
C27 C26 1_555 1_555
H20 C27 1_555 1_555
C28 C27 1_555 1_555
H21 C28 1_555 1_555
C29 C28 1_555 1_555
H22 C29 1_555 1_555
C30 C25 1_555 1_555
H23 C30 1_555 1_555
C31 C32 1_555 1_555
C32 H24 1_555 1_555
C33 C32 1_555 1_555
H25 C33 1_555 1_555
C34 C33 1_555 1_555
C35 C34 1_555 1_555
H26 C35 1_555 1_555
C36 C31 1_555 1_555
H27 C36 1_555 1_555
C37 C34 1_555 1_555
C38 C37 1_555 1_555
H28 C38 1_555 1_555
C39 C38 1_555 1_555
H29 C39 1_555 1_555
C40 C39 1_555 1_555
C41 C40 1_555 1_555
H30 C41 1_555 1_555
C42 C37 1_555 1_555
H31 C42 1_555 1_555
C43 H32 1_555 1_555
C44 C43 1_555 1_555
C45 H33 1_555 1_555
C46 C45 1_555 1_555
H34 C46 1_555 1_555
C47 C46 1_555 1_555
H35 C47 1_555 1_555
C48 C44 1_555 1_555
H36 C48 1_555 1_555
C49 N1 1_555 1_555
N1 C50 1_555 1_555
C50 H37 1_555 1_555
C51 C50 1_555 1_555
H38 C51 1_555 1_555
C52 C51 1_555 1_555
H39 C52 1_555 1_555
C53 C49 1_555 1_555
H40 C53 1_555 1_555
C54 C49 1_555 1_555
H41 C54 1_555 1_555
C55 C56 1_555 1_555
C56 H42 1_555 1_555
C57 C56 1_555 1_555
H43 C57 1_555 1_555
C58 C57 1_555 1_555
C59 C58 1_555 1_555
H44 C59 1_555 1_555
C60 C55 1_555 1_555
H45 C60 1_555 1_555
C61 C58 1_555 1_555
C62 C61 1_555 1_555
H46 C62 1_555 1_555
C63 C62 1_555 1_555
H47 C63 1_555 1_555
C64 C63 1_555 1_555
C65 C64 1_555 1_555
H48 C65 1_555 1_555
C66 C61 1_555 1_555
H49 C66 1_555 1_555
C67 H50 1_555 1_555
C68 C67 1_555 1_555
C69 H51 1_555 1_555
C70 C69 1_555 1_555
H52 C70 1_555 1_555
C71 C70 1_555 1_555
H53 C71 1_555 1_555
C72 C68 1_555 1_555
H54 C72 1_555 1_555
C73 C77 1_555 1_555
C74 H55 1_555 1_555
C75 C74 1_555 1_555
H56 C75 1_555 1_555
C76 C75 1_555 1_555
H57 C76 1_555 1_555
C77 C76 1_555 1_555
H58 C77 1_555 1_555
C78 C73 1_555 1_555
H59 C78 1_555 1_555
C79 C80 1_555 1_555
C80 H60 1_555 1_555
C81 C80 1_555 1_555
H61 C81 1_555 1_555
C82 C81 1_555 1_555
C83 C82 1_555 1_555
H62 C83 1_555 1_555
C84 C79 1_555 1_555
H63 C84 1_555 1_555
C85 C82 1_555 1_555
C86 C85 1_555 1_555
H64 C86 1_555 1_555
C87 C86 1_555 1_555
H65 C87 1_555 1_555
C88 C87 1_555 1_555
C89 C88 1_555 1_555
H66 C89 1_555 1_555
C90 C85 1_555 1_555
H67 C90 1_555 1_555
C91 H68 1_555 1_555
C92 C91 1_555 1_555
C93 H69 1_555 1_555
C94 C93 1_555 1_555
H70 C94 1_555 1_555
C95 C94 1_555 1_555
H71 C95 1_555 1_555
C96 C92 1_555 1_555
H72 C96 1_555 1_555
C97 C101 1_555 1_555
C98 H73 1_555 1_555
C99 C98 1_555 1_555
H74 C99 1_555 1_555
C100 C99 1_555 1_555
H75 C100 1_555 1_555
C101 C100 1_555 1_555
H76 C101 1_555 1_555
C102 C97 1_555 1_555
H77 C102 1_555 1_555
C103 C104 1_555 1_555
C104 H78 1_555 1_555
C105 C104 1_555 1_555
H79 C105 1_555 1_555
C106 C105 1_555 1_555
C107 C106 1_555 1_555
H80 C107 1_555 1_555
C108 C103 1_555 1_555
H81 C108 1_555 1_555
C109 C106 1_555 1_555
C110 C109 1_555 1_555
H82 C110 1_555 1_555
C111 C110 1_555 1_555
H83 C111 1_555 1_555
C112 C111 1_555 1_555
C113 C112 1_555 1_555
H84 C113 1_555 1_555
C114 C109 1_555 1_555
H85 C114 1_555 1_555
C115 H86 1_555 1_555
C116 C115 1_555 1_555
C117 H87 1_555 1_555
C118 C117 1_555 1_555
H88 C118 1_555 1_555
C119 C118 1_555 1_555
H89 C119 1_555 1_555
C120 C116 1_555 1_555
H90 C120 1_555 1_555
C121 C125 1_555 1_555
C122 H91 1_555 1_555
C123 C122 1_555 1_555
H92 C123 1_555 1_555
C124 C123 1_555 1_555
H93 C124 1_555 1_555
C125 C124 1_555 1_555
H94 C125 1_555 1_555
C126 C121 1_555 1_555
H95 C126 1_555 1_555
C127 C128 1_555 1_555
C128 H96 1_555 1_555
C129 C128 1_555 1_555
H97 C129 1_555 1_555
C130 C129 1_555 1_555
C131 C130 1_555 1_555
H98 C131 1_555 1_555
C132 C127 1_555 1_555
H99 C132 1_555 1_555
C133 C130 1_555 1_555
C134 C133 1_555 1_555
H100 C134 1_555 1_555
C135 C134 1_555 1_555
H101 C135 1_555 1_555
C136 C135 1_555 1_555
C137 C136 1_555 1_555
H102 C137 1_555 1_555
C138 C133 1_555 1_555
H103 C138 1_555 1_555
C139 H104 1_555 1_555
C140 C139 1_555 1_555
C141 H105 1_555 1_555
C142 C141 1_555 1_555
H106 C142 1_555 1_555
C143 C142 1_555 1_555
H107 C143 1_555 1_555
C144 C140 1_555 1_555
H108 C144 1_555 1_555
N2 C1 1_555 1_555
N3 C6 1_555 1_555
N4 C16 1_555 1_555
N5 C20 1_555 1_555
N6 C25 1_555 1_555
N7 C30 1_555 1_555
N8 C40 1_555 1_555
N9 C44 1_555 1_555
N10 C54 1_555 1_555
N11 C64 1_555 1_555
N12 C68 1_555 1_555
N13 C73 1_555 1_555
N14 C78 1_555 1_555
N15 C88 1_555 1_555
N16 C92 1_555 1_555
N17 C97 1_555 1_555
N18 C102 1_555 1_555
N19 C112 1_555 1_555
N20 C116 1_555 1_555
N21 C121 1_555 1_555
N22 C126 1_555 1_555
N23 C136 1_555 1_555
N24 C140 1_555 1_555
Fe1 N1 1_555 1_555
Fe2 N4 1_555 1_555
Fe3 N8 1_555 1_555
Fe4 N11 1_555 1_555
C145 C146 1_555 1_555
C146 H109 1_555 1_555
H110 C146 1_555 1_555
H111 C146 1_555 1_555
N25 C145 1_555 1_555
C147 C148 1_555 1_555
C148 H112 1_555 1_555
H113 C148 1_555 1_555
H114 C148 1_555 1_555
N26 C147 1_555 1_555
C149 C150 1_555 1_555
C150 H115 1_555 1_555
H116 C150 1_555 1_555
H117 C150 1_555 1_555
N27 C149 1_555 1_555
C151 C152 1_555 1_555
C152 H118 1_555 1_555
H119 C152 1_555 1_555
H120 C152 1_555 1_555
N28 C151 1_555 1_555
C153 C154 1_555 1_555
C154 H121 1_555 1_555
H122 C154 1_555 1_555
H123 C154 1_555 1_555
N29 C153 1_555 1_555
C155 C156 1_555 1_555
C156 H124 1_555 1_555
H125 C156 1_555 1_555
H126 C156 1_555 1_555
N30 C155 1_555 1_555
C157 C158 1_555 1_555
C158 H127 1_555 1_555
H128 C158 1_555 1_555
H129 C158 1_555 1_555
N31 C157 1_555 1_555
C159 C160 1_555 1_555
C160 H130 1_555 1_555
H131 C160 1_555 1_555
H132 C160 1_555 1_555
N32 C159 1_555 1_555
F1 P1 1_555 1_555
F2 P1 1_555 1_555
F3 P1 1_555 1_555
F4 P1 1_555 1_555
F5 P1 1_555 1_555
F6 P1 1_555 1_555
F7 P2 1_555 1_555
F8 P2 1_555 1_555
F9 P2 1_555 1_555
F10 P2 1_555 1_555
F11 P2 1_555 1_555
F12 P2 1_555 1_555
F13 P3 1_555 1_555
F14 P3 1_555 1_555
F15 P3 1_555 1_555
F16 P3 1_555 1_555
F17 P3 1_555 1_555
F18 P3 1_555 1_555
F19 P4 1_555 1_555
F20 P4 1_555 1_555
F21 P4 1_555 1_555
F22 P4 1_555 1_555
F23 P4 1_555 1_555
F24 P4 1_555 1_555
F25 P5 1_555 1_555
F26 P5 1_555 1_555
F27 P5 1_555 1_555
F28 P5 1_555 1_555
F29 P5 1_555 1_555
F30 P5 1_555 1_555
F31 P6 1_555 1_555
F32 P6 1_555 1_555
F33 P6 1_555 1_555
F34 P6 1_555 1_555
F35 P6 1_555 1_555
F36 P6 1_555 1_555
F37 P7 1_555 1_555
F38 P7 1_555 1_555
F39 P7 1_555 1_555
F40 P7 1_555 1_555
F41 P7 1_555 1_555
F42 P7 1_555 1_555
C2 N2 1_555 1_555
C7 N3 1_555 1_555
C11 C12 1_555 1_555
C17 C18 1_555 1_555
C19 N4 1_555 1_555
C21 N5 1_555 1_555
C23 C24 1_555 1_555
C26 N6 1_555 1_555
C31 N7 1_555 1_555
C35 C36 1_555 1_555
C41 C42 1_555 1_555
C43 N8 1_555 1_555
C45 N9 1_555 1_555
C47 C48 1_555 1_555
C52 C53 1_555 1_555
C55 N10 1_555 1_555
C59 C60 1_555 1_555
C65 C66 1_555 1_555
C67 N11 1_555 1_555
C69 N12 1_555 1_555
C71 C72 1_555 1_555
C74 N13 1_555 1_555
C79 N14 1_555 1_555
C83 C84 1_555 1_555
C89 C90 1_555 1_555
C91 N15 1_555 1_555
C93 N16 1_555 1_555
C95 C96 1_555 1_555
C98 N17 1_555 1_555
C103 N18 1_555 1_555
C107 C108 1_555 1_555
C113 C114 1_555 1_555
C115 N19 1_555 1_555
C117 N20 1_555 1_555
C119 C120 1_555 1_555
C122 N21 1_555 1_555
C127 N22 1_555 1_555
C131 C132 1_555 1_555
C137 C138 1_555 1_555
C139 N23 1_555 1_555
C141 N24 1_555 1_555
C143 C144 1_555 1_555
N2 Fe1 1_555 1_555
N3 Fe1 1_555 1_555
N5 Fe2 1_555 1_555
N6 Fe1 1_555 1_555
N7 Fe1 1_555 1_555
N9 Fe3 1_555 1_555
N10 Fe1 1_555 1_555
N12 Fe4 1_555 1_555
N13 Fe2 1_555 1_555
N14 Fe2 1_555 1_555
N15 Fe3 1_555 1_555
N16 Fe3 1_555 1_555
N17 Fe2 1_555 1_555
N18 Fe2 1_555 1_555
N19 Fe4 1_555 1_555
N20 Fe4 1_555 1_555
N21 Fe3 1_555 1_555
N22 Fe3 1_555 1_555
N23 Fe4 1_555 1_555
N24 Fe4 1_555 1_555

#END
