# generated using pymatgen
data_Fe4H117C152S3N27Cl5(O13F3)2
_symmetry_space_group_name_H-M   'P 1'
_cell_length_a   18.46990000
_cell_length_b   19.72830438
_cell_length_c   54.20740000
_cell_angle_alpha   95.62467516
_cell_angle_beta   90.00000000
_cell_angle_gamma   117.91146356
_symmetry_Int_Tables_number   1
_chemical_formula_structural   Fe4H117C152S3N27Cl5(O13F3)2
_chemical_formula_sum   'Fe16 H468 C608 S12 N108 Cl20 O104 F24'
_cell_volume   17346.66861204
_cell_formula_units_Z   4
loop_
 _symmetry_equiv_pos_site_id
 _symmetry_equiv_pos_as_xyz
  1  'x, y, z'
loop_
 _atom_site_type_symbol
 _atom_site_label
 _atom_site_symmetry_multiplicity
 _atom_site_fract_x
 _atom_site_fract_y
 _atom_site_fract_z
 _atom_site_occupancy
  C  C1  1  0.538600  0.255800  0.843400  1
  C  C2  1  0.282800  0.744200  0.656600  1
  C  C3  1  0.461400  0.744200  0.156600  1
  C  C4  1  0.717200  0.255800  0.343400  1
  C  C5  1  0.294800  0.977400  0.965000  1
  C  C6  1  0.317400  0.022600  0.535000  1
  C  C7  1  0.705200  0.022600  0.035000  1
  C  C8  1  0.682600  0.977400  0.465000  1
  C  C9  1  0.590400  0.092800  0.981800  1
  C  C10  1  0.497600  0.907200  0.518200  1
  C  C11  1  0.409600  0.907200  0.018200  1
  C  C12  1  0.502400  0.092800  0.481800  1
  C  C13  1  0.602100  0.026800  0.968100  1
  C  C14  1  0.575300  0.973200  0.531900  1
  C  C15  1  0.397900  0.973200  0.031900  1
  C  C16  1  0.424700  0.026800  0.468100  1
  C  C17  1  0.786700  0.577800  0.620300  1
  C  C18  1  0.208900  0.422200  0.879700  1
  C  C19  1  0.213300  0.422200  0.379700  1
  C  C20  1  0.791100  0.577800  0.120300  1
  C  C21  1  0.707500  0.583800  0.615900  1
  C  C22  1  0.123700  0.416200  0.884100  1
  C  C23  1  0.292500  0.416200  0.384100  1
  C  C24  1  0.876300  0.583800  0.115900  1
  C  C25  1  0.867400  0.723000  0.762500  1
  C  C26  1  0.144400  0.277000  0.737500  1
  C  C27  1  0.132600  0.277000  0.237500  1
  C  C28  1  0.855600  0.723000  0.262500  1
  C  C29  1  0.890000  0.803400  0.775200  1
  C  C30  1  0.086600  0.196600  0.724800  1
  C  C31  1  0.110000  0.196600  0.224800  1
  C  C32  1  0.913400  0.803400  0.275200  1
  C  C33  1  0.817000  0.303600  0.960880  1
  C  C34  1  0.513400  0.696400  0.539120  1
  C  C35  1  0.183000  0.696400  0.039120  1
  C  C36  1  0.486600  0.303600  0.460880  1
  C  C37  1  0.770700  0.342600  0.995420  1
  C  C38  1  0.428100  0.657400  0.504580  1
  C  C39  1  0.229300  0.657400  0.004580  1
  C  C40  1  0.571900  0.342600  0.495420  1
  C  C41  1  0.782300  0.290400  0.008950  1
  C  C42  1  0.491900  0.709600  0.491050  1
  C  C43  1  0.217700  0.709600  0.991050  1
  C  C44  1  0.508100  0.290400  0.508950  1
  C  C45  1  0.809300  0.245000  0.997100  1
  C  C46  1  0.564300  0.755000  0.502900  1
  C  C47  1  0.190700  0.755000  0.002900  1
  C  C48  1  0.435700  0.245000  0.497100  1
  C  C49  1  0.829300  0.252000  0.972400  1
  C  C50  1  0.577300  0.748000  0.527600  1
  C  C51  1  0.170700  0.748000  0.027600  1
  C  C52  1  0.422700  0.252000  0.472400  1
  C  C53  1  0.836100  0.318000  0.934740  1
  C  C54  1  0.518100  0.682000  0.565260  1
  C  C55  1  0.163900  0.682000  0.065260  1
  C  C56  1  0.481900  0.318000  0.434740  1
  C  C57  1  0.838400  0.384200  0.901190  1
  C  C58  1  0.454200  0.615800  0.598810  1
  C  C59  1  0.161600  0.615800  0.098810  1
  C  C60  1  0.545800  0.384200  0.401190  1
  C  C61  1  0.776500  0.357000  0.882900  1
  C  C62  1  0.419500  0.643000  0.617100  1
  C  C63  1  0.223500  0.643000  0.117100  1
  C  C64  1  0.580500  0.357000  0.382900  1
  C  C65  1  0.794900  0.373200  0.858870  1
  C  C66  1  0.421700  0.626800  0.641130  1
  C  C67  1  0.205100  0.626800  0.141130  1
  C  C68  1  0.578300  0.373200  0.358870  1
  C  C69  1  0.875800  0.419200  0.853050  1
  C  C70  1  0.456600  0.580800  0.646950  1
  C  C71  1  0.124200  0.580800  0.146950  1
  C  C72  1  0.543400  0.419200  0.353050  1
  C  C73  1  0.937500  0.444800  0.871510  1
  C  C74  1  0.492700  0.555200  0.628490  1
  C  C75  1  0.062500  0.555200  0.128490  1
  C  C76  1  0.507300  0.444800  0.371510  1
  C  C77  1  0.920700  0.428600  0.895570  1
  C  C78  1  0.492100  0.571400  0.604430  1
  C  C79  1  0.079300  0.571400  0.104430  1
  C  C80  1  0.507900  0.428600  0.395570  1
  C  C81  1  0.897200  0.440200  0.827200  1
  C  C82  1  0.457000  0.559800  0.672800  1
  C  C83  1  0.102800  0.559800  0.172800  1
  C  C84  1  0.543000  0.440200  0.327200  1
  C  C85  1  0.859800  0.386800  0.805770  1
  C  C86  1  0.473000  0.613200  0.694230  1
  C  C87  1  0.140200  0.613200  0.194230  1
  C  C88  1  0.527000  0.386800  0.305770  1
  C  C89  1  0.882300  0.406800  0.783100  1
  C  C90  1  0.475500  0.593200  0.716900  1
  C  C91  1  0.117700  0.593200  0.216900  1
  C  C92  1  0.524500  0.406800  0.283100  1
  C  C93  1  0.940000  0.479800  0.779240  1
  C  C94  1  0.460200  0.520200  0.720760  1
  C  C95  1  0.060000  0.520200  0.220760  1
  C  C96  1  0.539800  0.479800  0.279240  1
  C  C97  1  0.973600  0.535800  0.799630  1
  C  C98  1  0.437800  0.464200  0.700370  1
  C  C99  1  0.026400  0.464200  0.200370  1
  C  C100  1  0.562200  0.535800  0.299630  1
  C  C101  1  0.953200  0.514400  0.823430  1
  C  C102  1  0.438800  0.485600  0.676570  1
  C  C103  1  0.046800  0.485600  0.176570  1
  C  C104  1  0.561200  0.514400  0.323430  1
  C  C105  1  0.919500  0.526600  0.743630  1
  C  C106  1  0.392900  0.473400  0.756370  1
  C  C107  1  0.080500  0.473400  0.256370  1
  C  C108  1  0.607100  0.526600  0.243630  1
  C  C109  1  0.933800  0.537800  0.717650  1
  C  C110  1  0.396000  0.462200  0.782350  1
  C  C111  1  0.066200  0.462200  0.282350  1
  C  C112  1  0.604000  0.537800  0.217650  1
  C  C113  1  0.006600  0.524400  0.684440  1
  C  C114  1  0.482200  0.475600  0.815560  1
  C  C115  1  0.993400  0.475600  0.315560  1
  C  C116  1  0.517800  0.524400  0.184440  1
  C  C117  1  0.971200  0.557600  0.670110  1
  C  C118  1  0.413600  0.442400  0.829890  1
  C  C119  1  0.028800  0.442400  0.329890  1
  C  C120  1  0.586400  0.557600  0.170110  1
  C  C121  1  0.916500  0.578800  0.679360  1
  C  C122  1  0.337700  0.421200  0.820640  1
  C  C123  1  0.083500  0.421200  0.320640  1
  C  C124  1  0.662300  0.578800  0.179360  1
  C  C125  1  0.896800  0.568400  0.704020  1
  C  C126  1  0.328400  0.431600  0.795980  1
  C  C127  1  0.103200  0.431600  0.295980  1
  C  C128  1  0.671600  0.568400  0.204020  1
  C  C129  1  0.790200  0.533800  0.987680  1
  C  C130  1  0.256400  0.466200  0.512320  1
  C  C131  1  0.209800  0.466200  0.012320  1
  C  C132  1  0.743600  0.533800  0.487680  1
  C  C133  1  0.652700  0.443600  0.982700  1
  C  C134  1  0.209100  0.556400  0.517300  1
  C  C135  1  0.347300  0.556400  0.017300  1
  C  C136  1  0.790900  0.443600  0.482700  1
  C  C137  1  0.633000  0.487000  0.000380  1
  C  C138  1  0.146000  0.513000  0.499620  1
  C  C139  1  0.367000  0.513000  0.999620  1
  C  C140  1  0.854000  0.487000  0.500380  1
  C  C141  1  0.692600  0.555000  0.012040  1
  C  C142  1  0.137600  0.445000  0.487960  1
  C  C143  1  0.307400  0.445000  0.987960  1
  C  C144  1  0.862400  0.555000  0.512040  1
  C  C145  1  0.773000  0.578800  0.005560  1
  C  C146  1  0.194200  0.421200  0.494440  1
  C  C147  1  0.227000  0.421200  0.994440  1
  C  C148  1  0.805800  0.578800  0.505560  1
  C  C149  1  0.871700  0.552600  0.980200  1
  C  C150  1  0.319100  0.447400  0.519800  1
  C  C151  1  0.128300  0.447400  0.019800  1
  C  C152  1  0.680900  0.552600  0.480200  1
  C  C153  1  0.959100  0.523000  0.956040  1
  C  C154  1  0.436100  0.477000  0.543960  1
  C  C155  1  0.040900  0.477000  0.043960  1
  C  C156  1  0.563900  0.523000  0.456040  1
  C  C157  1  0.994600  0.478600  0.962300  1
  C  C158  1  0.516000  0.521400  0.537700  1
  C  C159  1  0.005400  0.521400  0.037700  1
  C  C160  1  0.484000  0.478600  0.462300  1
  C  C161  1  0.073700  0.497800  0.955490  1
  C  C162  1  0.575900  0.502200  0.544510  1
  C  C163  1  0.926300  0.502200  0.044510  1
  C  C164  1  0.424100  0.497800  0.455490  1
  C  C165  1  0.117500  0.560200  0.942100  1
  C  C166  1  0.557300  0.439800  0.557900  1
  C  C167  1  0.882500  0.439800  0.057900  1
  C  C168  1  0.442700  0.560200  0.442100  1
  C  C169  1  0.080500  0.604400  0.936310  1
  C  C170  1  0.476100  0.395600  0.563690  1
  C  C171  1  0.919500  0.395600  0.063690  1
  C  C172  1  0.523900  0.604400  0.436310  1
  C  C173  1  0.002500  0.586600  0.942690  1
  C  C174  1  0.415900  0.413400  0.557310  1
  C  C175  1  0.997500  0.413400  0.057310  1
  C  C176  1  0.584100  0.586600  0.442690  1
  C  C177  1  0.201000  0.577800  0.934500  1
  C  C178  1  0.623200  0.422200  0.565500  1
  C  C179  1  0.799000  0.422200  0.065500  1
  C  C180  1  0.376800  0.577800  0.434500  1
  C  C181  1  0.255200  0.564800  0.947930  1
  C  C182  1  0.690400  0.435200  0.552070  1
  C  C183  1  0.744800  0.435200  0.052070  1
  C  C184  1  0.309600  0.564800  0.447930  1
  C  C185  1  0.333500  0.585000  0.941030  1
  C  C186  1  0.748500  0.415000  0.558970  1
  C  C187  1  0.666500  0.415000  0.058970  1
  C  C188  1  0.251500  0.585000  0.441030  1
  C  C189  1  0.360800  0.620200  0.918800  1
  C  C190  1  0.740600  0.379800  0.581200  1
  C  C191  1  0.639200  0.379800  0.081200  1
  C  C192  1  0.259400  0.620200  0.418800  1
  C  C193  1  0.308400  0.633400  0.904780  1
  C  C194  1  0.675000  0.366600  0.595220  1
  C  C195  1  0.691600  0.366600  0.095220  1
  C  C196  1  0.325000  0.633400  0.404780  1
  C  C197  1  0.230900  0.612200  0.912020  1
  C  C198  1  0.618700  0.387800  0.587980  1
  C  C199  1  0.769100  0.387800  0.087980  1
  C  C200  1  0.381300  0.612200  0.412020  1
  C  C201  1  0.456800  0.586000  0.903230  1
  C  C202  1  0.870800  0.414000  0.596770  1
  C  C203  1  0.543200  0.414000  0.096770  1
  C  C204  1  0.129200  0.586000  0.403230  1
  C  C205  1  0.537800  0.605000  0.896790  1
  C  C206  1  0.932800  0.395000  0.603210  1
  C  C207  1  0.462200  0.395000  0.103210  1
  C  C208  1  0.067200  0.605000  0.396790  1
  C  C209  1  0.668400  0.705000  0.895930  1
  C  C210  1  0.963400  0.295000  0.604070  1
  C  C211  1  0.331600  0.295000  0.104070  1
  C  C212  1  0.036600  0.705000  0.395930  1
  C  C213  1  0.696500  0.658200  0.882540  1
  C  C214  1  0.038300  0.341800  0.617460  1
  C  C215  1  0.303500  0.341800  0.117460  1
  C  C216  1  0.961700  0.658200  0.382540  1
  C  C217  1  0.644200  0.582000  0.878050  1
  C  C218  1  0.062200  0.418000  0.621950  1
  C  C219  1  0.355800  0.418000  0.121950  1
  C  C220  1  0.937800  0.582000  0.378050  1
  C  C221  1  0.561600  0.554000  0.884870  1
  C  C222  1  0.007600  0.446000  0.615130  1
  C  C223  1  0.438400  0.446000  0.115130  1
  C  C224  1  0.992400  0.554000  0.384870  1
  C  C225  1  0.622100  0.359200  0.923430  1
  C  C226  1  0.262900  0.640800  0.576570  1
  C  C227  1  0.377900  0.640800  0.076570  1
  C  C228  1  0.737100  0.359200  0.423430  1
  C  C229  1  0.618400  0.266400  0.947210  1
  C  C230  1  0.352000  0.733600  0.552790  1
  C  C231  1  0.381600  0.733600  0.052790  1
  C  C232  1  0.648000  0.266400  0.447210  1
  C  C233  1  0.536000  0.217000  0.939940  1
  C  C234  1  0.319000  0.783000  0.560060  1
  C  C235  1  0.464000  0.783000  0.060060  1
  C  C236  1  0.681000  0.217000  0.439940  1
  C  C237  1  0.495300  0.240600  0.924100  1
  C  C238  1  0.254700  0.759400  0.575900  1
  C  C239  1  0.504700  0.759400  0.075900  1
  C  C240  1  0.745300  0.240600  0.424100  1
  C  C241  1  0.538200  0.310200  0.915740  1
  C  C242  1  0.228000  0.689800  0.584260  1
  C  C243  1  0.461800  0.689800  0.084260  1
  C  C244  1  0.772000  0.310200  0.415740  1
  C  C245  1  0.670100  0.434000  0.916390  1
  C  C246  1  0.236100  0.566000  0.583610  1
  C  C247  1  0.329900  0.566000  0.083610  1
  C  C248  1  0.763900  0.434000  0.416390  1
  C  C249  1  0.793200  0.550200  0.920070  1
  C  C250  1  0.243000  0.449800  0.579930  1
  C  C251  1  0.206800  0.449800  0.079930  1
  C  C252  1  0.757000  0.550200  0.420070  1
  C  C253  1  0.787300  0.610400  0.933470  1
  C  C254  1  0.176900  0.389600  0.566530  1
  C  C255  1  0.212700  0.389600  0.066530  1
  C  C256  1  0.823100  0.610400  0.433470  1
  C  C257  1  0.834800  0.684800  0.928190  1
  C  C258  1  0.150000  0.315200  0.571810  1
  C  C259  1  0.165200  0.315200  0.071810  1
  C  C260  1  0.850000  0.684800  0.428190  1
  C  C261  1  0.891100  0.702400  0.909740  1
  C  C262  1  0.188700  0.297600  0.590260  1
  C  C263  1  0.108900  0.297600  0.090260  1
  C  C264  1  0.811300  0.702400  0.409740  1
  C  C265  1  0.896900  0.641400  0.896430  1
  C  C266  1  0.255500  0.358600  0.603570  1
  C  C267  1  0.103100  0.358600  0.103570  1
  C  C268  1  0.744500  0.641400  0.396430  1
  C  C269  1  0.848100  0.564800  0.901490  1
  C  C270  1  0.283300  0.435200  0.598510  1
  C  C271  1  0.151900  0.435200  0.098510  1
  C  C272  1  0.716700  0.564800  0.401490  1
  C  C273  1  0.945500  0.783400  0.905230  1
  C  C274  1  0.162100  0.216600  0.594770  1
  C  C275  1  0.054500  0.216600  0.094770  1
  C  C276  1  0.837900  0.783400  0.405230  1
  C  C277  1  0.917200  0.834200  0.901380  1
  C  C278  1  0.083000  0.165800  0.598620  1
  C  C279  1  0.082800  0.165800  0.098620  1
  C  C280  1  0.917000  0.834200  0.401380  1
  C  C281  1  0.968800  0.910000  0.896080  1
  C  C282  1  0.058800  0.090000  0.603920  1
  C  C283  1  0.031200  0.090000  0.103920  1
  C  C284  1  0.941200  0.910000  0.396080  1
  C  C285  1  0.052500  0.936600  0.896920  1
  C  C286  1  0.115900  0.063400  0.603080  1
  C  C287  1  0.947500  0.063400  0.103080  1
  C  C288  1  0.884100  0.936600  0.396920  1
  C  C289  1  0.084100  0.886200  0.901970  1
  C  C290  1  0.197900  0.113800  0.598030  1
  C  C291  1  0.915900  0.113800  0.098030  1
  C  C292  1  0.802100  0.886200  0.401970  1
  C  C293  1  0.030700  0.811800  0.905290  1
  C  C294  1  0.218900  0.188200  0.594710  1
  C  C295  1  0.969300  0.188200  0.094710  1
  C  C296  1  0.781100  0.811800  0.405290  1
  C  C297  1  0.153500  0.055000  0.912390  1
  C  C298  1  0.098500  0.945000  0.587610  1
  C  C299  1  0.846500  0.945000  0.087610  1
  C  C300  1  0.901500  0.055000  0.412390  1
  C  C301  1  0.205200  0.137200  0.911050  1
  C  C302  1  0.068000  0.862800  0.588950  1
  C  C303  1  0.794800  0.862800  0.088950  1
  C  C304  1  0.932000  0.137200  0.411050  1
  C  C305  1  0.238400  0.235200  0.885900  1
  C  C306  1  0.003200  0.764800  0.614100  1
  C  C307  1  0.761600  0.764800  0.114100  1
  C  C308  1  0.996800  0.235200  0.385900  1
  C  C309  1  0.294300  0.289200  0.904100  1
  C  C310  1  0.005100  0.710800  0.595900  1
  C  C311  1  0.705700  0.710800  0.095900  1
  C  C312  1  0.994900  0.289200  0.404100  1
  C  C313  1  0.307100  0.266400  0.925860  1
  C  C314  1  0.040700  0.733600  0.574140  1
  C  C315  1  0.692900  0.733600  0.074140  1
  C  C316  1  0.959300  0.266400  0.425860  1
  C  C317  1  0.261100  0.188200  0.929600  1
  C  C318  1  0.072900  0.811800  0.570400  1
  C  C319  1  0.738900  0.811800  0.070400  1
  C  C320  1  0.927100  0.188200  0.429600  1
  C  C321  1  0.974300  0.330000  0.746180  1
  C  C322  1  0.644300  0.670000  0.753820  1
  C  C323  1  0.025700  0.670000  0.253820  1
  C  C324  1  0.355700  0.330000  0.246180  1
  C  C325  1  0.900200  0.333200  0.712400  1
  C  C326  1  0.567000  0.666800  0.787600  1
  C  C327  1  0.099800  0.666800  0.287600  1
  C  C328  1  0.433000  0.333200  0.212400  1
  C  C329  1  0.848700  0.258200  0.711100  1
  C  C330  1  0.590500  0.741800  0.788900  1
  C  C331  1  0.151300  0.741800  0.288900  1
  C  C332  1  0.409500  0.258200  0.211100  1
  C  C333  1  0.856200  0.217600  0.727900  1
  C  C334  1  0.638600  0.782400  0.772100  1
  C  C335  1  0.143800  0.782400  0.272100  1
  C  C336  1  0.361400  0.217600  0.227900  1
  C  C337  1  0.920300  0.251400  0.745300  1
  C  C338  1  0.668900  0.748600  0.754700  1
  C  C339  1  0.079700  0.748600  0.254700  1
  C  C340  1  0.331100  0.251400  0.245300  1
  C  C341  1  0.043500  0.378200  0.763430  1
  C  C342  1  0.665300  0.621800  0.736570  1
  C  C343  1  0.956500  0.621800  0.236570  1
  C  C344  1  0.334700  0.378200  0.263430  1
  C  C345  1  0.152000  0.495600  0.777950  1
  C  C346  1  0.656400  0.504400  0.722050  1
  C  C347  1  0.848000  0.504400  0.222050  1
  C  C348  1  0.343600  0.495600  0.277950  1
  C  C349  1  0.137300  0.503800  0.803170  1
  C  C350  1  0.633500  0.496200  0.696830  1
  C  C351  1  0.862700  0.496200  0.196830  1
  C  C352  1  0.366500  0.503800  0.303170  1
  C  C353  1  0.203800  0.553600  0.819490  1
  C  C354  1  0.650200  0.446400  0.680510  1
  C  C355  1  0.796200  0.446400  0.180510  1
  C  C356  1  0.349800  0.553600  0.319490  1
  C  C357  1  0.282900  0.593800  0.811860  1
  C  C358  1  0.689100  0.406200  0.688140  1
  C  C359  1  0.717100  0.406200  0.188140  1
  C  C360  1  0.310900  0.593800  0.311860  1
  C  C361  1  0.296000  0.583000  0.786290  1
  C  C362  1  0.713000  0.417000  0.713710  1
  C  C363  1  0.704000  0.417000  0.213710  1
  C  C364  1  0.287000  0.583000  0.286290  1
  C  C365  1  0.230800  0.533600  0.769500  1
  C  C366  1  0.697200  0.466400  0.730500  1
  C  C367  1  0.769200  0.466400  0.230500  1
  C  C368  1  0.302800  0.533600  0.269500  1
  C  C369  1  0.352500  0.646000  0.829330  1
  C  C370  1  0.706500  0.354000  0.670670  1
  C  C371  1  0.647500  0.354000  0.170670  1
  C  C372  1  0.293500  0.646000  0.329330  1
  C  C373  1  0.418100  0.630000  0.832600  1
  C  C374  1  0.788100  0.370000  0.667400  1
  C  C375  1  0.581900  0.370000  0.167400  1
  C  C376  1  0.211900  0.630000  0.332600  1
  C  C377  1  0.480100  0.673400  0.850120  1
  C  C378  1  0.806700  0.326600  0.649880  1
  C  C379  1  0.519900  0.326600  0.149880  1
  C  C380  1  0.193300  0.673400  0.350120  1
  C  C381  1  0.477700  0.734200  0.864270  1
  C  C382  1  0.743500  0.265800  0.635730  1
  C  C383  1  0.522300  0.265800  0.135730  1
  C  C384  1  0.256500  0.734200  0.364270  1
  C  C385  1  0.415900  0.753000  0.860600  1
  C  C386  1  0.662900  0.247000  0.639400  1
  C  C387  1  0.584100  0.247000  0.139400  1
  C  C388  1  0.337100  0.753000  0.360600  1
  C  C389  1  0.353900  0.708400  0.843360  1
  C  C390  1  0.645500  0.291600  0.656640  1
  C  C391  1  0.646100  0.291600  0.156640  1
  C  C392  1  0.354500  0.708400  0.343360  1
  C  C393  1  0.605600  0.836400  0.879940  1
  C  C394  1  0.769200  0.163600  0.620060  1
  C  C395  1  0.394400  0.163600  0.120060  1
  C  C396  1  0.230800  0.836400  0.379940  1
  C  C397  1  0.666500  0.877400  0.900310  1
  C  C398  1  0.789100  0.122600  0.599690  1
  C  C399  1  0.333500  0.122600  0.099690  1
  C  C400  1  0.210900  0.877400  0.400310  1
  C  C401  1  0.694400  0.875200  0.941710  1
  C  C402  1  0.819200  0.124800  0.558290  1
  C  C403  1  0.305600  0.124800  0.058290  1
  C  C404  1  0.180800  0.875200  0.441710  1
  C  C405  1  0.765700  0.946200  0.941300  1
  C  C406  1  0.819500  0.053800  0.558700  1
  C  C407  1  0.234300  0.053800  0.058700  1
  C  C408  1  0.180500  0.946200  0.441300  1
  C  C409  1  0.785500  0.980000  0.920400  1
  C  C410  1  0.805500  0.020000  0.579600  1
  C  C411  1  0.214500  0.020000  0.079600  1
  C  C412  1  0.194500  0.980000  0.420400  1
  C  C413  1  0.735400  0.945600  0.899470  1
  C  C414  1  0.789800  0.054400  0.600530  1
  C  C415  1  0.264600  0.054400  0.100530  1
  C  C416  1  0.210200  0.945600  0.399470  1
  C  C417  1  0.184100  0.539400  0.707120  1
  C  C418  1  0.644700  0.460600  0.792880  1
  C  C419  1  0.815900  0.460600  0.292880  1
  C  C420  1  0.355300  0.539400  0.207120  1
  C  C421  1  0.110900  0.408200  0.697180  1
  C  C422  1  0.702700  0.591800  0.802820  1
  C  C423  1  0.889100  0.591800  0.302820  1
  C  C424  1  0.297300  0.408200  0.197180  1
  C  C425  1  0.169100  0.409600  0.680780  1
  C  C426  1  0.759500  0.590400  0.819220  1
  C  C427  1  0.830900  0.590400  0.319220  1
  C  C428  1  0.240500  0.409600  0.180780  1
  C  C429  1  0.235300  0.477200  0.677620  1
  C  C430  1  0.758100  0.522800  0.822380  1
  C  C431  1  0.764700  0.522800  0.322380  1
  C  C432  1  0.241900  0.477200  0.177620  1
  C  C433  1  0.245000  0.543600  0.691100  1
  C  C434  1  0.701400  0.456400  0.808900  1
  C  C435  1  0.755000  0.456400  0.308900  1
  C  C436  1  0.298600  0.543600  0.191100  1
  C  C437  1  0.188300  0.605600  0.722030  1
  C  C438  1  0.582700  0.394400  0.777970  1
  C  C439  1  0.811700  0.394400  0.277970  1
  C  C440  1  0.417300  0.605600  0.222030  1
  C  C441  1  0.128000  0.655400  0.751910  1
  C  C442  1  0.472600  0.344600  0.748090  1
  C  C443  1  0.872000  0.344600  0.248090  1
  C  C444  1  0.527400  0.655400  0.251910  1
  C  C445  1  0.151100  0.668200  0.776610  1
  C  C446  1  0.482900  0.331800  0.723390  1
  C  C447  1  0.848900  0.331800  0.223390  1
  C  C448  1  0.517100  0.668200  0.276610  1
  C  C449  1  0.140900  0.725200  0.791060  1
  C  C450  1  0.415700  0.274800  0.708940  1
  C  C451  1  0.859100  0.274800  0.208940  1
  C  C452  1  0.584300  0.725200  0.291060  1
  C  C453  1  0.112100  0.769800  0.781040  1
  C  C454  1  0.342300  0.230200  0.718960  1
  C  C455  1  0.887900  0.230200  0.218960  1
  C  C456  1  0.657700  0.769800  0.281040  1
  C  C457  1  0.093400  0.756800  0.755390  1
  C  C458  1  0.336600  0.243200  0.744610  1
  C  C459  1  0.906600  0.243200  0.244610  1
  C  C460  1  0.663400  0.756800  0.255390  1
  C  C461  1  0.101200  0.700000  0.741020  1
  C  C462  1  0.401200  0.300000  0.758980  1
  C  C463  1  0.898800  0.300000  0.258980  1
  C  C464  1  0.598800  0.700000  0.241020  1
  C  C465  1  0.094800  0.826000  0.797100  1
  C  C466  1  0.268800  0.174000  0.702900  1
  C  C467  1  0.905200  0.174000  0.202900  1
  C  C468  1  0.731200  0.826000  0.297100  1
  C  C469  1  0.049800  0.804800  0.817470  1
  C  C470  1  0.245000  0.195200  0.682530  1
  C  C471  1  0.950200  0.195200  0.182530  1
  C  C472  1  0.755000  0.804800  0.317470  1
  C  C473  1  0.030500  0.854400  0.832480  1
  C  C474  1  0.176100  0.145600  0.667520  1
  C  C475  1  0.969500  0.145600  0.167520  1
  C  C476  1  0.823900  0.854400  0.332480  1
  C  C477  1  0.061300  0.930400  0.826850  1
  C  C478  1  0.130900  0.069600  0.673150  1
  C  C479  1  0.938700  0.069600  0.173150  1
  C  C480  1  0.869100  0.930400  0.326850  1
  C  C481  1  0.108800  0.954800  0.806630  1
  C  C482  1  0.154000  0.045200  0.693370  1
  C  C483  1  0.891200  0.045200  0.193370  1
  C  C484  1  0.846000  0.954800  0.306630  1
  C  C485  1  0.123100  0.901400  0.791630  1
  C  C486  1  0.221700  0.098600  0.708370  1
  C  C487  1  0.876900  0.098600  0.208370  1
  C  C488  1  0.778300  0.901400  0.291630  1
  C  C489  1  0.972900  0.975600  0.840270  1
  C  C490  1  0.997300  0.024400  0.659730  1
  C  C491  1  0.027100  0.024400  0.159730  1
  C  C492  1  0.002700  0.975600  0.340270  1
  C  C493  1  0.956600  0.031200  0.855330  1
  C  C494  1  0.925400  0.968800  0.644670  1
  C  C495  1  0.043400  0.968800  0.144670  1
  C  C496  1  0.074600  0.031200  0.355330  1
  C  C497  1  0.014100  0.136400  0.884970  1
  C  C498  1  0.877700  0.863600  0.615030  1
  C  C499  1  0.985900  0.863600  0.115030  1
  C  C500  1  0.122300  0.136400  0.384970  1
  C  C501  1  0.941500  0.143200  0.884780  1
  C  C502  1  0.798300  0.856800  0.615220  1
  C  C503  1  0.058500  0.856800  0.115220  1
  C  C504  1  0.201700  0.143200  0.384780  1
  C  C505  1  0.876500  0.093400  0.869520  1
  C  C506  1  0.783100  0.906600  0.630480  1
  C  C507  1  0.123500  0.906600  0.130480  1
  C  C508  1  0.216900  0.093400  0.369520  1
  C  C509  1  0.882100  0.035000  0.854360  1
  C  C510  1  0.847100  0.965000  0.645640  1
  C  C511  1  0.117900  0.965000  0.145640  1
  C  C512  1  0.152900  0.035000  0.354360  1
  C  C513  1  0.587000  0.684000  0.960360  1
  C  C514  1  0.903000  0.316000  0.539640  1
  C  C515  1  0.413000  0.316000  0.039640  1
  C  C516  1  0.097000  0.684000  0.460360  1
  C  C517  1  0.514500  0.753200  0.968690  1
  C  C518  1  0.761300  0.246800  0.531310  1
  C  C519  1  0.485500  0.246800  0.031310  1
  C  C520  1  0.238700  0.753200  0.468690  1
  C  C521  1  0.516500  0.748000  0.993560  1
  C  C522  1  0.768500  0.252000  0.506440  1
  C  C523  1  0.483500  0.252000  0.006440  1
  C  C524  1  0.231500  0.748000  0.493560  1
  C  C525  1  0.553400  0.707400  0.002140  1
  C  C526  1  0.846000  0.292600  0.497860  1
  C  C527  1  0.446600  0.292600  0.997860  1
  C  C528  1  0.154000  0.707400  0.502140  1
  C  C529  1  0.588600  0.675800  0.985860  1
  C  C530  1  0.912800  0.324200  0.514140  1
  C  C531  1  0.411400  0.324200  0.014140  1
  C  C532  1  0.087200  0.675800  0.485860  1
  C  C533  1  0.479000  0.794200  0.957300  1
  C  C534  1  0.684800  0.205800  0.542700  1
  C  C535  1  0.521000  0.205800  0.042700  1
  C  C536  1  0.315200  0.794200  0.457300  1
  C  C537  1  0.450000  0.841400  0.922860  1
  C  C538  1  0.608600  0.158600  0.577140  1
  C  C539  1  0.550000  0.158600  0.077140  1
  C  C540  1  0.391400  0.841400  0.422860  1
  C  C541  1  0.367600  0.816400  0.922670  1
  C  C542  1  0.551200  0.183600  0.577330  1
  C  C543  1  0.632400  0.183600  0.077330  1
  C  C544  1  0.448800  0.816400  0.422670  1
  C  C545  1  0.332300  0.855200  0.910970  1
  C  C546  1  0.477100  0.144800  0.589030  1
  C  C547  1  0.667700  0.144800  0.089030  1
  C  C548  1  0.522900  0.855200  0.410970  1
  C  C549  1  0.384400  0.923000  0.900350  1
  C  C550  1  0.461400  0.077000  0.599650  1
  C  C551  1  0.615600  0.077000  0.099650  1
  C  C552  1  0.538600  0.923000  0.400350  1
  C  C553  1  0.466100  0.948200  0.901840  1
  C  C554  1  0.517900  0.051800  0.598160  1
  C  C555  1  0.533900  0.051800  0.098160  1
  C  C556  1  0.482100  0.948200  0.401840  1
  C  C557  1  0.501100  0.909400  0.912450  1
  C  C558  1  0.591700  0.090600  0.587550  1
  C  C559  1  0.498900  0.090600  0.087550  1
  C  C560  1  0.408300  0.909400  0.412450  1
  C  C561  1  0.345200  0.964000  0.887920  1
  C  C562  1  0.381200  0.036000  0.612080  1
  C  C563  1  0.654800  0.036000  0.112080  1
  C  C564  1  0.618800  0.964000  0.387920  1
  C  C565  1  0.269500  0.919400  0.874630  1
  C  C566  1  0.350100  0.080600  0.625370  1
  C  C567  1  0.730500  0.080600  0.125370  1
  C  C568  1  0.649900  0.919400  0.374630  1
  C  C569  1  0.232500  0.956200  0.863790  1
  C  C570  1  0.276300  0.043800  0.636210  1
  C  C571  1  0.767500  0.043800  0.136210  1
  C  C572  1  0.723700  0.956200  0.363790  1
  C  C573  1  0.266700  0.035000  0.866010  1
  C  C574  1  0.231700  0.965000  0.633990  1
  C  C575  1  0.733300  0.965000  0.133990  1
  C  C576  1  0.768300  0.035000  0.366010  1
  C  C577  1  0.343500  0.080000  0.878270  1
  C  C578  1  0.263500  0.920000  0.621730  1
  C  C579  1  0.656500  0.920000  0.121730  1
  C  C580  1  0.736500  0.080000  0.378270  1
  C  C581  1  0.381400  0.042400  0.889020  1
  C  C582  1  0.339000  0.957600  0.610980  1
  C  C583  1  0.618600  0.957600  0.110980  1
  C  C584  1  0.661000  0.042400  0.389020  1
  C  C585  1  0.265900  0.119200  0.839330  1
  C  C586  1  0.146700  0.880800  0.660670  1
  C  C587  1  0.734100  0.880800  0.160670  1
  C  C588  1  0.853300  0.119200  0.339330  1
  C  C589  1  0.226100  0.157800  0.828130  1
  C  C590  1  0.068300  0.842200  0.671870  1
  C  C591  1  0.773900  0.842200  0.171870  1
  C  C592  1  0.931700  0.157800  0.328130  1
  C  C593  1  0.106200  0.168000  0.826590  1
  C  C594  1  0.938200  0.832000  0.673410  1
  C  C595  1  0.893800  0.832000  0.173410  1
  C  C596  1  0.061800  0.168000  0.326590  1
  C  C597  1  0.136300  0.215400  0.807570  1
  C  C598  1  0.920900  0.784600  0.692430  1
  C  C599  1  0.863700  0.784600  0.192430  1
  C  C600  1  0.079100  0.215400  0.307570  1
  C  C601  1  0.212700  0.234200  0.799450  1
  C  C602  1  0.978500  0.765800  0.700550  1
  C  C603  1  0.787300  0.765800  0.200550  1
  C  C604  1  0.021500  0.234200  0.299450  1
  C  C605  1  0.258100  0.204800  0.809560  1
  C  C606  1  0.053300  0.795200  0.690440  1
  C  C607  1  0.741900  0.795200  0.190440  1
  C  C608  1  0.946700  0.204800  0.309560  1
  Cl  Cl609  1  0.124230  0.688420  0.865990  1
  Cl  Cl610  1  0.435810  0.311580  0.634010  1
  Cl  Cl611  1  0.875770  0.311580  0.134010  1
  Cl  Cl612  1  0.564190  0.688420  0.365990  1
  Cl  Cl613  1  0.495170  0.468560  0.944520  1
  Cl  Cl614  1  0.026610  0.531440  0.555480  1
  Cl  Cl615  1  0.504830  0.531440  0.055480  1
  Cl  Cl616  1  0.973390  0.468560  0.444520  1
  Cl  Cl617  1  0.759320  0.803060  0.838350  1
  Cl  Cl618  1  0.956260  0.196940  0.661650  1
  Cl  Cl619  1  0.240680  0.196940  0.161650  1
  Cl  Cl620  1  0.043740  0.803060  0.338350  1
  Cl  Cl621  1  0.033320  0.277880  0.948490  1
  Cl  Cl622  1  0.755440  0.722120  0.551510  1
  Cl  Cl623  1  0.966680  0.722120  0.051510  1
  Cl  Cl624  1  0.244560  0.277880  0.448490  1
  Cl  Cl625  1  0.694480  0.130960  0.899240  1
  Cl  Cl626  1  0.563520  0.869040  0.600760  1
  Cl  Cl627  1  0.305520  0.869040  0.100760  1
  Cl  Cl628  1  0.436480  0.130960  0.399240  1
  F  F629  1  0.568500  0.250400  0.864570  1
  F  F630  1  0.318100  0.749600  0.635430  1
  F  F631  1  0.431500  0.749600  0.135430  1
  F  F632  1  0.681900  0.250400  0.364570  1
  F  F633  1  0.601000  0.275600  0.828140  1
  F  F634  1  0.325400  0.724400  0.671860  1
  F  F635  1  0.399000  0.724400  0.171860  1
  F  F636  1  0.674600  0.275600  0.328140  1
  F  F637  1  0.486500  0.177000  0.834170  1
  F  F638  1  0.309500  0.823000  0.665830  1
  F  F639  1  0.513500  0.823000  0.165830  1
  F  F640  1  0.690500  0.177000  0.334170  1
  F  F641  1  0.248100  0.920400  0.978620  1
  F  F642  1  0.327700  0.079600  0.521380  1
  F  F643  1  0.751900  0.079600  0.021380  1
  F  F644  1  0.672300  0.920400  0.478620  1
  F  F645  1  0.367600  0.978800  0.964870  1
  F  F646  1  0.388800  0.021200  0.535130  1
  F  F647  1  0.632400  0.021200  0.035130  1
  F  F648  1  0.611200  0.978800  0.464870  1
  F  F649  1  0.261100  0.955800  0.942060  1
  F  F650  1  0.305300  0.044200  0.557940  1
  F  F651  1  0.738900  0.044200  0.057940  1
  F  F652  1  0.694700  0.955800  0.442060  1
  Fe  Fe653  1  0.771930  0.417040  0.950340  1
  Fe  Fe654  1  0.354890  0.582960  0.549660  1
  Fe  Fe655  1  0.228070  0.582960  0.049660  1
  Fe  Fe656  1  0.645110  0.417040  0.450340  1
  Fe  Fe657  1  0.041410  0.482900  0.733680  1
  Fe  Fe658  1  0.558510  0.517100  0.766320  1
  Fe  Fe659  1  0.958590  0.517100  0.266320  1
  Fe  Fe660  1  0.441490  0.482900  0.233680  1
  Fe  Fe661  1  0.541250  0.743360  0.917320  1
  Fe  Fe662  1  0.797890  0.256640  0.582680  1
  Fe  Fe663  1  0.458750  0.256640  0.082680  1
  Fe  Fe664  1  0.202110  0.743360  0.417320  1
  Fe  Fe665  1  0.122150  0.072960  0.864540  1
  Fe  Fe666  1  0.049190  0.927040  0.635460  1
  Fe  Fe667  1  0.877850  0.927040  0.135460  1
  Fe  Fe668  1  0.950810  0.072960  0.364540  1
  H  H669  1  0.585600  0.984800  0.978600  1
  H  H670  1  0.600800  0.015200  0.521400  1
  H  H671  1  0.414400  0.015200  0.021400  1
  H  H672  1  0.399200  0.984800  0.478600  1
  H  H673  1  0.659900  0.045800  0.964500  1
  H  H674  1  0.614100  0.954200  0.535500  1
  H  H675  1  0.340100  0.954200  0.035500  1
  H  H676  1  0.385900  0.045800  0.464500  1
  H  H677  1  0.568200  0.007800  0.952600  1
  H  H678  1  0.560400  0.992200  0.547400  1
  H  H679  1  0.431800  0.992200  0.047400  1
  H  H680  1  0.439600  0.007800  0.452600  1
  H  H681  1  0.714900  0.616200  0.602600  1
  H  H682  1  0.098700  0.383800  0.897400  1
  H  H683  1  0.285100  0.383800  0.397400  1
  H  H684  1  0.901300  0.616200  0.102600  1
  H  H685  1  0.695600  0.607000  0.631200  1
  H  H686  1  0.088600  0.393000  0.868800  1
  H  H687  1  0.304400  0.393000  0.368800  1
  H  H688  1  0.911400  0.607000  0.131200  1
  H  H689  1  0.661800  0.532200  0.611200  1
  H  H690  1  0.129600  0.467800  0.888800  1
  H  H691  1  0.338200  0.467800  0.388800  1
  H  H692  1  0.870400  0.532200  0.111200  1
  H  H693  1  0.849900  0.799400  0.787600  1
  H  H694  1  0.050500  0.200600  0.712400  1
  H  H695  1  0.150100  0.200600  0.212400  1
  H  H696  1  0.949500  0.799400  0.287600  1
  H  H697  1  0.889600  0.836200  0.762800  1
  H  H698  1  0.053400  0.163800  0.737200  1
  H  H699  1  0.110400  0.163800  0.237200  1
  H  H700  1  0.946600  0.836200  0.262800  1
  H  H701  1  0.944800  0.826000  0.783400  1
  H  H702  1  0.118800  0.174000  0.716600  1
  H  H703  1  0.055200  0.174000  0.216600  1
  H  H704  1  0.881200  0.826000  0.283400  1
  H  H705  1  0.748900  0.373200  0.003700  1
  H  H706  1  0.375700  0.626800  0.496300  1
  H  H707  1  0.251100  0.626800  0.996300  1
  H  H708  1  0.624300  0.373200  0.503700  1
  H  H709  1  0.771300  0.288000  0.026000  1
  H  H710  1  0.483300  0.712000  0.474000  1
  H  H711  1  0.228700  0.712000  0.974000  1
  H  H712  1  0.516700  0.288000  0.526000  1
  H  H713  1  0.814800  0.207400  0.005500  1
  H  H714  1  0.607400  0.792600  0.494500  1
  H  H715  1  0.185200  0.792600  0.994500  1
  H  H716  1  0.392600  0.207400  0.505500  1
  H  H717  1  0.850800  0.221400  0.964000  1
  H  H718  1  0.629400  0.778600  0.536000  1
  H  H719  1  0.149200  0.778600  0.036000  1
  H  H720  1  0.370600  0.221400  0.464000  1
  H  H721  1  0.858100  0.290800  0.924600  1
  H  H722  1  0.567300  0.709200  0.575400  1
  H  H723  1  0.141900  0.709200  0.075400  1
  H  H724  1  0.432700  0.290800  0.424600  1
  H  H725  1  0.721100  0.327200  0.886900  1
  H  H726  1  0.393900  0.672800  0.613100  1
  H  H727  1  0.278900  0.672800  0.113100  1
  H  H728  1  0.606100  0.327200  0.386900  1
  H  H729  1  0.752300  0.352600  0.846200  1
  H  H730  1  0.399700  0.647400  0.653800  1
  H  H731  1  0.247700  0.647400  0.153800  1
  H  H732  1  0.600300  0.352600  0.346200  1
  H  H733  1  0.992800  0.474000  0.867400  1
  H  H734  1  0.518800  0.526000  0.632600  1
  H  H735  1  0.007200  0.526000  0.132600  1
  H  H736  1  0.481200  0.474000  0.367400  1
  H  H737  1  0.963600  0.447000  0.908100  1
  H  H738  1  0.516600  0.553000  0.591900  1
  H  H739  1  0.036400  0.553000  0.091900  1
  H  H740  1  0.483400  0.447000  0.408100  1
  H  H741  1  0.818100  0.336000  0.807600  1
  H  H742  1  0.482100  0.664000  0.692400  1
  H  H743  1  0.181900  0.664000  0.192400  1
  H  H744  1  0.517900  0.336000  0.307600  1
  H  H745  1  0.857400  0.369200  0.769200  1
  H  H746  1  0.488200  0.630800  0.730800  1
  H  H747  1  0.142600  0.630800  0.230800  1
  H  H748  1  0.511800  0.369200  0.269200  1
  H  H749  1  0.009900  0.588000  0.797300  1
  H  H750  1  0.421900  0.412000  0.702700  1
  H  H751  1  0.990100  0.412000  0.202700  1
  H  H752  1  0.578100  0.588000  0.297300  1
  H  H753  1  0.978600  0.552000  0.837400  1
  H  H754  1  0.426600  0.448000  0.662600  1
  H  H755  1  0.021400  0.448000  0.162600  1
  H  H756  1  0.573400  0.552000  0.337400  1
  H  H757  1  0.880900  0.538000  0.752200  1
  H  H758  1  0.342900  0.462000  0.747800  1
  H  H759  1  0.119100  0.462000  0.247800  1
  H  H760  1  0.657100  0.538000  0.252200  1
  H  H761  1  0.043900  0.508600  0.677200  1
  H  H762  1  0.535300  0.491400  0.822800  1
  H  H763  1  0.956100  0.491400  0.322800  1
  H  H764  1  0.464700  0.508600  0.177200  1
  H  H765  1  0.986200  0.565200  0.653500  1
  H  H766  1  0.421000  0.434800  0.846500  1
  H  H767  1  0.013800  0.434800  0.346500  1
  H  H768  1  0.579000  0.565200  0.153500  1
  H  H769  1  0.891900  0.600200  0.669400  1
  H  H770  1  0.291700  0.399800  0.830600  1
  H  H771  1  0.108100  0.399800  0.330600  1
  H  H772  1  0.708300  0.600200  0.169400  1
  H  H773  1  0.858100  0.582400  0.711200  1
  H  H774  1  0.275700  0.417600  0.788800  1
  H  H775  1  0.141900  0.417600  0.288800  1
  H  H776  1  0.724300  0.582400  0.211200  1
  H  H777  1  0.610200  0.396800  0.974700  1
  H  H778  1  0.213400  0.603200  0.525300  1
  H  H779  1  0.389800  0.603200  0.025300  1
  H  H780  1  0.786600  0.396800  0.474700  1
  H  H781  1  0.577500  0.469200  0.004500  1
  H  H782  1  0.108300  0.530800  0.495500  1
  H  H783  1  0.422500  0.530800  0.995500  1
  H  H784  1  0.891700  0.469200  0.504500  1
  H  H785  1  0.679500  0.585200  0.024200  1
  H  H786  1  0.094300  0.414800  0.475800  1
  H  H787  1  0.320500  0.414800  0.975800  1
  H  H788  1  0.905700  0.585200  0.524200  1
  H  H789  1  0.816000  0.625600  0.013400  1
  H  H790  1  0.190400  0.374400  0.486600  1
  H  H791  1  0.184000  0.374400  0.986600  1
  H  H792  1  0.809600  0.625600  0.513400  1
  H  H793  1  0.918500  0.597400  0.987500  1
  H  H794  1  0.321100  0.402600  0.512500  1
  H  H795  1  0.081500  0.402600  0.012500  1
  H  H796  1  0.678900  0.597400  0.487500  1
  H  H797  1  0.965100  0.435200  0.971200  1
  H  H798  1  0.529900  0.564800  0.528800  1
  H  H799  1  0.034900  0.564800  0.028800  1
  H  H800  1  0.470100  0.435200  0.471200  1
  H  H801  1  0.098500  0.467800  0.960000  1
  H  H802  1  0.630700  0.532200  0.540000  1
  H  H803  1  0.901500  0.532200  0.040000  1
  H  H804  1  0.369300  0.467800  0.460000  1
  H  H805  1  0.110300  0.648200  0.927700  1
  H  H806  1  0.462100  0.351800  0.572300  1
  H  H807  1  0.889700  0.351800  0.072300  1
  H  H808  1  0.537900  0.648200  0.427700  1
  H  H809  1  0.978000  0.616800  0.938200  1
  H  H810  1  0.361200  0.383200  0.561800  1
  H  H811  1  0.022000  0.383200  0.061800  1
  H  H812  1  0.638800  0.616800  0.438200  1
  H  H813  1  0.237900  0.540800  0.962700  1
  H  H814  1  0.697100  0.459200  0.537300  1
  H  H815  1  0.762100  0.459200  0.037300  1
  H  H816  1  0.302900  0.540800  0.462700  1
  H  H817  1  0.369500  0.575800  0.951100  1
  H  H818  1  0.793700  0.424200  0.548900  1
  H  H819  1  0.630500  0.424200  0.048900  1
  H  H820  1  0.206300  0.575800  0.451100  1
  H  H821  1  0.325900  0.657200  0.890000  1
  H  H822  1  0.668700  0.342800  0.610000  1
  H  H823  1  0.674100  0.342800  0.110000  1
  H  H824  1  0.331300  0.657200  0.390000  1
  H  H825  1  0.194800  0.620400  0.901700  1
  H  H826  1  0.574400  0.379600  0.598300  1
  H  H827  1  0.805200  0.379600  0.098300  1
  H  H828  1  0.425600  0.620400  0.401700  1
  H  H829  1  0.414400  0.534200  0.901200  1
  H  H830  1  0.880200  0.465800  0.598800  1
  H  H831  1  0.585600  0.465800  0.098800  1
  H  H832  1  0.119800  0.534200  0.401200  1
  H  H833  1  0.706900  0.757600  0.900600  1
  H  H834  1  0.949300  0.242400  0.599400  1
  H  H835  1  0.293100  0.242400  0.099400  1
  H  H836  1  0.050700  0.757600  0.400600  1
  H  H837  1  0.750500  0.679400  0.876800  1
  H  H838  1  0.071100  0.320600  0.623200  1
  H  H839  1  0.249500  0.320600  0.123200  1
  H  H840  1  0.928900  0.679400  0.376800  1
  H  H841  1  0.662200  0.547400  0.870400  1
  H  H842  1  0.114800  0.452600  0.629600  1
  H  H843  1  0.337800  0.452600  0.129600  1
  H  H844  1  0.885200  0.547400  0.370400  1
  H  H845  1  0.523300  0.501000  0.881300  1
  H  H846  1  0.022300  0.499000  0.618700  1
  H  H847  1  0.476700  0.499000  0.118700  1
  H  H848  1  0.977700  0.501000  0.381300  1
  H  H849  1  0.646000  0.250400  0.958200  1
  H  H850  1  0.395600  0.749600  0.541800  1
  H  H851  1  0.354000  0.749600  0.041800  1
  H  H852  1  0.604400  0.250400  0.458200  1
  H  H853  1  0.508200  0.167800  0.945800  1
  H  H854  1  0.340400  0.832200  0.554200  1
  H  H855  1  0.491800  0.832200  0.054200  1
  H  H856  1  0.659600  0.167800  0.445800  1
  H  H857  1  0.438800  0.208600  0.919300  1
  H  H858  1  0.230200  0.791400  0.580700  1
  H  H859  1  0.561200  0.791400  0.080700  1
  H  H860  1  0.769800  0.208600  0.419300  1
  H  H861  1  0.511800  0.326800  0.904500  1
  H  H862  1  0.185000  0.673200  0.595500  1
  H  H863  1  0.488200  0.673200  0.095500  1
  H  H864  1  0.815000  0.326800  0.404500  1
  H  H865  1  0.649200  0.455200  0.905100  1
  H  H866  1  0.194000  0.544800  0.594900  1
  H  H867  1  0.350800  0.544800  0.094900  1
  H  H868  1  0.806000  0.455200  0.405100  1
  H  H869  1  0.750100  0.600400  0.946400  1
  H  H870  1  0.149700  0.399600  0.553600  1
  H  H871  1  0.249900  0.399600  0.053600  1
  H  H872  1  0.850300  0.600400  0.446400  1
  H  H873  1  0.829000  0.725400  0.937400  1
  H  H874  1  0.103600  0.274600  0.562600  1
  H  H875  1  0.171000  0.274600  0.062600  1
  H  H876  1  0.896400  0.725400  0.437400  1
  H  H877  1  0.934600  0.651600  0.883600  1
  H  H878  1  0.283000  0.348400  0.616400  1
  H  H879  1  0.065400  0.348400  0.116400  1
  H  H880  1  0.717000  0.651600  0.383600  1
  H  H881  1  0.852700  0.523600  0.892300  1
  H  H882  1  0.329100  0.476400  0.607700  1
  H  H883  1  0.147300  0.476400  0.107700  1
  H  H884  1  0.670900  0.523600  0.392300  1
  H  H885  1  0.860100  0.817800  0.902300  1
  H  H886  1  0.042300  0.182200  0.597700  1
  H  H887  1  0.139900  0.182200  0.097700  1
  H  H888  1  0.957700  0.817800  0.402300  1
  H  H889  1  0.946400  0.942400  0.892000  1
  H  H890  1  0.004000  0.057600  0.608000  1
  H  H891  1  0.053600  0.057600  0.108000  1
  H  H892  1  0.996000  0.942400  0.392000  1
  H  H893  1  0.141700  0.904000  0.903000  1
  H  H894  1  0.237700  0.096000  0.597000  1
  H  H895  1  0.858300  0.096000  0.097000  1
  H  H896  1  0.762300  0.904000  0.403000  1
  H  H897  1  0.052100  0.777400  0.907800  1
  H  H898  1  0.274700  0.222600  0.592200  1
  H  H899  1  0.947900  0.222600  0.092200  1
  H  H900  1  0.725300  0.777400  0.407800  1
  H  H901  1  0.155100  0.031800  0.926800  1
  H  H902  1  0.123300  0.968200  0.573200  1
  H  H903  1  0.844900  0.968200  0.073200  1
  H  H904  1  0.876700  0.031800  0.426800  1
  H  H905  1  0.231300  0.252000  0.870700  1
  H  H906  1  0.979300  0.748000  0.629300  1
  H  H907  1  0.768700  0.748000  0.129300  1
  H  H908  1  0.020700  0.252000  0.370700  1
  H  H909  1  0.323500  0.341800  0.901300  1
  H  H910  1  0.981700  0.658200  0.598700  1
  H  H911  1  0.676500  0.658200  0.098700  1
  H  H912  1  0.018300  0.341800  0.401300  1
  H  H913  1  0.346300  0.302600  0.938200  1
  H  H914  1  0.043700  0.697400  0.561800  1
  H  H915  1  0.653700  0.697400  0.061800  1
  H  H916  1  0.956300  0.302600  0.438200  1
  H  H917  1  0.268200  0.170400  0.944600  1
  H  H918  1  0.097800  0.829600  0.555400  1
  H  H919  1  0.731800  0.829600  0.055400  1
  H  H920  1  0.902200  0.170400  0.444600  1
  H  H921  1  0.892200  0.361600  0.700500  1
  H  H922  1  0.530600  0.638400  0.799500  1
  H  H923  1  0.107800  0.638400  0.299500  1
  H  H924  1  0.469400  0.361600  0.200500  1
  H  H925  1  0.806900  0.234000  0.698200  1
  H  H926  1  0.572900  0.766000  0.801800  1
  H  H927  1  0.193100  0.766000  0.301800  1
  H  H928  1  0.427100  0.234000  0.198200  1
  H  H929  1  0.817100  0.164800  0.727900  1
  H  H930  1  0.652300  0.835200  0.772100  1
  H  H931  1  0.182900  0.835200  0.272100  1
  H  H932  1  0.347700  0.164800  0.227900  1
  H  H933  1  0.927900  0.221400  0.756700  1
  H  H934  1  0.706500  0.778600  0.743300  1
  H  H935  1  0.072100  0.778600  0.243300  1
  H  H936  1  0.293500  0.221400  0.256700  1
  H  H937  1  0.057900  0.357600  0.776600  1
  H  H938  1  0.700300  0.642400  0.723400  1
  H  H939  1  0.942100  0.642400  0.223400  1
  H  H940  1  0.299700  0.357600  0.276600  1
  H  H941  1  0.083800  0.476600  0.809000  1
  H  H942  1  0.607200  0.523400  0.691000  1
  H  H943  1  0.916200  0.523400  0.191000  1
  H  H944  1  0.392800  0.476600  0.309000  1
  H  H945  1  0.194200  0.560200  0.836600  1
  H  H946  1  0.634000  0.439800  0.663400  1
  H  H947  1  0.805800  0.439800  0.163400  1
  H  H948  1  0.366000  0.560200  0.336600  1
  H  H949  1  0.349700  0.609600  0.780500  1
  H  H950  1  0.740100  0.390400  0.719500  1
  H  H951  1  0.650300  0.390400  0.219500  1
  H  H952  1  0.259900  0.609600  0.280500  1
  H  H953  1  0.240300  0.526200  0.752500  1
  H  H954  1  0.714100  0.473800  0.747500  1
  H  H955  1  0.759700  0.473800  0.247500  1
  H  H956  1  0.285900  0.526200  0.252500  1
  H  H957  1  0.419500  0.588600  0.822500  1
  H  H958  1  0.830900  0.411400  0.677500  1
  H  H959  1  0.580500  0.411400  0.177500  1
  H  H960  1  0.169100  0.588600  0.322500  1
  H  H961  1  0.523900  0.661800  0.852500  1
  H  H962  1  0.862100  0.338200  0.647500  1
  H  H963  1  0.476100  0.338200  0.147500  1
  H  H964  1  0.137900  0.661800  0.352500  1
  H  H965  1  0.416300  0.796400  0.870000  1
  H  H966  1  0.619900  0.203600  0.630000  1
  H  H967  1  0.583700  0.203600  0.130000  1
  H  H968  1  0.380100  0.796400  0.370000  1
  H  H969  1  0.310700  0.720800  0.841000  1
  H  H970  1  0.589900  0.279200  0.659000  1
  H  H971  1  0.689300  0.279200  0.159000  1
  H  H972  1  0.410100  0.720800  0.341000  1
  H  H973  1  0.613900  0.854000  0.864000  1
  H  H974  1  0.759900  0.146000  0.636000  1
  H  H975  1  0.386100  0.146000  0.136000  1
  H  H976  1  0.240100  0.854000  0.364000  1
  H  H977  1  0.681300  0.851400  0.956600  1
  H  H978  1  0.829900  0.148600  0.543400  1
  H  H979  1  0.318700  0.148600  0.043400  1
  H  H980  1  0.170100  0.851400  0.456600  1
  H  H981  1  0.800100  0.970200  0.955900  1
  H  H982  1  0.829900  0.029800  0.544100  1
  H  H983  1  0.199900  0.029800  0.044100  1
  H  H984  1  0.170100  0.970200  0.455900  1
  H  H985  1  0.834100  0.027800  0.920000  1
  H  H986  1  0.806300  0.972200  0.580000  1
  H  H987  1  0.165900  0.972200  0.080000  1
  H  H988  1  0.193700  0.027800  0.420000  1
  H  H989  1  0.748600  0.969200  0.884500  1
  H  H990  1  0.779400  0.030800  0.615500  1
  H  H991  1  0.251400  0.030800  0.115500  1
  H  H992  1  0.220600  0.969200  0.384500  1
  H  H993  1  0.064700  0.360000  0.699200  1
  H  H994  1  0.704700  0.640000  0.800800  1
  H  H995  1  0.935300  0.640000  0.300800  1
  H  H996  1  0.295300  0.360000  0.199200  1
  H  H997  1  0.162500  0.363000  0.671800  1
  H  H998  1  0.799500  0.637000  0.828200  1
  H  H999  1  0.837500  0.637000  0.328200  1
  H  H1000  1  0.200500  0.363000  0.171800  1
  H  H1001  1  0.274800  0.478800  0.666100  1
  H  H1002  1  0.796000  0.521200  0.833900  1
  H  H1003  1  0.725200  0.521200  0.333900  1
  H  H1004  1  0.204000  0.478800  0.166100  1
  H  H1005  1  0.292200  0.591600  0.689600  1
  H  H1006  1  0.700600  0.408400  0.810400  1
  H  H1007  1  0.707800  0.408400  0.310400  1
  H  H1008  1  0.299400  0.591600  0.189600  1
  H  H1009  1  0.231200  0.656200  0.721000  1
  H  H1010  1  0.575000  0.343800  0.779000  1
  H  H1011  1  0.768800  0.343800  0.279000  1
  H  H1012  1  0.425000  0.656200  0.221000  1
  H  H1013  1  0.173400  0.639400  0.783700  1
  H  H1014  1  0.534000  0.360600  0.716300  1
  H  H1015  1  0.826600  0.360600  0.216300  1
  H  H1016  1  0.466000  0.639400  0.283700  1
  H  H1017  1  0.154400  0.733600  0.808400  1
  H  H1018  1  0.420800  0.266400  0.691600  1
  H  H1019  1  0.845600  0.266400  0.191600  1
  H  H1020  1  0.579200  0.733600  0.308400  1
  H  H1021  1  0.075000  0.788000  0.747900  1
  H  H1022  1  0.287000  0.212000  0.752100  1
  H  H1023  1  0.925000  0.212000  0.252100  1
  H  H1024  1  0.713000  0.788000  0.247900  1
  H  H1025  1  0.088100  0.691400  0.723700  1
  H  H1026  1  0.396700  0.308600  0.776300  1
  H  H1027  1  0.911900  0.308600  0.276300  1
  H  H1028  1  0.603300  0.691400  0.223700  1
  H  H1029  1  0.030700  0.753600  0.821600  1
  H  H1030  1  0.277100  0.246400  0.678400  1
  H  H1031  1  0.969300  0.246400  0.178400  1
  H  H1032  1  0.722900  0.753600  0.321600  1
  H  H1033  1  0.997300  0.837200  0.846200  1
  H  H1034  1  0.160100  0.162800  0.653800  1
  H  H1035  1  0.002700  0.162800  0.153800  1
  H  H1036  1  0.839900  0.837200  0.346200  1
  H  H1037  1  0.131200  0.006800  0.803100  1
  H  H1038  1  0.124400  0.993200  0.696900  1
  H  H1039  1  0.868800  0.993200  0.196900  1
  H  H1040  1  0.875600  0.006800  0.303100  1
  H  H1041  1  0.153100  0.917000  0.777200  1
  H  H1042  1  0.236100  0.083000  0.722800  1
  H  H1043  1  0.846900  0.083000  0.222800  1
  H  H1044  1  0.763900  0.917000  0.277200  1
  H  H1045  1  0.931500  0.934800  0.829600  1
  H  H1046  1  0.996700  0.065200  0.670400  1
  H  H1047  1  0.068500  0.065200  0.170400  1
  H  H1048  1  0.003300  0.934800  0.329600  1
  H  H1049  1  0.058500  0.171000  0.896200  1
  H  H1050  1  0.887500  0.829000  0.603800  1
  H  H1051  1  0.941500  0.829000  0.103800  1
  H  H1052  1  0.112500  0.171000  0.396200  1
  H  H1053  1  0.938200  0.182800  0.895400  1
  H  H1054  1  0.755400  0.817200  0.604600  1
  H  H1055  1  0.061800  0.817200  0.104600  1
  H  H1056  1  0.244600  0.182800  0.395400  1
  H  H1057  1  0.827700  0.098200  0.869100  1
  H  H1058  1  0.729500  0.901800  0.630900  1
  H  H1059  1  0.172300  0.901800  0.130900  1
  H  H1060  1  0.270500  0.098200  0.369100  1
  H  H1061  1  0.837100  0.998800  0.843600  1
  H  H1062  1  0.838300  0.001200  0.656400  1
  H  H1063  1  0.162900  0.001200  0.156400  1
  H  H1064  1  0.161700  0.998800  0.343600  1
  H  H1065  1  0.612000  0.662000  0.949200  1
  H  H1066  1  0.950000  0.338000  0.550800  1
  H  H1067  1  0.388000  0.338000  0.050800  1
  H  H1068  1  0.050000  0.662000  0.449200  1
  H  H1069  1  0.493100  0.771600  0.004700  1
  H  H1070  1  0.721500  0.228400  0.495300  1
  H  H1071  1  0.506900  0.228400  0.995300  1
  H  H1072  1  0.278500  0.771600  0.504700  1
  H  H1073  1  0.554400  0.701600  0.019300  1
  H  H1074  1  0.852800  0.298400  0.480700  1
  H  H1075  1  0.445600  0.298400  0.980700  1
  H  H1076  1  0.147200  0.701600  0.519300  1
  H  H1077  1  0.614300  0.648200  0.991800  1
  H  H1078  1  0.966100  0.351800  0.508200  1
  H  H1079  1  0.385700  0.351800  0.008200  1
  H  H1080  1  0.033900  0.648200  0.491800  1
  H  H1081  1  0.451900  0.817600  0.966900  1
  H  H1082  1  0.634300  0.182400  0.533100  1
  H  H1083  1  0.548100  0.182400  0.033100  1
  H  H1084  1  0.365700  0.817600  0.466900  1
  H  H1085  1  0.333500  0.772200  0.930600  1
  H  H1086  1  0.561300  0.227800  0.569400  1
  H  H1087  1  0.666500  0.227800  0.069400  1
  H  H1088  1  0.438700  0.772200  0.430600  1
  H  H1089  1  0.274600  0.836200  0.910200  1
  H  H1090  1  0.438400  0.163800  0.589800  1
  H  H1091  1  0.725400  0.163800  0.089800  1
  H  H1092  1  0.561600  0.836200  0.410200  1
  H  H1093  1  0.501000  0.995000  0.895200  1
  H  H1094  1  0.506000  0.005000  0.604800  1
  H  H1095  1  0.499000  0.005000  0.104800  1
  H  H1096  1  0.494000  0.995000  0.395200  1
  H  H1097  1  0.558800  0.928200  0.912800  1
  H  H1098  1  0.630600  0.071800  0.587200  1
  H  H1099  1  0.441200  0.071800  0.087200  1
  H  H1100  1  0.369400  0.928200  0.412800  1
  H  H1101  1  0.244300  0.864600  0.873200  1
  H  H1102  1  0.379700  0.135400  0.626800  1
  H  H1103  1  0.755700  0.135400  0.126800  1
  H  H1104  1  0.620300  0.864600  0.373200  1
  H  H1105  1  0.181900  0.926200  0.854500  1
  H  H1106  1  0.255700  0.073800  0.645500  1
  H  H1107  1  0.818100  0.073800  0.145500  1
  H  H1108  1  0.744300  0.926200  0.354500  1
  H  H1109  1  0.369100  0.134600  0.879300  1
  H  H1110  1  0.234500  0.865400  0.620700  1
  H  H1111  1  0.630900  0.865400  0.120700  1
  H  H1112  1  0.765500  0.134600  0.379300  1
  H  H1113  1  0.433900  0.072400  0.897300  1
  H  H1114  1  0.361500  0.927600  0.602700  1
  H  H1115  1  0.566100  0.927600  0.102700  1
  H  H1116  1  0.638500  0.072400  0.397300  1
  H  H1117  1  0.319700  0.129000  0.835300  1
  H  H1118  1  0.190700  0.871000  0.664700  1
  H  H1119  1  0.680300  0.871000  0.164700  1
  H  H1120  1  0.809300  0.129000  0.335300  1
  H  H1121  1  0.053500  0.156200  0.832400  1
  H  H1122  1  0.897300  0.843800  0.667600  1
  H  H1123  1  0.946500  0.843800  0.167600  1
  H  H1124  1  0.102700  0.156200  0.332400  1
  H  H1125  1  0.103700  0.234400  0.800300  1
  H  H1126  1  0.869300  0.765600  0.699700  1
  H  H1127  1  0.896300  0.765600  0.199700  1
  H  H1128  1  0.130700  0.234400  0.300300  1
  H  H1129  1  0.234000  0.267600  0.786800  1
  H  H1130  1  0.966400  0.732400  0.713200  1
  H  H1131  1  0.766000  0.732400  0.213200  1
  H  H1132  1  0.033600  0.267600  0.286800  1
  H  H1133  1  0.311100  0.216800  0.803900  1
  H  H1134  1  0.094300  0.783200  0.696100  1
  H  H1135  1  0.688900  0.783200  0.196100  1
  H  H1136  1  0.905700  0.216800  0.303900  1
  N  N1137  1  0.586700  0.142400  0.991400  1
  N  N1138  1  0.444300  0.857600  0.508600  1
  N  N1139  1  0.413300  0.857600  0.008600  1
  N  N1140  1  0.555700  0.142400  0.491400  1
  N  N1141  1  0.841700  0.570800  0.622770  1
  N  N1142  1  0.270900  0.429200  0.877230  1
  N  N1143  1  0.158300  0.429200  0.377230  1
  N  N1144  1  0.729100  0.570800  0.122770  1
  N  N1145  1  0.854700  0.665200  0.754200  1
  N  N1146  1  0.189500  0.334800  0.745800  1
  N  N1147  1  0.145300  0.334800  0.245800  1
  N  N1148  1  0.810500  0.665200  0.254200  1
  N  N1149  1  0.788200  0.351200  0.972130  1
  N  N1150  1  0.437000  0.648800  0.527870  1
  N  N1151  1  0.211800  0.648800  0.027870  1
  N  N1152  1  0.563000  0.351200  0.472130  1
  N  N1153  1  0.821100  0.369400  0.926720  1
  N  N1154  1  0.451700  0.630600  0.573280  1
  N  N1155  1  0.178900  0.630600  0.073280  1
  N  N1156  1  0.548300  0.369400  0.426720  1
  N  N1157  1  0.961760  0.500720  0.754510  1
  N  N1158  1  0.461040  0.499280  0.745490  1
  N  N1159  1  0.038240  0.499280  0.245490  1
  N  N1160  1  0.538960  0.500720  0.254510  1
  N  N1161  1  0.988420  0.514840  0.708340  1
  N  N1162  1  0.473580  0.485160  0.791660  1
  N  N1163  1  0.011580  0.485160  0.291660  1
  N  N1164  1  0.526420  0.514840  0.208340  1
  N  N1165  1  0.730440  0.466280  0.976590  1
  N  N1166  1  0.264160  0.533720  0.523410  1
  N  N1167  1  0.269560  0.533720  0.023410  1
  N  N1168  1  0.735840  0.466280  0.476590  1
  N  N1169  1  0.877900  0.505400  0.963140  1
  N  N1170  1  0.372500  0.494600  0.536860  1
  N  N1171  1  0.122100  0.494600  0.036860  1
  N  N1172  1  0.627500  0.505400  0.463140  1
  N  N1173  1  0.442430  0.641460  0.911910  1
  N  N1174  1  0.800970  0.358540  0.588090  1
  N  N1175  1  0.557570  0.358540  0.088090  1
  N  N1176  1  0.199030  0.641460  0.411910  1
  N  N1177  1  0.592500  0.681000  0.902440  1
  N  N1178  1  0.911500  0.319000  0.597560  1
  N  N1179  1  0.407500  0.319000  0.097560  1
  N  N1180  1  0.088500  0.681000  0.402440  1
  N  N1181  1  0.658870  0.335740  0.938920  1
  N  N1182  1  0.323130  0.664260  0.561080  1
  N  N1183  1  0.341130  0.664260  0.061080  1
  N  N1184  1  0.676870  0.335740  0.438920  1
  N  N1185  1  0.743870  0.471940  0.926140  1
  N  N1186  1  0.271930  0.528060  0.573860  1
  N  N1187  1  0.256130  0.528060  0.073860  1
  N  N1188  1  0.728070  0.471940  0.426140  1
  N  N1189  1  0.107170  0.016340  0.893870  1
  N  N1190  1  0.090830  0.983660  0.606130  1
  N  N1191  1  0.892830  0.983660  0.106130  1
  N  N1192  1  0.909170  0.016340  0.393870  1
  N  N1193  1  0.194900  0.161400  0.889080  1
  N  N1194  1  0.033500  0.838600  0.610920  1
  N  N1195  1  0.805100  0.838600  0.110920  1
  N  N1196  1  0.966500  0.161400  0.389080  1
  N  N1197  1  0.962900  0.372000  0.729390  1
  N  N1198  1  0.590900  0.628000  0.770610  1
  N  N1199  1  0.037100  0.628000  0.270610  1
  N  N1200  1  0.409100  0.372000  0.229390  1
  N  N1201  1  0.084140  0.448880  0.760300  1
  N  N1202  1  0.635260  0.551120  0.739700  1
  N  N1203  1  0.915860  0.551120  0.239700  1
  N  N1204  1  0.364740  0.448880  0.260300  1
  N  N1205  1  0.541260  0.776520  0.884190  1
  N  N1206  1  0.764740  0.223480  0.615810  1
  N  N1207  1  0.458740  0.223480  0.115810  1
  N  N1208  1  0.235260  0.776520  0.384190  1
  N  N1209  1  0.645330  0.841260  0.921450  1
  N  N1210  1  0.804070  0.158740  0.578550  1
  N  N1211  1  0.354670  0.158740  0.078550  1
  N  N1212  1  0.195930  0.841260  0.421450  1
  N  N1213  1  0.117140  0.470880  0.709960  1
  N  N1214  1  0.646260  0.529120  0.790040  1
  N  N1215  1  0.882860  0.529120  0.290040  1
  N  N1216  1  0.353740  0.470880  0.209960  1
  N  N1217  1  0.129480  0.591360  0.736930  1
  N  N1218  1  0.538120  0.408640  0.763070  1
  N  N1219  1  0.870520  0.408640  0.263070  1
  N  N1220  1  0.461880  0.591360  0.236930  1
  N  N1221  1  0.044680  0.984360  0.841980  1
  N  N1222  1  0.060320  0.015640  0.658020  1
  N  N1223  1  0.955320  0.015640  0.158020  1
  N  N1224  1  0.939680  0.984360  0.341980  1
  N  N1225  1  0.022740  0.083480  0.870120  1
  N  N1226  1  0.939260  0.916520  0.629880  1
  N  N1227  1  0.977260  0.916520  0.129880  1
  N  N1228  1  0.060740  0.083480  0.370120  1
  N  N1229  1  0.550290  0.722780  0.951670  1
  N  N1230  1  0.827510  0.277220  0.548330  1
  N  N1231  1  0.449710  0.277220  0.048330  1
  N  N1232  1  0.172490  0.722780  0.451670  1
  N  N1233  1  0.484700  0.798400  0.933780  1
  N  N1234  1  0.686300  0.201600  0.566220  1
  N  N1235  1  0.515300  0.201600  0.066220  1
  N  N1236  1  0.313700  0.798400  0.433780  1
  N  N1237  1  0.226270  0.071340  0.854930  1
  N  N1238  1  0.154930  0.928660  0.645070  1
  N  N1239  1  0.773730  0.928660  0.145070  1
  N  N1240  1  0.845070  0.071340  0.354930  1
  N  N1241  1  0.150730  0.139060  0.836810  1
  N  N1242  1  0.011670  0.860940  0.663190  1
  N  N1243  1  0.849270  0.860940  0.163190  1
  N  N1244  1  0.988330  0.139060  0.336810  1
  O  O1245  1  0.424400  0.275200  0.859460  1
  O  O1246  1  0.149200  0.724800  0.640540  1
  O  O1247  1  0.575600  0.724800  0.140540  1
  O  O1248  1  0.850800  0.275200  0.359460  1
  O  O1249  1  0.552000  0.387400  0.854440  1
  O  O1250  1  0.164600  0.612600  0.645560  1
  O  O1251  1  0.448000  0.612600  0.145560  1
  O  O1252  1  0.835400  0.387400  0.354440  1
  O  O1253  1  0.467600  0.308000  0.818560  1
  O  O1254  1  0.159600  0.692000  0.681440  1
  O  O1255  1  0.532400  0.692000  0.181440  1
  O  O1256  1  0.840400  0.308000  0.318560  1
  O  O1257  1  0.332600  0.076400  0.002600  1
  O  O1258  1  0.256200  0.923600  0.497400  1
  O  O1259  1  0.667400  0.923600  0.997400  1
  O  O1260  1  0.743800  0.076400  0.502600  1
  O  O1261  1  0.218000  0.052600  0.972600  1
  O  O1262  1  0.165400  0.947400  0.527400  1
  O  O1263  1  0.782000  0.947400  0.027400  1
  O  O1264  1  0.834600  0.052600  0.472600  1
  O  O1265  1  0.357400  0.117200  0.960800  1
  O  O1266  1  0.240200  0.882800  0.539200  1
  O  O1267  1  0.642600  0.882800  0.039200  1
  O  O1268  1  0.759800  0.117200  0.460800  1
  O  O1269  1  0.049860  0.684120  0.856490  1
  O  O1270  1  0.365740  0.315880  0.643510  1
  O  O1271  1  0.950140  0.315880  0.143510  1
  O  O1272  1  0.634260  0.684120  0.356490  1
  O  O1273  1  0.141370  0.723340  0.891160  1
  O  O1274  1  0.418030  0.276660  0.608840  1
  O  O1275  1  0.858630  0.276660  0.108840  1
  O  O1276  1  0.581970  0.723340  0.391160  1
  O  O1277  1  0.190090  0.734780  0.850960  1
  O  O1278  1  0.455310  0.265220  0.649040  1
  O  O1279  1  0.809910  0.265220  0.149040  1
  O  O1280  1  0.544690  0.734780  0.350960  1
  O  O1281  1  0.116510  0.611820  0.864960  1
  O  O1282  1  0.504690  0.388180  0.635040  1
  O  O1283  1  0.883490  0.388180  0.135040  1
  O  O1284  1  0.495310  0.611820  0.364960  1
  O  O1285  1  0.464780  0.430760  0.920110  1
  O  O1286  1  0.034020  0.569240  0.579890  1
  O  O1287  1  0.535220  0.569240  0.079890  1
  O  O1288  1  0.965980  0.430760  0.420110  1
  O  O1289  1  0.470310  0.412020  0.961920  1
  O  O1290  1  0.058290  0.587980  0.538080  1
  O  O1291  1  0.529690  0.587980  0.038080  1
  O  O1292  1  0.941710  0.412020  0.461920  1
  O  O1293  1  0.582130  0.511260  0.944900  1
  O  O1294  1  0.070870  0.488740  0.555100  1
  O  O1295  1  0.417870  0.488740  0.055100  1
  O  O1296  1  0.929130  0.511260  0.444900  1
  O  O1297  1  0.461140  0.518480  0.950840  1
  O  O1298  1  0.942660  0.481520  0.549160  1
  O  O1299  1  0.538860  0.481520  0.049160  1
  O  O1300  1  0.057340  0.518480  0.450840  1
  O  O1301  1  0.783100  0.846200  0.862170  1
  O  O1302  1  0.936900  0.153800  0.637830  1
  O  O1303  1  0.216900  0.153800  0.137830  1
  O  O1304  1  0.063100  0.846200  0.362170  1
  O  O1305  1  0.777500  0.850400  0.820040  1
  O  O1306  1  0.927100  0.149600  0.679960  1
  O  O1307  1  0.222500  0.149600  0.179960  1
  O  O1308  1  0.072900  0.850400  0.320040  1
  O  O1309  1  0.678500  0.741600  0.837820  1
  O  O1310  1  0.936900  0.258400  0.662180  1
  O  O1311  1  0.321500  0.258400  0.162180  1
  O  O1312  1  0.063100  0.741600  0.337820  1
  O  O1313  1  0.814800  0.771200  0.835200  1
  O  O1314  1  0.043600  0.228800  0.664800  1
  O  O1315  1  0.185200  0.228800  0.164800  1
  O  O1316  1  0.956400  0.771200  0.335200  1
  O  O1317  1  0.987300  0.194800  0.950900  1
  O  O1318  1  0.792500  0.805200  0.549100  1
  O  O1319  1  0.012700  0.805200  0.049100  1
  O  O1320  1  0.207500  0.194800  0.450900  1
  O  O1321  1  0.037900  0.321400  0.971650  1
  O  O1322  1  0.716500  0.678600  0.528350  1
  O  O1323  1  0.962100  0.678600  0.028350  1
  O  O1324  1  0.283500  0.321400  0.471650  1
  O  O1325  1  0.990600  0.294600  0.929150  1
  O  O1326  1  0.696000  0.705400  0.570850  1
  O  O1327  1  0.009400  0.705400  0.070850  1
  O  O1328  1  0.304000  0.294600  0.429150  1
  O  O1329  1  0.115500  0.295600  0.940480  1
  O  O1330  1  0.819900  0.704400  0.559520  1
  O  O1331  1  0.884500  0.704400  0.059520  1
  O  O1332  1  0.180100  0.295600  0.440480  1
  O  O1333  1  0.772800  0.175000  0.893300  1
  O  O1334  1  0.597800  0.825000  0.606700  1
  O  O1335  1  0.227200  0.825000  0.106700  1
  O  O1336  1  0.402200  0.175000  0.393300  1
  O  O1337  1  0.659600  0.056000  0.890400  1
  O  O1338  1  0.603600  0.944000  0.609600  1
  O  O1339  1  0.340400  0.944000  0.109600  1
  O  O1340  1  0.396400  0.056000  0.390400  1
  O  O1341  1  0.646300  0.165400  0.901300  1
  O  O1342  1  0.480900  0.834600  0.598700  1
  O  O1343  1  0.353700  0.834600  0.098700  1
  O  O1344  1  0.519100  0.165400  0.401300  1
  O  O1345  1  0.700700  0.129800  0.927900  1
  O  O1346  1  0.570900  0.870200  0.572100  1
  O  O1347  1  0.299300  0.870200  0.072100  1
  O  O1348  1  0.429100  0.129800  0.427900  1
  S  S1349  1  0.490710  0.312920  0.844350  1
  S  S1350  1  0.177790  0.687080  0.655650  1
  S  S1351  1  0.509290  0.687080  0.155650  1
  S  S1352  1  0.822210  0.312920  0.344350  1
  S  S1353  1  0.302100  0.066800  0.977570  1
  S  S1354  1  0.235300  0.933200  0.522430  1
  S  S1355  1  0.697900  0.933200  0.022430  1
  S  S1356  1  0.764700  0.066800  0.477570  1
  S  S1357  1  0.250900  0.027600  0.985800  1
  S  S1358  1  0.223300  0.972400  0.514200  1
  S  S1359  1  0.749100  0.972400  0.014200  1
  S  S1360  1  0.776700  0.027600  0.485800  1
