# generated using pymatgen
data_Fe4P7H132C160(N16F21)2
_symmetry_space_group_name_H-M   'P 1'
_cell_length_a   18.49250000
_cell_length_b   32.02080000
_cell_length_c   34.27350000
_cell_angle_alpha   90.00000000
_cell_angle_beta   90.00000000
_cell_angle_gamma   90.00000000
_symmetry_Int_Tables_number   1
_chemical_formula_structural   Fe4P7H132C160(N16F21)2
_chemical_formula_sum   'Fe16 P28 H528 C640 N128 F168'
_cell_volume   20294.86945613
_cell_formula_units_Z   4
loop_
 _symmetry_equiv_pos_site_id
 _symmetry_equiv_pos_as_xyz
  1  'x, y, z'
loop_
 _atom_site_type_symbol
 _atom_site_label
 _atom_site_symmetry_multiplicity
 _atom_site_fract_x
 _atom_site_fract_y
 _atom_site_fract_z
 _atom_site_occupancy
  Fe  Fe1  1  0.636270  0.800070  0.370270  1
  Fe  Fe2  1  0.136270  0.199930  0.629730  1
  Fe  Fe3  1  0.136270  0.300070  0.129730  1
  Fe  Fe4  1  0.636270  0.699930  0.870270  1
  Fe  Fe5  1  0.661250  0.519290  0.111230  1
  Fe  Fe6  1  0.161250  0.480710  0.888770  1
  Fe  Fe7  1  0.161250  0.019290  0.388770  1
  Fe  Fe8  1  0.661250  0.980710  0.611230  1
  Fe  Fe9  1  0.441280  0.428370  0.450050  1
  Fe  Fe10  1  0.941280  0.571630  0.549950  1
  Fe  Fe11  1  0.941280  0.928370  0.049950  1
  Fe  Fe12  1  0.441280  0.071630  0.950050  1
  Fe  Fe13  1  0.050090  0.655230  0.232530  1
  Fe  Fe14  1  0.550090  0.344770  0.767470  1
  Fe  Fe15  1  0.550090  0.155230  0.267470  1
  Fe  Fe16  1  0.050090  0.844770  0.732530  1
  P  P17  1  0.457000  0.602970  0.303320  1
  P  P18  1  0.957000  0.397030  0.696680  1
  P  P19  1  0.957000  0.102970  0.196680  1
  P  P20  1  0.457000  0.897030  0.803320  1
  P  P21  1  0.289200  0.455090  0.062850  1
  P  P22  1  0.789200  0.544910  0.937150  1
  P  P23  1  0.789200  0.955090  0.437150  1
  P  P24  1  0.289200  0.044910  0.562850  1
  P  P25  1  0.274200  0.362800  0.276000  1
  P  P26  1  0.774200  0.637200  0.724000  1
  P  P27  1  0.774200  0.862800  0.224000  1
  P  P28  1  0.274200  0.137200  0.776000  1
  P  P29  1  0.349800  0.580230  0.741540  1
  P  P30  1  0.849800  0.419770  0.258460  1
  P  P31  1  0.849800  0.080230  0.758460  1
  P  P32  1  0.349800  0.919770  0.241540  1
  P  P33  1  0.372000  0.357180  0.625140  1
  P  P34  1  0.872000  0.642820  0.374860  1
  P  P35  1  0.872000  0.857180  0.874860  1
  P  P36  1  0.372000  0.142820  0.125140  1
  P  P37  1  0.479200  0.462410  0.884340  1
  P  P38  1  0.979200  0.537590  0.115660  1
  P  P39  1  0.979200  0.962410  0.615660  1
  P  P40  1  0.479200  0.037590  0.384340  1
  P  P41  1  0.320300  0.254460  0.988340  1
  P  P42  1  0.820300  0.745540  0.011660  1
  P  P43  1  0.820300  0.754460  0.511660  1
  P  P44  1  0.320300  0.245540  0.488340  1
  H  H45  1  0.148900  0.412700  0.315700  1
  H  H46  1  0.648900  0.587300  0.684300  1
  H  H47  1  0.648900  0.912700  0.184300  1
  H  H48  1  0.148900  0.087300  0.815700  1
  H  H49  1  0.078200  0.430600  0.336800  1
  H  H50  1  0.578200  0.569400  0.663200  1
  H  H51  1  0.578200  0.930600  0.163200  1
  H  H52  1  0.078200  0.069400  0.836800  1
  H  H53  1  0.154500  0.453400  0.342700  1
  H  H54  1  0.654500  0.546600  0.657300  1
  H  H55  1  0.654500  0.953400  0.157300  1
  H  H56  1  0.154500  0.046600  0.842700  1
  H  H57  1  0.205000  0.855700  0.201600  1
  H  H58  1  0.705000  0.144300  0.798400  1
  H  H59  1  0.705000  0.355700  0.298400  1
  H  H60  1  0.205000  0.644300  0.701600  1
  H  H61  1  0.243100  0.817400  0.179800  1
  H  H62  1  0.743100  0.182600  0.820200  1
  H  H63  1  0.743100  0.317400  0.320200  1
  H  H64  1  0.243100  0.682600  0.679800  1
  H  H65  1  0.220500  0.813200  0.224700  1
  H  H66  1  0.720500  0.186800  0.775300  1
  H  H67  1  0.720500  0.313200  0.275300  1
  H  H68  1  0.220500  0.686800  0.724700  1
  H  H69  1  0.257200  0.635300  0.471300  1
  H  H70  1  0.757200  0.364700  0.528700  1
  H  H71  1  0.757200  0.135300  0.028700  1
  H  H72  1  0.257200  0.864700  0.971300  1
  H  H73  1  0.335100  0.656900  0.472900  1
  H  H74  1  0.835100  0.343100  0.527100  1
  H  H75  1  0.835100  0.156900  0.027100  1
  H  H76  1  0.335100  0.843100  0.972900  1
  H  H77  1  0.321300  0.618400  0.444200  1
  H  H78  1  0.821300  0.381600  0.555800  1
  H  H79  1  0.821300  0.118400  0.055800  1
  H  H80  1  0.321300  0.881600  0.944200  1
  H  H81  1  0.248500  0.587200  0.635300  1
  H  H82  1  0.748500  0.412800  0.364700  1
  H  H83  1  0.748500  0.087200  0.864700  1
  H  H84  1  0.248500  0.912800  0.135300  1
  H  H85  1  0.301100  0.624900  0.624000  1
  H  H86  1  0.801100  0.375100  0.376000  1
  H  H87  1  0.801100  0.124900  0.876000  1
  H  H88  1  0.301100  0.875100  0.124000  1
  H  H89  1  0.334000  0.582600  0.641300  1
  H  H90  1  0.834000  0.417400  0.358700  1
  H  H91  1  0.834000  0.082600  0.858700  1
  H  H92  1  0.334000  0.917400  0.141300  1
  H  H93  1  0.242300  0.466700  0.689000  1
  H  H94  1  0.742300  0.533300  0.311000  1
  H  H95  1  0.742300  0.966700  0.811000  1
  H  H96  1  0.242300  0.033300  0.189000  1
  H  H97  1  0.199800  0.427800  0.670800  1
  H  H98  1  0.699800  0.572200  0.329200  1
  H  H99  1  0.699800  0.927800  0.829200  1
  H  H100  1  0.199800  0.072200  0.170800  1
  H  H101  1  0.155700  0.466200  0.688800  1
  H  H102  1  0.655700  0.533800  0.311200  1
  H  H103  1  0.655700  0.966200  0.811200  1
  H  H104  1  0.155700  0.033800  0.188800  1
  H  H105  1  0.533500  0.319500  0.557700  1
  H  H106  1  0.033500  0.680500  0.442300  1
  H  H107  1  0.033500  0.819500  0.942300  1
  H  H108  1  0.533500  0.180500  0.057700  1
  H  H109  1  0.493400  0.288300  0.528300  1
  H  H110  1  0.993400  0.711700  0.471700  1
  H  H111  1  0.993400  0.788300  0.971700  1
  H  H112  1  0.493400  0.211700  0.028300  1
  H  H113  1  0.579900  0.288900  0.530600  1
  H  H114  1  0.079900  0.711100  0.469400  1
  H  H115  1  0.079900  0.788900  0.969400  1
  H  H116  1  0.579900  0.211100  0.030600  1
  H  H117  1  0.032400  0.462900  0.395700  1
  H  H118  1  0.532400  0.537100  0.604300  1
  H  H119  1  0.532400  0.962900  0.104300  1
  H  H120  1  0.032400  0.037100  0.895700  1
  H  H121  1  0.992400  0.476400  0.435100  1
  H  H122  1  0.492400  0.523600  0.564900  1
  H  H123  1  0.492400  0.976400  0.064900  1
  H  H124  1  0.992400  0.023600  0.935100  1
  H  H125  1  0.043100  0.509000  0.412800  1
  H  H126  1  0.543100  0.491000  0.587200  1
  H  H127  1  0.543100  0.009000  0.087200  1
  H  H128  1  0.043100  0.991000  0.912800  1
  H  H129  1  0.775000  0.806200  0.121500  1
  H  H130  1  0.275000  0.193800  0.878500  1
  H  H131  1  0.275000  0.306200  0.378500  1
  H  H132  1  0.775000  0.693800  0.621500  1
  H  H133  1  0.697600  0.786800  0.131800  1
  H  H134  1  0.197600  0.213200  0.868200  1
  H  H135  1  0.197600  0.286800  0.368200  1
  H  H136  1  0.697600  0.713200  0.631800  1
  H  H137  1  0.740200  0.771300  0.093800  1
  H  H138  1  0.240200  0.228700  0.906200  1
  H  H139  1  0.240200  0.271300  0.406200  1
  H  H140  1  0.740200  0.728700  0.593800  1
  H  H141  1  0.605800  0.890000  0.400100  1
  H  H142  1  0.105800  0.110000  0.599900  1
  H  H143  1  0.105800  0.390000  0.099900  1
  H  H144  1  0.605800  0.610000  0.900100  1
  H  H145  1  0.539800  0.946700  0.373100  1
  H  H146  1  0.039800  0.053300  0.626900  1
  H  H147  1  0.039800  0.446700  0.126900  1
  H  H148  1  0.539800  0.553300  0.873100  1
  H  H149  1  0.530000  0.949700  0.304600  1
  H  H150  1  0.030000  0.050300  0.695400  1
  H  H151  1  0.030000  0.449700  0.195400  1
  H  H152  1  0.530000  0.550300  0.804600  1
  H  H153  1  0.554600  0.890500  0.266000  1
  H  H154  1  0.054600  0.109500  0.734000  1
  H  H155  1  0.054600  0.390500  0.234000  1
  H  H156  1  0.554600  0.609500  0.766000  1
  H  H157  1  0.603900  0.814300  0.266100  1
  H  H158  1  0.103900  0.185700  0.733900  1
  H  H159  1  0.103900  0.314300  0.233900  1
  H  H160  1  0.603900  0.685700  0.766100  1
  H  H161  1  0.755600  0.747300  0.305700  1
  H  H162  1  0.255600  0.252700  0.694300  1
  H  H163  1  0.255600  0.247300  0.194300  1
  H  H164  1  0.755600  0.752700  0.805700  1
  H  H165  1  0.781000  0.691400  0.266400  1
  H  H166  1  0.281000  0.308600  0.733600  1
  H  H167  1  0.281000  0.191400  0.233600  1
  H  H168  1  0.781000  0.808600  0.766400  1
  H  H169  1  0.580300  0.677800  0.237200  1
  H  H170  1  0.080300  0.322200  0.762800  1
  H  H171  1  0.080300  0.177800  0.262800  1
  H  H172  1  0.580300  0.822200  0.737200  1
  H  H173  1  0.542500  0.736200  0.276500  1
  H  H174  1  0.042500  0.263800  0.723500  1
  H  H175  1  0.042500  0.236200  0.223500  1
  H  H176  1  0.542500  0.763800  0.776500  1
  H  H177  1  0.777700  0.661400  0.196200  1
  H  H178  1  0.277700  0.338600  0.803800  1
  H  H179  1  0.277700  0.161400  0.303800  1
  H  H180  1  0.777700  0.838600  0.696200  1
  H  H181  1  0.793000  0.601600  0.158100  1
  H  H182  1  0.293000  0.398400  0.841900  1
  H  H183  1  0.293000  0.101600  0.341900  1
  H  H184  1  0.793000  0.898400  0.658100  1
  H  H185  1  0.638100  0.541100  0.219700  1
  H  H186  1  0.138100  0.458900  0.780300  1
  H  H187  1  0.138100  0.041100  0.280300  1
  H  H188  1  0.638100  0.958900  0.719700  1
  H  H189  1  0.625800  0.600000  0.258300  1
  H  H190  1  0.125800  0.400000  0.741700  1
  H  H191  1  0.125800  0.100000  0.241700  1
  H  H192  1  0.625800  0.900000  0.758300  1
  H  H193  1  0.811200  0.512400  0.182300  1
  H  H194  1  0.311200  0.487600  0.817700  1
  H  H195  1  0.311200  0.012400  0.317700  1
  H  H196  1  0.811200  0.987600  0.682300  1
  H  H197  1  0.687400  0.439500  0.062900  1
  H  H198  1  0.187400  0.560500  0.937100  1
  H  H199  1  0.187400  0.939500  0.437100  1
  H  H200  1  0.687400  0.060500  0.562900  1
  H  H201  1  0.778900  0.386700  0.063400  1
  H  H202  1  0.278900  0.613300  0.936600  1
  H  H203  1  0.278900  0.886700  0.436600  1
  H  H204  1  0.778900  0.113300  0.563400  1
  H  H205  1  0.863900  0.386800  0.112900  1
  H  H206  1  0.363900  0.613200  0.887100  1
  H  H207  1  0.363900  0.886800  0.387100  1
  H  H208  1  0.863900  0.113200  0.612900  1
  H  H209  1  0.865000  0.439300  0.159200  1
  H  H210  1  0.365000  0.560700  0.840800  1
  H  H211  1  0.365000  0.939300  0.340800  1
  H  H212  1  0.865000  0.060700  0.659200  1
  H  H213  1  0.744800  0.869000  0.342200  1
  H  H214  1  0.244800  0.131000  0.657800  1
  H  H215  1  0.244800  0.369000  0.157800  1
  H  H216  1  0.744800  0.631000  0.842200  1
  H  H217  1  0.867300  0.883100  0.351700  1
  H  H218  1  0.367300  0.116900  0.648300  1
  H  H219  1  0.367300  0.383100  0.148300  1
  H  H220  1  0.867300  0.616900  0.851700  1
  H  H221  1  0.938400  0.827600  0.380300  1
  H  H222  1  0.438400  0.172400  0.619700  1
  H  H223  1  0.438400  0.327600  0.119700  1
  H  H224  1  0.938400  0.672400  0.880300  1
  H  H225  1  0.884900  0.764700  0.398100  1
  H  H226  1  0.384900  0.235300  0.601900  1
  H  H227  1  0.384900  0.264700  0.101900  1
  H  H228  1  0.884900  0.735300  0.898100  1
  H  H229  1  0.766500  0.722400  0.406200  1
  H  H230  1  0.266500  0.277600  0.593800  1
  H  H231  1  0.266500  0.222400  0.093800  1
  H  H232  1  0.766500  0.777600  0.906200  1
  H  H233  1  0.626300  0.726200  0.458900  1
  H  H234  1  0.126300  0.273800  0.541100  1
  H  H235  1  0.126300  0.226200  0.041100  1
  H  H236  1  0.626300  0.773800  0.958900  1
  H  H237  1  0.564900  0.666100  0.479000  1
  H  H238  1  0.064900  0.333900  0.521000  1
  H  H239  1  0.064900  0.166100  0.021000  1
  H  H240  1  0.564900  0.833900  0.979000  1
  H  H241  1  0.583900  0.617900  0.370200  1
  H  H242  1  0.083900  0.382100  0.629800  1
  H  H243  1  0.083900  0.117900  0.129800  1
  H  H244  1  0.583900  0.882100  0.870200  1
  H  H245  1  0.645300  0.678000  0.350000  1
  H  H246  1  0.145300  0.322000  0.650000  1
  H  H247  1  0.145300  0.178000  0.150000  1
  H  H248  1  0.645300  0.822000  0.850000  1
  H  H249  1  0.595800  0.581000  0.484400  1
  H  H250  1  0.095800  0.419000  0.515600  1
  H  H251  1  0.095800  0.081000  0.015600  1
  H  H252  1  0.595800  0.919000  0.984400  1
  H  H253  1  0.536600  0.518700  0.500500  1
  H  H254  1  0.036600  0.481300  0.499500  1
  H  H255  1  0.036600  0.018700  0.999500  1
  H  H256  1  0.536600  0.981300  0.000500  1
  H  H257  1  0.385700  0.542000  0.417500  1
  H  H258  1  0.885700  0.458000  0.582500  1
  H  H259  1  0.885700  0.042000  0.082500  1
  H  H260  1  0.385700  0.958000  0.917500  1
  H  H261  1  0.444900  0.604300  0.401400  1
  H  H262  1  0.944900  0.395700  0.598600  1
  H  H263  1  0.944900  0.104300  0.098600  1
  H  H264  1  0.444900  0.895700  0.901400  1
  H  H265  1  0.359300  0.513700  0.506700  1
  H  H266  1  0.859300  0.486300  0.493300  1
  H  H267  1  0.859300  0.013700  0.993300  1
  H  H268  1  0.359300  0.986300  0.006700  1
  H  H269  1  0.342600  0.356000  0.474900  1
  H  H270  1  0.842600  0.644000  0.525100  1
  H  H271  1  0.842600  0.856000  0.025100  1
  H  H272  1  0.342600  0.144000  0.974900  1
  H  H273  1  0.254400  0.348500  0.523400  1
  H  H274  1  0.754400  0.651500  0.476600  1
  H  H275  1  0.754400  0.848500  0.976600  1
  H  H276  1  0.254400  0.151500  0.023400  1
  H  H277  1  0.217200  0.404100  0.558100  1
  H  H278  1  0.717200  0.595900  0.441900  1
  H  H279  1  0.717200  0.904100  0.941900  1
  H  H280  1  0.217200  0.095900  0.058100  1
  H  H281  1  0.264700  0.469300  0.544100  1
  H  H282  1  0.764700  0.530700  0.455900  1
  H  H283  1  0.764700  0.969300  0.955900  1
  H  H284  1  0.264700  0.030700  0.044100  1
  H  H285  1  0.730100  0.842200  0.434800  1
  H  H286  1  0.230100  0.157800  0.565200  1
  H  H287  1  0.230100  0.342200  0.065200  1
  H  H288  1  0.730100  0.657800  0.934800  1
  H  H289  1  0.709000  0.862500  0.499400  1
  H  H290  1  0.209000  0.137500  0.500600  1
  H  H291  1  0.209000  0.362500  0.000600  1
  H  H292  1  0.709000  0.637500  0.999400  1
  H  H293  1  0.596400  0.850100  0.528200  1
  H  H294  1  0.096400  0.149900  0.471800  1
  H  H295  1  0.096400  0.350100  0.971800  1
  H  H296  1  0.596400  0.649900  0.028200  1
  H  H297  1  0.504700  0.817300  0.492400  1
  H  H298  1  0.004700  0.182700  0.507600  1
  H  H299  1  0.004700  0.317300  0.007600  1
  H  H300  1  0.504700  0.682700  0.992400  1
  H  H301  1  0.464600  0.786500  0.425100  1
  H  H302  1  0.964600  0.213500  0.574900  1
  H  H303  1  0.964600  0.286500  0.074900  1
  H  H304  1  0.464600  0.713500  0.925100  1
  H  H305  1  0.449600  0.832100  0.340900  1
  H  H306  1  0.949600  0.167900  0.659100  1
  H  H307  1  0.949600  0.332100  0.159100  1
  H  H308  1  0.449600  0.667900  0.840900  1
  H  H309  1  0.344800  0.815100  0.303500  1
  H  H310  1  0.844800  0.184900  0.696500  1
  H  H311  1  0.844800  0.315100  0.196500  1
  H  H312  1  0.344800  0.684900  0.803500  1
  H  H313  1  0.403000  0.694400  0.313700  1
  H  H314  1  0.903000  0.305600  0.686300  1
  H  H315  1  0.903000  0.194400  0.186300  1
  H  H316  1  0.403000  0.805600  0.813700  1
  H  H317  1  0.495100  0.712400  0.356800  1
  H  H318  1  0.995100  0.287600  0.643200  1
  H  H319  1  0.995100  0.212400  0.143200  1
  H  H320  1  0.495100  0.787600  0.856800  1
  H  H321  1  0.231300  0.775400  0.302900  1
  H  H322  1  0.731300  0.224600  0.697100  1
  H  H323  1  0.731300  0.275400  0.197100  1
  H  H324  1  0.231300  0.724600  0.802900  1
  H  H325  1  0.130700  0.746200  0.270400  1
  H  H326  1  0.630700  0.253800  0.729600  1
  H  H327  1  0.630700  0.246200  0.229600  1
  H  H328  1  0.130700  0.753800  0.770400  1
  H  H329  1  0.264700  0.674300  0.208800  1
  H  H330  1  0.764700  0.325700  0.791200  1
  H  H331  1  0.764700  0.174300  0.291200  1
  H  H332  1  0.264700  0.825700  0.708800  1
  H  H333  1  0.361500  0.696800  0.247700  1
  H  H334  1  0.861500  0.303200  0.752300  1
  H  H335  1  0.861500  0.196800  0.252300  1
  H  H336  1  0.361500  0.803200  0.747700  1
  H  H337  1  0.164300  0.715400  0.164700  1
  H  H338  1  0.664300  0.284600  0.835300  1
  H  H339  1  0.664300  0.215400  0.335300  1
  H  H340  1  0.164300  0.784600  0.664700  1
  H  H341  1  0.928400  0.631500  0.174400  1
  H  H342  1  0.428400  0.368500  0.825600  1
  H  H343  1  0.428400  0.131500  0.325600  1
  H  H344  1  0.928400  0.868500  0.674400  1
  H  H345  1  0.902200  0.645900  0.111300  1
  H  H346  1  0.402200  0.354100  0.888700  1
  H  H347  1  0.402200  0.145900  0.388700  1
  H  H348  1  0.902200  0.854100  0.611300  1
  H  H349  1  0.976000  0.686500  0.073400  1
  H  H350  1  0.476000  0.313500  0.926600  1
  H  H351  1  0.476000  0.186500  0.426600  1
  H  H352  1  0.976000  0.813500  0.573400  1
  H  H353  1  0.091400  0.707500  0.100300  1
  H  H354  1  0.591400  0.292500  0.899700  1
  H  H355  1  0.591400  0.207500  0.399700  1
  H  H356  1  0.091400  0.792500  0.600300  1
  H  H357  1  0.652200  0.538400  0.021700  1
  H  H358  1  0.152200  0.461600  0.978300  1
  H  H359  1  0.152200  0.038400  0.478300  1
  H  H360  1  0.652200  0.961600  0.521700  1
  H  H361  1  0.590100  0.505500  0.970800  1
  H  H362  1  0.090100  0.494500  0.029200  1
  H  H363  1  0.090100  0.005500  0.529200  1
  H  H364  1  0.590100  0.994500  0.470800  1
  H  H365  1  0.494900  0.466100  0.982000  1
  H  H366  1  0.994900  0.533900  0.018000  1
  H  H367  1  0.994900  0.966100  0.518000  1
  H  H368  1  0.494900  0.033900  0.482000  1
  H  H369  1  0.473000  0.441500  0.048000  1
  H  H370  1  0.973000  0.558500  0.952000  1
  H  H371  1  0.973000  0.941500  0.452000  1
  H  H372  1  0.473000  0.058500  0.548000  1
  H  H373  1  0.503100  0.450700  0.119800  1
  H  H374  1  0.003100  0.549300  0.880200  1
  H  H375  1  0.003100  0.950700  0.380200  1
  H  H376  1  0.503100  0.049300  0.619800  1
  H  H377  1  0.482700  0.503800  0.182300  1
  H  H378  1  0.982700  0.496200  0.817700  1
  H  H379  1  0.982700  0.003800  0.317700  1
  H  H380  1  0.482700  0.996200  0.682300  1
  H  H381  1  0.470800  0.491900  0.247500  1
  H  H382  1  0.970800  0.508100  0.752500  1
  H  H383  1  0.970800  0.991900  0.252500  1
  H  H384  1  0.470800  0.008100  0.747500  1
  H  H385  1  0.664900  0.433800  0.251600  1
  H  H386  1  0.164900  0.566200  0.748400  1
  H  H387  1  0.164900  0.933800  0.248400  1
  H  H388  1  0.664900  0.066200  0.751600  1
  H  H389  1  0.675000  0.440000  0.182900  1
  H  H390  1  0.175000  0.560000  0.817100  1
  H  H391  1  0.175000  0.940000  0.317100  1
  H  H392  1  0.675000  0.060000  0.682900  1
  H  H393  1  0.512800  0.511200  0.307300  1
  H  H394  1  0.012800  0.488800  0.692700  1
  H  H395  1  0.012800  0.011200  0.192700  1
  H  H396  1  0.512800  0.988800  0.807300  1
  H  H397  1  0.501100  0.503100  0.379500  1
  H  H398  1  0.001100  0.496900  0.620500  1
  H  H399  1  0.001100  0.003100  0.120500  1
  H  H400  1  0.501100  0.996900  0.879500  1
  H  H401  1  0.581500  0.388300  0.369400  1
  H  H402  1  0.081500  0.611700  0.630600  1
  H  H403  1  0.081500  0.888300  0.130600  1
  H  H404  1  0.581500  0.111700  0.869400  1
  H  H405  1  0.601500  0.399000  0.302100  1
  H  H406  1  0.101500  0.601000  0.697900  1
  H  H407  1  0.101500  0.899000  0.197900  1
  H  H408  1  0.601500  0.101000  0.802100  1
  H  H409  1  0.640000  0.439000  0.429300  1
  H  H410  1  0.140000  0.561000  0.570700  1
  H  H411  1  0.140000  0.939000  0.070700  1
  H  H412  1  0.640000  0.061000  0.929300  1
  H  H413  1  0.450000  0.408200  0.539200  1
  H  H414  1  0.950000  0.591800  0.460800  1
  H  H415  1  0.950000  0.908200  0.960800  1
  H  H416  1  0.450000  0.091800  0.039200  1
  H  H417  1  0.543800  0.396500  0.583600  1
  H  H418  1  0.043800  0.603500  0.416400  1
  H  H419  1  0.043800  0.896500  0.916400  1
  H  H420  1  0.543800  0.103500  0.083600  1
  H  H421  1  0.663300  0.408600  0.563900  1
  H  H422  1  0.163300  0.591400  0.436100  1
  H  H423  1  0.163300  0.908600  0.936100  1
  H  H424  1  0.663300  0.091400  0.063900  1
  H  H425  1  0.687100  0.426900  0.500200  1
  H  H426  1  0.187100  0.573100  0.499800  1
  H  H427  1  0.187100  0.926900  0.999800  1
  H  H428  1  0.687100  0.073100  0.000200  1
  H  H429  1  0.801600  0.522400  0.060700  1
  H  H430  1  0.301600  0.477600  0.939300  1
  H  H431  1  0.301600  0.022400  0.439300  1
  H  H432  1  0.801600  0.977600  0.560700  1
  H  H433  1  0.872700  0.573800  0.034600  1
  H  H434  1  0.372700  0.426200  0.965400  1
  H  H435  1  0.372700  0.073800  0.465400  1
  H  H436  1  0.872700  0.926200  0.534600  1
  H  H437  1  0.838200  0.647000  0.041900  1
  H  H438  1  0.338200  0.353000  0.958100  1
  H  H439  1  0.338200  0.147000  0.458100  1
  H  H440  1  0.838200  0.853000  0.541900  1
  H  H441  1  0.727700  0.660900  0.078900  1
  H  H442  1  0.227700  0.339100  0.921100  1
  H  H443  1  0.227700  0.160900  0.421100  1
  H  H444  1  0.727700  0.839100  0.578900  1
  H  H445  1  0.609000  0.629900  0.110400  1
  H  H446  1  0.109000  0.370100  0.889600  1
  H  H447  1  0.109000  0.129900  0.389600  1
  H  H448  1  0.609000  0.870100  0.610400  1
  H  H449  1  0.556800  0.610600  0.177500  1
  H  H450  1  0.056800  0.389400  0.822500  1
  H  H451  1  0.056800  0.110600  0.322500  1
  H  H452  1  0.556800  0.889400  0.677500  1
  H  H453  1  0.439600  0.614300  0.203800  1
  H  H454  1  0.939600  0.385700  0.796200  1
  H  H455  1  0.939600  0.114300  0.296200  1
  H  H456  1  0.439600  0.885700  0.703800  1
  H  H457  1  0.359900  0.549100  0.113000  1
  H  H458  1  0.859900  0.450900  0.887000  1
  H  H459  1  0.859900  0.049100  0.387000  1
  H  H460  1  0.359900  0.950900  0.613000  1
  H  H461  1  0.482700  0.541700  0.089400  1
  H  H462  1  0.982700  0.458300  0.910600  1
  H  H463  1  0.982700  0.041700  0.410600  1
  H  H464  1  0.482700  0.958300  0.589400  1
  H  H465  1  0.336100  0.572000  0.232000  1
  H  H466  1  0.836100  0.428000  0.768000  1
  H  H467  1  0.836100  0.072000  0.268000  1
  H  H468  1  0.336100  0.928000  0.732000  1
  H  H469  1  0.222400  0.579900  0.256700  1
  H  H470  1  0.722400  0.420100  0.743300  1
  H  H471  1  0.722400  0.079900  0.243300  1
  H  H472  1  0.222400  0.920100  0.756700  1
  H  H473  1  0.153800  0.614400  0.148900  1
  H  H474  1  0.653800  0.385600  0.851100  1
  H  H475  1  0.653800  0.114400  0.351100  1
  H  H476  1  0.153800  0.885600  0.648900  1
  H  H477  1  0.265800  0.603200  0.124600  1
  H  H478  1  0.765800  0.396800  0.875400  1
  H  H479  1  0.765800  0.103200  0.375400  1
  H  H480  1  0.265800  0.896800  0.624600  1
  H  H481  1  0.086100  0.543100  0.217100  1
  H  H482  1  0.586100  0.456900  0.782900  1
  H  H483  1  0.586100  0.043100  0.282900  1
  H  H484  1  0.086100  0.956900  0.717100  1
  H  H485  1  0.891800  0.650400  0.262700  1
  H  H486  1  0.391800  0.349600  0.737300  1
  H  H487  1  0.391800  0.150400  0.237300  1
  H  H488  1  0.891800  0.849600  0.762700  1
  H  H489  1  0.808100  0.596500  0.274400  1
  H  H490  1  0.308100  0.403500  0.725600  1
  H  H491  1  0.308100  0.096500  0.225600  1
  H  H492  1  0.808100  0.903500  0.774400  1
  H  H493  1  0.838400  0.529400  0.263200  1
  H  H494  1  0.338400  0.470600  0.736800  1
  H  H495  1  0.338400  0.029400  0.236800  1
  H  H496  1  0.838400  0.970600  0.763200  1
  H  H497  1  0.959500  0.511800  0.242000  1
  H  H498  1  0.459500  0.488200  0.758000  1
  H  H499  1  0.459500  0.011800  0.258000  1
  H  H500  1  0.959500  0.988200  0.742000  1
  H  H501  1  0.518400  0.342500  0.468100  1
  H  H502  1  0.018400  0.657500  0.531900  1
  H  H503  1  0.018400  0.842500  0.031900  1
  H  H504  1  0.518400  0.157500  0.968100  1
  H  H505  1  0.518600  0.279100  0.443300  1
  H  H506  1  0.018600  0.720900  0.556700  1
  H  H507  1  0.018600  0.779100  0.056700  1
  H  H508  1  0.518600  0.220900  0.943300  1
  H  H509  1  0.466100  0.267200  0.379300  1
  H  H510  1  0.966100  0.732800  0.620700  1
  H  H511  1  0.966100  0.767200  0.120700  1
  H  H512  1  0.466100  0.232800  0.879300  1
  H  H513  1  0.390900  0.319700  0.354100  1
  H  H514  1  0.890900  0.680300  0.645900  1
  H  H515  1  0.890900  0.819700  0.145900  1
  H  H516  1  0.390900  0.180300  0.854100  1
  H  H517  1  0.345200  0.396700  0.359800  1
  H  H518  1  0.845200  0.603300  0.640200  1
  H  H519  1  0.845200  0.896700  0.140200  1
  H  H520  1  0.345200  0.103300  0.859800  1
  H  H521  1  0.263700  0.467900  0.436700  1
  H  H522  1  0.763700  0.532100  0.563300  1
  H  H523  1  0.763700  0.967900  0.063300  1
  H  H524  1  0.263700  0.032100  0.936700  1
  H  H525  1  0.185600  0.516200  0.413500  1
  H  H526  1  0.685600  0.483800  0.586500  1
  H  H527  1  0.685600  0.016200  0.086500  1
  H  H528  1  0.185600  0.983800  0.913500  1
  H  H529  1  0.304000  0.525100  0.315300  1
  H  H530  1  0.804000  0.474900  0.684700  1
  H  H531  1  0.804000  0.025100  0.184700  1
  H  H532  1  0.304000  0.974900  0.815300  1
  H  H533  1  0.381400  0.472300  0.338700  1
  H  H534  1  0.881400  0.527700  0.661300  1
  H  H535  1  0.881400  0.972300  0.161300  1
  H  H536  1  0.381400  0.027700  0.838700  1
  H  H537  1  0.100000  0.537700  0.355200  1
  H  H538  1  0.600000  0.462300  0.644800  1
  H  H539  1  0.600000  0.037700  0.144800  1
  H  H540  1  0.100000  0.962300  0.855200  1
  H  H541  1  0.034700  0.585900  0.318900  1
  H  H542  1  0.534700  0.414100  0.681100  1
  H  H543  1  0.534700  0.085900  0.181100  1
  H  H544  1  0.034700  0.914100  0.818900  1
  H  H545  1  0.210800  0.656800  0.305200  1
  H  H546  1  0.710800  0.343200  0.694800  1
  H  H547  1  0.710800  0.156800  0.194800  1
  H  H548  1  0.210800  0.843200  0.805200  1
  H  H549  1  0.282400  0.608100  0.338800  1
  H  H550  1  0.782400  0.391900  0.661200  1
  H  H551  1  0.782400  0.108100  0.161200  1
  H  H552  1  0.282400  0.891900  0.838800  1
  H  H553  1  0.046900  0.686700  0.337400  1
  H  H554  1  0.546900  0.313300  0.662600  1
  H  H555  1  0.546900  0.186700  0.162600  1
  H  H556  1  0.046900  0.813300  0.837400  1
  H  H557  1  0.944500  0.721200  0.201000  1
  H  H558  1  0.444500  0.278800  0.799000  1
  H  H559  1  0.444500  0.221200  0.299000  1
  H  H560  1  0.944500  0.778800  0.701000  1
  H  H561  1  0.875200  0.776600  0.225600  1
  H  H562  1  0.375200  0.223400  0.774400  1
  H  H563  1  0.375200  0.276600  0.274400  1
  H  H564  1  0.875200  0.723400  0.725600  1
  H  H565  1  0.887800  0.789700  0.294400  1
  H  H566  1  0.387800  0.210300  0.705600  1
  H  H567  1  0.387800  0.289700  0.205600  1
  H  H568  1  0.887800  0.710300  0.794400  1
  H  H569  1  0.961500  0.749700  0.332200  1
  H  H570  1  0.461500  0.250300  0.667800  1
  H  H571  1  0.461500  0.249700  0.167800  1
  H  H572  1  0.961500  0.750300  0.832200  1
  C  C573  1  0.110400  0.462600  0.292900  1
  C  C574  1  0.610400  0.537400  0.707100  1
  C  C575  1  0.610400  0.962600  0.207100  1
  C  C576  1  0.110400  0.037400  0.792900  1
  C  C577  1  0.124000  0.438200  0.324200  1
  C  C578  1  0.624000  0.561800  0.675800  1
  C  C579  1  0.624000  0.938200  0.175800  1
  C  C580  1  0.124000  0.061800  0.824200  1
  C  C581  1  0.129000  0.807800  0.186700  1
  C  C582  1  0.629000  0.192200  0.813300  1
  C  C583  1  0.629000  0.307800  0.313300  1
  C  C584  1  0.129000  0.692200  0.686700  1
  C  C585  1  0.207000  0.825200  0.199500  1
  C  C586  1  0.707000  0.174800  0.800500  1
  C  C587  1  0.707000  0.325200  0.300500  1
  C  C588  1  0.207000  0.674800  0.699500  1
  C  C589  1  0.278000  0.674900  0.424000  1
  C  C590  1  0.778000  0.325100  0.576000  1
  C  C591  1  0.778000  0.174900  0.076000  1
  C  C592  1  0.278000  0.825100  0.924000  1
  C  C593  1  0.300000  0.643000  0.456000  1
  C  C594  1  0.800000  0.357000  0.544000  1
  C  C595  1  0.800000  0.143000  0.044000  1
  C  C596  1  0.300000  0.857000  0.956000  1
  C  C597  1  0.303700  0.575900  0.580800  1
  C  C598  1  0.803700  0.424100  0.419200  1
  C  C599  1  0.803700  0.075900  0.919200  1
  C  C600  1  0.303700  0.924100  0.080800  1
  C  C601  1  0.296000  0.594500  0.624700  1
  C  C602  1  0.796000  0.405500  0.375300  1
  C  C603  1  0.796000  0.094500  0.875300  1
  C  C604  1  0.296000  0.905500  0.124700  1
  C  C605  1  0.199300  0.478800  0.635800  1
  C  C606  1  0.699300  0.521200  0.364200  1
  C  C607  1  0.699300  0.978800  0.864200  1
  C  C608  1  0.199300  0.021200  0.135800  1
  C  C609  1  0.199300  0.458100  0.674300  1
  C  C610  1  0.699300  0.541900  0.325700  1
  C  C611  1  0.699300  0.958100  0.825700  1
  C  C612  1  0.199300  0.041900  0.174300  1
  C  C613  1  0.533000  0.261500  0.574600  1
  C  C614  1  0.033000  0.738500  0.425400  1
  C  C615  1  0.033000  0.761500  0.925400  1
  C  C616  1  0.533000  0.238500  0.074600  1
  C  C617  1  0.535100  0.291800  0.545700  1
  C  C618  1  0.035100  0.708200  0.454300  1
  C  C619  1  0.035100  0.791800  0.954300  1
  C  C620  1  0.535100  0.208200  0.045700  1
  C  C621  1  0.943800  0.501000  0.385800  1
  C  C622  1  0.443800  0.499000  0.614200  1
  C  C623  1  0.443800  0.001000  0.114200  1
  C  C624  1  0.943800  0.999000  0.885800  1
  C  C625  1  0.008800  0.486000  0.409500  1
  C  C626  1  0.508800  0.514000  0.590500  1
  C  C627  1  0.508800  0.986000  0.090500  1
  C  C628  1  0.008800  0.014000  0.909500  1
  C  C629  1  0.783000  0.745700  0.145700  1
  C  C630  1  0.283000  0.254300  0.854300  1
  C  C631  1  0.283000  0.245700  0.354300  1
  C  C632  1  0.783000  0.754300  0.645700  1
  C  C633  1  0.745400  0.780800  0.120900  1
  C  C634  1  0.245400  0.219200  0.879100  1
  C  C635  1  0.245400  0.280800  0.379100  1
  C  C636  1  0.745400  0.719200  0.620900  1
  C  C637  1  0.589800  0.857300  0.311700  1
  C  C638  1  0.089800  0.142700  0.688300  1
  C  C639  1  0.089800  0.357300  0.188300  1
  C  C640  1  0.589800  0.642700  0.811700  1
  C  C641  1  0.591200  0.889400  0.373500  1
  C  C642  1  0.091200  0.110600  0.626500  1
  C  C643  1  0.091200  0.389400  0.126500  1
  C  C644  1  0.591200  0.610600  0.873500  1
  C  C645  1  0.556400  0.924400  0.357200  1
  C  C646  1  0.056400  0.075600  0.642800  1
  C  C647  1  0.056400  0.424400  0.142800  1
  C  C648  1  0.556400  0.575600  0.857200  1
  C  C649  1  0.547300  0.924900  0.316600  1
  C  C650  1  0.047300  0.075100  0.683400  1
  C  C651  1  0.047300  0.424900  0.183400  1
  C  C652  1  0.547300  0.575100  0.816600  1
  C  C653  1  0.562800  0.890400  0.293300  1
  C  C654  1  0.062800  0.109600  0.706700  1
  C  C655  1  0.062800  0.390400  0.206700  1
  C  C656  1  0.562800  0.609600  0.793300  1
  C  C657  1  0.608000  0.817500  0.293600  1
  C  C658  1  0.108000  0.182500  0.706400  1
  C  C659  1  0.108000  0.317500  0.206400  1
  C  C660  1  0.608000  0.682500  0.793600  1
  C  C661  1  0.650900  0.748500  0.293600  1
  C  C662  1  0.150900  0.251500  0.706400  1
  C  C663  1  0.150900  0.248500  0.206400  1
  C  C664  1  0.650900  0.751500  0.793600  1
  C  C665  1  0.717800  0.733900  0.291800  1
  C  C666  1  0.217800  0.266100  0.708200  1
  C  C667  1  0.217800  0.233900  0.208200  1
  C  C668  1  0.717800  0.766100  0.791800  1
  C  C669  1  0.732000  0.699600  0.269800  1
  C  C670  1  0.232000  0.300400  0.730200  1
  C  C671  1  0.232000  0.199600  0.230200  1
  C  C672  1  0.732000  0.800400  0.769800  1
  C  C673  1  0.681000  0.677200  0.253000  1
  C  C674  1  0.181000  0.322800  0.747000  1
  C  C675  1  0.181000  0.177200  0.247000  1
  C  C676  1  0.681000  0.822800  0.753000  1
  C  C677  1  0.615100  0.691800  0.252900  1
  C  C678  1  0.115100  0.308200  0.747100  1
  C  C679  1  0.115100  0.191800  0.247100  1
  C  C680  1  0.615100  0.808200  0.752900  1
  C  C681  1  0.591500  0.727500  0.274700  1
  C  C682  1  0.091500  0.272500  0.725300  1
  C  C683  1  0.091500  0.227500  0.225300  1
  C  C684  1  0.591500  0.772500  0.774700  1
  C  C685  1  0.696700  0.637700  0.229500  1
  C  C686  1  0.196700  0.362300  0.770500  1
  C  C687  1  0.196700  0.137700  0.270500  1
  C  C688  1  0.696700  0.862300  0.729500  1
  C  C689  1  0.748500  0.637500  0.200600  1
  C  C690  1  0.248500  0.362500  0.799400  1
  C  C691  1  0.248500  0.137500  0.299400  1
  C  C692  1  0.748500  0.862500  0.700600  1
  C  C693  1  0.757300  0.601800  0.178000  1
  C  C694  1  0.257300  0.398200  0.822000  1
  C  C695  1  0.257300  0.101800  0.322000  1
  C  C696  1  0.757300  0.898200  0.678000  1
  C  C697  1  0.714700  0.565800  0.184000  1
  C  C698  1  0.214700  0.434200  0.816000  1
  C  C699  1  0.214700  0.065800  0.316000  1
  C  C700  1  0.714700  0.934200  0.684000  1
  C  C701  1  0.666000  0.565300  0.214400  1
  C  C702  1  0.166000  0.434700  0.785600  1
  C  C703  1  0.166000  0.065300  0.285600  1
  C  C704  1  0.666000  0.934700  0.714400  1
  C  C705  1  0.658400  0.600700  0.236900  1
  C  C706  1  0.158400  0.399300  0.763100  1
  C  C707  1  0.158400  0.100700  0.263100  1
  C  C708  1  0.658400  0.899300  0.736900  1
  C  C709  1  0.777000  0.507200  0.162200  1
  C  C710  1  0.277000  0.492800  0.837800  1
  C  C711  1  0.277000  0.007200  0.337800  1
  C  C712  1  0.777000  0.992800  0.662200  1
  C  C713  1  0.786500  0.471800  0.134400  1
  C  C714  1  0.286500  0.528200  0.865600  1
  C  C715  1  0.286500  0.971800  0.365600  1
  C  C716  1  0.786500  0.028200  0.634400  1
  C  C717  1  0.725500  0.440400  0.081500  1
  C  C718  1  0.225500  0.559600  0.918500  1
  C  C719  1  0.225500  0.940400  0.418500  1
  C  C720  1  0.725500  0.059600  0.581500  1
  C  C721  1  0.778800  0.408200  0.082500  1
  C  C722  1  0.278800  0.591800  0.917500  1
  C  C723  1  0.278800  0.908200  0.417500  1
  C  C724  1  0.778800  0.091800  0.582500  1
  C  C725  1  0.829500  0.408700  0.111400  1
  C  C726  1  0.329500  0.591300  0.888600  1
  C  C727  1  0.329500  0.908700  0.388600  1
  C  C728  1  0.829500  0.091300  0.611400  1
  C  C729  1  0.831600  0.440200  0.138200  1
  C  C730  1  0.331600  0.559800  0.861800  1
  C  C731  1  0.331600  0.940200  0.361800  1
  C  C732  1  0.831600  0.059800  0.638200  1
  C  C733  1  0.783500  0.783200  0.382600  1
  C  C734  1  0.283500  0.216800  0.617400  1
  C  C735  1  0.283500  0.283200  0.117400  1
  C  C736  1  0.783500  0.716800  0.882600  1
  C  C737  1  0.773700  0.848300  0.354500  1
  C  C738  1  0.273700  0.151700  0.645500  1
  C  C739  1  0.273700  0.348300  0.145500  1
  C  C740  1  0.773700  0.651700  0.854500  1
  C  C741  1  0.846500  0.857200  0.359200  1
  C  C742  1  0.346500  0.142800  0.640800  1
  C  C743  1  0.346500  0.357200  0.140800  1
  C  C744  1  0.846500  0.642800  0.859200  1
  C  C745  1  0.887900  0.823800  0.376500  1
  C  C746  1  0.387900  0.176200  0.623500  1
  C  C747  1  0.387900  0.323800  0.123500  1
  C  C748  1  0.887900  0.676200  0.876500  1
  C  C749  1  0.856900  0.786800  0.387500  1
  C  C750  1  0.356900  0.213200  0.612500  1
  C  C751  1  0.356900  0.286800  0.112500  1
  C  C752  1  0.856900  0.713200  0.887500  1
  C  C753  1  0.742900  0.745800  0.394700  1
  C  C754  1  0.242900  0.254200  0.605300  1
  C  C755  1  0.242900  0.245800  0.105300  1
  C  C756  1  0.742900  0.754200  0.894700  1
  C  C757  1  0.641600  0.707800  0.402600  1
  C  C758  1  0.141600  0.292200  0.597400  1
  C  C759  1  0.141600  0.207800  0.097400  1
  C  C760  1  0.641600  0.792200  0.902600  1
  C  C761  1  0.617700  0.704200  0.440900  1
  C  C762  1  0.117700  0.295800  0.559100  1
  C  C763  1  0.117700  0.204200  0.059100  1
  C  C764  1  0.617700  0.795800  0.940900  1
  C  C765  1  0.581200  0.668500  0.452800  1
  C  C766  1  0.081200  0.331500  0.547200  1
  C  C767  1  0.081200  0.168500  0.047200  1
  C  C768  1  0.581200  0.831500  0.952800  1
  C  C769  1  0.568600  0.636300  0.426500  1
  C  C770  1  0.068600  0.363700  0.573500  1
  C  C771  1  0.068600  0.136300  0.073500  1
  C  C772  1  0.568600  0.863700  0.926500  1
  C  C773  1  0.592500  0.639900  0.388200  1
  C  C774  1  0.092500  0.360100  0.611800  1
  C  C775  1  0.092500  0.139900  0.111800  1
  C  C776  1  0.592500  0.860100  0.888200  1
  C  C777  1  0.629000  0.675600  0.376200  1
  C  C778  1  0.129000  0.324400  0.623800  1
  C  C779  1  0.129000  0.175600  0.123800  1
  C  C780  1  0.629000  0.824400  0.876200  1
  C  C781  1  0.525900  0.598500  0.441400  1
  C  C782  1  0.025900  0.401500  0.558600  1
  C  C783  1  0.025900  0.098500  0.058600  1
  C  C784  1  0.525900  0.901500  0.941400  1
  C  C785  1  0.553100  0.573100  0.470800  1
  C  C786  1  0.053100  0.426900  0.529200  1
  C  C787  1  0.053100  0.073100  0.029200  1
  C  C788  1  0.553100  0.926900  0.970800  1
  C  C789  1  0.518000  0.536100  0.480400  1
  C  C790  1  0.018000  0.463900  0.519600  1
  C  C791  1  0.018000  0.036100  0.019600  1
  C  C792  1  0.518000  0.963900  0.980400  1
  C  C793  1  0.455600  0.524500  0.460500  1
  C  C794  1  0.955600  0.475500  0.539500  1
  C  C795  1  0.955600  0.024500  0.039500  1
  C  C796  1  0.455600  0.975500  0.960500  1
  C  C797  1  0.428400  0.549900  0.431100  1
  C  C798  1  0.928400  0.450100  0.568900  1
  C  C799  1  0.928400  0.049900  0.068900  1
  C  C800  1  0.428400  0.950100  0.931100  1
  C  C801  1  0.463500  0.586900  0.421500  1
  C  C802  1  0.963500  0.413100  0.578500  1
  C  C803  1  0.963500  0.086900  0.078500  1
  C  C804  1  0.463500  0.913100  0.921500  1
  C  C805  1  0.371400  0.487600  0.495200  1
  C  C806  1  0.871400  0.512400  0.504800  1
  C  C807  1  0.871400  0.987600  0.004800  1
  C  C808  1  0.371400  0.012400  0.995200  1
  C  C809  1  0.335600  0.449500  0.505700  1
  C  C810  1  0.835600  0.550500  0.494300  1
  C  C811  1  0.835600  0.949500  0.994300  1
  C  C812  1  0.335600  0.050500  0.005700  1
  C  C813  1  0.328600  0.379500  0.490100  1
  C  C814  1  0.828600  0.620500  0.509900  1
  C  C815  1  0.828600  0.879500  0.009900  1
  C  C816  1  0.328600  0.120500  0.990100  1
  C  C817  1  0.275000  0.375200  0.518600  1
  C  C818  1  0.775000  0.624800  0.481400  1
  C  C819  1  0.775000  0.875200  0.981400  1
  C  C820  1  0.275000  0.124800  0.018600  1
  C  C821  1  0.253200  0.407200  0.538500  1
  C  C822  1  0.753200  0.592800  0.461500  1
  C  C823  1  0.753200  0.907200  0.961500  1
  C  C824  1  0.253200  0.092800  0.038500  1
  C  C825  1  0.282700  0.445400  0.530900  1
  C  C826  1  0.782700  0.554600  0.469100  1
  C  C827  1  0.782700  0.945400  0.969100  1
  C  C828  1  0.282700  0.054600  0.030900  1
  C  C829  1  0.562900  0.810300  0.442300  1
  C  C830  1  0.062900  0.189700  0.557700  1
  C  C831  1  0.062900  0.310300  0.057700  1
  C  C832  1  0.562900  0.689700  0.942300  1
  C  C833  1  0.684300  0.837100  0.446500  1
  C  C834  1  0.184300  0.162900  0.553500  1
  C  C835  1  0.184300  0.337100  0.053500  1
  C  C836  1  0.684300  0.662900  0.946500  1
  C  C837  1  0.671800  0.849200  0.484800  1
  C  C838  1  0.171800  0.150800  0.515200  1
  C  C839  1  0.171800  0.349200  0.015200  1
  C  C840  1  0.671800  0.650800  0.984800  1
  C  C841  1  0.604900  0.841800  0.502000  1
  C  C842  1  0.104900  0.158200  0.498000  1
  C  C843  1  0.104900  0.341800  0.998000  1
  C  C844  1  0.604900  0.658200  0.002000  1
  C  C845  1  0.550500  0.822400  0.480700  1
  C  C846  1  0.050500  0.177600  0.519300  1
  C  C847  1  0.050500  0.322400  0.019300  1
  C  C848  1  0.550500  0.677600  0.980700  1
  C  C849  1  0.512200  0.793300  0.416700  1
  C  C850  1  0.012200  0.206700  0.583300  1
  C  C851  1  0.012200  0.293300  0.083300  1
  C  C852  1  0.512200  0.706700  0.916700  1
  C  C853  1  0.478300  0.774800  0.354600  1
  C  C854  1  0.978300  0.225200  0.645400  1
  C  C855  1  0.978300  0.274800  0.145400  1
  C  C856  1  0.478300  0.725200  0.854600  1
  C  C857  1  0.437600  0.803500  0.337000  1
  C  C858  1  0.937600  0.196500  0.663000  1
  C  C859  1  0.937600  0.303500  0.163000  1
  C  C860  1  0.437600  0.696500  0.837000  1
  C  C861  1  0.376800  0.794000  0.312600  1
  C  C862  1  0.876800  0.206000  0.687400  1
  C  C863  1  0.876800  0.294000  0.187400  1
  C  C864  1  0.376800  0.706000  0.812600  1
  C  C865  1  0.367500  0.753000  0.303000  1
  C  C866  1  0.867500  0.247000  0.697000  1
  C  C867  1  0.867500  0.253000  0.197000  1
  C  C868  1  0.367500  0.747000  0.803000  1
  C  C869  1  0.410900  0.723000  0.319800  1
  C  C870  1  0.910900  0.277000  0.680200  1
  C  C871  1  0.910900  0.223000  0.180200  1
  C  C872  1  0.410900  0.777000  0.819800  1
  C  C873  1  0.465900  0.733600  0.345500  1
  C  C874  1  0.965900  0.266400  0.654500  1
  C  C875  1  0.965900  0.233600  0.154500  1
  C  C876  1  0.465900  0.766400  0.845500  1
  C  C877  1  0.302400  0.737100  0.278100  1
  C  C878  1  0.802400  0.262900  0.721900  1
  C  C879  1  0.802400  0.237100  0.221900  1
  C  C880  1  0.302400  0.762900  0.778100  1
  C  C881  1  0.237500  0.753300  0.284700  1
  C  C882  1  0.737500  0.246700  0.715300  1
  C  C883  1  0.737500  0.253300  0.215300  1
  C  C884  1  0.237500  0.746700  0.784700  1
  C  C885  1  0.178300  0.737100  0.264200  1
  C  C886  1  0.678300  0.262900  0.735800  1
  C  C887  1  0.678300  0.237100  0.235800  1
  C  C888  1  0.178300  0.762900  0.764200  1
  C  C889  1  0.188400  0.708400  0.235500  1
  C  C890  1  0.688400  0.291600  0.764500  1
  C  C891  1  0.688400  0.208400  0.264500  1
  C  C892  1  0.188400  0.791600  0.735500  1
  C  C893  1  0.256500  0.694100  0.229000  1
  C  C894  1  0.756500  0.305900  0.771000  1
  C  C895  1  0.756500  0.194100  0.271000  1
  C  C896  1  0.256500  0.805900  0.729000  1
  C  C897  1  0.314500  0.707900  0.251400  1
  C  C898  1  0.814500  0.292100  0.748600  1
  C  C899  1  0.814500  0.207900  0.248600  1
  C  C900  1  0.314500  0.792100  0.751400  1
  C  C901  1  0.126700  0.699900  0.176900  1
  C  C902  1  0.626700  0.300100  0.823100  1
  C  C903  1  0.626700  0.199900  0.323100  1
  C  C904  1  0.126700  0.800100  0.676900  1
  C  C905  1  0.065400  0.686000  0.155500  1
  C  C906  1  0.565400  0.314000  0.844500  1
  C  C907  1  0.565400  0.186000  0.344500  1
  C  C908  1  0.065400  0.814000  0.655500  1
  C  C909  1  0.961300  0.648300  0.160000  1
  C  C910  1  0.461300  0.351700  0.840000  1
  C  C911  1  0.461300  0.148300  0.340000  1
  C  C912  1  0.961300  0.851700  0.660000  1
  C  C913  1  0.945600  0.656700  0.122100  1
  C  C914  1  0.445600  0.343300  0.877900  1
  C  C915  1  0.445600  0.156700  0.377900  1
  C  C916  1  0.945600  0.843300  0.622100  1
  C  C917  1  0.989200  0.679700  0.099500  1
  C  C918  1  0.489200  0.320300  0.900500  1
  C  C919  1  0.489200  0.179700  0.400500  1
  C  C920  1  0.989200  0.820300  0.599500  1
  C  C921  1  0.055800  0.693700  0.115600  1
  C  C922  1  0.555800  0.306300  0.884400  1
  C  C923  1  0.555800  0.193700  0.384400  1
  C  C924  1  0.055800  0.806300  0.615600  1
  C  C925  1  0.551000  0.475500  0.071600  1
  C  C926  1  0.051000  0.524500  0.928400  1
  C  C927  1  0.051000  0.975500  0.428400  1
  C  C928  1  0.551000  0.024500  0.571600  1
  C  C929  1  0.618300  0.516900  0.027000  1
  C  C930  1  0.118300  0.483100  0.973000  1
  C  C931  1  0.118300  0.016900  0.473000  1
  C  C932  1  0.618300  0.983100  0.527000  1
  C  C933  1  0.577500  0.499100  0.997000  1
  C  C934  1  0.077500  0.500900  0.003000  1
  C  C935  1  0.077500  0.999100  0.503000  1
  C  C936  1  0.577500  0.000900  0.497000  1
  C  C937  1  0.524800  0.475000  0.003000  1
  C  C938  1  0.024800  0.525000  0.997000  1
  C  C939  1  0.024800  0.975000  0.497000  1
  C  C940  1  0.524800  0.025000  0.503000  1
  C  C941  1  0.510700  0.460900  0.042900  1
  C  C942  1  0.010700  0.539100  0.957100  1
  C  C943  1  0.010700  0.960900  0.457100  1
  C  C944  1  0.510700  0.039100  0.542900  1
  C  C945  1  0.542300  0.467400  0.110900  1
  C  C946  1  0.042300  0.532600  0.889100  1
  C  C947  1  0.042300  0.967400  0.389100  1
  C  C948  1  0.542300  0.032600  0.610900  1
  C  C949  1  0.582500  0.474100  0.176700  1
  C  C950  1  0.082500  0.525900  0.823300  1
  C  C951  1  0.082500  0.974100  0.323300  1
  C  C952  1  0.582500  0.025900  0.676700  1
  C  C953  1  0.519500  0.489400  0.196200  1
  C  C954  1  0.019500  0.510600  0.803800  1
  C  C955  1  0.019500  0.989400  0.303800  1
  C  C956  1  0.519500  0.010600  0.696200  1
  C  C957  1  0.513700  0.482900  0.234800  1
  C  C958  1  0.013700  0.517100  0.765200  1
  C  C959  1  0.013700  0.982900  0.265200  1
  C  C960  1  0.513700  0.017100  0.734800  1
  C  C961  1  0.566400  0.463700  0.257400  1
  C  C962  1  0.066400  0.536300  0.742600  1
  C  C963  1  0.066400  0.963700  0.242600  1
  C  C964  1  0.566400  0.036300  0.757400  1
  C  C965  1  0.628100  0.447600  0.237200  1
  C  C966  1  0.128100  0.552400  0.762800  1
  C  C967  1  0.128100  0.947600  0.262800  1
  C  C968  1  0.628100  0.052400  0.737200  1
  C  C969  1  0.635200  0.451900  0.196400  1
  C  C970  1  0.135200  0.548100  0.803600  1
  C  C971  1  0.135200  0.951900  0.303600  1
  C  C972  1  0.635200  0.048100  0.696400  1
  C  C973  1  0.559300  0.456000  0.299400  1
  C  C974  1  0.059300  0.544000  0.700600  1
  C  C975  1  0.059300  0.956000  0.200600  1
  C  C976  1  0.559300  0.044000  0.799400  1
  C  C977  1  0.528800  0.486400  0.319900  1
  C  C978  1  0.028800  0.513600  0.680100  1
  C  C979  1  0.028800  0.986400  0.180100  1
  C  C980  1  0.528800  0.013600  0.819900  1
  C  C981  1  0.519900  0.481200  0.363800  1
  C  C982  1  0.019900  0.518800  0.636200  1
  C  C983  1  0.019900  0.981200  0.136200  1
  C  C984  1  0.519900  0.018800  0.863800  1
  C  C985  1  0.539300  0.444700  0.379200  1
  C  C986  1  0.039300  0.555300  0.620800  1
  C  C987  1  0.039300  0.944700  0.120800  1
  C  C988  1  0.539300  0.055300  0.879200  1
  C  C989  1  0.568400  0.414000  0.357600  1
  C  C990  1  0.068400  0.586000  0.642400  1
  C  C991  1  0.068400  0.914000  0.142400  1
  C  C992  1  0.568400  0.086000  0.857600  1
  C  C993  1  0.579400  0.420500  0.317100  1
  C  C994  1  0.079400  0.579500  0.682900  1
  C  C995  1  0.079400  0.920500  0.182900  1
  C  C996  1  0.579400  0.079500  0.817100  1
  C  C997  1  0.593600  0.435300  0.440600  1
  C  C998  1  0.093600  0.564700  0.559400  1
  C  C999  1  0.093600  0.935300  0.059400  1
  C  C1000  1  0.593600  0.064700  0.940600  1
  C  C1001  1  0.583100  0.424100  0.479600  1
  C  C1002  1  0.083100  0.575900  0.520400  1
  C  C1003  1  0.083100  0.924100  0.020400  1
  C  C1004  1  0.583100  0.075900  0.979600  1
  C  C1005  1  0.498800  0.410900  0.531000  1
  C  C1006  1  0.998800  0.589100  0.469000  1
  C  C1007  1  0.998800  0.910900  0.969000  1
  C  C1008  1  0.498800  0.089100  0.031000  1
  C  C1009  1  0.554200  0.404900  0.557600  1
  C  C1010  1  0.054200  0.595100  0.442400  1
  C  C1011  1  0.054200  0.904900  0.942400  1
  C  C1012  1  0.554200  0.095100  0.057600  1
  C  C1013  1  0.624700  0.411300  0.545700  1
  C  C1014  1  0.124700  0.588700  0.454300  1
  C  C1015  1  0.124700  0.911300  0.954300  1
  C  C1016  1  0.624700  0.088700  0.045700  1
  C  C1017  1  0.638700  0.421400  0.507900  1
  C  C1018  1  0.138700  0.578600  0.492100  1
  C  C1019  1  0.138700  0.921400  0.992100  1
  C  C1020  1  0.638700  0.078600  0.007900  1
  C  C1021  1  0.704600  0.599200  0.088100  1
  C  C1022  1  0.204600  0.400800  0.911900  1
  C  C1023  1  0.204600  0.099200  0.411900  1
  C  C1024  1  0.704600  0.900800  0.588100  1
  C  C1025  1  0.786800  0.550600  0.063700  1
  C  C1026  1  0.286800  0.449400  0.936300  1
  C  C1027  1  0.286800  0.050600  0.436300  1
  C  C1028  1  0.786800  0.949400  0.563700  1
  C  C1029  1  0.829700  0.581100  0.048200  1
  C  C1030  1  0.329700  0.418900  0.951800  1
  C  C1031  1  0.329700  0.081100  0.451800  1
  C  C1032  1  0.829700  0.918900  0.548200  1
  C  C1033  1  0.809700  0.625100  0.052600  1
  C  C1034  1  0.309700  0.374900  0.947400  1
  C  C1035  1  0.309700  0.125100  0.447400  1
  C  C1036  1  0.809700  0.874900  0.552600  1
  C  C1037  1  0.743700  0.633100  0.074300  1
  C  C1038  1  0.243700  0.366900  0.925700  1
  C  C1039  1  0.243700  0.133100  0.425700  1
  C  C1040  1  0.743700  0.866900  0.574300  1
  C  C1041  1  0.631500  0.603600  0.106600  1
  C  C1042  1  0.131500  0.396400  0.893400  1
  C  C1043  1  0.131500  0.103600  0.393400  1
  C  C1044  1  0.631500  0.896400  0.606600  1
  C  C1045  1  0.529200  0.574700  0.133300  1
  C  C1046  1  0.029200  0.425300  0.866700  1
  C  C1047  1  0.029200  0.074700  0.366700  1
  C  C1048  1  0.529200  0.925300  0.633300  1
  C  C1049  1  0.517800  0.596900  0.164900  1
  C  C1050  1  0.017800  0.403100  0.835100  1
  C  C1051  1  0.017800  0.096900  0.335100  1
  C  C1052  1  0.517800  0.903100  0.664900  1
  C  C1053  1  0.447400  0.600300  0.179800  1
  C  C1054  1  0.947400  0.399700  0.820200  1
  C  C1055  1  0.947400  0.100300  0.320200  1
  C  C1056  1  0.447400  0.899700  0.679800  1
  C  C1057  1  0.388800  0.583300  0.159900  1
  C  C1058  1  0.888800  0.416700  0.840100  1
  C  C1059  1  0.888800  0.083300  0.340100  1
  C  C1060  1  0.388800  0.916700  0.659900  1
  C  C1061  1  0.399300  0.561200  0.126700  1
  C  C1062  1  0.899300  0.438800  0.873300  1
  C  C1063  1  0.899300  0.061200  0.373300  1
  C  C1064  1  0.399300  0.938800  0.626700  1
  C  C1065  1  0.473200  0.556800  0.112700  1
  C  C1066  1  0.973200  0.443200  0.887300  1
  C  C1067  1  0.973200  0.056800  0.387300  1
  C  C1068  1  0.473200  0.943200  0.612700  1
  C  C1069  1  0.314200  0.589400  0.174900  1
  C  C1070  1  0.814200  0.410600  0.825100  1
  C  C1071  1  0.814200  0.089400  0.325100  1
  C  C1072  1  0.314200  0.910600  0.674900  1
  C  C1073  1  0.298200  0.580800  0.215200  1
  C  C1074  1  0.798200  0.419200  0.784800  1
  C  C1075  1  0.798200  0.080800  0.284800  1
  C  C1076  1  0.298200  0.919200  0.715200  1
  C  C1077  1  0.231400  0.584900  0.229800  1
  C  C1078  1  0.731400  0.415100  0.770200  1
  C  C1079  1  0.731400  0.084900  0.270200  1
  C  C1080  1  0.231400  0.915100  0.729800  1
  C  C1081  1  0.173600  0.596900  0.204200  1
  C  C1082  1  0.673600  0.403100  0.795800  1
  C  C1083  1  0.673600  0.096900  0.295800  1
  C  C1084  1  0.173600  0.903100  0.704200  1
  C  C1085  1  0.190700  0.604900  0.165900  1
  C  C1086  1  0.690700  0.395100  0.834100  1
  C  C1087  1  0.690700  0.104900  0.334100  1
  C  C1088  1  0.190700  0.895100  0.665900  1
  C  C1089  1  0.257800  0.599600  0.151800  1
  C  C1090  1  0.757800  0.400400  0.848200  1
  C  C1091  1  0.757800  0.099600  0.348200  1
  C  C1092  1  0.257800  0.900400  0.651800  1
  C  C1093  1  0.065900  0.569500  0.223500  1
  C  C1094  1  0.565900  0.430500  0.776500  1
  C  C1095  1  0.565900  0.069500  0.276500  1
  C  C1096  1  0.065900  0.930500  0.723500  1
  C  C1097  1  0.994000  0.573900  0.238000  1
  C  C1098  1  0.494000  0.426100  0.762000  1
  C  C1099  1  0.494000  0.073900  0.262000  1
  C  C1100  1  0.994000  0.926100  0.738000  1
  C  C1101  1  0.905700  0.622300  0.257700  1
  C  C1102  1  0.405700  0.377700  0.742300  1
  C  C1103  1  0.405700  0.122300  0.242300  1
  C  C1104  1  0.905700  0.877700  0.757700  1
  C  C1105  1  0.855100  0.589900  0.265000  1
  C  C1106  1  0.355100  0.410100  0.735000  1
  C  C1107  1  0.355100  0.089900  0.235000  1
  C  C1108  1  0.855100  0.910100  0.765000  1
  C  C1109  1  0.873000  0.550900  0.258900  1
  C  C1110  1  0.373000  0.449100  0.741100  1
  C  C1111  1  0.373000  0.050900  0.241100  1
  C  C1112  1  0.873000  0.949100  0.758900  1
  C  C1113  1  0.945200  0.540000  0.245600  1
  C  C1114  1  0.445200  0.460000  0.754400  1
  C  C1115  1  0.445200  0.040000  0.254400  1
  C  C1116  1  0.945200  0.960000  0.745600  1
  C  C1117  1  0.416800  0.362200  0.396300  1
  C  C1118  1  0.916800  0.637800  0.603700  1
  C  C1119  1  0.916800  0.862200  0.103700  1
  C  C1120  1  0.416800  0.137800  0.896300  1
  C  C1121  1  0.490700  0.337700  0.445200  1
  C  C1122  1  0.990700  0.662300  0.554800  1
  C  C1123  1  0.990700  0.837700  0.054800  1
  C  C1124  1  0.490700  0.162300  0.945200  1
  C  C1125  1  0.494000  0.300900  0.430100  1
  C  C1126  1  0.994000  0.699100  0.569900  1
  C  C1127  1  0.994000  0.800900  0.069900  1
  C  C1128  1  0.494000  0.199100  0.930100  1
  C  C1129  1  0.459700  0.293000  0.392600  1
  C  C1130  1  0.959700  0.707000  0.607400  1
  C  C1131  1  0.959700  0.793000  0.107400  1
  C  C1132  1  0.459700  0.207000  0.892600  1
  C  C1133  1  0.418200  0.324000  0.377200  1
  C  C1134  1  0.918200  0.676000  0.622800  1
  C  C1135  1  0.918200  0.824000  0.122800  1
  C  C1136  1  0.418200  0.176000  0.877200  1
  C  C1137  1  0.373500  0.398000  0.382900  1
  C  C1138  1  0.873500  0.602000  0.617100  1
  C  C1139  1  0.873500  0.898000  0.117100  1
  C  C1140  1  0.373500  0.102000  0.882900  1
  C  C1141  1  0.330700  0.464200  0.391000  1
  C  C1142  1  0.830700  0.535800  0.609000  1
  C  C1143  1  0.830700  0.964200  0.109000  1
  C  C1144  1  0.330700  0.035800  0.891000  1
  C  C1145  1  0.272500  0.479400  0.411500  1
  C  C1146  1  0.772500  0.520600  0.588500  1
  C  C1147  1  0.772500  0.979400  0.088500  1
  C  C1148  1  0.272500  0.020600  0.911500  1
  C  C1149  1  0.227300  0.509000  0.398800  1
  C  C1150  1  0.727300  0.491000  0.601200  1
  C  C1151  1  0.727300  0.009000  0.101200  1
  C  C1152  1  0.227300  0.991000  0.898800  1
  C  C1153  1  0.242400  0.529200  0.363500  1
  C  C1154  1  0.742400  0.470800  0.636500  1
  C  C1155  1  0.742400  0.029200  0.136500  1
  C  C1156  1  0.242400  0.970800  0.863500  1
  C  C1157  1  0.296800  0.514000  0.340700  1
  C  C1158  1  0.796800  0.486000  0.659300  1
  C  C1159  1  0.796800  0.014000  0.159300  1
  C  C1160  1  0.296800  0.986000  0.840700  1
  C  C1161  1  0.342500  0.481900  0.354400  1
  C  C1162  1  0.842500  0.518100  0.645600  1
  C  C1163  1  0.842500  0.981900  0.145600  1
  C  C1164  1  0.342500  0.018100  0.854400  1
  C  C1165  1  0.200600  0.563500  0.348300  1
  C  C1166  1  0.700600  0.436500  0.651700  1
  C  C1167  1  0.700600  0.063500  0.151700  1
  C  C1168  1  0.200600  0.936500  0.848300  1
  C  C1169  1  0.124700  0.560700  0.343800  1
  C  C1170  1  0.624700  0.439300  0.656200  1
  C  C1171  1  0.624700  0.060700  0.156200  1
  C  C1172  1  0.124700  0.939300  0.843800  1
  C  C1173  1  0.084900  0.590200  0.323400  1
  C  C1174  1  0.584900  0.409800  0.676600  1
  C  C1175  1  0.584900  0.090200  0.176600  1
  C  C1176  1  0.084900  0.909800  0.823400  1
  C  C1177  1  0.116900  0.624400  0.310200  1
  C  C1178  1  0.616900  0.375600  0.689800  1
  C  C1179  1  0.616900  0.124400  0.189800  1
  C  C1180  1  0.116900  0.875600  0.810200  1
  C  C1181  1  0.189800  0.631900  0.315100  1
  C  C1182  1  0.689800  0.368100  0.684900  1
  C  C1183  1  0.689800  0.131900  0.184900  1
  C  C1184  1  0.189800  0.868100  0.815100  1
  C  C1185  1  0.232600  0.602700  0.334500  1
  C  C1186  1  0.732600  0.397300  0.665500  1
  C  C1187  1  0.732600  0.102700  0.165500  1
  C  C1188  1  0.232600  0.897300  0.834500  1
  C  C1189  1  0.041000  0.684400  0.310000  1
  C  C1190  1  0.541000  0.315600  0.690000  1
  C  C1191  1  0.541000  0.184400  0.190000  1
  C  C1192  1  0.041000  0.815600  0.810000  1
  C  C1193  1  0.993700  0.712200  0.287400  1
  C  C1194  1  0.493700  0.287800  0.712600  1
  C  C1195  1  0.493700  0.212200  0.212600  1
  C  C1196  1  0.993700  0.787800  0.787400  1
  C  C1197  1  0.948100  0.727400  0.228000  1
  C  C1198  1  0.448100  0.272600  0.772000  1
  C  C1199  1  0.448100  0.227400  0.272000  1
  C  C1200  1  0.948100  0.772600  0.728000  1
  C  C1201  1  0.906100  0.760400  0.241900  1
  C  C1202  1  0.406100  0.239600  0.758100  1
  C  C1203  1  0.406100  0.260400  0.258100  1
  C  C1204  1  0.906100  0.739600  0.741900  1
  C  C1205  1  0.914100  0.767500  0.282700  1
  C  C1206  1  0.414100  0.232500  0.717300  1
  C  C1207  1  0.414100  0.267500  0.217300  1
  C  C1208  1  0.914100  0.732500  0.782700  1
  C  C1209  1  0.956700  0.744300  0.305000  1
  C  C1210  1  0.456700  0.255700  0.695000  1
  C  C1211  1  0.456700  0.244300  0.195000  1
  C  C1212  1  0.956700  0.755700  0.805000  1
  N  N1213  1  0.111100  0.482200  0.262300  1
  N  N1214  1  0.611100  0.517800  0.737700  1
  N  N1215  1  0.611100  0.982200  0.237700  1
  N  N1216  1  0.111100  0.017800  0.762300  1
  N  N1217  1  0.071100  0.801000  0.192300  1
  N  N1218  1  0.571100  0.199000  0.807700  1
  N  N1219  1  0.571100  0.301000  0.307700  1
  N  N1220  1  0.071100  0.699000  0.692300  1
  N  N1221  1  0.273000  0.699300  0.401300  1
  N  N1222  1  0.773000  0.300700  0.598700  1
  N  N1223  1  0.773000  0.199300  0.098700  1
  N  N1224  1  0.273000  0.800700  0.901300  1
  N  N1225  1  0.302000  0.562800  0.551800  1
  N  N1226  1  0.802000  0.437200  0.448200  1
  N  N1227  1  0.802000  0.062800  0.948200  1
  N  N1228  1  0.302000  0.937200  0.051800  1
  N  N1229  1  0.198500  0.493100  0.606800  1
  N  N1230  1  0.698500  0.506900  0.393200  1
  N  N1231  1  0.698500  0.993100  0.893200  1
  N  N1232  1  0.198500  0.006900  0.106800  1
  N  N1233  1  0.531500  0.246900  0.602700  1
  N  N1234  1  0.031500  0.753100  0.397300  1
  N  N1235  1  0.031500  0.746900  0.897300  1
  N  N1236  1  0.531500  0.253100  0.102700  1
  N  N1237  1  0.908800  0.510500  0.360400  1
  N  N1238  1  0.408800  0.489500  0.639600  1
  N  N1239  1  0.408800  0.010500  0.139600  1
  N  N1240  1  0.908800  0.989500  0.860400  1
  N  N1241  1  0.830600  0.728500  0.156900  1
  N  N1242  1  0.330600  0.271500  0.843100  1
  N  N1243  1  0.330600  0.228500  0.343100  1
  N  N1244  1  0.830600  0.771500  0.656900  1
  N  N1245  1  0.629900  0.817700  0.425200  1
  N  N1246  1  0.129900  0.182300  0.574800  1
  N  N1247  1  0.129900  0.317700  0.074800  1
  N  N1248  1  0.629900  0.682300  0.925200  1
  N  N1249  1  0.604500  0.854100  0.351400  1
  N  N1250  1  0.104500  0.145900  0.648600  1
  N  N1251  1  0.104500  0.354100  0.148600  1
  N  N1252  1  0.604500  0.645900  0.851400  1
  N  N1253  1  0.629400  0.786800  0.314600  1
  N  N1254  1  0.129400  0.213200  0.685400  1
  N  N1255  1  0.129400  0.286800  0.185400  1
  N  N1256  1  0.629400  0.713200  0.814600  1
  N  N1257  1  0.721500  0.530100  0.158100  1
  N  N1258  1  0.221500  0.469900  0.841900  1
  N  N1259  1  0.221500  0.030100  0.341900  1
  N  N1260  1  0.721500  0.969900  0.658100  1
  N  N1261  1  0.730400  0.472700  0.107800  1
  N  N1262  1  0.230400  0.527300  0.892200  1
  N  N1263  1  0.230400  0.972700  0.392200  1
  N  N1264  1  0.730400  0.027300  0.607800  1
  N  N1265  1  0.740300  0.813000  0.365700  1
  N  N1266  1  0.240300  0.187000  0.634300  1
  N  N1267  1  0.240300  0.313000  0.134300  1
  N  N1268  1  0.740300  0.687000  0.865700  1
  N  N1269  1  0.675100  0.746100  0.389100  1
  N  N1270  1  0.175100  0.253900  0.610900  1
  N  N1271  1  0.175100  0.246100  0.110900  1
  N  N1272  1  0.675100  0.753900  0.889100  1
  N  N1273  1  0.421600  0.484000  0.468900  1
  N  N1274  1  0.921600  0.516000  0.531100  1
  N  N1275  1  0.921600  0.984000  0.031100  1
  N  N1276  1  0.421600  0.016000  0.968900  1
  N  N1277  1  0.360100  0.416200  0.484100  1
  N  N1278  1  0.860100  0.583800  0.515900  1
  N  N1279  1  0.860100  0.916200  0.015900  1
  N  N1280  1  0.360100  0.083800  0.984100  1
  N  N1281  1  0.532400  0.787100  0.381000  1
  N  N1282  1  0.032400  0.212900  0.619000  1
  N  N1283  1  0.032400  0.287100  0.119000  1
  N  N1284  1  0.532400  0.712900  0.881000  1
  N  N1285  1  0.129400  0.690600  0.214500  1
  N  N1286  1  0.629400  0.309400  0.785500  1
  N  N1287  1  0.629400  0.190600  0.285500  1
  N  N1288  1  0.129400  0.809400  0.714500  1
  N  N1289  1  0.018400  0.661900  0.177600  1
  N  N1290  1  0.518400  0.338100  0.822400  1
  N  N1291  1  0.518400  0.161900  0.322400  1
  N  N1292  1  0.018400  0.838100  0.677600  1
  N  N1293  1  0.608200  0.502700  0.063700  1
  N  N1294  1  0.108200  0.497300  0.936300  1
  N  N1295  1  0.108200  0.002700  0.436300  1
  N  N1296  1  0.608200  0.997300  0.563700  1
  N  N1297  1  0.589300  0.483100  0.135700  1
  N  N1298  1  0.089300  0.516900  0.864300  1
  N  N1299  1  0.089300  0.983100  0.364300  1
  N  N1300  1  0.589300  0.016900  0.635700  1
  N  N1301  1  0.531300  0.440300  0.420900  1
  N  N1302  1  0.031300  0.559700  0.579100  1
  N  N1303  1  0.031300  0.940300  0.079100  1
  N  N1304  1  0.531300  0.059700  0.920900  1
  N  N1305  1  0.513800  0.420900  0.492400  1
  N  N1306  1  0.013800  0.579100  0.507600  1
  N  N1307  1  0.013800  0.920900  0.007600  1
  N  N1308  1  0.513800  0.079100  0.992400  1
  N  N1309  1  0.722300  0.558700  0.083600  1
  N  N1310  1  0.222300  0.441300  0.916400  1
  N  N1311  1  0.222300  0.058700  0.416400  1
  N  N1312  1  0.722300  0.941300  0.583600  1
  N  N1313  1  0.602000  0.569500  0.116700  1
  N  N1314  1  0.102000  0.430500  0.883300  1
  N  N1315  1  0.102000  0.069500  0.383300  1
  N  N1316  1  0.602000  0.930500  0.616700  1
  N  N1317  1  0.101500  0.603700  0.219800  1
  N  N1318  1  0.601500  0.396300  0.780200  1
  N  N1319  1  0.601500  0.103700  0.280200  1
  N  N1320  1  0.101500  0.896300  0.719800  1
  N  N1321  1  0.972900  0.614800  0.244000  1
  N  N1322  1  0.472900  0.385200  0.756000  1
  N  N1323  1  0.472900  0.114800  0.256000  1
  N  N1324  1  0.972900  0.885200  0.744000  1
  N  N1325  1  0.450900  0.370200  0.431300  1
  N  N1326  1  0.950900  0.629800  0.568700  1
  N  N1327  1  0.950900  0.870200  0.068700  1
  N  N1328  1  0.450900  0.129800  0.931300  1
  N  N1329  1  0.376300  0.430900  0.404000  1
  N  N1330  1  0.876300  0.569100  0.596000  1
  N  N1331  1  0.876300  0.930900  0.096000  1
  N  N1332  1  0.376300  0.069100  0.904000  1
  N  N1333  1  0.074300  0.656000  0.288800  1
  N  N1334  1  0.574300  0.344000  0.711200  1
  N  N1335  1  0.574300  0.156000  0.211200  1
  N  N1336  1  0.074300  0.844000  0.788800  1
  N  N1337  1  0.992500  0.703800  0.249000  1
  N  N1338  1  0.492500  0.296200  0.751000  1
  N  N1339  1  0.492500  0.203800  0.251000  1
  N  N1340  1  0.992500  0.796200  0.749000  1
  F  F1341  1  0.447800  0.567300  0.273100  1
  F  F1342  1  0.947800  0.432700  0.726900  1
  F  F1343  1  0.947800  0.067300  0.226900  1
  F  F1344  1  0.447800  0.932700  0.773100  1
  F  F1345  1  0.463700  0.637300  0.335000  1
  F  F1346  1  0.963700  0.362700  0.665000  1
  F  F1347  1  0.963700  0.137300  0.165000  1
  F  F1348  1  0.463700  0.862700  0.835000  1
  F  F1349  1  0.381200  0.621000  0.291000  1
  F  F1350  1  0.881200  0.379000  0.709000  1
  F  F1351  1  0.881200  0.121000  0.209000  1
  F  F1352  1  0.381200  0.879000  0.791000  1
  F  F1353  1  0.536700  0.589600  0.310800  1
  F  F1354  1  0.036700  0.410400  0.689200  1
  F  F1355  1  0.036700  0.089600  0.189200  1
  F  F1356  1  0.536700  0.910400  0.810800  1
  F  F1357  1  0.469900  0.635400  0.270300  1
  F  F1358  1  0.969900  0.364600  0.729700  1
  F  F1359  1  0.969900  0.135400  0.229700  1
  F  F1360  1  0.469900  0.864600  0.770300  1
  F  F1361  1  0.431200  0.571300  0.336100  1
  F  F1362  1  0.931200  0.428700  0.663900  1
  F  F1363  1  0.931200  0.071300  0.163900  1
  F  F1364  1  0.431200  0.928700  0.836100  1
  F  F1365  1  0.259000  0.497400  0.077000  1
  F  F1366  1  0.759000  0.502600  0.923000  1
  F  F1367  1  0.759000  0.997400  0.423000  1
  F  F1368  1  0.259000  0.002600  0.577000  1
  F  F1369  1  0.325400  0.413900  0.049300  1
  F  F1370  1  0.825400  0.586100  0.950700  1
  F  F1371  1  0.825400  0.913900  0.450700  1
  F  F1372  1  0.325400  0.086100  0.549300  1
  F  F1373  1  0.225500  0.445100  0.035200  1
  F  F1374  1  0.725500  0.554900  0.964800  1
  F  F1375  1  0.725500  0.945100  0.464800  1
  F  F1376  1  0.225500  0.054900  0.535200  1
  F  F1377  1  0.250300  0.430000  0.095400  1
  F  F1378  1  0.750300  0.570000  0.904600  1
  F  F1379  1  0.750300  0.930000  0.404600  1
  F  F1380  1  0.250300  0.070000  0.595400  1
  F  F1381  1  0.335800  0.474500  0.030200  1
  F  F1382  1  0.835800  0.525500  0.969800  1
  F  F1383  1  0.835800  0.974500  0.469800  1
  F  F1384  1  0.335800  0.025500  0.530200  1
  F  F1385  1  0.355900  0.462000  0.092200  1
  F  F1386  1  0.855900  0.538000  0.907800  1
  F  F1387  1  0.855900  0.962000  0.407800  1
  F  F1388  1  0.355900  0.038000  0.592200  1
  F  F1389  1  0.253800  0.317400  0.263600  1
  F  F1390  1  0.753800  0.682600  0.736400  1
  F  F1391  1  0.753800  0.817400  0.236400  1
  F  F1392  1  0.253800  0.182600  0.763600  1
  F  F1393  1  0.235500  0.357000  0.316200  1
  F  F1394  1  0.735500  0.643000  0.683800  1
  F  F1395  1  0.735500  0.857000  0.183800  1
  F  F1396  1  0.235500  0.143000  0.816200  1
  F  F1397  1  0.304500  0.371500  0.233900  1
  F  F1398  1  0.804500  0.628500  0.766100  1
  F  F1399  1  0.804500  0.871500  0.266100  1
  F  F1400  1  0.304500  0.128500  0.733900  1
  F  F1401  1  0.347000  0.348000  0.294100  1
  F  F1402  1  0.847000  0.652000  0.705900  1
  F  F1403  1  0.847000  0.848000  0.205900  1
  F  F1404  1  0.347000  0.152000  0.794100  1
  F  F1405  1  0.204100  0.380400  0.257000  1
  F  F1406  1  0.704100  0.619600  0.743000  1
  F  F1407  1  0.704100  0.880400  0.243000  1
  F  F1408  1  0.204100  0.119600  0.757000  1
  F  F1409  1  0.282300  0.406900  0.292100  1
  F  F1410  1  0.782300  0.593100  0.707900  1
  F  F1411  1  0.782300  0.906900  0.207900  1
  F  F1412  1  0.282300  0.093100  0.792100  1
  F  F1413  1  0.394600  0.608900  0.762300  1
  F  F1414  1  0.894600  0.391100  0.237700  1
  F  F1415  1  0.894600  0.108900  0.737700  1
  F  F1416  1  0.394600  0.891100  0.262300  1
  F  F1417  1  0.295000  0.564100  0.715700  1
  F  F1418  1  0.795000  0.435900  0.284300  1
  F  F1419  1  0.795000  0.064100  0.784300  1
  F  F1420  1  0.295000  0.935900  0.215700  1
  F  F1421  1  0.351400  0.546500  0.768500  1
  F  F1422  1  0.851400  0.453500  0.231500  1
  F  F1423  1  0.851400  0.046500  0.731500  1
  F  F1424  1  0.351400  0.953500  0.268500  1
  F  F1425  1  0.288300  0.599500  0.769100  1
  F  F1426  1  0.788300  0.400500  0.230900  1
  F  F1427  1  0.788300  0.099500  0.730900  1
  F  F1428  1  0.288300  0.900500  0.269100  1
  F  F1429  1  0.407900  0.559900  0.721200  1
  F  F1430  1  0.907900  0.440100  0.278800  1
  F  F1431  1  0.907900  0.059900  0.778800  1
  F  F1432  1  0.407900  0.940100  0.221200  1
  F  F1433  1  0.354000  0.610800  0.710600  1
  F  F1434  1  0.854000  0.389200  0.289400  1
  F  F1435  1  0.854000  0.110800  0.789400  1
  F  F1436  1  0.354000  0.889200  0.210600  1
  F  F1437  1  0.425400  0.377500  0.655000  1
  F  F1438  1  0.925400  0.622500  0.345000  1
  F  F1439  1  0.925400  0.877500  0.845000  1
  F  F1440  1  0.425400  0.122500  0.155000  1
  F  F1441  1  0.308900  0.341800  0.599600  1
  F  F1442  1  0.808900  0.658200  0.400400  1
  F  F1443  1  0.808900  0.841800  0.900400  1
  F  F1444  1  0.308900  0.158200  0.099600  1
  F  F1445  1  0.316000  0.388300  0.641000  1
  F  F1446  1  0.816000  0.611700  0.359000  1
  F  F1447  1  0.816000  0.888300  0.859000  1
  F  F1448  1  0.316000  0.111700  0.141000  1
  F  F1449  1  0.352700  0.324200  0.655900  1
  F  F1450  1  0.852700  0.675800  0.344100  1
  F  F1451  1  0.852700  0.824200  0.844100  1
  F  F1452  1  0.352700  0.175800  0.155900  1
  F  F1453  1  0.423400  0.324500  0.611600  1
  F  F1454  1  0.923400  0.675500  0.388400  1
  F  F1455  1  0.923400  0.824500  0.888400  1
  F  F1456  1  0.423400  0.175500  0.111600  1
  F  F1457  1  0.391800  0.391900  0.594800  1
  F  F1458  1  0.891800  0.608100  0.405200  1
  F  F1459  1  0.891800  0.891900  0.905200  1
  F  F1460  1  0.391800  0.108100  0.094800  1
  F  F1461  1  0.549300  0.484800  0.899480  1
  F  F1462  1  0.049300  0.515200  0.100520  1
  F  F1463  1  0.049300  0.984800  0.600520  1
  F  F1464  1  0.549300  0.015200  0.399480  1
  F  F1465  1  0.409000  0.439300  0.869030  1
  F  F1466  1  0.909000  0.560700  0.130970  1
  F  F1467  1  0.909000  0.939300  0.630970  1
  F  F1468  1  0.409000  0.060700  0.369030  1
  F  F1469  1  0.482900  0.430100  0.919460  1
  F  F1470  1  0.982900  0.569900  0.080540  1
  F  F1471  1  0.982900  0.930100  0.580540  1
  F  F1472  1  0.482900  0.069900  0.419460  1
  F  F1473  1  0.429500  0.492100  0.910600  1
  F  F1474  1  0.929500  0.507900  0.089400  1
  F  F1475  1  0.929500  0.992100  0.589400  1
  F  F1476  1  0.429500  0.007900  0.410600  1
  F  F1477  1  0.528000  0.431300  0.858440  1
  F  F1478  1  0.028000  0.568700  0.141560  1
  F  F1479  1  0.028000  0.931300  0.641560  1
  F  F1480  1  0.528000  0.068700  0.358440  1
  F  F1481  1  0.475000  0.494200  0.848800  1
  F  F1482  1  0.975000  0.505800  0.151200  1
  F  F1483  1  0.975000  0.994200  0.651200  1
  F  F1484  1  0.475000  0.005800  0.348800  1
  F  F1485  1  0.381600  0.273800  0.963000  1
  F  F1486  1  0.881600  0.726200  0.037000  1
  F  F1487  1  0.881600  0.773800  0.537000  1
  F  F1488  1  0.381600  0.226200  0.463000  1
  F  F1489  1  0.370500  0.231100  0.016100  1
  F  F1490  1  0.870500  0.768900  0.983900  1
  F  F1491  1  0.870500  0.731100  0.483900  1
  F  F1492  1  0.370500  0.268900  0.516100  1
  F  F1493  1  0.256300  0.237900  0.012200  1
  F  F1494  1  0.756300  0.762100  0.987800  1
  F  F1495  1  0.756300  0.737900  0.487800  1
  F  F1496  1  0.256300  0.262100  0.512200  1
  F  F1497  1  0.317900  0.214900  0.959600  1
  F  F1498  1  0.817900  0.785100  0.040400  1
  F  F1499  1  0.817900  0.714900  0.540400  1
  F  F1500  1  0.317900  0.285100  0.459600  1
  F  F1501  1  0.321200  0.294200  0.016100  1
  F  F1502  1  0.821200  0.705800  0.983900  1
  F  F1503  1  0.821200  0.794200  0.483900  1
  F  F1504  1  0.321200  0.205800  0.516100  1
  F  F1505  1  0.263300  0.276300  0.960900  1
  F  F1506  1  0.763300  0.723700  0.039100  1
  F  F1507  1  0.763300  0.776300  0.539100  1
  F  F1508  1  0.263300  0.223700  0.460900  1
