# generated using pymatgen
data_Fe8B11H262C316N60OF55
_symmetry_space_group_name_H-M   'P 1'
_cell_length_a   18.15720000
_cell_length_b   36.25300000
_cell_length_c   56.89800000
_cell_angle_alpha   90.00000000
_cell_angle_beta   90.00000000
_cell_angle_gamma   96.00200000
_symmetry_Int_Tables_number   1
_chemical_formula_structural   Fe8B11H262C316N60OF55
_chemical_formula_sum   'Fe32 B44 H1048 C1264 N240 O4 F220'
_cell_volume   37247.96792507
_cell_formula_units_Z   4
loop_
 _symmetry_equiv_pos_site_id
 _symmetry_equiv_pos_as_xyz
  1  'x, y, z'
loop_
 _atom_site_type_symbol
 _atom_site_label
 _atom_site_symmetry_multiplicity
 _atom_site_fract_x
 _atom_site_fract_y
 _atom_site_fract_z
 _atom_site_occupancy
  Fe  Fe1  1  0.463500  0.185690  0.508060  1
  Fe  Fe2  1  0.536500  0.314310  0.008060  1
  Fe  Fe3  1  0.536500  0.814310  0.491940  1
  Fe  Fe4  1  0.463500  0.685690  0.991940  1
  Fe  Fe5  1  0.101800  0.271740  0.683470  1
  Fe  Fe6  1  0.898200  0.228260  0.183470  1
  Fe  Fe7  1  0.898200  0.728260  0.316530  1
  Fe  Fe8  1  0.101800  0.771740  0.816530  1
  Fe  Fe9  1  0.911200  0.364210  0.486190  1
  Fe  Fe10  1  0.088800  0.135790  0.986190  1
  Fe  Fe11  1  0.088800  0.635790  0.513810  1
  Fe  Fe12  1  0.911200  0.864210  0.013810  1
  Fe  Fe13  1  0.820600  0.023400  0.546230  1
  Fe  Fe14  1  0.179400  0.476600  0.046230  1
  Fe  Fe15  1  0.179400  0.976600  0.453770  1
  Fe  Fe16  1  0.820600  0.523400  0.953770  1
  Fe  Fe17  1  0.980800  0.825480  0.668010  1
  Fe  Fe18  1  0.019200  0.674520  0.168010  1
  Fe  Fe19  1  0.019200  0.174520  0.331990  1
  Fe  Fe20  1  0.980800  0.325480  0.831990  1
  Fe  Fe21  1  0.359800  0.638260  0.659150  1
  Fe  Fe22  1  0.640200  0.861740  0.159150  1
  Fe  Fe23  1  0.640200  0.361740  0.340850  1
  Fe  Fe24  1  0.359800  0.138260  0.840850  1
  Fe  Fe25  1  0.402100  0.983580  0.697160  1
  Fe  Fe26  1  0.597900  0.516420  0.197160  1
  Fe  Fe27  1  0.597900  0.016420  0.302840  1
  Fe  Fe28  1  0.402100  0.483580  0.802840  1
  Fe  Fe29  1  0.599500  0.761470  0.850710  1
  Fe  Fe30  1  0.400500  0.738530  0.350710  1
  Fe  Fe31  1  0.400500  0.238530  0.149290  1
  Fe  Fe32  1  0.599500  0.261470  0.649290  1
  B  B33  1  0.068200  0.213700  0.553900  1
  B  B34  1  0.931800  0.286300  0.053900  1
  B  B35  1  0.931800  0.786300  0.446100  1
  B  B36  1  0.068200  0.713700  0.946100  1
  B  B37  1  0.581400  0.799000  0.715800  1
  B  B38  1  0.418600  0.701000  0.215800  1
  B  B39  1  0.418600  0.201000  0.284200  1
  B  B40  1  0.581400  0.299000  0.784200  1
  B  B41  1  0.286800  0.608800  0.823700  1
  B  B42  1  0.713200  0.891200  0.323700  1
  B  B43  1  0.713200  0.391200  0.176300  1
  B  B44  1  0.286800  0.108800  0.676300  1
  B  B45  1  0.204900  0.922800  0.791700  1
  B  B46  1  0.795100  0.577200  0.291700  1
  B  B47  1  0.795100  0.077200  0.208300  1
  B  B48  1  0.204900  0.422800  0.708300  1
  B  B49  1  0.124800  0.221800  0.783100  1
  B  B50  1  0.875200  0.278200  0.283100  1
  B  B51  1  0.875200  0.778200  0.216900  1
  B  B52  1  0.124800  0.721800  0.716900  1
  B  B53  1  0.233800  0.203100  0.913600  1
  B  B54  1  0.766200  0.296900  0.413600  1
  B  B55  1  0.766200  0.796900  0.086400  1
  B  B56  1  0.233800  0.703100  0.586400  1
  B  B57  1  0.640000  0.297800  0.548900  1
  B  B58  1  0.360000  0.202200  0.048900  1
  B  B59  1  0.360000  0.702200  0.451100  1
  B  B60  1  0.640000  0.797800  0.951100  1
  B  B61  1  0.216800  0.137200  0.419600  1
  B  B62  1  0.783200  0.362800  0.919600  1
  B  B63  1  0.783200  0.862800  0.580400  1
  B  B64  1  0.216800  0.637200  0.080400  1
  B  B65  1  0.838700  0.009800  0.426200  1
  B  B66  1  0.161300  0.490200  0.926200  1
  B  B67  1  0.161300  0.990200  0.573800  1
  B  B68  1  0.838700  0.509800  0.073800  1
  B  B69  1  0.528000  0.048100  0.540500  1
  B  B70  1  0.472000  0.451900  0.040500  1
  B  B71  1  0.472000  0.951900  0.459500  1
  B  B72  1  0.528000  0.548100  0.959500  1
  B  B73  1  0.666000  0.108200  0.624000  1
  B  B74  1  0.334000  0.391800  0.124000  1
  B  B75  1  0.334000  0.891800  0.376000  1
  B  B76  1  0.666000  0.608200  0.876000  1
  H  H77  1  0.572200  0.186000  0.466200  1
  H  H78  1  0.427800  0.314000  0.966200  1
  H  H79  1  0.427800  0.814000  0.533800  1
  H  H80  1  0.572200  0.686000  0.033800  1
  H  H81  1  0.643800  0.232200  0.445100  1
  H  H82  1  0.356200  0.267800  0.945100  1
  H  H83  1  0.356200  0.767800  0.554900  1
  H  H84  1  0.643800  0.732200  0.054900  1
  H  H85  1  0.639400  0.294700  0.454700  1
  H  H86  1  0.360600  0.205300  0.954700  1
  H  H87  1  0.360600  0.705300  0.545300  1
  H  H88  1  0.639400  0.794700  0.045300  1
  H  H89  1  0.563300  0.311000  0.485400  1
  H  H90  1  0.436700  0.189000  0.985400  1
  H  H91  1  0.436700  0.689000  0.514600  1
  H  H92  1  0.563300  0.811000  0.014600  1
  H  H93  1  0.473800  0.286900  0.521100  1
  H  H94  1  0.526200  0.213100  0.021100  1
  H  H95  1  0.526200  0.713100  0.478900  1
  H  H96  1  0.473800  0.786900  0.978900  1
  H  H97  1  0.481600  0.217100  0.565200  1
  H  H98  1  0.518400  0.282900  0.065200  1
  H  H99  1  0.518400  0.782900  0.434800  1
  H  H100  1  0.481600  0.717100  0.934800  1
  H  H101  1  0.414300  0.218200  0.600200  1
  H  H102  1  0.585700  0.281800  0.100200  1
  H  H103  1  0.585700  0.781800  0.399800  1
  H  H104  1  0.414300  0.718200  0.899800  1
  H  H105  1  0.245000  0.257300  0.564900  1
  H  H106  1  0.755000  0.242700  0.064900  1
  H  H107  1  0.755000  0.742700  0.435100  1
  H  H108  1  0.245000  0.757300  0.935100  1
  H  H109  1  0.312300  0.256200  0.529800  1
  H  H110  1  0.687700  0.243800  0.029800  1
  H  H111  1  0.687700  0.743800  0.470200  1
  H  H112  1  0.312300  0.756200  0.970200  1
  H  H113  1  0.348700  0.271200  0.625900  1
  H  H114  1  0.651300  0.228800  0.125900  1
  H  H115  1  0.651300  0.728800  0.374100  1
  H  H116  1  0.348700  0.771200  0.874100  1
  H  H117  1  0.282900  0.268300  0.661300  1
  H  H118  1  0.717100  0.231700  0.161300  1
  H  H119  1  0.717100  0.731700  0.338700  1
  H  H120  1  0.282900  0.768300  0.838700  1
  H  H121  1  0.125900  0.194400  0.632300  1
  H  H122  1  0.874100  0.305600  0.132300  1
  H  H123  1  0.874100  0.805600  0.367700  1
  H  H124  1  0.125900  0.694400  0.867700  1
  H  H125  1  0.191800  0.197300  0.596900  1
  H  H126  1  0.808200  0.302700  0.096900  1
  H  H127  1  0.808200  0.802700  0.403100  1
  H  H128  1  0.191800  0.697300  0.903100  1
  H  H129  1  0.166300  0.178400  0.678600  1
  H  H130  1  0.833700  0.321600  0.178600  1
  H  H131  1  0.833700  0.821600  0.321400  1
  H  H132  1  0.166300  0.678400  0.821400  1
  H  H133  1  0.999000  0.259400  0.726800  1
  H  H134  1  0.001000  0.240600  0.226800  1
  H  H135  1  0.001000  0.740600  0.273200  1
  H  H136  1  0.999000  0.759400  0.773200  1
  H  H137  1  0.956100  0.207500  0.749200  1
  H  H138  1  0.043900  0.292500  0.249200  1
  H  H139  1  0.043900  0.792500  0.250800  1
  H  H140  1  0.956100  0.707500  0.750800  1
  H  H141  1  0.999500  0.150100  0.741600  1
  H  H142  1  0.000500  0.349900  0.241600  1
  H  H143  1  0.000500  0.849900  0.258400  1
  H  H144  1  0.999500  0.650100  0.758400  1
  H  H145  1  0.085700  0.144700  0.711600  1
  H  H146  1  0.914300  0.355300  0.211600  1
  H  H147  1  0.914300  0.855300  0.288400  1
  H  H148  1  0.085700  0.644700  0.788400  1
  H  H149  1  0.571200  0.123000  0.504800  1
  H  H150  1  0.428800  0.377000  0.004800  1
  H  H151  1  0.428800  0.877000  0.495200  1
  H  H152  1  0.571200  0.623000  0.995200  1
  H  H153  1  0.574600  0.070100  0.481400  1
  H  H154  1  0.425400  0.429900  0.981400  1
  H  H155  1  0.425400  0.929900  0.518600  1
  H  H156  1  0.574600  0.570100  0.018600  1
  H  H157  1  0.485600  0.056700  0.452000  1
  H  H158  1  0.514400  0.443300  0.952000  1
  H  H159  1  0.514400  0.943300  0.548000  1
  H  H160  1  0.485600  0.556700  0.048000  1
  H  H161  1  0.393200  0.096100  0.446100  1
  H  H162  1  0.606800  0.403900  0.946100  1
  H  H163  1  0.606800  0.903900  0.553900  1
  H  H164  1  0.393200  0.596100  0.053900  1
  H  H165  1  0.336300  0.159800  0.458600  1
  H  H166  1  0.663700  0.340200  0.958600  1
  H  H167  1  0.663700  0.840200  0.541400  1
  H  H168  1  0.336300  0.659800  0.041400  1
  H  H169  1  0.238100  0.177300  0.497400  1
  H  H170  1  0.761900  0.322700  0.997400  1
  H  H171  1  0.761900  0.822700  0.502600  1
  H  H172  1  0.238100  0.677300  0.002600  1
  H  H173  1  0.153500  0.221700  0.498400  1
  H  H174  1  0.846500  0.278300  0.998400  1
  H  H175  1  0.846500  0.778300  0.501600  1
  H  H176  1  0.153500  0.721700  0.001600  1
  H  H177  1  0.310800  0.298900  0.472900  1
  H  H178  1  0.689200  0.201100  0.972900  1
  H  H179  1  0.689200  0.701100  0.527100  1
  H  H180  1  0.310800  0.798900  0.027100  1
  H  H181  1  0.395400  0.254400  0.471900  1
  H  H182  1  0.604600  0.245600  0.971900  1
  H  H183  1  0.604600  0.745600  0.528100  1
  H  H184  1  0.395400  0.754400  0.028100  1
  H  H185  1  0.189500  0.316900  0.456400  1
  H  H186  1  0.810500  0.183100  0.956400  1
  H  H187  1  0.810500  0.683100  0.543600  1
  H  H188  1  0.189500  0.816900  0.043600  1
  H  H189  1  0.106700  0.361500  0.461700  1
  H  H190  1  0.893300  0.138500  0.961700  1
  H  H191  1  0.893300  0.638500  0.538300  1
  H  H192  1  0.106700  0.861500  0.038300  1
  H  H193  1  0.052600  0.318700  0.526000  1
  H  H194  1  0.947400  0.181300  0.026000  1
  H  H195  1  0.947400  0.681300  0.474000  1
  H  H196  1  0.052600  0.818700  0.974000  1
  H  H197  1  0.135300  0.274000  0.520600  1
  H  H198  1  0.864700  0.226000  0.020600  1
  H  H199  1  0.864700  0.726000  0.479400  1
  H  H200  1  0.135300  0.774000  0.979400  1
  H  H201  1  0.087600  0.407400  0.511200  1
  H  H202  1  0.912400  0.092600  0.011200  1
  H  H203  1  0.912400  0.592600  0.488800  1
  H  H204  1  0.087600  0.907400  0.988800  1
  H  H205  1  0.815800  0.431500  0.493300  1
  H  H206  1  0.184200  0.068500  0.993300  1
  H  H207  1  0.184200  0.568500  0.506700  1
  H  H208  1  0.815800  0.931500  0.006700  1
  H  H209  1  0.836700  0.488000  0.513400  1
  H  H210  1  0.163300  0.012000  0.013400  1
  H  H211  1  0.163300  0.512000  0.486600  1
  H  H212  1  0.836700  0.988000  0.986600  1
  H  H213  1  0.952700  0.506000  0.530000  1
  H  H214  1  0.047300  0.994000  0.030000  1
  H  H215  1  0.047300  0.494000  0.470000  1
  H  H216  1  0.952700  0.006000  0.970000  1
  H  H217  1  0.047900  0.467500  0.526600  1
  H  H218  1  0.952100  0.032500  0.026600  1
  H  H219  1  0.952100  0.532500  0.473400  1
  H  H220  1  0.047900  0.967500  0.973400  1
  H  H221  1  0.624400  0.217900  0.519600  1
  H  H222  1  0.375600  0.282100  0.019600  1
  H  H223  1  0.375600  0.782100  0.480400  1
  H  H224  1  0.624400  0.717900  0.980400  1
  H  H225  1  0.710100  0.209300  0.546900  1
  H  H226  1  0.289900  0.290700  0.046900  1
  H  H227  1  0.289900  0.790700  0.453100  1
  H  H228  1  0.710100  0.709300  0.953100  1
  H  H229  1  0.686100  0.164100  0.575100  1
  H  H230  1  0.313900  0.335900  0.075100  1
  H  H231  1  0.313900  0.835900  0.424900  1
  H  H232  1  0.686100  0.664100  0.924900  1
  H  H233  1  0.570700  0.129900  0.575700  1
  H  H234  1  0.429300  0.370100  0.075700  1
  H  H235  1  0.429300  0.870100  0.424300  1
  H  H236  1  0.570700  0.629900  0.924300  1
  H  H237  1  0.439000  0.120400  0.558600  1
  H  H238  1  0.561000  0.379600  0.058600  1
  H  H239  1  0.561000  0.879600  0.441400  1
  H  H240  1  0.439000  0.620400  0.941400  1
  H  H241  1  0.290700  0.179000  0.544600  1
  H  H242  1  0.709300  0.321000  0.044600  1
  H  H243  1  0.709300  0.821000  0.455400  1
  H  H244  1  0.290700  0.679000  0.955400  1
  H  H245  1  0.167400  0.152700  0.543700  1
  H  H246  1  0.832600  0.347300  0.043700  1
  H  H247  1  0.832600  0.847300  0.456300  1
  H  H248  1  0.167400  0.652700  0.956300  1
  H  H249  1  0.233100  0.058200  0.516300  1
  H  H250  1  0.766900  0.441800  0.016300  1
  H  H251  1  0.766900  0.941800  0.483700  1
  H  H252  1  0.233100  0.558200  0.983700  1
  H  H253  1  0.356300  0.084600  0.517200  1
  H  H254  1  0.643700  0.415400  0.017200  1
  H  H255  1  0.643700  0.915400  0.482800  1
  H  H256  1  0.356300  0.584600  0.982800  1
  H  H257  1  0.067100  0.137600  0.522400  1
  H  H258  1  0.932900  0.362400  0.022400  1
  H  H259  1  0.932900  0.862400  0.477600  1
  H  H260  1  0.067100  0.637600  0.977600  1
  H  H261  1  0.942800  0.114000  0.518200  1
  H  H262  1  0.057200  0.386000  0.018200  1
  H  H263  1  0.057200  0.886000  0.481800  1
  H  H264  1  0.942800  0.614000  0.981800  1
  H  H265  1  0.000200  0.009500  0.525500  1
  H  H266  1  0.999800  0.490500  0.025500  1
  H  H267  1  0.999800  0.990500  0.474500  1
  H  H268  1  0.000200  0.509500  0.974500  1
  H  H269  1  0.124400  0.033200  0.529700  1
  H  H270  1  0.875600  0.466800  0.029700  1
  H  H271  1  0.875600  0.966800  0.470300  1
  H  H272  1  0.124400  0.533200  0.970300  1
  H  H273  1  0.876500  0.057400  0.485800  1
  H  H274  1  0.123500  0.442600  0.985800  1
  H  H275  1  0.123500  0.942600  0.514200  1
  H  H276  1  0.876500  0.557400  0.014200  1
  H  H277  1  0.660700  0.983200  0.534900  1
  H  H278  1  0.339300  0.516800  0.034900  1
  H  H279  1  0.339300  0.016800  0.465100  1
  H  H280  1  0.660700  0.483200  0.965100  1
  H  H281  1  0.586600  0.979100  0.501100  1
  H  H282  1  0.413400  0.520900  0.001100  1
  H  H283  1  0.413400  0.020900  0.498900  1
  H  H284  1  0.586600  0.479100  0.998900  1
  H  H285  1  0.632500  0.005400  0.465800  1
  H  H286  1  0.367500  0.494600  0.965800  1
  H  H287  1  0.367500  0.994600  0.534200  1
  H  H288  1  0.632500  0.505400  0.034200  1
  H  H289  1  0.752600  0.035900  0.464300  1
  H  H290  1  0.247400  0.464100  0.964300  1
  H  H291  1  0.247400  0.964100  0.535700  1
  H  H292  1  0.752600  0.535900  0.035700  1
  H  H293  1  0.178400  0.257100  0.731400  1
  H  H294  1  0.821600  0.242900  0.231400  1
  H  H295  1  0.821600  0.742900  0.268600  1
  H  H296  1  0.178400  0.757100  0.768600  1
  H  H297  1  0.323700  0.356900  0.697000  1
  H  H298  1  0.676300  0.143100  0.197000  1
  H  H299  1  0.676300  0.643100  0.303000  1
  H  H300  1  0.323700  0.856900  0.803000  1
  H  H301  1  0.355100  0.335100  0.734000  1
  H  H302  1  0.644900  0.164900  0.234000  1
  H  H303  1  0.644900  0.664900  0.266000  1
  H  H304  1  0.355100  0.835100  0.766000  1
  H  H305  1  0.282400  0.285200  0.751200  1
  H  H306  1  0.717600  0.214800  0.251200  1
  H  H307  1  0.717600  0.714800  0.248800  1
  H  H308  1  0.282400  0.785200  0.748800  1
  H  H309  1  0.231000  0.350500  0.662500  1
  H  H310  1  0.769000  0.149500  0.162500  1
  H  H311  1  0.769000  0.649500  0.337500  1
  H  H312  1  0.231000  0.850500  0.837500  1
  H  H313  1  0.163000  0.283900  0.619500  1
  H  H314  1  0.837000  0.216100  0.119500  1
  H  H315  1  0.837000  0.716100  0.380500  1
  H  H316  1  0.163000  0.783900  0.880500  1
  H  H317  1  0.095100  0.294500  0.585600  1
  H  H318  1  0.904900  0.205500  0.085600  1
  H  H319  1  0.904900  0.705500  0.414400  1
  H  H320  1  0.095100  0.794500  0.914400  1
  H  H321  1  0.993400  0.372600  0.620400  1
  H  H322  1  0.006600  0.127400  0.120400  1
  H  H323  1  0.006600  0.627400  0.379600  1
  H  H324  1  0.993400  0.872600  0.879600  1
  H  H325  1  0.061300  0.362000  0.654200  1
  H  H326  1  0.938700  0.138000  0.154200  1
  H  H327  1  0.938700  0.638000  0.345800  1
  H  H328  1  0.061300  0.862000  0.845800  1
  H  H329  1  0.970100  0.283000  0.570900  1
  H  H330  1  0.029900  0.217000  0.070900  1
  H  H331  1  0.029900  0.717000  0.429100  1
  H  H332  1  0.970100  0.783000  0.929100  1
  H  H333  1  0.898400  0.289100  0.537300  1
  H  H334  1  0.101600  0.210900  0.037300  1
  H  H335  1  0.101600  0.710900  0.462700  1
  H  H336  1  0.898400  0.789100  0.962700  1
  H  H337  1  0.921000  0.400800  0.545600  1
  H  H338  1  0.079000  0.099200  0.045600  1
  H  H339  1  0.079000  0.599200  0.454400  1
  H  H340  1  0.921000  0.900800  0.954400  1
  H  H341  1  0.992700  0.394600  0.579300  1
  H  H342  1  0.007300  0.105400  0.079300  1
  H  H343  1  0.007300  0.605400  0.420700  1
  H  H344  1  0.992700  0.894600  0.920700  1
  H  H345  1  0.770400  0.346600  0.531700  1
  H  H346  1  0.229600  0.153400  0.031700  1
  H  H347  1  0.229600  0.653400  0.468300  1
  H  H348  1  0.770400  0.846600  0.968300  1
  H  H349  1  0.818100  0.383500  0.444100  1
  H  H350  1  0.181900  0.116500  0.944100  1
  H  H351  1  0.181900  0.616500  0.555900  1
  H  H352  1  0.818100  0.883500  0.055900  1
  H  H353  1  0.692100  0.389400  0.438800  1
  H  H354  1  0.307900  0.110600  0.938800  1
  H  H355  1  0.307900  0.610600  0.561200  1
  H  H356  1  0.692100  0.889400  0.061200  1
  H  H357  1  0.608900  0.376100  0.469800  1
  H  H358  1  0.391100  0.123900  0.969800  1
  H  H359  1  0.391100  0.623900  0.530200  1
  H  H360  1  0.608900  0.876100  0.030200  1
  H  H361  1  0.651600  0.356800  0.506100  1
  H  H362  1  0.348400  0.143200  0.006100  1
  H  H363  1  0.348400  0.643200  0.493900  1
  H  H364  1  0.651600  0.856800  0.993900  1
  H  H365  1  0.893700  0.343000  0.676300  1
  H  H366  1  0.106300  0.157000  0.176300  1
  H  H367  1  0.106300  0.657000  0.323700  1
  H  H368  1  0.893700  0.843000  0.823700  1
  H  H369  1  0.931600  0.390600  0.702800  1
  H  H370  1  0.068400  0.109400  0.202800  1
  H  H371  1  0.068400  0.609400  0.297200  1
  H  H372  1  0.931600  0.890600  0.797200  1
  H  H373  1  0.040000  0.388100  0.724800  1
  H  H374  1  0.960000  0.111900  0.224800  1
  H  H375  1  0.960000  0.611900  0.275200  1
  H  H376  1  0.040000  0.888100  0.775200  1
  H  H377  1  0.110400  0.338100  0.720200  1
  H  H378  1  0.889600  0.161900  0.220200  1
  H  H379  1  0.889600  0.661900  0.279800  1
  H  H380  1  0.110400  0.838100  0.779800  1
  H  H381  1  0.917900  0.281000  0.657800  1
  H  H382  1  0.082100  0.219000  0.157800  1
  H  H383  1  0.082100  0.719000  0.342200  1
  H  H384  1  0.917900  0.781000  0.842200  1
  H  H385  1  0.956200  0.194900  0.679400  1
  H  H386  1  0.043800  0.305100  0.179400  1
  H  H387  1  0.043800  0.805100  0.320600  1
  H  H388  1  0.956200  0.694900  0.820600  1
  H  H389  1  0.926200  0.140500  0.657800  1
  H  H390  1  0.073800  0.359500  0.157800  1
  H  H391  1  0.073800  0.859500  0.342200  1
  H  H392  1  0.926200  0.640500  0.842200  1
  H  H393  1  0.985400  0.195800  0.597700  1
  H  H394  1  0.014600  0.304200  0.097700  1
  H  H395  1  0.014600  0.804200  0.402300  1
  H  H396  1  0.985400  0.695800  0.902300  1
  H  H397  1  0.015400  0.250200  0.619300  1
  H  H398  1  0.984600  0.249800  0.119300  1
  H  H399  1  0.984600  0.749800  0.380700  1
  H  H400  1  0.015400  0.750200  0.880700  1
  H  H401  1  0.839000  0.109500  0.626500  1
  H  H402  1  0.161000  0.390500  0.126500  1
  H  H403  1  0.161000  0.890500  0.373500  1
  H  H404  1  0.839000  0.609500  0.873500  1
  H  H405  1  0.818900  0.055200  0.604100  1
  H  H406  1  0.181100  0.444800  0.104100  1
  H  H407  1  0.181100  0.944800  0.395900  1
  H  H408  1  0.818900  0.555200  0.895900  1
  H  H409  1  0.012900  0.082500  0.570000  1
  H  H410  1  0.987100  0.417500  0.070000  1
  H  H411  1  0.987100  0.917500  0.430000  1
  H  H412  1  0.012900  0.582500  0.930000  1
  H  H413  1  0.033000  0.136800  0.592300  1
  H  H414  1  0.967000  0.363200  0.092300  1
  H  H415  1  0.967000  0.863200  0.407700  1
  H  H416  1  0.033000  0.636800  0.907700  1
  H  H417  1  0.981100  0.008400  0.582000  1
  H  H418  1  0.018900  0.491600  0.082000  1
  H  H419  1  0.018900  0.991600  0.418000  1
  H  H420  1  0.981100  0.508400  0.918000  1
  H  H421  1  0.791500  0.946200  0.521400  1
  H  H422  1  0.208500  0.553800  0.021400  1
  H  H423  1  0.208500  0.053800  0.478600  1
  H  H424  1  0.791500  0.446200  0.978600  1
  H  H425  1  0.853600  0.892800  0.521100  1
  H  H426  1  0.146400  0.607200  0.021100  1
  H  H427  1  0.146400  0.107200  0.478900  1
  H  H428  1  0.853600  0.392800  0.978900  1
  H  H429  1  0.960800  0.890500  0.543600  1
  H  H430  1  0.039200  0.609500  0.043600  1
  H  H431  1  0.039200  0.109500  0.456400  1
  H  H432  1  0.960800  0.390500  0.956400  1
  H  H433  1  0.005900  0.941500  0.566500  1
  H  H434  1  0.994100  0.558500  0.066500  1
  H  H435  1  0.994100  0.058500  0.433500  1
  H  H436  1  0.005900  0.441500  0.933500  1
  H  H437  1  0.958500  0.432600  0.454100  1
  H  H438  1  0.041500  0.067400  0.954100  1
  H  H439  1  0.041500  0.567400  0.545900  1
  H  H440  1  0.958500  0.932600  0.045900  1
  H  H441  1  0.014200  0.439200  0.417100  1
  H  H442  1  0.985800  0.060800  0.917100  1
  H  H443  1  0.985800  0.560800  0.582900  1
  H  H444  1  0.014200  0.939200  0.082900  1
  H  H445  1  0.037600  0.386600  0.395600  1
  H  H446  1  0.962400  0.113400  0.895600  1
  H  H447  1  0.962400  0.613400  0.604400  1
  H  H448  1  0.037600  0.886600  0.104400  1
  H  H449  1  0.005300  0.327400  0.411200  1
  H  H450  1  0.994700  0.172600  0.911200  1
  H  H451  1  0.994700  0.672600  0.588800  1
  H  H452  1  0.005300  0.827400  0.088800  1
  H  H453  1  0.944400  0.289000  0.446800  1
  H  H454  1  0.055600  0.211000  0.946800  1
  H  H455  1  0.055600  0.711000  0.553200  1
  H  H456  1  0.944400  0.789000  0.053200  1
  H  H457  1  0.777700  0.282700  0.482900  1
  H  H458  1  0.222300  0.217300  0.982900  1
  H  H459  1  0.222300  0.717300  0.517100  1
  H  H460  1  0.777700  0.782700  0.017100  1
  H  H461  1  0.739600  0.225600  0.500700  1
  H  H462  1  0.260400  0.274400  0.000700  1
  H  H463  1  0.260400  0.774400  0.499300  1
  H  H464  1  0.739600  0.725600  0.999300  1
  H  H465  1  0.954000  0.205700  0.507900  1
  H  H466  1  0.046000  0.294300  0.007900  1
  H  H467  1  0.046000  0.794300  0.492100  1
  H  H468  1  0.954000  0.705700  0.992100  1
  H  H469  1  0.992100  0.262800  0.490200  1
  H  H470  1  0.007900  0.237200  0.990200  1
  H  H471  1  0.007900  0.737200  0.509800  1
  H  H472  1  0.992100  0.762800  0.009800  1
  H  H473  1  0.746900  0.152800  0.495100  1
  H  H474  1  0.253100  0.347200  0.995100  1
  H  H475  1  0.253100  0.847200  0.504900  1
  H  H476  1  0.746900  0.652800  0.004900  1
  H  H477  1  0.717200  0.095300  0.513400  1
  H  H478  1  0.282800  0.404700  0.013400  1
  H  H479  1  0.282800  0.904700  0.486600  1
  H  H480  1  0.717200  0.595300  0.986600  1
  H  H481  1  0.864200  0.125400  0.565300  1
  H  H482  1  0.135800  0.374600  0.065300  1
  H  H483  1  0.135800  0.874600  0.434700  1
  H  H484  1  0.864200  0.625400  0.934700  1
  H  H485  1  0.894000  0.182800  0.547000  1
  H  H486  1  0.106000  0.317200  0.047000  1
  H  H487  1  0.106000  0.817200  0.453000  1
  H  H488  1  0.894000  0.682800  0.953000  1
  H  H489  1  0.687400  0.086700  0.569400  1
  H  H490  1  0.312600  0.413300  0.069400  1
  H  H491  1  0.312600  0.913300  0.430600  1
  H  H492  1  0.687400  0.586700  0.930600  1
  H  H493  1  0.773900  0.952300  0.575900  1
  H  H494  1  0.226100  0.547700  0.075900  1
  H  H495  1  0.226100  0.047700  0.424100  1
  H  H496  1  0.773900  0.452300  0.924100  1
  H  H497  1  0.675700  0.935800  0.601700  1
  H  H498  1  0.324300  0.564200  0.101700  1
  H  H499  1  0.324300  0.064200  0.398300  1
  H  H500  1  0.675700  0.435800  0.898300  1
  H  H501  1  0.590600  0.978100  0.610300  1
  H  H502  1  0.409400  0.521900  0.110300  1
  H  H503  1  0.409400  0.021900  0.389700  1
  H  H504  1  0.590600  0.478100  0.889700  1
  H  H505  1  0.603700  0.037000  0.593000  1
  H  H506  1  0.396300  0.463000  0.093000  1
  H  H507  1  0.396300  0.963000  0.407000  1
  H  H508  1  0.603700  0.537000  0.907000  1
  H  H509  1  0.984100  0.878000  0.588900  1
  H  H510  1  0.015900  0.622000  0.088900  1
  H  H511  1  0.015900  0.122000  0.411100  1
  H  H512  1  0.984100  0.378000  0.911100  1
  H  H513  1  0.098100  0.914400  0.591300  1
  H  H514  1  0.901900  0.585600  0.091300  1
  H  H515  1  0.901900  0.085600  0.408700  1
  H  H516  1  0.098100  0.414400  0.908700  1
  H  H517  1  0.164000  0.918000  0.626700  1
  H  H518  1  0.836000  0.582000  0.126700  1
  H  H519  1  0.836000  0.082000  0.373300  1
  H  H520  1  0.164000  0.418000  0.873300  1
  H  H521  1  0.116000  0.885200  0.659700  1
  H  H522  1  0.884000  0.614800  0.159700  1
  H  H523  1  0.884000  0.114800  0.340300  1
  H  H524  1  0.116000  0.385200  0.840300  1
  H  H525  1  0.882600  0.826300  0.611700  1
  H  H526  1  0.117400  0.673700  0.111700  1
  H  H527  1  0.117400  0.173700  0.388300  1
  H  H528  1  0.882600  0.326300  0.888300  1
  H  H529  1  0.767600  0.828100  0.658100  1
  H  H530  1  0.232400  0.671900  0.158100  1
  H  H531  1  0.232400  0.171900  0.341900  1
  H  H532  1  0.767600  0.328100  0.841900  1
  H  H533  1  0.664900  0.784000  0.662700  1
  H  H534  1  0.335100  0.716000  0.162700  1
  H  H535  1  0.335100  0.216000  0.337300  1
  H  H536  1  0.664900  0.284000  0.837300  1
  H  H537  1  0.784700  0.704300  0.637600  1
  H  H538  1  0.215300  0.795700  0.137600  1
  H  H539  1  0.215300  0.295700  0.362400  1
  H  H540  1  0.784700  0.204300  0.862400  1
  H  H541  1  0.887400  0.748400  0.633100  1
  H  H542  1  0.112600  0.751600  0.133100  1
  H  H543  1  0.112600  0.251600  0.366900  1
  H  H544  1  0.887400  0.248400  0.866900  1
  H  H545  1  0.623600  0.731900  0.686800  1
  H  H546  1  0.376400  0.768100  0.186800  1
  H  H547  1  0.376400  0.268100  0.313200  1
  H  H548  1  0.623600  0.231900  0.813200  1
  H  H549  1  0.522900  0.687900  0.694700  1
  H  H550  1  0.477100  0.812100  0.194700  1
  H  H551  1  0.477100  0.312100  0.305300  1
  H  H552  1  0.522900  0.187900  0.805300  1
  H  H553  1  0.553800  0.638200  0.632200  1
  H  H554  1  0.446200  0.861800  0.132200  1
  H  H555  1  0.446200  0.361800  0.367800  1
  H  H556  1  0.553800  0.138200  0.867800  1
  H  H557  1  0.654500  0.682100  0.624300  1
  H  H558  1  0.345500  0.817900  0.124300  1
  H  H559  1  0.345500  0.317900  0.375700  1
  H  H560  1  0.654500  0.182100  0.875700  1
  H  H561  1  0.522200  0.596300  0.677600  1
  H  H562  1  0.477800  0.903700  0.177600  1
  H  H563  1  0.477800  0.403700  0.322400  1
  H  H564  1  0.522200  0.096300  0.822400  1
  H  H565  1  0.236800  0.574000  0.669700  1
  H  H566  1  0.763200  0.926000  0.169700  1
  H  H567  1  0.763200  0.426000  0.330300  1
  H  H568  1  0.236800  0.074000  0.830300  1
  H  H569  1  0.236300  0.515600  0.687200  1
  H  H570  1  0.763700  0.984400  0.187200  1
  H  H571  1  0.763700  0.484400  0.312800  1
  H  H572  1  0.236300  0.015600  0.812800  1
  H  H573  1  0.347900  0.494000  0.698600  1
  H  H574  1  0.652100  0.006000  0.198600  1
  H  H575  1  0.652100  0.506000  0.301400  1
  H  H576  1  0.347900  0.994000  0.801400  1
  H  H577  1  0.460000  0.530800  0.692700  1
  H  H578  1  0.540000  0.969200  0.192700  1
  H  H579  1  0.540000  0.469200  0.307300  1
  H  H580  1  0.460000  0.030800  0.807300  1
  H  H581  1  0.132300  0.798200  0.684000  1
  H  H582  1  0.867700  0.701800  0.184000  1
  H  H583  1  0.867700  0.201800  0.316000  1
  H  H584  1  0.132300  0.298200  0.816000  1
  H  H585  1  0.213100  0.814100  0.715300  1
  H  H586  1  0.786900  0.685900  0.215300  1
  H  H587  1  0.786900  0.185900  0.284700  1
  H  H588  1  0.213100  0.314100  0.784700  1
  H  H589  1  0.190000  0.862200  0.740900  1
  H  H590  1  0.810000  0.637800  0.240900  1
  H  H591  1  0.810000  0.137800  0.259100  1
  H  H592  1  0.190000  0.362200  0.759100  1
  H  H593  1  0.086100  0.894300  0.735100  1
  H  H594  1  0.913900  0.605700  0.235100  1
  H  H595  1  0.913900  0.105700  0.264900  1
  H  H596  1  0.086100  0.394300  0.764900  1
  H  H597  1  0.961800  0.895800  0.713000  1
  H  H598  1  0.038200  0.604200  0.213000  1
  H  H599  1  0.038200  0.104200  0.287000  1
  H  H600  1  0.961800  0.395800  0.787000  1
  H  H601  1  0.823000  0.859300  0.713400  1
  H  H602  1  0.177000  0.640700  0.213400  1
  H  H603  1  0.177000  0.140700  0.286600  1
  H  H604  1  0.823000  0.359300  0.786600  1
  H  H605  1  0.707200  0.880800  0.707600  1
  H  H606  1  0.292800  0.619200  0.207600  1
  H  H607  1  0.292800  0.119200  0.292400  1
  H  H608  1  0.707200  0.380800  0.792400  1
  H  H609  1  0.775500  0.923100  0.644400  1
  H  H610  1  0.224500  0.576900  0.144400  1
  H  H611  1  0.224500  0.076900  0.355600  1
  H  H612  1  0.775500  0.423100  0.855600  1
  H  H613  1  0.891300  0.901600  0.650100  1
  H  H614  1  0.108700  0.598400  0.150100  1
  H  H615  1  0.108700  0.098400  0.349900  1
  H  H616  1  0.891300  0.401600  0.849900  1
  H  H617  1  0.594600  0.869600  0.683500  1
  H  H618  1  0.405400  0.630400  0.183500  1
  H  H619  1  0.405400  0.130400  0.316500  1
  H  H620  1  0.594600  0.369600  0.816500  1
  H  H621  1  0.479000  0.892700  0.681900  1
  H  H622  1  0.521000  0.607300  0.181900  1
  H  H623  1  0.521000  0.107300  0.318100  1
  H  H624  1  0.479000  0.392700  0.818100  1
  H  H625  1  0.577700  0.992000  0.659600  1
  H  H626  1  0.422300  0.508000  0.159600  1
  H  H627  1  0.422300  0.008000  0.340400  1
  H  H628  1  0.577700  0.492000  0.840400  1
  H  H629  1  0.693300  0.968900  0.661300  1
  H  H630  1  0.306700  0.531100  0.161300  1
  H  H631  1  0.306700  0.031100  0.338700  1
  H  H632  1  0.693300  0.468900  0.838700  1
  H  H633  1  0.426100  0.944900  0.636200  1
  H  H634  1  0.573900  0.555100  0.136200  1
  H  H635  1  0.573900  0.055100  0.363800  1
  H  H636  1  0.426100  0.444900  0.863800  1
  H  H637  1  0.257500  0.021900  0.688300  1
  H  H638  1  0.742500  0.478100  0.188300  1
  H  H639  1  0.742500  0.978100  0.311700  1
  H  H640  1  0.257500  0.521900  0.811700  1
  H  H641  1  0.179100  0.025900  0.656000  1
  H  H642  1  0.820900  0.474100  0.156000  1
  H  H643  1  0.820900  0.974100  0.344000  1
  H  H644  1  0.179100  0.525900  0.844000  1
  H  H645  1  0.203900  0.996600  0.620700  1
  H  H646  1  0.796100  0.503400  0.120700  1
  H  H647  1  0.796100  0.003400  0.379300  1
  H  H648  1  0.203900  0.496600  0.879300  1
  H  H649  1  0.307100  0.963300  0.617600  1
  H  H650  1  0.692900  0.536700  0.117600  1
  H  H651  1  0.692900  0.036700  0.382400  1
  H  H652  1  0.307100  0.463300  0.882400  1
  H  H653  1  0.094100  0.809800  0.627600  1
  H  H654  1  0.905900  0.690200  0.127600  1
  H  H655  1  0.905900  0.190200  0.372400  1
  H  H656  1  0.094100  0.309800  0.872400  1
  H  H657  1  0.134400  0.755800  0.611800  1
  H  H658  1  0.865600  0.744200  0.111800  1
  H  H659  1  0.865600  0.244200  0.388200  1
  H  H660  1  0.134400  0.255800  0.888200  1
  H  H661  1  0.093600  0.697900  0.628000  1
  H  H662  1  0.906400  0.802100  0.128000  1
  H  H663  1  0.906400  0.302100  0.372000  1
  H  H664  1  0.093600  0.197900  0.872000  1
  H  H665  1  0.012600  0.694100  0.660100  1
  H  H666  1  0.987400  0.805900  0.160100  1
  H  H667  1  0.987400  0.305900  0.339900  1
  H  H668  1  0.012600  0.194100  0.839900  1
  H  H669  1  0.947900  0.732400  0.693600  1
  H  H670  1  0.052100  0.767600  0.193600  1
  H  H671  1  0.052100  0.267600  0.306400  1
  H  H672  1  0.947900  0.232400  0.806400  1
  H  H673  1  0.993600  0.797500  0.730600  1
  H  H674  1  0.006400  0.702500  0.230600  1
  H  H675  1  0.006400  0.202500  0.269400  1
  H  H676  1  0.993600  0.297500  0.769400  1
  H  H677  1  0.929300  0.804500  0.765700  1
  H  H678  1  0.070700  0.695500  0.265700  1
  H  H679  1  0.070700  0.195500  0.234300  1
  H  H680  1  0.929300  0.304500  0.734300  1
  H  H681  1  0.734400  0.784100  0.731000  1
  H  H682  1  0.265600  0.715900  0.231000  1
  H  H683  1  0.265600  0.215900  0.269000  1
  H  H684  1  0.734400  0.284100  0.769000  1
  H  H685  1  0.798600  0.777100  0.695900  1
  H  H686  1  0.201400  0.722900  0.195900  1
  H  H687  1  0.201400  0.222900  0.304100  1
  H  H688  1  0.798600  0.277100  0.804100  1
  H  H689  1  0.841200  0.761800  0.794200  1
  H  H690  1  0.158800  0.738200  0.294200  1
  H  H691  1  0.158800  0.238200  0.205800  1
  H  H692  1  0.841200  0.261800  0.705800  1
  H  H693  1  0.776500  0.767100  0.829400  1
  H  H694  1  0.223500  0.732900  0.329400  1
  H  H695  1  0.223500  0.232900  0.170600  1
  H  H696  1  0.776500  0.267100  0.670600  1
  H  H697  1  0.651000  0.839300  0.798300  1
  H  H698  1  0.349000  0.660700  0.298300  1
  H  H699  1  0.349000  0.160700  0.201700  1
  H  H700  1  0.651000  0.339300  0.701700  1
  H  H701  1  0.715700  0.834000  0.763100  1
  H  H702  1  0.284300  0.666000  0.263100  1
  H  H703  1  0.284300  0.166000  0.236900  1
  H  H704  1  0.715700  0.334000  0.736900  1
  H  H705  1  0.693900  0.853900  0.842300  1
  H  H706  1  0.306100  0.646100  0.342300  1
  H  H707  1  0.306100  0.146100  0.157700  1
  H  H708  1  0.693900  0.353900  0.657700  1
  H  H709  1  0.500200  0.772500  0.895100  1
  H  H710  1  0.499800  0.727500  0.395100  1
  H  H711  1  0.499800  0.227500  0.104900  1
  H  H712  1  0.500200  0.272500  0.604900  1
  H  H713  1  0.484800  0.823400  0.919200  1
  H  H714  1  0.515200  0.676600  0.419200  1
  H  H715  1  0.515200  0.176600  0.080800  1
  H  H716  1  0.484800  0.323400  0.580800  1
  H  H717  1  0.551800  0.880900  0.911600  1
  H  H718  1  0.448200  0.619100  0.411600  1
  H  H719  1  0.448200  0.119100  0.088400  1
  H  H720  1  0.551800  0.380900  0.588400  1
  H  H721  1  0.634100  0.887500  0.879900  1
  H  H722  1  0.365900  0.612500  0.379900  1
  H  H723  1  0.365900  0.112500  0.120100  1
  H  H724  1  0.634100  0.387500  0.620100  1
  H  H725  1  0.373400  0.567000  0.628900  1
  H  H726  1  0.626600  0.933000  0.128900  1
  H  H727  1  0.626600  0.433000  0.371100  1
  H  H728  1  0.373400  0.067000  0.871100  1
  H  H729  1  0.425300  0.556800  0.592200  1
  H  H730  1  0.574700  0.943200  0.092200  1
  H  H731  1  0.574700  0.443200  0.407800  1
  H  H732  1  0.425300  0.056800  0.907800  1
  H  H733  1  0.470300  0.607200  0.568700  1
  H  H734  1  0.529700  0.892800  0.068700  1
  H  H735  1  0.529700  0.392800  0.431300  1
  H  H736  1  0.470300  0.107200  0.931300  1
  H  H737  1  0.463500  0.667900  0.582000  1
  H  H738  1  0.536500  0.832100  0.082000  1
  H  H739  1  0.536500  0.332100  0.418000  1
  H  H740  1  0.463500  0.167900  0.918000  1
  H  H741  1  0.419200  0.711100  0.614600  1
  H  H742  1  0.580800  0.788900  0.114600  1
  H  H743  1  0.580800  0.288900  0.385400  1
  H  H744  1  0.419200  0.211100  0.885400  1
  H  H745  1  0.258700  0.718000  0.652900  1
  H  H746  1  0.741300  0.782000  0.152900  1
  H  H747  1  0.741300  0.282000  0.347100  1
  H  H748  1  0.258700  0.218000  0.847100  1
  H  H749  1  0.242900  0.776000  0.669000  1
  H  H750  1  0.757100  0.724000  0.169000  1
  H  H751  1  0.757100  0.224000  0.331000  1
  H  H752  1  0.242900  0.276000  0.831000  1
  H  H753  1  0.465600  0.799000  0.674300  1
  H  H754  1  0.534400  0.701000  0.174300  1
  H  H755  1  0.534400  0.201000  0.325700  1
  H  H756  1  0.465600  0.299000  0.825700  1
  H  H757  1  0.481400  0.741000  0.658200  1
  H  H758  1  0.518600  0.759000  0.158200  1
  H  H759  1  0.518600  0.259000  0.341800  1
  H  H760  1  0.481400  0.241000  0.841800  1
  H  H761  1  0.400200  0.825400  0.714400  1
  H  H762  1  0.599800  0.674600  0.214400  1
  H  H763  1  0.599800  0.174600  0.285600  1
  H  H764  1  0.400200  0.325400  0.785600  1
  H  H765  1  0.396300  0.886300  0.727700  1
  H  H766  1  0.603700  0.613700  0.227700  1
  H  H767  1  0.603700  0.113700  0.272300  1
  H  H768  1  0.396300  0.386300  0.772300  1
  H  H769  1  0.274800  0.908500  0.670600  1
  H  H770  1  0.725200  0.591500  0.170600  1
  H  H771  1  0.725200  0.091500  0.329400  1
  H  H772  1  0.274800  0.408500  0.829400  1
  H  H773  1  0.278800  0.847600  0.657300  1
  H  H774  1  0.721200  0.652400  0.157300  1
  H  H775  1  0.721200  0.152400  0.342700  1
  H  H776  1  0.278800  0.347600  0.842700  1
  H  H777  1  0.251100  0.929400  0.728900  1
  H  H778  1  0.748900  0.570600  0.228900  1
  H  H779  1  0.748900  0.070600  0.271100  1
  H  H780  1  0.251100  0.429400  0.771100  1
  H  H781  1  0.390000  0.062000  0.717700  1
  H  H782  1  0.610000  0.438000  0.217700  1
  H  H783  1  0.610000  0.938000  0.282300  1
  H  H784  1  0.390000  0.562000  0.782300  1
  H  H785  1  0.313100  0.085600  0.745700  1
  H  H786  1  0.686900  0.414400  0.245700  1
  H  H787  1  0.686900  0.914400  0.254300  1
  H  H788  1  0.313100  0.585600  0.754300  1
  H  H789  1  0.222200  0.046000  0.764800  1
  H  H790  1  0.777800  0.454000  0.264800  1
  H  H791  1  0.777800  0.954000  0.235200  1
  H  H792  1  0.222200  0.546000  0.735200  1
  H  H793  1  0.208200  0.982600  0.755900  1
  H  H794  1  0.791800  0.517400  0.255900  1
  H  H795  1  0.791800  0.017400  0.244100  1
  H  H796  1  0.208200  0.482600  0.744100  1
  H  H797  1  0.248900  0.618200  0.618800  1
  H  H798  1  0.751100  0.881800  0.118800  1
  H  H799  1  0.751100  0.381800  0.381200  1
  H  H800  1  0.248900  0.118200  0.881200  1
  H  H801  1  0.119700  0.614100  0.616200  1
  H  H802  1  0.880300  0.885900  0.116200  1
  H  H803  1  0.880300  0.385900  0.383800  1
  H  H804  1  0.119700  0.114100  0.883800  1
  H  H805  1  0.050000  0.631700  0.648100  1
  H  H806  1  0.950000  0.868300  0.148100  1
  H  H807  1  0.950000  0.368300  0.351900  1
  H  H808  1  0.050000  0.131700  0.851900  1
  H  H809  1  0.109600  0.653600  0.682600  1
  H  H810  1  0.890400  0.846400  0.182600  1
  H  H811  1  0.890400  0.346400  0.317400  1
  H  H812  1  0.109600  0.153600  0.817400  1
  H  H813  1  0.235700  0.668400  0.704400  1
  H  H814  1  0.764300  0.831600  0.204400  1
  H  H815  1  0.764300  0.331600  0.295600  1
  H  H816  1  0.235700  0.168400  0.795600  1
  H  H817  1  0.372400  0.721000  0.708700  1
  H  H818  1  0.627600  0.779000  0.208700  1
  H  H819  1  0.627600  0.279000  0.291300  1
  H  H820  1  0.372400  0.221000  0.791300  1
  H  H821  1  0.450700  0.733900  0.740900  1
  H  H822  1  0.549300  0.766100  0.240900  1
  H  H823  1  0.549300  0.266100  0.259100  1
  H  H824  1  0.450700  0.233900  0.759100  1
  H  H825  1  0.465100  0.623900  0.749700  1
  H  H826  1  0.534900  0.876100  0.249700  1
  H  H827  1  0.534900  0.376100  0.250300  1
  H  H828  1  0.465100  0.123900  0.750300  1
  H  H829  1  0.386800  0.611000  0.717400  1
  H  H830  1  0.613200  0.889000  0.217400  1
  H  H831  1  0.613200  0.389000  0.282600  1
  H  H832  1  0.386800  0.111000  0.782600  1
  H  H833  1  0.578500  0.731100  0.753400  1
  H  H834  1  0.421500  0.768900  0.253400  1
  H  H835  1  0.421500  0.268900  0.246600  1
  H  H836  1  0.578500  0.231100  0.746600  1
  H  H837  1  0.648800  0.748200  0.786800  1
  H  H838  1  0.351200  0.751800  0.286800  1
  H  H839  1  0.351200  0.251800  0.213200  1
  H  H840  1  0.648800  0.248200  0.713200  1
  H  H841  1  0.534200  0.665300  0.823600  1
  H  H842  1  0.465800  0.834700  0.323600  1
  H  H843  1  0.465800  0.334700  0.176400  1
  H  H844  1  0.534200  0.165300  0.676400  1
  H  H845  1  0.463900  0.648200  0.790200  1
  H  H846  1  0.536100  0.851800  0.290200  1
  H  H847  1  0.536100  0.351800  0.209800  1
  H  H848  1  0.463900  0.148200  0.709800  1
  H  H849  1  0.701900  0.685200  0.829300  1
  H  H850  1  0.298100  0.814800  0.329300  1
  H  H851  1  0.298100  0.314800  0.170700  1
  H  H852  1  0.701900  0.185200  0.670700  1
  H  H853  1  0.676600  0.778800  0.898800  1
  H  H854  1  0.323400  0.721200  0.398800  1
  H  H855  1  0.323400  0.221200  0.101200  1
  H  H856  1  0.676600  0.278800  0.601200  1
  H  H857  1  0.774600  0.755500  0.918700  1
  H  H858  1  0.225400  0.744500  0.418700  1
  H  H859  1  0.225400  0.244500  0.081300  1
  H  H860  1  0.774600  0.255500  0.581300  1
  H  H861  1  0.835200  0.708100  0.901900  1
  H  H862  1  0.164800  0.791900  0.401900  1
  H  H863  1  0.164800  0.291900  0.098100  1
  H  H864  1  0.835200  0.208100  0.598100  1
  H  H865  1  0.797800  0.683800  0.865200  1
  H  H866  1  0.202200  0.816200  0.365200  1
  H  H867  1  0.202200  0.316200  0.134800  1
  H  H868  1  0.797800  0.183800  0.634800  1
  H  H869  1  0.412500  0.052000  0.661600  1
  H  H870  1  0.587500  0.448000  0.161600  1
  H  H871  1  0.587500  0.948000  0.338400  1
  H  H872  1  0.412500  0.552000  0.838400  1
  H  H873  1  0.504400  0.100600  0.653700  1
  H  H874  1  0.495600  0.399400  0.153700  1
  H  H875  1  0.495600  0.899400  0.346300  1
  H  H876  1  0.504400  0.600600  0.846300  1
  H  H877  1  0.614900  0.106000  0.675100  1
  H  H878  1  0.385100  0.394000  0.175100  1
  H  H879  1  0.385100  0.894000  0.324900  1
  H  H880  1  0.614900  0.606000  0.824900  1
  H  H881  1  0.633600  0.062800  0.704500  1
  H  H882  1  0.366400  0.437200  0.204500  1
  H  H883  1  0.366400  0.937200  0.295500  1
  H  H884  1  0.633600  0.562800  0.795500  1
  H  H885  1  0.577700  0.007700  0.729200  1
  H  H886  1  0.422300  0.492300  0.229200  1
  H  H887  1  0.422300  0.992300  0.270800  1
  H  H888  1  0.577700  0.507700  0.770800  1
  H  H889  1  0.403700  0.965300  0.758000  1
  H  H890  1  0.596300  0.534700  0.258000  1
  H  H891  1  0.596300  0.034700  0.242000  1
  H  H892  1  0.403700  0.465300  0.742000  1
  H  H893  1  0.410900  0.917600  0.785300  1
  H  H894  1  0.589100  0.582400  0.285300  1
  H  H895  1  0.589100  0.082400  0.214700  1
  H  H896  1  0.410900  0.417600  0.714700  1
  H  H897  1  0.582500  0.882300  0.749100  1
  H  H898  1  0.417500  0.617700  0.249100  1
  H  H899  1  0.417500  0.117700  0.250900  1
  H  H900  1  0.582500  0.382300  0.750900  1
  H  H901  1  0.575300  0.930000  0.721800  1
  H  H902  1  0.424700  0.570000  0.221800  1
  H  H903  1  0.424700  0.070000  0.278200  1
  H  H904  1  0.575300  0.430000  0.778200  1
  H  H905  1  0.488600  0.890100  0.816500  1
  H  H906  1  0.511400  0.609900  0.316500  1
  H  H907  1  0.511400  0.109900  0.183500  1
  H  H908  1  0.488600  0.390100  0.683500  1
  H  H909  1  0.497200  0.839700  0.841700  1
  H  H910  1  0.502800  0.660300  0.341700  1
  H  H911  1  0.502800  0.160300  0.158300  1
  H  H912  1  0.497200  0.339700  0.658300  1
  H  H913  1  0.512000  0.772300  0.785400  1
  H  H914  1  0.488000  0.727700  0.285400  1
  H  H915  1  0.488000  0.227700  0.214600  1
  H  H916  1  0.512000  0.272300  0.714600  1
  H  H917  1  0.503400  0.822700  0.760200  1
  H  H918  1  0.496600  0.677300  0.260200  1
  H  H919  1  0.496600  0.177300  0.239800  1
  H  H920  1  0.503400  0.322700  0.739800  1
  H  H921  1  0.413800  0.750000  0.824300  1
  H  H922  1  0.586200  0.750000  0.324300  1
  H  H923  1  0.586200  0.250000  0.175700  1
  H  H924  1  0.413800  0.250000  0.675700  1
  H  H925  1  0.580700  0.693800  0.887300  1
  H  H926  1  0.419300  0.806200  0.387300  1
  H  H927  1  0.419300  0.306200  0.112700  1
  H  H928  1  0.580700  0.193800  0.612700  1
  H  H929  1  0.491900  0.642500  0.890800  1
  H  H930  1  0.508100  0.857500  0.390800  1
  H  H931  1  0.508100  0.357500  0.109200  1
  H  H932  1  0.491900  0.142500  0.609200  1
  H  H933  1  0.384700  0.638600  0.867800  1
  H  H934  1  0.615300  0.861400  0.367800  1
  H  H935  1  0.615300  0.361400  0.132200  1
  H  H936  1  0.384700  0.138600  0.632200  1
  H  H937  1  0.366200  0.685900  0.841100  1
  H  H938  1  0.633800  0.814100  0.341100  1
  H  H939  1  0.633800  0.314100  0.158900  1
  H  H940  1  0.366200  0.185900  0.658900  1
  H  H941  1  0.192000  0.265100  0.420900  1
  H  H942  1  0.808000  0.234900  0.920900  1
  H  H943  1  0.808000  0.734900  0.579100  1
  H  H944  1  0.192000  0.765100  0.079100  1
  H  H945  1  0.182100  0.221700  0.414800  1
  H  H946  1  0.817900  0.278300  0.914800  1
  H  H947  1  0.817900  0.778300  0.585200  1
  H  H948  1  0.182100  0.721700  0.085200  1
  H  H949  1  0.181500  0.235100  0.441600  1
  H  H950  1  0.818500  0.264900  0.941600  1
  H  H951  1  0.818500  0.764900  0.558400  1
  H  H952  1  0.181500  0.735100  0.058400  1
  H  H953  1  0.836600  0.184000  0.427100  1
  H  H954  1  0.163400  0.316000  0.927100  1
  H  H955  1  0.163400  0.816000  0.572900  1
  H  H956  1  0.836600  0.684000  0.072900  1
  H  H957  1  0.904300  0.206100  0.440800  1
  H  H958  1  0.095700  0.293900  0.940800  1
  H  H959  1  0.095700  0.793900  0.559200  1
  H  H960  1  0.904300  0.706100  0.059200  1
  H  H961  1  0.825200  0.198300  0.453300  1
  H  H962  1  0.174800  0.301700  0.953300  1
  H  H963  1  0.174800  0.801700  0.546700  1
  H  H964  1  0.825200  0.698300  0.046700  1
  H  H965  1  0.358300  0.100500  0.597400  1
  H  H966  1  0.641700  0.399500  0.097400  1
  H  H967  1  0.641700  0.899500  0.402600  1
  H  H968  1  0.358300  0.600500  0.902600  1
  H  H969  1  0.341500  0.142200  0.592400  1
  H  H970  1  0.658500  0.357800  0.092400  1
  H  H971  1  0.658500  0.857800  0.407600  1
  H  H972  1  0.341500  0.642200  0.907600  1
  H  H973  1  0.329100  0.111600  0.572100  1
  H  H974  1  0.670900  0.388400  0.072100  1
  H  H975  1  0.670900  0.888400  0.427900  1
  H  H976  1  0.329100  0.611600  0.927900  1
  H  H977  1  0.769800  0.378100  0.609800  1
  H  H978  1  0.230200  0.121900  0.109800  1
  H  H979  1  0.230200  0.621900  0.390200  1
  H  H980  1  0.769800  0.878100  0.890200  1
  H  H981  1  0.778200  0.349700  0.588600  1
  H  H982  1  0.221800  0.150300  0.088600  1
  H  H983  1  0.221800  0.650300  0.411400  1
  H  H984  1  0.778200  0.849700  0.911400  1
  H  H985  1  0.847500  0.377900  0.596500  1
  H  H986  1  0.152500  0.122100  0.096500  1
  H  H987  1  0.152500  0.622100  0.403500  1
  H  H988  1  0.847500  0.877900  0.903500  1
  H  H989  1  0.355300  0.039500  0.577200  1
  H  H990  1  0.644700  0.460500  0.077200  1
  H  H991  1  0.644700  0.960500  0.422800  1
  H  H992  1  0.355300  0.539500  0.922800  1
  H  H993  1  0.422600  0.064900  0.589100  1
  H  H994  1  0.577400  0.435100  0.089100  1
  H  H995  1  0.577400  0.935100  0.410900  1
  H  H996  1  0.422600  0.564900  0.910900  1
  H  H997  1  0.358300  0.044500  0.605100  1
  H  H998  1  0.641700  0.455500  0.105100  1
  H  H999  1  0.641700  0.955500  0.394900  1
  H  H1000  1  0.358300  0.544500  0.894900  1
  H  H1001  1  0.268700  0.146000  0.721300  1
  H  H1002  1  0.731300  0.354000  0.221300  1
  H  H1003  1  0.731300  0.854000  0.278700  1
  H  H1004  1  0.268700  0.646000  0.778700  1
  H  H1005  1  0.216800  0.173500  0.733500  1
  H  H1006  1  0.783200  0.326500  0.233500  1
  H  H1007  1  0.783200  0.826500  0.266500  1
  H  H1008  1  0.216800  0.673500  0.766500  1
  H  H1009  1  0.297500  0.169600  0.743900  1
  H  H1010  1  0.702500  0.330400  0.243900  1
  H  H1011  1  0.702500  0.830400  0.256100  1
  H  H1012  1  0.297500  0.669600  0.756100  1
  H  H1013  1  0.238500  0.356400  0.880700  1
  H  H1014  1  0.761500  0.143600  0.380700  1
  H  H1015  1  0.761500  0.643600  0.119300  1
  H  H1016  1  0.238500  0.856400  0.619300  1
  H  H1017  1  0.203500  0.329600  0.901000  1
  H  H1018  1  0.796500  0.170400  0.401000  1
  H  H1019  1  0.796500  0.670400  0.099000  1
  H  H1020  1  0.203500  0.829600  0.599000  1
  H  H1021  1  0.199900  0.316000  0.874300  1
  H  H1022  1  0.800100  0.184000  0.374300  1
  H  H1023  1  0.800100  0.684000  0.125700  1
  H  H1024  1  0.199900  0.816000  0.625700  1
  H  H1025  1  0.473400  0.234600  0.910200  1
  H  H1026  1  0.526600  0.265400  0.410200  1
  H  H1027  1  0.526600  0.765400  0.089800  1
  H  H1028  1  0.473400  0.734600  0.589800  1
  H  H1029  1  0.502300  0.262100  0.889400  1
  H  H1030  1  0.497700  0.237900  0.389400  1
  H  H1031  1  0.497700  0.737900  0.110600  1
  H  H1032  1  0.502300  0.762100  0.610600  1
  H  H1033  1  0.489700  0.278100  0.915100  1
  H  H1034  1  0.510300  0.221900  0.415100  1
  H  H1035  1  0.510300  0.721900  0.084900  1
  H  H1036  1  0.489700  0.778100  0.584900  1
  H  H1037  1  0.882900  0.987900  0.721600  1
  H  H1038  1  0.117100  0.512100  0.221600  1
  H  H1039  1  0.117100  0.012100  0.278400  1
  H  H1040  1  0.882900  0.487900  0.778400  1
  H  H1041  1  0.864300  0.987500  0.694100  1
  H  H1042  1  0.135700  0.512500  0.194100  1
  H  H1043  1  0.135700  0.012500  0.305900  1
  H  H1044  1  0.864300  0.487500  0.805900  1
  H  H1045  1  0.853700  0.949800  0.708900  1
  H  H1046  1  0.146300  0.550200  0.208900  1
  H  H1047  1  0.146300  0.050200  0.291100  1
  H  H1048  1  0.853700  0.449800  0.791100  1
  H  H1049  1  0.951200  0.016700  0.641700  1
  H  H1050  1  0.048800  0.483300  0.141700  1
  H  H1051  1  0.048800  0.983300  0.358300  1
  H  H1052  1  0.951200  0.516700  0.858300  1
  H  H1053  1  0.022100  0.019500  0.625200  1
  H  H1054  1  0.977900  0.480500  0.125200  1
  H  H1055  1  0.977900  0.980500  0.374800  1
  H  H1056  1  0.022100  0.519500  0.874800  1
  H  H1057  1  0.055900  0.973900  0.640200  1
  H  H1058  1  0.944100  0.526100  0.140200  1
  H  H1059  1  0.944100  0.026100  0.359800  1
  H  H1060  1  0.055900  0.473900  0.859800  1
  H  H1061  1  0.973800  0.967100  0.629800  1
  H  H1062  1  0.026200  0.532900  0.129800  1
  H  H1063  1  0.026200  0.032900  0.370200  1
  H  H1064  1  0.973800  0.467100  0.870200  1
  H  H1065  1  0.986100  0.971100  0.657600  1
  H  H1066  1  0.013900  0.528900  0.157600  1
  H  H1067  1  0.013900  0.028900  0.342400  1
  H  H1068  1  0.986100  0.471100  0.842400  1
  H  H1069  1  0.065400  0.072300  0.632900  1
  H  H1070  1  0.934600  0.427700  0.132900  1
  H  H1071  1  0.934600  0.927700  0.367100  1
  H  H1072  1  0.065400  0.572300  0.867100  1
  H  H1073  1  0.990400  0.076500  0.646300  1
  H  H1074  1  0.009600  0.423500  0.146300  1
  H  H1075  1  0.009600  0.923500  0.353700  1
  H  H1076  1  0.990400  0.576500  0.853700  1
  H  H1077  1  0.035700  0.110200  0.668400  1
  H  H1078  1  0.964300  0.389800  0.168400  1
  H  H1079  1  0.964300  0.889800  0.331600  1
  H  H1080  1  0.035700  0.610200  0.831600  1
  H  H1081  1  0.098300  0.115800  0.648500  1
  H  H1082  1  0.901700  0.384200  0.148500  1
  H  H1083  1  0.901700  0.884200  0.351500  1
  H  H1084  1  0.098300  0.615800  0.851500  1
  H  H1085  1  0.109200  0.089500  0.670600  1
  H  H1086  1  0.890800  0.410500  0.170600  1
  H  H1087  1  0.890800  0.910500  0.329400  1
  H  H1088  1  0.109200  0.589500  0.829400  1
  H  H1089  1  0.644700  0.101000  0.409300  1
  H  H1090  1  0.355300  0.399000  0.909300  1
  H  H1091  1  0.355300  0.899000  0.590700  1
  H  H1092  1  0.644700  0.601000  0.090700  1
  H  H1093  1  0.655200  0.073800  0.431000  1
  H  H1094  1  0.344800  0.426200  0.931000  1
  H  H1095  1  0.344800  0.926200  0.569000  1
  H  H1096  1  0.655200  0.573800  0.069000  1
  H  H1097  1  0.726200  0.094600  0.418100  1
  H  H1098  1  0.273800  0.405400  0.918100  1
  H  H1099  1  0.273800  0.905400  0.581900  1
  H  H1100  1  0.726200  0.594600  0.081900  1
  H  H1101  1  0.358500  0.343600  0.584800  1
  H  H1102  1  0.641500  0.156400  0.084800  1
  H  H1103  1  0.641500  0.656400  0.415200  1
  H  H1104  1  0.358500  0.843600  0.915200  1
  H  H1105  1  0.286700  0.364400  0.590000  1
  H  H1106  1  0.713300  0.135600  0.090000  1
  H  H1107  1  0.713300  0.635600  0.410000  1
  H  H1108  1  0.286700  0.864400  0.910000  1
  H  H1109  1  0.284300  0.320700  0.594300  1
  H  H1110  1  0.715700  0.179300  0.094300  1
  H  H1111  1  0.715700  0.679300  0.405700  1
  H  H1112  1  0.284300  0.820700  0.905700  1
  H  H1113  1  0.039300  0.107900  0.799400  1
  H  H1114  1  0.960700  0.392100  0.299400  1
  H  H1115  1  0.960700  0.892100  0.200600  1
  H  H1116  1  0.039300  0.607900  0.700600  1
  H  H1117  1  0.024200  0.071700  0.783400  1
  H  H1118  1  0.975800  0.428300  0.283400  1
  H  H1119  1  0.975800  0.928300  0.216600  1
  H  H1120  1  0.024200  0.571700  0.716600  1
  H  H1121  1  0.016700  0.111800  0.772400  1
  H  H1122  1  0.983300  0.388200  0.272400  1
  H  H1123  1  0.983300  0.888200  0.227600  1
  H  H1124  1  0.016700  0.611800  0.727600  1
  C  C1125  1  0.522500  0.258200  0.494000  1
  C  C1126  1  0.477500  0.241800  0.994000  1
  C  C1127  1  0.477500  0.741800  0.506000  1
  C  C1128  1  0.522500  0.758200  0.006000  1
  C  C1129  1  0.570400  0.211400  0.470100  1
  C  C1130  1  0.429600  0.288600  0.970100  1
  C  C1131  1  0.429600  0.788600  0.529900  1
  C  C1132  1  0.570400  0.711400  0.029900  1
  C  C1133  1  0.612900  0.238800  0.457500  1
  C  C1134  1  0.387100  0.261200  0.957500  1
  C  C1135  1  0.387100  0.761200  0.542500  1
  C  C1136  1  0.612900  0.738800  0.042500  1
  C  C1137  1  0.610300  0.275900  0.463200  1
  C  C1138  1  0.389700  0.224100  0.963200  1
  C  C1139  1  0.389700  0.724100  0.536800  1
  C  C1140  1  0.610300  0.775900  0.036800  1
  C  C1141  1  0.565100  0.285600  0.481500  1
  C  C1142  1  0.434900  0.214400  0.981500  1
  C  C1143  1  0.434900  0.714400  0.518500  1
  C  C1144  1  0.565100  0.785600  0.018500  1
  C  C1145  1  0.478500  0.263100  0.514700  1
  C  C1146  1  0.521500  0.236900  0.014700  1
  C  C1147  1  0.521500  0.736900  0.485300  1
  C  C1148  1  0.478500  0.763100  0.985300  1
  C  C1149  1  0.403300  0.236500  0.544200  1
  C  C1150  1  0.596700  0.263500  0.044200  1
  C  C1151  1  0.596700  0.763500  0.455800  1
  C  C1152  1  0.403300  0.736500  0.955800  1
  C  C1153  1  0.433600  0.225200  0.565200  1
  C  C1154  1  0.566400  0.274800  0.065200  1
  C  C1155  1  0.566400  0.774800  0.434800  1
  C  C1156  1  0.433600  0.725200  0.934800  1
  C  C1157  1  0.393600  0.225900  0.586000  1
  C  C1158  1  0.606400  0.274100  0.086000  1
  C  C1159  1  0.606400  0.774100  0.414000  1
  C  C1160  1  0.393600  0.725900  0.914000  1
  C  C1161  1  0.323300  0.237800  0.585800  1
  C  C1162  1  0.676700  0.262200  0.085800  1
  C  C1163  1  0.676700  0.762200  0.414200  1
  C  C1164  1  0.323300  0.737800  0.914200  1
  C  C1165  1  0.293000  0.249100  0.564900  1
  C  C1166  1  0.707000  0.250900  0.064900  1
  C  C1167  1  0.707000  0.750900  0.435100  1
  C  C1168  1  0.293000  0.749100  0.935100  1
  C  C1169  1  0.333000  0.248500  0.544100  1
  C  C1170  1  0.667000  0.251500  0.044100  1
  C  C1171  1  0.667000  0.751500  0.455900  1
  C  C1172  1  0.333000  0.748500  0.955900  1
  C  C1173  1  0.276500  0.234600  0.608100  1
  C  C1174  1  0.723500  0.265400  0.108100  1
  C  C1175  1  0.723500  0.765400  0.391900  1
  C  C1176  1  0.276500  0.734600  0.891900  1
  C  C1177  1  0.303500  0.255600  0.627200  1
  C  C1178  1  0.696500  0.244400  0.127200  1
  C  C1179  1  0.696500  0.744400  0.372800  1
  C  C1180  1  0.303500  0.755600  0.872800  1
  C  C1181  1  0.264400  0.253900  0.648200  1
  C  C1182  1  0.735600  0.246100  0.148200  1
  C  C1183  1  0.735600  0.746100  0.351800  1
  C  C1184  1  0.264400  0.753900  0.851800  1
  C  C1185  1  0.198200  0.231000  0.650100  1
  C  C1186  1  0.801800  0.269000  0.150100  1
  C  C1187  1  0.801800  0.769000  0.349900  1
  C  C1188  1  0.198200  0.731000  0.849900  1
  C  C1189  1  0.171200  0.210000  0.631000  1
  C  C1190  1  0.828800  0.290000  0.131000  1
  C  C1191  1  0.828800  0.790000  0.369000  1
  C  C1192  1  0.171200  0.710000  0.869000  1
  C  C1193  1  0.210300  0.211700  0.610000  1
  C  C1194  1  0.789700  0.288300  0.110000  1
  C  C1195  1  0.789700  0.788300  0.390000  1
  C  C1196  1  0.210300  0.711700  0.890000  1
  C  C1197  1  0.142200  0.199500  0.682800  1
  C  C1198  1  0.857800  0.300500  0.182800  1
  C  C1199  1  0.857800  0.800500  0.317200  1
  C  C1200  1  0.142200  0.699500  0.817200  1
  C  C1201  1  0.093600  0.198800  0.701300  1
  C  C1202  1  0.906400  0.301200  0.201300  1
  C  C1203  1  0.906400  0.801200  0.298700  1
  C  C1204  1  0.093600  0.698800  0.798700  1
  C  C1205  1  0.016600  0.236100  0.723700  1
  C  C1206  1  0.983400  0.263900  0.223700  1
  C  C1207  1  0.983400  0.763900  0.276300  1
  C  C1208  1  0.016600  0.736100  0.776300  1
  C  C1209  1  0.991100  0.205300  0.737000  1
  C  C1210  1  0.008900  0.294700  0.237000  1
  C  C1211  1  0.008900  0.794700  0.263000  1
  C  C1212  1  0.991100  0.705300  0.763000  1
  C  C1213  1  0.016900  0.171200  0.732500  1
  C  C1214  1  0.983100  0.328800  0.232500  1
  C  C1215  1  0.983100  0.828800  0.267500  1
  C  C1216  1  0.016900  0.671200  0.767500  1
  C  C1217  1  0.068100  0.167900  0.714700  1
  C  C1218  1  0.931900  0.332100  0.214700  1
  C  C1219  1  0.931900  0.832100  0.285300  1
  C  C1220  1  0.068100  0.667900  0.785300  1
  C  C1221  1  0.427300  0.133000  0.471900  1
  C  C1222  1  0.572700  0.367000  0.971900  1
  C  C1223  1  0.572700  0.867000  0.528100  1
  C  C1224  1  0.427300  0.633000  0.028100  1
  C  C1225  1  0.535100  0.117500  0.492900  1
  C  C1226  1  0.464900  0.382500  0.992900  1
  C  C1227  1  0.464900  0.882500  0.507100  1
  C  C1228  1  0.535100  0.617500  0.007100  1
  C  C1229  1  0.537100  0.086100  0.479000  1
  C  C1230  1  0.462900  0.413900  0.979000  1
  C  C1231  1  0.462900  0.913900  0.521000  1
  C  C1232  1  0.537100  0.586100  0.021000  1
  C  C1233  1  0.484200  0.078100  0.461500  1
  C  C1234  1  0.515800  0.421900  0.961500  1
  C  C1235  1  0.515800  0.921900  0.538500  1
  C  C1236  1  0.484200  0.578100  0.038500  1
  C  C1237  1  0.429300  0.101600  0.458000  1
  C  C1238  1  0.570700  0.398400  0.958000  1
  C  C1239  1  0.570700  0.898400  0.542000  1
  C  C1240  1  0.429300  0.601600  0.042000  1
  C  C1241  1  0.373300  0.160600  0.470500  1
  C  C1242  1  0.626700  0.339400  0.970500  1
  C  C1243  1  0.626700  0.839400  0.529500  1
  C  C1244  1  0.373300  0.660600  0.029500  1
  C  C1245  1  0.324700  0.211700  0.484600  1
  C  C1246  1  0.675300  0.288300  0.984600  1
  C  C1247  1  0.675300  0.788300  0.515400  1
  C  C1248  1  0.324700  0.711700  0.015400  1
  C  C1249  1  0.252900  0.202000  0.492400  1
  C  C1250  1  0.747100  0.298000  0.992400  1
  C  C1251  1  0.747100  0.798000  0.507600  1
  C  C1252  1  0.252900  0.702000  0.007600  1
  C  C1253  1  0.202600  0.228400  0.493000  1
  C  C1254  1  0.797400  0.271600  0.993000  1
  C  C1255  1  0.797400  0.771600  0.507000  1
  C  C1256  1  0.202600  0.728400  0.007000  1
  C  C1257  1  0.224200  0.264500  0.485800  1
  C  C1258  1  0.775800  0.235500  0.985800  1
  C  C1259  1  0.775800  0.735500  0.514200  1
  C  C1260  1  0.224200  0.764500  0.014200  1
  C  C1261  1  0.296100  0.274200  0.477900  1
  C  C1262  1  0.703900  0.225800  0.977900  1
  C  C1263  1  0.703900  0.725800  0.522100  1
  C  C1264  1  0.296100  0.774200  0.022100  1
  C  C1265  1  0.346300  0.247800  0.477300  1
  C  C1266  1  0.653700  0.252200  0.977300  1
  C  C1267  1  0.653700  0.752200  0.522700  1
  C  C1268  1  0.346300  0.747800  0.022700  1
  C  C1269  1  0.170200  0.291200  0.488000  1
  C  C1270  1  0.829800  0.208800  0.988000  1
  C  C1271  1  0.829800  0.708800  0.512000  1
  C  C1272  1  0.170200  0.791200  0.012000  1
  C  C1273  1  0.161700  0.317200  0.470500  1
  C  C1274  1  0.838300  0.182800  0.970500  1
  C  C1275  1  0.838300  0.682800  0.529500  1
  C  C1276  1  0.161700  0.817200  0.029500  1
  C  C1277  1  0.112500  0.343700  0.473700  1
  C  C1278  1  0.887500  0.156300  0.973700  1
  C  C1279  1  0.887500  0.656300  0.526300  1
  C  C1280  1  0.112500  0.843700  0.026300  1
  C  C1281  1  0.071900  0.344300  0.494400  1
  C  C1282  1  0.928100  0.155700  0.994400  1
  C  C1283  1  0.928100  0.655700  0.505600  1
  C  C1284  1  0.071900  0.844300  0.005600  1
  C  C1285  1  0.080400  0.318300  0.511900  1
  C  C1286  1  0.919600  0.181700  0.011900  1
  C  C1287  1  0.919600  0.681700  0.488100  1
  C  C1288  1  0.080400  0.818300  0.988100  1
  C  C1289  1  0.129500  0.291800  0.508700  1
  C  C1290  1  0.870500  0.208200  0.008700  1
  C  C1291  1  0.870500  0.708200  0.491300  1
  C  C1292  1  0.129500  0.791800  0.991300  1
  C  C1293  1  0.038000  0.401700  0.506000  1
  C  C1294  1  0.962000  0.098300  0.006000  1
  C  C1295  1  0.962000  0.598300  0.494000  1
  C  C1296  1  0.038000  0.901700  0.994000  1
  C  C1297  1  0.988400  0.426700  0.508000  1
  C  C1298  1  0.011600  0.073300  0.008000  1
  C  C1299  1  0.011600  0.573300  0.492000  1
  C  C1300  1  0.988400  0.926700  0.992000  1
  C  C1301  1  0.862900  0.438800  0.500100  1
  C  C1302  1  0.137100  0.061200  0.000100  1
  C  C1303  1  0.137100  0.561200  0.499900  1
  C  C1304  1  0.862900  0.938800  0.999900  1
  C  C1305  1  0.875300  0.472400  0.512000  1
  C  C1306  1  0.124700  0.027600  0.012000  1
  C  C1307  1  0.124700  0.527600  0.488000  1
  C  C1308  1  0.875300  0.972400  0.988000  1
  C  C1309  1  0.944300  0.483100  0.521900  1
  C  C1310  1  0.055700  0.016900  0.021900  1
  C  C1311  1  0.055700  0.516900  0.478100  1
  C  C1312  1  0.944300  0.983100  0.978100  1
  C  C1313  1  0.000800  0.460200  0.519900  1
  C  C1314  1  0.999200  0.039800  0.019900  1
  C  C1315  1  0.999200  0.539800  0.480100  1
  C  C1316  1  0.000800  0.960200  0.980100  1
  C  C1317  1  0.529100  0.155400  0.546100  1
  C  C1318  1  0.470900  0.344600  0.046100  1
  C  C1319  1  0.470900  0.844600  0.453900  1
  C  C1320  1  0.529100  0.655400  0.953900  1
  C  C1321  1  0.612100  0.199200  0.531000  1
  C  C1322  1  0.387900  0.300800  0.031000  1
  C  C1323  1  0.387900  0.800800  0.469000  1
  C  C1324  1  0.612100  0.699200  0.969000  1
  C  C1325  1  0.663800  0.194400  0.547200  1
  C  C1326  1  0.336200  0.305600  0.047200  1
  C  C1327  1  0.336200  0.805600  0.452800  1
  C  C1328  1  0.663800  0.694400  0.952800  1
  C  C1329  1  0.649600  0.168400  0.563700  1
  C  C1330  1  0.350400  0.331600  0.063700  1
  C  C1331  1  0.350400  0.831600  0.436300  1
  C  C1332  1  0.649600  0.668400  0.936300  1
  C  C1333  1  0.582500  0.148200  0.564000  1
  C  C1334  1  0.417500  0.351800  0.064000  1
  C  C1335  1  0.417500  0.851800  0.436000  1
  C  C1336  1  0.582500  0.648200  0.936000  1
  C  C1337  1  0.455200  0.138600  0.547200  1
  C  C1338  1  0.544800  0.361400  0.047200  1
  C  C1339  1  0.544800  0.861400  0.452800  1
  C  C1340  1  0.455200  0.638600  0.952800  1
  C  C1341  1  0.335100  0.134300  0.531000  1
  C  C1342  1  0.664900  0.365700  0.031000  1
  C  C1343  1  0.664900  0.865700  0.469000  1
  C  C1344  1  0.335100  0.634300  0.969000  1
  C  C1345  1  0.279000  0.154500  0.538900  1
  C  C1346  1  0.721000  0.345500  0.038900  1
  C  C1347  1  0.721000  0.845500  0.461100  1
  C  C1348  1  0.279000  0.654500  0.961100  1
  C  C1349  1  0.205800  0.138900  0.538400  1
  C  C1350  1  0.794200  0.361100  0.038400  1
  C  C1351  1  0.794200  0.861100  0.461600  1
  C  C1352  1  0.205800  0.638900  0.961600  1
  C  C1353  1  0.188700  0.103000  0.530000  1
  C  C1354  1  0.811300  0.397000  0.030000  1
  C  C1355  1  0.811300  0.897000  0.470000  1
  C  C1356  1  0.188700  0.603000  0.970000  1
  C  C1357  1  0.244800  0.082800  0.522100  1
  C  C1358  1  0.755200  0.417200  0.022100  1
  C  C1359  1  0.755200  0.917200  0.477900  1
  C  C1360  1  0.244800  0.582800  0.977900  1
  C  C1361  1  0.318000  0.098400  0.522600  1
  C  C1362  1  0.682000  0.401600  0.022600  1
  C  C1363  1  0.682000  0.901600  0.477400  1
  C  C1364  1  0.318000  0.598400  0.977400  1
  C  C1365  1  0.107400  0.087600  0.526400  1
  C  C1366  1  0.892600  0.412400  0.026400  1
  C  C1367  1  0.892600  0.912400  0.473600  1
  C  C1368  1  0.107400  0.587600  0.973600  1
  C  C1369  1  0.053500  0.111600  0.523000  1
  C  C1370  1  0.946500  0.388400  0.023000  1
  C  C1371  1  0.946500  0.888400  0.477000  1
  C  C1372  1  0.053500  0.611600  0.977000  1
  C  C1373  1  0.979700  0.097600  0.520500  1
  C  C1374  1  0.020300  0.402400  0.020500  1
  C  C1375  1  0.020300  0.902400  0.479500  1
  C  C1376  1  0.979700  0.597600  0.979500  1
  C  C1377  1  0.959800  0.059500  0.521400  1
  C  C1378  1  0.040200  0.440500  0.021400  1
  C  C1379  1  0.040200  0.940500  0.478600  1
  C  C1380  1  0.959800  0.559500  0.978600  1
  C  C1381  1  0.013800  0.035500  0.524800  1
  C  C1382  1  0.986200  0.464500  0.024800  1
  C  C1383  1  0.986200  0.964500  0.475200  1
  C  C1384  1  0.013800  0.535500  0.975200  1
  C  C1385  1  0.087600  0.049600  0.527300  1
  C  C1386  1  0.912400  0.450400  0.027300  1
  C  C1387  1  0.912400  0.950400  0.472700  1
  C  C1388  1  0.087600  0.549600  0.972700  1
  C  C1389  1  0.852500  0.045700  0.499000  1
  C  C1390  1  0.147500  0.454300  0.999000  1
  C  C1391  1  0.147500  0.954300  0.501000  1
  C  C1392  1  0.852500  0.545700  0.001000  1
  C  C1393  1  0.778000  0.027600  0.498700  1
  C  C1394  1  0.222000  0.472400  0.998700  1
  C  C1395  1  0.222000  0.972400  0.501300  1
  C  C1396  1  0.778000  0.527600  0.001300  1
  C  C1397  1  0.679300  0.993900  0.520600  1
  C  C1398  1  0.320700  0.506100  0.020600  1
  C  C1399  1  0.320700  0.006100  0.479400  1
  C  C1400  1  0.679300  0.493900  0.979400  1
  C  C1401  1  0.635300  0.991400  0.500500  1
  C  C1402  1  0.364700  0.508600  0.000500  1
  C  C1403  1  0.364700  0.008600  0.499500  1
  C  C1404  1  0.635300  0.491400  0.999500  1
  C  C1405  1  0.662600  0.007100  0.479500  1
  C  C1406  1  0.337400  0.492900  0.979500  1
  C  C1407  1  0.337400  0.992900  0.520500  1
  C  C1408  1  0.662600  0.507100  0.020500  1
  C  C1409  1  0.733900  0.025200  0.478600  1
  C  C1410  1  0.266100  0.474800  0.978600  1
  C  C1411  1  0.266100  0.974800  0.521400  1
  C  C1412  1  0.733900  0.525200  0.021400  1
  C  C1413  1  0.207900  0.277300  0.724400  1
  C  C1414  1  0.792100  0.222700  0.224400  1
  C  C1415  1  0.792100  0.722700  0.275600  1
  C  C1416  1  0.207900  0.777300  0.775600  1
  C  C1417  1  0.232400  0.319900  0.692300  1
  C  C1418  1  0.767600  0.180100  0.192300  1
  C  C1419  1  0.767600  0.680100  0.307700  1
  C  C1420  1  0.232400  0.819900  0.807700  1
  C  C1421  1  0.294200  0.336700  0.704000  1
  C  C1422  1  0.705800  0.163300  0.204000  1
  C  C1423  1  0.705800  0.663300  0.296000  1
  C  C1424  1  0.294200  0.836700  0.796000  1
  C  C1425  1  0.312800  0.323700  0.726000  1
  C  C1426  1  0.687200  0.176300  0.226000  1
  C  C1427  1  0.687200  0.676300  0.274000  1
  C  C1428  1  0.312800  0.823700  0.774000  1
  C  C1429  1  0.269700  0.294000  0.736200  1
  C  C1430  1  0.730300  0.206000  0.236200  1
  C  C1431  1  0.730300  0.706000  0.263800  1
  C  C1432  1  0.269700  0.794000  0.763800  1
  C  C1433  1  0.207600  0.329700  0.670800  1
  C  C1434  1  0.792400  0.170300  0.170800  1
  C  C1435  1  0.792400  0.670300  0.329200  1
  C  C1436  1  0.207600  0.829700  0.829200  1
  C  C1437  1  0.118500  0.322000  0.640000  1
  C  C1438  1  0.881500  0.178000  0.140000  1
  C  C1439  1  0.881500  0.678000  0.360000  1
  C  C1440  1  0.118500  0.822000  0.860000  1
  C  C1441  1  0.128600  0.301900  0.619700  1
  C  C1442  1  0.871400  0.198100  0.119700  1
  C  C1443  1  0.871400  0.698100  0.380300  1
  C  C1444  1  0.128600  0.801900  0.880300  1
  C  C1445  1  0.088200  0.308200  0.599500  1
  C  C1446  1  0.911800  0.191800  0.099500  1
  C  C1447  1  0.911800  0.691800  0.400500  1
  C  C1448  1  0.088200  0.808200  0.900500  1
  C  C1449  1  0.037900  0.334600  0.599800  1
  C  C1450  1  0.962100  0.165400  0.099800  1
  C  C1451  1  0.962100  0.665400  0.400200  1
  C  C1452  1  0.037900  0.834600  0.900200  1
  C  C1453  1  0.027800  0.354600  0.620200  1
  C  C1454  1  0.972200  0.145400  0.120200  1
  C  C1455  1  0.972200  0.645400  0.379800  1
  C  C1456  1  0.027800  0.854600  0.879800  1
  C  C1457  1  0.068100  0.348300  0.640300  1
  C  C1458  1  0.931900  0.151700  0.140300  1
  C  C1459  1  0.931900  0.651700  0.359700  1
  C  C1460  1  0.068100  0.848300  0.859700  1
  C  C1461  1  0.988100  0.338200  0.578300  1
  C  C1462  1  0.011900  0.161800  0.078300  1
  C  C1463  1  0.011900  0.661800  0.421700  1
  C  C1464  1  0.988100  0.838200  0.921700  1
  C  C1465  1  0.960200  0.306900  0.565800  1
  C  C1466  1  0.039800  0.193100  0.065800  1
  C  C1467  1  0.039800  0.693100  0.434200  1
  C  C1468  1  0.960200  0.806900  0.934200  1
  C  C1469  1  0.917600  0.310500  0.545800  1
  C  C1470  1  0.082400  0.189500  0.045800  1
  C  C1471  1  0.082400  0.689500  0.454200  1
  C  C1472  1  0.917600  0.810500  0.954200  1
  C  C1473  1  0.903000  0.345500  0.538300  1
  C  C1474  1  0.097000  0.154500  0.038300  1
  C  C1475  1  0.097000  0.654500  0.461700  1
  C  C1476  1  0.903000  0.845500  0.961700  1
  C  C1477  1  0.931000  0.376800  0.550700  1
  C  C1478  1  0.069000  0.123200  0.050700  1
  C  C1479  1  0.069000  0.623200  0.449300  1
  C  C1480  1  0.931000  0.876800  0.949300  1
  C  C1481  1  0.973600  0.373200  0.570700  1
  C  C1482  1  0.026400  0.126800  0.070700  1
  C  C1483  1  0.026400  0.626800  0.429300  1
  C  C1484  1  0.973600  0.873200  0.929300  1
  C  C1485  1  0.797000  0.350900  0.517400  1
  C  C1486  1  0.203000  0.149100  0.017400  1
  C  C1487  1  0.203000  0.649100  0.482600  1
  C  C1488  1  0.797000  0.850900  0.982600  1
  C  C1489  1  0.760300  0.358600  0.496700  1
  C  C1490  1  0.239700  0.141400  0.996700  1
  C  C1491  1  0.239700  0.641400  0.503300  1
  C  C1492  1  0.760300  0.858600  0.003300  1
  C  C1493  1  0.784300  0.378000  0.456700  1
  C  C1494  1  0.215700  0.122000  0.956700  1
  C  C1495  1  0.215700  0.622000  0.543300  1
  C  C1496  1  0.784300  0.878000  0.043300  1
  C  C1497  1  0.709500  0.381600  0.453500  1
  C  C1498  1  0.290500  0.118400  0.953500  1
  C  C1499  1  0.290500  0.618400  0.546500  1
  C  C1500  1  0.709500  0.881600  0.046500  1
  C  C1501  1  0.660000  0.373700  0.472000  1
  C  C1502  1  0.340000  0.126300  0.972000  1
  C  C1503  1  0.340000  0.626300  0.528000  1
  C  C1504  1  0.660000  0.873700  0.028000  1
  C  C1505  1  0.685400  0.362200  0.493500  1
  C  C1506  1  0.314600  0.137800  0.993500  1
  C  C1507  1  0.314600  0.637800  0.506500  1
  C  C1508  1  0.685400  0.862200  0.006500  1
  C  C1509  1  0.979500  0.312300  0.682500  1
  C  C1510  1  0.020500  0.187700  0.182500  1
  C  C1511  1  0.020500  0.687700  0.317500  1
  C  C1512  1  0.979500  0.812300  0.817500  1
  C  C1513  1  0.937700  0.342000  0.685200  1
  C  C1514  1  0.062300  0.158000  0.185200  1
  C  C1515  1  0.062300  0.658000  0.314800  1
  C  C1516  1  0.937700  0.842000  0.814800  1
  C  C1517  1  0.960200  0.370300  0.701000  1
  C  C1518  1  0.039800  0.129700  0.201000  1
  C  C1519  1  0.039800  0.629700  0.299000  1
  C  C1520  1  0.960200  0.870300  0.799000  1
  C  C1521  1  0.024600  0.368800  0.714000  1
  C  C1522  1  0.975400  0.131200  0.214000  1
  C  C1523  1  0.975400  0.631200  0.286000  1
  C  C1524  1  0.024600  0.868800  0.786000  1
  C  C1525  1  0.066400  0.339100  0.711300  1
  C  C1526  1  0.933600  0.160900  0.211300  1
  C  C1527  1  0.933600  0.660900  0.288700  1
  C  C1528  1  0.066400  0.839100  0.788700  1
  C  C1529  1  0.962100  0.283500  0.666900  1
  C  C1530  1  0.037900  0.216500  0.166900  1
  C  C1531  1  0.037900  0.716500  0.333100  1
  C  C1532  1  0.962100  0.783500  0.833100  1
  C  C1533  1  0.988700  0.227700  0.651400  1
  C  C1534  1  0.011300  0.272300  0.151400  1
  C  C1535  1  0.011300  0.772300  0.348600  1
  C  C1536  1  0.988700  0.727700  0.848600  1
  C  C1537  1  0.962200  0.195100  0.662900  1
  C  C1538  1  0.037800  0.304900  0.162900  1
  C  C1539  1  0.037800  0.804900  0.337100  1
  C  C1540  1  0.962200  0.695100  0.837100  1
  C  C1541  1  0.944300  0.162800  0.650000  1
  C  C1542  1  0.055700  0.337200  0.150000  1
  C  C1543  1  0.055700  0.837200  0.350000  1
  C  C1544  1  0.944300  0.662800  0.850000  1
  C  C1545  1  0.953000  0.163000  0.625700  1
  C  C1546  1  0.047000  0.337000  0.125700  1
  C  C1547  1  0.047000  0.837000  0.374300  1
  C  C1548  1  0.953000  0.663000  0.874300  1
  C  C1549  1  0.979500  0.195600  0.614300  1
  C  C1550  1  0.020500  0.304400  0.114300  1
  C  C1551  1  0.020500  0.804400  0.385700  1
  C  C1552  1  0.979500  0.695600  0.885700  1
  C  C1553  1  0.997300  0.228000  0.627100  1
  C  C1554  1  0.002700  0.272000  0.127100  1
  C  C1555  1  0.002700  0.772000  0.372900  1
  C  C1556  1  0.997300  0.728000  0.872900  1
  C  C1557  1  0.937900  0.128200  0.611500  1
  C  C1558  1  0.062100  0.371800  0.111500  1
  C  C1559  1  0.062100  0.871800  0.388500  1
  C  C1560  1  0.937900  0.628200  0.888500  1
  C  C1561  1  0.874300  0.104000  0.615000  1
  C  C1562  1  0.125700  0.396000  0.115000  1
  C  C1563  1  0.125700  0.896000  0.385000  1
  C  C1564  1  0.874300  0.604000  0.885000  1
  C  C1565  1  0.862400  0.071700  0.601700  1
  C  C1566  1  0.137600  0.428300  0.101700  1
  C  C1567  1  0.137600  0.928300  0.398300  1
  C  C1568  1  0.862400  0.571700  0.898300  1
  C  C1569  1  0.914000  0.063700  0.585000  1
  C  C1570  1  0.086000  0.436300  0.085000  1
  C  C1571  1  0.086000  0.936300  0.415000  1
  C  C1572  1  0.914000  0.563700  0.915000  1
  C  C1573  1  0.977600  0.087900  0.581500  1
  C  C1574  1  0.022400  0.412100  0.081500  1
  C  C1575  1  0.022400  0.912100  0.418500  1
  C  C1576  1  0.977600  0.587900  0.918500  1
  C  C1577  1  0.989500  0.120200  0.594700  1
  C  C1578  1  0.010500  0.379800  0.094700  1
  C  C1579  1  0.010500  0.879800  0.405300  1
  C  C1580  1  0.989500  0.620200  0.905300  1
  C  C1581  1  0.940300  0.006500  0.571500  1
  C  C1582  1  0.059700  0.493500  0.071500  1
  C  C1583  1  0.059700  0.993500  0.428500  1
  C  C1584  1  0.940300  0.506500  0.928500  1
  C  C1585  1  0.925500  0.974200  0.557600  1
  C  C1586  1  0.074500  0.525800  0.057600  1
  C  C1587  1  0.074500  0.025800  0.442400  1
  C  C1588  1  0.925500  0.474200  0.942400  1
  C  C1589  1  0.835000  0.945300  0.530600  1
  C  C1590  1  0.165000  0.554700  0.030600  1
  C  C1591  1  0.165000  0.054700  0.469400  1
  C  C1592  1  0.835000  0.445300  0.969400  1
  C  C1593  1  0.871900  0.913600  0.530400  1
  C  C1594  1  0.128100  0.586400  0.030400  1
  C  C1595  1  0.128100  0.086400  0.469600  1
  C  C1596  1  0.871900  0.413600  0.969600  1
  C  C1597  1  0.935600  0.912200  0.543800  1
  C  C1598  1  0.064400  0.587800  0.043800  1
  C  C1599  1  0.064400  0.087800  0.456200  1
  C  C1600  1  0.935600  0.412200  0.956200  1
  C  C1601  1  0.962400  0.942500  0.557400  1
  C  C1602  1  0.037600  0.557500  0.057400  1
  C  C1603  1  0.037600  0.057500  0.442600  1
  C  C1604  1  0.962400  0.442500  0.942600  1
  C  C1605  1  0.962700  0.344800  0.441900  1
  C  C1606  1  0.037300  0.155200  0.941900  1
  C  C1607  1  0.037300  0.655200  0.558100  1
  C  C1608  1  0.962700  0.844800  0.058100  1
  C  C1609  1  0.968000  0.411200  0.445400  1
  C  C1610  1  0.032000  0.088800  0.945400  1
  C  C1611  1  0.032000  0.588800  0.554600  1
  C  C1612  1  0.968000  0.911200  0.054600  1
  C  C1613  1  0.001100  0.415200  0.423400  1
  C  C1614  1  0.998900  0.084800  0.923400  1
  C  C1615  1  0.998900  0.584800  0.576600  1
  C  C1616  1  0.001100  0.915200  0.076600  1
  C  C1617  1  0.015000  0.384000  0.410700  1
  C  C1618  1  0.985000  0.116000  0.910700  1
  C  C1619  1  0.985000  0.616000  0.589300  1
  C  C1620  1  0.015000  0.884000  0.089300  1
  C  C1621  1  0.995800  0.348800  0.419900  1
  C  C1622  1  0.004200  0.151200  0.919900  1
  C  C1623  1  0.004200  0.651200  0.580100  1
  C  C1624  1  0.995800  0.848800  0.080100  1
  C  C1625  1  0.938900  0.312300  0.453900  1
  C  C1626  1  0.061100  0.187700  0.953900  1
  C  C1627  1  0.061100  0.687700  0.546100  1
  C  C1628  1  0.938900  0.812300  0.046100  1
  C  C1629  1  0.888500  0.278100  0.484900  1
  C  C1630  1  0.111500  0.221900  0.984900  1
  C  C1631  1  0.111500  0.721900  0.515100  1
  C  C1632  1  0.888500  0.778100  0.015100  1
  C  C1633  1  0.813500  0.267100  0.488000  1
  C  C1634  1  0.186500  0.232900  0.988000  1
  C  C1635  1  0.186500  0.732900  0.512000  1
  C  C1636  1  0.813500  0.767100  0.012000  1
  C  C1637  1  0.790800  0.233200  0.498500  1
  C  C1638  1  0.209200  0.266800  0.998500  1
  C  C1639  1  0.209200  0.766800  0.501500  1
  C  C1640  1  0.790800  0.733200  0.001500  1
  C  C1641  1  0.843200  0.210300  0.506000  1
  C  C1642  1  0.156800  0.289700  0.006000  1
  C  C1643  1  0.156800  0.789700  0.494000  1
  C  C1644  1  0.843200  0.710300  0.994000  1
  C  C1645  1  0.918200  0.221400  0.502800  1
  C  C1646  1  0.081800  0.278600  0.002800  1
  C  C1647  1  0.081800  0.778600  0.497200  1
  C  C1648  1  0.918200  0.721400  0.997200  1
  C  C1649  1  0.940900  0.255200  0.492300  1
  C  C1650  1  0.059100  0.244800  0.992300  1
  C  C1651  1  0.059100  0.744800  0.507700  1
  C  C1652  1  0.940900  0.755200  0.007700  1
  C  C1653  1  0.823200  0.173200  0.519400  1
  C  C1654  1  0.176800  0.326800  0.019400  1
  C  C1655  1  0.176800  0.826800  0.480600  1
  C  C1656  1  0.823200  0.673200  0.980600  1
  C  C1657  1  0.770700  0.147200  0.509400  1
  C  C1658  1  0.229300  0.352800  0.009400  1
  C  C1659  1  0.229300  0.852800  0.490600  1
  C  C1660  1  0.770700  0.647200  0.990600  1
  C  C1661  1  0.753100  0.113100  0.520200  1
  C  C1662  1  0.246900  0.386900  0.020200  1
  C  C1663  1  0.246900  0.886900  0.479800  1
  C  C1664  1  0.753100  0.613100  0.979800  1
  C  C1665  1  0.787900  0.104900  0.541100  1
  C  C1666  1  0.212100  0.395100  0.041100  1
  C  C1667  1  0.212100  0.895100  0.458900  1
  C  C1668  1  0.787900  0.604900  0.958900  1
  C  C1669  1  0.840400  0.130900  0.551000  1
  C  C1670  1  0.159600  0.369100  0.051000  1
  C  C1671  1  0.159600  0.869100  0.449000  1
  C  C1672  1  0.840400  0.630900  0.949000  1
  C  C1673  1  0.858100  0.165100  0.540200  1
  C  C1674  1  0.141900  0.334900  0.040200  1
  C  C1675  1  0.141900  0.834900  0.459800  1
  C  C1676  1  0.858100  0.665100  0.959800  1
  C  C1677  1  0.714600  0.066500  0.565600  1
  C  C1678  1  0.285400  0.433500  0.065600  1
  C  C1679  1  0.285400  0.933500  0.434400  1
  C  C1680  1  0.714600  0.566500  0.934400  1
  C  C1681  1  0.696600  0.029600  0.574200  1
  C  C1682  1  0.303400  0.470400  0.074200  1
  C  C1683  1  0.303400  0.970400  0.425800  1
  C  C1684  1  0.696600  0.529600  0.925800  1
  C  C1685  1  0.739300  0.969500  0.579400  1
  C  C1686  1  0.260700  0.530500  0.079400  1
  C  C1687  1  0.260700  0.030500  0.420600  1
  C  C1688  1  0.739300  0.469500  0.920600  1
  C  C1689  1  0.681000  0.959700  0.594700  1
  C  C1690  1  0.319000  0.540300  0.094700  1
  C  C1691  1  0.319000  0.040300  0.405300  1
  C  C1692  1  0.681000  0.459700  0.905300  1
  C  C1693  1  0.630400  0.984800  0.599800  1
  C  C1694  1  0.369600  0.515200  0.099800  1
  C  C1695  1  0.369600  0.015200  0.400200  1
  C  C1696  1  0.630400  0.484800  0.900200  1
  C  C1697  1  0.638200  0.019800  0.589500  1
  C  C1698  1  0.361800  0.480200  0.089500  1
  C  C1699  1  0.361800  0.980200  0.410500  1
  C  C1700  1  0.638200  0.519800  0.910500  1
  C  C1701  1  0.982400  0.859900  0.622800  1
  C  C1702  1  0.017600  0.640100  0.122800  1
  C  C1703  1  0.017600  0.140100  0.377200  1
  C  C1704  1  0.982400  0.359900  0.877200  1
  C  C1705  1  0.010900  0.879400  0.603200  1
  C  C1706  1  0.989100  0.620600  0.103200  1
  C  C1707  1  0.989100  0.120600  0.396800  1
  C  C1708  1  0.010900  0.379400  0.896800  1
  C  C1709  1  0.078600  0.901100  0.604700  1
  C  C1710  1  0.921400  0.598900  0.104700  1
  C  C1711  1  0.921400  0.098900  0.395300  1
  C  C1712  1  0.078600  0.401100  0.895300  1
  C  C1713  1  0.117800  0.903200  0.625700  1
  C  C1714  1  0.882200  0.596800  0.125700  1
  C  C1715  1  0.882200  0.096800  0.374300  1
  C  C1716  1  0.117800  0.403200  0.874300  1
  C  C1717  1  0.089300  0.883700  0.645300  1
  C  C1718  1  0.910700  0.616300  0.145300  1
  C  C1719  1  0.910700  0.116300  0.354700  1
  C  C1720  1  0.089300  0.383700  0.854700  1
  C  C1721  1  0.914300  0.832400  0.624700  1
  C  C1722  1  0.085700  0.667600  0.124700  1
  C  C1723  1  0.085700  0.167600  0.375300  1
  C  C1724  1  0.914300  0.332400  0.875300  1
  C  C1725  1  0.837100  0.792400  0.645200  1
  C  C1726  1  0.162900  0.707600  0.145200  1
  C  C1727  1  0.162900  0.207600  0.354800  1
  C  C1728  1  0.837100  0.292400  0.854800  1
  C  C1729  1  0.771100  0.803000  0.654000  1
  C  C1730  1  0.228900  0.697000  0.154000  1
  C  C1731  1  0.228900  0.197000  0.346000  1
  C  C1732  1  0.771100  0.303000  0.846000  1
  C  C1733  1  0.710100  0.776800  0.656700  1
  C  C1734  1  0.289900  0.723200  0.156700  1
  C  C1735  1  0.289900  0.223200  0.343300  1
  C  C1736  1  0.710100  0.276800  0.843300  1
  C  C1737  1  0.715100  0.740000  0.650600  1
  C  C1738  1  0.284900  0.760000  0.150600  1
  C  C1739  1  0.284900  0.260000  0.349400  1
  C  C1740  1  0.715100  0.240000  0.849400  1
  C  C1741  1  0.781200  0.729400  0.641800  1
  C  C1742  1  0.218800  0.770600  0.141800  1
  C  C1743  1  0.218800  0.270600  0.358200  1
  C  C1744  1  0.781200  0.229400  0.858200  1
  C  C1745  1  0.842200  0.755600  0.639100  1
  C  C1746  1  0.157800  0.744400  0.139100  1
  C  C1747  1  0.157800  0.244400  0.360900  1
  C  C1748  1  0.842200  0.255600  0.860900  1
  C  C1749  1  0.648500  0.711100  0.654800  1
  C  C1750  1  0.351500  0.788900  0.154800  1
  C  C1751  1  0.351500  0.288900  0.345200  1
  C  C1752  1  0.648500  0.211100  0.845200  1
  C  C1753  1  0.609500  0.712900  0.675700  1
  C  C1754  1  0.390500  0.787100  0.175700  1
  C  C1755  1  0.390500  0.287100  0.324300  1
  C  C1756  1  0.609500  0.212900  0.824300  1
  C  C1757  1  0.549600  0.686800  0.680400  1
  C  C1758  1  0.450400  0.813200  0.180400  1
  C  C1759  1  0.450400  0.313200  0.319600  1
  C  C1760  1  0.549600  0.186800  0.819600  1
  C  C1761  1  0.528900  0.658900  0.664200  1
  C  C1762  1  0.471100  0.841100  0.164200  1
  C  C1763  1  0.471100  0.341100  0.335800  1
  C  C1764  1  0.528900  0.158900  0.835800  1
  C  C1765  1  0.568000  0.657200  0.643300  1
  C  C1766  1  0.432000  0.842800  0.143300  1
  C  C1767  1  0.432000  0.342800  0.356700  1
  C  C1768  1  0.568000  0.157200  0.856700  1
  C  C1769  1  0.627800  0.683300  0.638600  1
  C  C1770  1  0.372200  0.816700  0.138600  1
  C  C1771  1  0.372200  0.316700  0.361400  1
  C  C1772  1  0.627800  0.183300  0.861400  1
  C  C1773  1  0.473000  0.601700  0.674600  1
  C  C1774  1  0.527000  0.898300  0.174600  1
  C  C1775  1  0.527000  0.398300  0.325400  1
  C  C1776  1  0.473000  0.101700  0.825400  1
  C  C1777  1  0.415000  0.574300  0.677600  1
  C  C1778  1  0.585000  0.925700  0.177600  1
  C  C1779  1  0.585000  0.425700  0.322400  1
  C  C1780  1  0.415000  0.074300  0.822400  1
  C  C1781  1  0.282100  0.565300  0.674400  1
  C  C1782  1  0.717900  0.934700  0.174400  1
  C  C1783  1  0.717900  0.434700  0.325600  1
  C  C1784  1  0.282100  0.065300  0.825600  1
  C  C1785  1  0.281800  0.530500  0.684700  1
  C  C1786  1  0.718200  0.969500  0.184700  1
  C  C1787  1  0.718200  0.469500  0.315300  1
  C  C1788  1  0.281800  0.030500  0.815300  1
  C  C1789  1  0.348100  0.517700  0.691600  1
  C  C1790  1  0.651900  0.982300  0.191600  1
  C  C1791  1  0.651900  0.482300  0.308400  1
  C  C1792  1  0.348100  0.017700  0.808400  1
  C  C1793  1  0.414700  0.539600  0.688000  1
  C  C1794  1  0.585300  0.960400  0.188000  1
  C  C1795  1  0.585300  0.460400  0.312000  1
  C  C1796  1  0.414700  0.039600  0.812000  1
  C  C1797  1  0.047500  0.865300  0.706200  1
  C  C1798  1  0.952500  0.634700  0.206200  1
  C  C1799  1  0.952500  0.134700  0.293800  1
  C  C1800  1  0.047500  0.365300  0.793800  1
  C  C1801  1  0.122900  0.817700  0.694400  1
  C  C1802  1  0.877100  0.682300  0.194400  1
  C  C1803  1  0.877100  0.182300  0.305600  1
  C  C1804  1  0.122900  0.317700  0.805600  1
  C  C1805  1  0.170900  0.827100  0.713000  1
  C  C1806  1  0.829100  0.672900  0.213000  1
  C  C1807  1  0.829100  0.172900  0.287000  1
  C  C1808  1  0.170900  0.327100  0.787000  1
  C  C1809  1  0.157200  0.855700  0.728200  1
  C  C1810  1  0.842800  0.644300  0.228200  1
  C  C1811  1  0.842800  0.144300  0.271800  1
  C  C1812  1  0.157200  0.355700  0.771800  1
  C  C1813  1  0.095500  0.874800  0.724800  1
  C  C1814  1  0.904500  0.625200  0.224800  1
  C  C1815  1  0.904500  0.125200  0.275200  1
  C  C1816  1  0.095500  0.374800  0.775200  1
  C  C1817  1  0.978200  0.877600  0.702800  1
  C  C1818  1  0.021800  0.622400  0.202800  1
  C  C1819  1  0.021800  0.122400  0.297200  1
  C  C1820  1  0.978200  0.377600  0.797200  1
  C  C1821  1  0.868000  0.878500  0.682300  1
  C  C1822  1  0.132000  0.621500  0.182300  1
  C  C1823  1  0.132000  0.121500  0.317700  1
  C  C1824  1  0.868000  0.378500  0.817700  1
  C  C1825  1  0.813400  0.872300  0.699400  1
  C  C1826  1  0.186600  0.627700  0.199400  1
  C  C1827  1  0.186600  0.127700  0.300600  1
  C  C1828  1  0.813400  0.372300  0.800600  1
  C  C1829  1  0.744600  0.885000  0.695900  1
  C  C1830  1  0.255400  0.615000  0.195900  1
  C  C1831  1  0.255400  0.115000  0.304100  1
  C  C1832  1  0.744600  0.385000  0.804100  1
  C  C1833  1  0.730400  0.903900  0.675500  1
  C  C1834  1  0.269600  0.596100  0.175500  1
  C  C1835  1  0.269600  0.096100  0.324500  1
  C  C1836  1  0.730400  0.403900  0.824500  1
  C  C1837  1  0.785100  0.910100  0.658400  1
  C  C1838  1  0.214900  0.589900  0.158400  1
  C  C1839  1  0.214900  0.089900  0.341600  1
  C  C1840  1  0.785100  0.410100  0.841600  1
  C  C1841  1  0.853900  0.897400  0.661800  1
  C  C1842  1  0.146100  0.602600  0.161800  1
  C  C1843  1  0.146100  0.102600  0.338200  1
  C  C1844  1  0.853900  0.397400  0.838200  1
  C  C1845  1  0.654800  0.917100  0.672600  1
  C  C1846  1  0.345200  0.582900  0.172600  1
  C  C1847  1  0.345200  0.082900  0.327400  1
  C  C1848  1  0.654800  0.417100  0.827400  1
  C  C1849  1  0.591200  0.894500  0.678700  1
  C  C1850  1  0.408800  0.605500  0.178700  1
  C  C1851  1  0.408800  0.105500  0.321300  1
  C  C1852  1  0.591200  0.394500  0.821300  1
  C  C1853  1  0.522500  0.908200  0.677700  1
  C  C1854  1  0.477500  0.591800  0.177700  1
  C  C1855  1  0.477500  0.091800  0.322300  1
  C  C1856  1  0.522500  0.408200  0.822300  1
  C  C1857  1  0.517500  0.944500  0.670600  1
  C  C1858  1  0.482500  0.555500  0.170600  1
  C  C1859  1  0.482500  0.055500  0.329400  1
  C  C1860  1  0.517500  0.444500  0.829400  1
  C  C1861  1  0.581100  0.967100  0.664500  1
  C  C1862  1  0.418900  0.532900  0.164500  1
  C  C1863  1  0.418900  0.032900  0.335500  1
  C  C1864  1  0.581100  0.467100  0.835500  1
  C  C1865  1  0.649800  0.953500  0.665500  1
  C  C1866  1  0.350200  0.546500  0.165500  1
  C  C1867  1  0.350200  0.046500  0.334500  1
  C  C1868  1  0.649800  0.453500  0.834500  1
  C  C1869  1  0.409500  0.955900  0.650200  1
  C  C1870  1  0.590500  0.544100  0.150200  1
  C  C1871  1  0.590500  0.044100  0.349800  1
  C  C1872  1  0.409500  0.455900  0.849800  1
  C  C1873  1  0.343700  0.972900  0.651200  1
  C  C1874  1  0.656300  0.527100  0.151200  1
  C  C1875  1  0.656300  0.027100  0.348800  1
  C  C1876  1  0.343700  0.472900  0.848800  1
  C  C1877  1  0.267600  0.010000  0.674000  1
  C  C1878  1  0.732400  0.490000  0.174000  1
  C  C1879  1  0.732400  0.990000  0.326000  1
  C  C1880  1  0.267600  0.510000  0.826000  1
  C  C1881  1  0.221000  0.012400  0.654800  1
  C  C1882  1  0.779000  0.487600  0.154800  1
  C  C1883  1  0.779000  0.987600  0.345200  1
  C  C1884  1  0.221000  0.512400  0.845200  1
  C  C1885  1  0.235700  0.995000  0.633800  1
  C  C1886  1  0.764300  0.505000  0.133800  1
  C  C1887  1  0.764300  0.005000  0.366200  1
  C  C1888  1  0.235700  0.495000  0.866200  1
  C  C1889  1  0.297100  0.975200  0.632000  1
  C  C1890  1  0.702900  0.524800  0.132000  1
  C  C1891  1  0.702900  0.024800  0.368000  1
  C  C1892  1  0.297100  0.475200  0.868000  1
  C  C1893  1  0.005200  0.749600  0.662900  1
  C  C1894  1  0.994800  0.750400  0.162900  1
  C  C1895  1  0.994800  0.250400  0.337100  1
  C  C1896  1  0.005200  0.249600  0.837100  1
  C  C1897  1  0.077500  0.786300  0.634200  1
  C  C1898  1  0.922500  0.713700  0.134200  1
  C  C1899  1  0.922500  0.213700  0.365800  1
  C  C1900  1  0.077500  0.286300  0.865800  1
  C  C1901  1  0.101500  0.754200  0.624800  1
  C  C1902  1  0.898500  0.745800  0.124800  1
  C  C1903  1  0.898500  0.245800  0.375200  1
  C  C1904  1  0.101500  0.254200  0.875200  1
  C  C1905  1  0.077300  0.719800  0.634400  1
  C  C1906  1  0.922700  0.780200  0.134400  1
  C  C1907  1  0.922700  0.280200  0.365600  1
  C  C1908  1  0.077300  0.219800  0.865600  1
  C  C1909  1  0.029100  0.717500  0.653500  1
  C  C1910  1  0.970900  0.782500  0.153500  1
  C  C1911  1  0.970900  0.282500  0.346500  1
  C  C1912  1  0.029100  0.217500  0.846500  1
  C  C1913  1  0.961300  0.752900  0.683500  1
  C  C1914  1  0.038700  0.747100  0.183500  1
  C  C1915  1  0.038700  0.247100  0.316500  1
  C  C1916  1  0.961300  0.252900  0.816500  1
  C  C1917  1  0.902100  0.786600  0.710000  1
  C  C1918  1  0.097900  0.713400  0.210000  1
  C  C1919  1  0.097900  0.213400  0.290000  1
  C  C1920  1  0.902100  0.286600  0.790000  1
  C  C1921  1  0.940900  0.794700  0.730700  1
  C  C1922  1  0.059100  0.705300  0.230700  1
  C  C1923  1  0.059100  0.205300  0.269300  1
  C  C1924  1  0.940900  0.294700  0.769300  1
  C  C1925  1  0.902800  0.798900  0.751600  1
  C  C1926  1  0.097200  0.701100  0.251600  1
  C  C1927  1  0.097200  0.201100  0.248400  1
  C  C1928  1  0.902800  0.298900  0.748400  1
  C  C1929  1  0.825800  0.795000  0.751700  1
  C  C1930  1  0.174200  0.705000  0.251700  1
  C  C1931  1  0.174200  0.205000  0.248300  1
  C  C1932  1  0.825800  0.295000  0.748300  1
  C  C1933  1  0.787000  0.786800  0.730900  1
  C  C1934  1  0.213000  0.713200  0.230900  1
  C  C1935  1  0.213000  0.213200  0.269100  1
  C  C1936  1  0.787000  0.286800  0.769100  1
  C  C1937  1  0.825200  0.782700  0.710100  1
  C  C1938  1  0.174800  0.717300  0.210100  1
  C  C1939  1  0.174800  0.217300  0.289900  1
  C  C1940  1  0.825200  0.282700  0.789900  1
  C  C1941  1  0.784500  0.797400  0.775300  1
  C  C1942  1  0.215500  0.702600  0.275300  1
  C  C1943  1  0.215500  0.202600  0.224700  1
  C  C1944  1  0.784500  0.297400  0.724700  1
  C  C1945  1  0.802600  0.777500  0.795000  1
  C  C1946  1  0.197400  0.722500  0.295000  1
  C  C1947  1  0.197400  0.222500  0.205000  1
  C  C1948  1  0.802600  0.277500  0.705000  1
  C  C1949  1  0.764100  0.780700  0.815900  1
  C  C1950  1  0.235900  0.719300  0.315900  1
  C  C1951  1  0.235900  0.219300  0.184100  1
  C  C1952  1  0.764100  0.280700  0.684100  1
  C  C1953  1  0.707700  0.803700  0.817100  1
  C  C1954  1  0.292300  0.696300  0.317100  1
  C  C1955  1  0.292300  0.196300  0.182900  1
  C  C1956  1  0.707700  0.303700  0.682900  1
  C  C1957  1  0.689600  0.823600  0.797400  1
  C  C1958  1  0.310400  0.676400  0.297400  1
  C  C1959  1  0.310400  0.176400  0.202600  1
  C  C1960  1  0.689600  0.323600  0.702600  1
  C  C1961  1  0.728100  0.820400  0.776500  1
  C  C1962  1  0.271900  0.679600  0.276500  1
  C  C1963  1  0.271900  0.179600  0.223500  1
  C  C1964  1  0.728100  0.320400  0.723500  1
  C  C1965  1  0.663800  0.832600  0.847800  1
  C  C1966  1  0.336200  0.667400  0.347800  1
  C  C1967  1  0.336200  0.167400  0.152200  1
  C  C1968  1  0.663800  0.332600  0.652200  1
  C  C1969  1  0.616100  0.833900  0.868700  1
  C  C1970  1  0.383900  0.666100  0.368700  1
  C  C1971  1  0.383900  0.166100  0.131300  1
  C  C1972  1  0.616100  0.333900  0.631300  1
  C  C1973  1  0.527400  0.795900  0.892000  1
  C  C1974  1  0.472600  0.704100  0.392000  1
  C  C1975  1  0.472600  0.204100  0.108000  1
  C  C1976  1  0.527400  0.295900  0.608000  1
  C  C1977  1  0.518200  0.826100  0.906300  1
  C  C1978  1  0.481800  0.673900  0.406300  1
  C  C1979  1  0.481800  0.173900  0.093700  1
  C  C1980  1  0.518200  0.326100  0.593700  1
  C  C1981  1  0.558000  0.860200  0.901800  1
  C  C1982  1  0.442000  0.639800  0.401800  1
  C  C1983  1  0.442000  0.139800  0.098200  1
  C  C1984  1  0.558000  0.360200  0.598200  1
  C  C1985  1  0.607000  0.864100  0.883000  1
  C  C1986  1  0.393000  0.635900  0.383000  1
  C  C1987  1  0.393000  0.135900  0.117000  1
  C  C1988  1  0.607000  0.364100  0.617000  1
  C  C1989  1  0.414400  0.653400  0.613400  1
  C  C1990  1  0.585600  0.846600  0.113400  1
  C  C1991  1  0.585600  0.346600  0.386600  1
  C  C1992  1  0.414400  0.153400  0.886600  1
  C  C1993  1  0.391700  0.587500  0.619400  1
  C  C1994  1  0.608300  0.912500  0.119400  1
  C  C1995  1  0.608300  0.412500  0.380600  1
  C  C1996  1  0.391700  0.087500  0.880600  1
  C  C1997  1  0.422500  0.581400  0.597600  1
  C  C1998  1  0.577500  0.918600  0.097600  1
  C  C1999  1  0.577500  0.418600  0.402400  1
  C  C2000  1  0.422500  0.081400  0.902400  1
  C  C2001  1  0.449300  0.611400  0.583600  1
  C  C2002  1  0.550700  0.888600  0.083600  1
  C  C2003  1  0.550700  0.388600  0.416400  1
  C  C2004  1  0.449300  0.111400  0.916400  1
  C  C2005  1  0.445200  0.647400  0.591600  1
  C  C2006  1  0.554800  0.852600  0.091600  1
  C  C2007  1  0.554800  0.352600  0.408400  1
  C  C2008  1  0.445200  0.147400  0.908400  1
  C  C2009  1  0.406600  0.688700  0.623000  1
  C  C2010  1  0.593400  0.811300  0.123000  1
  C  C2011  1  0.593400  0.311300  0.377000  1
  C  C2012  1  0.406600  0.188700  0.877000  1
  C  C2013  1  0.371500  0.724000  0.654000  1
  C  C2014  1  0.628500  0.776000  0.154000  1
  C  C2015  1  0.628500  0.276000  0.346000  1
  C  C2016  1  0.371500  0.224000  0.846000  1
  C  C2017  1  0.300700  0.734500  0.657200  1
  C  C2018  1  0.699300  0.765500  0.157200  1
  C  C2019  1  0.699300  0.265500  0.342800  1
  C  C2020  1  0.300700  0.234500  0.842800  1
  C  C2021  1  0.291300  0.768900  0.666800  1
  C  C2022  1  0.708700  0.731100  0.166800  1
  C  C2023  1  0.708700  0.231100  0.333200  1
  C  C2024  1  0.291300  0.268900  0.833200  1
  C  C2025  1  0.352800  0.793000  0.673200  1
  C  C2026  1  0.647200  0.707000  0.173200  1
  C  C2027  1  0.647200  0.207000  0.326800  1
  C  C2028  1  0.352800  0.293000  0.826800  1
  C  C2029  1  0.423600  0.782500  0.670000  1
  C  C2030  1  0.576400  0.717500  0.170000  1
  C  C2031  1  0.576400  0.217500  0.330000  1
  C  C2032  1  0.423600  0.282500  0.830000  1
  C  C2033  1  0.433000  0.748100  0.660400  1
  C  C2034  1  0.567000  0.751900  0.160400  1
  C  C2035  1  0.567000  0.251900  0.339600  1
  C  C2036  1  0.433000  0.248100  0.839600  1
  C  C2037  1  0.339900  0.830800  0.684600  1
  C  C2038  1  0.660100  0.669200  0.184600  1
  C  C2039  1  0.660100  0.169200  0.315400  1
  C  C2040  1  0.339900  0.330800  0.815400  1
  C  C2041  1  0.374800  0.842300  0.705500  1
  C  C2042  1  0.625200  0.657700  0.205500  1
  C  C2043  1  0.625200  0.157700  0.294500  1
  C  C2044  1  0.374800  0.342300  0.794500  1
  C  C2045  1  0.372400  0.878400  0.713400  1
  C  C2046  1  0.627600  0.621600  0.213400  1
  C  C2047  1  0.627600  0.121600  0.286600  1
  C  C2048  1  0.372400  0.378400  0.786600  1
  C  C2049  1  0.335200  0.903100  0.700400  1
  C  C2050  1  0.664800  0.596900  0.200400  1
  C  C2051  1  0.664800  0.096900  0.299600  1
  C  C2052  1  0.335200  0.403100  0.799600  1
  C  C2053  1  0.300300  0.891600  0.679500  1
  C  C2054  1  0.699700  0.608400  0.179500  1
  C  C2055  1  0.699700  0.108400  0.320500  1
  C  C2056  1  0.300300  0.391600  0.820500  1
  C  C2057  1  0.302600  0.855500  0.671600  1
  C  C2058  1  0.697400  0.644500  0.171600  1
  C  C2059  1  0.697400  0.144500  0.328400  1
  C  C2060  1  0.302600  0.355500  0.828400  1
  C  C2061  1  0.287700  0.948100  0.723500  1
  C  C2062  1  0.712300  0.551900  0.223500  1
  C  C2063  1  0.712300  0.051900  0.276500  1
  C  C2064  1  0.287700  0.448100  0.776500  1
  C  C2065  1  0.290700  0.984700  0.731500  1
  C  C2066  1  0.709300  0.515300  0.231500  1
  C  C2067  1  0.709300  0.015300  0.268500  1
  C  C2068  1  0.290700  0.484700  0.768500  1
  C  C2069  1  0.353100  0.045900  0.725500  1
  C  C2070  1  0.646900  0.454100  0.225500  1
  C  C2071  1  0.646900  0.954100  0.274500  1
  C  C2072  1  0.353100  0.545900  0.774500  1
  C  C2073  1  0.307400  0.059900  0.742100  1
  C  C2074  1  0.692600  0.440100  0.242100  1
  C  C2075  1  0.692600  0.940100  0.257900  1
  C  C2076  1  0.307400  0.559900  0.757900  1
  C  C2077  1  0.253400  0.036400  0.753500  1
  C  C2078  1  0.746600  0.463600  0.253500  1
  C  C2079  1  0.746600  0.963600  0.246500  1
  C  C2080  1  0.253400  0.536400  0.746500  1
  C  C2081  1  0.245100  0.998700  0.748100  1
  C  C2082  1  0.754900  0.501300  0.248100  1
  C  C2083  1  0.754900  0.001300  0.251900  1
  C  C2084  1  0.245100  0.498700  0.751900  1
  C  C2085  1  0.214600  0.648900  0.671200  1
  C  C2086  1  0.785400  0.851100  0.171200  1
  C  C2087  1  0.785400  0.351100  0.328800  1
  C  C2088  1  0.214600  0.148900  0.828800  1
  C  C2089  1  0.220600  0.625400  0.631700  1
  C  C2090  1  0.779400  0.874600  0.131700  1
  C  C2091  1  0.779400  0.374600  0.368300  1
  C  C2092  1  0.220600  0.125400  0.868300  1
  C  C2093  1  0.143800  0.622900  0.630200  1
  C  C2094  1  0.856200  0.877100  0.130200  1
  C  C2095  1  0.856200  0.377100  0.369800  1
  C  C2096  1  0.143800  0.122900  0.869800  1
  C  C2097  1  0.102500  0.633400  0.649100  1
  C  C2098  1  0.897500  0.866600  0.149100  1
  C  C2099  1  0.897500  0.366600  0.350900  1
  C  C2100  1  0.102500  0.133400  0.850900  1
  C  C2101  1  0.137900  0.646400  0.669600  1
  C  C2102  1  0.862100  0.853600  0.169600  1
  C  C2103  1  0.862100  0.353600  0.330400  1
  C  C2104  1  0.137900  0.146400  0.830400  1
  C  C2105  1  0.257000  0.658900  0.690700  1
  C  C2106  1  0.743000  0.841100  0.190700  1
  C  C2107  1  0.743000  0.341100  0.309300  1
  C  C2108  1  0.257000  0.158900  0.809300  1
  C  C2109  1  0.372200  0.664800  0.710000  1
  C  C2110  1  0.627800  0.835200  0.210000  1
  C  C2111  1  0.627800  0.335200  0.290000  1
  C  C2112  1  0.372200  0.164800  0.790000  1
  C  C2113  1  0.391200  0.701300  0.717000  1
  C  C2114  1  0.608800  0.798700  0.217000  1
  C  C2115  1  0.608800  0.298700  0.283000  1
  C  C2116  1  0.391200  0.201300  0.783000  1
  C  C2117  1  0.437700  0.708900  0.736200  1
  C  C2118  1  0.562300  0.791100  0.236200  1
  C  C2119  1  0.562300  0.291100  0.263800  1
  C  C2120  1  0.437700  0.208900  0.763800  1
  C  C2121  1  0.465300  0.680100  0.748400  1
  C  C2122  1  0.534700  0.819900  0.248400  1
  C  C2123  1  0.534700  0.319900  0.251600  1
  C  C2124  1  0.465300  0.180100  0.751600  1
  C  C2125  1  0.446300  0.643600  0.741400  1
  C  C2126  1  0.553700  0.856400  0.241400  1
  C  C2127  1  0.553700  0.356400  0.258600  1
  C  C2128  1  0.446300  0.143600  0.758600  1
  C  C2129  1  0.399700  0.635900  0.722200  1
  C  C2130  1  0.600300  0.864100  0.222200  1
  C  C2131  1  0.600300  0.364100  0.277800  1
  C  C2132  1  0.399700  0.135900  0.777800  1
  C  C2133  1  0.514600  0.688000  0.768600  1
  C  C2134  1  0.485400  0.812000  0.268600  1
  C  C2135  1  0.485400  0.312000  0.231400  1
  C  C2136  1  0.514600  0.188000  0.731400  1
  C  C2137  1  0.569500  0.717700  0.767600  1
  C  C2138  1  0.430500  0.782300  0.267600  1
  C  C2139  1  0.430500  0.282300  0.232400  1
  C  C2140  1  0.569500  0.217700  0.732400  1
  C  C2141  1  0.611300  0.727900  0.787500  1
  C  C2142  1  0.388700  0.772100  0.287500  1
  C  C2143  1  0.388700  0.272100  0.212500  1
  C  C2144  1  0.611300  0.227900  0.712500  1
  C  C2145  1  0.598100  0.708400  0.808400  1
  C  C2146  1  0.401900  0.791600  0.308400  1
  C  C2147  1  0.401900  0.291600  0.191600  1
  C  C2148  1  0.598100  0.208400  0.691600  1
  C  C2149  1  0.543200  0.678700  0.809400  1
  C  C2150  1  0.456800  0.821300  0.309400  1
  C  C2151  1  0.456800  0.321300  0.190600  1
  C  C2152  1  0.543200  0.178700  0.690600  1
  C  C2153  1  0.501400  0.668500  0.789500  1
  C  C2154  1  0.498600  0.831500  0.289500  1
  C  C2155  1  0.498600  0.331500  0.210500  1
  C  C2156  1  0.501400  0.168500  0.710500  1
  C  C2157  1  0.684600  0.705100  0.837800  1
  C  C2158  1  0.315400  0.794900  0.337800  1
  C  C2159  1  0.315400  0.294900  0.162200  1
  C  C2160  1  0.684600  0.205100  0.662200  1
  C  C2161  1  0.715000  0.716900  0.860200  1
  C  C2162  1  0.285000  0.783100  0.360200  1
  C  C2163  1  0.285000  0.283100  0.139800  1
  C  C2164  1  0.715000  0.216900  0.639800  1
  C  C2165  1  0.701200  0.759500  0.891900  1
  C  C2166  1  0.298800  0.740500  0.391900  1
  C  C2167  1  0.298800  0.240500  0.108100  1
  C  C2168  1  0.701200  0.259500  0.608100  1
  C  C2169  1  0.759400  0.745700  0.903800  1
  C  C2170  1  0.240600  0.754300  0.403800  1
  C  C2171  1  0.240600  0.254300  0.096200  1
  C  C2172  1  0.759400  0.245700  0.596200  1
  C  C2173  1  0.795400  0.717500  0.893800  1
  C  C2174  1  0.204600  0.782500  0.393800  1
  C  C2175  1  0.204600  0.282500  0.106200  1
  C  C2176  1  0.795400  0.217500  0.606200  1
  C  C2177  1  0.773200  0.703100  0.872000  1
  C  C2178  1  0.226800  0.796900  0.372000  1
  C  C2179  1  0.226800  0.296900  0.128000  1
  C  C2180  1  0.773200  0.203100  0.628000  1
  C  C2181  1  0.534100  0.031800  0.700500  1
  C  C2182  1  0.465900  0.468200  0.200500  1
  C  C2183  1  0.465900  0.968200  0.299500  1
  C  C2184  1  0.534100  0.531800  0.799500  1
  C  C2185  1  0.457400  0.054200  0.670300  1
  C  C2186  1  0.542600  0.445800  0.170300  1
  C  C2187  1  0.542600  0.945800  0.329700  1
  C  C2188  1  0.457400  0.554200  0.829700  1
  C  C2189  1  0.511900  0.083100  0.665600  1
  C  C2190  1  0.488100  0.416900  0.165600  1
  C  C2191  1  0.488100  0.916900  0.334400  1
  C  C2192  1  0.511900  0.583100  0.834400  1
  C  C2193  1  0.577600  0.086300  0.678400  1
  C  C2194  1  0.422400  0.413700  0.178400  1
  C  C2195  1  0.422400  0.913700  0.321600  1
  C  C2196  1  0.577600  0.586300  0.821600  1
  C  C2197  1  0.588700  0.060600  0.695800  1
  C  C2198  1  0.411300  0.439400  0.195800  1
  C  C2199  1  0.411300  0.939400  0.304200  1
  C  C2200  1  0.588700  0.560600  0.804200  1
  C  C2201  1  0.538000  0.005800  0.718100  1
  C  C2202  1  0.462000  0.494200  0.218100  1
  C  C2203  1  0.462000  0.994200  0.281900  1
  C  C2204  1  0.538000  0.505800  0.781900  1
  C  C2205  1  0.488800  0.952100  0.737300  1
  C  C2206  1  0.511200  0.547900  0.237300  1
  C  C2207  1  0.511200  0.047900  0.262700  1
  C  C2208  1  0.488800  0.452100  0.762700  1
  C  C2209  1  0.440000  0.948500  0.756200  1
  C  C2210  1  0.560000  0.551500  0.256200  1
  C  C2211  1  0.560000  0.051500  0.243800  1
  C  C2212  1  0.440000  0.448500  0.743800  1
  C  C2213  1  0.444300  0.920100  0.772400  1
  C  C2214  1  0.555700  0.579900  0.272400  1
  C  C2215  1  0.555700  0.079900  0.227600  1
  C  C2216  1  0.444300  0.420100  0.727600  1
  C  C2217  1  0.497400  0.895500  0.769800  1
  C  C2218  1  0.502600  0.604500  0.269800  1
  C  C2219  1  0.502600  0.104500  0.230200  1
  C  C2220  1  0.497400  0.395500  0.730200  1
  C  C2221  1  0.546200  0.899100  0.750900  1
  C  C2222  1  0.453800  0.600900  0.250900  1
  C  C2223  1  0.453800  0.100900  0.249100  1
  C  C2224  1  0.546200  0.399100  0.749100  1
  C  C2225  1  0.541900  0.927500  0.734700  1
  C  C2226  1  0.458100  0.572500  0.234700  1
  C  C2227  1  0.458100  0.072500  0.265300  1
  C  C2228  1  0.541900  0.427500  0.765300  1
  C  C2229  1  0.495200  0.861100  0.786000  1
  C  C2230  1  0.504800  0.638900  0.286000  1
  C  C2231  1  0.504800  0.138900  0.214000  1
  C  C2232  1  0.495200  0.361100  0.714000  1
  C  C2233  1  0.493400  0.866200  0.810200  1
  C  C2234  1  0.506600  0.633800  0.310200  1
  C  C2235  1  0.506600  0.133800  0.189800  1
  C  C2236  1  0.493400  0.366200  0.689800  1
  C  C2237  1  0.498500  0.836200  0.825200  1
  C  C2238  1  0.501500  0.663800  0.325200  1
  C  C2239  1  0.501500  0.163800  0.174800  1
  C  C2240  1  0.498500  0.336200  0.674800  1
  C  C2241  1  0.505400  0.801300  0.815900  1
  C  C2242  1  0.494600  0.698700  0.315900  1
  C  C2243  1  0.494600  0.198700  0.184100  1
  C  C2244  1  0.505400  0.301300  0.684100  1
  C  C2245  1  0.507200  0.796200  0.791700  1
  C  C2246  1  0.492800  0.703800  0.291700  1
  C  C2247  1  0.492800  0.203800  0.208300  1
  C  C2248  1  0.507200  0.296200  0.708300  1
  C  C2249  1  0.502100  0.826100  0.776800  1
  C  C2250  1  0.497900  0.673900  0.276800  1
  C  C2251  1  0.497900  0.173900  0.223200  1
  C  C2252  1  0.502100  0.326100  0.723200  1
  C  C2253  1  0.457700  0.748000  0.833000  1
  C  C2254  1  0.542300  0.752000  0.333000  1
  C  C2255  1  0.542300  0.252000  0.167000  1
  C  C2256  1  0.457700  0.248000  0.667000  1
  C  C2257  1  0.462500  0.718000  0.848400  1
  C  C2258  1  0.537500  0.782000  0.348400  1
  C  C2259  1  0.537500  0.282000  0.151600  1
  C  C2260  1  0.462500  0.218000  0.651600  1
  C  C2261  1  0.537200  0.692200  0.877900  1
  C  C2262  1  0.462800  0.807800  0.377900  1
  C  C2263  1  0.462800  0.307800  0.122100  1
  C  C2264  1  0.537200  0.192200  0.622100  1
  C  C2265  1  0.484400  0.661800  0.880000  1
  C  C2266  1  0.515600  0.838200  0.380000  1
  C  C2267  1  0.515600  0.338200  0.120000  1
  C  C2268  1  0.484400  0.161800  0.620000  1
  C  C2269  1  0.420700  0.659400  0.866300  1
  C  C2270  1  0.579300  0.840600  0.366300  1
  C  C2271  1  0.579300  0.340600  0.133700  1
  C  C2272  1  0.420700  0.159400  0.633700  1
  C  C2273  1  0.409800  0.687500  0.850500  1
  C  C2274  1  0.590200  0.812500  0.350500  1
  C  C2275  1  0.590200  0.312500  0.149500  1
  C  C2276  1  0.409800  0.187500  0.649500  1
  C  C2277  1  0.094000  0.242000  0.424400  1
  C  C2278  1  0.906000  0.258000  0.924400  1
  C  C2279  1  0.906000  0.758000  0.575600  1
  C  C2280  1  0.094000  0.742000  0.075600  1
  C  C2281  1  0.167000  0.240800  0.425500  1
  C  C2282  1  0.833000  0.259200  0.925500  1
  C  C2283  1  0.833000  0.759200  0.574500  1
  C  C2284  1  0.167000  0.740800  0.074500  1
  C  C2285  1  0.882000  0.152900  0.451800  1
  C  C2286  1  0.118000  0.347100  0.951800  1
  C  C2287  1  0.118000  0.847100  0.548200  1
  C  C2288  1  0.882000  0.652900  0.048200  1
  C  C2289  1  0.860000  0.188300  0.442500  1
  C  C2290  1  0.140000  0.311700  0.942500  1
  C  C2291  1  0.140000  0.811700  0.557500  1
  C  C2292  1  0.860000  0.688300  0.057500  1
  C  C2293  1  0.272000  0.109600  0.594500  1
  C  C2294  1  0.728000  0.390400  0.094500  1
  C  C2295  1  0.728000  0.890400  0.405500  1
  C  C2296  1  0.272000  0.609600  0.905500  1
  C  C2297  1  0.326000  0.116100  0.589000  1
  C  C2298  1  0.674000  0.383900  0.089000  1
  C  C2299  1  0.674000  0.883900  0.411000  1
  C  C2300  1  0.326000  0.616100  0.911000  1
  C  C2301  1  0.803000  0.362500  0.602000  1
  C  C2302  1  0.197000  0.137500  0.102000  1
  C  C2303  1  0.197000  0.637500  0.398000  1
  C  C2304  1  0.803000  0.862500  0.898000  1
  C  C2305  1  0.827000  0.332800  0.620100  1
  C  C2306  1  0.173000  0.167200  0.120100  1
  C  C2307  1  0.173000  0.667200  0.379900  1
  C  C2308  1  0.827000  0.832800  0.879900  1
  C  C2309  1  0.433000  0.007900  0.593100  1
  C  C2310  1  0.567000  0.492100  0.093100  1
  C  C2311  1  0.567000  0.992100  0.406900  1
  C  C2312  1  0.433000  0.507900  0.906900  1
  C  C2313  1  0.388000  0.042400  0.590900  1
  C  C2314  1  0.612000  0.457600  0.090900  1
  C  C2315  1  0.612000  0.957600  0.409100  1
  C  C2316  1  0.388000  0.542400  0.909100  1
  C  C2317  1  0.297000  0.197600  0.715300  1
  C  C2318  1  0.703000  0.302400  0.215300  1
  C  C2319  1  0.703000  0.802400  0.284700  1
  C  C2320  1  0.297000  0.697600  0.784700  1
  C  C2321  1  0.268000  0.169700  0.729500  1
  C  C2322  1  0.732000  0.330300  0.229500  1
  C  C2323  1  0.732000  0.830300  0.270500  1
  C  C2324  1  0.268000  0.669700  0.770500  1
  C  C2325  1  0.280000  0.319800  0.888000  1
  C  C2326  1  0.720000  0.180200  0.388000  1
  C  C2327  1  0.720000  0.680200  0.112000  1
  C  C2328  1  0.280000  0.819800  0.612000  1
  C  C2329  1  0.230000  0.330600  0.886000  1
  C  C2330  1  0.770000  0.169400  0.386000  1
  C  C2331  1  0.770000  0.669400  0.114000  1
  C  C2332  1  0.230000  0.830600  0.614000  1
  C  C2333  1  0.564000  0.253300  0.911000  1
  C  C2334  1  0.436000  0.246700  0.411000  1
  C  C2335  1  0.436000  0.746700  0.089000  1
  C  C2336  1  0.564000  0.753300  0.589000  1
  C  C2337  1  0.506000  0.257100  0.906300  1
  C  C2338  1  0.494000  0.242900  0.406300  1
  C  C2339  1  0.494000  0.742900  0.093700  1
  C  C2340  1  0.506000  0.757100  0.593700  1
  C  C2341  1  0.782000  0.982300  0.714100  1
  C  C2342  1  0.218000  0.517700  0.214100  1
  C  C2343  1  0.218000  0.017700  0.285900  1
  C  C2344  1  0.782000  0.482300  0.785900  1
  C  C2345  1  0.850000  0.976500  0.709400  1
  C  C2346  1  0.150000  0.523500  0.209400  1
  C  C2347  1  0.150000  0.023500  0.290600  1
  C  C2348  1  0.850000  0.476500  0.790600  1
  C  C2349  1  0.004000  0.011800  0.641100  1
  C  C2350  1  0.996000  0.488200  0.141100  1
  C  C2351  1  0.996000  0.988200  0.358900  1
  C  C2352  1  0.004000  0.511800  0.858900  1
  C  C2353  1  0.005000  0.980000  0.642100  1
  C  C2354  1  0.995000  0.520000  0.142100  1
  C  C2355  1  0.995000  0.020000  0.357900  1
  C  C2356  1  0.005000  0.480000  0.857900  1
  C  C2357  1  0.042000  0.071200  0.648600  1
  C  C2358  1  0.958000  0.428800  0.148600  1
  C  C2359  1  0.958000  0.928800  0.351400  1
  C  C2360  1  0.042000  0.571200  0.851400  1
  C  C2361  1  0.073000  0.098100  0.659600  1
  C  C2362  1  0.927000  0.401900  0.159600  1
  C  C2363  1  0.927000  0.901900  0.340400  1
  C  C2364  1  0.073000  0.598100  0.840400  1
  C  C2365  1  0.674000  0.125100  0.438000  1
  C  C2366  1  0.326000  0.374900  0.938000  1
  C  C2367  1  0.326000  0.874900  0.562000  1
  C  C2368  1  0.674000  0.625100  0.062000  1
  C  C2369  1  0.675000  0.096700  0.423100  1
  C  C2370  1  0.325000  0.403300  0.923100  1
  C  C2371  1  0.325000  0.903300  0.576900  1
  C  C2372  1  0.675000  0.596700  0.076900  1
  C  C2373  1  0.315000  0.344000  0.595100  1
  C  C2374  1  0.685000  0.156000  0.095100  1
  C  C2375  1  0.685000  0.656000  0.404900  1
  C  C2376  1  0.315000  0.844000  0.904900  1
  C  C2377  1  0.342000  0.352000  0.620600  1
  C  C2378  1  0.658000  0.148000  0.120600  1
  C  C2379  1  0.658000  0.648000  0.379400  1
  C  C2380  1  0.342000  0.852000  0.879400  1
  C  C2381  1  0.118000  0.101000  0.777300  1
  C  C2382  1  0.882000  0.399000  0.277300  1
  C  C2383  1  0.882000  0.899000  0.222700  1
  C  C2384  1  0.118000  0.601000  0.722700  1
  C  C2385  1  0.044000  0.098000  0.783600  1
  C  C2386  1  0.956000  0.402000  0.283600  1
  C  C2387  1  0.956000  0.902000  0.216400  1
  C  C2388  1  0.044000  0.598000  0.716400  1
  N  N2389  1  0.525200  0.221100  0.488300  1
  N  N2390  1  0.474800  0.278900  0.988300  1
  N  N2391  1  0.474800  0.778900  0.511700  1
  N  N2392  1  0.525200  0.721100  0.011700  1
  N  N2393  1  0.067800  0.232900  0.705800  1
  N  N2394  1  0.932200  0.267100  0.205800  1
  N  N2395  1  0.932200  0.767100  0.294200  1
  N  N2396  1  0.067800  0.732900  0.794200  1
  N  N2397  1  0.480200  0.140900  0.489300  1
  N  N2398  1  0.519800  0.359100  0.989300  1
  N  N2399  1  0.519800  0.859100  0.510700  1
  N  N2400  1  0.480200  0.640900  0.010700  1
  N  N2401  1  0.919400  0.416000  0.498100  1
  N  N2402  1  0.080600  0.084000  0.998100  1
  N  N2403  1  0.080600  0.584000  0.501900  1
  N  N2404  1  0.919400  0.916000  0.001900  1
  N  N2405  1  0.750700  0.011900  0.519600  1
  N  N2406  1  0.249300  0.488100  0.019600  1
  N  N2407  1  0.249300  0.988100  0.480400  1
  N  N2408  1  0.750700  0.511900  0.980400  1
  N  N2409  1  0.189200  0.290300  0.702500  1
  N  N2410  1  0.810800  0.209700  0.202500  1
  N  N2411  1  0.810800  0.709700  0.297500  1
  N  N2412  1  0.189200  0.790300  0.797500  1
  N  N2413  1  0.809700  0.366600  0.478300  1
  N  N2414  1  0.190300  0.133400  0.978300  1
  N  N2415  1  0.190300  0.633400  0.521700  1
  N  N2416  1  0.809700  0.866600  0.021700  1
  N  N2417  1  0.043900  0.310900  0.695500  1
  N  N2418  1  0.956100  0.189100  0.195500  1
  N  N2419  1  0.956100  0.689100  0.304500  1
  N  N2420  1  0.043900  0.810900  0.804500  1
  N  N2421  1  0.861800  0.975600  0.544200  1
  N  N2422  1  0.138200  0.524400  0.044200  1
  N  N2423  1  0.138200  0.024400  0.455800  1
  N  N2424  1  0.861800  0.475600  0.955800  1
  N  N2425  1  0.948800  0.376100  0.454700  1
  N  N2426  1  0.051200  0.123900  0.954700  1
  N  N2427  1  0.051200  0.623900  0.545300  1
  N  N2428  1  0.948800  0.876100  0.045300  1
  N  N2429  1  0.747100  0.004500  0.569100  1
  N  N2430  1  0.252900  0.495500  0.069100  1
  N  N2431  1  0.252900  0.995500  0.430900  1
  N  N2432  1  0.747100  0.504500  0.930900  1
  N  N2433  1  0.444800  0.232000  0.524300  1
  N  N2434  1  0.555200  0.268000  0.024300  1
  N  N2435  1  0.555200  0.768000  0.475700  1
  N  N2436  1  0.444800  0.732000  0.975700  1
  N  N2437  1  0.153600  0.231500  0.670900  1
  N  N2438  1  0.846400  0.268500  0.170900  1
  N  N2439  1  0.846400  0.768500  0.329100  1
  N  N2440  1  0.153600  0.731500  0.829100  1
  N  N2441  1  0.379900  0.186800  0.486800  1
  N  N2442  1  0.620100  0.313200  0.986800  1
  N  N2443  1  0.620100  0.813200  0.513200  1
  N  N2444  1  0.379900  0.686800  0.013200  1
  N  N2445  1  0.015100  0.369300  0.496800  1
  N  N2446  1  0.984900  0.130700  0.996800  1
  N  N2447  1  0.984900  0.630700  0.503200  1
  N  N2448  1  0.015100  0.869300  0.003200  1
  N  N2449  1  0.545900  0.180700  0.529300  1
  N  N2450  1  0.454100  0.319300  0.029300  1
  N  N2451  1  0.454100  0.819300  0.470700  1
  N  N2452  1  0.545900  0.680700  0.970700  1
  N  N2453  1  0.411300  0.150100  0.531400  1
  N  N2454  1  0.588700  0.349900  0.031400  1
  N  N2455  1  0.588700  0.849900  0.468600  1
  N  N2456  1  0.411300  0.650100  0.968600  1
  N  N2457  1  0.883800  0.044000  0.520200  1
  N  N2458  1  0.116200  0.456000  0.020200  1
  N  N2459  1  0.116200  0.956000  0.479800  1
  N  N2460  1  0.883800  0.544000  0.979800  1
  N  N2461  1  0.147300  0.308400  0.661400  1
  N  N2462  1  0.852700  0.191600  0.161400  1
  N  N2463  1  0.852700  0.691600  0.338600  1
  N  N2464  1  0.147300  0.808400  0.838600  1
  N  N2465  1  0.865800  0.349600  0.516800  1
  N  N2466  1  0.134200  0.150400  0.016800  1
  N  N2467  1  0.134200  0.650400  0.483200  1
  N  N2468  1  0.865800  0.849600  0.983200  1
  N  N2469  1  0.010600  0.260200  0.665700  1
  N  N2470  1  0.989400  0.239800  0.165700  1
  N  N2471  1  0.989400  0.739800  0.334300  1
  N  N2472  1  0.010600  0.760200  0.834300  1
  N  N2473  1  0.899900  0.032700  0.570000  1
  N  N2474  1  0.100100  0.467300  0.070000  1
  N  N2475  1  0.100100  0.967300  0.430000  1
  N  N2476  1  0.899900  0.532700  0.930000  1
  N  N2477  1  0.911400  0.313400  0.473100  1
  N  N2478  1  0.088600  0.186600  0.973100  1
  N  N2479  1  0.088600  0.686600  0.526900  1
  N  N2480  1  0.911400  0.813400  0.026900  1
  N  N2481  1  0.772800  0.069500  0.551800  1
  N  N2482  1  0.227200  0.430500  0.051800  1
  N  N2483  1  0.227200  0.930500  0.448200  1
  N  N2484  1  0.772800  0.569500  0.948200  1
  N  N2485  1  0.021600  0.862100  0.643800  1
  N  N2486  1  0.978400  0.637900  0.143800  1
  N  N2487  1  0.978400  0.137900  0.356200  1
  N  N2488  1  0.021600  0.362100  0.856200  1
  N  N2489  1  0.348700  0.587200  0.670800  1
  N  N2490  1  0.651300  0.912800  0.170800  1
  N  N2491  1  0.651300  0.412800  0.329200  1
  N  N2492  1  0.348700  0.087200  0.829200  1
  N  N2493  1  0.061300  0.836700  0.691000  1
  N  N2494  1  0.938700  0.663300  0.191000  1
  N  N2495  1  0.938700  0.163300  0.309000  1
  N  N2496  1  0.061300  0.336700  0.809000  1
  N  N2497  1  0.328900  0.990300  0.672200  1
  N  N2498  1  0.671100  0.509700  0.172200  1
  N  N2499  1  0.671100  0.009700  0.327800  1
  N  N2500  1  0.328900  0.490300  0.827800  1
  N  N2501  1  0.029400  0.784000  0.653300  1
  N  N2502  1  0.970600  0.716000  0.153300  1
  N  N2503  1  0.970600  0.216000  0.346700  1
  N  N2504  1  0.029400  0.284000  0.846700  1
  N  N2505  1  0.576300  0.799800  0.873100  1
  N  N2506  1  0.423700  0.700200  0.373100  1
  N  N2507  1  0.423700  0.200200  0.126900  1
  N  N2508  1  0.576300  0.299800  0.626900  1
  N  N2509  1  0.387600  0.623500  0.627300  1
  N  N2510  1  0.612400  0.876500  0.127300  1
  N  N2511  1  0.612400  0.376500  0.372700  1
  N  N2512  1  0.387600  0.123500  0.872700  1
  N  N2513  1  0.344700  0.008200  0.720200  1
  N  N2514  1  0.655300  0.491800  0.220200  1
  N  N2515  1  0.655300  0.991800  0.279800  1
  N  N2516  1  0.344700  0.508200  0.779800  1
  N  N2517  1  0.256000  0.638400  0.652200  1
  N  N2518  1  0.744000  0.861600  0.152200  1
  N  N2519  1  0.744000  0.361600  0.347800  1
  N  N2520  1  0.256000  0.138400  0.847800  1
  N  N2521  1  0.679000  0.745100  0.870100  1
  N  N2522  1  0.321000  0.754900  0.370100  1
  N  N2523  1  0.321000  0.254900  0.129900  1
  N  N2524  1  0.679000  0.245100  0.629900  1
  N  N2525  1  0.468400  0.028600  0.687800  1
  N  N2526  1  0.531600  0.471400  0.187800  1
  N  N2527  1  0.531600  0.971400  0.312200  1
  N  N2528  1  0.468400  0.528600  0.812200  1
  N  N2529  1  0.526200  0.720400  0.862100  1
  N  N2530  1  0.473800  0.779600  0.362100  1
  N  N2531  1  0.473800  0.279600  0.137900  1
  N  N2532  1  0.526200  0.220400  0.637900  1
  N  N2533  1  0.902000  0.817700  0.645400  1
  N  N2534  1  0.098000  0.682300  0.145400  1
  N  N2535  1  0.098000  0.182300  0.354600  1
  N  N2536  1  0.902000  0.317700  0.854600  1
  N  N2537  1  0.461700  0.633300  0.667900  1
  N  N2538  1  0.538300  0.866700  0.167900  1
  N  N2539  1  0.538300  0.366700  0.332100  1
  N  N2540  1  0.461700  0.133300  0.832100  1
  N  N2541  1  0.936300  0.864400  0.686000  1
  N  N2542  1  0.063700  0.635600  0.186000  1
  N  N2543  1  0.063700  0.135600  0.314000  1
  N  N2544  1  0.936300  0.364400  0.814000  1
  N  N2545  1  0.447200  0.956600  0.670500  1
  N  N2546  1  0.552800  0.543400  0.170500  1
  N  N2547  1  0.552800  0.043400  0.329500  1
  N  N2548  1  0.447200  0.456600  0.829500  1
  N  N2549  1  0.941400  0.784900  0.687400  1
  N  N2550  1  0.058600  0.715100  0.187400  1
  N  N2551  1  0.058600  0.215100  0.312600  1
  N  N2552  1  0.941400  0.284900  0.812600  1
  N  N2553  1  0.662600  0.802900  0.837900  1
  N  N2554  1  0.337400  0.697100  0.337900  1
  N  N2555  1  0.337400  0.197100  0.162100  1
  N  N2556  1  0.662600  0.302900  0.662100  1
  N  N2557  1  0.380500  0.687800  0.644700  1
  N  N2558  1  0.619500  0.812200  0.144700  1
  N  N2559  1  0.619500  0.312200  0.355300  1
  N  N2560  1  0.380500  0.187800  0.855300  1
  N  N2561  1  0.336100  0.941300  0.708700  1
  N  N2562  1  0.663900  0.558700  0.208700  1
  N  N2563  1  0.663900  0.058700  0.291300  1
  N  N2564  1  0.336100  0.441300  0.791300  1
  N  N2565  1  0.326200  0.654900  0.689500  1
  N  N2566  1  0.673800  0.845100  0.189500  1
  N  N2567  1  0.673800  0.345100  0.310500  1
  N  N2568  1  0.326200  0.154900  0.810500  1
  N  N2569  1  0.632600  0.723000  0.830000  1
  N  N2570  1  0.367400  0.777000  0.330000  1
  N  N2571  1  0.367400  0.277000  0.170000  1
  N  N2572  1  0.632600  0.223000  0.670000  1
  N  N2573  1  0.484700  0.978200  0.718900  1
  N  N2574  1  0.515300  0.521800  0.218900  1
  N  N2575  1  0.515300  0.021800  0.281100  1
  N  N2576  1  0.484700  0.478200  0.781100  1
  N  N2577  1  0.511600  0.772100  0.831000  1
  N  N2578  1  0.488400  0.727900  0.331000  1
  N  N2579  1  0.488400  0.227900  0.169000  1
  N  N2580  1  0.511600  0.272100  0.669000  1
  N  N2581  1  0.027000  0.235600  0.421700  1
  N  N2582  1  0.973000  0.264400  0.921700  1
  N  N2583  1  0.973000  0.764400  0.578300  1
  N  N2584  1  0.027000  0.735600  0.078300  1
  N  N2585  1  0.890000  0.122600  0.456800  1
  N  N2586  1  0.110000  0.377400  0.956800  1
  N  N2587  1  0.110000  0.877400  0.543200  1
  N  N2588  1  0.890000  0.622600  0.043200  1
  N  N2589  1  0.195000  0.101300  0.602000  1
  N  N2590  1  0.805000  0.398700  0.102000  1
  N  N2591  1  0.805000  0.898700  0.398000  1
  N  N2592  1  0.195000  0.601300  0.898000  1
  N  N2593  1  0.841000  0.313600  0.633900  1
  N  N2594  1  0.159000  0.186400  0.133900  1
  N  N2595  1  0.159000  0.686400  0.366100  1
  N  N2596  1  0.841000  0.813600  0.866100  1
  N  N2597  1  0.444000  0.978700  0.593400  1
  N  N2598  1  0.556000  0.521300  0.093400  1
  N  N2599  1  0.556000  0.021300  0.406600  1
  N  N2600  1  0.444000  0.478700  0.906600  1
  N  N2601  1  0.320000  0.220000  0.705000  1
  N  N2602  1  0.680000  0.280000  0.205000  1
  N  N2603  1  0.680000  0.780000  0.295000  1
  N  N2604  1  0.320000  0.720000  0.795000  1
  N  N2605  1  0.348000  0.296200  0.893300  1
  N  N2606  1  0.652000  0.203800  0.393300  1
  N  N2607  1  0.652000  0.703800  0.106700  1
  N  N2608  1  0.348000  0.796200  0.606700  1
  N  N2609  1  0.649000  0.248600  0.913900  1
  N  N2610  1  0.351000  0.251400  0.413900  1
  N  N2611  1  0.351000  0.751400  0.086100  1
  N  N2612  1  0.649000  0.748600  0.586100  1
  N  N2613  1  0.722000  0.985500  0.722600  1
  N  N2614  1  0.278000  0.514500  0.222600  1
  N  N2615  1  0.278000  0.014500  0.277400  1
  N  N2616  1  0.722000  0.485500  0.777400  1
  N  N2617  1  0.677000  0.150100  0.450600  1
  N  N2618  1  0.323000  0.349900  0.950600  1
  N  N2619  1  0.323000  0.849900  0.549400  1
  N  N2620  1  0.677000  0.650100  0.049400  1
  N  N2621  1  0.368000  0.352000  0.638000  1
  N  N2622  1  0.632000  0.148000  0.138000  1
  N  N2623  1  0.632000  0.648000  0.362000  1
  N  N2624  1  0.368000  0.852000  0.862000  1
  N  N2625  1  0.169000  0.107100  0.769200  1
  N  N2626  1  0.831000  0.392900  0.269200  1
  N  N2627  1  0.831000  0.892900  0.230800  1
  N  N2628  1  0.169000  0.607100  0.730800  1
  O  O2629  1  0.038000  0.033700  0.655700  1
  O  O2630  1  0.962000  0.466300  0.155700  1
  O  O2631  1  0.962000  0.966300  0.344300  1
  O  O2632  1  0.038000  0.533700  0.844300  1
  F  F2633  1  0.113200  0.246300  0.557200  1
  F  F2634  1  0.886800  0.253700  0.057200  1
  F  F2635  1  0.886800  0.753700  0.442800  1
  F  F2636  1  0.113200  0.746300  0.942800  1
  F  F2637  1  0.068400  0.203500  0.530500  1
  F  F2638  1  0.931600  0.296500  0.030500  1
  F  F2639  1  0.931600  0.796500  0.469500  1
  F  F2640  1  0.068400  0.703500  0.969500  1
  F  F2641  1  0.997500  0.220300  0.560200  1
  F  F2642  1  0.002500  0.279700  0.060200  1
  F  F2643  1  0.002500  0.779700  0.439800  1
  F  F2644  1  0.997500  0.720300  0.939800  1
  F  F2645  1  0.095000  0.187500  0.568200  1
  F  F2646  1  0.905000  0.312500  0.068200  1
  F  F2647  1  0.905000  0.812500  0.431800  1
  F  F2648  1  0.095000  0.687500  0.931800  1
  F  F2649  1  0.584800  0.805500  0.691900  1
  F  F2650  1  0.415200  0.694500  0.191900  1
  F  F2651  1  0.415200  0.194500  0.308100  1
  F  F2652  1  0.584800  0.305500  0.808100  1
  F  F2653  1  0.613800  0.767000  0.720500  1
  F  F2654  1  0.386200  0.733000  0.220500  1
  F  F2655  1  0.386200  0.233000  0.279500  1
  F  F2656  1  0.613800  0.267000  0.779500  1
  F  F2657  1  0.622400  0.827600  0.727300  1
  F  F2658  1  0.377600  0.672400  0.227300  1
  F  F2659  1  0.377600  0.172400  0.272700  1
  F  F2660  1  0.622400  0.327600  0.772700  1
  F  F2661  1  0.509700  0.796200  0.724000  1
  F  F2662  1  0.490300  0.703800  0.224000  1
  F  F2663  1  0.490300  0.203800  0.276000  1
  F  F2664  1  0.509700  0.296200  0.776000  1
  F  F2665  1  0.235900  0.587600  0.810000  1
  F  F2666  1  0.764100  0.912400  0.310000  1
  F  F2667  1  0.764100  0.412400  0.190000  1
  F  F2668  1  0.235900  0.087600  0.690000  1
  F  F2669  1  0.259800  0.641800  0.829400  1
  F  F2670  1  0.740200  0.858200  0.329400  1
  F  F2671  1  0.740200  0.358200  0.170600  1
  F  F2672  1  0.259800  0.141800  0.670600  1
  F  F2673  1  0.350100  0.616800  0.810400  1
  F  F2674  1  0.649900  0.883200  0.310400  1
  F  F2675  1  0.649900  0.383200  0.189600  1
  F  F2676  1  0.350100  0.116800  0.689600  1
  F  F2677  1  0.302800  0.590700  0.844100  1
  F  F2678  1  0.697200  0.909300  0.344100  1
  F  F2679  1  0.697200  0.409300  0.155900  1
  F  F2680  1  0.302800  0.090700  0.655900  1
  F  F2681  1  0.186600  0.911100  0.770100  1
  F  F2682  1  0.813400  0.588900  0.270100  1
  F  F2683  1  0.813400  0.088900  0.229900  1
  F  F2684  1  0.186600  0.411100  0.729900  1
  F  F2685  1  0.177300  0.955100  0.794200  1
  F  F2686  1  0.822700  0.544900  0.294200  1
  F  F2687  1  0.822700  0.044900  0.205800  1
  F  F2688  1  0.177300  0.455100  0.705800  1
  F  F2689  1  0.184700  0.900500  0.809700  1
  F  F2690  1  0.815300  0.599500  0.309700  1
  F  F2691  1  0.815300  0.099500  0.190300  1
  F  F2692  1  0.184700  0.400500  0.690300  1
  F  F2693  1  0.277900  0.931400  0.791800  1
  F  F2694  1  0.722100  0.568600  0.291800  1
  F  F2695  1  0.722100  0.068600  0.208200  1
  F  F2696  1  0.277900  0.431400  0.708200  1
  F  F2697  1  0.091900  0.250600  0.773000  1
  F  F2698  1  0.908100  0.249400  0.273000  1
  F  F2699  1  0.908100  0.749400  0.227000  1
  F  F2700  1  0.091900  0.750600  0.727000  1
  F  F2701  1  0.153600  0.232700  0.804700  1
  F  F2702  1  0.846400  0.267300  0.304700  1
  F  F2703  1  0.846400  0.767300  0.195300  1
  F  F2704  1  0.153600  0.732700  0.695300  1
  F  F2705  1  0.072600  0.191600  0.786000  1
  F  F2706  1  0.927400  0.308400  0.286000  1
  F  F2707  1  0.927400  0.808400  0.214000  1
  F  F2708  1  0.072600  0.691600  0.714000  1
  F  F2709  1  0.180700  0.212100  0.768700  1
  F  F2710  1  0.819300  0.287900  0.268700  1
  F  F2711  1  0.819300  0.787900  0.231300  1
  F  F2712  1  0.180700  0.712100  0.731300  1
  F  F2713  1  0.170800  0.183300  0.912800  1
  F  F2714  1  0.829200  0.316700  0.412800  1
  F  F2715  1  0.829200  0.816700  0.087200  1
  F  F2716  1  0.170800  0.683300  0.587200  1
  F  F2717  1  0.293000  0.188000  0.918500  1
  F  F2718  1  0.707000  0.312000  0.418500  1
  F  F2719  1  0.707000  0.812000  0.081500  1
  F  F2720  1  0.293000  0.688000  0.581500  1
  F  F2721  1  0.243000  0.212500  0.891900  1
  F  F2722  1  0.757000  0.287500  0.391900  1
  F  F2723  1  0.757000  0.787500  0.108100  1
  F  F2724  1  0.243000  0.712500  0.608100  1
  F  F2725  1  0.227800  0.228200  0.929200  1
  F  F2726  1  0.772200  0.271800  0.429200  1
  F  F2727  1  0.772200  0.771800  0.070800  1
  F  F2728  1  0.227800  0.728200  0.570800  1
  F  F2729  1  0.673400  0.283700  0.530100  1
  F  F2730  1  0.326600  0.216300  0.030100  1
  F  F2731  1  0.326600  0.716300  0.469900  1
  F  F2732  1  0.673400  0.783700  0.969900  1
  F  F2733  1  0.598300  0.324500  0.540900  1
  F  F2734  1  0.401700  0.175500  0.040900  1
  F  F2735  1  0.401700  0.675500  0.459100  1
  F  F2736  1  0.598300  0.824500  0.959100  1
  F  F2737  1  0.691500  0.314700  0.564300  1
  F  F2738  1  0.308500  0.185300  0.064300  1
  F  F2739  1  0.308500  0.685300  0.435700  1
  F  F2740  1  0.691500  0.814700  0.935700  1
  F  F2741  1  0.596000  0.272500  0.560000  1
  F  F2742  1  0.404000  0.227500  0.060000  1
  F  F2743  1  0.404000  0.727500  0.440000  1
  F  F2744  1  0.596000  0.772500  0.940000  1
  F  F2745  1  0.199000  0.111900  0.401900  1
  F  F2746  1  0.801000  0.388100  0.901900  1
  F  F2747  1  0.801000  0.888100  0.598100  1
  F  F2748  1  0.199000  0.611900  0.098100  1
  F  F2749  1  0.268000  0.161700  0.408200  1
  F  F2750  1  0.732000  0.338300  0.908200  1
  F  F2751  1  0.732000  0.838300  0.591800  1
  F  F2752  1  0.268000  0.661700  0.091800  1
  F  F2753  1  0.263700  0.117900  0.432800  1
  F  F2754  1  0.736300  0.382100  0.932800  1
  F  F2755  1  0.736300  0.882100  0.567200  1
  F  F2756  1  0.263700  0.617900  0.067200  1
  F  F2757  1  0.171800  0.148600  0.428600  1
  F  F2758  1  0.828200  0.351400  0.928600  1
  F  F2759  1  0.828200  0.851400  0.571400  1
  F  F2760  1  0.171800  0.648600  0.071400  1
  F  F2761  1  0.797500  0.977200  0.431700  1
  F  F2762  1  0.202500  0.522800  0.931700  1
  F  F2763  1  0.202500  0.022800  0.568300  1
  F  F2764  1  0.797500  0.477200  0.068300  1
  F  F2765  1  0.889600  0.003600  0.409400  1
  F  F2766  1  0.110400  0.496400  0.909400  1
  F  F2767  1  0.110400  0.996400  0.590600  1
  F  F2768  1  0.889600  0.503600  0.090600  1
  F  F2769  1  0.793000  0.034500  0.418000  1
  F  F2770  1  0.207000  0.465500  0.918000  1
  F  F2771  1  0.207000  0.965500  0.582000  1
  F  F2772  1  0.793000  0.534500  0.082000  1
  F  F2773  1  0.874600  0.023800  0.445900  1
  F  F2774  1  0.125400  0.476200  0.945900  1
  F  F2775  1  0.125400  0.976200  0.554100  1
  F  F2776  1  0.874600  0.523800  0.054100  1
  F  F2777  1  0.470100  0.061400  0.528400  1
  F  F2778  1  0.529900  0.438600  0.028400  1
  F  F2779  1  0.529900  0.938600  0.471600  1
  F  F2780  1  0.470100  0.561400  0.971600  1
  F  F2781  1  0.593700  0.063100  0.529200  1
  F  F2782  1  0.406300  0.436900  0.029200  1
  F  F2783  1  0.406300  0.936900  0.470800  1
  F  F2784  1  0.593700  0.563100  0.970800  1
  F  F2785  1  0.521300  0.010000  0.540100  1
  F  F2786  1  0.478700  0.490000  0.040100  1
  F  F2787  1  0.478700  0.990000  0.459900  1
  F  F2788  1  0.521300  0.510000  0.959900  1
  F  F2789  1  0.529900  0.062000  0.563200  1
  F  F2790  1  0.470100  0.438000  0.063200  1
  F  F2791  1  0.470100  0.938000  0.436800  1
  F  F2792  1  0.529900  0.562000  0.936800  1
  F  F2793  1  0.708000  0.123300  0.605200  1
  F  F2794  1  0.292000  0.376700  0.105200  1
  F  F2795  1  0.292000  0.876700  0.394800  1
  F  F2796  1  0.708000  0.623300  0.894800  1
  F  F2797  1  0.686100  0.077300  0.632300  1
  F  F2798  1  0.313900  0.422700  0.132300  1
  F  F2799  1  0.313900  0.922700  0.367700  1
  F  F2800  1  0.686100  0.577300  0.867700  1
  F  F2801  1  0.644000  0.133700  0.637500  1
  F  F2802  1  0.356000  0.366300  0.137500  1
  F  F2803  1  0.356000  0.866300  0.362500  1
  F  F2804  1  0.644000  0.633700  0.862500  1
  F  F2805  1  0.590300  0.098400  0.613200  1
  F  F2806  1  0.409700  0.401600  0.113200  1
  F  F2807  1  0.409700  0.901600  0.386800  1
  F  F2808  1  0.590300  0.598400  0.886800  1
  F  F2809  1  0.115000  0.968400  0.700800  1
  F  F2810  1  0.885000  0.531600  0.200800  1
  F  F2811  1  0.885000  0.031600  0.299200  1
  F  F2812  1  0.115000  0.468400  0.799200  1
  F  F2813  1  0.802000  0.028700  0.656400  1
  F  F2814  1  0.198000  0.471300  0.156400  1
  F  F2815  1  0.198000  0.971300  0.343600  1
  F  F2816  1  0.802000  0.528700  0.843600  1
  F  F2817  1  0.095000  0.534600  0.668900  1
  F  F2818  1  0.905000  0.965400  0.168900  1
  F  F2819  1  0.905000  0.465400  0.331100  1
  F  F2820  1  0.095000  0.034600  0.831100  1
  F  F2821  1  0.766000  0.633900  0.613000  1
  F  F2822  1  0.234000  0.866100  0.113000  1
  F  F2823  1  0.234000  0.366100  0.387000  1
  F  F2824  1  0.766000  0.133900  0.887000  1
  F  F2825  1  0.516000  0.559100  0.739500  1
  F  F2826  1  0.484000  0.940900  0.239500  1
  F  F2827  1  0.484000  0.440900  0.260500  1
  F  F2828  1  0.516000  0.059100  0.760500  1
  F  F2829  1  0.847000  0.559300  0.537000  1
  F  F2830  1  0.153000  0.940700  0.037000  1
  F  F2831  1  0.153000  0.440700  0.463000  1
  F  F2832  1  0.847000  0.059300  0.963000  1
  F  F2833  1  0.805000  0.680000  0.796400  1
  F  F2834  1  0.195000  0.820000  0.296400  1
  F  F2835  1  0.195000  0.320000  0.203600  1
  F  F2836  1  0.805000  0.180000  0.703600  1
  F  F2837  1  0.145000  0.944400  0.689200  1
  F  F2838  1  0.855000  0.555600  0.189200  1
  F  F2839  1  0.855000  0.055600  0.310800  1
  F  F2840  1  0.145000  0.444400  0.810800  1
  F  F2841  1  0.820000  0.003200  0.641300  1
  F  F2842  1  0.180000  0.496800  0.141300  1
  F  F2843  1  0.180000  0.996800  0.358700  1
  F  F2844  1  0.820000  0.503200  0.858700  1
  F  F2845  1  0.265000  0.323500  0.415500  1
  F  F2846  1  0.735000  0.176500  0.915500  1
  F  F2847  1  0.735000  0.676500  0.584500  1
  F  F2848  1  0.265000  0.823500  0.084500  1
  F  F2849  1  0.525000  0.872700  0.618300  1
  F  F2850  1  0.475000  0.627300  0.118300  1
  F  F2851  1  0.475000  0.127300  0.381700  1
  F  F2852  1  0.525000  0.372700  0.881700  1
