
#######################################################################
#
#                 Cambridge Crystallographic Data Centre
#                                CCDC 
#
#######################################################################
#
# If this CIF has been generated from an entry in the Cambridge 
# Structural Database, then it will include bibliographic, chemical, 
# crystal, experimental, refinement or atomic coordinate data resulting 
# from the CCDC's data processing and validation procedures.
#
#######################################################################

data_RAPXIS
_chemical_formula_moiety         
'C144 H108 Fe4 N24 8+,0.25(C4 H10 O1),5.25(C2 H3 N1),8(B1 F4 1-)'
_chemical_name_systematic        
"hexakis(\m-N,N'-bis(pyridin-2-ylmethylene)biphenyl-4,4'-diamine)-tetra-iron octakis(tetrafluoroborate) acetonitrile diethyl ether solvate"
_symmetry_cell_setting           monoclinic
_symmetry_space_group_name_H-M   'P 21/c'
_symmetry_Int_Tables_number      14
_space_group_name_Hall           '-P 2ybc'
loop_
_symmetry_equiv_pos_site_id
_symmetry_equiv_pos_as_xyz
1 x,y,z
2 -x,1/2+y,1/2-z
3 -x,-y,-z
4 x,1/2-y,1/2+z
_cell_length_a                   18.1572(15)
_cell_length_b                   56.898(6)
_cell_length_c                   36.253(4)
_cell_angle_alpha                90
_cell_angle_beta                 96.002(4)
_cell_angle_gamma                90
_cell_volume                     37248
_exptl_crystal_colour            purple
_exptl_crystal_description       lath
_cell_formula_units_Z            8
loop_
_atom_site_label
_atom_site_type_symbol
_atom_site_fract_x
_atom_site_fract_y
_atom_site_fract_z
C1 C 0.4775(9) 0.5060(3) 0.7418(6)
N1 N 0.4748(9) 0.5117(3) 0.7789(5)
C2 C 0.4296(10) 0.5299(3) 0.7886(4)
H1 H 0.4278 0.5338 0.8140
C3 C 0.3871(9) 0.5425(3) 0.7612(6)
H2 H 0.3562 0.5549 0.7678
C4 C 0.3897(10) 0.5368(3) 0.7241(5)
H3 H 0.3606 0.5453 0.7053
C5 C 0.4349(11) 0.5185(3) 0.7144(4)
H4 H 0.4367 0.5146 0.6890
C6 C 0.5215(16) 0.4853(5) 0.7369(10)
H5 H 0.5262 0.4789 0.7131
C7 C 0.5967(10) 0.4558(2) 0.7635(6)
C8 C 0.5664(8) 0.4348(3) 0.7748(5)
H6 H 0.5184 0.4348 0.7829
C9 C 0.6064(10) 0.4140(2) 0.7741(5)
H7 H 0.5857 0.3998 0.7818
C10 C 0.6767(10) 0.4142(2) 0.7622(6)
C11 C 0.7070(8) 0.4351(3) 0.7509(5)
H8 H 0.7550 0.4351 0.7427
C12 C 0.6670(10) 0.4559(2) 0.7515(5)
H9 H 0.6877 0.4702 0.7438
C13 C 0.7235(10) 0.3919(3) 0.7654(6)
C14 C 0.6965(9) 0.3728(3) 0.7444(6)
H10 H 0.6513 0.3741 0.7288
C15 C 0.7356(10) 0.3518(3) 0.7461(6)
H11 H 0.7171 0.3387 0.7317
C16 C 0.8018(10) 0.3499(3) 0.7690(6)
C17 C 0.8288(9) 0.3690(3) 0.7900(6)
H12 H 0.8741 0.3677 0.8056
C18 C 0.7897(11) 0.3900(3) 0.7883(6)
H13 H 0.8082 0.4031 0.8027
C19 C 0.8578(17) 0.3172(5) 0.8005(11)
H14 H 0.8337 0.3214 0.8216
C20 C 0.9064(10) 0.2987(3) 0.8012(6)
N2 N 0.9322(11) 0.2942(3) 0.7671(5)
C21 C 0.9834(11) 0.2763(3) 0.7639(4)
H15 H 1.0010 0.2732 0.7406
C22 C 1.0089(10) 0.2630(3) 0.7947(6)
H16 H 1.0439 0.2508 0.7925
C23 C 0.9831(11) 0.2675(3) 0.8288(5)
H17 H 1.0005 0.2584 0.8499
C24 C 0.9319(12) 0.2853(3) 0.8321(4)
H18 H 0.9143 0.2884 0.8553
C25 C 0.5727(10) 0.5281(3) 0.8670(5)
N3 N 0.5198(11) 0.5107(3) 0.8591(4)
C26 C 0.4649(10) 0.5071(3) 0.8825(5)
H19 H 0.4288 0.4952 0.8770
C27 C 0.4629(10) 0.5210(3) 0.9139(5)
H20 H 0.4254 0.5186 0.9299
C28 C 0.5158(12) 0.5385(3) 0.9219(5)
H21 H 0.5144 0.5480 0.9433
C29 C 0.5707(10) 0.5420(3) 0.8984(6)
H22 H 0.6068 0.5539 0.9039
C30 C 0.6267(19) 0.5295(6) 0.8394(10)
H23 H 0.6637 0.5414 0.8402
C31 C 0.6753(10) 0.5154(4) 0.7883(5)
C32 C 0.7471(11) 0.5076(4) 0.7980(4)
H24 H 0.7619 0.5026 0.8227
C33 C 0.7974(8) 0.5070(4) 0.7716(6)
H25 H 0.8465 0.5016 0.7783
C34 C 0.7758(10) 0.5142(4) 0.7355(5)
C35 C 0.7039(11) 0.5221(4) 0.7258(4)
H26 H 0.6892 0.5271 0.7011
C36 C 0.6537(8) 0.5227(4) 0.7522(6)
H27 H 0.6046 0.5281 0.7456
C37 C 0.8298(10) 0.5120(4) 0.7088(5)
C38 C 0.8383(11) 0.5295(3) 0.6828(6)
H28 H 0.8105 0.5436 0.6831
C39 C 0.8875(11) 0.5263(3) 0.6563(5)
H29 H 0.8933 0.5383 0.6385
C40 C 0.9281(11) 0.5056(4) 0.6557(5)
C41 C 0.9196(11) 0.4881(3) 0.6817(6)
H30 H 0.9474 0.4740 0.6813
C42 C 0.8705(11) 0.4913(3) 0.7082(5)
H31 H 0.8647 0.4794 0.7260
C43 C 0.9620(19) 0.4940(6) 0.5983(10)
H32 H 0.9124 0.4888 0.5926
C44 C 1.0116(10) 0.4920(4) 0.5733(6)
N4 N 1.0806(12) 0.5019(4) 0.5840(5)
C45 C 1.1371(9) 0.4999(4) 0.5612(6)
H33 H 1.1842 0.5067 0.5685
C46 C 1.1247(11) 0.4880(4) 0.5276(5)
H34 H 1.1633 0.4866 0.5120
C47 C 1.0557(12) 0.4781(4) 0.5169(5)
H35 H 1.0473 0.4700 0.4940
C48 C 0.9992(10) 0.4801(4) 0.5398(6)
H36 H 0.9521 0.4734 0.5325
C49 C 0.4709(17) 0.4539(6) 0.8446(9)
C50 C 0.3879(17) 0.4690(6) 0.8008(9)
H37 H 0.3756 0.4804 0.7821
C51 C 0.3362(17) 0.4528(5) 0.8056(9)
H38 H 0.2899 0.4531 0.7907
C52 C 0.3504(17) 0.4363(6) 0.8316(9)
H39 H 0.3139 0.4249 0.8359
C53 C 0.4175(16) 0.4360(6) 0.8518(9)
H40 H 0.4293 0.4243 0.8701
C54 C 0.5448(16) 0.4528(6) 0.8614(9)
H41 H 0.5610 0.4414 0.8796
C55 C 0.6649(7) 0.4690(4) 0.8657(5)
C56 C 0.7210(10) 0.4611(4) 0.8455(4)
H42 H 0.7093 0.4554 0.8210
C57 C 0.7942(8) 0.4616(4) 0.8611(5)
H43 H 0.8326 0.4563 0.8473
C58 C 0.8113(7) 0.4700(4) 0.8970(5)
C59 C 0.7552(10) 0.4779(4) 0.9172(4)
H44 H 0.7669 0.4837 0.9418
C60 C 0.6820(8) 0.4774(4) 0.9016(5)
H45 H 0.6437 0.4828 0.9154
C61 C 0.8926(7) 0.4736(3) 0.9124(5)
C62 C 0.9465(9) 0.4770(3) 0.8884(3)
H46 H 0.9329 0.4776 0.8624
C63 C 1.0203(8) 0.4795(3) 0.9024(4)
H47 H 1.0572 0.4818 0.8860
C64 C 1.0402(7) 0.4786(3) 0.9405(5)
C65 C 0.9862(9) 0.4752(3) 0.9645(3)
H48 H 0.9998 0.4745 0.9905
C66 C 0.9124(8) 0.4727(3) 0.9504(4)
H49 H 0.8756 0.4703 0.9668
C67 C 1.1475(16) 0.5010(5) 0.9543(8)
H50 H 1.1235 0.5142 0.9426
C68 C 1.2220(7) 0.5013(3) 0.9724(5)
N5 N 1.2493(9) 0.4804(3) 0.9881(5)
C69 C 1.3207(9) 0.4794(3) 1.0061(5)
H51 H 1.3393 0.4651 1.0168
C70 C 1.3647(7) 0.4995(3) 1.0086(5)
H52 H 1.4134 0.4989 1.0209
C71 C 1.3374(9) 0.5205(3) 0.9929(5)
H53 H 1.3675 0.5342 0.9946
C72 C 1.2661(10) 0.5214(3) 0.9748(5)
H54 H 1.2474 0.5357 0.9641
C73 C 0.7921(9) 0.2756(3) 0.7227(5)
H55 H 0.8216 0.2686 0.7429
N6 N 0.8108(8) 0.2975(3) 0.7097(5)
C74 C 0.7676(10) 0.3077(3) 0.6801(5)
C75 C 0.7058(10) 0.2960(3) 0.6633(5)
H56 H 0.6763 0.3030 0.6431
C76 C 0.6872(9) 0.2740(3) 0.6763(5)
H57 H 0.6449 0.2660 0.6649
C77 C 0.7303(10) 0.2638(3) 0.7060(6)
H58 H 0.7176 0.2488 0.7148
C78 C 0.7924(16) 0.3292(6) 0.6703(9)
H59 H 0.7690 0.3375 0.6495
C79 C 0.8815(10) 0.3600(3) 0.6780(6)
C80 C 0.8714(10) 0.3803(3) 0.6981(5)
H60 H 0.8370 0.3805 0.7161
C81 C 0.9118(11) 0.4005(3) 0.6918(5)
H61 H 0.9049 0.4144 0.7055
C82 C 0.9621(10) 0.4002(3) 0.6654(6)
C83 C 0.9722(10) 0.3798(3) 0.6454(5)
H62 H 1.0066 0.3796 0.6274
C84 C 0.9319(11) 0.3597(3) 0.6517(5)
H63 H 0.9387 0.3458 0.6380
C85 C 1.0119(12) 0.4217(3) 0.6618(6)
C86 C 1.0398(12) 0.4342(3) 0.6931(4)
H64 H 1.0299 0.4291 0.7170
C87 C 1.0824(12) 0.4542(3) 0.6895(5)
H65 H 1.1016 0.4627 0.7109
C88 C 1.0970(12) 0.4617(3) 0.6545(6)
C89 C 1.0690(12) 0.4493(3) 0.6232(4)
H66 H 1.0790 0.4544 0.5992
C90 C 1.0264(12) 0.4293(3) 0.6268(5)
H67 H 1.0073 0.4207 0.6054
C91 C 1.203(2) 0.4826(6) 0.6491(9)
H68 H 1.2296 0.4683 0.6534
C92 C 1.2397(11) 0.5033(3) 0.6414(7)
N7 N 1.1903(8) 0.5217(3) 0.6334(7)
C93 C 1.2157(10) 0.5433(3) 0.6220(7)
H69 H 1.1819 0.5559 0.6165
C94 C 1.2905(11) 0.5465(3) 0.6184(7)
H70 H 1.3079 0.5612 0.6106
C95 C 1.3400(8) 0.5280(4) 0.6263(7)
H71 H 1.3911 0.5302 0.6239
C96 C 1.3146(10) 0.5065(3) 0.6378(7)
H72 H 1.3484 0.4939 0.6432
N8 N 0.9561(10) 0.3045(3) 0.6891(4)
C97 C 1.0205(10) 0.3175(3) 0.6877(5)
C98 C 1.0623(9) 0.3148(3) 0.6580(5)
H73 H 1.1063 0.3237 0.6570
C99 C 1.0398(10) 0.2990(3) 0.6297(5)
H74 H 1.0684 0.2972 0.6094
C100 C 0.9754(11) 0.2860(3) 0.6312(5)
H75 H 0.9600 0.2752 0.6119
C101 C 0.9336(9) 0.2887(3) 0.6609(5)
H76 H 0.8896 0.2798 0.6619
C102 C 1.0379(18) 0.3331(5) 0.7165(9)
H77 H 1.0821 0.3422 0.7190
C103 C 1.0113(12) 0.3486(3) 0.7723(4)
C104 C 1.0378(12) 0.3371(2) 0.8049(5)
H78 H 1.0438 0.3206 0.8051
C105 C 1.0557(12) 0.3500(3) 0.8372(4)
H79 H 1.0738 0.3422 0.8595
C106 C 1.0470(12) 0.3743(3) 0.8370(4)
C107 C 1.0205(12) 0.3857(2) 0.8044(5)
H80 H 1.0146 0.4023 0.8042
C108 C 1.0027(12) 0.3729(3) 0.7720(4)
H81 H 0.9846 0.3807 0.7498
C109 C 1.0621(11) 0.3885(3) 0.8718(4)
C110 C 1.1257(10) 0.3850(3) 0.8960(5)
H82 H 1.1610 0.3735 0.8905
C111 C 1.1376(9) 0.3983(3) 0.9283(5)
H83 H 1.1811 0.3959 0.9448
C112 C 1.0860(11) 0.4150(3) 0.9363(4)
C113 C 1.0224(9) 0.4185(3) 0.9121(5)
H84 H 0.9871 0.4300 0.9175
C114 C 1.0105(9) 0.4053(3) 0.8798(5)
H85 H 0.9670 0.4077 0.8632
C115 C 1.0597(18) 0.4285(5) 0.9935(9)
H86 H 1.0189 0.4180 0.9916
C116 C 1.0745(10) 0.4424(3) 1.0258(4)
N9 N 1.1382(9) 0.4558(3) 1.0244(4)
C117 C 1.1650(8) 0.4694(3) 1.0547(5)
H87 H 1.2085 0.4786 1.0538
C118 C 1.1281(10) 0.4696(3) 1.0864(4)
H88 H 1.1464 0.4789 1.1072
C119 C 1.0644(10) 0.4562(3) 1.0878(4)
H89 H 1.0392 0.4564 1.1095
C120 C 1.0376(8) 0.4426(3) 1.0575(5)
H90 H 0.9941 0.4335 1.0585
C121 C 1.0373(12) 0.5581(4) 0.6552(4)
N10 N 1.0512(11) 0.5453(3) 0.6239(6)
C122 C 1.0320(12) 0.5546(3) 0.5888(5)
H91 H 1.0415 0.5459 0.5674
C123 C 0.9989(12) 0.5766(4) 0.5848(5)
H92 H 0.9858 0.5829 0.5608
C124 C 0.9850(12) 0.5893(3) 0.6160(6)
H93 H 0.9624 0.6044 0.6134
C125 C 1.0042(12) 0.5801(4) 0.6512(5)
H94 H 0.9947 0.5888 0.6726
C126 C 1.0611(19) 0.5461(6) 0.6877(10)
H95 H 1.0556 0.5532 0.7110
C127 C 1.1115(10) 0.5151(3) 0.7219(4)
C128 C 1.1865(9) 0.5120(4) 0.7329(5)
H96 H 1.2223 0.5171 0.7173
C129 C 1.2092(7) 0.5015(4) 0.7668(5)
H97 H 1.2604 0.4993 0.7744
C130 C 1.1568(10) 0.4940(3) 0.7897(5)
C131 C 1.0818(9) 0.4972(4) 0.7786(5)
H98 H 1.0460 0.4921 0.7943
C132 C 1.0591(7) 0.5077(4) 0.7448(5)
H99 H 1.0079 0.5098 0.7372
C133 C 1.1768(10) 0.4806(3) 0.8268(4)
C134 C 1.2293(10) 0.4906(3) 0.8528(5)
H100 H 1.2531 0.5049 0.8472
C135 C 1.2469(9) 0.4798(3) 0.8869(4)
H101 H 1.2828 0.4866 0.9047
C136 C 1.2121(10) 0.4589(3) 0.8951(4)
C137 C 1.1596(10) 0.4490(3) 0.8691(5)
H102 H 1.1358 0.4347 0.8746
C138 C 1.1419(9) 0.4598(3) 0.8349(4)
H103 H 1.1060 0.4530 0.8172
C139 C 1.2854(17) 0.4344(5) 0.9335(8)
H104 H 1.3126 0.4306 0.9133
C140 C 1.3034(10) 0.4258(3) 0.9704(4)
N11 N 1.2529(8) 0.4309(3) 0.9955(5)
C141 C 1.2607(9) 0.4206(3) 1.0305(4)
H105 H 1.2261 0.4241 1.0477
C142 C 1.3190(10) 0.4053(3) 1.0403(4)
H106 H 1.3243 0.3983 1.0642
C143 C 1.3696(9) 0.4002(3) 1.0152(5)
H107 H 1.4094 0.3897 1.0219
C144 C 1.3618(9) 0.4105(3) 0.9802(4)
H108 H 1.3963 0.4070 0.9630
N12 N 0.5552(13) 0.4757(4) 0.7680(8)
N13 N 0.8464(15) 0.3291(4) 0.7685(8)
N14 N 0.6201(15) 0.5132(5) 0.8132(8)
N15 N 0.9849(14) 0.5032(5) 0.6307(8)
N16 N 0.4541(16) 0.4707(5) 0.8193(8)
N17 N 0.5887(13) 0.4686(4) 0.8499(7)
N18 N 1.1162(13) 0.4798(4) 0.9560(7)
N19 N 0.8527(13) 0.3386(4) 0.6916(7)
N20 N 1.1342(14) 0.4832(5) 0.6504(7)
N21 N 0.9894(14) 0.3343(4) 0.7398(7)
N22 N 1.1001(14) 0.4300(4) 0.9673(7)
N23 N 1.0886(15) 0.5269(5) 0.6866(8)
N24 N 1.2272(12) 0.4482(4) 0.9305(7)
Fe1 Fe 0.5365(2) 0.49194(7) 0.81431(13)
Fe2 Fe 0.8982(2) 0.31653(7) 0.72826(13)
Fe3 Fe 1.0888(3) 0.51381(8) 0.63579(14)
Fe4 Fe 1.1794(2) 0.45377(7) 0.97660(12)
N25 N -0.0216(9) 0.3562(2) 0.1379(5)
C145 C 0.0176(8) 0.3772(3) 0.1401(4)
C146 C -0.0109(10) 0.3968(2) 0.1206(6)
H109 H 0.0159 0.4111 0.1220
C147 C -0.0786(10) 0.3953(3) 0.0989(5)
H110 H -0.0981 0.4087 0.0856
C148 C -0.1178(9) 0.3743(3) 0.0968(5)
H111 H -0.1640 0.3733 0.0820
C149 C -0.0893(9) 0.3547(3) 0.1163(6)
H112 H -0.1160 0.3403 0.1148
C150 C 0.0857(10) 0.3753(4) 0.1676(6)
H113 H 0.1174 0.3883 0.1737
C151 C 0.1629(8) 0.3548(3) 0.2076(5)
C152 C 0.2289(10) 0.3460(3) 0.1970(5)
H114 H 0.2324 0.3419 0.1719
C153 C 0.2899(8) 0.3433(3) 0.2232(6)
H115 H 0.3351 0.3373 0.2160
C154 C 0.2849(9) 0.3494(3) 0.2600(5)
C155 C 0.2188(10) 0.3582(3) 0.2706(5)
H116 H 0.2153 0.3624 0.2957
C156 C 0.1578(8) 0.3609(3) 0.2444(6)
H117 H 0.1126 0.3669 0.2516
C157 C 0.3515(10) 0.3452(3) 0.2889(5)
C158 C 0.3905(11) 0.3243(3) 0.2871(5)
H118 H 0.3764 0.3132 0.2681
C159 C 0.4504(11) 0.3196(3) 0.3132(6)
H119 H 0.4771 0.3053 0.3121
C160 C 0.4711(10) 0.3358(3) 0.3411(5)
C161 C 0.4320(11) 0.3567(3) 0.3428(5)
H120 H 0.4462 0.3678 0.3618
C162 C 0.3722(11) 0.3614(3) 0.3167(6)
H121 H 0.3455 0.3757 0.3179
C163 C 0.527(2) 0.3254(6) 0.3983(12)
H122 H 0.4778 0.3224 0.4037
C164 C 0.5850(12) 0.3224(5) 0.4257(6)
N26 N 0.6513(15) 0.3292(4) 0.4128(5)
C165 C 0.7179(12) 0.3256(4) 0.4347(7)
H123 H 0.7632 0.3303 0.4260
C166 C 0.7182(12) 0.3153(5) 0.4695(6)
H124 H 0.7637 0.3128 0.4844
C167 C 0.6519(15) 0.3084(4) 0.4823(5)
H125 H 0.6521 0.3014 0.5060
C168 C 0.5853(12) 0.3120(5) 0.4604(7)
H126 H 0.5400 0.3073 0.4692
C169 C -0.0475(9) 0.2938(3) 0.1347(5)
N27 N -0.0613(9) 0.3090(3) 0.1633(5)
C170 C -0.1229(10) 0.3056(3) 0.1823(5)
H127 H -0.1323 0.3160 0.2018
C171 C -0.1709(9) 0.2870(3) 0.1729(5)
H128 H -0.2131 0.2847 0.1859
C172 C -0.1572(9) 0.2718(3) 0.1443(6)
H129 H -0.1900 0.2591 0.1378
C173 C -0.0955(11) 0.2752(3) 0.1252(5)
H130 H -0.0861 0.2649 0.1057
C174 C 0.0218(17) 0.2972(5) 0.1224(9)
H131 H 0.0382 0.2870 0.1042
C175 C 0.1320(8) 0.3177(4) 0.1215(6)
C176 C 0.1866(10) 0.3006(3) 0.1277(6)
H132 H 0.1770 0.2866 0.1407
C177 C 0.2554(9) 0.3041(3) 0.1150(6)
H133 H 0.2928 0.2924 0.1192
C178 C 0.2696(8) 0.3245(4) 0.0961(6)
C179 C 0.2149(10) 0.3416(3) 0.0899(6)
H134 H 0.2245 0.3556 0.0769
C180 C 0.1461(9) 0.3382(3) 0.1026(6)
H135 H 0.1087 0.3499 0.0984
C181 C 0.3452(8) 0.3274(4) 0.0829(5)
C182 C 0.4088(10) 0.3213(4) 0.1055(4)
H136 H 0.4054 0.3165 0.1304
C183 C 0.4775(8) 0.3223(4) 0.0918(5)
H137 H 0.5210 0.3181 0.1073
C184 C 0.4825(8) 0.3294(4) 0.0555(5)
C185 C 0.4189(10) 0.3355(4) 0.0329(4)
H138 H 0.4223 0.3404 0.0080
C186 C 0.3502(8) 0.3345(4) 0.0465(5)
H139 H 0.3067 0.3387 0.0311
C187 C 0.5905(17) 0.3498(7) 0.0441(9)
H140 H 0.5739 0.3638 0.0551
C188 C 0.6563(10) 0.3488(3) 0.0271(6)
N28 N 0.6711(10) 0.3278(3) 0.0097(6)
C189 C 0.7324(11) 0.3260(3) -0.0100(6)
H141 H 0.7425 0.3117 -0.0219
C190 C 0.7790(10) 0.3452(3) -0.0124(6)
H142 H 0.8209 0.3440 -0.0259
C191 C 0.7643(11) 0.3662(3) 0.0050(6)
H143 H 0.7961 0.3793 0.0034
C192 C 0.7029(12) 0.3680(3) 0.0248(6)
H144 H 0.6929 0.3824 0.0367
C193 C -0.0052(10) 0.3371(3) 0.2504(5)
N29 N -0.0294(11) 0.3467(3) 0.2160(4)
C194 C -0.0775(11) 0.3658(3) 0.2137(4)
H145 H -0.0941 0.3724 0.1902
C195 C -0.1015(10) 0.3752(3) 0.2458(6)
H146 H -0.1344 0.3882 0.2442
C196 C -0.0773(11) 0.3656(3) 0.2802(5)
H147 H -0.0936 0.3720 0.3021
C197 C -0.0291(12) 0.3465(3) 0.2825(4)
H148 H -0.0126 0.3399 0.3059
C198 C 0.0387(18) 0.3165(6) 0.2471(10)
H149 H 0.0521 0.3064 0.2676
C199 C 0.0979(9) 0.2900(2) 0.2134(6)
C200 C 0.0591(7) 0.2693(3) 0.2053(6)
H150 H 0.0064 0.2694 0.2025
C201 C 0.0972(9) 0.2484(2) 0.2011(6)
H151 H 0.0707 0.2343 0.1955
C202 C 0.1742(9) 0.2483(2) 0.2050(6)
C203 C 0.2130(7) 0.2691(3) 0.2132(6)
H152 H 0.2656 0.2690 0.2159
C204 C 0.1748(9) 0.2899(2) 0.2173(6)
H153 H 0.2014 0.3041 0.2229
C205 C 0.2155(11) 0.2247(3) 0.2026(6)
C206 C 0.1974(10) 0.2050(3) 0.2225(5)
H154 H 0.1588 0.2058 0.2382
C207 C 0.2359(11) 0.1841(3) 0.2193(6)
H155 H 0.2235 0.1706 0.2329
C208 C 0.2923(11) 0.1829(3) 0.1963(6)
C209 C 0.3104(10) 0.2026(3) 0.1764(5)
H156 H 0.3490 0.2017 0.1607
C210 C 0.2719(11) 0.2235(3) 0.1796(6)
H157 H 0.2843 0.2369 0.1660
C211 C 0.3362(17) 0.1522(5) 0.1674(10)
H158 H 0.3061 0.1577 0.1461
C212 C 0.3839(10) 0.1313(3) 0.1661(6)
N30 N 0.4237(11) 0.1269(3) 0.2002(5)
C213 C 0.4726(11) 0.1080(3) 0.2041(4)
H159 H 0.4998 0.1049 0.2275
C214 C 0.4818(10) 0.0937(3) 0.1739(6)
H160 H 0.5152 0.0808 0.1766
C215 C 0.4420(12) 0.0982(3) 0.1398(5)
H161 H 0.4482 0.0884 0.1191
C216 C 0.3930(11) 0.1170(3) 0.1359(4)
H162 H 0.3659 0.1201 0.1125
C217 C 0.5856(12) 0.3866(3) 0.3466(4)
N31 N 0.6124(10) 0.3727(3) 0.3765(5)
C218 C 0.6083(11) 0.3806(3) 0.4125(5)
H163 H 0.6266 0.3711 0.4330
C219 C 0.5775(12) 0.4024(3) 0.4186(4)
H164 H 0.5747 0.4078 0.4432
C220 C 0.5507(11) 0.4164(3) 0.3886(6)
H165 H 0.5297 0.4313 0.3928
C221 C 0.5548(12) 0.4084(3) 0.3526(5)
H166 H 0.5365 0.4180 0.3321
C222 C 0.5934(18) 0.3770(6) 0.3113(10)
H167 H 0.5808 0.3854 0.2889
C223 C 0.6285(11) 0.3460(3) 0.2760(4)
C224 C 0.6993(9) 0.3428(3) 0.2655(5)
H168 H 0.7413 0.3471 0.2820
C225 C 0.7087(8) 0.3332(4) 0.2311(5)
H169 H 0.7571 0.3310 0.2240
C226 C 0.6472(11) 0.3268(3) 0.2070(4)
C227 C 0.5764(9) 0.3300(3) 0.2175(5)
H170 H 0.5344 0.3257 0.2010
C228 C 0.5670(8) 0.3396(4) 0.2519(5)
H171 H 0.5186 0.3418 0.2590
C229 C 0.6601(11) 0.3154(3) 0.1692(4)
C230 C 0.6252(10) 0.2945(3) 0.1577(5)
H172 H 0.5998 0.2856 0.1746
C231 C 0.6276(11) 0.2866(3) 0.1216(5)
H173 H 0.6037 0.2723 0.1137
C232 C 0.6648(11) 0.2996(3) 0.0969(4)
C233 C 0.6997(10) 0.3205(3) 0.1084(5)
H174 H 0.7252 0.3294 0.0915
C234 C 0.6974(11) 0.3284(3) 0.1445(5)
H175 H 0.7212 0.3427 0.1524
C235 C 0.7123(18) 0.2765(5) 0.0519(9)
H176 H 0.7489 0.2711 0.0706
C236 C 0.7093(11) 0.2685(4) 0.0153(4)
N32 N 0.6553(10) 0.2798(3) -0.0082(5)
C237 C 0.6469(10) 0.2745(3) -0.0459(5)
H177 H 0.6100 0.2823 -0.0620
C238 C 0.6926(12) 0.2579(4) -0.0599(4)
H178 H 0.6869 0.2543 -0.0856
C239 C 0.7466(11) 0.2465(3) -0.0364(5)
H179 H 0.7778 0.2352 -0.0460
C240 C 0.7549(10) 0.2519(4) 0.0013(5)
H180 H 0.7918 0.2441 0.0174
C241 C 0.7854(11) 0.3288(3) 0.3511(6)
N33 N 0.7440(8) 0.3478(3) 0.3616(6)
C242 C 0.7794(10) 0.3683(3) 0.3746(6)
H181 H 0.7511 0.3812 0.3818
C243 C 0.8562(11) 0.3698(3) 0.3771(6)
H182 H 0.8803 0.3838 0.3859
C244 C 0.8975(8) 0.3509(4) 0.3666(6)
H183 H 0.9500 0.3519 0.3683
C245 C 0.8621(10) 0.3304(3) 0.3536(6)
H184 H 0.8904 0.3174 0.3464
C246 C 0.743(2) 0.3093(6) 0.3411(10)
H185 H 0.7643 0.2956 0.3316
C247 C 0.6278(11) 0.2900(3) 0.3352(6)
C248 C 0.6088(12) 0.2830(3) 0.2987(5)
H186 H 0.6276 0.2913 0.2790
C249 C 0.5623(12) 0.2638(4) 0.2911(4)
H187 H 0.5493 0.2591 0.2661
C250 C 0.5347(11) 0.2516(3) 0.3199(6)
C251 C 0.5537(12) 0.2586(3) 0.3564(5)
H188 H 0.5349 0.2503 0.3761
C252 C 0.6003(12) 0.2778(4) 0.3641(4)
H189 H 0.6132 0.2826 0.3890
C253 C 0.4854(10) 0.2314(3) 0.3120(5)
C254 C 0.4305(11) 0.2324(3) 0.2823(5)
H190 H 0.4215 0.2466 0.2689
C255 C 0.3887(10) 0.2125(3) 0.2721(5)
H191 H 0.3512 0.2132 0.2518
C256 C 0.4019(10) 0.1916(3) 0.2916(5)
C257 C 0.4568(11) 0.1906(3) 0.3213(5)
H192 H 0.4658 0.1764 0.3347
C258 C 0.4986(10) 0.2105(3) 0.3315(5)
H193 H 0.5361 0.2098 0.3518
C259 C 0.3154(18) 0.1622(6) 0.2949(9)
H194 H 0.2981 0.1707 0.3148
C260 C 0.2850(10) 0.1398(3) 0.2831(5)
N34 N 0.3210(8) 0.1299(3) 0.2549(5)
C261 C 0.2988(10) 0.1081(3) 0.2405(5)
H195 H 0.3234 0.1012 0.2212
C262 C 0.2406(10) 0.0962(3) 0.2543(6)
H196 H 0.2254 0.0813 0.2445
C263 C 0.2046(9) 0.1062(3) 0.2825(6)
H197 H 0.1648 0.0981 0.2919
C264 C 0.2268(10) 0.1280(3) 0.2969(5)
H198 H 0.2022 0.1348 0.3162
C265 C 0.4659(11) 0.2995(3) -0.0318(5)
N35 N 0.5316(10) 0.3122(4) -0.0286(5)
C266 C 0.5426(9) 0.3297(3) -0.0542(5)
H199 H 0.5875 0.3384 -0.0520
C267 C 0.4881(12) 0.3344(3) -0.0831(5)
H200 H 0.4956 0.3463 -0.1006
C268 C 0.4224(10) 0.3216(4) -0.0863(5)
H201 H 0.3851 0.3249 -0.1060
C269 C 0.4113(10) 0.3042(4) -0.0606(6)
H202 H 0.3664 0.2955 -0.0628
C270 C 0.462(2) 0.2819(6) -0.0058(9)
H203 H 0.4223 0.2708 -0.0077
C271 C 0.5112(11) 0.2627(3) 0.0479(5)
C272 C 0.5600(10) 0.2438(3) 0.0515(5)
H204 H 0.5963 0.2420 0.0347
C273 C 0.5557(10) 0.2276(3) 0.0799(6)
H205 H 0.5891 0.2147 0.0824
C274 C 0.5026(11) 0.2302(3) 0.1045(5)
C275 C 0.4538(10) 0.2491(3) 0.1009(5)
H206 H 0.4175 0.2509 0.1177
C276 C 0.4581(10) 0.2653(3) 0.0725(6)
H207 H 0.4247 0.2782 0.0700
C277 C 0.5048(12) 0.2140(3) 0.1389(5)
C278 C 0.5066(12) 0.1898(3) 0.1338(4)
H208 H 0.5114 0.1835 0.1099
C279 C 0.5015(12) 0.1748(2) 0.1638(5)
H209 H 0.5028 0.1583 0.1603
C280 C 0.4946(12) 0.1841(3) 0.1987(5)
C281 C 0.4928(12) 0.2083(3) 0.2038(4)
H210 H 0.4880 0.2146 0.2277
C282 C 0.4979(12) 0.2232(2) 0.1739(5)
H211 H 0.4966 0.2398 0.1773
C283 C 0.5423(19) 0.1670(5) 0.2520(9)
H212 H 0.5862 0.1757 0.2500
C284 C 0.5375(10) 0.1516(3) 0.2820(5)
N36 N 0.4738(9) 0.1379(3) 0.2796(4)
C285 C 0.4628(8) 0.1221(3) 0.3078(5)
H213 H 0.4193 0.1127 0.3062
C286 C 0.5156(10) 0.1200(3) 0.3382(5)
H214 H 0.5081 0.1092 0.3575
C287 C 0.5793(9) 0.1337(3) 0.3406(4)
H215 H 0.6153 0.1322 0.3614
C288 C 0.5902(8) 0.1495(3) 0.3125(5)
H216 H 0.6338 0.1589 0.3141
N37 N 0.0980(15) 0.3546(5) 0.1823(8)
N38 N 0.5383(16) 0.3321(4) 0.3667(10)
N39 N 0.0637(14) 0.3140(4) 0.1356(7)
N40 N 0.5528(14) 0.3295(5) 0.0434(6)
N41 N 0.0586(15) 0.3126(4) 0.2151(8)
N42 N 0.3374(15) 0.1621(4) 0.1971(8)
N43 N 0.6195(15) 0.3553(4) 0.3122(7)
N44 N 0.6639(15) 0.2913(5) 0.0587(7)
N45 N 0.6738(14) 0.3105(4) 0.3451(8)
N46 N 0.3674(12) 0.1700(4) 0.2770(7)
N47 N 0.5153(16) 0.2811(5) 0.0218(7)
N48 N 0.4884(14) 0.1690(4) 0.2279(7)
Fe5 Fe 0.0192(2) 0.33199(8) 0.17452(13)
Fe6 Fe 0.6402(3) 0.34085(8) 0.36174(13)
Fe7 Fe 0.5979(2) 0.30284(8) 0.01642(13)
Fe8 Fe 0.4005(2) 0.14929(7) 0.23853(13)
C289 C 0.906(5) 0.5756(10) 0.758(2)
C290 C 0.833(4) 0.5745(10) 0.7592(19)
H217 H 0.8080 0.5791 0.7349
H218 H 0.8179 0.5852 0.7783
H219 H 0.8185 0.5584 0.7649
N49 N 0.973(3) 0.5783(8) 0.7644(17)
C291 C 0.118(3) 0.5482(10) 0.8471(19)
C292 C 0.140(3) 0.5575(8) 0.8117(12)
H220 H 0.1634 0.5729 0.8160
H221 H 0.0957 0.5592 0.7939
H222 H 0.1748 0.5467 0.8017
N50 N 0.110(3) 0.5432(7) 0.8774(12)
C293 C 0.728(3) 0.4055(8) 0.8904(15)
C294 C 0.674(2) 0.4110(8) 0.8839(14)
H223 H 0.6417 0.4026 0.8995
H224 H 0.6585 0.4076 0.8578
H225 H 0.6709 0.4279 0.8884
N51 N 0.8050(19) 0.3980(6) 0.8987(11)
C295 C 0.197(3) 0.3980(9) 0.6375(15)
H226 H 0.2302 0.3902 0.6219
H227 H 0.2218 0.4114 0.6503
H228 H 0.1525 0.4035 0.6221
C296 C 0.173(3) 0.3799(9) 0.6672(15)
N52 N 0.159(3) 0.3661(8) 0.6864(14)
C297 C 0.567(5) 0.4069(16) 0.9921(17)
C298 C 0.612(4) 0.4091(13) 0.9576(17)
H229 H 0.6447 0.4228 0.9605
H230 H 0.5774 0.4109 0.9351
H231 H 0.6417 0.3949 0.9555
N53 N 0.556(4) 0.4066(12) 1.0213(17)
C299 C 0.703(2) 0.2847(7) 0.8024(11)
C300 C 0.732(2) 0.2705(8) 0.8303(12)
H232 H 0.7313 0.2787 0.8540
H233 H 0.7832 0.2665 0.8265
H234 H 0.7025 0.2561 0.8304
N54 N 0.6800(17) 0.2950(6) 0.7800(9)
C301 C 0.720(3) 0.1120(8) 0.6802(16)
C302 C 0.770(3) 0.1140(9) 0.6694(15)
H235 H 0.7615 0.1193 0.6436
H236 H 0.7965 0.0990 0.6704
H237 H 0.8001 0.1257 0.6840
N55 N 0.652(2) 0.1067(6) 0.7038(11)
C303 C 0.436(4) 0.0890(10) 0.7467(19)
C304 C 0.494(3) 0.0937(10) 0.7429(18)
H238 H 0.5266 0.0898 0.7654
H239 H 0.4977 0.1106 0.7379
H240 H 0.5103 0.0849 0.7219
N56 N 0.351(3) 0.0861(8) 0.7514(14)
B1 B 0.9318(9) 0.4461(3) 0.7863(5)
F1 F 0.8868(10) 0.4428(3) 0.7537(5)
F2 F 0.9316(9) 0.4695(3) 0.7965(4)
F3 F 1.0025(8) 0.4398(3) 0.7797(5)
F4 F 0.9050(9) 0.4318(3) 0.8125(5)
B2 B 0.4186(8) 0.2842(3) 0.2010(5)
F5 F 0.4152(9) 0.3081(3) 0.1945(5)
F6 F 0.3862(10) 0.2795(3) 0.2330(5)
F7 F 0.3776(9) 0.2727(3) 0.1724(4)
F8 F 0.4903(8) 0.2760(3) 0.2038(5)
B3 B 0.7132(11) 0.1763(4) 0.3912(5)
F9 F 0.7641(12) 0.1900(4) 0.4124(6)
F10 F 0.7402(12) 0.1706(5) 0.3582(6)
F11 F 0.6499(13) 0.1896(5) 0.3832(6)
F12 F 0.6972(14) 0.1559(5) 0.4093(6)
B4 B 0.7951(14) 0.2083(3) 0.0772(6)
F13 F 0.8134(16) 0.2299(4) 0.0889(7)
F14 F 0.8227(15) 0.2058(4) 0.0449(6)
F15 F 0.8153(13) 0.1903(4) 0.0995(6)
F16 F 0.7221(16) 0.2082(6) 0.0686(8)
B5 B 0.8752(10) 0.2169(3) 0.7782(5)
F17 F 0.9081(15) 0.2270(4) 0.7494(7)
F18 F 0.8464(15) 0.1953(4) 0.7673(7)
F19 F 0.9274(14) 0.2140(5) 0.8084(7)
F20 F 0.8193(14) 0.2313(4) 0.7879(7)
B6 B 0.7662(14) 0.0864(5) 0.7969(8)
F21 F 0.8292(18) 0.0872(6) 0.8167(9)
F22 F 0.7070(17) 0.0815(6) 0.8120(10)
F23 F 0.757(2) 0.1081(6) 0.7875(11)
F24 F 0.7722(19) 0.0708(9) 0.7718(15)
B7 B 0.360(2) 0.4511(7) 0.7022(11)
F25 F 0.3266(12) 0.4699(4) 0.7163(6)
F26 F 0.4017(17) 0.4591(5) 0.6755(7)
F27 F 0.3085(11) 0.4357(4) 0.6853(7)
F28 F 0.4040(12) 0.4400(3) 0.7275(6)
B8 B 0.7832(17) 0.5804(5) 0.8628(6)
F29 F 0.801(3) 0.5981(6) 0.8881(11)
F30 F 0.732(2) 0.5918(9) 0.8383(11)
F31 F 0.7363(14) 0.5672(4) 0.8821(6)
F32 F 0.8282(17) 0.5714(6) 0.8514(9)
B9 B 0.1613(7) 0.5738(2) 0.9902(4)
F33 F 0.2025(10) 0.5683(3) 1.0228(5)
F34 F 0.1104(9) 0.5906(3) 0.9964(6)
F35 F 0.2070(9) 0.5820(3) 0.9655(4)
F36 F 0.1254(8) 0.5541(2) 0.9762(4)
F37 F 1.5299(9) 0.4716(3) 0.9386(5)
F38 F 1.4063(10) 0.4708(4) 0.9369(5)
F39 F 1.4787(12) 0.4599(4) 0.9900(4)
F40 F 1.4701(12) 0.4368(4) 0.9380(6)
B10 B 1.472(3) 0.4595(8) 0.9519(13)
F41 F 0.2920(14) 0.3948(4) 0.8767(7)
F42 F 0.3139(18) 0.3677(4) 0.9227(7)
F43 F 0.3560(18) 0.3625(4) 0.8663(6)
F44 F 0.4097(17) 0.3868(4) 0.9016(7)
B11 B 0.334(3) 0.3760(10) 0.8918(17)
N57 N 0.278(3) 0.2774(10) 0.0145(16)
C305 C 0.218(4) 0.2859(11) 0.0177(17)
C306 C 0.150(3) 0.2906(10) 0.0235(16)
H241 H 0.1171 0.2784 0.0121
H242 H 0.1357 0.3059 0.0125
H243 H 0.1463 0.2911 0.0502
O1 O 0.962(2) 0.3443(6) -0.0337(10)
C307 C 0.996(4) 0.3589(12) -0.0118(19)
H244 H 1.0488 0.3583 -0.0167
H245 H 0.9779 0.3748 -0.0195
C308 C 0.995(5) 0.3579(17) 0.020(3)
H246 H 0.9441 0.3598 0.0261
H247 H 1.0262 0.3702 0.0329
H248 H 1.0139 0.3424 0.0289
C309 C 0.958(4) 0.3514(12) -0.0712(18)
H249 H 0.9346 0.3671 -0.0723
H250 H 1.0096 0.3537 -0.0765
C310 C 0.927(4) 0.3404(12) -0.0981(18)
H251 H 0.9643 0.3316 -0.1102
H252 H 0.9017 0.3515 -0.1158
H253 H 0.8908 0.3294 -0.0895
N58 N 0.323(2) 0.5494(8) 0.8499(12)
C311 C 0.326(3) 0.5620(10) 0.8749(16)
C312 C 0.325(3) 0.5769(9) 0.9033(14)
H254 H 0.3553 0.5907 0.8990
H255 H 0.3448 0.5690 0.9262
H256 H 0.2738 0.5819 0.9054
N59 N 0.632(5) 0.3620(12) 0.648(2)
C313 C 0.685(5) 0.4049(12) 0.656(2)
H257 H 0.6415 0.4152 0.6564
H258 H 0.7133 0.4100 0.6356
H259 H 0.7157 0.4057 0.6793
C314 C 0.658(4) 0.3794(12) 0.648(2)
N60 N 0.831(3) 0.2308(9) -0.1071(13)
C315 C 0.882(4) 0.2227(12) -0.1010(19)
C316 C 0.956(4) 0.2164(12) -0.098(2)
H260 H 0.9607 0.2006 -0.1079
H261 H 0.9758 0.2166 -0.0717
H262 H 0.9833 0.2276 -0.1118
F45? F 0.885(3) 0.2992(10) 0.0316(17)
F46? F 0.198(3) 0.3436(10) -0.0287(16)
F47? F 0.905(3) 0.3311(10) 0.4654(16)
F48? F 0.234(3) 0.3870(10) 0.3661(16)
F49? F 0.484(3) 0.2605(8) 0.4409(13)
F50? F 1.153(3) 0.4630(8) 0.4407(13)
F51? F 0.195(3) 0.2036(9) 0.3200(13)
F52? F 0.855(3) 0.3108(8) 0.0556(13)
F53? F 0.180(3) 0.3587(8) -0.0032(13)
F54? F 0.735(3) 0.5845(8) 0.6765(13)
F55? F 0.475(3) 0.3817(10) 0.1273(16)
loop_
_geom_bond_atom_site_label_1
_geom_bond_atom_site_label_2
_geom_bond_site_symmetry_1
_geom_bond_site_symmetry_2
C1 N1 1_555 1_555
N1 C2 1_555 1_555
C2 H1 1_555 1_555
C3 C2 1_555 1_555
H2 C3 1_555 1_555
C4 C3 1_555 1_555
H3 C4 1_555 1_555
C5 C1 1_555 1_555
H4 C5 1_555 1_555
C6 C1 1_555 1_555
H5 C6 1_555 1_555
C7 C8 1_555 1_555
C8 H6 1_555 1_555
C9 C8 1_555 1_555
H7 C9 1_555 1_555
C10 C9 1_555 1_555
C11 C10 1_555 1_555
H8 C11 1_555 1_555
C12 C7 1_555 1_555
H9 C12 1_555 1_555
C13 C10 1_555 1_555
C14 C13 1_555 1_555
H10 C14 1_555 1_555
C15 C14 1_555 1_555
H11 C15 1_555 1_555
C16 C15 1_555 1_555
C17 C16 1_555 1_555
H12 C17 1_555 1_555
C18 C13 1_555 1_555
H13 C18 1_555 1_555
C19 H14 1_555 1_555
C20 C19 1_555 1_555
N2 C20 1_555 1_555
C21 N2 1_555 1_555
H15 C21 1_555 1_555
C22 C21 1_555 1_555
H16 C22 1_555 1_555
C23 C22 1_555 1_555
H17 C23 1_555 1_555
C24 C20 1_555 1_555
H18 C24 1_555 1_555
C25 N3 1_555 1_555
N3 C26 1_555 1_555
C26 H19 1_555 1_555
C27 C26 1_555 1_555
H20 C27 1_555 1_555
C28 C27 1_555 1_555
H21 C28 1_555 1_555
C29 C25 1_555 1_555
H22 C29 1_555 1_555
C30 C25 1_555 1_555
H23 C30 1_555 1_555
C31 C32 1_555 1_555
C32 H24 1_555 1_555
C33 C32 1_555 1_555
H25 C33 1_555 1_555
C34 C33 1_555 1_555
C35 C34 1_555 1_555
H26 C35 1_555 1_555
C36 C31 1_555 1_555
H27 C36 1_555 1_555
C37 C34 1_555 1_555
C38 C37 1_555 1_555
H28 C38 1_555 1_555
C39 C38 1_555 1_555
H29 C39 1_555 1_555
C40 C39 1_555 1_555
C41 C40 1_555 1_555
H30 C41 1_555 1_555
C42 C37 1_555 1_555
H31 C42 1_555 1_555
C43 H32 1_555 1_555
C44 C43 1_555 1_555
N4 C44 1_555 1_555
C45 N4 1_555 1_555
H33 C45 1_555 1_555
C46 C45 1_555 1_555
H34 C46 1_555 1_555
C47 C46 1_555 1_555
H35 C47 1_555 1_555
C48 C44 1_555 1_555
H36 C48 1_555 1_555
C49 C53 1_555 1_555
C50 H37 1_555 1_555
C51 C50 1_555 1_555
H38 C51 1_555 1_555
C52 C51 1_555 1_555
H39 C52 1_555 1_555
C53 C52 1_555 1_555
H40 C53 1_555 1_555
C54 C49 1_555 1_555
H41 C54 1_555 1_555
C55 C56 1_555 1_555
C56 H42 1_555 1_555
C57 C56 1_555 1_555
H43 C57 1_555 1_555
C58 C57 1_555 1_555
C59 C58 1_555 1_555
H44 C59 1_555 1_555
C60 C55 1_555 1_555
H45 C60 1_555 1_555
C61 C58 1_555 1_555
C62 C61 1_555 1_555
H46 C62 1_555 1_555
C63 C62 1_555 1_555
H47 C63 1_555 1_555
C64 C63 1_555 1_555
C65 C64 1_555 1_555
H48 C65 1_555 1_555
C66 C61 1_555 1_555
H49 C66 1_555 1_555
C67 H50 1_555 1_555
C68 C67 1_555 1_555
N5 C68 1_555 1_555
C69 N5 1_555 1_555
H51 C69 1_555 1_555
C70 C69 1_555 1_555
H52 C70 1_555 1_555
C71 C70 1_555 1_555
H53 C71 1_555 1_555
C72 C68 1_555 1_555
H54 C72 1_555 1_555
C73 H55 1_555 1_555
N6 C73 1_555 1_555
C74 N6 1_555 1_555
C75 C74 1_555 1_555
H56 C75 1_555 1_555
C76 C75 1_555 1_555
H57 C76 1_555 1_555
C77 C73 1_555 1_555
H58 C77 1_555 1_555
C78 C74 1_555 1_555
H59 C78 1_555 1_555
C79 C80 1_555 1_555
C80 H60 1_555 1_555
C81 C80 1_555 1_555
H61 C81 1_555 1_555
C82 C81 1_555 1_555
C83 C82 1_555 1_555
H62 C83 1_555 1_555
C84 C79 1_555 1_555
H63 C84 1_555 1_555
C85 C82 1_555 1_555
C86 C85 1_555 1_555
H64 C86 1_555 1_555
C87 C86 1_555 1_555
H65 C87 1_555 1_555
C88 C87 1_555 1_555
C89 C88 1_555 1_555
H66 C89 1_555 1_555
C90 C85 1_555 1_555
H67 C90 1_555 1_555
C91 H68 1_555 1_555
C92 C91 1_555 1_555
N7 C92 1_555 1_555
C93 N7 1_555 1_555
H69 C93 1_555 1_555
C94 C93 1_555 1_555
H70 C94 1_555 1_555
C95 C94 1_555 1_555
H71 C95 1_555 1_555
C96 C92 1_555 1_555
H72 C96 1_555 1_555
N8 C97 1_555 1_555
C97 C98 1_555 1_555
C98 H73 1_555 1_555
C99 C98 1_555 1_555
H74 C99 1_555 1_555
C100 C99 1_555 1_555
H75 C100 1_555 1_555
C101 N8 1_555 1_555
H76 C101 1_555 1_555
C102 C97 1_555 1_555
H77 C102 1_555 1_555
C103 C104 1_555 1_555
C104 H78 1_555 1_555
C105 C104 1_555 1_555
H79 C105 1_555 1_555
C106 C105 1_555 1_555
C107 C106 1_555 1_555
H80 C107 1_555 1_555
C108 C103 1_555 1_555
H81 C108 1_555 1_555
C109 C106 1_555 1_555
C110 C109 1_555 1_555
H82 C110 1_555 1_555
C111 C110 1_555 1_555
H83 C111 1_555 1_555
C112 C111 1_555 1_555
C113 C112 1_555 1_555
H84 C113 1_555 1_555
C114 C109 1_555 1_555
H85 C114 1_555 1_555
C115 H86 1_555 1_555
C116 C115 1_555 1_555
N9 C116 1_555 1_555
C117 N9 1_555 1_555
H87 C117 1_555 1_555
C118 C117 1_555 1_555
H88 C118 1_555 1_555
C119 C118 1_555 1_555
H89 C119 1_555 1_555
C120 C116 1_555 1_555
H90 C120 1_555 1_555
C121 N10 1_555 1_555
N10 C122 1_555 1_555
C122 H91 1_555 1_555
C123 C122 1_555 1_555
H92 C123 1_555 1_555
C124 C123 1_555 1_555
H93 C124 1_555 1_555
C125 C121 1_555 1_555
H94 C125 1_555 1_555
C126 C121 1_555 1_555
H95 C126 1_555 1_555
C127 C128 1_555 1_555
C128 H96 1_555 1_555
C129 C128 1_555 1_555
H97 C129 1_555 1_555
C130 C129 1_555 1_555
C131 C130 1_555 1_555
H98 C131 1_555 1_555
C132 C127 1_555 1_555
H99 C132 1_555 1_555
C133 C130 1_555 1_555
C134 C133 1_555 1_555
H100 C134 1_555 1_555
C135 C134 1_555 1_555
H101 C135 1_555 1_555
C136 C135 1_555 1_555
C137 C136 1_555 1_555
H102 C137 1_555 1_555
C138 C133 1_555 1_555
H103 C138 1_555 1_555
C139 H104 1_555 1_555
C140 C139 1_555 1_555
N11 C140 1_555 1_555
C141 N11 1_555 1_555
H105 C141 1_555 1_555
C142 C141 1_555 1_555
H106 C142 1_555 1_555
C143 C142 1_555 1_555
H107 C143 1_555 1_555
C144 C140 1_555 1_555
H108 C144 1_555 1_555
N12 C6 1_555 1_555
N13 C16 1_555 1_555
N14 C30 1_555 1_555
N15 C40 1_555 1_555
N16 C49 1_555 1_555
N17 C54 1_555 1_555
N18 C64 1_555 1_555
N19 C78 1_555 1_555
N20 C88 1_555 1_555
N21 C102 1_555 1_555
N22 C112 1_555 1_555
N23 C126 1_555 1_555
N24 C136 1_555 1_555
Fe1 N1 1_555 1_555
Fe2 N2 1_555 1_555
Fe3 N4 1_555 1_555
Fe4 N5 1_555 1_555
N25 C145 1_555 1_555
C145 C146 1_555 1_555
C146 H109 1_555 1_555
C147 C146 1_555 1_555
H110 C147 1_555 1_555
C148 C147 1_555 1_555
H111 C148 1_555 1_555
C149 N25 1_555 1_555
H112 C149 1_555 1_555
C150 C145 1_555 1_555
H113 C150 1_555 1_555
C151 C152 1_555 1_555
C152 H114 1_555 1_555
C153 C152 1_555 1_555
H115 C153 1_555 1_555
C154 C153 1_555 1_555
C155 C154 1_555 1_555
H116 C155 1_555 1_555
C156 C151 1_555 1_555
H117 C156 1_555 1_555
C157 C154 1_555 1_555
C158 C157 1_555 1_555
H118 C158 1_555 1_555
C159 C158 1_555 1_555
H119 C159 1_555 1_555
C160 C159 1_555 1_555
C161 C160 1_555 1_555
H120 C161 1_555 1_555
C162 C157 1_555 1_555
H121 C162 1_555 1_555
C163 H122 1_555 1_555
C164 C163 1_555 1_555
N26 C164 1_555 1_555
C165 N26 1_555 1_555
H123 C165 1_555 1_555
C166 C165 1_555 1_555
H124 C166 1_555 1_555
C167 C166 1_555 1_555
H125 C167 1_555 1_555
C168 C164 1_555 1_555
H126 C168 1_555 1_555
C169 N27 1_555 1_555
N27 C170 1_555 1_555
C170 H127 1_555 1_555
C171 C170 1_555 1_555
H128 C171 1_555 1_555
C172 C171 1_555 1_555
H129 C172 1_555 1_555
C173 C169 1_555 1_555
H130 C173 1_555 1_555
C174 C169 1_555 1_555
H131 C174 1_555 1_555
C175 C176 1_555 1_555
C176 H132 1_555 1_555
C177 C176 1_555 1_555
H133 C177 1_555 1_555
C178 C177 1_555 1_555
C179 C178 1_555 1_555
H134 C179 1_555 1_555
C180 C175 1_555 1_555
H135 C180 1_555 1_555
C181 C178 1_555 1_555
C182 C181 1_555 1_555
H136 C182 1_555 1_555
C183 C182 1_555 1_555
H137 C183 1_555 1_555
C184 C183 1_555 1_555
C185 C184 1_555 1_555
H138 C185 1_555 1_555
C186 C181 1_555 1_555
H139 C186 1_555 1_555
C187 H140 1_555 1_555
C188 C187 1_555 1_555
N28 C188 1_555 1_555
C189 N28 1_555 1_555
H141 C189 1_555 1_555
C190 C189 1_555 1_555
H142 C190 1_555 1_555
C191 C190 1_555 1_555
H143 C191 1_555 1_555
C192 C188 1_555 1_555
H144 C192 1_555 1_555
C193 N29 1_555 1_555
N29 C194 1_555 1_555
C194 H145 1_555 1_555
C195 C194 1_555 1_555
H146 C195 1_555 1_555
C196 C195 1_555 1_555
H147 C196 1_555 1_555
C197 C193 1_555 1_555
H148 C197 1_555 1_555
C198 C193 1_555 1_555
H149 C198 1_555 1_555
C199 C200 1_555 1_555
C200 H150 1_555 1_555
C201 C200 1_555 1_555
H151 C201 1_555 1_555
C202 C201 1_555 1_555
C203 C202 1_555 1_555
H152 C203 1_555 1_555
C204 C199 1_555 1_555
H153 C204 1_555 1_555
C205 C202 1_555 1_555
C206 C205 1_555 1_555
H154 C206 1_555 1_555
C207 C206 1_555 1_555
H155 C207 1_555 1_555
C208 C207 1_555 1_555
C209 C208 1_555 1_555
H156 C209 1_555 1_555
C210 C205 1_555 1_555
H157 C210 1_555 1_555
C211 H158 1_555 1_555
C212 C211 1_555 1_555
N30 C212 1_555 1_555
C213 N30 1_555 1_555
H159 C213 1_555 1_555
C214 C213 1_555 1_555
H160 C214 1_555 1_555
C215 C214 1_555 1_555
H161 C215 1_555 1_555
C216 C212 1_555 1_555
H162 C216 1_555 1_555
C217 N31 1_555 1_555
N31 C218 1_555 1_555
C218 H163 1_555 1_555
C219 C218 1_555 1_555
H164 C219 1_555 1_555
C220 C219 1_555 1_555
H165 C220 1_555 1_555
C221 C217 1_555 1_555
H166 C221 1_555 1_555
C222 C217 1_555 1_555
H167 C222 1_555 1_555
C223 C224 1_555 1_555
C224 H168 1_555 1_555
C225 C224 1_555 1_555
H169 C225 1_555 1_555
C226 C225 1_555 1_555
C227 C226 1_555 1_555
H170 C227 1_555 1_555
C228 C223 1_555 1_555
H171 C228 1_555 1_555
C229 C226 1_555 1_555
C230 C229 1_555 1_555
H172 C230 1_555 1_555
C231 C230 1_555 1_555
H173 C231 1_555 1_555
C232 C231 1_555 1_555
C233 C232 1_555 1_555
H174 C233 1_555 1_555
C234 C229 1_555 1_555
H175 C234 1_555 1_555
C235 H176 1_555 1_555
C236 C235 1_555 1_555
N32 C236 1_555 1_555
C237 N32 1_555 1_555
H177 C237 1_555 1_555
C238 C237 1_555 1_555
H178 C238 1_555 1_555
C239 C238 1_555 1_555
H179 C239 1_555 1_555
C240 C236 1_555 1_555
H180 C240 1_555 1_555
C241 N33 1_555 1_555
N33 C242 1_555 1_555
C242 H181 1_555 1_555
C243 C242 1_555 1_555
H182 C243 1_555 1_555
C244 C243 1_555 1_555
H183 C244 1_555 1_555
C245 C241 1_555 1_555
H184 C245 1_555 1_555
C246 C241 1_555 1_555
H185 C246 1_555 1_555
C247 C248 1_555 1_555
C248 H186 1_555 1_555
C249 C248 1_555 1_555
H187 C249 1_555 1_555
C250 C249 1_555 1_555
C251 C250 1_555 1_555
H188 C251 1_555 1_555
C252 C247 1_555 1_555
H189 C252 1_555 1_555
C253 C250 1_555 1_555
C254 C253 1_555 1_555
H190 C254 1_555 1_555
C255 C254 1_555 1_555
H191 C255 1_555 1_555
C256 C255 1_555 1_555
C257 C256 1_555 1_555
H192 C257 1_555 1_555
C258 C253 1_555 1_555
H193 C258 1_555 1_555
C259 H194 1_555 1_555
C260 C259 1_555 1_555
N34 C260 1_555 1_555
C261 N34 1_555 1_555
H195 C261 1_555 1_555
C262 C261 1_555 1_555
H196 C262 1_555 1_555
C263 C262 1_555 1_555
H197 C263 1_555 1_555
C264 C260 1_555 1_555
H198 C264 1_555 1_555
C265 N35 1_555 1_555
N35 C266 1_555 1_555
C266 H199 1_555 1_555
C267 C266 1_555 1_555
H200 C267 1_555 1_555
C268 C267 1_555 1_555
H201 C268 1_555 1_555
C269 C265 1_555 1_555
H202 C269 1_555 1_555
C270 C265 1_555 1_555
H203 C270 1_555 1_555
C271 C272 1_555 1_555
C272 H204 1_555 1_555
C273 C272 1_555 1_555
H205 C273 1_555 1_555
C274 C273 1_555 1_555
C275 C274 1_555 1_555
H206 C275 1_555 1_555
C276 C271 1_555 1_555
H207 C276 1_555 1_555
C277 C274 1_555 1_555
C278 C277 1_555 1_555
H208 C278 1_555 1_555
C279 C278 1_555 1_555
H209 C279 1_555 1_555
C280 C279 1_555 1_555
C281 C280 1_555 1_555
H210 C281 1_555 1_555
C282 C277 1_555 1_555
H211 C282 1_555 1_555
C283 H212 1_555 1_555
C284 C283 1_555 1_555
N36 C284 1_555 1_555
C285 N36 1_555 1_555
H213 C285 1_555 1_555
C286 C285 1_555 1_555
H214 C286 1_555 1_555
C287 C286 1_555 1_555
H215 C287 1_555 1_555
C288 C284 1_555 1_555
H216 C288 1_555 1_555
N37 C150 1_555 1_555
N38 C160 1_555 1_555
N39 C174 1_555 1_555
N40 C184 1_555 1_555
N41 C198 1_555 1_555
N42 C208 1_555 1_555
N43 C222 1_555 1_555
N44 C232 1_555 1_555
N45 C246 1_555 1_555
N46 C256 1_555 1_555
N47 C270 1_555 1_555
N48 C280 1_555 1_555
Fe5 N25 1_555 1_555
Fe6 N26 1_555 1_555
Fe7 N28 1_555 1_555
Fe8 N30 1_555 1_555
C289 C290 1_555 1_555
C290 H217 1_555 1_555
H218 C290 1_555 1_555
H219 C290 1_555 1_555
N49 C289 1_555 1_555
C291 C292 1_555 1_555
C292 H220 1_555 1_555
H221 C292 1_555 1_555
H222 C292 1_555 1_555
N50 C291 1_555 1_555
C293 C294 1_555 1_555
C294 H223 1_555 1_555
H224 C294 1_555 1_555
H225 C294 1_555 1_555
N51 C293 1_555 1_555
C295 H226 1_555 1_555
H227 C295 1_555 1_555
H228 C295 1_555 1_555
C296 C295 1_555 1_555
N52 C296 1_555 1_555
C297 C298 1_555 1_555
C298 H229 1_555 1_555
H230 C298 1_555 1_555
H231 C298 1_555 1_555
N53 C297 1_555 1_555
C299 C300 1_555 1_555
C300 H232 1_555 1_555
H233 C300 1_555 1_555
H234 C300 1_555 1_555
N54 C299 1_555 1_555
C301 C302 1_555 1_555
C302 H235 1_555 1_555
H236 C302 1_555 1_555
H237 C302 1_555 1_555
N55 C301 1_555 1_555
C303 C304 1_555 1_555
C304 H238 1_555 1_555
H239 C304 1_555 1_555
H240 C304 1_555 1_555
N56 C303 1_555 1_555
B1 F1 1_555 1_555
F2 B1 1_555 1_555
F3 B1 1_555 1_555
F4 B1 1_555 1_555
B2 F5 1_555 1_555
F6 B2 1_555 1_555
F7 B2 1_555 1_555
F8 B2 1_555 1_555
B3 F9 1_555 1_555
F10 B3 1_555 1_555
F11 B3 1_555 1_555
F12 B3 1_555 1_555
B4 F13 1_555 1_555
F14 B4 1_555 1_555
F15 B4 1_555 1_555
F16 B4 1_555 1_555
B5 F17 1_555 1_555
F18 B5 1_555 1_555
F19 B5 1_555 1_555
F20 B5 1_555 1_555
B6 F21 1_555 1_555
F22 B6 1_555 1_555
F23 B6 1_555 1_555
F24 B6 1_555 1_555
B7 F25 1_555 1_555
F26 B7 1_555 1_555
F27 B7 1_555 1_555
F28 B7 1_555 1_555
B8 F29 1_555 1_555
F30 B8 1_555 1_555
F31 B8 1_555 1_555
F32 B8 1_555 1_555
B9 F33 1_555 1_555
F34 B9 1_555 1_555
F35 B9 1_555 1_555
F36 B9 1_555 1_555
F37 B10 1_555 1_555
F38 B10 1_555 1_555
F39 B10 1_555 1_555
F40 B10 1_555 1_555
F41 B11 1_555 1_555
F42 B11 1_555 1_555
F43 B11 1_555 1_555
F44 B11 1_555 1_555
N57 C305 1_555 1_555
C305 C306 1_555 1_555
C306 H241 1_555 1_555
H242 C306 1_555 1_555
H243 C306 1_555 1_555
O1 C307 1_555 1_555
C307 H244 1_555 1_555
H245 C307 1_555 1_555
C308 C307 1_555 1_555
H246 C308 1_555 1_555
H247 C308 1_555 1_555
H248 C308 1_555 1_555
C309 O1 1_555 1_555
H249 C309 1_555 1_555
H250 C309 1_555 1_555
C310 C309 1_555 1_555
H251 C310 1_555 1_555
H252 C310 1_555 1_555
H253 C310 1_555 1_555
N58 C311 1_555 1_555
C311 C312 1_555 1_555
C312 H254 1_555 1_555
H255 C312 1_555 1_555
H256 C312 1_555 1_555
N59 C314 1_555 1_555
C313 H257 1_555 1_555
H258 C313 1_555 1_555
H259 C313 1_555 1_555
C314 C313 1_555 1_555
N60 C315 1_555 1_555
C315 C316 1_555 1_555
C316 H260 1_555 1_555
H261 C316 1_555 1_555
H262 C316 1_555 1_555
C4 C5 1_555 1_555
C7 N12 1_555 1_555
C11 C12 1_555 1_555
C17 C18 1_555 1_555
C19 N13 1_555 1_555
C23 C24 1_555 1_555
N3 Fe1 1_555 1_555
C28 C29 1_555 1_555
C31 N14 1_555 1_555
C35 C36 1_555 1_555
C41 C42 1_555 1_555
C43 N15 1_555 1_555
C47 C48 1_555 1_555
C50 N16 1_555 1_555
C55 N17 1_555 1_555
C59 C60 1_555 1_555
C65 C66 1_555 1_555
C67 N18 1_555 1_555
C71 C72 1_555 1_555
N6 Fe2 1_555 1_555
C76 C77 1_555 1_555
C79 N19 1_555 1_555
C83 C84 1_555 1_555
C89 C90 1_555 1_555
C91 N20 1_555 1_555
N7 Fe3 1_555 1_555
C95 C96 1_555 1_555
N8 Fe2 1_555 1_555
C100 C101 1_555 1_555
C103 N21 1_555 1_555
C107 C108 1_555 1_555
C113 C114 1_555 1_555
C115 N22 1_555 1_555
N9 Fe4 1_555 1_555
C119 C120 1_555 1_555
N10 Fe3 1_555 1_555
C124 C125 1_555 1_555
C127 N23 1_555 1_555
C131 C132 1_555 1_555
C137 C138 1_555 1_555
C139 N24 1_555 1_555
N11 Fe4 1_555 1_555
C143 C144 1_555 1_555
N12 Fe1 1_555 1_555
N13 Fe2 1_555 1_555
N14 Fe1 1_555 1_555
N15 Fe3 1_555 1_555
N16 Fe1 1_555 1_555
N17 Fe1 1_555 1_555
N18 Fe4 1_555 1_555
N19 Fe2 1_555 1_555
N20 Fe3 1_555 1_555
N21 Fe2 1_555 1_555
N22 Fe4 1_555 1_555
N23 Fe3 1_555 1_555
N24 Fe4 1_555 1_555
C148 C149 1_555 1_555
C151 N37 1_555 1_555
C155 C156 1_555 1_555
C161 C162 1_555 1_555
C163 N38 1_555 1_555
C167 C168 1_555 1_555
N27 Fe5 1_555 1_555
C172 C173 1_555 1_555
C175 N39 1_555 1_555
C179 C180 1_555 1_555
C185 C186 1_555 1_555
C187 N40 1_555 1_555
C191 C192 1_555 1_555
N29 Fe5 1_555 1_555
C196 C197 1_555 1_555
C199 N41 1_555 1_555
C203 C204 1_555 1_555
C209 C210 1_555 1_555
C211 N42 1_555 1_555
C215 C216 1_555 1_555
N31 Fe6 1_555 1_555
C220 C221 1_555 1_555
C223 N43 1_555 1_555
C227 C228 1_555 1_555
C233 C234 1_555 1_555
C235 N44 1_555 1_555
N32 Fe7 1_555 1_555
C239 C240 1_555 1_555
N33 Fe6 1_555 1_555
C244 C245 1_555 1_555
C247 N45 1_555 1_555
C251 C252 1_555 1_555
C257 C258 1_555 1_555
C259 N46 1_555 1_555
N34 Fe8 1_555 1_555
C263 C264 1_555 1_555
N35 Fe7 1_555 1_555
C268 C269 1_555 1_555
C271 N47 1_555 1_555
C275 C276 1_555 1_555
C281 C282 1_555 1_555
C283 N48 1_555 1_555
N36 Fe8 1_555 1_555
C287 C288 1_555 1_555
N37 Fe5 1_555 1_555
N38 Fe6 1_555 1_555
N39 Fe5 1_555 1_555
N40 Fe7 1_555 1_555
N41 Fe5 1_555 1_555
N42 Fe8 1_555 1_555
N43 Fe6 1_555 1_555
N44 Fe7 1_555 1_555
N45 Fe6 1_555 1_555
N46 Fe8 1_555 1_555
N47 Fe7 1_555 1_555
N48 Fe8 1_555 1_555

#END
