# generated using pymatgen
data_Fe4H114C155S7I4N27O19F21
_symmetry_space_group_name_H-M   'P 1'
_cell_length_a   18.27600000
_cell_length_b   34.74000000
_cell_length_c   53.69000000
_cell_angle_alpha   95.75700000
_cell_angle_beta   90.00000000
_cell_angle_gamma   90.00000000
_symmetry_Int_Tables_number   1
_chemical_formula_structural   Fe4H114C155S7I4N27O19F21
_chemical_formula_sum   'Fe32 H912 C1240 S56 I32 N216 O152 F168'
_cell_volume   33916.29162912
_cell_formula_units_Z   8
loop_
 _symmetry_equiv_pos_site_id
 _symmetry_equiv_pos_as_xyz
  1  'x, y, z'
loop_
 _atom_site_type_symbol
 _atom_site_label
 _atom_site_symmetry_multiplicity
 _atom_site_fract_x
 _atom_site_fract_y
 _atom_site_fract_z
 _atom_site_occupancy
  Fe  Fe1  1  0.678380  0.133370  0.083271  1
  Fe  Fe2  1  0.678380  0.866630  0.416729  1
  Fe  Fe3  1  0.178380  0.633370  0.083271  1
  Fe  Fe4  1  0.178380  0.366630  0.416729  1
  Fe  Fe5  1  0.321620  0.866630  0.916729  1
  Fe  Fe6  1  0.321620  0.133370  0.583271  1
  Fe  Fe7  1  0.821620  0.366630  0.916729  1
  Fe  Fe8  1  0.821620  0.633370  0.583271  1
  Fe  Fe9  1  0.301260  0.259410  0.266336  1
  Fe  Fe10  1  0.301260  0.740590  0.233664  1
  Fe  Fe11  1  0.801260  0.759410  0.266336  1
  Fe  Fe12  1  0.801260  0.240590  0.233664  1
  Fe  Fe13  1  0.698740  0.740590  0.733664  1
  Fe  Fe14  1  0.698740  0.259410  0.766336  1
  Fe  Fe15  1  0.198740  0.240590  0.733664  1
  Fe  Fe16  1  0.198740  0.759410  0.766336  1
  Fe  Fe17  1  0.065180  0.290960  0.048349  1
  Fe  Fe18  1  0.065180  0.709040  0.451651  1
  Fe  Fe19  1  0.565180  0.790960  0.048349  1
  Fe  Fe20  1  0.565180  0.209040  0.451651  1
  Fe  Fe21  1  0.934820  0.709040  0.951651  1
  Fe  Fe22  1  0.934820  0.290960  0.548349  1
  Fe  Fe23  1  0.434820  0.209040  0.951651  1
  Fe  Fe24  1  0.434820  0.790960  0.548349  1
  Fe  Fe25  1  0.094270  0.964620  0.135340  1
  Fe  Fe26  1  0.094270  0.035380  0.364660  1
  Fe  Fe27  1  0.594270  0.464620  0.135340  1
  Fe  Fe28  1  0.594270  0.535380  0.364660  1
  Fe  Fe29  1  0.905730  0.035380  0.864660  1
  Fe  Fe30  1  0.905730  0.964620  0.635340  1
  Fe  Fe31  1  0.405730  0.535380  0.864660  1
  Fe  Fe32  1  0.405730  0.464620  0.635340  1
  H  H33  1  0.461500  0.414700  0.264200  1
  H  H34  1  0.461500  0.585300  0.235800  1
  H  H35  1  0.961500  0.914700  0.264200  1
  H  H36  1  0.961500  0.085300  0.235800  1
  H  H37  1  0.538500  0.585300  0.735800  1
  H  H38  1  0.538500  0.414700  0.764200  1
  H  H39  1  0.038500  0.085300  0.735800  1
  H  H40  1  0.038500  0.914700  0.764200  1
  H  H41  1  0.532400  0.415100  0.281600  1
  H  H42  1  0.532400  0.584900  0.218400  1
  H  H43  1  0.032400  0.915100  0.281600  1
  H  H44  1  0.032400  0.084900  0.218400  1
  H  H45  1  0.467600  0.584900  0.718400  1
  H  H46  1  0.467600  0.415100  0.781600  1
  H  H47  1  0.967600  0.084900  0.718400  1
  H  H48  1  0.967600  0.915100  0.781600  1
  H  H49  1  0.457000  0.397800  0.290800  1
  H  H50  1  0.457000  0.602200  0.209200  1
  H  H51  1  0.957000  0.897800  0.290800  1
  H  H52  1  0.957000  0.102200  0.209200  1
  H  H53  1  0.543000  0.602200  0.709200  1
  H  H54  1  0.543000  0.397800  0.790800  1
  H  H55  1  0.043000  0.102200  0.709200  1
  H  H56  1  0.043000  0.897800  0.790800  1
  H  H57  1  0.912000  0.173700  0.374200  1
  H  H58  1  0.912000  0.826300  0.125800  1
  H  H59  1  0.412000  0.673700  0.374200  1
  H  H60  1  0.412000  0.326300  0.125800  1
  H  H61  1  0.088000  0.826300  0.625800  1
  H  H62  1  0.088000  0.173700  0.874200  1
  H  H63  1  0.588000  0.326300  0.625800  1
  H  H64  1  0.588000  0.673700  0.874200  1
  H  H65  1  0.895200  0.217800  0.384300  1
  H  H66  1  0.895200  0.782200  0.115700  1
  H  H67  1  0.395200  0.717800  0.384300  1
  H  H68  1  0.395200  0.282200  0.115700  1
  H  H69  1  0.104800  0.782200  0.615700  1
  H  H70  1  0.104800  0.217800  0.884300  1
  H  H71  1  0.604800  0.282200  0.615700  1
  H  H72  1  0.604800  0.717800  0.884300  1
  H  H73  1  0.926500  0.188700  0.403000  1
  H  H74  1  0.926500  0.811300  0.097000  1
  H  H75  1  0.426500  0.688700  0.403000  1
  H  H76  1  0.426500  0.311300  0.097000  1
  H  H77  1  0.073500  0.811300  0.597000  1
  H  H78  1  0.073500  0.188700  0.903000  1
  H  H79  1  0.573500  0.311300  0.597000  1
  H  H80  1  0.573500  0.688700  0.903000  1
  H  H81  1  0.772000  0.082500  0.044800  1
  H  H82  1  0.772000  0.917500  0.455200  1
  H  H83  1  0.272000  0.582500  0.044800  1
  H  H84  1  0.272000  0.417500  0.455200  1
  H  H85  1  0.228000  0.917500  0.955200  1
  H  H86  1  0.228000  0.082500  0.544800  1
  H  H87  1  0.728000  0.417500  0.955200  1
  H  H88  1  0.728000  0.582500  0.544800  1
  H  H89  1  0.847500  0.029500  0.047000  1
  H  H90  1  0.847500  0.970500  0.453000  1
  H  H91  1  0.347500  0.529500  0.047000  1
  H  H92  1  0.347500  0.470500  0.453000  1
  H  H93  1  0.152500  0.970500  0.953000  1
  H  H94  1  0.152500  0.029500  0.547000  1
  H  H95  1  0.652500  0.470500  0.953000  1
  H  H96  1  0.652500  0.529500  0.547000  1
  H  H97  1  0.844100  0.996500  0.082900  1
  H  H98  1  0.844100  0.003500  0.417100  1
  H  H99  1  0.344100  0.496500  0.082900  1
  H  H100  1  0.344100  0.503500  0.417100  1
  H  H101  1  0.155900  0.003500  0.917100  1
  H  H102  1  0.155900  0.996500  0.582900  1
  H  H103  1  0.655900  0.503500  0.917100  1
  H  H104  1  0.655900  0.496500  0.582900  1
  H  H105  1  0.776000  0.020300  0.117300  1
  H  H106  1  0.776000  0.979700  0.382700  1
  H  H107  1  0.276000  0.520300  0.117300  1
  H  H108  1  0.276000  0.479700  0.382700  1
  H  H109  1  0.224000  0.979700  0.882700  1
  H  H110  1  0.224000  0.020300  0.617300  1
  H  H111  1  0.724000  0.479700  0.882700  1
  H  H112  1  0.724000  0.520300  0.617300  1
  H  H113  1  0.691200  0.075600  0.137500  1
  H  H114  1  0.691200  0.924400  0.362500  1
  H  H115  1  0.191200  0.575600  0.137500  1
  H  H116  1  0.191200  0.424400  0.362500  1
  H  H117  1  0.308800  0.924400  0.862500  1
  H  H118  1  0.308800  0.075600  0.637500  1
  H  H119  1  0.808800  0.424400  0.862500  1
  H  H120  1  0.808800  0.575600  0.637500  1
  H  H121  1  0.694400  0.175900  0.147200  1
  H  H122  1  0.694400  0.824100  0.352800  1
  H  H123  1  0.194400  0.675900  0.147200  1
  H  H124  1  0.194400  0.324100  0.352800  1
  H  H125  1  0.305600  0.824100  0.852800  1
  H  H126  1  0.305600  0.175900  0.647200  1
  H  H127  1  0.805600  0.324100  0.852800  1
  H  H128  1  0.805600  0.675900  0.647200  1
  H  H129  1  0.625300  0.210800  0.176100  1
  H  H130  1  0.625300  0.789200  0.323900  1
  H  H131  1  0.125300  0.710800  0.176100  1
  H  H132  1  0.125300  0.289200  0.323900  1
  H  H133  1  0.374700  0.789200  0.823900  1
  H  H134  1  0.374700  0.210800  0.676100  1
  H  H135  1  0.874700  0.289200  0.823900  1
  H  H136  1  0.874700  0.710800  0.676100  1
  H  H137  1  0.451900  0.141800  0.159400  1
  H  H138  1  0.451900  0.858200  0.340600  1
  H  H139  1  0.951900  0.641800  0.159400  1
  H  H140  1  0.951900  0.358200  0.340600  1
  H  H141  1  0.548100  0.858200  0.840600  1
  H  H142  1  0.548100  0.141800  0.659400  1
  H  H143  1  0.048100  0.358200  0.840600  1
  H  H144  1  0.048100  0.641800  0.659400  1
  H  H145  1  0.523900  0.103800  0.131000  1
  H  H146  1  0.523900  0.896200  0.369000  1
  H  H147  1  0.023900  0.603800  0.131000  1
  H  H148  1  0.023900  0.396200  0.369000  1
  H  H149  1  0.476100  0.896200  0.869000  1
  H  H150  1  0.476100  0.103800  0.631000  1
  H  H151  1  0.976100  0.396200  0.869000  1
  H  H152  1  0.976100  0.603800  0.631000  1
  H  H153  1  0.547400  0.199400  0.218900  1
  H  H154  1  0.547400  0.800600  0.281100  1
  H  H155  1  0.047400  0.699400  0.218900  1
  H  H156  1  0.047400  0.300600  0.281100  1
  H  H157  1  0.452600  0.800600  0.781100  1
  H  H158  1  0.452600  0.199400  0.718900  1
  H  H159  1  0.952600  0.300600  0.781100  1
  H  H160  1  0.952600  0.699400  0.718900  1
  H  H161  1  0.477600  0.240900  0.247500  1
  H  H162  1  0.477600  0.759100  0.252500  1
  H  H163  1  0.977600  0.740900  0.247500  1
  H  H164  1  0.977600  0.259100  0.252500  1
  H  H165  1  0.522400  0.759100  0.752500  1
  H  H166  1  0.522400  0.240900  0.747500  1
  H  H167  1  0.022400  0.259100  0.752500  1
  H  H168  1  0.022400  0.740900  0.747500  1
  H  H169  1  0.345200  0.266000  0.191000  1
  H  H170  1  0.345200  0.734000  0.309000  1
  H  H171  1  0.845200  0.766000  0.191000  1
  H  H172  1  0.845200  0.234000  0.309000  1
  H  H173  1  0.654800  0.734000  0.809000  1
  H  H174  1  0.654800  0.266000  0.691000  1
  H  H175  1  0.154800  0.234000  0.809000  1
  H  H176  1  0.154800  0.766000  0.691000  1
  H  H177  1  0.412300  0.222600  0.162800  1
  H  H178  1  0.412300  0.777400  0.337200  1
  H  H179  1  0.912300  0.722600  0.162800  1
  H  H180  1  0.912300  0.277400  0.337200  1
  H  H181  1  0.587700  0.777400  0.837200  1
  H  H182  1  0.587700  0.222600  0.662800  1
  H  H183  1  0.087700  0.277400  0.837200  1
  H  H184  1  0.087700  0.722600  0.662800  1
  H  H185  1  0.376200  0.326500  0.223800  1
  H  H186  1  0.376200  0.673500  0.276200  1
  H  H187  1  0.876200  0.826500  0.223800  1
  H  H188  1  0.876200  0.173500  0.276200  1
  H  H189  1  0.623800  0.673500  0.776200  1
  H  H190  1  0.623800  0.326500  0.723800  1
  H  H191  1  0.123800  0.173500  0.776200  1
  H  H192  1  0.123800  0.826500  0.723800  1
  H  H193  1  0.203000  0.315500  0.299800  1
  H  H194  1  0.203000  0.684500  0.200200  1
  H  H195  1  0.703000  0.815500  0.299800  1
  H  H196  1  0.703000  0.184500  0.200200  1
  H  H197  1  0.797000  0.684500  0.700200  1
  H  H198  1  0.797000  0.315500  0.799800  1
  H  H199  1  0.297000  0.184500  0.700200  1
  H  H200  1  0.297000  0.815500  0.799800  1
  H  H201  1  0.177300  0.380800  0.301900  1
  H  H202  1  0.177300  0.619200  0.198100  1
  H  H203  1  0.677300  0.880800  0.301900  1
  H  H204  1  0.677300  0.119200  0.198100  1
  H  H205  1  0.822700  0.619200  0.698100  1
  H  H206  1  0.822700  0.380800  0.801900  1
  H  H207  1  0.322700  0.119200  0.698100  1
  H  H208  1  0.322700  0.880800  0.801900  1
  H  H209  1  0.228300  0.418800  0.274000  1
  H  H210  1  0.228300  0.581200  0.226000  1
  H  H211  1  0.728300  0.918800  0.274000  1
  H  H212  1  0.728300  0.081200  0.226000  1
  H  H213  1  0.771700  0.581200  0.726000  1
  H  H214  1  0.771700  0.418800  0.774000  1
  H  H215  1  0.271700  0.081200  0.726000  1
  H  H216  1  0.271700  0.918800  0.774000  1
  H  H217  1  0.308600  0.389000  0.242200  1
  H  H218  1  0.308600  0.611000  0.257800  1
  H  H219  1  0.808600  0.889000  0.242200  1
  H  H220  1  0.808600  0.111000  0.257800  1
  H  H221  1  0.691400  0.611000  0.757800  1
  H  H222  1  0.691400  0.389000  0.742200  1
  H  H223  1  0.191400  0.111000  0.757800  1
  H  H224  1  0.191400  0.889000  0.742200  1
  H  H225  1  0.837400  0.127200  0.103800  1
  H  H226  1  0.837400  0.872800  0.396200  1
  H  H227  1  0.337400  0.627200  0.103800  1
  H  H228  1  0.337400  0.372800  0.396200  1
  H  H229  1  0.162600  0.872800  0.896200  1
  H  H230  1  0.162600  0.127200  0.603800  1
  H  H231  1  0.662600  0.372800  0.896200  1
  H  H232  1  0.662600  0.627200  0.603800  1
  H  H233  1  0.920400  0.168600  0.124100  1
  H  H234  1  0.920400  0.831400  0.375900  1
  H  H235  1  0.420400  0.668600  0.124100  1
  H  H236  1  0.420400  0.331400  0.375900  1
  H  H237  1  0.079600  0.831400  0.875900  1
  H  H238  1  0.079600  0.168600  0.624100  1
  H  H239  1  0.579600  0.331400  0.875900  1
  H  H240  1  0.579600  0.668600  0.624100  1
  H  H241  1  0.894300  0.233400  0.132000  1
  H  H242  1  0.894300  0.766600  0.368000  1
  H  H243  1  0.394300  0.733400  0.132000  1
  H  H244  1  0.394300  0.266600  0.368000  1
  H  H245  1  0.105700  0.766600  0.868000  1
  H  H246  1  0.105700  0.233400  0.632000  1
  H  H247  1  0.605700  0.266600  0.868000  1
  H  H248  1  0.605700  0.733400  0.632000  1
  H  H249  1  0.780400  0.256100  0.117600  1
  H  H250  1  0.780400  0.743900  0.382400  1
  H  H251  1  0.280400  0.756100  0.117600  1
  H  H252  1  0.280400  0.243900  0.382400  1
  H  H253  1  0.219600  0.743900  0.882400  1
  H  H254  1  0.219600  0.256100  0.617600  1
  H  H255  1  0.719600  0.243900  0.882400  1
  H  H256  1  0.719600  0.756100  0.617600  1
  H  H257  1  0.655100  0.239000  0.097200  1
  H  H258  1  0.655100  0.761000  0.402800  1
  H  H259  1  0.155100  0.739000  0.097200  1
  H  H260  1  0.155100  0.261000  0.402800  1
  H  H261  1  0.344900  0.761000  0.902800  1
  H  H262  1  0.344900  0.239000  0.597200  1
  H  H263  1  0.844900  0.261000  0.902800  1
  H  H264  1  0.844900  0.739000  0.597200  1
  H  H265  1  0.590000  0.220700  0.050700  1
  H  H266  1  0.590000  0.779300  0.449300  1
  H  H267  1  0.090000  0.720700  0.050700  1
  H  H268  1  0.090000  0.279300  0.449300  1
  H  H269  1  0.410000  0.779300  0.949300  1
  H  H270  1  0.410000  0.220700  0.550700  1
  H  H271  1  0.910000  0.279300  0.949300  1
  H  H272  1  0.910000  0.720700  0.550700  1
  H  H273  1  0.471300  0.234100  0.037800  1
  H  H274  1  0.471300  0.765900  0.462200  1
  H  H275  1  0.971300  0.734100  0.037800  1
  H  H276  1  0.971300  0.265900  0.462200  1
  H  H277  1  0.528700  0.765900  0.962200  1
  H  H278  1  0.528700  0.234100  0.537800  1
  H  H279  1  0.028700  0.265900  0.962200  1
  H  H280  1  0.028700  0.734100  0.537800  1
  H  H281  1  0.390800  0.195200  0.100300  1
  H  H282  1  0.390800  0.804800  0.399700  1
  H  H283  1  0.890800  0.695200  0.100300  1
  H  H284  1  0.890800  0.304800  0.399700  1
  H  H285  1  0.609200  0.804800  0.899700  1
  H  H286  1  0.609200  0.195200  0.600300  1
  H  H287  1  0.109200  0.304800  0.899700  1
  H  H288  1  0.109200  0.695200  0.600300  1
  H  H289  1  0.506800  0.176100  0.111200  1
  H  H290  1  0.506800  0.823900  0.388800  1
  H  H291  1  0.006800  0.676100  0.111200  1
  H  H292  1  0.006800  0.323900  0.388800  1
  H  H293  1  0.493200  0.823900  0.888800  1
  H  H294  1  0.493200  0.176100  0.611200  1
  H  H295  1  0.993200  0.323900  0.888800  1
  H  H296  1  0.993200  0.676100  0.611200  1
  H  H297  1  0.291500  0.179700  0.075600  1
  H  H298  1  0.291500  0.820300  0.424400  1
  H  H299  1  0.791500  0.679700  0.075600  1
  H  H300  1  0.791500  0.320300  0.424400  1
  H  H301  1  0.708500  0.820300  0.924400  1
  H  H302  1  0.708500  0.179700  0.575600  1
  H  H303  1  0.208500  0.320300  0.924400  1
  H  H304  1  0.208500  0.679700  0.575600  1
  H  H305  1  0.173600  0.191600  0.061500  1
  H  H306  1  0.173600  0.808400  0.438500  1
  H  H307  1  0.673600  0.691600  0.061500  1
  H  H308  1  0.673600  0.308400  0.438500  1
  H  H309  1  0.826400  0.808400  0.938500  1
  H  H310  1  0.826400  0.191600  0.561500  1
  H  H311  1  0.326400  0.308400  0.938500  1
  H  H312  1  0.326400  0.691600  0.561500  1
  H  H313  1  0.248500  0.280900  0.026700  1
  H  H314  1  0.248500  0.719100  0.473300  1
  H  H315  1  0.748500  0.780900  0.026700  1
  H  H316  1  0.748500  0.219100  0.473300  1
  H  H317  1  0.751500  0.719100  0.973300  1
  H  H318  1  0.751500  0.280900  0.526700  1
  H  H319  1  0.251500  0.219100  0.973300  1
  H  H320  1  0.251500  0.780900  0.526700  1
  H  H321  1  0.367600  0.270200  0.040500  1
  H  H322  1  0.367600  0.729800  0.459500  1
  H  H323  1  0.867600  0.770200  0.040500  1
  H  H324  1  0.867600  0.229800  0.459500  1
  H  H325  1  0.632400  0.729800  0.959500  1
  H  H326  1  0.632400  0.270200  0.540500  1
  H  H327  1  0.132400  0.229800  0.959500  1
  H  H328  1  0.132400  0.770200  0.540500  1
  H  H329  1  0.123600  0.199700  0.013300  1
  H  H330  1  0.123600  0.800300  0.486700  1
  H  H331  1  0.623600  0.699700  0.013300  1
  H  H332  1  0.623600  0.300300  0.486700  1
  H  H333  1  0.876400  0.800300  0.986700  1
  H  H334  1  0.876400  0.199700  0.513300  1
  H  H335  1  0.376400  0.300300  0.986700  1
  H  H336  1  0.376400  0.699700  0.513300  1
  H  H337  1  0.913300  0.299800  0.023600  1
  H  H338  1  0.913300  0.700200  0.476400  1
  H  H339  1  0.413300  0.799800  0.023600  1
  H  H340  1  0.413300  0.200200  0.476400  1
  H  H341  1  0.086700  0.700200  0.976400  1
  H  H342  1  0.086700  0.299800  0.523600  1
  H  H343  1  0.586700  0.200200  0.976400  1
  H  H344  1  0.586700  0.799800  0.523600  1
  H  H345  1  0.842800  0.262300  0.994200  1
  H  H346  1  0.842800  0.737700  0.505800  1
  H  H347  1  0.342800  0.762300  0.994200  1
  H  H348  1  0.342800  0.237700  0.505800  1
  H  H349  1  0.157200  0.737700  0.005800  1
  H  H350  1  0.157200  0.262300  0.494200  1
  H  H351  1  0.657200  0.237700  0.005800  1
  H  H352  1  0.657200  0.762300  0.494200  1
  H  H353  1  0.888600  0.204000  0.974800  1
  H  H354  1  0.888600  0.796000  0.525200  1
  H  H355  1  0.388600  0.704000  0.974800  1
  H  H356  1  0.388600  0.296000  0.525200  1
  H  H357  1  0.111400  0.796000  0.025200  1
  H  H358  1  0.111400  0.204000  0.474800  1
  H  H359  1  0.611400  0.296000  0.025200  1
  H  H360  1  0.611400  0.704000  0.474800  1
  H  H361  1  0.006800  0.183100  0.986900  1
  H  H362  1  0.006800  0.816900  0.513100  1
  H  H363  1  0.506800  0.683100  0.986900  1
  H  H364  1  0.506800  0.316900  0.513100  1
  H  H365  1  0.993200  0.816900  0.013100  1
  H  H366  1  0.993200  0.183100  0.486900  1
  H  H367  1  0.493200  0.316900  0.013100  1
  H  H368  1  0.493200  0.683100  0.486900  1
  H  H369  1  0.787200  0.176800  0.051000  1
  H  H370  1  0.787200  0.823200  0.449000  1
  H  H371  1  0.287200  0.676800  0.051000  1
  H  H372  1  0.287200  0.323200  0.449000  1
  H  H373  1  0.212800  0.823200  0.949000  1
  H  H374  1  0.212800  0.176800  0.551000  1
  H  H375  1  0.712800  0.323200  0.949000  1
  H  H376  1  0.712800  0.676800  0.551000  1
  H  H377  1  0.793800  0.186200  0.009000  1
  H  H378  1  0.793800  0.813800  0.491000  1
  H  H379  1  0.293800  0.686200  0.009000  1
  H  H380  1  0.293800  0.313800  0.491000  1
  H  H381  1  0.206200  0.813800  0.991000  1
  H  H382  1  0.206200  0.186200  0.509000  1
  H  H383  1  0.706200  0.313800  0.991000  1
  H  H384  1  0.706200  0.686200  0.509000  1
  H  H385  1  0.708500  0.158300  0.980300  1
  H  H386  1  0.708500  0.841700  0.519700  1
  H  H387  1  0.208500  0.658300  0.980300  1
  H  H388  1  0.208500  0.341700  0.519700  1
  H  H389  1  0.291500  0.841700  0.019700  1
  H  H390  1  0.291500  0.158300  0.480300  1
  H  H391  1  0.791500  0.341700  0.019700  1
  H  H392  1  0.791500  0.658300  0.480300  1
  H  H393  1  0.615200  0.121400  0.995700  1
  H  H394  1  0.615200  0.878600  0.504300  1
  H  H395  1  0.115200  0.621400  0.995700  1
  H  H396  1  0.115200  0.378600  0.504300  1
  H  H397  1  0.384800  0.878600  0.004300  1
  H  H398  1  0.384800  0.121400  0.495700  1
  H  H399  1  0.884800  0.378600  0.004300  1
  H  H400  1  0.884800  0.621400  0.495700  1
  H  H401  1  0.554400  0.095000  0.032500  1
  H  H402  1  0.554400  0.905000  0.467500  1
  H  H403  1  0.054400  0.595000  0.032500  1
  H  H404  1  0.054400  0.405000  0.467500  1
  H  H405  1  0.445600  0.905000  0.967500  1
  H  H406  1  0.445600  0.095000  0.532500  1
  H  H407  1  0.945600  0.405000  0.967500  1
  H  H408  1  0.945600  0.595000  0.532500  1
  H  H409  1  0.455100  0.119500  0.070500  1
  H  H410  1  0.455100  0.880500  0.429500  1
  H  H411  1  0.955100  0.619500  0.070500  1
  H  H412  1  0.955100  0.380500  0.429500  1
  H  H413  1  0.544900  0.880500  0.929500  1
  H  H414  1  0.544900  0.119500  0.570500  1
  H  H415  1  0.044900  0.380500  0.929500  1
  H  H416  1  0.044900  0.619500  0.570500  1
  H  H417  1  0.365900  0.086600  0.091700  1
  H  H418  1  0.365900  0.913400  0.408300  1
  H  H419  1  0.865900  0.586600  0.091700  1
  H  H420  1  0.865900  0.413400  0.408300  1
  H  H421  1  0.634100  0.913400  0.908300  1
  H  H422  1  0.634100  0.086600  0.591700  1
  H  H423  1  0.134100  0.413400  0.908300  1
  H  H424  1  0.134100  0.586600  0.591700  1
  H  H425  1  0.514400  0.006100  0.106100  1
  H  H426  1  0.514400  0.993900  0.393900  1
  H  H427  1  0.014400  0.506100  0.106100  1
  H  H428  1  0.014400  0.493900  0.393900  1
  H  H429  1  0.485600  0.993900  0.893900  1
  H  H430  1  0.485600  0.006100  0.606100  1
  H  H431  1  0.985600  0.493900  0.893900  1
  H  H432  1  0.985600  0.506100  0.606100  1
  H  H433  1  0.604900  0.040800  0.087200  1
  H  H434  1  0.604900  0.959200  0.412800  1
  H  H435  1  0.104900  0.540800  0.087200  1
  H  H436  1  0.104900  0.459200  0.412800  1
  H  H437  1  0.395100  0.959200  0.912800  1
  H  H438  1  0.395100  0.040800  0.587200  1
  H  H439  1  0.895100  0.459200  0.912800  1
  H  H440  1  0.895100  0.540800  0.587200  1
  H  H441  1  0.322400  0.070100  0.129000  1
  H  H442  1  0.322400  0.929900  0.371000  1
  H  H443  1  0.822400  0.570100  0.129000  1
  H  H444  1  0.822400  0.429900  0.371000  1
  H  H445  1  0.677600  0.929900  0.871000  1
  H  H446  1  0.677600  0.070100  0.629000  1
  H  H447  1  0.177600  0.429900  0.871000  1
  H  H448  1  0.177600  0.570100  0.629000  1
  H  H449  1  0.228600  0.039900  0.147700  1
  H  H450  1  0.228600  0.960100  0.352300  1
  H  H451  1  0.728600  0.539900  0.147700  1
  H  H452  1  0.728600  0.460100  0.352300  1
  H  H453  1  0.771400  0.960100  0.852300  1
  H  H454  1  0.771400  0.039900  0.647700  1
  H  H455  1  0.271400  0.460100  0.852300  1
  H  H456  1  0.271400  0.539900  0.647700  1
  H  H457  1  0.311500  0.935600  0.120000  1
  H  H458  1  0.311500  0.064400  0.380000  1
  H  H459  1  0.811500  0.435600  0.120000  1
  H  H460  1  0.811500  0.564400  0.380000  1
  H  H461  1  0.688500  0.064400  0.880000  1
  H  H462  1  0.688500  0.935600  0.620000  1
  H  H463  1  0.188500  0.564400  0.880000  1
  H  H464  1  0.188500  0.435600  0.620000  1
  H  H465  1  0.407900  0.967500  0.103400  1
  H  H466  1  0.407900  0.032500  0.396600  1
  H  H467  1  0.907900  0.467500  0.103400  1
  H  H468  1  0.907900  0.532500  0.396600  1
  H  H469  1  0.592100  0.032500  0.896600  1
  H  H470  1  0.592100  0.967500  0.603400  1
  H  H471  1  0.092100  0.532500  0.896600  1
  H  H472  1  0.092100  0.467500  0.603400  1
  H  H473  1  0.263700  0.937500  0.165400  1
  H  H474  1  0.263700  0.062500  0.334600  1
  H  H475  1  0.763700  0.437500  0.165400  1
  H  H476  1  0.763700  0.562500  0.334600  1
  H  H477  1  0.736300  0.062500  0.834600  1
  H  H478  1  0.736300  0.937500  0.665400  1
  H  H479  1  0.236300  0.562500  0.834600  1
  H  H480  1  0.236300  0.437500  0.665400  1
  H  H481  1  0.982500  0.923300  0.167200  1
  H  H482  1  0.982500  0.076700  0.332800  1
  H  H483  1  0.482500  0.423300  0.167200  1
  H  H484  1  0.482500  0.576700  0.332800  1
  H  H485  1  0.017500  0.076700  0.832800  1
  H  H486  1  0.017500  0.923300  0.667200  1
  H  H487  1  0.517500  0.576700  0.832800  1
  H  H488  1  0.517500  0.423300  0.667200  1
  H  H489  1  0.992600  0.881600  0.199300  1
  H  H490  1  0.992600  0.118400  0.300700  1
  H  H491  1  0.492600  0.381600  0.199300  1
  H  H492  1  0.492600  0.618400  0.300700  1
  H  H493  1  0.007400  0.118400  0.800700  1
  H  H494  1  0.007400  0.881600  0.699300  1
  H  H495  1  0.507400  0.618400  0.800700  1
  H  H496  1  0.507400  0.381600  0.699300  1
  H  H497  1  0.105200  0.870000  0.215500  1
  H  H498  1  0.105200  0.130000  0.284500  1
  H  H499  1  0.605200  0.370000  0.215500  1
  H  H500  1  0.605200  0.630000  0.284500  1
  H  H501  1  0.894800  0.130000  0.784500  1
  H  H502  1  0.894800  0.870000  0.715500  1
  H  H503  1  0.394800  0.630000  0.784500  1
  H  H504  1  0.394800  0.370000  0.715500  1
  H  H505  1  0.210600  0.892400  0.197500  1
  H  H506  1  0.210600  0.107600  0.302500  1
  H  H507  1  0.710600  0.392400  0.197500  1
  H  H508  1  0.710600  0.607600  0.302500  1
  H  H509  1  0.789400  0.107600  0.802500  1
  H  H510  1  0.789400  0.892400  0.697500  1
  H  H511  1  0.289400  0.607600  0.802500  1
  H  H512  1  0.289400  0.392400  0.697500  1
  H  H513  1  0.292800  0.244200  0.322600  1
  H  H514  1  0.292800  0.755800  0.177400  1
  H  H515  1  0.792800  0.744200  0.322600  1
  H  H516  1  0.792800  0.255800  0.177400  1
  H  H517  1  0.707200  0.755800  0.677400  1
  H  H518  1  0.707200  0.244200  0.822600  1
  H  H519  1  0.207200  0.255800  0.677400  1
  H  H520  1  0.207200  0.744200  0.822600  1
  H  H521  1  0.207300  0.214700  0.347400  1
  H  H522  1  0.207300  0.785300  0.152600  1
  H  H523  1  0.707300  0.714700  0.347400  1
  H  H524  1  0.707300  0.285300  0.152600  1
  H  H525  1  0.792700  0.785300  0.652600  1
  H  H526  1  0.792700  0.214700  0.847400  1
  H  H527  1  0.292700  0.285300  0.652600  1
  H  H528  1  0.292700  0.714700  0.847400  1
  H  H529  1  0.094700  0.194900  0.330000  1
  H  H530  1  0.094700  0.805100  0.170000  1
  H  H531  1  0.594700  0.694900  0.330000  1
  H  H532  1  0.594700  0.305100  0.170000  1
  H  H533  1  0.905300  0.805100  0.670000  1
  H  H534  1  0.905300  0.194900  0.830000  1
  H  H535  1  0.405300  0.305100  0.670000  1
  H  H536  1  0.405300  0.694900  0.830000  1
  H  H537  1  0.070100  0.204200  0.288400  1
  H  H538  1  0.070100  0.795800  0.211600  1
  H  H539  1  0.570100  0.704200  0.288400  1
  H  H540  1  0.570100  0.295800  0.211600  1
  H  H541  1  0.929900  0.795800  0.711600  1
  H  H542  1  0.929900  0.204200  0.788400  1
  H  H543  1  0.429900  0.295800  0.711600  1
  H  H544  1  0.429900  0.704200  0.788400  1
  H  H545  1  0.114200  0.228300  0.247100  1
  H  H546  1  0.114200  0.771700  0.252900  1
  H  H547  1  0.614200  0.728300  0.247100  1
  H  H548  1  0.614200  0.271700  0.252900  1
  H  H549  1  0.885800  0.771700  0.752900  1
  H  H550  1  0.885800  0.228300  0.747100  1
  H  H551  1  0.385800  0.271700  0.752900  1
  H  H552  1  0.385800  0.728300  0.747100  1
  H  H553  1  0.219500  0.205800  0.202300  1
  H  H554  1  0.219500  0.794200  0.297700  1
  H  H555  1  0.719500  0.705800  0.202300  1
  H  H556  1  0.719500  0.294200  0.297700  1
  H  H557  1  0.780500  0.794200  0.797700  1
  H  H558  1  0.780500  0.205800  0.702300  1
  H  H559  1  0.280500  0.294200  0.797700  1
  H  H560  1  0.280500  0.705800  0.702300  1
  H  H561  1  0.204900  0.223700  0.161900  1
  H  H562  1  0.204900  0.776300  0.338100  1
  H  H563  1  0.704900  0.723700  0.161900  1
  H  H564  1  0.704900  0.276300  0.338100  1
  H  H565  1  0.795100  0.776300  0.838100  1
  H  H566  1  0.795100  0.223700  0.661900  1
  H  H567  1  0.295100  0.276300  0.838100  1
  H  H568  1  0.295100  0.723700  0.661900  1
  H  H569  1  0.150200  0.331900  0.190700  1
  H  H570  1  0.150200  0.668100  0.309300  1
  H  H571  1  0.650200  0.831900  0.190700  1
  H  H572  1  0.650200  0.168100  0.309300  1
  H  H573  1  0.849800  0.668100  0.809300  1
  H  H574  1  0.849800  0.331900  0.690700  1
  H  H575  1  0.349800  0.168100  0.809300  1
  H  H576  1  0.349800  0.831900  0.690700  1
  H  H577  1  0.172900  0.314200  0.230700  1
  H  H578  1  0.172900  0.685800  0.269300  1
  H  H579  1  0.672900  0.814200  0.230700  1
  H  H580  1  0.672900  0.185800  0.269300  1
  H  H581  1  0.827100  0.685800  0.769300  1
  H  H582  1  0.827100  0.314200  0.730700  1
  H  H583  1  0.327100  0.185800  0.769300  1
  H  H584  1  0.327100  0.814200  0.730700  1
  H  H585  1  0.259300  0.263300  0.131800  1
  H  H586  1  0.259300  0.736700  0.368200  1
  H  H587  1  0.759300  0.763300  0.131800  1
  H  H588  1  0.759300  0.236700  0.368200  1
  H  H589  1  0.740700  0.736700  0.868200  1
  H  H590  1  0.740700  0.263300  0.631800  1
  H  H591  1  0.240700  0.236700  0.868200  1
  H  H592  1  0.240700  0.763300  0.631800  1
  H  H593  1  0.246000  0.278500  0.090600  1
  H  H594  1  0.246000  0.721500  0.409400  1
  H  H595  1  0.746000  0.778500  0.090600  1
  H  H596  1  0.746000  0.221500  0.409400  1
  H  H597  1  0.754000  0.721500  0.909400  1
  H  H598  1  0.754000  0.278500  0.590600  1
  H  H599  1  0.254000  0.221500  0.909400  1
  H  H600  1  0.254000  0.778500  0.590600  1
  H  H601  1  0.059000  0.336500  0.111500  1
  H  H602  1  0.059000  0.663500  0.388500  1
  H  H603  1  0.559000  0.836500  0.111500  1
  H  H604  1  0.559000  0.163500  0.388500  1
  H  H605  1  0.941000  0.663500  0.888500  1
  H  H606  1  0.941000  0.336500  0.611500  1
  H  H607  1  0.441000  0.163500  0.888500  1
  H  H608  1  0.441000  0.836500  0.611500  1
  H  H609  1  0.077400  0.322500  0.152100  1
  H  H610  1  0.077400  0.677500  0.347900  1
  H  H611  1  0.577400  0.822500  0.152100  1
  H  H612  1  0.577400  0.177500  0.347900  1
  H  H613  1  0.922600  0.677500  0.847900  1
  H  H614  1  0.922600  0.322500  0.652100  1
  H  H615  1  0.422600  0.177500  0.847900  1
  H  H616  1  0.422600  0.822500  0.652100  1
  H  H617  1  0.217100  0.354000  0.072300  1
  H  H618  1  0.217100  0.646000  0.427700  1
  H  H619  1  0.717100  0.854000  0.072300  1
  H  H620  1  0.717100  0.146000  0.427700  1
  H  H621  1  0.782900  0.646000  0.927700  1
  H  H622  1  0.782900  0.354000  0.572300  1
  H  H623  1  0.282900  0.146000  0.927700  1
  H  H624  1  0.282900  0.854000  0.572300  1
  H  H625  1  0.058900  0.312200  0.993700  1
  H  H626  1  0.058900  0.687800  0.506300  1
  H  H627  1  0.558900  0.812200  0.993700  1
  H  H628  1  0.558900  0.187800  0.506300  1
  H  H629  1  0.941100  0.687800  0.006300  1
  H  H630  1  0.941100  0.312200  0.493700  1
  H  H631  1  0.441100  0.187800  0.006300  1
  H  H632  1  0.441100  0.812200  0.493700  1
  H  H633  1  0.124300  0.352900  0.970500  1
  H  H634  1  0.124300  0.647100  0.529500  1
  H  H635  1  0.624300  0.852900  0.970500  1
  H  H636  1  0.624300  0.147100  0.529500  1
  H  H637  1  0.875700  0.647100  0.029500  1
  H  H638  1  0.875700  0.352900  0.470500  1
  H  H639  1  0.375700  0.147100  0.029500  1
  H  H640  1  0.375700  0.852900  0.470500  1
  H  H641  1  0.215800  0.393100  0.989800  1
  H  H642  1  0.215800  0.606900  0.510200  1
  H  H643  1  0.715800  0.893100  0.989800  1
  H  H644  1  0.715800  0.106900  0.510200  1
  H  H645  1  0.784200  0.606900  0.010200  1
  H  H646  1  0.784200  0.393100  0.489800  1
  H  H647  1  0.284200  0.106900  0.010200  1
  H  H648  1  0.284200  0.893100  0.489800  1
  H  H649  1  0.234300  0.393400  0.033700  1
  H  H650  1  0.234300  0.606600  0.466300  1
  H  H651  1  0.734300  0.893400  0.033700  1
  H  H652  1  0.734300  0.106600  0.466300  1
  H  H653  1  0.765700  0.606600  0.966300  1
  H  H654  1  0.765700  0.393400  0.533700  1
  H  H655  1  0.265700  0.106600  0.966300  1
  H  H656  1  0.265700  0.893400  0.533700  1
  H  H657  1  0.385700  0.322200  0.301000  1
  H  H658  1  0.385700  0.677800  0.199000  1
  H  H659  1  0.885700  0.822200  0.301000  1
  H  H660  1  0.885700  0.177800  0.199000  1
  H  H661  1  0.614300  0.677800  0.699000  1
  H  H662  1  0.614300  0.322200  0.801000  1
  H  H663  1  0.114300  0.177800  0.699000  1
  H  H664  1  0.114300  0.822200  0.801000  1
  H  H665  1  0.478700  0.322000  0.328600  1
  H  H666  1  0.478700  0.678000  0.171400  1
  H  H667  1  0.978700  0.822000  0.328600  1
  H  H668  1  0.978700  0.178000  0.171400  1
  H  H669  1  0.521300  0.678000  0.671400  1
  H  H670  1  0.521300  0.322000  0.828600  1
  H  H671  1  0.021300  0.178000  0.671400  1
  H  H672  1  0.021300  0.822000  0.828600  1
  H  H673  1  0.541200  0.266300  0.333800  1
  H  H674  1  0.541200  0.733700  0.166200  1
  H  H675  1  0.041200  0.766300  0.333800  1
  H  H676  1  0.041200  0.233700  0.166200  1
  H  H677  1  0.458800  0.733700  0.666200  1
  H  H678  1  0.458800  0.266300  0.833800  1
  H  H679  1  0.958800  0.233700  0.666200  1
  H  H680  1  0.958800  0.766300  0.833800  1
  H  H681  1  0.505300  0.207800  0.310800  1
  H  H682  1  0.505300  0.792200  0.189200  1
  H  H683  1  0.005300  0.707800  0.310800  1
  H  H684  1  0.005300  0.292200  0.189200  1
  H  H685  1  0.494700  0.792200  0.689200  1
  H  H686  1  0.494700  0.207800  0.810800  1
  H  H687  1  0.994700  0.292200  0.689200  1
  H  H688  1  0.994700  0.707800  0.810800  1
  H  H689  1  0.407900  0.174000  0.279300  1
  H  H690  1  0.407900  0.826000  0.220700  1
  H  H691  1  0.907900  0.674000  0.279300  1
  H  H692  1  0.907900  0.326000  0.220700  1
  H  H693  1  0.592100  0.826000  0.720700  1
  H  H694  1  0.592100  0.174000  0.779300  1
  H  H695  1  0.092100  0.326000  0.720700  1
  H  H696  1  0.092100  0.674000  0.779300  1
  H  H697  1  0.356500  0.184200  0.215300  1
  H  H698  1  0.356500  0.815800  0.284700  1
  H  H699  1  0.856500  0.684200  0.215300  1
  H  H700  1  0.856500  0.315800  0.284700  1
  H  H701  1  0.643500  0.815800  0.784700  1
  H  H702  1  0.643500  0.184200  0.715300  1
  H  H703  1  0.143500  0.315800  0.784700  1
  H  H704  1  0.143500  0.684200  0.715300  1
  H  H705  1  0.296600  0.134700  0.190300  1
  H  H706  1  0.296600  0.865300  0.309700  1
  H  H707  1  0.796600  0.634700  0.190300  1
  H  H708  1  0.796600  0.365300  0.309700  1
  H  H709  1  0.703400  0.865300  0.809700  1
  H  H710  1  0.703400  0.134700  0.690300  1
  H  H711  1  0.203400  0.365300  0.809700  1
  H  H712  1  0.203400  0.634700  0.690300  1
  H  H713  1  0.188500  0.105000  0.251300  1
  H  H714  1  0.188500  0.895000  0.248700  1
  H  H715  1  0.688500  0.605000  0.251300  1
  H  H716  1  0.688500  0.395000  0.248700  1
  H  H717  1  0.811500  0.895000  0.748700  1
  H  H718  1  0.811500  0.105000  0.751300  1
  H  H719  1  0.311500  0.395000  0.748700  1
  H  H720  1  0.311500  0.605000  0.751300  1
  H  H721  1  0.252100  0.152500  0.276300  1
  H  H722  1  0.252100  0.847500  0.223700  1
  H  H723  1  0.752100  0.652500  0.276300  1
  H  H724  1  0.752100  0.347500  0.223700  1
  H  H725  1  0.747900  0.847500  0.723700  1
  H  H726  1  0.747900  0.152500  0.776300  1
  H  H727  1  0.247900  0.347500  0.723700  1
  H  H728  1  0.247900  0.652500  0.776300  1
  H  H729  1  0.157600  0.124400  0.176300  1
  H  H730  1  0.157600  0.875600  0.323700  1
  H  H731  1  0.657600  0.624400  0.176300  1
  H  H732  1  0.657600  0.375600  0.323700  1
  H  H733  1  0.842400  0.875600  0.823700  1
  H  H734  1  0.842400  0.124400  0.676300  1
  H  H735  1  0.342400  0.375600  0.823700  1
  H  H736  1  0.342400  0.624400  0.676300  1
  H  H737  1  0.083400  0.081400  0.153200  1
  H  H738  1  0.083400  0.918600  0.346800  1
  H  H739  1  0.583400  0.581400  0.153200  1
  H  H740  1  0.583400  0.418600  0.346800  1
  H  H741  1  0.916600  0.918600  0.846800  1
  H  H742  1  0.916600  0.081400  0.653200  1
  H  H743  1  0.416600  0.418600  0.846800  1
  H  H744  1  0.416600  0.581400  0.653200  1
  H  H745  1  0.137300  0.998100  0.197400  1
  H  H746  1  0.137300  0.001900  0.302600  1
  H  H747  1  0.637300  0.498100  0.197400  1
  H  H748  1  0.637300  0.501900  0.302600  1
  H  H749  1  0.862700  0.001900  0.802600  1
  H  H750  1  0.862700  0.998100  0.697400  1
  H  H751  1  0.362700  0.501900  0.802600  1
  H  H752  1  0.362700  0.498100  0.697400  1
  H  H753  1  0.203800  0.042000  0.222700  1
  H  H754  1  0.203800  0.958000  0.277300  1
  H  H755  1  0.703800  0.542000  0.222700  1
  H  H756  1  0.703800  0.458000  0.277300  1
  H  H757  1  0.796200  0.958000  0.777300  1
  H  H758  1  0.796200  0.042000  0.722700  1
  H  H759  1  0.296200  0.458000  0.777300  1
  H  H760  1  0.296200  0.542000  0.722700  1
  H  H761  1  0.966300  0.032500  0.169300  1
  H  H762  1  0.966300  0.967500  0.330700  1
  H  H763  1  0.466300  0.532500  0.169300  1
  H  H764  1  0.466300  0.467500  0.330700  1
  H  H765  1  0.033700  0.967500  0.830700  1
  H  H766  1  0.033700  0.032500  0.669300  1
  H  H767  1  0.533700  0.467500  0.830700  1
  H  H768  1  0.533700  0.532500  0.669300  1
  H  H769  1  0.980400  0.914300  0.103300  1
  H  H770  1  0.980400  0.085700  0.396700  1
  H  H771  1  0.480400  0.414300  0.103300  1
  H  H772  1  0.480400  0.585700  0.396700  1
  H  H773  1  0.019600  0.085700  0.896700  1
  H  H774  1  0.019600  0.914300  0.603300  1
  H  H775  1  0.519600  0.585700  0.896700  1
  H  H776  1  0.519600  0.414300  0.603300  1
  H  H777  1  0.856200  0.909100  0.103300  1
  H  H778  1  0.856200  0.090900  0.396700  1
  H  H779  1  0.356200  0.409100  0.103300  1
  H  H780  1  0.356200  0.590900  0.396700  1
  H  H781  1  0.143800  0.090900  0.896700  1
  H  H782  1  0.143800  0.909100  0.603300  1
  H  H783  1  0.643800  0.590900  0.896700  1
  H  H784  1  0.643800  0.409100  0.603300  1
  H  H785  1  0.785500  0.952800  0.128100  1
  H  H786  1  0.785500  0.047200  0.371900  1
  H  H787  1  0.285500  0.452800  0.128100  1
  H  H788  1  0.285500  0.547200  0.371900  1
  H  H789  1  0.214500  0.047200  0.871900  1
  H  H790  1  0.214500  0.952800  0.628100  1
  H  H791  1  0.714500  0.547200  0.871900  1
  H  H792  1  0.714500  0.452800  0.628100  1
  H  H793  1  0.844500  0.000000  0.154500  1
  H  H794  1  0.844500  0.000000  0.345500  1
  H  H795  1  0.344500  0.500000  0.154500  1
  H  H796  1  0.344500  0.500000  0.345500  1
  H  H797  1  0.155500  0.000000  0.845500  1
  H  H798  1  0.155500  0.000000  0.654500  1
  H  H799  1  0.655500  0.500000  0.845500  1
  H  H800  1  0.655500  0.500000  0.654500  1
  H  H801  1  0.021400  0.374000  0.038800  1
  H  H802  1  0.021400  0.626000  0.461200  1
  H  H803  1  0.521400  0.874000  0.038800  1
  H  H804  1  0.521400  0.126000  0.461200  1
  H  H805  1  0.978600  0.626000  0.961200  1
  H  H806  1  0.978600  0.374000  0.538800  1
  H  H807  1  0.478600  0.126000  0.961200  1
  H  H808  1  0.478600  0.874000  0.538800  1
  H  H809  1  0.927000  0.416500  0.053200  1
  H  H810  1  0.927000  0.583500  0.446800  1
  H  H811  1  0.427000  0.916500  0.053200  1
  H  H812  1  0.427000  0.083500  0.446800  1
  H  H813  1  0.073000  0.583500  0.946800  1
  H  H814  1  0.073000  0.416500  0.553200  1
  H  H815  1  0.573000  0.083500  0.946800  1
  H  H816  1  0.573000  0.916500  0.553200  1
  H  H817  1  0.840700  0.397500  0.080400  1
  H  H818  1  0.840700  0.602500  0.419600  1
  H  H819  1  0.340700  0.897500  0.080400  1
  H  H820  1  0.340700  0.102500  0.419600  1
  H  H821  1  0.159300  0.602500  0.919600  1
  H  H822  1  0.159300  0.397500  0.580400  1
  H  H823  1  0.659300  0.102500  0.919600  1
  H  H824  1  0.659300  0.897500  0.580400  1
  H  H825  1  0.851400  0.336600  0.096300  1
  H  H826  1  0.851400  0.663400  0.403700  1
  H  H827  1  0.351400  0.836600  0.096300  1
  H  H828  1  0.351400  0.163400  0.403700  1
  H  H829  1  0.148600  0.663400  0.903700  1
  H  H830  1  0.148600  0.336600  0.596300  1
  H  H831  1  0.648600  0.163400  0.903700  1
  H  H832  1  0.648600  0.836600  0.596300  1
  H  H833  1  0.921900  0.271500  0.093800  1
  H  H834  1  0.921900  0.728500  0.406200  1
  H  H835  1  0.421900  0.771500  0.093800  1
  H  H836  1  0.421900  0.228500  0.406200  1
  H  H837  1  0.078100  0.728500  0.906200  1
  H  H838  1  0.078100  0.271500  0.593800  1
  H  H839  1  0.578100  0.228500  0.906200  1
  H  H840  1  0.578100  0.771500  0.593800  1
  H  H841  1  0.950900  0.199800  0.053800  1
  H  H842  1  0.950900  0.800200  0.446200  1
  H  H843  1  0.450900  0.699800  0.053800  1
  H  H844  1  0.450900  0.300200  0.446200  1
  H  H845  1  0.049100  0.800200  0.946200  1
  H  H846  1  0.049100  0.199800  0.553800  1
  H  H847  1  0.549100  0.300200  0.946200  1
  H  H848  1  0.549100  0.699800  0.553800  1
  H  H849  1  0.966600  0.137100  0.064000  1
  H  H850  1  0.966600  0.862900  0.436000  1
  H  H851  1  0.466600  0.637100  0.064000  1
  H  H852  1  0.466600  0.362900  0.436000  1
  H  H853  1  0.033400  0.862900  0.936000  1
  H  H854  1  0.033400  0.137100  0.564000  1
  H  H855  1  0.533400  0.362900  0.936000  1
  H  H856  1  0.533400  0.637100  0.564000  1
  H  H857  1  0.113200  0.176600  0.117300  1
  H  H858  1  0.113200  0.823400  0.382700  1
  H  H859  1  0.613200  0.676600  0.117300  1
  H  H860  1  0.613200  0.323400  0.382700  1
  H  H861  1  0.886800  0.823400  0.882700  1
  H  H862  1  0.886800  0.176600  0.617300  1
  H  H863  1  0.386800  0.323400  0.882700  1
  H  H864  1  0.386800  0.676600  0.617300  1
  H  H865  1  0.092200  0.239600  0.107900  1
  H  H866  1  0.092200  0.760400  0.392100  1
  H  H867  1  0.592200  0.739600  0.107900  1
  H  H868  1  0.592200  0.260400  0.392100  1
  H  H869  1  0.907800  0.760400  0.892100  1
  H  H870  1  0.907800  0.239600  0.607900  1
  H  H871  1  0.407800  0.260400  0.892100  1
  H  H872  1  0.407800  0.739600  0.607900  1
  H  H873  1  0.955400  0.091800  0.099200  1
  H  H874  1  0.955400  0.908200  0.400800  1
  H  H875  1  0.455400  0.591800  0.099200  1
  H  H876  1  0.455400  0.408200  0.400800  1
  H  H877  1  0.044600  0.908200  0.900800  1
  H  H878  1  0.044600  0.091800  0.599200  1
  H  H879  1  0.544600  0.408200  0.900800  1
  H  H880  1  0.544600  0.591800  0.599200  1
  H  H881  1  0.981800  0.028800  0.106100  1
  H  H882  1  0.981800  0.971200  0.393900  1
  H  H883  1  0.481800  0.528800  0.106100  1
  H  H884  1  0.481800  0.471200  0.393900  1
  H  H885  1  0.018200  0.971200  0.893900  1
  H  H886  1  0.018200  0.028800  0.606100  1
  H  H887  1  0.518200  0.471200  0.893900  1
  H  H888  1  0.518200  0.528800  0.606100  1
  H  H889  1  0.197700  0.051100  0.099700  1
  H  H890  1  0.197700  0.948900  0.400300  1
  H  H891  1  0.697700  0.551100  0.099700  1
  H  H892  1  0.697700  0.448900  0.400300  1
  H  H893  1  0.802300  0.948900  0.900300  1
  H  H894  1  0.802300  0.051100  0.599700  1
  H  H895  1  0.302300  0.448900  0.900300  1
  H  H896  1  0.302300  0.551100  0.599700  1
  H  H897  1  0.170800  0.115000  0.095200  1
  H  H898  1  0.170800  0.885000  0.404800  1
  H  H899  1  0.670800  0.615000  0.095200  1
  H  H900  1  0.670800  0.385000  0.404800  1
  H  H901  1  0.829200  0.885000  0.904800  1
  H  H902  1  0.829200  0.115000  0.595200  1
  H  H903  1  0.329200  0.385000  0.904800  1
  H  H904  1  0.329200  0.615000  0.595200  1
  H  H905  1  0.147800  0.985500  0.072700  1
  H  H906  1  0.147800  0.014500  0.427300  1
  H  H907  1  0.647800  0.485500  0.072700  1
  H  H908  1  0.647800  0.514500  0.427300  1
  H  H909  1  0.852200  0.014500  0.927300  1
  H  H910  1  0.852200  0.985500  0.572700  1
  H  H911  1  0.352200  0.514500  0.927300  1
  H  H912  1  0.352200  0.485500  0.572700  1
  H  H913  1  0.116800  0.874100  0.128300  1
  H  H914  1  0.116800  0.125900  0.371700  1
  H  H915  1  0.616800  0.374100  0.128300  1
  H  H916  1  0.616800  0.625900  0.371700  1
  H  H917  1  0.883200  0.125900  0.871700  1
  H  H918  1  0.883200  0.874100  0.628300  1
  H  H919  1  0.383200  0.625900  0.871700  1
  H  H920  1  0.383200  0.374100  0.628300  1
  H  H921  1  0.163600  0.831800  0.097300  1
  H  H922  1  0.163600  0.168200  0.402700  1
  H  H923  1  0.663600  0.331800  0.097300  1
  H  H924  1  0.663600  0.668200  0.402700  1
  H  H925  1  0.836400  0.168200  0.902700  1
  H  H926  1  0.836400  0.831800  0.597300  1
  H  H927  1  0.336400  0.668200  0.902700  1
  H  H928  1  0.336400  0.331800  0.597300  1
  H  H929  1  0.203000  0.852600  0.060500  1
  H  H930  1  0.203000  0.147400  0.439500  1
  H  H931  1  0.703000  0.352600  0.060500  1
  H  H932  1  0.703000  0.647400  0.439500  1
  H  H933  1  0.797000  0.147400  0.939500  1
  H  H934  1  0.797000  0.852600  0.560500  1
  H  H935  1  0.297000  0.647400  0.939500  1
  H  H936  1  0.297000  0.352600  0.560500  1
  H  H937  1  0.194100  0.917400  0.054600  1
  H  H938  1  0.194100  0.082600  0.445400  1
  H  H939  1  0.694100  0.417400  0.054600  1
  H  H940  1  0.694100  0.582600  0.445400  1
  H  H941  1  0.805900  0.082600  0.945400  1
  H  H942  1  0.805900  0.917400  0.554600  1
  H  H943  1  0.305900  0.582600  0.945400  1
  H  H944  1  0.305900  0.417400  0.554600  1
  C  C945  1  0.577700  0.122500  0.842450  1
  C  C946  1  0.577700  0.877500  0.657550  1
  C  C947  1  0.077700  0.622500  0.842450  1
  C  C948  1  0.077700  0.377500  0.657550  1
  C  C949  1  0.422300  0.877500  0.157550  1
  C  C950  1  0.422300  0.122500  0.342450  1
  C  C951  1  0.922300  0.377500  0.157550  1
  C  C952  1  0.922300  0.622500  0.342450  1
  C  C953  1  0.508700  0.362400  0.264440  1
  C  C954  1  0.508700  0.637600  0.235560  1
  C  C955  1  0.008700  0.862400  0.264440  1
  C  C956  1  0.008700  0.137600  0.235560  1
  C  C957  1  0.491300  0.637600  0.735560  1
  C  C958  1  0.491300  0.362400  0.764440  1
  C  C959  1  0.991300  0.137600  0.735560  1
  C  C960  1  0.991300  0.862400  0.764440  1
  C  C961  1  0.488200  0.400700  0.276200  1
  C  C962  1  0.488200  0.599300  0.223800  1
  C  C963  1  0.988200  0.900700  0.276200  1
  C  C964  1  0.988200  0.099300  0.223800  1
  C  C965  1  0.511800  0.599300  0.723800  1
  C  C966  1  0.511800  0.400700  0.776200  1
  C  C967  1  0.011800  0.099300  0.723800  1
  C  C968  1  0.011800  0.900700  0.776200  1
  C  C969  1  0.007000  0.207100  0.379200  1
  C  C970  1  0.007000  0.792900  0.120800  1
  C  C971  1  0.507000  0.707100  0.379200  1
  C  C972  1  0.507000  0.292900  0.120800  1
  C  C973  1  0.993000  0.792900  0.620800  1
  C  C974  1  0.993000  0.207100  0.879200  1
  C  C975  1  0.493000  0.292900  0.620800  1
  C  C976  1  0.493000  0.707100  0.879200  1
  C  C977  1  0.927900  0.195800  0.385800  1
  C  C978  1  0.927900  0.804200  0.114200  1
  C  C979  1  0.427900  0.695800  0.385800  1
  C  C980  1  0.427900  0.304200  0.114200  1
  C  C981  1  0.072100  0.804200  0.614200  1
  C  C982  1  0.072100  0.195800  0.885800  1
  C  C983  1  0.572100  0.304200  0.614200  1
  C  C984  1  0.572100  0.695800  0.885800  1
  C  C985  1  0.585900  0.584190  0.961070  1
  C  C986  1  0.585900  0.415810  0.538930  1
  C  C987  1  0.085900  0.084190  0.961070  1
  C  C988  1  0.085900  0.915810  0.538930  1
  C  C989  1  0.414100  0.415810  0.038930  1
  C  C990  1  0.414100  0.584190  0.461070  1
  C  C991  1  0.914100  0.915810  0.038930  1
  C  C992  1  0.914100  0.084190  0.461070  1
  C  C993  1  0.894200  0.557150  0.867500  1
  C  C994  1  0.894200  0.442850  0.632500  1
  C  C995  1  0.394200  0.057150  0.867500  1
  C  C996  1  0.394200  0.942850  0.632500  1
  C  C997  1  0.105800  0.442850  0.132500  1
  C  C998  1  0.105800  0.557150  0.367500  1
  C  C999  1  0.605800  0.942850  0.132500  1
  C  C1000  1  0.605800  0.057150  0.367500  1
  C  C1001  1  0.686500  0.988900  0.964940  1
  C  C1002  1  0.686500  0.011100  0.535060  1
  C  C1003  1  0.186500  0.488900  0.964940  1
  C  C1004  1  0.186500  0.511100  0.535060  1
  C  C1005  1  0.313500  0.011100  0.035060  1
  C  C1006  1  0.313500  0.988900  0.464940  1
  C  C1007  1  0.813500  0.511100  0.035060  1
  C  C1008  1  0.813500  0.488900  0.464940  1
  C  C1009  1  0.308000  0.494800  0.224100  1
  C  C1010  1  0.308000  0.505200  0.275900  1
  C  C1011  1  0.808000  0.994800  0.224100  1
  C  C1012  1  0.808000  0.005200  0.275900  1
  C  C1013  1  0.692000  0.505200  0.775900  1
  C  C1014  1  0.692000  0.494800  0.724100  1
  C  C1015  1  0.192000  0.005200  0.775900  1
  C  C1016  1  0.192000  0.994800  0.724100  1
  C  C1017  1  0.331400  0.365200  0.167500  1
  C  C1018  1  0.331400  0.634800  0.332500  1
  C  C1019  1  0.831400  0.865200  0.167500  1
  C  C1020  1  0.831400  0.134800  0.332500  1
  C  C1021  1  0.668600  0.634800  0.832500  1
  C  C1022  1  0.668600  0.365200  0.667500  1
  C  C1023  1  0.168600  0.134800  0.832500  1
  C  C1024  1  0.168600  0.865200  0.667500  1
  C  C1025  1  0.737500  0.066600  0.101600  1
  C  C1026  1  0.737500  0.933400  0.398400  1
  C  C1027  1  0.237500  0.566600  0.101600  1
  C  C1028  1  0.237500  0.433400  0.398400  1
  C  C1029  1  0.262500  0.933400  0.898400  1
  C  C1030  1  0.262500  0.066600  0.601600  1
  C  C1031  1  0.762500  0.433400  0.898400  1
  C  C1032  1  0.762500  0.566600  0.601600  1
  C  C1033  1  0.775000  0.070700  0.060020  1
  C  C1034  1  0.775000  0.929300  0.439980  1
  C  C1035  1  0.275000  0.570700  0.060020  1
  C  C1036  1  0.275000  0.429300  0.439980  1
  C  C1037  1  0.225000  0.929300  0.939980  1
  C  C1038  1  0.225000  0.070700  0.560020  1
  C  C1039  1  0.725000  0.429300  0.939980  1
  C  C1040  1  0.725000  0.570700  0.560020  1
  C  C1041  1  0.817700  0.038600  0.060810  1
  C  C1042  1  0.817700  0.961400  0.439190  1
  C  C1043  1  0.317700  0.538600  0.060810  1
  C  C1044  1  0.317700  0.461400  0.439190  1
  C  C1045  1  0.182300  0.961400  0.939190  1
  C  C1046  1  0.182300  0.038600  0.560810  1
  C  C1047  1  0.682300  0.461400  0.939190  1
  C  C1048  1  0.682300  0.538600  0.560810  1
  C  C1049  1  0.816600  0.019500  0.082380  1
  C  C1050  1  0.816600  0.980500  0.417620  1
  C  C1051  1  0.316600  0.519500  0.082380  1
  C  C1052  1  0.316600  0.480500  0.417620  1
  C  C1053  1  0.183400  0.980500  0.917620  1
  C  C1054  1  0.183400  0.019500  0.582380  1
  C  C1055  1  0.683400  0.480500  0.917620  1
  C  C1056  1  0.683400  0.519500  0.582380  1
  C  C1057  1  0.776600  0.033500  0.102650  1
  C  C1058  1  0.776600  0.966500  0.397350  1
  C  C1059  1  0.276600  0.533500  0.102650  1
  C  C1060  1  0.276600  0.466500  0.397350  1
  C  C1061  1  0.223400  0.966500  0.897350  1
  C  C1062  1  0.223400  0.033500  0.602650  1
  C  C1063  1  0.723400  0.466500  0.897350  1
  C  C1064  1  0.723400  0.533500  0.602650  1
  C  C1065  1  0.694300  0.085300  0.121590  1
  C  C1066  1  0.694300  0.914700  0.378410  1
  C  C1067  1  0.194300  0.585300  0.121590  1
  C  C1068  1  0.194300  0.414700  0.378410  1
  C  C1069  1  0.305700  0.914700  0.878410  1
  C  C1070  1  0.305700  0.085300  0.621590  1
  C  C1071  1  0.805700  0.414700  0.878410  1
  C  C1072  1  0.805700  0.585300  0.621590  1
  C  C1073  1  0.615900  0.136300  0.135780  1
  C  C1074  1  0.615900  0.863700  0.364220  1
  C  C1075  1  0.115900  0.636300  0.135780  1
  C  C1076  1  0.115900  0.363700  0.364220  1
  C  C1077  1  0.384100  0.863700  0.864220  1
  C  C1078  1  0.384100  0.136300  0.635780  1
  C  C1079  1  0.884100  0.363700  0.864220  1
  C  C1080  1  0.884100  0.636300  0.635780  1
  C  C1081  1  0.645000  0.168700  0.149630  1
  C  C1082  1  0.645000  0.831300  0.350370  1
  C  C1083  1  0.145000  0.668700  0.149630  1
  C  C1084  1  0.145000  0.331300  0.350370  1
  C  C1085  1  0.355000  0.831300  0.850370  1
  C  C1086  1  0.355000  0.168700  0.649630  1
  C  C1087  1  0.855000  0.331300  0.850370  1
  C  C1088  1  0.855000  0.668700  0.649630  1
  C  C1089  1  0.603600  0.189400  0.166350  1
  C  C1090  1  0.603600  0.810600  0.333650  1
  C  C1091  1  0.103600  0.689400  0.166350  1
  C  C1092  1  0.103600  0.310600  0.333650  1
  C  C1093  1  0.396400  0.810600  0.833650  1
  C  C1094  1  0.396400  0.189400  0.666350  1
  C  C1095  1  0.896400  0.310600  0.833650  1
  C  C1096  1  0.896400  0.689400  0.666350  1
  C  C1097  1  0.530000  0.181500  0.170360  1
  C  C1098  1  0.530000  0.818500  0.329640  1
  C  C1099  1  0.030000  0.681500  0.170360  1
  C  C1100  1  0.030000  0.318500  0.329640  1
  C  C1101  1  0.470000  0.818500  0.829640  1
  C  C1102  1  0.470000  0.181500  0.670360  1
  C  C1103  1  0.970000  0.318500  0.829640  1
  C  C1104  1  0.970000  0.681500  0.670360  1
  C  C1105  1  0.501400  0.148800  0.156890  1
  C  C1106  1  0.501400  0.851200  0.343110  1
  C  C1107  1  0.001400  0.648800  0.156890  1
  C  C1108  1  0.001400  0.351200  0.343110  1
  C  C1109  1  0.498600  0.851200  0.843110  1
  C  C1110  1  0.498600  0.148800  0.656890  1
  C  C1111  1  0.998600  0.351200  0.843110  1
  C  C1112  1  0.998600  0.648800  0.656890  1
  C  C1113  1  0.544100  0.126400  0.139910  1
  C  C1114  1  0.544100  0.873600  0.360090  1
  C  C1115  1  0.044100  0.626400  0.139910  1
  C  C1116  1  0.044100  0.373600  0.360090  1
  C  C1117  1  0.455900  0.873600  0.860090  1
  C  C1118  1  0.455900  0.126400  0.639910  1
  C  C1119  1  0.955900  0.373600  0.860090  1
  C  C1120  1  0.955900  0.626400  0.639910  1
  C  C1121  1  0.487000  0.207200  0.188010  1
  C  C1122  1  0.487000  0.792800  0.311990  1
  C  C1123  1  0.987000  0.707200  0.188010  1
  C  C1124  1  0.987000  0.292800  0.311990  1
  C  C1125  1  0.513000  0.792800  0.811990  1
  C  C1126  1  0.513000  0.207200  0.688010  1
  C  C1127  1  0.013000  0.292800  0.811990  1
  C  C1128  1  0.013000  0.707200  0.688010  1
  C  C1129  1  0.506100  0.212500  0.213140  1
  C  C1130  1  0.506100  0.787500  0.286860  1
  C  C1131  1  0.006100  0.712500  0.213140  1
  C  C1132  1  0.006100  0.287500  0.286860  1
  C  C1133  1  0.493900  0.787500  0.786860  1
  C  C1134  1  0.493900  0.212500  0.713140  1
  C  C1135  1  0.993900  0.287500  0.786860  1
  C  C1136  1  0.993900  0.712500  0.713140  1
  C  C1137  1  0.464300  0.237400  0.230340  1
  C  C1138  1  0.464300  0.762600  0.269660  1
  C  C1139  1  0.964300  0.737400  0.230340  1
  C  C1140  1  0.964300  0.262600  0.269660  1
  C  C1141  1  0.535700  0.762600  0.769660  1
  C  C1142  1  0.535700  0.237400  0.730340  1
  C  C1143  1  0.035700  0.262600  0.769660  1
  C  C1144  1  0.035700  0.737400  0.730340  1
  C  C1145  1  0.405400  0.256000  0.221980  1
  C  C1146  1  0.405400  0.744000  0.278020  1
  C  C1147  1  0.905400  0.756000  0.221980  1
  C  C1148  1  0.905400  0.244000  0.278020  1
  C  C1149  1  0.594600  0.744000  0.778020  1
  C  C1150  1  0.594600  0.256000  0.721980  1
  C  C1151  1  0.094600  0.244000  0.778020  1
  C  C1152  1  0.094600  0.756000  0.721980  1
  C  C1153  1  0.385400  0.252000  0.196690  1
  C  C1154  1  0.385400  0.748000  0.303310  1
  C  C1155  1  0.885400  0.752000  0.196690  1
  C  C1156  1  0.885400  0.248000  0.303310  1
  C  C1157  1  0.614600  0.748000  0.803310  1
  C  C1158  1  0.614600  0.252000  0.696690  1
  C  C1159  1  0.114600  0.248000  0.803310  1
  C  C1160  1  0.114600  0.752000  0.696690  1
  C  C1161  1  0.426500  0.226500  0.179880  1
  C  C1162  1  0.426500  0.773500  0.320120  1
  C  C1163  1  0.926500  0.726500  0.179880  1
  C  C1164  1  0.926500  0.273500  0.320120  1
  C  C1165  1  0.573500  0.773500  0.820120  1
  C  C1166  1  0.573500  0.226500  0.679880  1
  C  C1167  1  0.073500  0.273500  0.820120  1
  C  C1168  1  0.073500  0.726500  0.679880  1
  C  C1169  1  0.352200  0.314500  0.236720  1
  C  C1170  1  0.352200  0.685500  0.263280  1
  C  C1171  1  0.852200  0.814500  0.236720  1
  C  C1172  1  0.852200  0.185500  0.263280  1
  C  C1173  1  0.647800  0.685500  0.763280  1
  C  C1174  1  0.647800  0.314500  0.736720  1
  C  C1175  1  0.147800  0.185500  0.763280  1
  C  C1176  1  0.147800  0.814500  0.736720  1
  C  C1177  1  0.303500  0.336000  0.254790  1
  C  C1178  1  0.303500  0.664000  0.245210  1
  C  C1179  1  0.803500  0.836000  0.254790  1
  C  C1180  1  0.803500  0.164000  0.245210  1
  C  C1181  1  0.696500  0.664000  0.745210  1
  C  C1182  1  0.696500  0.336000  0.754790  1
  C  C1183  1  0.196500  0.164000  0.745210  1
  C  C1184  1  0.196500  0.836000  0.754790  1
  C  C1185  1  0.225500  0.330900  0.288250  1
  C  C1186  1  0.225500  0.669100  0.211750  1
  C  C1187  1  0.725500  0.830900  0.288250  1
  C  C1188  1  0.725500  0.169100  0.211750  1
  C  C1189  1  0.774500  0.669100  0.711750  1
  C  C1190  1  0.774500  0.330900  0.788250  1
  C  C1191  1  0.274500  0.169100  0.711750  1
  C  C1192  1  0.274500  0.830900  0.788250  1
  C  C1193  1  0.209800  0.369600  0.289400  1
  C  C1194  1  0.209800  0.630400  0.210600  1
  C  C1195  1  0.709800  0.869600  0.289400  1
  C  C1196  1  0.709800  0.130400  0.210600  1
  C  C1197  1  0.790200  0.630400  0.710600  1
  C  C1198  1  0.790200  0.369600  0.789400  1
  C  C1199  1  0.290200  0.130400  0.710600  1
  C  C1200  1  0.290200  0.869600  0.789400  1
  C  C1201  1  0.239300  0.392000  0.273200  1
  C  C1202  1  0.239300  0.608000  0.226800  1
  C  C1203  1  0.739300  0.892000  0.273200  1
  C  C1204  1  0.739300  0.108000  0.226800  1
  C  C1205  1  0.760700  0.608000  0.726800  1
  C  C1206  1  0.760700  0.392000  0.773200  1
  C  C1207  1  0.260700  0.108000  0.726800  1
  C  C1208  1  0.260700  0.892000  0.773200  1
  C  C1209  1  0.287800  0.374400  0.254500  1
  C  C1210  1  0.287800  0.625600  0.245500  1
  C  C1211  1  0.787800  0.874400  0.254500  1
  C  C1212  1  0.787800  0.125600  0.245500  1
  C  C1213  1  0.712200  0.625600  0.745500  1
  C  C1214  1  0.712200  0.374400  0.754500  1
  C  C1215  1  0.212200  0.125600  0.745500  1
  C  C1216  1  0.212200  0.874400  0.754500  1
  C  C1217  1  0.746200  0.203100  0.103300  1
  C  C1218  1  0.746200  0.796900  0.396700  1
  C  C1219  1  0.246200  0.703100  0.103300  1
  C  C1220  1  0.246200  0.296900  0.396700  1
  C  C1221  1  0.253800  0.796900  0.896700  1
  C  C1222  1  0.253800  0.203100  0.603300  1
  C  C1223  1  0.753800  0.296900  0.896700  1
  C  C1224  1  0.753800  0.703100  0.603300  1
  C  C1225  1  0.825200  0.153900  0.106650  1
  C  C1226  1  0.825200  0.846100  0.393350  1
  C  C1227  1  0.325200  0.653900  0.106650  1
  C  C1228  1  0.325200  0.346100  0.393350  1
  C  C1229  1  0.174800  0.846100  0.893350  1
  C  C1230  1  0.174800  0.153900  0.606650  1
  C  C1231  1  0.674800  0.346100  0.893350  1
  C  C1232  1  0.674800  0.653900  0.606650  1
  C  C1233  1  0.875000  0.178500  0.118860  1
  C  C1234  1  0.875000  0.821500  0.381140  1
  C  C1235  1  0.375000  0.678500  0.118860  1
  C  C1236  1  0.375000  0.321500  0.381140  1
  C  C1237  1  0.125000  0.821500  0.881140  1
  C  C1238  1  0.125000  0.178500  0.618860  1
  C  C1239  1  0.625000  0.321500  0.881140  1
  C  C1240  1  0.625000  0.678500  0.618860  1
  C  C1241  1  0.860300  0.216100  0.123430  1
  C  C1242  1  0.860300  0.783900  0.376570  1
  C  C1243  1  0.360300  0.716100  0.123430  1
  C  C1244  1  0.360300  0.283900  0.376570  1
  C  C1245  1  0.139700  0.783900  0.876570  1
  C  C1246  1  0.139700  0.216100  0.623430  1
  C  C1247  1  0.639700  0.283900  0.876570  1
  C  C1248  1  0.639700  0.716100  0.623430  1
  C  C1249  1  0.793000  0.229400  0.115090  1
  C  C1250  1  0.793000  0.770600  0.384910  1
  C  C1251  1  0.293000  0.729400  0.115090  1
  C  C1252  1  0.293000  0.270600  0.384910  1
  C  C1253  1  0.207000  0.770600  0.884910  1
  C  C1254  1  0.207000  0.229400  0.615090  1
  C  C1255  1  0.707000  0.270600  0.884910  1
  C  C1256  1  0.707000  0.729400  0.615090  1
  C  C1257  1  0.671700  0.213000  0.096130  1
  C  C1258  1  0.671700  0.787000  0.403870  1
  C  C1259  1  0.171700  0.713000  0.096130  1
  C  C1260  1  0.171700  0.287000  0.403870  1
  C  C1261  1  0.328300  0.787000  0.903870  1
  C  C1262  1  0.328300  0.213000  0.596130  1
  C  C1263  1  0.828300  0.287000  0.903870  1
  C  C1264  1  0.828300  0.713000  0.596130  1
  C  C1265  1  0.558500  0.194600  0.081150  1
  C  C1266  1  0.558500  0.805400  0.418850  1
  C  C1267  1  0.058500  0.694600  0.081150  1
  C  C1268  1  0.058500  0.305400  0.418850  1
  C  C1269  1  0.441500  0.805400  0.918850  1
  C  C1270  1  0.441500  0.194600  0.581150  1
  C  C1271  1  0.941500  0.305400  0.918850  1
  C  C1272  1  0.941500  0.694600  0.581150  1
  C  C1273  1  0.549000  0.213700  0.060130  1
  C  C1274  1  0.549000  0.786300  0.439870  1
  C  C1275  1  0.049000  0.713700  0.060130  1
  C  C1276  1  0.049000  0.286300  0.439870  1
  C  C1277  1  0.451000  0.786300  0.939870  1
  C  C1278  1  0.451000  0.213700  0.560130  1
  C  C1279  1  0.951000  0.286300  0.939870  1
  C  C1280  1  0.951000  0.713700  0.560130  1
  C  C1281  1  0.478100  0.222500  0.052890  1
  C  C1282  1  0.478100  0.777500  0.447110  1
  C  C1283  1  0.978100  0.722500  0.052890  1
  C  C1284  1  0.978100  0.277500  0.447110  1
  C  C1285  1  0.521900  0.777500  0.947110  1
  C  C1286  1  0.521900  0.222500  0.552890  1
  C  C1287  1  0.021900  0.277500  0.947110  1
  C  C1288  1  0.021900  0.722500  0.552890  1
  C  C1289  1  0.417500  0.214800  0.067010  1
  C  C1290  1  0.417500  0.785200  0.432990  1
  C  C1291  1  0.917500  0.714800  0.067010  1
  C  C1292  1  0.917500  0.285200  0.432990  1
  C  C1293  1  0.582500  0.785200  0.932990  1
  C  C1294  1  0.582500  0.214800  0.567010  1
  C  C1295  1  0.082500  0.285200  0.932990  1
  C  C1296  1  0.082500  0.714800  0.567010  1
  C  C1297  1  0.430700  0.198800  0.089450  1
  C  C1298  1  0.430700  0.801200  0.410550  1
  C  C1299  1  0.930700  0.698800  0.089450  1
  C  C1300  1  0.930700  0.301200  0.410550  1
  C  C1301  1  0.569300  0.801200  0.910550  1
  C  C1302  1  0.569300  0.198800  0.589450  1
  C  C1303  1  0.069300  0.301200  0.910550  1
  C  C1304  1  0.069300  0.698800  0.589450  1
  C  C1305  1  0.499700  0.188000  0.096230  1
  C  C1306  1  0.499700  0.812000  0.403770  1
  C  C1307  1  0.999700  0.688000  0.096230  1
  C  C1308  1  0.999700  0.312000  0.403770  1
  C  C1309  1  0.500300  0.812000  0.903770  1
  C  C1310  1  0.500300  0.188000  0.596230  1
  C  C1311  1  0.000300  0.312000  0.903770  1
  C  C1312  1  0.000300  0.688000  0.596230  1
  C  C1313  1  0.342100  0.222800  0.058470  1
  C  C1314  1  0.342100  0.777200  0.441530  1
  C  C1315  1  0.842100  0.722800  0.058470  1
  C  C1316  1  0.842100  0.277200  0.441530  1
  C  C1317  1  0.657900  0.777200  0.941530  1
  C  C1318  1  0.657900  0.222800  0.558470  1
  C  C1319  1  0.157900  0.277200  0.941530  1
  C  C1320  1  0.157900  0.722800  0.558470  1
  C  C1321  1  0.283200  0.200200  0.065410  1
  C  C1322  1  0.283200  0.799800  0.434590  1
  C  C1323  1  0.783200  0.700200  0.065410  1
  C  C1324  1  0.783200  0.299800  0.434590  1
  C  C1325  1  0.716800  0.799800  0.934590  1
  C  C1326  1  0.716800  0.200200  0.565410  1
  C  C1327  1  0.216800  0.299800  0.934590  1
  C  C1328  1  0.216800  0.700200  0.565410  1
  C  C1329  1  0.213100  0.207600  0.057490  1
  C  C1330  1  0.213100  0.792400  0.442510  1
  C  C1331  1  0.713100  0.707600  0.057490  1
  C  C1332  1  0.713100  0.292400  0.442510  1
  C  C1333  1  0.786900  0.792400  0.942510  1
  C  C1334  1  0.786900  0.207600  0.557490  1
  C  C1335  1  0.286900  0.292400  0.942510  1
  C  C1336  1  0.286900  0.707600  0.557490  1
  C  C1337  1  0.200600  0.238800  0.043550  1
  C  C1338  1  0.200600  0.761200  0.456450  1
  C  C1339  1  0.700600  0.738800  0.043550  1
  C  C1340  1  0.700600  0.261200  0.456450  1
  C  C1341  1  0.799400  0.761200  0.956450  1
  C  C1342  1  0.799400  0.238800  0.543550  1
  C  C1343  1  0.299400  0.261200  0.956450  1
  C  C1344  1  0.299400  0.738800  0.543550  1
  C  C1345  1  0.257400  0.260500  0.036900  1
  C  C1346  1  0.257400  0.739500  0.463100  1
  C  C1347  1  0.757400  0.760500  0.036900  1
  C  C1348  1  0.757400  0.239500  0.463100  1
  C  C1349  1  0.742600  0.739500  0.963100  1
  C  C1350  1  0.742600  0.260500  0.536900  1
  C  C1351  1  0.242600  0.239500  0.963100  1
  C  C1352  1  0.242600  0.760500  0.536900  1
  C  C1353  1  0.328700  0.253800  0.044620  1
  C  C1354  1  0.328700  0.746200  0.455380  1
  C  C1355  1  0.828700  0.753800  0.044620  1
  C  C1356  1  0.828700  0.246200  0.455380  1
  C  C1357  1  0.671300  0.746200  0.955380  1
  C  C1358  1  0.671300  0.253800  0.544620  1
  C  C1359  1  0.171300  0.246200  0.955380  1
  C  C1360  1  0.171300  0.753800  0.544620  1
  C  C1361  1  0.098500  0.222300  0.019970  1
  C  C1362  1  0.098500  0.777700  0.480030  1
  C  C1363  1  0.598500  0.722300  0.019970  1
  C  C1364  1  0.598500  0.277700  0.480030  1
  C  C1365  1  0.901500  0.777700  0.980030  1
  C  C1366  1  0.901500  0.222300  0.519970  1
  C  C1367  1  0.401500  0.277700  0.980030  1
  C  C1368  1  0.401500  0.722300  0.519970  1
  C  C1369  1  0.024400  0.230740  0.011790  1
  C  C1370  1  0.024400  0.769260  0.488210  1
  C  C1371  1  0.524400  0.730740  0.011790  1
  C  C1372  1  0.524400  0.269260  0.488210  1
  C  C1373  1  0.975600  0.769260  0.988210  1
  C  C1374  1  0.975600  0.230740  0.511790  1
  C  C1375  1  0.475600  0.269260  0.988210  1
  C  C1376  1  0.475600  0.730740  0.511790  1
  C  C1377  1  0.932500  0.276000  0.015980  1
  C  C1378  1  0.932500  0.724000  0.484020  1
  C  C1379  1  0.432500  0.776000  0.015980  1
  C  C1380  1  0.432500  0.224000  0.484020  1
  C  C1381  1  0.067500  0.724000  0.984020  1
  C  C1382  1  0.067500  0.276000  0.515980  1
  C  C1383  1  0.567500  0.224000  0.984020  1
  C  C1384  1  0.567500  0.776000  0.515980  1
  C  C1385  1  0.890100  0.253700  0.998390  1
  C  C1386  1  0.890100  0.746300  0.501610  1
  C  C1387  1  0.390100  0.753700  0.998390  1
  C  C1388  1  0.390100  0.246300  0.501610  1
  C  C1389  1  0.109900  0.746300  0.001610  1
  C  C1390  1  0.109900  0.253700  0.498390  1
  C  C1391  1  0.609900  0.246300  0.001610  1
  C  C1392  1  0.609900  0.753700  0.498390  1
  C  C1393  1  0.916600  0.219200  0.987030  1
  C  C1394  1  0.916600  0.780800  0.512970  1
  C  C1395  1  0.416600  0.719200  0.987030  1
  C  C1396  1  0.416600  0.280800  0.512970  1
  C  C1397  1  0.083400  0.780800  0.012970  1
  C  C1398  1  0.083400  0.219200  0.487030  1
  C  C1399  1  0.583400  0.280800  0.012970  1
  C  C1400  1  0.583400  0.719200  0.487030  1
  C  C1401  1  0.986500  0.206900  0.994050  1
  C  C1402  1  0.986500  0.793100  0.505950  1
  C  C1403  1  0.486500  0.706900  0.994050  1
  C  C1404  1  0.486500  0.293100  0.505950  1
  C  C1405  1  0.013500  0.793100  0.005950  1
  C  C1406  1  0.013500  0.206900  0.494050  1
  C  C1407  1  0.513500  0.293100  0.005950  1
  C  C1408  1  0.513500  0.706900  0.494050  1
  C  C1409  1  0.647300  0.128800  0.031520  1
  C  C1410  1  0.647300  0.871200  0.468480  1
  C  C1411  1  0.147300  0.628800  0.031520  1
  C  C1412  1  0.147300  0.371200  0.468480  1
  C  C1413  1  0.352700  0.871200  0.968480  1
  C  C1414  1  0.352700  0.128800  0.531520  1
  C  C1415  1  0.852700  0.371200  0.968480  1
  C  C1416  1  0.852700  0.628800  0.531520  1
  C  C1417  1  0.751200  0.165400  0.039820  1
  C  C1418  1  0.751200  0.834600  0.460180  1
  C  C1419  1  0.251200  0.665400  0.039820  1
  C  C1420  1  0.251200  0.334600  0.460180  1
  C  C1421  1  0.248800  0.834600  0.960180  1
  C  C1422  1  0.248800  0.165400  0.539820  1
  C  C1423  1  0.748800  0.334600  0.960180  1
  C  C1424  1  0.748800  0.665400  0.539820  1
  C  C1425  1  0.755300  0.170800  0.014580  1
  C  C1426  1  0.755300  0.829200  0.485420  1
  C  C1427  1  0.255300  0.670800  0.014580  1
  C  C1428  1  0.255300  0.329200  0.485420  1
  C  C1429  1  0.244700  0.829200  0.985420  1
  C  C1430  1  0.244700  0.170800  0.514580  1
  C  C1431  1  0.744700  0.329200  0.985420  1
  C  C1432  1  0.744700  0.670800  0.514580  1
  C  C1433  1  0.705400  0.154700  0.997570  1
  C  C1434  1  0.705400  0.845300  0.502430  1
  C  C1435  1  0.205400  0.654700  0.997570  1
  C  C1436  1  0.205400  0.345300  0.502430  1
  C  C1437  1  0.294600  0.845300  0.002430  1
  C  C1438  1  0.294600  0.154700  0.497570  1
  C  C1439  1  0.794600  0.345300  0.002430  1
  C  C1440  1  0.794600  0.654700  0.497570  1
  C  C1441  1  0.650900  0.133300  0.006760  1
  C  C1442  1  0.650900  0.866700  0.493240  1
  C  C1443  1  0.150900  0.633300  0.006760  1
  C  C1444  1  0.150900  0.366700  0.493240  1
  C  C1445  1  0.349100  0.866700  0.993240  1
  C  C1446  1  0.349100  0.133300  0.506760  1
  C  C1447  1  0.849100  0.366700  0.993240  1
  C  C1448  1  0.849100  0.633300  0.506760  1
  C  C1449  1  0.592300  0.107400  0.042420  1
  C  C1450  1  0.592300  0.892600  0.457580  1
  C  C1451  1  0.092300  0.607400  0.042420  1
  C  C1452  1  0.092300  0.392600  0.457580  1
  C  C1453  1  0.407700  0.892600  0.957580  1
  C  C1454  1  0.407700  0.107400  0.542420  1
  C  C1455  1  0.907700  0.392600  0.957580  1
  C  C1456  1  0.907700  0.607400  0.542420  1
  C  C1457  1  0.538700  0.082500  0.077330  1
  C  C1458  1  0.538700  0.917500  0.422670  1
  C  C1459  1  0.038700  0.582500  0.077330  1
  C  C1460  1  0.038700  0.417500  0.422670  1
  C  C1461  1  0.461300  0.917500  0.922670  1
  C  C1462  1  0.461300  0.082500  0.577330  1
  C  C1463  1  0.961300  0.417500  0.922670  1
  C  C1464  1  0.961300  0.582500  0.577330  1
  C  C1465  1  0.467300  0.096800  0.078110  1
  C  C1466  1  0.467300  0.903200  0.421890  1
  C  C1467  1  0.967300  0.596800  0.078110  1
  C  C1468  1  0.967300  0.403200  0.421890  1
  C  C1469  1  0.532700  0.903200  0.921890  1
  C  C1470  1  0.532700  0.096800  0.578110  1
  C  C1471  1  0.032700  0.403200  0.921890  1
  C  C1472  1  0.032700  0.596800  0.578110  1
  C  C1473  1  0.414400  0.076800  0.090310  1
  C  C1474  1  0.414400  0.923200  0.409690  1
  C  C1475  1  0.914400  0.576800  0.090310  1
  C  C1476  1  0.914400  0.423200  0.409690  1
  C  C1477  1  0.585600  0.923200  0.909690  1
  C  C1478  1  0.585600  0.076800  0.590310  1
  C  C1479  1  0.085600  0.423200  0.909690  1
  C  C1480  1  0.085600  0.576800  0.590310  1
  C  C1481  1  0.431200  0.042800  0.100510  1
  C  C1482  1  0.431200  0.957200  0.399490  1
  C  C1483  1  0.931200  0.542800  0.100510  1
  C  C1484  1  0.931200  0.457200  0.399490  1
  C  C1485  1  0.568800  0.957200  0.899490  1
  C  C1486  1  0.568800  0.042800  0.600510  1
  C  C1487  1  0.068800  0.457200  0.899490  1
  C  C1488  1  0.068800  0.542800  0.600510  1
  C  C1489  1  0.502100  0.029400  0.099170  1
  C  C1490  1  0.502100  0.970600  0.400830  1
  C  C1491  1  0.002100  0.529400  0.099170  1
  C  C1492  1  0.002100  0.470600  0.400830  1
  C  C1493  1  0.497900  0.970600  0.900830  1
  C  C1494  1  0.497900  0.029400  0.599170  1
  C  C1495  1  0.997900  0.470600  0.900830  1
  C  C1496  1  0.997900  0.529400  0.599170  1
  C  C1497  1  0.555800  0.049900  0.087710  1
  C  C1498  1  0.555800  0.950100  0.412290  1
  C  C1499  1  0.055800  0.549900  0.087710  1
  C  C1500  1  0.055800  0.450100  0.412290  1
  C  C1501  1  0.444200  0.950100  0.912290  1
  C  C1502  1  0.444200  0.049900  0.587710  1
  C  C1503  1  0.944200  0.450100  0.912290  1
  C  C1504  1  0.944200  0.549900  0.587710  1
  C  C1505  1  0.372000  0.021600  0.112520  1
  C  C1506  1  0.372000  0.978400  0.387480  1
  C  C1507  1  0.872000  0.521600  0.112520  1
  C  C1508  1  0.872000  0.478400  0.387480  1
  C  C1509  1  0.628000  0.978400  0.887480  1
  C  C1510  1  0.628000  0.021600  0.612520  1
  C  C1511  1  0.128000  0.478400  0.887480  1
  C  C1512  1  0.128000  0.521600  0.612520  1
  C  C1513  1  0.319300  0.042700  0.126890  1
  C  C1514  1  0.319300  0.957300  0.373110  1
  C  C1515  1  0.819300  0.542700  0.126890  1
  C  C1516  1  0.819300  0.457300  0.373110  1
  C  C1517  1  0.680700  0.957300  0.873110  1
  C  C1518  1  0.680700  0.042700  0.626890  1
  C  C1519  1  0.180700  0.457300  0.873110  1
  C  C1520  1  0.180700  0.542700  0.626890  1
  C  C1521  1  0.263700  0.024900  0.137920  1
  C  C1522  1  0.263700  0.975100  0.362080  1
  C  C1523  1  0.763700  0.524900  0.137920  1
  C  C1524  1  0.763700  0.475100  0.362080  1
  C  C1525  1  0.736300  0.975100  0.862080  1
  C  C1526  1  0.736300  0.024900  0.637920  1
  C  C1527  1  0.236300  0.475100  0.862080  1
  C  C1528  1  0.236300  0.524900  0.637920  1
  C  C1529  1  0.258200  0.985000  0.134890  1
  C  C1530  1  0.258200  0.015000  0.365110  1
  C  C1531  1  0.758200  0.485000  0.134890  1
  C  C1532  1  0.758200  0.515000  0.365110  1
  C  C1533  1  0.741800  0.015000  0.865110  1
  C  C1534  1  0.741800  0.985000  0.634890  1
  C  C1535  1  0.241800  0.515000  0.865110  1
  C  C1536  1  0.241800  0.485000  0.634890  1
  C  C1537  1  0.313300  0.963100  0.121700  1
  C  C1538  1  0.313300  0.036900  0.378300  1
  C  C1539  1  0.813300  0.463100  0.121700  1
  C  C1540  1  0.813300  0.536900  0.378300  1
  C  C1541  1  0.686700  0.036900  0.878300  1
  C  C1542  1  0.686700  0.963100  0.621700  1
  C  C1543  1  0.186700  0.536900  0.878300  1
  C  C1544  1  0.186700  0.463100  0.621700  1
  C  C1545  1  0.369300  0.982200  0.111500  1
  C  C1546  1  0.369300  0.017800  0.388500  1
  C  C1547  1  0.869300  0.482200  0.111500  1
  C  C1548  1  0.869300  0.517800  0.388500  1
  C  C1549  1  0.630700  0.017800  0.888500  1
  C  C1550  1  0.630700  0.982200  0.611500  1
  C  C1551  1  0.130700  0.517800  0.888500  1
  C  C1552  1  0.130700  0.482200  0.611500  1
  C  C1553  1  0.214100  0.942500  0.161520  1
  C  C1554  1  0.214100  0.057500  0.338480  1
  C  C1555  1  0.714100  0.442500  0.161520  1
  C  C1556  1  0.714100  0.557500  0.338480  1
  C  C1557  1  0.785900  0.057500  0.838480  1
  C  C1558  1  0.785900  0.942500  0.661520  1
  C  C1559  1  0.285900  0.557500  0.838480  1
  C  C1560  1  0.285900  0.442500  0.661520  1
  C  C1561  1  0.155800  0.923700  0.173010  1
  C  C1562  1  0.155800  0.076300  0.326990  1
  C  C1563  1  0.655800  0.423700  0.173010  1
  C  C1564  1  0.655800  0.576300  0.326990  1
  C  C1565  1  0.844200  0.076300  0.826990  1
  C  C1566  1  0.844200  0.923700  0.673010  1
  C  C1567  1  0.344200  0.576300  0.826990  1
  C  C1568  1  0.344200  0.423700  0.673010  1
  C  C1569  1  0.029400  0.917100  0.173310  1
  C  C1570  1  0.029400  0.082900  0.326690  1
  C  C1571  1  0.529400  0.417100  0.173310  1
  C  C1572  1  0.529400  0.582900  0.326690  1
  C  C1573  1  0.970600  0.082900  0.826690  1
  C  C1574  1  0.970600  0.917100  0.673310  1
  C  C1575  1  0.470600  0.582900  0.826690  1
  C  C1576  1  0.470600  0.417100  0.673310  1
  C  C1577  1  0.035200  0.892600  0.192790  1
  C  C1578  1  0.035200  0.107400  0.307210  1
  C  C1579  1  0.535200  0.392600  0.192790  1
  C  C1580  1  0.535200  0.607400  0.307210  1
  C  C1581  1  0.964800  0.107400  0.807210  1
  C  C1582  1  0.964800  0.892600  0.692790  1
  C  C1583  1  0.464800  0.607400  0.807210  1
  C  C1584  1  0.464800  0.392600  0.692790  1
  C  C1585  1  0.101400  0.885300  0.201850  1
  C  C1586  1  0.101400  0.114700  0.298150  1
  C  C1587  1  0.601400  0.385300  0.201850  1
  C  C1588  1  0.601400  0.614700  0.298150  1
  C  C1589  1  0.898600  0.114700  0.798150  1
  C  C1590  1  0.898600  0.885300  0.701850  1
  C  C1591  1  0.398600  0.614700  0.798150  1
  C  C1592  1  0.398600  0.385300  0.701850  1
  C  C1593  1  0.163500  0.899200  0.191840  1
  C  C1594  1  0.163500  0.100800  0.308160  1
  C  C1595  1  0.663500  0.399200  0.191840  1
  C  C1596  1  0.663500  0.600800  0.308160  1
  C  C1597  1  0.836500  0.100800  0.808160  1
  C  C1598  1  0.836500  0.899200  0.691840  1
  C  C1599  1  0.336500  0.600800  0.808160  1
  C  C1600  1  0.336500  0.399200  0.691840  1
  C  C1601  1  0.168100  0.228300  0.282160  1
  C  C1602  1  0.168100  0.771700  0.217840  1
  C  C1603  1  0.668100  0.728300  0.282160  1
  C  C1604  1  0.668100  0.271700  0.217840  1
  C  C1605  1  0.831900  0.771700  0.717840  1
  C  C1606  1  0.831900  0.228300  0.782160  1
  C  C1607  1  0.331900  0.271700  0.717840  1
  C  C1608  1  0.331900  0.728300  0.782160  1
  C  C1609  1  0.247200  0.235800  0.315480  1
  C  C1610  1  0.247200  0.764200  0.184520  1
  C  C1611  1  0.747200  0.735800  0.315480  1
  C  C1612  1  0.747200  0.264200  0.184520  1
  C  C1613  1  0.752800  0.764200  0.684520  1
  C  C1614  1  0.752800  0.235800  0.815480  1
  C  C1615  1  0.252800  0.264200  0.684520  1
  C  C1616  1  0.252800  0.735800  0.815480  1
  C  C1617  1  0.196200  0.218300  0.330510  1
  C  C1618  1  0.196200  0.781700  0.169490  1
  C  C1619  1  0.696200  0.718300  0.330510  1
  C  C1620  1  0.696200  0.281700  0.169490  1
  C  C1621  1  0.803800  0.781700  0.669490  1
  C  C1622  1  0.803800  0.218300  0.830510  1
  C  C1623  1  0.303800  0.281700  0.669490  1
  C  C1624  1  0.303800  0.718300  0.830510  1
  C  C1625  1  0.130200  0.206600  0.320210  1
  C  C1626  1  0.130200  0.793400  0.179790  1
  C  C1627  1  0.630200  0.706600  0.320210  1
  C  C1628  1  0.630200  0.293400  0.179790  1
  C  C1629  1  0.869800  0.793400  0.679790  1
  C  C1630  1  0.869800  0.206600  0.820210  1
  C  C1631  1  0.369800  0.293400  0.679790  1
  C  C1632  1  0.369800  0.706600  0.820210  1
  C  C1633  1  0.115800  0.211900  0.295780  1
  C  C1634  1  0.115800  0.788100  0.204220  1
  C  C1635  1  0.615800  0.711900  0.295780  1
  C  C1636  1  0.615800  0.288100  0.204220  1
  C  C1637  1  0.884200  0.788100  0.704220  1
  C  C1638  1  0.884200  0.211900  0.795780  1
  C  C1639  1  0.384200  0.288100  0.704220  1
  C  C1640  1  0.384200  0.711900  0.795780  1
  C  C1641  1  0.158500  0.234600  0.255780  1
  C  C1642  1  0.158500  0.765400  0.244220  1
  C  C1643  1  0.658500  0.734600  0.255780  1
  C  C1644  1  0.658500  0.265400  0.244220  1
  C  C1645  1  0.841500  0.765400  0.744220  1
  C  C1646  1  0.841500  0.234600  0.755780  1
  C  C1647  1  0.341500  0.265400  0.744220  1
  C  C1648  1  0.341500  0.734600  0.755780  1
  C  C1649  1  0.199500  0.259200  0.220080  1
  C  C1650  1  0.199500  0.740800  0.279920  1
  C  C1651  1  0.699500  0.759200  0.220080  1
  C  C1652  1  0.699500  0.240800  0.279920  1
  C  C1653  1  0.800500  0.740800  0.779920  1
  C  C1654  1  0.800500  0.259200  0.720080  1
  C  C1655  1  0.300500  0.240800  0.779920  1
  C  C1656  1  0.300500  0.759200  0.720080  1
  C  C1657  1  0.207600  0.231700  0.199840  1
  C  C1658  1  0.207600  0.768300  0.300160  1
  C  C1659  1  0.707600  0.731700  0.199840  1
  C  C1660  1  0.707600  0.268300  0.300160  1
  C  C1661  1  0.792400  0.768300  0.800160  1
  C  C1662  1  0.792400  0.231700  0.699840  1
  C  C1663  1  0.292400  0.268300  0.800160  1
  C  C1664  1  0.292400  0.731700  0.699840  1
  C  C1665  1  0.198000  0.242400  0.175820  1
  C  C1666  1  0.198000  0.757600  0.324180  1
  C  C1667  1  0.698000  0.742400  0.175820  1
  C  C1668  1  0.698000  0.257600  0.324180  1
  C  C1669  1  0.802000  0.757600  0.824180  1
  C  C1670  1  0.802000  0.242400  0.675820  1
  C  C1671  1  0.302000  0.257600  0.824180  1
  C  C1672  1  0.302000  0.742400  0.675820  1
  C  C1673  1  0.178700  0.280000  0.171820  1
  C  C1674  1  0.178700  0.720000  0.328180  1
  C  C1675  1  0.678700  0.780000  0.171820  1
  C  C1676  1  0.678700  0.220000  0.328180  1
  C  C1677  1  0.821300  0.720000  0.828180  1
  C  C1678  1  0.821300  0.280000  0.671820  1
  C  C1679  1  0.321300  0.220000  0.828180  1
  C  C1680  1  0.321300  0.780000  0.671820  1
  C  C1681  1  0.166700  0.306500  0.192790  1
  C  C1682  1  0.166700  0.693500  0.307210  1
  C  C1683  1  0.666700  0.806500  0.192790  1
  C  C1684  1  0.666700  0.193500  0.307210  1
  C  C1685  1  0.833300  0.693500  0.807210  1
  C  C1686  1  0.833300  0.306500  0.692790  1
  C  C1687  1  0.333300  0.193500  0.807210  1
  C  C1688  1  0.333300  0.806500  0.692790  1
  C  C1689  1  0.179000  0.295700  0.216630  1
  C  C1690  1  0.179000  0.704300  0.283370  1
  C  C1691  1  0.679000  0.795700  0.216630  1
  C  C1692  1  0.679000  0.204300  0.283370  1
  C  C1693  1  0.821000  0.704300  0.783370  1
  C  C1694  1  0.821000  0.295700  0.716630  1
  C  C1695  1  0.321000  0.204300  0.783370  1
  C  C1696  1  0.321000  0.795700  0.716630  1
  C  C1697  1  0.169700  0.290400  0.145980  1
  C  C1698  1  0.169700  0.709600  0.354020  1
  C  C1699  1  0.669700  0.790400  0.145980  1
  C  C1700  1  0.669700  0.209600  0.354020  1
  C  C1701  1  0.830300  0.709600  0.854020  1
  C  C1702  1  0.830300  0.290400  0.645980  1
  C  C1703  1  0.330300  0.209600  0.854020  1
  C  C1704  1  0.330300  0.790400  0.645980  1
  C  C1705  1  0.218400  0.278300  0.127610  1
  C  C1706  1  0.218400  0.721700  0.372390  1
  C  C1707  1  0.718400  0.778300  0.127610  1
  C  C1708  1  0.718400  0.221700  0.372390  1
  C  C1709  1  0.781600  0.721700  0.872390  1
  C  C1710  1  0.781600  0.278300  0.627610  1
  C  C1711  1  0.281600  0.221700  0.872390  1
  C  C1712  1  0.281600  0.778300  0.627610  1
  C  C1713  1  0.210700  0.286900  0.102890  1
  C  C1714  1  0.210700  0.713100  0.397110  1
  C  C1715  1  0.710700  0.786900  0.102890  1
  C  C1716  1  0.710700  0.213100  0.397110  1
  C  C1717  1  0.789300  0.713100  0.897110  1
  C  C1718  1  0.789300  0.286900  0.602890  1
  C  C1719  1  0.289300  0.213100  0.897110  1
  C  C1720  1  0.289300  0.786900  0.602890  1
  C  C1721  1  0.150800  0.308000  0.096880  1
  C  C1722  1  0.150800  0.692000  0.403120  1
  C  C1723  1  0.650800  0.808000  0.096880  1
  C  C1724  1  0.650800  0.192000  0.403120  1
  C  C1725  1  0.849200  0.692000  0.903120  1
  C  C1726  1  0.849200  0.308000  0.596880  1
  C  C1727  1  0.349200  0.192000  0.903120  1
  C  C1728  1  0.349200  0.808000  0.596880  1
  C  C1729  1  0.100100  0.321500  0.115580  1
  C  C1730  1  0.100100  0.678500  0.384420  1
  C  C1731  1  0.600100  0.821500  0.115580  1
  C  C1732  1  0.600100  0.178500  0.384420  1
  C  C1733  1  0.899900  0.678500  0.884420  1
  C  C1734  1  0.899900  0.321500  0.615580  1
  C  C1735  1  0.399900  0.178500  0.884420  1
  C  C1736  1  0.399900  0.821500  0.615580  1
  C  C1737  1  0.111000  0.312900  0.139460  1
  C  C1738  1  0.111000  0.687100  0.360540  1
  C  C1739  1  0.611000  0.812900  0.139460  1
  C  C1740  1  0.611000  0.187100  0.360540  1
  C  C1741  1  0.889000  0.687100  0.860540  1
  C  C1742  1  0.889000  0.312900  0.639460  1
  C  C1743  1  0.389000  0.187100  0.860540  1
  C  C1744  1  0.389000  0.812900  0.639460  1
  C  C1745  1  0.180300  0.340500  0.062470  1
  C  C1746  1  0.180300  0.659500  0.437530  1
  C  C1747  1  0.680300  0.840500  0.062470  1
  C  C1748  1  0.680300  0.159500  0.437530  1
  C  C1749  1  0.819700  0.659500  0.937530  1
  C  C1750  1  0.819700  0.340500  0.562470  1
  C  C1751  1  0.319700  0.159500  0.937530  1
  C  C1752  1  0.319700  0.840500  0.562470  1
  C  C1753  1  0.167700  0.346400  0.036310  1
  C  C1754  1  0.167700  0.653600  0.463690  1
  C  C1755  1  0.667700  0.846400  0.036310  1
  C  C1756  1  0.667700  0.153600  0.463690  1
  C  C1757  1  0.832300  0.653600  0.963690  1
  C  C1758  1  0.832300  0.346400  0.536310  1
  C  C1759  1  0.332300  0.153600  0.963690  1
  C  C1760  1  0.332300  0.846400  0.536310  1
  C  C1761  1  0.097300  0.327400  0.001480  1
  C  C1762  1  0.097300  0.672600  0.498520  1
  C  C1763  1  0.597300  0.827400  0.001480  1
  C  C1764  1  0.597300  0.172600  0.498520  1
  C  C1765  1  0.902700  0.672600  0.998520  1
  C  C1766  1  0.902700  0.327400  0.501480  1
  C  C1767  1  0.402700  0.172600  0.998520  1
  C  C1768  1  0.402700  0.827400  0.501480  1
  C  C1769  1  0.134900  0.352100  0.987720  1
  C  C1770  1  0.134900  0.647900  0.512280  1
  C  C1771  1  0.634900  0.852100  0.987720  1
  C  C1772  1  0.634900  0.147900  0.512280  1
  C  C1773  1  0.865100  0.647900  0.012280  1
  C  C1774  1  0.865100  0.352100  0.487720  1
  C  C1775  1  0.365100  0.147900  0.012280  1
  C  C1776  1  0.365100  0.852100  0.487720  1
  C  C1777  1  0.188800  0.376200  0.999220  1
  C  C1778  1  0.188800  0.623800  0.500780  1
  C  C1779  1  0.688800  0.876200  0.999220  1
  C  C1780  1  0.688800  0.123800  0.500780  1
  C  C1781  1  0.811200  0.623800  0.000780  1
  C  C1782  1  0.811200  0.376200  0.499220  1
  C  C1783  1  0.311200  0.123800  0.000780  1
  C  C1784  1  0.311200  0.876200  0.499220  1
  C  C1785  1  0.202700  0.375300  0.024740  1
  C  C1786  1  0.202700  0.624700  0.475260  1
  C  C1787  1  0.702700  0.875300  0.024740  1
  C  C1788  1  0.702700  0.124700  0.475260  1
  C  C1789  1  0.797300  0.624700  0.975260  1
  C  C1790  1  0.797300  0.375300  0.524740  1
  C  C1791  1  0.297300  0.124700  0.975260  1
  C  C1792  1  0.297300  0.875300  0.524740  1
  C  C1793  1  0.419800  0.232300  0.293360  1
  C  C1794  1  0.419800  0.767700  0.206640  1
  C  C1795  1  0.919800  0.732300  0.293360  1
  C  C1796  1  0.919800  0.267700  0.206640  1
  C  C1797  1  0.580200  0.767700  0.706640  1
  C  C1798  1  0.580200  0.232300  0.793360  1
  C  C1799  1  0.080200  0.267700  0.706640  1
  C  C1800  1  0.080200  0.732300  0.793360  1
  C  C1801  1  0.409000  0.298300  0.303260  1
  C  C1802  1  0.409000  0.701700  0.196740  1
  C  C1803  1  0.909000  0.798300  0.303260  1
  C  C1804  1  0.909000  0.201700  0.196740  1
  C  C1805  1  0.591000  0.701700  0.696740  1
  C  C1806  1  0.591000  0.298300  0.803260  1
  C  C1807  1  0.091000  0.201700  0.696740  1
  C  C1808  1  0.091000  0.798300  0.803260  1
  C  C1809  1  0.464700  0.298500  0.319300  1
  C  C1810  1  0.464700  0.701500  0.180700  1
  C  C1811  1  0.964700  0.798500  0.319300  1
  C  C1812  1  0.964700  0.201500  0.180700  1
  C  C1813  1  0.535300  0.701500  0.680700  1
  C  C1814  1  0.535300  0.298500  0.819300  1
  C  C1815  1  0.035300  0.201500  0.680700  1
  C  C1816  1  0.035300  0.798500  0.819300  1
  C  C1817  1  0.501200  0.265800  0.322530  1
  C  C1818  1  0.501200  0.734200  0.177470  1
  C  C1819  1  0.001200  0.765800  0.322530  1
  C  C1820  1  0.001200  0.234200  0.177470  1
  C  C1821  1  0.498800  0.734200  0.677470  1
  C  C1822  1  0.498800  0.265800  0.822530  1
  C  C1823  1  0.998800  0.234200  0.677470  1
  C  C1824  1  0.998800  0.765800  0.822530  1
  C  C1825  1  0.479800  0.231200  0.309150  1
  C  C1826  1  0.479800  0.768800  0.190850  1
  C  C1827  1  0.979800  0.731200  0.309150  1
  C  C1828  1  0.979800  0.268800  0.190850  1
  C  C1829  1  0.520200  0.768800  0.690850  1
  C  C1830  1  0.520200  0.231200  0.809150  1
  C  C1831  1  0.020200  0.268800  0.690850  1
  C  C1832  1  0.020200  0.731200  0.809150  1
  C  C1833  1  0.390400  0.199500  0.278100  1
  C  C1834  1  0.390400  0.800500  0.221900  1
  C  C1835  1  0.890400  0.699500  0.278100  1
  C  C1836  1  0.890400  0.300500  0.221900  1
  C  C1837  1  0.609600  0.800500  0.721900  1
  C  C1838  1  0.609600  0.199500  0.778100  1
  C  C1839  1  0.109600  0.300500  0.721900  1
  C  C1840  1  0.109600  0.699500  0.778100  1
  C  C1841  1  0.307400  0.173950  0.247690  1
  C  C1842  1  0.307400  0.826050  0.252310  1
  C  C1843  1  0.807400  0.673950  0.247690  1
  C  C1844  1  0.807400  0.326050  0.252310  1
  C  C1845  1  0.692600  0.826050  0.752310  1
  C  C1846  1  0.692600  0.173950  0.747690  1
  C  C1847  1  0.192600  0.326050  0.752310  1
  C  C1848  1  0.192600  0.673950  0.747690  1
  C  C1849  1  0.321900  0.168300  0.222570  1
  C  C1850  1  0.321900  0.831700  0.277430  1
  C  C1851  1  0.821900  0.668300  0.222570  1
  C  C1852  1  0.821900  0.331700  0.277430  1
  C  C1853  1  0.678100  0.831700  0.777430  1
  C  C1854  1  0.678100  0.168300  0.722570  1
  C  C1855  1  0.178100  0.331700  0.777430  1
  C  C1856  1  0.178100  0.668300  0.722570  1
  C  C1857  1  0.285700  0.138900  0.207710  1
  C  C1858  1  0.285700  0.861100  0.292290  1
  C  C1859  1  0.785700  0.638900  0.207710  1
  C  C1860  1  0.785700  0.361100  0.292290  1
  C  C1861  1  0.714300  0.861100  0.792290  1
  C  C1862  1  0.714300  0.138900  0.707710  1
  C  C1863  1  0.214300  0.361100  0.792290  1
  C  C1864  1  0.214300  0.638900  0.707710  1
  C  C1865  1  0.234800  0.116020  0.217840  1
  C  C1866  1  0.234800  0.883980  0.282160  1
  C  C1867  1  0.734800  0.616020  0.217840  1
  C  C1868  1  0.734800  0.383980  0.282160  1
  C  C1869  1  0.765200  0.883980  0.782160  1
  C  C1870  1  0.765200  0.116020  0.717840  1
  C  C1871  1  0.265200  0.383980  0.782160  1
  C  C1872  1  0.265200  0.616020  0.717840  1
  C  C1873  1  0.222400  0.121200  0.243910  1
  C  C1874  1  0.222400  0.878800  0.256090  1
  C  C1875  1  0.722400  0.621200  0.243910  1
  C  C1876  1  0.722400  0.378800  0.256090  1
  C  C1877  1  0.777600  0.878800  0.756090  1
  C  C1878  1  0.777600  0.121200  0.743910  1
  C  C1879  1  0.277600  0.378800  0.756090  1
  C  C1880  1  0.277600  0.621200  0.743910  1
  C  C1881  1  0.259400  0.149600  0.258650  1
  C  C1882  1  0.259400  0.850400  0.241350  1
  C  C1883  1  0.759400  0.649600  0.258650  1
  C  C1884  1  0.759400  0.350400  0.241350  1
  C  C1885  1  0.740600  0.850400  0.741350  1
  C  C1886  1  0.740600  0.149600  0.758650  1
  C  C1887  1  0.240600  0.350400  0.741350  1
  C  C1888  1  0.240600  0.649600  0.758650  1
  C  C1889  1  0.190300  0.088550  0.202150  1
  C  C1890  1  0.190300  0.911450  0.297850  1
  C  C1891  1  0.690300  0.588550  0.202150  1
  C  C1892  1  0.690300  0.411450  0.297850  1
  C  C1893  1  0.809700  0.911450  0.797850  1
  C  C1894  1  0.809700  0.088550  0.702150  1
  C  C1895  1  0.309700  0.411450  0.797850  1
  C  C1896  1  0.309700  0.588550  0.702150  1
  C  C1897  1  0.152700  0.098900  0.180990  1
  C  C1898  1  0.152700  0.901100  0.319010  1
  C  C1899  1  0.652700  0.598900  0.180990  1
  C  C1900  1  0.652700  0.401100  0.319010  1
  C  C1901  1  0.847300  0.901100  0.819010  1
  C  C1902  1  0.847300  0.098900  0.680990  1
  C  C1903  1  0.347300  0.401100  0.819010  1
  C  C1904  1  0.347300  0.598900  0.680990  1
  C  C1905  1  0.109400  0.073200  0.167020  1
  C  C1906  1  0.109400  0.926800  0.332980  1
  C  C1907  1  0.609400  0.573200  0.167020  1
  C  C1908  1  0.609400  0.426800  0.332980  1
  C  C1909  1  0.890600  0.926800  0.832980  1
  C  C1910  1  0.890600  0.073200  0.667020  1
  C  C1911  1  0.390600  0.426800  0.832980  1
  C  C1912  1  0.390600  0.573200  0.667020  1
  C  C1913  1  0.102300  0.035400  0.172530  1
  C  C1914  1  0.102300  0.964600  0.327470  1
  C  C1915  1  0.602300  0.535400  0.172530  1
  C  C1916  1  0.602300  0.464600  0.327470  1
  C  C1917  1  0.897700  0.964600  0.827470  1
  C  C1918  1  0.897700  0.035400  0.672530  1
  C  C1919  1  0.397700  0.464600  0.827470  1
  C  C1920  1  0.397700  0.535400  0.672530  1
  C  C1921  1  0.140300  0.024200  0.193500  1
  C  C1922  1  0.140300  0.975800  0.306500  1
  C  C1923  1  0.640300  0.524200  0.193500  1
  C  C1924  1  0.640300  0.475800  0.306500  1
  C  C1925  1  0.859700  0.975800  0.806500  1
  C  C1926  1  0.859700  0.024200  0.693500  1
  C  C1927  1  0.359700  0.475800  0.806500  1
  C  C1928  1  0.359700  0.524200  0.693500  1
  C  C1929  1  0.181000  0.049900  0.208170  1
  C  C1930  1  0.181000  0.950100  0.291830  1
  C  C1931  1  0.681000  0.549900  0.208170  1
  C  C1932  1  0.681000  0.450100  0.291830  1
  C  C1933  1  0.819000  0.950100  0.791830  1
  C  C1934  1  0.819000  0.049900  0.708170  1
  C  C1935  1  0.319000  0.450100  0.791830  1
  C  C1936  1  0.319000  0.549900  0.708170  1
  C  C1937  1  0.989000  0.012400  0.158710  1
  C  C1938  1  0.989000  0.987600  0.341290  1
  C  C1939  1  0.489000  0.512400  0.158710  1
  C  C1940  1  0.489000  0.487600  0.341290  1
  C  C1941  1  0.011000  0.987600  0.841290  1
  C  C1942  1  0.011000  0.012400  0.658710  1
  C  C1943  1  0.511000  0.487600  0.841290  1
  C  C1944  1  0.511000  0.512400  0.658710  1
  C  C1945  1  0.947300  0.984600  0.143300  1
  C  C1946  1  0.947300  0.015400  0.356700  1
  C  C1947  1  0.447300  0.484600  0.143300  1
  C  C1948  1  0.447300  0.515400  0.356700  1
  C  C1949  1  0.052700  0.015400  0.856700  1
  C  C1950  1  0.052700  0.984600  0.643300  1
  C  C1951  1  0.552700  0.515400  0.856700  1
  C  C1952  1  0.552700  0.484600  0.643300  1
  C  C1953  1  0.952500  0.932000  0.114090  1
  C  C1954  1  0.952500  0.068000  0.385910  1
  C  C1955  1  0.452500  0.432000  0.114090  1
  C  C1956  1  0.452500  0.568000  0.385910  1
  C  C1957  1  0.047500  0.068000  0.885910  1
  C  C1958  1  0.047500  0.932000  0.614090  1
  C  C1959  1  0.547500  0.568000  0.885910  1
  C  C1960  1  0.547500  0.432000  0.614090  1
  C  C1961  1  0.879100  0.929100  0.113840  1
  C  C1962  1  0.879100  0.070900  0.386160  1
  C  C1963  1  0.379100  0.429100  0.113840  1
  C  C1964  1  0.379100  0.570900  0.386160  1
  C  C1965  1  0.120900  0.070900  0.886160  1
  C  C1966  1  0.120900  0.929100  0.613840  1
  C  C1967  1  0.620900  0.570900  0.886160  1
  C  C1968  1  0.620900  0.429100  0.613840  1
  C  C1969  1  0.837400  0.954400  0.128450  1
  C  C1970  1  0.837400  0.045600  0.371550  1
  C  C1971  1  0.337400  0.454400  0.128450  1
  C  C1972  1  0.337400  0.545600  0.371550  1
  C  C1973  1  0.162600  0.045600  0.871550  1
  C  C1974  1  0.162600  0.954400  0.628450  1
  C  C1975  1  0.662600  0.545600  0.871550  1
  C  C1976  1  0.662600  0.454400  0.628450  1
  C  C1977  1  0.872100  0.982200  0.143630  1
  C  C1978  1  0.872100  0.017800  0.356370  1
  C  C1979  1  0.372100  0.482200  0.143630  1
  C  C1980  1  0.372100  0.517800  0.356370  1
  C  C1981  1  0.127900  0.017800  0.856370  1
  C  C1982  1  0.127900  0.982200  0.643630  1
  C  C1983  1  0.627900  0.517800  0.856370  1
  C  C1984  1  0.627900  0.482200  0.643630  1
  C  C1985  1  0.942800  0.321790  0.075490  1
  C  C1986  1  0.942800  0.678210  0.424510  1
  C  C1987  1  0.442800  0.821790  0.075490  1
  C  C1988  1  0.442800  0.178210  0.424510  1
  C  C1989  1  0.057200  0.678210  0.924510  1
  C  C1990  1  0.057200  0.321790  0.575490  1
  C  C1991  1  0.557200  0.178210  0.924510  1
  C  C1992  1  0.557200  0.821790  0.575490  1
  C  C1993  1  0.986800  0.366200  0.050550  1
  C  C1994  1  0.986800  0.633800  0.449450  1
  C  C1995  1  0.486800  0.866200  0.050550  1
  C  C1996  1  0.486800  0.133800  0.449450  1
  C  C1997  1  0.013200  0.633800  0.949450  1
  C  C1998  1  0.013200  0.366200  0.550550  1
  C  C1999  1  0.513200  0.133800  0.949450  1
  C  C2000  1  0.513200  0.866200  0.550550  1
  C  C2001  1  0.930000  0.391600  0.058990  1
  C  C2002  1  0.930000  0.608400  0.441010  1
  C  C2003  1  0.430000  0.891600  0.058990  1
  C  C2004  1  0.430000  0.108400  0.441010  1
  C  C2005  1  0.070000  0.608400  0.941010  1
  C  C2006  1  0.070000  0.391600  0.558990  1
  C  C2007  1  0.570000  0.108400  0.941010  1
  C  C2008  1  0.570000  0.891600  0.558990  1
  C  C2009  1  0.879900  0.380600  0.075200  1
  C  C2010  1  0.879900  0.619400  0.424800  1
  C  C2011  1  0.379900  0.880600  0.075200  1
  C  C2012  1  0.379900  0.119400  0.424800  1
  C  C2013  1  0.120100  0.619400  0.924800  1
  C  C2014  1  0.120100  0.380600  0.575200  1
  C  C2015  1  0.620100  0.119400  0.924800  1
  C  C2016  1  0.620100  0.880600  0.575200  1
  C  C2017  1  0.885300  0.344700  0.084470  1
  C  C2018  1  0.885300  0.655300  0.415530  1
  C  C2019  1  0.385300  0.844700  0.084470  1
  C  C2020  1  0.385300  0.155300  0.415530  1
  C  C2021  1  0.114700  0.655300  0.915530  1
  C  C2022  1  0.114700  0.344700  0.584470  1
  C  C2023  1  0.614700  0.155300  0.915530  1
  C  C2024  1  0.614700  0.844700  0.584470  1
  C  C2025  1  0.954200  0.282640  0.082670  1
  C  C2026  1  0.954200  0.717360  0.417330  1
  C  C2027  1  0.454200  0.782640  0.082670  1
  C  C2028  1  0.454200  0.217360  0.417330  1
  C  C2029  1  0.045800  0.717360  0.917330  1
  C  C2030  1  0.045800  0.282640  0.582670  1
  C  C2031  1  0.545800  0.217360  0.917330  1
  C  C2032  1  0.545800  0.782640  0.582670  1
  C  C2033  1  0.020300  0.225320  0.079790  1
  C  C2034  1  0.020300  0.774680  0.420210  1
  C  C2035  1  0.520300  0.725320  0.079790  1
  C  C2036  1  0.520300  0.274680  0.420210  1
  C  C2037  1  0.979700  0.774680  0.920210  1
  C  C2038  1  0.979700  0.225320  0.579790  1
  C  C2039  1  0.479700  0.274680  0.920210  1
  C  C2040  1  0.479700  0.725320  0.579790  1
  C  C2041  1  0.983700  0.194900  0.066780  1
  C  C2042  1  0.983700  0.805100  0.433220  1
  C  C2043  1  0.483700  0.694900  0.066780  1
  C  C2044  1  0.483700  0.305100  0.433220  1
  C  C2045  1  0.016300  0.805100  0.933220  1
  C  C2046  1  0.016300  0.194900  0.566780  1
  C  C2047  1  0.516300  0.305100  0.933220  1
  C  C2048  1  0.516300  0.694900  0.566780  1
  C  C2049  1  0.994100  0.157600  0.072430  1
  C  C2050  1  0.994100  0.842400  0.427570  1
  C  C2051  1  0.494100  0.657600  0.072430  1
  C  C2052  1  0.494100  0.342400  0.427570  1
  C  C2053  1  0.005900  0.842400  0.927570  1
  C  C2054  1  0.005900  0.157600  0.572430  1
  C  C2055  1  0.505900  0.342400  0.927570  1
  C  C2056  1  0.505900  0.657600  0.572430  1
  C  C2057  1  0.045400  0.149900  0.090670  1
  C  C2058  1  0.045400  0.850100  0.409330  1
  C  C2059  1  0.545400  0.649900  0.090670  1
  C  C2060  1  0.545400  0.350100  0.409330  1
  C  C2061  1  0.954600  0.850100  0.909330  1
  C  C2062  1  0.954600  0.149900  0.590670  1
  C  C2063  1  0.454600  0.350100  0.909330  1
  C  C2064  1  0.454600  0.649900  0.590670  1
  C  C2065  1  0.080400  0.181200  0.104180  1
  C  C2066  1  0.080400  0.818800  0.395820  1
  C  C2067  1  0.580400  0.681200  0.104180  1
  C  C2068  1  0.580400  0.318800  0.395820  1
  C  C2069  1  0.919600  0.818800  0.895820  1
  C  C2070  1  0.919600  0.181200  0.604180  1
  C  C2071  1  0.419600  0.318800  0.895820  1
  C  C2072  1  0.419600  0.681200  0.604180  1
  C  C2073  1  0.067900  0.218600  0.098660  1
  C  C2074  1  0.067900  0.781400  0.401340  1
  C  C2075  1  0.567900  0.718600  0.098660  1
  C  C2076  1  0.567900  0.281400  0.401340  1
  C  C2077  1  0.932100  0.781400  0.901340  1
  C  C2078  1  0.932100  0.218600  0.598660  1
  C  C2079  1  0.432100  0.281400  0.901340  1
  C  C2080  1  0.432100  0.718600  0.598660  1
  C  C2081  1  0.060400  0.109600  0.095560  1
  C  C2082  1  0.060400  0.890400  0.404440  1
  C  C2083  1  0.560400  0.609600  0.095560  1
  C  C2084  1  0.560400  0.390400  0.404440  1
  C  C2085  1  0.939600  0.890400  0.904440  1
  C  C2086  1  0.939600  0.109600  0.595560  1
  C  C2087  1  0.439600  0.390400  0.904440  1
  C  C2088  1  0.439600  0.609600  0.595560  1
  C  C2089  1  0.004900  0.083600  0.099320  1
  C  C2090  1  0.004900  0.916400  0.400680  1
  C  C2091  1  0.504900  0.583600  0.099320  1
  C  C2092  1  0.504900  0.416400  0.400680  1
  C  C2093  1  0.995100  0.916400  0.900680  1
  C  C2094  1  0.995100  0.083600  0.599320  1
  C  C2095  1  0.495100  0.416400  0.900680  1
  C  C2096  1  0.495100  0.583600  0.599320  1
  C  C2097  1  0.020600  0.046100  0.103220  1
  C  C2098  1  0.020600  0.953900  0.396780  1
  C  C2099  1  0.520600  0.546100  0.103220  1
  C  C2100  1  0.520600  0.453900  0.396780  1
  C  C2101  1  0.979400  0.953900  0.896780  1
  C  C2102  1  0.979400  0.046100  0.603220  1
  C  C2103  1  0.479400  0.453900  0.896780  1
  C  C2104  1  0.479400  0.546100  0.603220  1
  C  C2105  1  0.091900  0.033000  0.103070  1
  C  C2106  1  0.091900  0.967000  0.396930  1
  C  C2107  1  0.591900  0.533000  0.103070  1
  C  C2108  1  0.591900  0.467000  0.396930  1
  C  C2109  1  0.908100  0.967000  0.896930  1
  C  C2110  1  0.908100  0.033000  0.603070  1
  C  C2111  1  0.408100  0.467000  0.896930  1
  C  C2112  1  0.408100  0.533000  0.603070  1
  C  C2113  1  0.148200  0.059400  0.099790  1
  C  C2114  1  0.148200  0.940600  0.400210  1
  C  C2115  1  0.648200  0.559400  0.099790  1
  C  C2116  1  0.648200  0.440600  0.400210  1
  C  C2117  1  0.851800  0.940600  0.900210  1
  C  C2118  1  0.851800  0.059400  0.599790  1
  C  C2119  1  0.351800  0.440600  0.900210  1
  C  C2120  1  0.351800  0.559400  0.599790  1
  C  C2121  1  0.132100  0.097100  0.096660  1
  C  C2122  1  0.132100  0.902900  0.403340  1
  C  C2123  1  0.632100  0.597100  0.096660  1
  C  C2124  1  0.632100  0.402900  0.403340  1
  C  C2125  1  0.867900  0.902900  0.903340  1
  C  C2126  1  0.867900  0.097100  0.596660  1
  C  C2127  1  0.367900  0.402900  0.903340  1
  C  C2128  1  0.367900  0.597100  0.596660  1
  C  C2129  1  0.135000  0.973900  0.087400  1
  C  C2130  1  0.135000  0.026100  0.412600  1
  C  C2131  1  0.635000  0.473900  0.087400  1
  C  C2132  1  0.635000  0.526100  0.412600  1
  C  C2133  1  0.865000  0.026100  0.912600  1
  C  C2134  1  0.865000  0.973900  0.587400  1
  C  C2135  1  0.365000  0.526100  0.912600  1
  C  C2136  1  0.365000  0.473900  0.587400  1
  C  C2137  1  0.146400  0.933300  0.088770  1
  C  C2138  1  0.146400  0.066700  0.411230  1
  C  C2139  1  0.646400  0.433300  0.088770  1
  C  C2140  1  0.646400  0.566700  0.411230  1
  C  C2141  1  0.853600  0.066700  0.911230  1
  C  C2142  1  0.853600  0.933300  0.588770  1
  C  C2143  1  0.353600  0.566700  0.911230  1
  C  C2144  1  0.353600  0.433300  0.588770  1
  C  C2145  1  0.131800  0.883600  0.113140  1
  C  C2146  1  0.131800  0.116400  0.386860  1
  C  C2147  1  0.631800  0.383600  0.113140  1
  C  C2148  1  0.631800  0.616400  0.386860  1
  C  C2149  1  0.868200  0.116400  0.886860  1
  C  C2150  1  0.868200  0.883600  0.613140  1
  C  C2151  1  0.368200  0.616400  0.886860  1
  C  C2152  1  0.368200  0.383600  0.613140  1
  C  C2153  1  0.160000  0.858500  0.094820  1
  C  C2154  1  0.160000  0.141500  0.405180  1
  C  C2155  1  0.660000  0.358500  0.094820  1
  C  C2156  1  0.660000  0.641500  0.405180  1
  C  C2157  1  0.840000  0.141500  0.905180  1
  C  C2158  1  0.840000  0.858500  0.594820  1
  C  C2159  1  0.340000  0.641500  0.905180  1
  C  C2160  1  0.340000  0.358500  0.594820  1
  C  C2161  1  0.182900  0.870600  0.073300  1
  C  C2162  1  0.182900  0.129400  0.426700  1
  C  C2163  1  0.682900  0.370600  0.073300  1
  C  C2164  1  0.682900  0.629400  0.426700  1
  C  C2165  1  0.817100  0.129400  0.926700  1
  C  C2166  1  0.817100  0.870600  0.573300  1
  C  C2167  1  0.317100  0.629400  0.926700  1
  C  C2168  1  0.317100  0.370600  0.573300  1
  C  C2169  1  0.177400  0.908200  0.069700  1
  C  C2170  1  0.177400  0.091800  0.430300  1
  C  C2171  1  0.677400  0.408200  0.069700  1
  C  C2172  1  0.677400  0.591800  0.430300  1
  C  C2173  1  0.822600  0.091800  0.930300  1
  C  C2174  1  0.822600  0.908200  0.569700  1
  C  C2175  1  0.322600  0.591800  0.930300  1
  C  C2176  1  0.322600  0.408200  0.569700  1
  C  C2177  1  0.690400  0.989900  0.962700  1
  C  C2178  1  0.690400  0.010100  0.537300  1
  C  C2179  1  0.190400  0.489900  0.962700  1
  C  C2180  1  0.190400  0.510100  0.537300  1
  C  C2181  1  0.309600  0.010100  0.037300  1
  C  C2182  1  0.309600  0.989900  0.462700  1
  C  C2183  1  0.809600  0.510100  0.037300  1
  C  C2184  1  0.809600  0.489900  0.462700  1
  S  S2185  1  0.658770  0.153830  0.843510  1
  S  S2186  1  0.658770  0.846170  0.656490  1
  S  S2187  1  0.158770  0.653830  0.843510  1
  S  S2188  1  0.158770  0.346170  0.656490  1
  S  S2189  1  0.341230  0.846170  0.156490  1
  S  S2190  1  0.341230  0.153830  0.343510  1
  S  S2191  1  0.841230  0.346170  0.156490  1
  S  S2192  1  0.841230  0.653830  0.343510  1
  S  S2193  1  0.604300  0.632350  0.952470  1
  S  S2194  1  0.604300  0.367650  0.547530  1
  S  S2195  1  0.104300  0.132350  0.952470  1
  S  S2196  1  0.104300  0.867650  0.547530  1
  S  S2197  1  0.395700  0.367650  0.047530  1
  S  S2198  1  0.395700  0.632350  0.452470  1
  S  S2199  1  0.895700  0.867650  0.047530  1
  S  S2200  1  0.895700  0.132350  0.452470  1
  S  S2201  1  0.867900  0.564980  0.900130  1
  S  S2202  1  0.867900  0.435020  0.599870  1
  S  S2203  1  0.367900  0.064980  0.900130  1
  S  S2204  1  0.367900  0.935020  0.599870  1
  S  S2205  1  0.132100  0.435020  0.099870  1
  S  S2206  1  0.132100  0.564980  0.400130  1
  S  S2207  1  0.632100  0.935020  0.099870  1
  S  S2208  1  0.632100  0.064980  0.400130  1
  S  S2209  1  0.720000  0.033610  0.981260  1
  S  S2210  1  0.720000  0.966390  0.518740  1
  S  S2211  1  0.220000  0.533610  0.981260  1
  S  S2212  1  0.220000  0.466390  0.518740  1
  S  S2213  1  0.280000  0.966390  0.018740  1
  S  S2214  1  0.280000  0.033610  0.481260  1
  S  S2215  1  0.780000  0.466390  0.018740  1
  S  S2216  1  0.780000  0.533610  0.481260  1
  S  S2217  1  0.383100  0.466000  0.217900  1
  S  S2218  1  0.383100  0.534000  0.282100  1
  S  S2219  1  0.883100  0.966000  0.217900  1
  S  S2220  1  0.883100  0.034000  0.282100  1
  S  S2221  1  0.616900  0.534000  0.782100  1
  S  S2222  1  0.616900  0.466000  0.717900  1
  S  S2223  1  0.116900  0.034000  0.782100  1
  S  S2224  1  0.116900  0.966000  0.717900  1
  S  S2225  1  0.321500  0.399000  0.191900  1
  S  S2226  1  0.321500  0.601000  0.308100  1
  S  S2227  1  0.821500  0.899000  0.191900  1
  S  S2228  1  0.821500  0.101000  0.308100  1
  S  S2229  1  0.678500  0.601000  0.808100  1
  S  S2230  1  0.678500  0.399000  0.691900  1
  S  S2231  1  0.178500  0.101000  0.808100  1
  S  S2232  1  0.178500  0.899000  0.691900  1
  S  S2233  1  0.754700  0.010200  0.986100  1
  S  S2234  1  0.754700  0.989800  0.513900  1
  S  S2235  1  0.254700  0.510200  0.986100  1
  S  S2236  1  0.254700  0.489800  0.513900  1
  S  S2237  1  0.245300  0.989800  0.013900  1
  S  S2238  1  0.245300  0.010200  0.486100  1
  S  S2239  1  0.745300  0.489800  0.013900  1
  S  S2240  1  0.745300  0.510200  0.486100  1
  I  I2241  1  0.287450  0.157563  0.134259  1
  I  I2242  1  0.287450  0.842437  0.365741  1
  I  I2243  1  0.787450  0.657563  0.134259  1
  I  I2244  1  0.787450  0.342437  0.365741  1
  I  I2245  1  0.712550  0.842437  0.865741  1
  I  I2246  1  0.712550  0.157563  0.634259  1
  I  I2247  1  0.212550  0.342437  0.865741  1
  I  I2248  1  0.212550  0.657563  0.634259  1
  I  I2249  1  0.861990  0.100212  0.162122  1
  I  I2250  1  0.861990  0.899788  0.337878  1
  I  I2251  1  0.361990  0.600212  0.162122  1
  I  I2252  1  0.361990  0.399788  0.337878  1
  I  I2253  1  0.138010  0.899788  0.837878  1
  I  I2254  1  0.138010  0.100212  0.662122  1
  I  I2255  1  0.638010  0.399788  0.837878  1
  I  I2256  1  0.638010  0.600212  0.662122  1
  I  I2257  1  0.740700  0.229795  0.947063  1
  I  I2258  1  0.740700  0.770205  0.552937  1
  I  I2259  1  0.240700  0.729795  0.947063  1
  I  I2260  1  0.240700  0.270205  0.552937  1
  I  I2261  1  0.259300  0.770205  0.052937  1
  I  I2262  1  0.259300  0.229795  0.447063  1
  I  I2263  1  0.759300  0.270205  0.052937  1
  I  I2264  1  0.759300  0.729795  0.447063  1
  I  I2265  1  0.593900  0.646660  0.941710  1
  I  I2266  1  0.593900  0.353340  0.558290  1
  I  I2267  1  0.093900  0.146660  0.941710  1
  I  I2268  1  0.093900  0.853340  0.558290  1
  I  I2269  1  0.406100  0.353340  0.058290  1
  I  I2270  1  0.406100  0.646660  0.441710  1
  I  I2271  1  0.906100  0.853340  0.058290  1
  I  I2272  1  0.906100  0.146660  0.441710  1
  N  N2273  1  0.522900  0.336100  0.256330  1
  N  N2274  1  0.522900  0.663900  0.243670  1
  N  N2275  1  0.022900  0.836100  0.256330  1
  N  N2276  1  0.022900  0.163900  0.243670  1
  N  N2277  1  0.477100  0.663900  0.743670  1
  N  N2278  1  0.477100  0.336100  0.756330  1
  N  N2279  1  0.977100  0.163900  0.743670  1
  N  N2280  1  0.977100  0.836100  0.756330  1
  N  N2281  1  0.066400  0.210200  0.377500  1
  N  N2282  1  0.066400  0.789800  0.122500  1
  N  N2283  1  0.566400  0.710200  0.377500  1
  N  N2284  1  0.566400  0.289800  0.122500  1
  N  N2285  1  0.933600  0.789800  0.622500  1
  N  N2286  1  0.933600  0.210200  0.877500  1
  N  N2287  1  0.433600  0.289800  0.622500  1
  N  N2288  1  0.433600  0.710200  0.877500  1
  N  N2289  1  0.339000  0.439300  0.186100  1
  N  N2290  1  0.339000  0.560700  0.313900  1
  N  N2291  1  0.839000  0.939300  0.186100  1
  N  N2292  1  0.839000  0.060700  0.313900  1
  N  N2293  1  0.661000  0.560700  0.813900  1
  N  N2294  1  0.661000  0.439300  0.686100  1
  N  N2295  1  0.161000  0.060700  0.813900  1
  N  N2296  1  0.161000  0.939300  0.686100  1
  N  N2297  1  0.737000  0.086100  0.080070  1
  N  N2298  1  0.737000  0.913900  0.419930  1
  N  N2299  1  0.237000  0.586100  0.080070  1
  N  N2300  1  0.237000  0.413900  0.419930  1
  N  N2301  1  0.263000  0.913900  0.919930  1
  N  N2302  1  0.263000  0.086100  0.580070  1
  N  N2303  1  0.763000  0.413900  0.919930  1
  N  N2304  1  0.763000  0.586100  0.580070  1
  N  N2305  1  0.659600  0.116270  0.116630  1
  N  N2306  1  0.659600  0.883730  0.383370  1
  N  N2307  1  0.159600  0.616270  0.116630  1
  N  N2308  1  0.159600  0.383730  0.383370  1
  N  N2309  1  0.340400  0.883730  0.883370  1
  N  N2310  1  0.340400  0.116270  0.616630  1
  N  N2311  1  0.840400  0.383730  0.883370  1
  N  N2312  1  0.840400  0.616270  0.616630  1
  N  N2313  1  0.360300  0.278800  0.239490  1
  N  N2314  1  0.360300  0.721200  0.260510  1
  N  N2315  1  0.860300  0.778800  0.239490  1
  N  N2316  1  0.860300  0.221200  0.260510  1
  N  N2317  1  0.639700  0.721200  0.760510  1
  N  N2318  1  0.639700  0.278800  0.739490  1
  N  N2319  1  0.139700  0.221200  0.760510  1
  N  N2320  1  0.139700  0.778800  0.739490  1
  N  N2321  1  0.272700  0.314200  0.270960  1
  N  N2322  1  0.272700  0.685800  0.229040  1
  N  N2323  1  0.772700  0.814200  0.270960  1
  N  N2324  1  0.772700  0.185800  0.229040  1
  N  N2325  1  0.727300  0.685800  0.729040  1
  N  N2326  1  0.727300  0.314200  0.770960  1
  N  N2327  1  0.227300  0.185800  0.729040  1
  N  N2328  1  0.227300  0.814200  0.770960  1
  N  N2329  1  0.760300  0.165280  0.098450  1
  N  N2330  1  0.760300  0.834720  0.401550  1
  N  N2331  1  0.260300  0.665280  0.098450  1
  N  N2332  1  0.260300  0.334720  0.401550  1
  N  N2333  1  0.239700  0.834720  0.901550  1
  N  N2334  1  0.239700  0.165280  0.598450  1
  N  N2335  1  0.739700  0.334720  0.901550  1
  N  N2336  1  0.739700  0.665280  0.598450  1
  N  N2337  1  0.630500  0.184720  0.088430  1
  N  N2338  1  0.630500  0.815280  0.411570  1
  N  N2339  1  0.130500  0.684720  0.088430  1
  N  N2340  1  0.130500  0.315280  0.411570  1
  N  N2341  1  0.369500  0.815280  0.911570  1
  N  N2342  1  0.369500  0.184720  0.588430  1
  N  N2343  1  0.869500  0.315280  0.911570  1
  N  N2344  1  0.869500  0.684720  0.588430  1
  N  N2345  1  0.127700  0.246100  0.036040  1
  N  N2346  1  0.127700  0.753900  0.463960  1
  N  N2347  1  0.627700  0.746100  0.036040  1
  N  N2348  1  0.627700  0.253900  0.463960  1
  N  N2349  1  0.872300  0.753900  0.963960  1
  N  N2350  1  0.872300  0.246100  0.536040  1
  N  N2351  1  0.372300  0.253900  0.963960  1
  N  N2352  1  0.372300  0.746100  0.536040  1
  N  N2353  1  0.999000  0.265060  0.022390  1
  N  N2354  1  0.999000  0.734940  0.477610  1
  N  N2355  1  0.499000  0.765060  0.022390  1
  N  N2356  1  0.499000  0.234940  0.477610  1
  N  N2357  1  0.001000  0.734940  0.977610  1
  N  N2358  1  0.001000  0.265060  0.522390  1
  N  N2359  1  0.501000  0.234940  0.977610  1
  N  N2360  1  0.501000  0.765060  0.522390  1
  N  N2361  1  0.697800  0.144430  0.048640  1
  N  N2362  1  0.697800  0.855570  0.451360  1
  N  N2363  1  0.197800  0.644430  0.048640  1
  N  N2364  1  0.197800  0.355570  0.451360  1
  N  N2365  1  0.302200  0.855570  0.951360  1
  N  N2366  1  0.302200  0.144430  0.548640  1
  N  N2367  1  0.802200  0.355570  0.951360  1
  N  N2368  1  0.802200  0.644430  0.548640  1
  N  N2369  1  0.595300  0.105290  0.066710  1
  N  N2370  1  0.595300  0.894710  0.433290  1
  N  N2371  1  0.095300  0.605290  0.066710  1
  N  N2372  1  0.095300  0.394710  0.433290  1
  N  N2373  1  0.404700  0.894710  0.933290  1
  N  N2374  1  0.404700  0.105290  0.566710  1
  N  N2375  1  0.904700  0.394710  0.933290  1
  N  N2376  1  0.904700  0.605290  0.566710  1
  N  N2377  1  0.197800  0.966120  0.145900  1
  N  N2378  1  0.197800  0.033880  0.354100  1
  N  N2379  1  0.697800  0.466120  0.145900  1
  N  N2380  1  0.697800  0.533880  0.354100  1
  N  N2381  1  0.802200  0.033880  0.854100  1
  N  N2382  1  0.802200  0.966120  0.645900  1
  N  N2383  1  0.302200  0.533880  0.854100  1
  N  N2384  1  0.302200  0.466120  0.645900  1
  N  N2385  1  0.089300  0.931640  0.163450  1
  N  N2386  1  0.089300  0.068360  0.336550  1
  N  N2387  1  0.589300  0.431640  0.163450  1
  N  N2388  1  0.589300  0.568360  0.336550  1
  N  N2389  1  0.910700  0.068360  0.836550  1
  N  N2390  1  0.910700  0.931640  0.663450  1
  N  N2391  1  0.410700  0.568360  0.836550  1
  N  N2392  1  0.410700  0.431640  0.663450  1
  N  N2393  1  0.233900  0.241210  0.291520  1
  N  N2394  1  0.233900  0.758790  0.208480  1
  N  N2395  1  0.733900  0.741210  0.291520  1
  N  N2396  1  0.733900  0.258790  0.208480  1
  N  N2397  1  0.766100  0.758790  0.708480  1
  N  N2398  1  0.766100  0.241210  0.791520  1
  N  N2399  1  0.266100  0.258790  0.708480  1
  N  N2400  1  0.266100  0.741210  0.791520  1
  N  N2401  1  0.213100  0.249210  0.245010  1
  N  N2402  1  0.213100  0.750790  0.254990  1
  N  N2403  1  0.713100  0.749210  0.245010  1
  N  N2404  1  0.713100  0.250790  0.254990  1
  N  N2405  1  0.786900  0.750790  0.754990  1
  N  N2406  1  0.786900  0.249210  0.745010  1
  N  N2407  1  0.286900  0.250790  0.754990  1
  N  N2408  1  0.286900  0.749210  0.745010  1
  N  N2409  1  0.138300  0.315640  0.071250  1
  N  N2410  1  0.138300  0.684360  0.428750  1
  N  N2411  1  0.638300  0.815640  0.071250  1
  N  N2412  1  0.638300  0.184360  0.428750  1
  N  N2413  1  0.861700  0.684360  0.928750  1
  N  N2414  1  0.861700  0.315640  0.571250  1
  N  N2415  1  0.361700  0.184360  0.928750  1
  N  N2416  1  0.361700  0.815640  0.571250  1
  N  N2417  1  0.112700  0.323900  0.025370  1
  N  N2418  1  0.112700  0.676100  0.474630  1
  N  N2419  1  0.612700  0.823900  0.025370  1
  N  N2420  1  0.612700  0.176100  0.474630  1
  N  N2421  1  0.887300  0.676100  0.974630  1
  N  N2422  1  0.887300  0.323900  0.525370  1
  N  N2423  1  0.387300  0.176100  0.974630  1
  N  N2424  1  0.387300  0.823900  0.525370  1
  N  N2425  1  0.383800  0.265530  0.289840  1
  N  N2426  1  0.383800  0.734470  0.210160  1
  N  N2427  1  0.883800  0.765530  0.289840  1
  N  N2428  1  0.883800  0.234470  0.210160  1
  N  N2429  1  0.616200  0.734470  0.710160  1
  N  N2430  1  0.616200  0.265530  0.789840  1
  N  N2431  1  0.116200  0.234470  0.710160  1
  N  N2432  1  0.116200  0.765530  0.789840  1
  N  N2433  1  0.339400  0.206570  0.262890  1
  N  N2434  1  0.339400  0.793430  0.237110  1
  N  N2435  1  0.839400  0.706570  0.262890  1
  N  N2436  1  0.839400  0.293430  0.237110  1
  N  N2437  1  0.660600  0.793430  0.737110  1
  N  N2438  1  0.660600  0.206570  0.762890  1
  N  N2439  1  0.160600  0.293430  0.737110  1
  N  N2440  1  0.160600  0.706570  0.762890  1
  N  N2441  1  0.059400  0.008800  0.157530  1
  N  N2442  1  0.059400  0.991200  0.342470  1
  N  N2443  1  0.559400  0.508800  0.157530  1
  N  N2444  1  0.559400  0.491200  0.342470  1
  N  N2445  1  0.940600  0.991200  0.842470  1
  N  N2446  1  0.940600  0.008800  0.657530  1
  N  N2447  1  0.440600  0.491200  0.842470  1
  N  N2448  1  0.440600  0.508800  0.657530  1
  N  N2449  1  0.987600  0.959450  0.129330  1
  N  N2450  1  0.987600  0.040550  0.370670  1
  N  N2451  1  0.487600  0.459450  0.129330  1
  N  N2452  1  0.487600  0.540550  0.370670  1
  N  N2453  1  0.012400  0.040550  0.870670  1
  N  N2454  1  0.012400  0.959450  0.629330  1
  N  N2455  1  0.512400  0.540550  0.870670  1
  N  N2456  1  0.512400  0.459450  0.629330  1
  N  N2457  1  0.992500  0.331440  0.058820  1
  N  N2458  1  0.992500  0.668560  0.441180  1
  N  N2459  1  0.492500  0.831440  0.058820  1
  N  N2460  1  0.492500  0.168560  0.441180  1
  N  N2461  1  0.007500  0.668560  0.941180  1
  N  N2462  1  0.007500  0.331440  0.558820  1
  N  N2463  1  0.507500  0.168560  0.941180  1
  N  N2464  1  0.507500  0.831440  0.558820  1
  N  N2465  1  0.009500  0.264380  0.073290  1
  N  N2466  1  0.009500  0.735620  0.426710  1
  N  N2467  1  0.509500  0.764380  0.073290  1
  N  N2468  1  0.509500  0.235620  0.426710  1
  N  N2469  1  0.990500  0.735620  0.926710  1
  N  N2470  1  0.990500  0.264380  0.573290  1
  N  N2471  1  0.490500  0.235620  0.926710  1
  N  N2472  1  0.490500  0.764380  0.573290  1
  N  N2473  1  0.107900  0.993930  0.105950  1
  N  N2474  1  0.107900  0.006070  0.394050  1
  N  N2475  1  0.607900  0.493930  0.105950  1
  N  N2476  1  0.607900  0.506070  0.394050  1
  N  N2477  1  0.892100  0.006070  0.894050  1
  N  N2478  1  0.892100  0.993930  0.605950  1
  N  N2479  1  0.392100  0.506070  0.894050  1
  N  N2480  1  0.392100  0.493930  0.605950  1
  N  N2481  1  0.124300  0.921700  0.110550  1
  N  N2482  1  0.124300  0.078300  0.389450  1
  N  N2483  1  0.624300  0.421700  0.110550  1
  N  N2484  1  0.624300  0.578300  0.389450  1
  N  N2485  1  0.875700  0.078300  0.889450  1
  N  N2486  1  0.875700  0.921700  0.610550  1
  N  N2487  1  0.375700  0.578300  0.889450  1
  N  N2488  1  0.375700  0.421700  0.610550  1
  O  O2489  1  0.706700  0.134760  0.859650  1
  O  O2490  1  0.706700  0.865240  0.640350  1
  O  O2491  1  0.206700  0.634760  0.859650  1
  O  O2492  1  0.206700  0.365240  0.640350  1
  O  O2493  1  0.293300  0.865240  0.140350  1
  O  O2494  1  0.293300  0.134760  0.359650  1
  O  O2495  1  0.793300  0.365240  0.140350  1
  O  O2496  1  0.793300  0.634760  0.359650  1
  O  O2497  1  0.679500  0.151900  0.817550  1
  O  O2498  1  0.679500  0.848100  0.682450  1
  O  O2499  1  0.179500  0.651900  0.817550  1
  O  O2500  1  0.179500  0.348100  0.682450  1
  O  O2501  1  0.320500  0.848100  0.182450  1
  O  O2502  1  0.320500  0.151900  0.317550  1
  O  O2503  1  0.820500  0.348100  0.182450  1
  O  O2504  1  0.820500  0.651900  0.317550  1
  O  O2505  1  0.629100  0.190450  0.853710  1
  O  O2506  1  0.629100  0.809550  0.646290  1
  O  O2507  1  0.129100  0.690450  0.853710  1
  O  O2508  1  0.129100  0.309550  0.646290  1
  O  O2509  1  0.370900  0.809550  0.146290  1
  O  O2510  1  0.370900  0.190450  0.353710  1
  O  O2511  1  0.870900  0.309550  0.146290  1
  O  O2512  1  0.870900  0.690450  0.353710  1
  O  O2513  1  0.659200  0.625900  0.933510  1
  O  O2514  1  0.659200  0.374100  0.566490  1
  O  O2515  1  0.159200  0.125900  0.933510  1
  O  O2516  1  0.159200  0.874100  0.566490  1
  O  O2517  1  0.340800  0.374100  0.066490  1
  O  O2518  1  0.340800  0.625900  0.433510  1
  O  O2519  1  0.840800  0.874100  0.066490  1
  O  O2520  1  0.840800  0.125900  0.433510  1
  O  O2521  1  0.629400  0.652730  0.975180  1
  O  O2522  1  0.629400  0.347270  0.524820  1
  O  O2523  1  0.129400  0.152730  0.975180  1
  O  O2524  1  0.129400  0.847270  0.524820  1
  O  O2525  1  0.370600  0.347270  0.024820  1
  O  O2526  1  0.370600  0.652730  0.475180  1
  O  O2527  1  0.870600  0.847270  0.024820  1
  O  O2528  1  0.870600  0.152730  0.475180  1
  O  O2529  1  0.534500  0.644200  0.943830  1
  O  O2530  1  0.534500  0.355800  0.556170  1
  O  O2531  1  0.034500  0.144200  0.943830  1
  O  O2532  1  0.034500  0.855800  0.556170  1
  O  O2533  1  0.465500  0.355800  0.056170  1
  O  O2534  1  0.465500  0.644200  0.443830  1
  O  O2535  1  0.965500  0.855800  0.056170  1
  O  O2536  1  0.965500  0.144200  0.443830  1
  O  O2537  1  0.865100  0.526620  0.907640  1
  O  O2538  1  0.865100  0.473380  0.592360  1
  O  O2539  1  0.365100  0.026620  0.907640  1
  O  O2540  1  0.365100  0.973380  0.592360  1
  O  O2541  1  0.134900  0.473380  0.092360  1
  O  O2542  1  0.134900  0.526620  0.407640  1
  O  O2543  1  0.634900  0.973380  0.092360  1
  O  O2544  1  0.634900  0.026620  0.407640  1
  O  O2545  1  0.798500  0.583500  0.899410  1
  O  O2546  1  0.798500  0.416500  0.600590  1
  O  O2547  1  0.298500  0.083500  0.899410  1
  O  O2548  1  0.298500  0.916500  0.600590  1
  O  O2549  1  0.201500  0.416500  0.100590  1
  O  O2550  1  0.201500  0.583500  0.399410  1
  O  O2551  1  0.701500  0.916500  0.100590  1
  O  O2552  1  0.701500  0.083500  0.399410  1
  O  O2553  1  0.926100  0.588600  0.910960  1
  O  O2554  1  0.926100  0.411400  0.589040  1
  O  O2555  1  0.426100  0.088600  0.910960  1
  O  O2556  1  0.426100  0.911400  0.589040  1
  O  O2557  1  0.073900  0.411400  0.089040  1
  O  O2558  1  0.073900  0.588600  0.410960  1
  O  O2559  1  0.573900  0.911400  0.089040  1
  O  O2560  1  0.573900  0.088600  0.410960  1
  O  O2561  1  0.695900  0.062300  0.965770  1
  O  O2562  1  0.695900  0.937700  0.534230  1
  O  O2563  1  0.195900  0.562300  0.965770  1
  O  O2564  1  0.195900  0.437700  0.534230  1
  O  O2565  1  0.304100  0.937700  0.034230  1
  O  O2566  1  0.304100  0.062300  0.465770  1
  O  O2567  1  0.804100  0.437700  0.034230  1
  O  O2568  1  0.804100  0.562300  0.465770  1
  O  O2569  1  0.797200  0.028300  0.981600  1
  O  O2570  1  0.797200  0.971700  0.518400  1
  O  O2571  1  0.297200  0.528300  0.981600  1
  O  O2572  1  0.297200  0.471700  0.518400  1
  O  O2573  1  0.202800  0.971700  0.018400  1
  O  O2574  1  0.202800  0.028300  0.481600  1
  O  O2575  1  0.702800  0.471700  0.018400  1
  O  O2576  1  0.702800  0.528300  0.481600  1
  O  O2577  1  0.684500  0.034500  0.005070  1
  O  O2578  1  0.684500  0.965500  0.494930  1
  O  O2579  1  0.184500  0.534500  0.005070  1
  O  O2580  1  0.184500  0.465500  0.494930  1
  O  O2581  1  0.315500  0.965500  0.994930  1
  O  O2582  1  0.315500  0.034500  0.505070  1
  O  O2583  1  0.815500  0.465500  0.994930  1
  O  O2584  1  0.815500  0.534500  0.505070  1
  O  O2585  1  0.434800  0.494400  0.210400  1
  O  O2586  1  0.434800  0.505600  0.289600  1
  O  O2587  1  0.934800  0.994400  0.210400  1
  O  O2588  1  0.934800  0.005600  0.289600  1
  O  O2589  1  0.565200  0.505600  0.789600  1
  O  O2590  1  0.565200  0.494400  0.710400  1
  O  O2591  1  0.065200  0.005600  0.789600  1
  O  O2592  1  0.065200  0.994400  0.710400  1
  O  O2593  1  0.400200  0.455300  0.242200  1
  O  O2594  1  0.400200  0.544700  0.257800  1
  O  O2595  1  0.900200  0.955300  0.242200  1
  O  O2596  1  0.900200  0.044700  0.257800  1
  O  O2597  1  0.599800  0.544700  0.757800  1
  O  O2598  1  0.599800  0.455300  0.742200  1
  O  O2599  1  0.099800  0.044700  0.757800  1
  O  O2600  1  0.099800  0.955300  0.742200  1
  O  O2601  1  0.246000  0.400700  0.199700  1
  O  O2602  1  0.246000  0.599300  0.300300  1
  O  O2603  1  0.746000  0.900700  0.199700  1
  O  O2604  1  0.746000  0.099300  0.300300  1
  O  O2605  1  0.754000  0.599300  0.800300  1
  O  O2606  1  0.754000  0.400700  0.699700  1
  O  O2607  1  0.254000  0.099300  0.800300  1
  O  O2608  1  0.254000  0.900700  0.699700  1
  O  O2609  1  0.372800  0.390600  0.211300  1
  O  O2610  1  0.372800  0.609400  0.288700  1
  O  O2611  1  0.872800  0.890600  0.211300  1
  O  O2612  1  0.872800  0.109400  0.288700  1
  O  O2613  1  0.627200  0.609400  0.788700  1
  O  O2614  1  0.627200  0.390600  0.711300  1
  O  O2615  1  0.127200  0.109400  0.788700  1
  O  O2616  1  0.127200  0.890600  0.711300  1
  O  O2617  1  0.771400  0.978100  0.999900  1
  O  O2618  1  0.771400  0.021900  0.500100  1
  O  O2619  1  0.271400  0.478100  0.999900  1
  O  O2620  1  0.271400  0.521900  0.500100  1
  O  O2621  1  0.228600  0.021900  0.000100  1
  O  O2622  1  0.228600  0.978100  0.499900  1
  O  O2623  1  0.728600  0.521900  0.000100  1
  O  O2624  1  0.728600  0.478100  0.499900  1
  O  O2625  1  0.714100  0.040200  0.999800  1
  O  O2626  1  0.714100  0.959800  0.500200  1
  O  O2627  1  0.214100  0.540200  0.999800  1
  O  O2628  1  0.214100  0.459800  0.500200  1
  O  O2629  1  0.285900  0.959800  0.000200  1
  O  O2630  1  0.285900  0.040200  0.499800  1
  O  O2631  1  0.785900  0.459800  0.000200  1
  O  O2632  1  0.785900  0.540200  0.499800  1
  O  O2633  1  0.813500  0.022700  0.971200  1
  O  O2634  1  0.813500  0.977300  0.528800  1
  O  O2635  1  0.313500  0.522700  0.971200  1
  O  O2636  1  0.313500  0.477300  0.528800  1
  O  O2637  1  0.186500  0.977300  0.028800  1
  O  O2638  1  0.186500  0.022700  0.471200  1
  O  O2639  1  0.686500  0.477300  0.028800  1
  O  O2640  1  0.686500  0.522700  0.471200  1
  F  F2641  1  0.594000  0.086790  0.833360  1
  F  F2642  1  0.594000  0.913210  0.666640  1
  F  F2643  1  0.094000  0.586790  0.833360  1
  F  F2644  1  0.094000  0.413210  0.666640  1
  F  F2645  1  0.406000  0.913210  0.166640  1
  F  F2646  1  0.406000  0.086790  0.333360  1
  F  F2647  1  0.906000  0.413210  0.166640  1
  F  F2648  1  0.906000  0.586790  0.333360  1
  F  F2649  1  0.526900  0.136380  0.826550  1
  F  F2650  1  0.526900  0.863620  0.673450  1
  F  F2651  1  0.026900  0.636380  0.826550  1
  F  F2652  1  0.026900  0.363620  0.673450  1
  F  F2653  1  0.473100  0.863620  0.173450  1
  F  F2654  1  0.473100  0.136380  0.326550  1
  F  F2655  1  0.973100  0.363620  0.173450  1
  F  F2656  1  0.973100  0.636380  0.326550  1
  F  F2657  1  0.548300  0.122220  0.863900  1
  F  F2658  1  0.548300  0.877780  0.636100  1
  F  F2659  1  0.048300  0.622220  0.863900  1
  F  F2660  1  0.048300  0.377780  0.636100  1
  F  F2661  1  0.451700  0.877780  0.136100  1
  F  F2662  1  0.451700  0.122220  0.363900  1
  F  F2663  1  0.951700  0.377780  0.136100  1
  F  F2664  1  0.951700  0.622220  0.363900  1
  F  F2665  1  0.535600  0.584500  0.979040  1
  F  F2666  1  0.535600  0.415500  0.520960  1
  F  F2667  1  0.035600  0.084500  0.979040  1
  F  F2668  1  0.035600  0.915500  0.520960  1
  F  F2669  1  0.464400  0.415500  0.020960  1
  F  F2670  1  0.464400  0.584500  0.479040  1
  F  F2671  1  0.964400  0.915500  0.020960  1
  F  F2672  1  0.964400  0.084500  0.479040  1
  F  F2673  1  0.560800  0.560930  0.942020  1
  F  F2674  1  0.560800  0.439070  0.557980  1
  F  F2675  1  0.060800  0.060930  0.942020  1
  F  F2676  1  0.060800  0.939070  0.557980  1
  F  F2677  1  0.439200  0.439070  0.057980  1
  F  F2678  1  0.439200  0.560930  0.442020  1
  F  F2679  1  0.939200  0.939070  0.057980  1
  F  F2680  1  0.939200  0.060930  0.442020  1
  F  F2681  1  0.645600  0.568290  0.969480  1
  F  F2682  1  0.645600  0.431710  0.530520  1
  F  F2683  1  0.145600  0.068290  0.969480  1
  F  F2684  1  0.145600  0.931710  0.530520  1
  F  F2685  1  0.354400  0.431710  0.030520  1
  F  F2686  1  0.354400  0.568290  0.469480  1
  F  F2687  1  0.854400  0.931710  0.030520  1
  F  F2688  1  0.854400  0.068290  0.469480  1
  F  F2689  1  0.898900  0.590200  0.857040  1
  F  F2690  1  0.898900  0.409800  0.642960  1
  F  F2691  1  0.398900  0.090200  0.857040  1
  F  F2692  1  0.398900  0.909800  0.642960  1
  F  F2693  1  0.101100  0.409800  0.142960  1
  F  F2694  1  0.101100  0.590200  0.357040  1
  F  F2695  1  0.601100  0.909800  0.142960  1
  F  F2696  1  0.601100  0.090200  0.357040  1
  F  F2697  1  0.958700  0.540300  0.864520  1
  F  F2698  1  0.958700  0.459700  0.635480  1
  F  F2699  1  0.458700  0.040300  0.864520  1
  F  F2700  1  0.458700  0.959700  0.635480  1
  F  F2701  1  0.041300  0.459700  0.135480  1
  F  F2702  1  0.041300  0.540300  0.364520  1
  F  F2703  1  0.541300  0.959700  0.135480  1
  F  F2704  1  0.541300  0.040300  0.364520  1
  F  F2705  1  0.845900  0.535200  0.854350  1
  F  F2706  1  0.845900  0.464800  0.645650  1
  F  F2707  1  0.345900  0.035200  0.854350  1
  F  F2708  1  0.345900  0.964800  0.645650  1
  F  F2709  1  0.154100  0.464800  0.145650  1
  F  F2710  1  0.154100  0.535200  0.354350  1
  F  F2711  1  0.654100  0.964800  0.145650  1
  F  F2712  1  0.654100  0.035200  0.354350  1
  F  F2713  1  0.704700  0.958340  0.976700  1
  F  F2714  1  0.704700  0.041660  0.523300  1
  F  F2715  1  0.204700  0.458340  0.976700  1
  F  F2716  1  0.204700  0.541660  0.523300  1
  F  F2717  1  0.295300  0.041660  0.023300  1
  F  F2718  1  0.295300  0.958340  0.476700  1
  F  F2719  1  0.795300  0.541660  0.023300  1
  F  F2720  1  0.795300  0.458340  0.476700  1
  F  F2721  1  0.614400  0.988500  0.963100  1
  F  F2722  1  0.614400  0.011500  0.536900  1
  F  F2723  1  0.114400  0.488500  0.963100  1
  F  F2724  1  0.114400  0.511500  0.536900  1
  F  F2725  1  0.385600  0.011500  0.036900  1
  F  F2726  1  0.385600  0.988500  0.463100  1
  F  F2727  1  0.885600  0.511500  0.036900  1
  F  F2728  1  0.885600  0.488500  0.463100  1
  F  F2729  1  0.713700  0.983300  0.942040  1
  F  F2730  1  0.713700  0.016700  0.557960  1
  F  F2731  1  0.213700  0.483300  0.942040  1
  F  F2732  1  0.213700  0.516700  0.557960  1
  F  F2733  1  0.286300  0.016700  0.057960  1
  F  F2734  1  0.286300  0.983300  0.442040  1
  F  F2735  1  0.786300  0.516700  0.057960  1
  F  F2736  1  0.786300  0.483300  0.442040  1
  F  F2737  1  0.294300  0.512700  0.202600  1
  F  F2738  1  0.294300  0.487300  0.297400  1
  F  F2739  1  0.794300  0.012700  0.202600  1
  F  F2740  1  0.794300  0.987300  0.297400  1
  F  F2741  1  0.705700  0.487300  0.797400  1
  F  F2742  1  0.705700  0.512700  0.702600  1
  F  F2743  1  0.205700  0.987300  0.797400  1
  F  F2744  1  0.205700  0.012700  0.702600  1
  F  F2745  1  0.309000  0.524500  0.243500  1
  F  F2746  1  0.309000  0.475500  0.256500  1
  F  F2747  1  0.809000  0.024500  0.243500  1
  F  F2748  1  0.809000  0.975500  0.256500  1
  F  F2749  1  0.691000  0.475500  0.756500  1
  F  F2750  1  0.691000  0.524500  0.743500  1
  F  F2751  1  0.191000  0.975500  0.756500  1
  F  F2752  1  0.191000  0.024500  0.743500  1
  F  F2753  1  0.245200  0.473500  0.228100  1
  F  F2754  1  0.245200  0.526500  0.271900  1
  F  F2755  1  0.745200  0.973500  0.228100  1
  F  F2756  1  0.745200  0.026500  0.271900  1
  F  F2757  1  0.754800  0.526500  0.771900  1
  F  F2758  1  0.754800  0.473500  0.728100  1
  F  F2759  1  0.254800  0.026500  0.771900  1
  F  F2760  1  0.254800  0.973500  0.728100  1
  F  F2761  1  0.328300  0.328100  0.171700  1
  F  F2762  1  0.328300  0.671900  0.328300  1
  F  F2763  1  0.828300  0.828100  0.171700  1
  F  F2764  1  0.828300  0.171900  0.328300  1
  F  F2765  1  0.671700  0.671900  0.828300  1
  F  F2766  1  0.671700  0.328100  0.671700  1
  F  F2767  1  0.171700  0.171900  0.828300  1
  F  F2768  1  0.171700  0.828100  0.671700  1
  F  F2769  1  0.394700  0.370000  0.155400  1
  F  F2770  1  0.394700  0.630000  0.344600  1
  F  F2771  1  0.894700  0.870000  0.155400  1
  F  F2772  1  0.894700  0.130000  0.344600  1
  F  F2773  1  0.605300  0.630000  0.844600  1
  F  F2774  1  0.605300  0.370000  0.655400  1
  F  F2775  1  0.105300  0.130000  0.844600  1
  F  F2776  1  0.105300  0.870000  0.655400  1
  F  F2777  1  0.277900  0.371400  0.151200  1
  F  F2778  1  0.277900  0.628600  0.348800  1
  F  F2779  1  0.777900  0.871400  0.151200  1
  F  F2780  1  0.777900  0.128600  0.348800  1
  F  F2781  1  0.722100  0.628600  0.848800  1
  F  F2782  1  0.722100  0.371400  0.651200  1
  F  F2783  1  0.222100  0.128600  0.848800  1
  F  F2784  1  0.222100  0.871400  0.651200  1
  F  F2785  1  0.667700  0.016100  0.948000  1
  F  F2786  1  0.667700  0.983900  0.552000  1
  F  F2787  1  0.167700  0.516100  0.948000  1
  F  F2788  1  0.167700  0.483900  0.552000  1
  F  F2789  1  0.332300  0.983900  0.052000  1
  F  F2790  1  0.332300  0.016100  0.448000  1
  F  F2791  1  0.832300  0.483900  0.052000  1
  F  F2792  1  0.832300  0.516100  0.448000  1
  F  F2793  1  0.719000  0.961400  0.947800  1
  F  F2794  1  0.719000  0.038600  0.552200  1
  F  F2795  1  0.219000  0.461400  0.947800  1
  F  F2796  1  0.219000  0.538600  0.552200  1
  F  F2797  1  0.281000  0.038600  0.052200  1
  F  F2798  1  0.281000  0.961400  0.447800  1
  F  F2799  1  0.781000  0.538600  0.052200  1
  F  F2800  1  0.781000  0.461400  0.447800  1
  F  F2801  1  0.631600  0.976300  0.973200  1
  F  F2802  1  0.631600  0.023700  0.526800  1
  F  F2803  1  0.131600  0.476300  0.973200  1
  F  F2804  1  0.131600  0.523700  0.526800  1
  F  F2805  1  0.368400  0.023700  0.026800  1
  F  F2806  1  0.368400  0.976300  0.473200  1
  F  F2807  1  0.868400  0.523700  0.026800  1
  F  F2808  1  0.868400  0.476300  0.473200  1
