
#######################################################################
#
#                 Cambridge Crystallographic Data Centre
#                                CCDC 
#
#######################################################################
#
# If this CIF has been generated from an entry in the Cambridge 
# Structural Database, then it will include bibliographic, chemical, 
# crystal, experimental, refinement or atomic coordinate data resulting 
# from the CCDC's data processing and validation procedures.
#
#######################################################################

data_RAPXEO
_chemical_formula_moiety         
'2(C144 H108 Fe4 N24 8+),C2 F6 N1 O4 S2 1-,7(C1 F3 O3 S1 1-),4(C2 H3 N1),8(I1 1-),2(C4 H10 O1)'
_chemical_name_systematic        
"bis(hexakis(\m-N,N'-bis(pyridin-2-ylmethylene)biphenyl-4,4'-diamine)-tetra-iron) bis((trifluoromethyl)sulfonyl)amide octakis(iodide) heptakis(trifluoromethanesulfonate) acetonitrile diethyl ether solvate"
_symmetry_cell_setting           monoclinic
_symmetry_space_group_name_H-M   'C 2/c'
_symmetry_Int_Tables_number      15
_space_group_name_Hall           '-C 2yn'
loop_
_symmetry_equiv_pos_site_id
_symmetry_equiv_pos_as_xyz
1 x,y,z
2 -x,y,1/2-z
3 1/2+x,1/2+y,z
4 1/2-x,1/2+y,1/2-z
5 -x,-y,-z
6 x,-y,1/2+z
7 1/2-x,1/2-y,-z
8 1/2+x,1/2-y,1/2+z
_cell_length_a                   34.740(13)
_cell_length_b                   18.276(7)
_cell_length_c                   53.69(2)
_cell_angle_alpha                90
_cell_angle_beta                 95.757(5)
_cell_angle_gamma                90
_cell_volume                     33916.3
_exptl_crystal_colour            purple
_exptl_crystal_description       needle
_cell_formula_units_Z            4
loop_
_atom_site_label
_atom_site_type_symbol
_atom_site_fract_x
_atom_site_fract_y
_atom_site_fract_z
C145 C 0.8775(3) 0.4223(5) 0.15755(17)
O1 O 0.86524(19) 0.2933(3) 0.14035(11)
O2 O 0.8481(2) 0.3205(4) 0.18245(12)
O3 O 0.80955(17) 0.3709(4) 0.14629(12)
F1 F 0.91321(15) 0.4060(3) 0.16664(12)
F2 F 0.86362(19) 0.4731(3) 0.17345(13)
F3 F 0.87778(19) 0.4517(3) 0.13610(12)
S1 S 0.84617(6) 0.34123(12) 0.15649(4)
C146 C 0.6376(4) -0.5087(5) -0.26444(17)
C147 C 0.5993(3) -0.4882(6) -0.2762(2)
H109 H 0.5853 -0.4615 -0.2642
H110 H 0.5849 -0.5324 -0.2816
H111 H 0.6022 -0.4570 -0.2908
N25 N 0.6639(3) -0.5229(5) -0.25633(19)
C148 C 0.7929(5) -0.0070(6) -0.3792(3)
C149 C 0.8042(5) 0.0721(6) -0.3858(3)
H112 H 0.8263 0.0880 -0.3742
H113 H 0.7822 0.1048 -0.3843
H114 H 0.8113 0.0735 -0.4030
N26 N 0.7898(4) -0.0664(6) -0.3775(2)
S2 S 0.36765(14) 0.3957(3) 0.04753(10)
C150 C 0.41581(15) 0.4141(3) 0.03893(11)
F4 F 0.4155(2) 0.4644(4) 0.02096(13)
O4 O 0.3741(2) 0.3408(4) 0.06649(13)
O5 O 0.34727(18) 0.3706(4) 0.02482(13)
O6 O 0.3558(2) 0.4655(3) 0.05617(15)
F5 F 0.43907(17) 0.4392(4) 0.05798(14)
F6 F 0.43171(19) 0.3544(4) 0.03052(15)
S3 S 0.43502(15) 0.1321(3) 0.09987(13)
C151 C 0.44285(17) 0.1058(3) 0.13250(13)
F7 F 0.4098(2) 0.1011(5) 0.14296(16)
O7 O 0.47338(19) 0.1349(5) 0.09236(16)
O8 O 0.4165(2) 0.2015(3) 0.10059(17)
O9 O 0.4114(2) 0.0739(4) 0.08904(15)
F8 F 0.4597(2) 0.0413(4) 0.13548(16)
F9 F 0.4648(2) 0.1541(4) 0.14565(14)
S4 S 0.96639(18) -0.7200(5) 0.01874(13)
O10 O 0.9377(2) -0.6959(7) 0.03423(19)
O11 O 0.9717(3) -0.7972(4) 0.0184(2)
O12 O 0.9655(3) -0.6845(7) -0.00507(13)
F10 F 1.04166(18) -0.7047(7) 0.0233(2)
F11 F 1.0115(3) -0.6144(5) 0.0369(2)
F12 F 1.0167(3) -0.7137(7) 0.05796(14)
C152 C 1.0111(2) -0.6865(5) 0.03506(13)
N27 N 0.5607(13) -0.339(2) -0.1861(9)
S6 S 0.5340(5) -0.3831(9) -0.2179(3)
S7 S 0.6010(5) -0.3215(8) -0.1919(3)
O16 O 0.5056(9) -0.4348(16) -0.2104(7)
O17 O 0.5447(12) -0.4002(19) -0.2422(5)
O18 O 0.5993(9) -0.2460(10) -0.1997(5)
O19 O 0.6094(8) -0.3728(12) -0.2113(4)
C154 C 0.5052(12) -0.308(3) -0.2241(5)
C155 C 0.6348(6) -0.3314(12) -0.1675(4)
F16 F 0.4873(8) -0.2943(16) -0.2026(5)
F17 F 0.4755(8) -0.3090(17) -0.2435(5)
F18 F 0.5265(8) -0.2452(10) -0.2281(5)
F19 F 0.6719(9) -0.3283(13) -0.1717(6)
F20 F 0.6300(9) -0.3947(13) -0.1554(6)
F21 F 0.6286(9) -0.2779(13) -0.1512(6)
I2 I 0.842437(13) -0.28745(2) -0.134259(9)
I3 I 0.899788(18) -0.86199(4) -0.162122(12)
I4 I 0.770205(13) 0.25930(2) 0.052937(8)
C1 C 0.9334(3) -0.7375(5) -0.10160(19)
C2 C 0.9293(3) -0.7750(5) -0.06002(19)
H1 H 0.9175 -0.7720 -0.0448
C3 C 0.9614(3) -0.8177(5) -0.06081(19)
H2 H 0.9705 -0.8475 -0.0470
C4 C 0.9805(3) -0.8166(5) -0.08238(18)
H3 H 1.0035 -0.8441 -0.0829
C5 C 0.9665(3) -0.7766(5) -0.10265(19)
H4 H 0.9797 -0.7760 -0.1173
C6 C 0.9147(2) -0.6943(4) -0.12159(15)
H5 H 0.9244 -0.6912 -0.1375
C7 C 0.8637(2) -0.6159(4) -0.13578(12)
C8 C 0.8313(3) -0.6450(4) -0.14963(13)
H6 H 0.8241 -0.6944 -0.1472
C9 C 0.8106(2) -0.6036(4) -0.16635(14)
H7 H 0.7892 -0.6253 -0.1761
C10 C 0.8185(2) -0.5300(4) -0.17036(12)
C11 C 0.8512(2) -0.5014(4) -0.15689(14)
H8 H 0.8582 -0.4519 -0.1594
C12 C 0.8736(2) -0.5441(4) -0.13991(14)
H9 H 0.8962 -0.5239 -0.1310
C13 C 0.7928(2) -0.4870(4) -0.18801(13)
C14 C 0.7875(2) -0.5061(4) -0.21314(13)
H10 H 0.8006 -0.5474 -0.2189
C15 C 0.7626(2) -0.4643(4) -0.23034(12)
H11 H 0.7591 -0.4776 -0.2475
C16 C 0.7440(2) -0.4054(4) -0.22198(13)
C17 C 0.7480(2) -0.3854(5) -0.19669(13)
H12 H 0.7340 -0.3452 -0.1910
C18 C 0.7735(2) -0.4265(4) -0.17988(14)
H13 H 0.7774 -0.4123 -0.1628
C19 C 0.6855(2) -0.3522(5) -0.23672(16)
H14 H 0.6735 -0.3762 -0.2238
C20 C 0.6640(2) -0.3035(5) -0.25479(17)
C21 C 0.6691(3) -0.2255(6) -0.28825(16)
H15 H 0.6845 -0.2030 -0.2998
C22 C 0.6304(4) -0.2098(8) -0.2894(2)
H16 H 0.6192 -0.1773 -0.3019
C23 C 0.6080(3) -0.2393(8) -0.2732(3)
H17 H 0.5812 -0.2283 -0.2740
C24 C 0.6256(3) -0.2878(7) -0.2545(2)
H18 H 0.6110 -0.3086 -0.2422
C25 C 0.7969(2) -0.7462(3) -0.10330(13)
C26 C 0.8461(2) -0.8252(3) -0.10665(14)
H19 H 0.8728 -0.8374 -0.1038
C27 C 0.8215(3) -0.8750(4) -0.11886(15)
H20 H 0.8314 -0.9204 -0.1241
C28 C 0.7839(2) -0.8603(4) -0.12343(13)
H21 H 0.7666 -0.8943 -0.1320
C29 C 0.7706(2) -0.7930(4) -0.11509(13)
H22 H 0.7439 -0.7804 -0.1176
C30 C 0.7870(2) -0.6717(4) -0.09613(12)
H23 H 0.7610 -0.6551 -0.0972
C31 C 0.8054(2) -0.5585(3) -0.08115(13)
C32 C 0.7863(2) -0.5490(4) -0.06013(14)
H24 H 0.7793 -0.5900 -0.0507
C33 C 0.7775(3) -0.4781(4) -0.05289(14)
H25 H 0.7659 -0.4713 -0.0378
C34 C 0.7852(2) -0.4175(4) -0.06701(16)
C35 C 0.8012(3) -0.4307(4) -0.08945(16)
H26 H 0.8048 -0.3908 -0.1003
C36 C 0.8120(3) -0.4997(4) -0.09623(15)
H27 H 0.8239 -0.5068 -0.1112
C37 C 0.7772(2) -0.3421(4) -0.05847(15)
C38 C 0.7998(2) -0.2832(4) -0.06541(15)
H28 H 0.8203 -0.2915 -0.0756
C39 C 0.7924(2) -0.2131(4) -0.05749(14)
H29 H 0.8084 -0.1736 -0.0615
C40 C 0.7612(2) -0.2006(4) -0.04355(13)
C41 C 0.7395(3) -0.2574(4) -0.03690(16)
H30 H 0.7191 -0.2485 -0.0267
C42 C 0.7462(3) -0.3287(4) -0.04462(17)
H31 H 0.7298 -0.3676 -0.0405
C43 C 0.7777(2) -0.0985(4) -0.01997(14)
H32 H 0.8003 -0.1236 -0.0133
C44 C 0.76926(19) -0.0244(4) -0.01179(13)
C45 C 0.7240(2) 0.0675(3) -0.01598(12)
H33 H 0.7002 0.0867 -0.0236
C46 C 0.7463(2) 0.1099(4) 0.00161(12)
H34 H 0.7377 0.1572 0.0058
C47 C 0.7808(2) 0.0834(4) 0.01297(14)
H35 H 0.7960 0.1114 0.0252
C48 C 0.7931(2) 0.0135(4) 0.00595(14)
H36 H 0.8169 -0.0068 0.0131
C49 C 0.8712(2) -0.6473(4) -0.03152(14)
C50 C 0.8346(2) -0.7512(4) -0.03982(16)
H37 H 0.8232 -0.7872 -0.0510
C51 C 0.8292(2) -0.7553(5) -0.01458(17)
H38 H 0.8138 -0.7938 -0.0090
C52 C 0.8453(2) -0.7054(5) 0.00243(15)
H39 H 0.8417 -0.7085 0.0197
C53 C 0.8667(2) -0.6509(5) -0.00676(15)
H40 H 0.8786 -0.6152 0.0043
C54 C 0.8926(2) -0.5923(4) -0.04242(15)
H41 H 0.9050 -0.5544 -0.0325
C55 C 0.9175(2) -0.5387(4) -0.07733(14)
C56 C 0.9032(3) -0.4673(4) -0.07811(16)
H42 H 0.8805 -0.4551 -0.0705
C57 C 0.9232(3) -0.4144(4) -0.09031(18)
H43 H 0.9134 -0.3659 -0.0917
C58 C 0.9572(2) -0.4312(4) -0.10051(14)
C59 C 0.9706(2) -0.5021(4) -0.09917(15)
H44 H 0.9939 -0.5144 -0.1061
C60 C 0.9501(2) -0.5558(4) -0.08771(14)
H45 H 0.9592 -0.6049 -0.0872
C61 C 0.9784(2) -0.3720(4) -0.11252(15)
C62 C 0.9573(2) -0.3193(4) -0.12689(19)
H46 H 0.9299 -0.3224 -0.1290
C63 C 0.9751(2) -0.2637(4) -0.13792(18)
H47 H 0.9601 -0.2286 -0.1477
C64 C 1.0150(2) -0.2582(4) -0.13489(16)
C65 C 1.0369(2) -0.3133(4) -0.12170(17)
H48 H 1.0644 -0.3115 -0.1200
C66 C 1.0178(2) -0.3693(5) -0.11150(17)
H49 H 1.0325 -0.4079 -0.1034
C67 C 1.0575(2) -0.2141(4) -0.16152(14)
H50 H 1.0625 -0.2637 -0.1654
C68 C 1.0763(2) -0.1558(4) -0.17301(15)
C69 C 1.0829(2) -0.0294(4) -0.17331(16)
H51 H 1.0767 0.0175 -0.1672
C70 C 1.1074(3) -0.0352(5) -0.19279(17)
H52 H 1.1184 0.0074 -0.1993
C71 C 1.1147(2) -0.1014(5) -0.20185(16)
H53 H 1.1300 -0.1052 -0.2155
C72 C 1.1008(3) -0.1635(5) -0.19184(17)
H54 H 1.1076 -0.2106 -0.1975
C73 C 0.7717(2) -0.1681(4) -0.28216(13)
C74 C 0.7642(2) -0.2472(4) -0.31548(13)
H55 H 0.7558 -0.2928 -0.3226
C75 C 0.7817(2) -0.1962(4) -0.33051(14)
H56 H 0.7853 -0.2073 -0.3474
C76 C 0.7934(3) -0.1302(4) -0.32021(16)
H57 H 0.8051 -0.0947 -0.3300
C77 C 0.7881(2) -0.1158(4) -0.29578(14)
H58 H 0.7958 -0.0701 -0.2884
C78 C 0.7654(2) -0.1585(4) -0.25578(13)
H59 H 0.7717 -0.1142 -0.2471
C79 C 0.7408(2) -0.1995(4) -0.22008(13)
C80 C 0.7683(2) -0.2076(5) -0.19984(13)
H60 H 0.7942 -0.2195 -0.2023
C81 C 0.7576(2) -0.1980(5) -0.17582(14)
H61 H 0.7763 -0.2049 -0.1619
C82 C 0.7200(2) -0.1787(4) -0.17182(13)
C83 C 0.6935(2) -0.1667(4) -0.19279(13)
H62 H 0.6681 -0.1502 -0.1907
C84 C 0.7043(2) -0.1790(4) -0.21663(13)
H63 H 0.6858 -0.1729 -0.2307
C85 C 0.7096(2) -0.1697(4) -0.14598(13)
C86 C 0.7217(3) -0.2184(4) -0.12761(15)
H64 H 0.7367 -0.2593 -0.1318
C87 C 0.7131(3) -0.2107(4) -0.10289(14)
H65 H 0.7215 -0.2460 -0.0906
C88 C 0.6920(2) -0.1508(3) -0.09688(13)
C89 C 0.6785(2) -0.1001(4) -0.11558(12)
H66 H 0.6635 -0.0590 -0.1115
C90 C 0.6871(2) -0.1110(4) -0.13946(13)
H67 H 0.6775 -0.0774 -0.1521
C91 C 0.6595(3) -0.1803(4) -0.06247(16)
H68 H 0.6460 -0.2171 -0.0723
C92 C 0.6536(3) -0.1677(5) -0.03631(18)
C93 C 0.6726(3) -0.0973(5) -0.00148(18)
H69 H 0.6878 -0.0589 0.0063
C94 C 0.6479(3) -0.1349(5) 0.01228(19)
H70 H 0.6471 -0.1243 0.0295
C95 C 0.6238(3) -0.1888(5) 0.00078(18)
H71 H 0.6069 -0.2158 0.0102
C96 C 0.6247(3) -0.2027(5) -0.02474(19)
H72 H 0.6066 -0.2343 -0.0337
C97 C 0.7677(2) -0.4198(4) -0.29336(12)
C98 C 0.7017(2) -0.4090(4) -0.30326(12)
H73 H 0.6778 -0.3857 -0.3010
C99 C 0.7015(3) -0.4647(4) -0.31930(14)
H74 H 0.6780 -0.4787 -0.3286
C100 C 0.7342(3) -0.5012(4) -0.32253(14)
H75 H 0.7337 -0.5412 -0.3338
C101 C 0.7688(2) -0.4798(4) -0.30915(14)
H76 H 0.7922 -0.5053 -0.3108
C102 C 0.8005(2) -0.3904(4) -0.27810(13)
H77 H 0.8260 -0.4079 -0.2793
C103 C 0.82605(17) -0.3074(3) -0.24769(12)
C104 C 0.8317(2) -0.3219(4) -0.22257(13)
H78 H 0.8158 -0.3565 -0.2153
C105 C 0.8611(2) -0.2857(4) -0.20771(13)
H79 H 0.8653 -0.2966 -0.1903
C106 C 0.88398(19) -0.2348(4) -0.21784(13)
C107 C 0.8788(2) -0.2224(5) -0.24391(14)
H80 H 0.8950 -0.1885 -0.2513
C108 C 0.8504(2) -0.2594(5) -0.25865(14)
H81 H 0.8475 -0.2521 -0.2763
C109 C 0.91145(19) -0.1903(4) -0.20215(14)
C110 C 0.9011(2) -0.1527(4) -0.18099(13)
H82 H 0.8756 -0.1576 -0.1763
C111 C 0.9268(2) -0.1094(4) -0.16702(15)
H83 H 0.9186 -0.0834 -0.1532
C112 C 0.9646(2) -0.1023(4) -0.17253(14)
C113 C 0.9758(2) -0.1403(4) -0.19350(15)
H84 H 1.0019 -0.1373 -0.1974
C114 C 0.9501(2) -0.1810(5) -0.20817(15)
H85 H 0.9580 -0.2038 -0.2227
C115 C 0.9876(2) 0.0110(4) -0.15871(14)
H86 H 0.9675 0.0337 -0.1693
C116 C 1.0154(2) 0.0527(4) -0.14330(15)
C117 C 1.0680(2) 0.0475(5) -0.11409(18)
H87 H 1.0857 0.0196 -0.1033
C118 C 1.0709(3) 0.1209(5) -0.11384(19)
H88 H 1.0909 0.1438 -0.1033
C119 C 1.0456(2) 0.1626(5) -0.12845(19)
H89 H 1.0472 0.2145 -0.1281
C120 C 1.0178(3) 0.1279(4) -0.14363(19)
H90 H 1.0000 0.1555 -0.1545
C121 C 0.67821(19) 0.0572(3) -0.07549(12)
C122 C 0.6338(2) 0.0132(4) -0.05055(14)
H91 H 0.6260 -0.0214 -0.0388
C123 C 0.6084(2) 0.0700(4) -0.05899(14)
H92 H 0.5835 0.0730 -0.0532
C124 C 0.6194(2) 0.1201(4) -0.07520(14)
H93 H 0.6025 0.1593 -0.0804
C125 C 0.6553(2) 0.1147(4) -0.08447(13)
H94 H 0.6634 0.1486 -0.0963
C126 C 0.71736(19) 0.0458(3) -0.08267(12)
H95 H 0.7285 0.0781 -0.0938
C127 C 0.77468(19) -0.0203(4) -0.07979(13)
C128 C 0.8051(2) 0.0163(4) -0.06678(13)
H96 H 0.8002 0.0491 -0.0538
C129 C 0.8424(2) 0.0059(4) -0.07243(15)
H97 H 0.8629 0.0334 -0.0640
C130 C 0.8501(2) -0.0454(4) -0.09067(13)
C131 C 0.8188(2) -0.0804(4) -0.10418(14)
H98 H 0.8234 -0.1132 -0.1173
C132 C 0.7814(2) -0.0679(4) -0.09866(14)
H99 H 0.7604 -0.0922 -0.1079
C133 C 0.8904(2) -0.0604(4) -0.09556(15)
C134 C 0.9164(2) -0.0049(4) -0.09932(17)
H100 H 0.9082 0.0446 -0.0992
C135 C 0.9539(2) -0.0206(4) -0.10322(17)
H101 H 0.9712 0.0182 -0.1061
C136 C 0.9670(2) -0.0919(4) -0.10307(14)
C137 C 0.9406(2) -0.1482(4) -0.09979(17)
H102 H 0.9489 -0.1977 -0.0997
C138 C 0.9029(2) -0.1321(4) -0.09666(16)
H103 H 0.8850 -0.1708 -0.0952
C139 C 1.0261(2) -0.1350(5) -0.08740(17)
H104 H 1.0145 -0.1478 -0.0727
C140 C 1.0667(3) -0.1464(5) -0.08877(17)
C141 C 1.1164(2) -0.1318(5) -0.11314(18)
H105 H 1.1259 -0.1168 -0.1283
C142 C 1.1415(2) -0.1600(5) -0.09482(18)
H106 H 1.1682 -0.1636 -0.0973
C143 C 1.1294(3) -0.1829(6) -0.0733(2)
H107 H 1.1474 -0.2030 -0.0605
C144 C 1.0918(3) -0.1774(6) -0.0697(3)
H108 H 1.0826 -0.1941 -0.0546
N1 N 0.9139(2) -0.7370(4) -0.08007(15)
N2 N 0.88373(16) -0.6596(3) -0.11663(10)
N3 N 0.72120(18) -0.3603(3) -0.23949(11)
N4 N 0.6858(2) -0.2727(4) -0.27096(12)
N5 N 0.83472(17) -0.7603(3) -0.09845(11)
N6 N 0.81528(18) -0.6305(3) -0.08843(10)
N7 N 0.7539(2) -0.1277(3) -0.03604(12)
N8 N 0.73494(17) 0.0010(3) -0.02239(10)
N9 N 0.85557(16) -0.6978(3) -0.04864(11)
N10 N 0.89471(18) -0.5953(3) -0.06671(10)
N11 N 1.03388(17) -0.1978(3) -0.14590(12)
N12 N 1.06836(17) -0.0893(3) -0.16345(12)
N13 N 0.75879(17) -0.2339(3) -0.29152(10)
N14 N 0.75079(16) -0.2131(3) -0.24501(10)
N15 N 0.68436(18) -0.1383(3) -0.07125(11)
N16 N 0.6761(2) -0.1127(4) -0.02537(15)
N17 N 0.73447(17) -0.3838(3) -0.28984(10)
N18 N 0.79343(16) -0.3394(3) -0.26289(9)
N19 N 0.99120(16) -0.0594(3) -0.15753(11)
N20 N 1.04055(18) 0.0124(4) -0.12933(11)
N21 N 0.66856(16) 0.0075(3) -0.05882(10)
N22 N 0.73562(15) -0.0095(3) -0.07329(10)
N23 N 1.00607(17) -0.1079(3) -0.10595(12)
N24 N 1.07830(18) -0.1243(4) -0.11055(12)
Fe1 Fe 0.86663(3) -0.67838(5) -0.083271(18)
Fe2 Fe 0.74059(3) -0.30126(5) -0.266336(17)
Fe3 Fe 0.70904(3) -0.06518(5) -0.048349(17)
Fe4 Fe 1.03538(3) -0.09427(5) -0.13534(2)
I1? I 0.35334(14) 0.4061(3) 0.05829(9)
S5? S 0.9898(6) -0.7547(13) 0.0139(4)
O13? O 1.0219(9) -0.7714(18) 0.0001(5)
O14? O 0.9598(8) -0.7141(19) 0.0002(5)
O15? O 0.9773(10) -0.8135(14) 0.0288(6)
F13? F 0.9839(10) -0.6677(18) 0.0520(5)
F14? F 1.0386(8) -0.719(2) 0.0522(5)
F15? F 1.0237(10) -0.6316(14) 0.0268(6)
C153? C 1.0101(7) -0.6904(13) 0.0373(4)
loop_
_geom_bond_atom_site_label_1
_geom_bond_atom_site_label_2
_geom_bond_site_symmetry_1
_geom_bond_site_symmetry_2
C1 C5 1_555 1_555
C2 H1 1_555 1_555
C3 C2 1_555 1_555
H2 C3 1_555 1_555
C4 C3 1_555 1_555
H3 C4 1_555 1_555
C5 C4 1_555 1_555
H4 C5 1_555 1_555
C6 C1 1_555 1_555
H5 C6 1_555 1_555
C7 C8 1_555 1_555
C8 H6 1_555 1_555
C9 C8 1_555 1_555
H7 C9 1_555 1_555
C10 C9 1_555 1_555
C11 C10 1_555 1_555
H8 C11 1_555 1_555
C12 C7 1_555 1_555
H9 C12 1_555 1_555
C13 C10 1_555 1_555
C14 C13 1_555 1_555
H10 C14 1_555 1_555
C15 C14 1_555 1_555
H11 C15 1_555 1_555
C16 C15 1_555 1_555
C17 C16 1_555 1_555
H12 C17 1_555 1_555
C18 C13 1_555 1_555
H13 C18 1_555 1_555
C19 H14 1_555 1_555
C20 C19 1_555 1_555
C21 H15 1_555 1_555
C22 C21 1_555 1_555
H16 C22 1_555 1_555
C23 C22 1_555 1_555
H17 C23 1_555 1_555
C24 C20 1_555 1_555
H18 C24 1_555 1_555
C25 C29 1_555 1_555
C26 H19 1_555 1_555
C27 C26 1_555 1_555
H20 C27 1_555 1_555
C28 C27 1_555 1_555
H21 C28 1_555 1_555
C29 C28 1_555 1_555
H22 C29 1_555 1_555
C30 C25 1_555 1_555
H23 C30 1_555 1_555
C31 C32 1_555 1_555
C32 H24 1_555 1_555
C33 C32 1_555 1_555
H25 C33 1_555 1_555
C34 C33 1_555 1_555
C35 C34 1_555 1_555
H26 C35 1_555 1_555
C36 C31 1_555 1_555
H27 C36 1_555 1_555
C37 C34 1_555 1_555
C38 C37 1_555 1_555
H28 C38 1_555 1_555
C39 C38 1_555 1_555
H29 C39 1_555 1_555
C40 C39 1_555 1_555
C41 C40 1_555 1_555
H30 C41 1_555 1_555
C42 C37 1_555 1_555
H31 C42 1_555 1_555
C43 H32 1_555 1_555
C44 C43 1_555 1_555
C45 H33 1_555 1_555
C46 C45 1_555 1_555
H34 C46 1_555 1_555
C47 C46 1_555 1_555
H35 C47 1_555 1_555
C48 C44 1_555 1_555
H36 C48 1_555 1_555
C49 C53 1_555 1_555
C50 H37 1_555 1_555
C51 C50 1_555 1_555
H38 C51 1_555 1_555
C52 C51 1_555 1_555
H39 C52 1_555 1_555
C53 C52 1_555 1_555
H40 C53 1_555 1_555
C54 C49 1_555 1_555
H41 C54 1_555 1_555
C55 C56 1_555 1_555
C56 H42 1_555 1_555
C57 C56 1_555 1_555
H43 C57 1_555 1_555
C58 C57 1_555 1_555
C59 C58 1_555 1_555
H44 C59 1_555 1_555
C60 C55 1_555 1_555
H45 C60 1_555 1_555
C61 C58 1_555 1_555
C62 C61 1_555 1_555
H46 C62 1_555 1_555
C63 C62 1_555 1_555
H47 C63 1_555 1_555
C64 C63 1_555 1_555
C65 C64 1_555 1_555
H48 C65 1_555 1_555
C66 C61 1_555 1_555
H49 C66 1_555 1_555
C67 H50 1_555 1_555
C68 C67 1_555 1_555
C69 H51 1_555 1_555
C70 C69 1_555 1_555
H52 C70 1_555 1_555
C71 C70 1_555 1_555
H53 C71 1_555 1_555
C72 C68 1_555 1_555
H54 C72 1_555 1_555
C73 C77 1_555 1_555
C74 H55 1_555 1_555
C75 C74 1_555 1_555
H56 C75 1_555 1_555
C76 C75 1_555 1_555
H57 C76 1_555 1_555
C77 C76 1_555 1_555
H58 C77 1_555 1_555
C78 C73 1_555 1_555
H59 C78 1_555 1_555
C79 C80 1_555 1_555
C80 H60 1_555 1_555
C81 C80 1_555 1_555
H61 C81 1_555 1_555
C82 C81 1_555 1_555
C83 C82 1_555 1_555
H62 C83 1_555 1_555
C84 C79 1_555 1_555
H63 C84 1_555 1_555
C85 C82 1_555 1_555
C86 C85 1_555 1_555
H64 C86 1_555 1_555
C87 C86 1_555 1_555
H65 C87 1_555 1_555
C88 C87 1_555 1_555
C89 C88 1_555 1_555
H66 C89 1_555 1_555
C90 C85 1_555 1_555
H67 C90 1_555 1_555
C91 H68 1_555 1_555
C92 C91 1_555 1_555
C93 H69 1_555 1_555
C94 C93 1_555 1_555
H70 C94 1_555 1_555
C95 C94 1_555 1_555
H71 C95 1_555 1_555
C96 C92 1_555 1_555
H72 C96 1_555 1_555
C97 C101 1_555 1_555
C98 H73 1_555 1_555
C99 C98 1_555 1_555
H74 C99 1_555 1_555
C100 C99 1_555 1_555
H75 C100 1_555 1_555
C101 C100 1_555 1_555
H76 C101 1_555 1_555
C102 C97 1_555 1_555
H77 C102 1_555 1_555
C103 C104 1_555 1_555
C104 H78 1_555 1_555
C105 C104 1_555 1_555
H79 C105 1_555 1_555
C106 C105 1_555 1_555
C107 C106 1_555 1_555
H80 C107 1_555 1_555
C108 C103 1_555 1_555
H81 C108 1_555 1_555
C109 C106 1_555 1_555
C110 C109 1_555 1_555
H82 C110 1_555 1_555
C111 C110 1_555 1_555
H83 C111 1_555 1_555
C112 C111 1_555 1_555
C113 C112 1_555 1_555
H84 C113 1_555 1_555
C114 C109 1_555 1_555
H85 C114 1_555 1_555
C115 H86 1_555 1_555
C116 C115 1_555 1_555
C117 H87 1_555 1_555
C118 C117 1_555 1_555
H88 C118 1_555 1_555
C119 C118 1_555 1_555
H89 C119 1_555 1_555
C120 C116 1_555 1_555
H90 C120 1_555 1_555
C121 C125 1_555 1_555
C122 H91 1_555 1_555
C123 C122 1_555 1_555
H92 C123 1_555 1_555
C124 C123 1_555 1_555
H93 C124 1_555 1_555
C125 C124 1_555 1_555
H94 C125 1_555 1_555
C126 C121 1_555 1_555
H95 C126 1_555 1_555
C127 C128 1_555 1_555
C128 H96 1_555 1_555
C129 C128 1_555 1_555
H97 C129 1_555 1_555
C130 C129 1_555 1_555
C131 C130 1_555 1_555
H98 C131 1_555 1_555
C132 C127 1_555 1_555
H99 C132 1_555 1_555
C133 C130 1_555 1_555
C134 C133 1_555 1_555
H100 C134 1_555 1_555
C135 C134 1_555 1_555
H101 C135 1_555 1_555
C136 C135 1_555 1_555
C137 C136 1_555 1_555
H102 C137 1_555 1_555
C138 C133 1_555 1_555
H103 C138 1_555 1_555
C139 H104 1_555 1_555
C140 C139 1_555 1_555
C141 H105 1_555 1_555
C142 C141 1_555 1_555
H106 C142 1_555 1_555
C143 C142 1_555 1_555
H107 C143 1_555 1_555
C144 C140 1_555 1_555
H108 C144 1_555 1_555
N1 C1 1_555 1_555
N2 C6 1_555 1_555
N3 C16 1_555 1_555
N4 C20 1_555 1_555
N5 C25 1_555 1_555
N6 C30 1_555 1_555
N7 C40 1_555 1_555
N8 C44 1_555 1_555
N9 C49 1_555 1_555
N10 C54 1_555 1_555
N11 C64 1_555 1_555
N12 C68 1_555 1_555
N13 C73 1_555 1_555
N14 C78 1_555 1_555
N15 C88 1_555 1_555
N16 C92 1_555 1_555
N17 C97 1_555 1_555
N18 C102 1_555 1_555
N19 C112 1_555 1_555
N20 C116 1_555 1_555
N21 C121 1_555 1_555
N22 C126 1_555 1_555
N23 C136 1_555 1_555
N24 C140 1_555 1_555
Fe1 N1 1_555 1_555
Fe2 N3 1_555 1_555
Fe3 N7 1_555 1_555
Fe4 N11 1_555 1_555
C145 F1 1_555 1_555
O1 S1 1_555 1_555
O2 S1 1_555 1_555
O3 S1 1_555 1_555
F2 C145 1_555 1_555
F3 C145 1_555 1_555
S1 C145 1_555 1_555
C146 C147 1_555 1_555
C147 H109 1_555 1_555
H110 C147 1_555 1_555
H111 C147 1_555 1_555
N25 C146 1_555 1_555
C148 C149 1_555 1_555
C149 H112 1_555 1_555
H113 C149 1_555 1_555
H114 C149 1_555 1_555
N26 C148 1_555 1_555
S2 C150 1_555 1_555
C150 F4 1_555 1_555
O4 S2 1_555 1_555
O5 S2 1_555 1_555
O6 S2 1_555 1_555
F5 C150 1_555 1_555
F6 C150 1_555 1_555
S3 C151 1_555 1_555
C151 F7 1_555 1_555
O7 S3 1_555 1_555
O8 S3 1_555 1_555
O9 S3 1_555 1_555
F8 C151 1_555 1_555
F9 C151 1_555 1_555
S4 O10 1_555 1_555
O11 S4 1_555 1_555
O12 S4 1_555 1_555
F10 C152 1_555 1_555
F11 C152 1_555 1_555
F12 C152 1_555 1_555
C152 S4 1_555 1_555
N27 S6 1_555 1_555
S6 O16 1_555 1_555
S7 N27 1_555 1_555
O17 S6 1_555 1_555
O18 S7 1_555 1_555
O19 S7 1_555 1_555
C154 S6 1_555 1_555
C155 S7 1_555 1_555
F16 C154 1_555 1_555
F17 C154 1_555 1_555
F18 C154 1_555 1_555
F19 C155 1_555 1_555
F20 C155 1_555 1_555
F21 C155 1_555 1_555
C2 N1 1_555 1_555
C7 N2 1_555 1_555
C11 C12 1_555 1_555
C17 C18 1_555 1_555
C19 N3 1_555 1_555
C21 N4 1_555 1_555
C23 C24 1_555 1_555
C26 N5 1_555 1_555
C31 N6 1_555 1_555
C35 C36 1_555 1_555
C41 C42 1_555 1_555
C43 N7 1_555 1_555
C45 N8 1_555 1_555
C47 C48 1_555 1_555
C50 N9 1_555 1_555
C55 N10 1_555 1_555
C59 C60 1_555 1_555
C65 C66 1_555 1_555
C67 N11 1_555 1_555
C69 N12 1_555 1_555
C71 C72 1_555 1_555
C74 N13 1_555 1_555
C79 N14 1_555 1_555
C83 C84 1_555 1_555
C89 C90 1_555 1_555
C91 N15 1_555 1_555
C93 N16 1_555 1_555
C95 C96 1_555 1_555
C98 N17 1_555 1_555
C103 N18 1_555 1_555
C107 C108 1_555 1_555
C113 C114 1_555 1_555
C115 N19 1_555 1_555
C117 N20 1_555 1_555
C119 C120 1_555 1_555
C122 N21 1_555 1_555
C127 N22 1_555 1_555
C131 C132 1_555 1_555
C137 C138 1_555 1_555
C139 N23 1_555 1_555
C141 N24 1_555 1_555
C143 C144 1_555 1_555
N2 Fe1 1_555 1_555
N4 Fe2 1_555 1_555
N5 Fe1 1_555 1_555
N6 Fe1 1_555 1_555
N8 Fe3 1_555 1_555
N9 Fe1 1_555 1_555
N10 Fe1 1_555 1_555
N12 Fe4 1_555 1_555
N13 Fe2 1_555 1_555
N14 Fe2 1_555 1_555
N15 Fe3 1_555 1_555
N16 Fe3 1_555 1_555
N17 Fe2 1_555 1_555
N18 Fe2 1_555 1_555
N19 Fe4 1_555 1_555
N20 Fe4 1_555 1_555
N21 Fe3 1_555 1_555
N22 Fe3 1_555 1_555
N23 Fe4 1_555 1_555
N24 Fe4 1_555 1_555

#END
