
#######################################################################
#
#                 Cambridge Crystallographic Data Centre
#                                CCDC 
#
#######################################################################
#
# If this CIF has been generated from an entry in the Cambridge 
# Structural Database, then it will include bibliographic, chemical, 
# crystal, experimental, refinement or atomic coordinate data resulting 
# from the CCDC's data processing and validation procedures.
#
#######################################################################

data_RAPXAK
_chemical_formula_moiety         
'C144 H108 Fe4 N24 8+,8(C2 F6 N1 O4 S2 1-),C4 H10 O1,5(C2 H3 N1),2(H2 O1)'
_chemical_name_systematic        
"hexakis(\m-N,N'-bis(pyridin-2-ylmethylene)biphenyl-4,4'-diamine)-tetra-iron octakis(bis((trifluoromethyl)sulfonyl)amide) acetonitrile diethyl ether solvate dihydrate"
_symmetry_cell_setting           monoclinic
_symmetry_space_group_name_H-M   'P 2/c'
_symmetry_Int_Tables_number      13
_space_group_name_Hall           '-P 2yc'
loop_
_symmetry_equiv_pos_site_id
_symmetry_equiv_pos_as_xyz
1 x,y,z
2 -x,y,1/2-z
3 -x,-y,-z
4 x,-y,1/2+z
_cell_length_a                   20.2319(5)
_cell_length_b                   19.1597(5)
_cell_length_c                   29.2305(9)
_cell_angle_alpha                90
_cell_angle_beta                 102.582(3)
_cell_angle_gamma                90
_cell_volume                     11058.7
_exptl_crystal_colour            purple
_exptl_crystal_description       blade
_cell_formula_units_Z            2
loop_
_atom_site_label
_atom_site_type_symbol
_atom_site_fract_x
_atom_site_fract_y
_atom_site_fract_z
C1 C 0.1179(3) 0.6375(3) 0.0840(2)
C2 C 0.2332(4) 0.6607(4) 0.1023(3)
H1 H 0.2787 0.6453 0.1119
C3 C 0.2199(4) 0.7312(4) 0.0940(3)
H2 H 0.2565 0.7632 0.0971
C4 C 0.1550(4) 0.7552(4) 0.0814(3)
H3 H 0.1461 0.8035 0.0760
C5 C 0.1021(4) 0.7075(3) 0.0766(2)
H4 H 0.0563 0.7226 0.0686
C6 C 0.0671(3) 0.5831(3) 0.0791(2)
H5 H 0.0201 0.5934 0.0713
C7 C 0.0403(3) 0.4653(3) 0.0847(2)
C8 C 0.0360(3) 0.4111(4) 0.0528(2)
H6 H 0.0643 0.4104 0.0308
C9 C -0.0108(4) 0.3575(3) 0.0534(2)
H7 H -0.0144 0.3203 0.0314
C10 C -0.0526(3) 0.3580(3) 0.0861(2)
C11 C -0.0479(4) 0.4142(4) 0.1164(3)
H8 H -0.0768 0.4160 0.1380
C12 C -0.0017(4) 0.4682(4) 0.1160(3)
H9 H 0.0007 0.5065 0.1369
C13 C -0.1038(4) 0.3023(3) 0.0864(3)
C14 C -0.1361(4) 0.2700(4) 0.0437(3)
H10 H -0.1229 0.2816 0.0154
C15 C -0.1873(4) 0.2214(4) 0.0434(3)
H11 H -0.2094 0.2003 0.0147
C16 C -0.2062(4) 0.2036(3) 0.0842(3)
C17 C -0.1747(4) 0.2337(4) 0.1262(3)
H12 H -0.1872 0.2204 0.1544
C18 C -0.1239(4) 0.2839(4) 0.1268(3)
H13 H -0.1032 0.3056 0.1556
C19 C -0.3206(4) 0.1812(4) 0.0708(3)
H14 H -0.3281 0.2299 0.0662
C20 C -0.3771(4) 0.1322(4) 0.0655(3)
C21 C -0.4054(4) 0.0156(4) 0.0652(3)
H15 H -0.3924 -0.0322 0.0684
C22 C -0.4733(4) 0.0324(5) 0.0559(3)
H16 H -0.5063 -0.0037 0.0524
C23 C -0.4935(4) 0.1007(5) 0.0518(3)
H17 H -0.5402 0.1127 0.0464
C24 C -0.4443(4) 0.1522(5) 0.0556(3)
H18 H -0.4566 0.2000 0.0515
C25 C 0.2032(4) 0.4333(4) 0.0236(2)
C26 C 0.1913(4) 0.5497(4) 0.0039(3)
H19 H 0.1826 0.5965 0.0115
C27 C 0.2010(5) 0.5348(5) -0.0404(3)
H20 H 0.1994 0.5714 -0.0626
C28 C 0.2129(5) 0.4677(5) -0.0525(3)
H21 H 0.2208 0.4574 -0.0826
C29 C 0.2134(4) 0.4153(4) -0.0200(3)
H22 H 0.2205 0.3681 -0.0275
C30 C 0.2041(3) 0.3835(4) 0.0617(2)
H23 H 0.2113 0.3351 0.0577
C31 C 0.2023(4) 0.3585(3) 0.1382(2)
C32 C 0.1468(4) 0.3278(4) 0.1505(3)
H24 H 0.1024 0.3419 0.1354
C33 C 0.1557(4) 0.2766(4) 0.1847(3)
H25 H 0.1171 0.2550 0.1922
C34 C 0.2203(4) 0.2561(3) 0.2083(3)
C35 C 0.2749(5) 0.2889(5) 0.1962(3)
H26 H 0.3195 0.2766 0.2120
C36 C 0.2659(4) 0.3394(5) 0.1615(3)
H27 H 0.3043 0.3609 0.1537
C37 C 0.2299(4) 0.2002(4) 0.2446(2)
C38 C 0.1848(4) 0.1448(4) 0.2420(3)
H28 H 0.1466 0.1426 0.2165
C39 C 0.1939(4) 0.0928(4) 0.2756(3)
H29 H 0.1621 0.0558 0.2732
C40 C 0.2494(4) 0.0946(3) 0.3127(2)
C41 C 0.2961(4) 0.1489(4) 0.3161(3)
H30 H 0.3343 0.1506 0.3416
C42 C 0.2866(4) 0.2009(4) 0.2818(3)
H31 H 0.3191 0.2372 0.2838
C43 C 0.2660(4) -0.0210(4) 0.3357(2)
H32 H 0.2677 -0.0321 0.3043
C44 C 0.2709(3) -0.0750(4) 0.3716(2)
C45 C 0.2670(3) -0.0950(4) 0.4487(3)
H33 H 0.2621 -0.0779 0.4783
C46 C 0.2767(4) -0.1660(4) 0.4434(3)
H34 H 0.2784 -0.1968 0.4691
C47 C 0.2840(4) -0.1916(4) 0.4007(3)
H35 H 0.2911 -0.2400 0.3967
C48 C 0.2806(4) -0.1454(4) 0.3637(3)
H36 H 0.2849 -0.1615 0.3337
C49 C 0.3095(4) 0.5157(5) 0.1722(3)
C50 C 0.3366(4) 0.5052(4) 0.0993(3)
H37 H 0.3228 0.5016 0.0661
C51 C 0.4047(4) 0.5038(5) 0.1201(3)
H38 H 0.4373 0.4992 0.1013
C52 C 0.4254(5) 0.5089(7) 0.1673(4)
H39 H 0.4723 0.5079 0.1816
C53 C 0.3773(5) 0.5157(7) 0.1947(4)
H40 H 0.3905 0.5202 0.2278
C54 C 0.2543(4) 0.5197(5) 0.1961(3)
H41 H 0.2627 0.5235 0.2292
C55 C 0.1402(4) 0.5207(4) 0.1958(2)
C56 C 0.1247(4) 0.4638(4) 0.2199(3)
H42 H 0.1516 0.4228 0.2216
C57 C 0.0705(4) 0.4653(4) 0.2415(3)
H43 H 0.0605 0.4256 0.2583
C58 C 0.0301(4) 0.5254(4) 0.2389(2)
C59 C 0.0478(4) 0.5838(4) 0.2160(2)
H44 H 0.0224 0.6256 0.2156
C60 C 0.1019(4) 0.5824(4) 0.1937(2)
H45 H 0.1127 0.6221 0.1774
C61 C -0.0218(3) 0.0366(4) 0.2261(2)
C62 C -0.0258(4) 0.0959(4) 0.1977(3)
H46 H 0.0018 0.1351 0.2087
C63 C -0.0695(4) 0.0988(4) 0.1538(2)
H47 H -0.0727 0.1399 0.1352
C64 C -0.1083(3) 0.0404(3) 0.1376(2)
C65 C -0.1032(3) -0.0196(3) 0.1640(3)
H48 H -0.1293 -0.0596 0.1524
C66 C -0.0593(4) -0.0210(4) 0.2078(3)
H49 H -0.0550 -0.0629 0.2256
C67 C -0.1352(4) 0.0430(3) 0.0553(2)
H50 H -0.0885 0.0369 0.0557
C68 C -0.1848(4) 0.0502(3) 0.0117(2)
C69 C -0.2995(4) 0.0654(4) -0.0199(3)
H51 H -0.3448 0.0689 -0.0160
C70 C -0.2868(5) 0.0708(5) -0.0644(3)
H52 H -0.3228 0.0795 -0.0906
C71 C -0.2207(5) 0.0635(4) -0.0707(3)
H53 H -0.2115 0.0653 -0.1012
C72 C -0.1689(4) 0.0537(4) -0.0318(3)
H54 H -0.1233 0.0493 -0.0349
N1 N 0.1822(3) 0.6138(3) 0.09702(19)
N2 N 0.0892(3) 0.5199(3) 0.08595(19)
N3 N -0.2613(3) 0.1561(3) 0.0819(2)
N4 N -0.3569(3) 0.0649(3) 0.0700(2)
N5 N 0.1939(3) 0.4997(3) 0.0364(2)
N6 N 0.1949(3) 0.4075(3) 0.10034(19)
N7 N 0.2593(3) 0.0418(3) 0.3485(2)
N8 N 0.2642(3) -0.0502(3) 0.4135(2)
N9 N 0.2892(3) 0.5116(3) 0.1254(2)
N10 N 0.1944(3) 0.5180(3) 0.1718(2)
N11 N -0.1569(3) 0.0452(3) 0.0931(2)
N12 N -0.2487(3) 0.0554(3) 0.0180(2)
Fe1 Fe 0.18899(5) 0.51114(5) 0.10291(3)
Fe2 Fe -0.25676(5) 0.05270(5) 0.08446(4)
C49A C -0.3095(4) 0.5157(5) 0.3278(3)
C50A C -0.3366(4) 0.5052(4) 0.4007(3)
H37A H -0.3228 0.5016 0.4339
C51A C -0.4047(4) 0.5038(5) 0.3799(3)
H38A H -0.4373 0.4992 0.3987
C52A C -0.4254(5) 0.5089(7) 0.3327(4)
H39A H -0.4723 0.5079 0.3184
C53A C -0.3773(5) 0.5157(7) 0.3053(4)
H40A H -0.3905 0.5202 0.2722
C54A C -0.2543(4) 0.5197(5) 0.3039(3)
H41A H -0.2627 0.5235 0.2708
C55A C -0.1402(4) 0.5207(4) 0.3042(2)
C56A C -0.1247(4) 0.4638(4) 0.2801(3)
H42A H -0.1516 0.4228 0.2784
C57A C -0.0705(4) 0.4653(4) 0.2585(3)
H43A H -0.0605 0.4256 0.2417
C58A C -0.0301(4) 0.5254(4) 0.2611(2)
C59A C -0.0478(4) 0.5838(4) 0.2840(2)
H44A H -0.0224 0.6256 0.2844
C60A C -0.1019(4) 0.5824(4) 0.3063(2)
H45A H -0.1127 0.6221 0.3226
N9A N -0.2892(3) 0.5116(3) 0.3746(2)
N10A N -0.1944(3) 0.5180(3) 0.3282(2)
C61A C 0.0218(3) 0.0366(4) 0.2739(2)
C62A C 0.0258(4) 0.0959(4) 0.3023(3)
H46A H -0.0018 0.1351 0.2913
C63A C 0.0695(4) 0.0988(4) 0.3462(2)
H47A H 0.0727 0.1399 0.3648
C64A C 0.1083(3) 0.0404(3) 0.3624(2)
C65A C 0.1032(3) -0.0196(3) 0.3360(3)
H48A H 0.1293 -0.0596 0.3476
C66A C 0.0593(4) -0.0210(4) 0.2922(3)
H49A H 0.0550 -0.0629 0.2744
C67A C 0.1352(4) 0.0430(3) 0.4447(2)
H50A H 0.0885 0.0369 0.4443
C68A C 0.1848(4) 0.0502(3) 0.4883(2)
C69A C 0.2995(4) 0.0654(4) 0.5199(3)
H51A H 0.3448 0.0689 0.5160
C70A C 0.2868(5) 0.0708(5) 0.5644(3)
H52A H 0.3228 0.0795 0.5906
C71A C 0.2207(5) 0.0635(4) 0.5707(3)
H53A H 0.2115 0.0653 0.6012
C72A C 0.1689(4) 0.0537(4) 0.5318(3)
H54A H 0.1233 0.0493 0.5349
N11A N 0.1569(3) 0.0452(3) 0.4069(2)
N12A N 0.2487(3) 0.0554(3) 0.4820(2)
C1A C -0.1179(3) 0.6375(3) 0.4160(2)
C2A C -0.2332(4) 0.6607(4) 0.3977(3)
H1A H -0.2787 0.6453 0.3881
C3A C -0.2199(4) 0.7312(4) 0.4060(3)
H2A H -0.2565 0.7632 0.4029
C4A C -0.1550(4) 0.7552(4) 0.4186(3)
H3A H -0.1461 0.8035 0.4240
C5A C -0.1021(4) 0.7075(3) 0.4234(2)
H4A H -0.0563 0.7226 0.4314
C6A C -0.0671(3) 0.5831(3) 0.4209(2)
H5A H -0.0201 0.5934 0.4287
C7A C -0.0403(3) 0.4653(3) 0.4153(2)
C8A C -0.0360(3) 0.4111(4) 0.4472(2)
H6A H -0.0643 0.4104 0.4692
C9A C 0.0108(4) 0.3575(3) 0.4466(2)
H7A H 0.0144 0.3203 0.4686
C10A C 0.0526(3) 0.3580(3) 0.4139(2)
C11A C 0.0479(4) 0.4142(4) 0.3836(3)
H8A H 0.0768 0.4160 0.3620
C12A C 0.0017(4) 0.4682(4) 0.3840(3)
H9A H -0.0007 0.5065 0.3631
C13A C 0.1038(4) 0.3023(3) 0.4136(3)
C14A C 0.1361(4) 0.2700(4) 0.4563(3)
H10A H 0.1229 0.2816 0.4846
C15A C 0.1873(4) 0.2214(4) 0.4566(3)
H11A H 0.2094 0.2003 0.4853
C16A C 0.2062(4) 0.2036(3) 0.4158(3)
C17A C 0.1747(4) 0.2337(4) 0.3738(3)
H12A H 0.1872 0.2204 0.3456
C18A C 0.1239(4) 0.2839(4) 0.3732(3)
H13A H 0.1032 0.3056 0.3444
C19A C 0.3206(4) 0.1812(4) 0.4292(3)
H14A H 0.3281 0.2299 0.4338
C20A C 0.3771(4) 0.1322(4) 0.4345(3)
C21A C 0.4054(4) 0.0156(4) 0.4348(3)
H15A H 0.3924 -0.0322 0.4316
C22A C 0.4733(4) 0.0324(5) 0.4441(3)
H16A H 0.5063 -0.0037 0.4476
C23A C 0.4935(4) 0.1007(5) 0.4482(3)
H17A H 0.5402 0.1127 0.4536
C24A C 0.4443(4) 0.1522(5) 0.4444(3)
H18A H 0.4566 0.2000 0.4485
C25A C -0.2032(4) 0.4333(4) 0.4764(2)
C26A C -0.1913(4) 0.5497(4) 0.4961(3)
H19A H -0.1826 0.5965 0.4885
C27A C -0.2010(5) 0.5348(5) 0.5404(3)
H20A H -0.1994 0.5714 0.5626
C28A C -0.2129(5) 0.4677(5) 0.5525(3)
H21A H -0.2208 0.4574 0.5826
C29A C -0.2134(4) 0.4153(4) 0.5200(3)
H22A H -0.2205 0.3681 0.5275
C30A C -0.2041(3) 0.3835(4) 0.4383(2)
H23A H -0.2113 0.3351 0.4423
C31A C -0.2023(4) 0.3585(3) 0.3618(2)
C32A C -0.1468(4) 0.3278(4) 0.3495(3)
H24A H -0.1024 0.3419 0.3646
C33A C -0.1557(4) 0.2766(4) 0.3153(3)
H25A H -0.1171 0.2550 0.3078
C34A C -0.2203(4) 0.2561(3) 0.2917(3)
C35A C -0.2749(5) 0.2889(5) 0.3038(3)
H26A H -0.3195 0.2766 0.2880
C36A C -0.2659(4) 0.3394(5) 0.3385(3)
H27A H -0.3043 0.3609 0.3463
C37A C -0.2299(4) 0.2002(4) 0.2554(2)
C38A C -0.1848(4) 0.1448(4) 0.2580(3)
H28A H -0.1466 0.1426 0.2835
C39A C -0.1939(4) 0.0928(4) 0.2244(3)
H29A H -0.1621 0.0558 0.2268
C40A C -0.2494(4) 0.0946(3) 0.1873(2)
C41A C -0.2961(4) 0.1489(4) 0.1839(3)
H30A H -0.3343 0.1506 0.1584
C42A C -0.2866(4) 0.2009(4) 0.2182(3)
H31A H -0.3191 0.2372 0.2162
C43A C -0.2660(4) -0.0210(4) 0.1643(2)
H32A H -0.2677 -0.0321 0.1957
C44A C -0.2709(3) -0.0750(4) 0.1284(2)
C45A C -0.2670(3) -0.0950(4) 0.0513(3)
H33A H -0.2621 -0.0779 0.0217
C46A C -0.2767(4) -0.1660(4) 0.0566(3)
H34A H -0.2784 -0.1968 0.0309
C47A C -0.2840(4) -0.1916(4) 0.0993(3)
H35A H -0.2911 -0.2400 0.1033
C48A C -0.2806(4) -0.1454(4) 0.1363(3)
H36A H -0.2849 -0.1615 0.1663
N1A N -0.1822(3) 0.6138(3) 0.40298(19)
N2A N -0.0892(3) 0.5199(3) 0.41405(19)
N3A N 0.2613(3) 0.1561(3) 0.4181(2)
N4A N 0.3569(3) 0.0649(3) 0.4300(2)
N5A N -0.1939(3) 0.4997(3) 0.4636(2)
N6A N -0.1949(3) 0.4075(3) 0.39966(19)
N7A N -0.2593(3) 0.0418(3) 0.1515(2)
N8A N -0.2642(3) -0.0502(3) 0.0865(2)
Fe1A Fe -0.18899(5) 0.51114(5) 0.39709(3)
Fe2A Fe 0.25676(5) 0.05270(5) 0.41554(4)
C73 C 0.1156(9) 0.8081(10) 0.2267(10)
C74 C 0.3448(5) 0.7607(6) 0.2147(4)
N13 N 0.2527(8) 0.8071(15) 0.2505(5)
O1 O 0.1798(7) 0.9077(6) 0.2386(6)
O2 O 0.1849(11) 0.8420(10) 0.1716(4)
O3 O 0.2407(8) 0.6889(7) 0.2009(5)
O4 O 0.3127(6) 0.6991(10) 0.2765(5)
F1 F 0.0578(5) 0.8435(6) 0.2082(4)
F2 F 0.1092(8) 0.8000(8) 0.2738(8)
F3 F 0.1065(7) 0.7455(8) 0.2104(8)
F4 F 0.3948(6) 0.8000(7) 0.2438(3)
F5 F 0.3275(5) 0.8049(7) 0.1754(4)
F6 F 0.3849(7) 0.7106(6) 0.1985(4)
S1 S 0.1868(2) 0.8439(3) 0.21873(17)
S2 S 0.2799(3) 0.7298(3) 0.23564(14)
C75 C 0.4004(5) 0.6528(6) 0.0167(5)
C76 C 0.5280(7) 0.8255(11) 0.1356(5)
N14 N 0.4719(4) 0.7538(5) 0.0599(4)
O5 O 0.3896(4) 0.6916(5) 0.0990(3)
O6 O 0.3443(3) 0.7687(4) 0.0333(3)
O7 O 0.5556(3) 0.8450(4) 0.0558(3)
O8 O 0.4441(3) 0.8809(4) 0.0669(3)
F7 F 0.4103(3) 0.6739(3) -0.0236(3)
F8 F 0.3419(4) 0.6184(4) 0.0104(3)
F9 F 0.4503(4) 0.6071(4) 0.0347(3)
F10 F 0.4801(4) 0.8112(6) 0.1583(3)
F11 F 0.5576(5) 0.8854(6) 0.1513(3)
F12 F 0.5770(4) 0.7761(5) 0.1466(3)
S4 S 0.39824(11) 0.72396(16) 0.05693(11)
S5 S 0.49656(11) 0.82955(15) 0.07337(10)
C77 C 0.9032(6) 0.7646(8) 0.0938(4)
C78 C 0.9398(14) 0.8525(12) -0.0619(10)
N15 N 0.9610(4) 0.7951(4) 0.0232(4)
O9 O 0.9289(3) 0.6754(3) 0.0351(2)
O10 O 0.8374(3) 0.7583(3) 0.0094(2)
O11 O 0.8873(5) 0.9025(4) 0.0068(4)
O12 O 1.0082(6) 0.9083(7) 0.0142(8)
F13 F 0.8559(4) 0.7282(5) 0.1077(2)
F14 F 0.8910(4) 0.8312(5) 0.1003(3)
F15 F 0.9637(4) 0.7473(5) 0.1220(2)
F16 F 0.9302(8) 0.9151(6) -0.0844(6)
F17 F 0.8884(11) 0.8160(8) -0.0762(4)
F18 F 0.9900(10) 0.8236(6) -0.0717(7)
S6 S 0.90331(10) 0.74542(11) 0.03362(8)
S7 S 0.94828(16) 0.86969(14) 0.00161(18)
C79 C 0.7118(6) 0.4177(6) 0.1387(6)
C80 C 0.5146(7) 0.3397(7) 0.1958(7)
N16 N 0.6298(7) 0.3391(6) 0.1661(6)
O13 O 0.7543(10) 0.3694(10) 0.2033(7)
O14 O 0.6358(7) 0.4431(10) 0.1893(4)
O15 O 0.5240(9) 0.2855(6) 0.1217(4)
O16 O 0.5194(9) 0.3947(12) 0.1140(7)
F19 F 0.7707(8) 0.4609(7) 0.1493(4)
F20 F 0.6647(5) 0.4519(5) 0.1021(3)
F21 F 0.7227(7) 0.3601(6) 0.1099(5)
F22 F 0.4491(4) 0.3368(5) 0.1764(4)
F23 F 0.5287(7) 0.3939(7) 0.2249(5)
F24 F 0.5382(7) 0.2806(7) 0.2166(4)
S8 S 0.6789(3) 0.4043(3) 0.18520(18)
S9 S 0.5530(2) 0.3428(3) 0.14372(17)
C81 C 0.6318(9) 0.6198(7) 0.1128(6)
C82 C 0.5764(8) 0.6039(11) 0.1367(8)
H55 H 0.5946 0.5786 0.1659
H56 H 0.5423 0.5750 0.1163
H57 H 0.5555 0.6475 0.1439
N17 N 0.6740(8) 0.6331(6) 0.0951(6)
C83 C 0.8525(16) 0.6014(10) 0.1677(8)
C84 C 0.8040(11) 0.6337(14) 0.1909(8)
H58 H 0.8166 0.6238 0.2246
H59 H 0.7588 0.6149 0.1780
H60 H 0.8039 0.6843 0.1859
N18 N 0.8972(17) 0.5750(18) 0.1474(8)
O17 O 0.4232(7) -0.0468(7) 0.6955(5)
C85 C 0.3757(18) 0.0064(18) 0.6975(12)
H61 H 0.4035 0.0488 0.7061
H62 H 0.3517 0.0132 0.6645
C86 C 0.332(2) 0.011(2) 0.7198(14)
H63 H 0.3170 -0.0360 0.7267
H64 H 0.2929 0.0365 0.7014
H65 H 0.3492 0.0357 0.7492
C87 C 0.4786(17) -0.0351(18) 0.6766(12)
H66 H 0.4630 -0.0285 0.6424
H67 H 0.5007 0.0088 0.6898
C88 C 0.5218(19) -0.083(2) 0.6838(13)
H68 H 0.5404 -0.0877 0.7175
H69 H 0.5584 -0.0721 0.6678
H70 H 0.5003 -0.1272 0.6715
O18 O 0.3690(9) -0.3096(9) 0.5404(6)
N19 N -0.6547(7) 0.0977(8) 0.0608(5)
C89 C -0.6839(9) 0.1260(10) 0.0822(7)
C90 C -0.7400(19) 0.152(2) 0.1066(16)
H71 H -0.7747 0.1770 0.0840
H72 H -0.7202 0.1830 0.1325
H73 H -0.7608 0.1117 0.1189
loop_
_geom_bond_atom_site_label_1
_geom_bond_atom_site_label_2
_geom_bond_site_symmetry_1
_geom_bond_site_symmetry_2
C1 C5 1_555 1_555
C2 H1 1_555 1_555
C3 C2 1_555 1_555
H2 C3 1_555 1_555
C4 C3 1_555 1_555
H3 C4 1_555 1_555
C5 C4 1_555 1_555
H4 C5 1_555 1_555
C6 C1 1_555 1_555
H5 C6 1_555 1_555
C7 C8 1_555 1_555
C8 H6 1_555 1_555
C9 C8 1_555 1_555
H7 C9 1_555 1_555
C10 C9 1_555 1_555
C11 C10 1_555 1_555
H8 C11 1_555 1_555
C12 C7 1_555 1_555
H9 C12 1_555 1_555
C13 C10 1_555 1_555
C14 C13 1_555 1_555
H10 C14 1_555 1_555
C15 C14 1_555 1_555
H11 C15 1_555 1_555
C16 C15 1_555 1_555
C17 C16 1_555 1_555
H12 C17 1_555 1_555
C18 C13 1_555 1_555
H13 C18 1_555 1_555
C19 H14 1_555 1_555
C20 C19 1_555 1_555
C21 H15 1_555 1_555
C22 C21 1_555 1_555
H16 C22 1_555 1_555
C23 C22 1_555 1_555
H17 C23 1_555 1_555
C24 C20 1_555 1_555
H18 C24 1_555 1_555
C25 C29 1_555 1_555
C26 H19 1_555 1_555
C27 C26 1_555 1_555
H20 C27 1_555 1_555
C28 C27 1_555 1_555
H21 C28 1_555 1_555
C29 C28 1_555 1_555
H22 C29 1_555 1_555
C30 C25 1_555 1_555
H23 C30 1_555 1_555
C31 C32 1_555 1_555
C32 H24 1_555 1_555
C33 C32 1_555 1_555
H25 C33 1_555 1_555
C34 C33 1_555 1_555
C35 C34 1_555 1_555
H26 C35 1_555 1_555
C36 C31 1_555 1_555
H27 C36 1_555 1_555
C37 C34 1_555 1_555
C38 C37 1_555 1_555
H28 C38 1_555 1_555
C39 C38 1_555 1_555
H29 C39 1_555 1_555
C40 C39 1_555 1_555
C41 C40 1_555 1_555
H30 C41 1_555 1_555
C42 C37 1_555 1_555
H31 C42 1_555 1_555
C43 H32 1_555 1_555
C44 C43 1_555 1_555
C45 H33 1_555 1_555
C46 C45 1_555 1_555
H34 C46 1_555 1_555
C47 C46 1_555 1_555
H35 C47 1_555 1_555
C48 C44 1_555 1_555
H36 C48 1_555 1_555
C49 C53 1_555 1_555
C50 H37 1_555 1_555
C51 C50 1_555 1_555
H38 C51 1_555 1_555
C52 C51 1_555 1_555
H39 C52 1_555 1_555
C53 C52 1_555 1_555
H40 C53 1_555 1_555
C54 C49 1_555 1_555
H41 C54 1_555 1_555
C55 C56 1_555 1_555
C56 H42 1_555 1_555
C57 C56 1_555 1_555
H43 C57 1_555 1_555
C58 C57 1_555 1_555
C59 C58 1_555 1_555
H44 C59 1_555 1_555
C60 C55 1_555 1_555
H45 C60 1_555 1_555
C61 C62 1_555 1_555
C62 H46 1_555 1_555
C63 C62 1_555 1_555
H47 C63 1_555 1_555
C64 C63 1_555 1_555
C65 C64 1_555 1_555
H48 C65 1_555 1_555
C66 C61 1_555 1_555
H49 C66 1_555 1_555
C67 H50 1_555 1_555
C68 C67 1_555 1_555
C69 H51 1_555 1_555
C70 C69 1_555 1_555
H52 C70 1_555 1_555
C71 C70 1_555 1_555
H53 C71 1_555 1_555
C72 C68 1_555 1_555
H54 C72 1_555 1_555
N1 C1 1_555 1_555
N2 C6 1_555 1_555
N3 C16 1_555 1_555
N4 C20 1_555 1_555
N5 C25 1_555 1_555
N6 C30 1_555 1_555
N7 C40 1_555 1_555
N8 C44 1_555 1_555
N9 C49 1_555 1_555
N10 C54 1_555 1_555
N11 C64 1_555 1_555
N12 C68 1_555 1_555
Fe1 N1 1_555 1_555
Fe2 N3 1_555 1_555
C73 F1 1_555 1_555
C74 F4 1_555 1_555
N13 S1 1_555 1_555
O1 S1 1_555 1_555
O2 S1 1_555 1_555
O3 S2 1_555 1_555
O4 S2 1_555 1_555
F2 C73 1_555 1_555
F3 C73 1_555 1_555
F5 C74 1_555 1_555
F6 C74 1_555 1_555
S1 C73 1_555 1_555
S2 C74 1_555 1_555
C75 F7 1_555 1_555
C76 F10 1_555 1_555
N14 S4 1_555 1_555
O5 S4 1_555 1_555
O6 S4 1_555 1_555
O7 S5 1_555 1_555
O8 S5 1_555 1_555
F8 C75 1_555 1_555
F9 C75 1_555 1_555
F11 C76 1_555 1_555
F12 C76 1_555 1_555
S4 C75 1_555 1_555
S5 C76 1_555 1_555
C77 F13 1_555 1_555
C78 F16 1_555 1_555
N15 S6 1_555 1_555
O9 S6 1_555 1_555
O10 S6 1_555 1_555
O11 S7 1_555 1_555
O12 S7 1_555 1_555
F14 C77 1_555 1_555
F15 C77 1_555 1_555
F17 C78 1_555 1_555
F18 C78 1_555 1_555
S6 C77 1_555 1_555
S7 C78 1_555 1_555
C79 F19 1_555 1_555
C80 F22 1_555 1_555
N16 S8 1_555 1_555
O13 S8 1_555 1_555
O14 S8 1_555 1_555
O15 S9 1_555 1_555
O16 S9 1_555 1_555
F20 C79 1_555 1_555
F21 C79 1_555 1_555
F23 C80 1_555 1_555
F24 C80 1_555 1_555
S8 C79 1_555 1_555
S9 C80 1_555 1_555
C81 C82 1_555 1_555
C82 H55 1_555 1_555
H56 C82 1_555 1_555
H57 C82 1_555 1_555
N17 C81 1_555 1_555
C83 C84 1_555 1_555
C84 H58 1_555 1_555
H59 C84 1_555 1_555
H60 C84 1_555 1_555
N18 C83 1_555 1_555
O17 C85 1_555 1_555
C85 H61 1_555 1_555
H62 C85 1_555 1_555
C86 C85 1_555 1_555
H63 C86 1_555 1_555
H64 C86 1_555 1_555
H65 C86 1_555 1_555
C87 O17 1_555 1_555
H66 C87 1_555 1_555
H67 C87 1_555 1_555
C88 C87 1_555 1_555
H68 C88 1_555 1_555
H69 C88 1_555 1_555
H70 C88 1_555 1_555
N19 C89 1_555 1_555
C89 C90 1_555 1_555
C90 H71 1_555 1_555
H72 C90 1_555 1_555
H73 C90 1_555 1_555
C49A C53A 1_555 1_555
C50A H37A 1_555 1_555
C51A C50A 1_555 1_555
H38A C51A 1_555 1_555
C52A C51A 1_555 1_555
H39A C52A 1_555 1_555
C53A C52A 1_555 1_555
H40A C53A 1_555 1_555
C54A C49A 1_555 1_555
H41A C54A 1_555 1_555
C55A C56A 1_555 1_555
C56A H42A 1_555 1_555
C57A C56A 1_555 1_555
H43A C57A 1_555 1_555
C58A C58 1_555 1_555
C59A C58A 1_555 1_555
H44A C59A 1_555 1_555
C60A C55A 1_555 1_555
H45A C60A 1_555 1_555
N9A C49A 1_555 1_555
N10A C54A 1_555 1_555
C61A C61 1_555 1_555
C62A C61A 1_555 1_555
H46A C62A 1_555 1_555
C63A C62A 1_555 1_555
H47A C63A 1_555 1_555
C64A C63A 1_555 1_555
C65A C64A 1_555 1_555
H48A C65A 1_555 1_555
C66A C61A 1_555 1_555
H49A C66A 1_555 1_555
C67A H50A 1_555 1_555
C68A C67A 1_555 1_555
C69A H51A 1_555 1_555
C70A C69A 1_555 1_555
H52A C70A 1_555 1_555
C71A C70A 1_555 1_555
H53A C71A 1_555 1_555
C72A C68A 1_555 1_555
H54A C72A 1_555 1_555
N11A C64A 1_555 1_555
N12A C68A 1_555 1_555
C1A C5A 1_555 1_555
C2A H1A 1_555 1_555
C3A C2A 1_555 1_555
H2A C3A 1_555 1_555
C4A C3A 1_555 1_555
H3A C4A 1_555 1_555
C5A C4A 1_555 1_555
H4A C5A 1_555 1_555
C6A C1A 1_555 1_555
H5A C6A 1_555 1_555
C7A C8A 1_555 1_555
C8A H6A 1_555 1_555
C9A C8A 1_555 1_555
H7A C9A 1_555 1_555
C10A C9A 1_555 1_555
C11A C10A 1_555 1_555
H8A C11A 1_555 1_555
C12A C7A 1_555 1_555
H9A C12A 1_555 1_555
C13A C10A 1_555 1_555
C14A C13A 1_555 1_555
H10A C14A 1_555 1_555
C15A C14A 1_555 1_555
H11A C15A 1_555 1_555
C16A C15A 1_555 1_555
C17A C16A 1_555 1_555
H12A C17A 1_555 1_555
C18A C13A 1_555 1_555
H13A C18A 1_555 1_555
C19A H14A 1_555 1_555
C20A C19A 1_555 1_555
C21A H15A 1_555 1_555
C22A C21A 1_555 1_555
H16A C22A 1_555 1_555
C23A C22A 1_555 1_555
H17A C23A 1_555 1_555
C24A C20A 1_555 1_555
H18A C24A 1_555 1_555
C25A C29A 1_555 1_555
C26A H19A 1_555 1_555
C27A C26A 1_555 1_555
H20A C27A 1_555 1_555
C28A C27A 1_555 1_555
H21A C28A 1_555 1_555
C29A C28A 1_555 1_555
H22A C29A 1_555 1_555
C30A C25A 1_555 1_555
H23A C30A 1_555 1_555
C31A C32A 1_555 1_555
C32A H24A 1_555 1_555
C33A C32A 1_555 1_555
H25A C33A 1_555 1_555
C34A C33A 1_555 1_555
C35A C34A 1_555 1_555
H26A C35A 1_555 1_555
C36A C31A 1_555 1_555
H27A C36A 1_555 1_555
C37A C34A 1_555 1_555
C38A C37A 1_555 1_555
H28A C38A 1_555 1_555
C39A C38A 1_555 1_555
H29A C39A 1_555 1_555
C40A C39A 1_555 1_555
C41A C40A 1_555 1_555
H30A C41A 1_555 1_555
C42A C37A 1_555 1_555
H31A C42A 1_555 1_555
C43A H32A 1_555 1_555
C44A C43A 1_555 1_555
C45A H33A 1_555 1_555
C46A C45A 1_555 1_555
H34A C46A 1_555 1_555
C47A C46A 1_555 1_555
H35A C47A 1_555 1_555
C48A C44A 1_555 1_555
H36A C48A 1_555 1_555
N1A C1A 1_555 1_555
N2A C6A 1_555 1_555
N3A C16A 1_555 1_555
N4A C20A 1_555 1_555
N5A C25A 1_555 1_555
N6A C30A 1_555 1_555
N7A Fe2 1_555 1_555
N8A Fe2 1_555 1_555
Fe1A N9A 1_555 1_555
Fe2A N7 1_555 1_555
C2 N1 1_555 1_555
C7 N2 1_555 1_555
C11 C12 1_555 1_555
C17 C18 1_555 1_555
C19 N3 1_555 1_555
C21 N4 1_555 1_555
C23 C24 1_555 1_555
C26 N5 1_555 1_555
C31 N6 1_555 1_555
C35 C36 1_555 1_555
C41 C42 1_555 1_555
C43 N7 1_555 1_555
C45 N8 1_555 1_555
C47 C48 1_555 1_555
C50 N9 1_555 1_555
C55 N10 1_555 1_555
C59 C60 1_555 1_555
C65 C66 1_555 1_555
C67 N11 1_555 1_555
C69 N12 1_555 1_555
C71 C72 1_555 1_555
N2 Fe1 1_555 1_555
N4 Fe2 1_555 1_555
N5 Fe1 1_555 1_555
N6 Fe1 1_555 1_555
N8 Fe2A 1_555 1_555
N9 Fe1 1_555 1_555
N10 Fe1 1_555 1_555
N11 Fe2 1_555 1_555
N12 Fe2 1_555 1_555
N13 S2 1_555 1_555
N14 S5 1_555 1_555
N15 S7 1_555 1_555
N16 S9 1_555 1_555
C50A N9A 1_555 1_555
C55A N10A 1_555 1_555
C57A C58A 1_555 1_555
C59A C60A 1_555 1_555
N10A Fe1A 1_555 1_555
C65A C66A 1_555 1_555
C67A N11A 1_555 1_555
C69A N12A 1_555 1_555
C71A C72A 1_555 1_555
N11A Fe2A 1_555 1_555
N12A Fe2A 1_555 1_555
C2A N1A 1_555 1_555
C7A N2A 1_555 1_555
C11A C12A 1_555 1_555
C17A C18A 1_555 1_555
C19A N3A 1_555 1_555
C21A N4A 1_555 1_555
C23A C24A 1_555 1_555
C26A N5A 1_555 1_555
C31A N6A 1_555 1_555
C35A C36A 1_555 1_555
C40A N7A 1_555 1_555
C41A C42A 1_555 1_555
C43A N7A 1_555 1_555
C44A N8A 1_555 1_555
C45A N8A 1_555 1_555
C47A C48A 1_555 1_555
N1A Fe1A 1_555 1_555
N2A Fe1A 1_555 1_555
N3A Fe2A 1_555 1_555
N4A Fe2A 1_555 1_555
N5A Fe1A 1_555 1_555
N6A Fe1A 1_555 1_555

#END
