# generated using pymatgen
data_Fe2H73C90S11N19O19F24
_symmetry_space_group_name_H-M   'P 1'
_cell_length_a   19.15970000
_cell_length_b   20.23190000
_cell_length_c   29.23050000
_cell_angle_alpha   102.58200000
_cell_angle_beta   90.00000000
_cell_angle_gamma   90.00000000
_symmetry_Int_Tables_number   1
_chemical_formula_structural   Fe2H73C90S11N19O19F24
_chemical_formula_sum   'Fe8 H292 C360 S44 N76 O76 F96'
_cell_volume   11058.72022306
_cell_formula_units_Z   4
loop_
 _symmetry_equiv_pos_site_id
 _symmetry_equiv_pos_as_xyz
  1  'x, y, z'
loop_
 _atom_site_type_symbol
 _atom_site_label
 _atom_site_symmetry_multiplicity
 _atom_site_fract_x
 _atom_site_fract_y
 _atom_site_fract_z
 _atom_site_occupancy
  Fe  Fe1  1  0.488860  0.811010  0.897090  1.0
  Fe  Fe2  1  0.488860  0.188990  0.602910  1.0
  Fe  Fe3  1  0.511140  0.188990  0.102910  1.0
  Fe  Fe4  1  0.511140  0.811010  0.397090  1.0
  Fe  Fe5  1  0.947300  0.256760  0.915540  1.0
  Fe  Fe6  1  0.947300  0.743240  0.584460  1.0
  Fe  Fe7  1  0.052700  0.743240  0.084460  1.0
  Fe  Fe8  1  0.052700  0.256760  0.415540  1.0
  H  H9  1  0.421400  0.405400  0.834100  1
  H  H10  1  0.421400  0.594600  0.665900  1
  H  H11  1  0.578600  0.594600  0.165900  1
  H  H12  1  0.578600  0.405400  0.334100  1
  H  H13  1  0.425000  0.457700  0.883700  1
  H  H14  1  0.425000  0.542300  0.616300  1
  H  H15  1  0.575000  0.542300  0.116300  1
  H  H16  1  0.575000  0.457700  0.383700  1
  H  H17  1  0.352500  0.444500  0.856100  1
  H  H18  1  0.352500  0.555500  0.643900  1
  H  H19  1  0.647500  0.555500  0.143900  1
  H  H20  1  0.647500  0.444500  0.356100  1
  H  H21  1  0.376200  0.183400  0.775400  1
  H  H22  1  0.376200  0.816600  0.724600  1
  H  H23  1  0.623800  0.816600  0.224600  1
  H  H24  1  0.623800  0.183400  0.275400  1
  H  H25  1  0.385100  0.241200  0.822000  1
  H  H26  1  0.385100  0.758800  0.678000  1
  H  H27  1  0.614900  0.758800  0.178000  1
  H  H28  1  0.614900  0.241200  0.322000  1
  H  H29  1  0.315700  0.196100  0.814100  1
  H  H30  1  0.315700  0.803900  0.685900  1
  H  H31  1  0.684300  0.803900  0.185900  1
  H  H32  1  0.684300  0.196100  0.314100  1
  H  H33  1  0.951200  0.596500  0.293900  1
  H  H34  1  0.951200  0.403500  0.206100  1
  H  H35  1  0.048800  0.403500  0.706100  1
  H  H36  1  0.048800  0.596500  0.793900  1
  H  H37  1  0.986800  0.648300  0.335500  1
  H  H38  1  0.986800  0.351700  0.164500  1
  H  H39  1  0.013200  0.351700  0.664500  1
  H  H40  1  0.013200  0.648300  0.835500  1
  H  H41  1  0.036000  0.683000  0.273300  1
  H  H42  1  0.036000  0.317000  0.226700  1
  H  H43  1  0.964000  0.317000  0.726700  1
  H  H44  1  0.964000  0.683000  0.773300  1
  H  H45  1  0.963500  0.707100  0.298600  1
  H  H46  1  0.963500  0.292900  0.201400  1
  H  H47  1  0.036500  0.292900  0.701400  1
  H  H48  1  0.036500  0.707100  0.798600  1
  H  H49  1  0.964300  0.650800  0.250800  1
  H  H50  1  0.964300  0.349200  0.249200  1
  H  H51  1  0.035700  0.349200  0.749200  1
  H  H52  1  0.035700  0.650800  0.750800  1
  H  H53  1  0.028500  0.537000  0.357600  1
  H  H54  1  0.028500  0.463000  0.142400  1
  H  H55  1  0.971500  0.463000  0.642400  1
  H  H56  1  0.971500  0.537000  0.857600  1
  H  H57  1  0.991200  0.499300  0.310200  1
  H  H58  1  0.991200  0.500700  0.189800  1
  H  H59  1  0.008800  0.500700  0.689800  1
  H  H60  1  0.008800  0.499300  0.810200  1
  H  H61  1  0.087700  0.459600  0.282500  1
  H  H62  1  0.087700  0.540400  0.217500  1
  H  H63  1  0.912300  0.540400  0.717500  1
  H  H64  1  0.912300  0.459600  0.782500  1
  H  H65  1  0.072100  0.441600  0.332200  1
  H  H66  1  0.072100  0.558400  0.167800  1
  H  H67  1  0.927900  0.558400  0.667800  1
  H  H68  1  0.927900  0.441600  0.832200  1
  H  H69  1  0.127200  0.499700  0.328500  1
  H  H70  1  0.127200  0.500300  0.171500  1
  H  H71  1  0.872800  0.500300  0.671500  1
  H  H72  1  0.872800  0.499700  0.828500  1
  H  H73  1  0.823000  0.774700  0.916000  1
  H  H74  1  0.823000  0.225300  0.584000  1
  H  H75  1  0.177000  0.225300  0.084000  1
  H  H76  1  0.177000  0.774700  0.416000  1
  H  H77  1  0.817000  0.720200  0.867500  1
  H  H78  1  0.817000  0.279800  0.632500  1
  H  H79  1  0.183000  0.279800  0.132500  1
  H  H80  1  0.183000  0.720200  0.367500  1
  H  H81  1  0.888300  0.760800  0.881100  1
  H  H82  1  0.888300  0.239200  0.618900  1
  H  H83  1  0.111700  0.239200  0.118900  1
  H  H84  1  0.111700  0.760800  0.381100  1
  H  H85  1  0.354700  0.721300  0.888100  1.0
  H  H86  1  0.354700  0.278700  0.611900  1.0
  H  H87  1  0.645300  0.278700  0.111900  1.0
  H  H88  1  0.645300  0.721300  0.388100  1.0
  H  H89  1  0.236800  0.743500  0.902900  1.0
  H  H90  1  0.236800  0.256500  0.597100  1.0
  H  H91  1  0.763200  0.256500  0.097100  1.0
  H  H92  1  0.763200  0.743500  0.402900  1.0
  H  H93  1  0.196500  0.853900  0.924000  1.0
  H  H94  1  0.196500  0.146100  0.576000  1.0
  H  H95  1  0.803500  0.146100  0.076000  1.0
  H  H96  1  0.803500  0.853900  0.424000  1.0
  H  H97  1  0.277400  0.943700  0.931400  1.0
  H  H98  1  0.277400  0.056300  0.568600  1.0
  H  H99  1  0.722600  0.056300  0.068600  1.0
  H  H100  1  0.722600  0.943700  0.431400  1.0
  H  H101  1  0.406600  0.979900  0.928700  1.0
  H  H102  1  0.406600  0.020100  0.571300  1.0
  H  H103  1  0.593400  0.020100  0.071300  1.0
  H  H104  1  0.593400  0.979900  0.428700  1.0
  H  H105  1  0.589600  0.935700  0.969200  1.0
  H  H106  1  0.589600  0.064300  0.530800  1.0
  H  H107  1  0.410400  0.064300  0.030800  1.0
  H  H108  1  0.410400  0.935700  0.469200  1.0
  H  H109  1  0.679700  0.014400  0.968600  1.0
  H  H110  1  0.679700  0.985600  0.531400  1.0
  H  H111  1  0.320300  0.985600  0.031400  1.0
  H  H112  1  0.320300  0.014400  0.468600  1.0
  H  H113  1  0.584000  0.076800  0.862000  1.0
  H  H114  1  0.584000  0.923200  0.638000  1.0
  H  H115  1  0.416000  0.923200  0.138000  1.0
  H  H116  1  0.416000  0.076800  0.362000  1.0
  H  H117  1  0.493500  0.999300  0.863100  1.0
  H  H118  1  0.493500  0.000700  0.636900  1.0
  H  H119  1  0.506500  0.000700  0.136900  1.0
  H  H120  1  0.506500  0.999300  0.363100  1.0
  H  H121  1  0.718400  0.122900  0.984600  1.0
  H  H122  1  0.718400  0.877100  0.515400  1.0
  H  H123  1  0.281600  0.877100  0.015400  1.0
  H  H124  1  0.281600  0.122900  0.484600  1.0
  H  H125  1  0.799700  0.209400  0.985300  1.0
  H  H126  1  0.799700  0.790600  0.514700  1.0
  H  H127  1  0.200300  0.790600  0.014700  1.0
  H  H128  1  0.200300  0.209400  0.485300  1.0
  H  H129  1  0.779600  0.187200  0.845600  1.0
  H  H130  1  0.779600  0.812800  0.654400  1.0
  H  H131  1  0.220400  0.812800  0.154400  1.0
  H  H132  1  0.220400  0.187200  0.345600  1.0
  H  H133  1  0.694400  0.103200  0.844400  1.0
  H  H134  1  0.694400  0.896800  0.655600  1.0
  H  H135  1  0.305600  0.896800  0.155600  1.0
  H  H136  1  0.305600  0.103200  0.344400  1.0
  H  H137  1  0.770100  0.328100  0.933800  1.0
  H  H138  1  0.770100  0.671900  0.566200  1.0
  H  H139  1  0.229900  0.671900  0.066200  1.0
  H  H140  1  0.229900  0.328100  0.433800  1.0
  H  H141  1  0.032200  0.392400  0.931600  1.0
  H  H142  1  0.032200  0.607600  0.568400  1.0
  H  H143  1  0.967800  0.607600  0.068400  1.0
  H  H144  1  0.967800  0.392400  0.431600  1.0
  H  H145  1  0.003700  0.506300  0.947600  1.0
  H  H146  1  0.003700  0.493700  0.552400  1.0
  H  H147  1  0.996300  0.493700  0.052400  1.0
  H  H148  1  0.996300  0.506300  0.447600  1.0
  H  H149  1  0.887300  0.540200  0.953600  1.0
  H  H150  1  0.887300  0.459800  0.546400  1.0
  H  H151  1  0.112700  0.459800  0.046400  1.0
  H  H152  1  0.112700  0.540200  0.453600  1.0
  H  H153  1  0.800000  0.456600  0.948500  1.0
  H  H154  1  0.800000  0.543400  0.551500  1.0
  H  H155  1  0.200000  0.543400  0.051500  1.0
  H  H156  1  0.200000  0.456600  0.448500  1.0
  H  H157  1  0.403500  0.817400  0.988500  1.0
  H  H158  1  0.403500  0.182600  0.511500  1.0
  H  H159  1  0.596500  0.182600  0.011500  1.0
  H  H160  1  0.596500  0.817400  0.488500  1.0
  H  H161  1  0.428600  0.800600  0.062600  1.0
  H  H162  1  0.428600  0.199400  0.437400  1.0
  H  H163  1  0.571400  0.199400  0.937400  1.0
  H  H164  1  0.571400  0.800600  0.562600  1.0
  H  H165  1  0.542600  0.779200  0.082600  1.0
  H  H166  1  0.542600  0.220800  0.417400  1.0
  H  H167  1  0.457400  0.220800  0.917400  1.0
  H  H168  1  0.457400  0.779200  0.582600  1.0
  H  H169  1  0.631900  0.779500  0.027500  1.0
  H  H170  1  0.631900  0.220500  0.472500  1.0
  H  H171  1  0.368100  0.220500  0.972500  1.0
  H  H172  1  0.368100  0.779500  0.527500  1.0
  H  H173  1  0.664900  0.788700  0.942300  1.0
  H  H174  1  0.664900  0.211300  0.557700  1.0
  H  H175  1  0.335100  0.211300  0.057700  1.0
  H  H176  1  0.335100  0.788700  0.442300  1.0
  H  H177  1  0.658100  0.897600  0.864600  1.0
  H  H178  1  0.658100  0.102400  0.635400  1.0
  H  H179  1  0.341900  0.102400  0.135400  1.0
  H  H180  1  0.341900  0.897600  0.364600  1.0
  H  H181  1  0.745000  0.882900  0.807800  1.0
  H  H182  1  0.745000  0.117100  0.692200  1.0
  H  H183  1  0.255000  0.117100  0.192200  1.0
  H  H184  1  0.255000  0.882900  0.307800  1.0
  H  H185  1  0.723400  0.680500  0.788000  1.0
  H  H186  1  0.723400  0.319500  0.712000  1.0
  H  H187  1  0.276600  0.319500  0.212000  1.0
  H  H188  1  0.276600  0.680500  0.288000  1.0
  H  H189  1  0.639100  0.695700  0.846300  1.0
  H  H190  1  0.639100  0.304300  0.653700  1.0
  H  H191  1  0.360900  0.304300  0.153700  1.0
  H  H192  1  0.360900  0.695700  0.346300  1.0
  H  H193  1  0.857400  0.853400  0.783500  1.0
  H  H194  1  0.857400  0.146600  0.716500  1.0
  H  H195  1  0.142600  0.146600  0.216500  1.0
  H  H196  1  0.142600  0.853400  0.283500  1.0
  H  H197  1  0.944200  0.837900  0.726800  1.0
  H  H198  1  0.944200  0.162100  0.773200  1.0
  H  H199  1  0.055800  0.162100  0.273200  1.0
  H  H200  1  0.055800  0.837900  0.226800  1.0
  H  H201  1  0.849400  0.665700  0.658400  1.0
  H  H202  1  0.849400  0.334300  0.841600  1.0
  H  H203  1  0.150600  0.334300  0.341600  1.0
  H  H204  1  0.150600  0.665700  0.158400  1.0
  H  H205  1  0.762800  0.680900  0.716200  1.0
  H  H206  1  0.762800  0.319100  0.783800  1.0
  H  H207  1  0.237200  0.319100  0.283800  1.0
  H  H208  1  0.237200  0.680900  0.216200  1.0
  H  H209  1  0.032100  0.732300  0.695700  1.0
  H  H210  1  0.032100  0.267700  0.804300  1.0
  H  H211  1  0.967900  0.267700  0.304300  1.0
  H  H212  1  0.967900  0.732300  0.195700  1.0
  H  H213  1  0.077900  0.737900  0.521700  1.0
  H  H214  1  0.077900  0.262100  0.978300  1.0
  H  H215  1  0.922100  0.262100  0.478300  1.0
  H  H216  1  0.922100  0.737900  0.021700  1.0
  H  H217  1  0.196800  0.721600  0.530900  1.0
  H  H218  1  0.196800  0.278400  0.969100  1.0
  H  H219  1  0.803200  0.278400  0.469100  1.0
  H  H220  1  0.803200  0.721600  0.030900  1.0
  H  H221  1  0.240000  0.708900  0.603300  1.0
  H  H222  1  0.240000  0.291100  0.896700  1.0
  H  H223  1  0.760000  0.291100  0.396700  1.0
  H  H224  1  0.760000  0.708900  0.103300  1.0
  H  H225  1  0.161500  0.715100  0.666300  1.0
  H  H226  1  0.161500  0.284900  0.833700  1.0
  H  H227  1  0.838500  0.284900  0.333700  1.0
  H  H228  1  0.838500  0.715100  0.166300  1.0
  H  H229  1  0.498400  0.677200  0.933900  1.0
  H  H230  1  0.498400  0.322800  0.566100  1.0
  H  H231  1  0.501600  0.322800  0.066100  1.0
  H  H232  1  0.501600  0.677200  0.433900  1.0
  H  H233  1  0.500800  0.562700  0.898700  1.0
  H  H234  1  0.500800  0.437300  0.601300  1.0
  H  H235  1  0.499200  0.437300  0.101300  1.0
  H  H236  1  0.499200  0.562700  0.398700  1.0
  H  H237  1  0.492100  0.527700  0.818400  1.0
  H  H238  1  0.492100  0.472300  0.681600  1.0
  H  H239  1  0.507900  0.472300  0.181600  1.0
  H  H240  1  0.507900  0.527700  0.318400  1.0
  H  H241  1  0.479800  0.609500  0.772200  1.0
  H  H242  1  0.479800  0.390500  0.727800  1.0
  H  H243  1  0.520200  0.390500  0.227800  1.0
  H  H244  1  0.520200  0.609500  0.272200  1.0
  H  H245  1  0.476500  0.737300  0.770800  1.0
  H  H246  1  0.476500  0.262700  0.729200  1.0
  H  H247  1  0.523500  0.262700  0.229200  1.0
  H  H248  1  0.523500  0.737300  0.270800  1.0
  H  H249  1  0.577200  0.848400  0.778400  1.0
  H  H250  1  0.577200  0.151600  0.721600  1.0
  H  H251  1  0.422800  0.151600  0.221600  1.0
  H  H252  1  0.422800  0.848400  0.278400  1.0
  H  H253  1  0.574400  0.939500  0.741700  1.0
  H  H254  1  0.574400  0.060500  0.758300  1.0
  H  H255  1  0.425600  0.060500  0.258300  1.0
  H  H256  1  0.425600  0.939500  0.241700  1.0
  H  H257  1  0.374400  0.977600  0.784400  1.0
  H  H258  1  0.374400  0.022400  0.715600  1.0
  H  H259  1  0.625600  0.022400  0.215600  1.0
  H  H260  1  0.625600  0.977600  0.284400  1.0
  H  H261  1  0.377900  0.887300  0.822600  1.0
  H  H262  1  0.377900  0.112700  0.677400  1.0
  H  H263  1  0.622100  0.112700  0.177400  1.0
  H  H264  1  0.622100  0.887300  0.322600  1.0
  H  H265  1  0.864900  0.998200  0.791300  1.0
  H  H266  1  0.864900  0.001800  0.708700  1.0
  H  H267  1  0.135100  0.001800  0.208700  1.0
  H  H268  1  0.135100  0.998200  0.291300  1.0
  H  H269  1  0.860100  0.072700  0.864800  1.0
  H  H270  1  0.860100  0.927300  0.635200  1.0
  H  H271  1  0.139900  0.927300  0.135200  1.0
  H  H272  1  0.139900  0.072700  0.364800  1.0
  H  H273  1  0.059600  0.129300  0.847600  1.0
  H  H274  1  0.059600  0.870700  0.652400  1.0
  H  H275  1  0.940400  0.870700  0.152400  1.0
  H  H276  1  0.940400  0.129300  0.347600  1.0
  H  H277  1  0.062900  0.055000  0.774400  1.0
  H  H278  1  0.062900  0.945000  0.725600  1.0
  H  H279  1  0.937100  0.945000  0.225600  1.0
  H  H280  1  0.937100  0.055000  0.274400  1.0
  H  H281  1  0.963100  0.088500  0.944300  1.0
  H  H282  1  0.963100  0.911500  0.555700  1.0
  H  H283  1  0.036900  0.911500  0.055700  1.0
  H  H284  1  0.036900  0.088500  0.444300  1.0
  H  H285  1  0.931100  0.344800  0.016000  1.0
  H  H286  1  0.931100  0.655200  0.484000  1.0
  H  H287  1  0.068900  0.655200  0.984000  1.0
  H  H288  1  0.068900  0.344800  0.516000  1.0
  H  H289  1  0.920500  0.322800  0.090600  1.0
  H  H290  1  0.920500  0.677200  0.409400  1.0
  H  H291  1  0.079500  0.677200  0.909400  1.0
  H  H292  1  0.079500  0.322800  0.590600  1.0
  H  H293  1  0.934700  0.211500  0.101200  1.0
  H  H294  1  0.934700  0.788500  0.398800  1.0
  H  H295  1  0.065300  0.788500  0.898800  1.0
  H  H296  1  0.065300  0.211500  0.601200  1.0
  H  H297  1  0.950700  0.123300  0.034900  1.0
  H  H298  1  0.950700  0.876700  0.465100  1.0
  H  H299  1  0.049300  0.876700  0.965100  1.0
  H  H300  1  0.049300  0.123300  0.534900  1.0
  C  C301  1  0.191900  0.884400  0.773300  1
  C  C302  1  0.191900  0.115600  0.726700  1
  C  C303  1  0.808100  0.115600  0.226700  1
  C  C304  1  0.808100  0.884400  0.273300  1
  C  C305  1  0.239300  0.655200  0.785300  1
  C  C306  1  0.239300  0.344800  0.714700  1
  C  C307  1  0.760700  0.344800  0.214700  1
  C  C308  1  0.760700  0.655200  0.285300  1
  C  C309  1  0.347200  0.599600  0.983300  1
  C  C310  1  0.347200  0.400400  0.516700  1
  C  C311  1  0.652800  0.400400  0.016700  1
  C  C312  1  0.652800  0.599600  0.483300  1
  C  C313  1  0.174500  0.472000  0.864400  1
  C  C314  1  0.174500  0.528000  0.635600  1
  C  C315  1  0.825500  0.528000  0.135600  1
  C  C316  1  0.825500  0.472000  0.364400  1
  C  C317  1  0.235400  0.096800  0.906200  1
  C  C318  1  0.235400  0.903200  0.593800  1
  C  C319  1  0.764600  0.903200  0.093800  1
  C  C320  1  0.764600  0.096800  0.406200  1
  C  C321  1  0.147500  0.060200  0.061900  1
  C  C322  1  0.147500  0.939800  0.438100  1
  C  C323  1  0.852500  0.939800  0.938100  1
  C  C324  1  0.852500  0.060200  0.561900  1
  C  C325  1  0.582300  0.288200  0.861300  1
  C  C326  1  0.582300  0.711800  0.638700  1
  C  C327  1  0.417700  0.711800  0.138700  1
  C  C328  1  0.417700  0.288200  0.361300  1
  C  C329  1  0.660300  0.485400  0.804200  1
  C  C330  1  0.660300  0.514600  0.695800  1
  C  C331  1  0.339700  0.514600  0.195800  1
  C  C332  1  0.339700  0.485400  0.304200  1
  C  C333  1  0.380200  0.368200  0.887200  1
  C  C334  1  0.380200  0.631800  0.612800  1
  C  C335  1  0.619800  0.631800  0.112800  1
  C  C336  1  0.619800  0.368200  0.387200  1
  C  C337  1  0.396100  0.423600  0.863300  1
  C  C338  1  0.396100  0.576400  0.636700  1
  C  C339  1  0.603900  0.576400  0.136700  1
  C  C340  1  0.603900  0.423600  0.363300  1
  C  C341  1  0.398600  0.147500  0.832300  1
  C  C342  1  0.398600  0.852500  0.667700  1
  C  C343  1  0.601400  0.852500  0.167700  1
  C  C344  1  0.601400  0.147500  0.332300  1
  C  C345  1  0.366300  0.196000  0.809100  1
  C  C346  1  0.366300  0.804000  0.690900  1
  C  C347  1  0.633700  0.804000  0.190900  1
  C  C348  1  0.633700  0.196000  0.309100  1
  C  C349  1  0.993600  0.624300  0.302500  1
  C  C350  1  0.993600  0.375700  0.197500  1
  C  C351  1  0.006400  0.375700  0.697500  1
  C  C352  1  0.006400  0.624300  0.802500  1
  C  C353  1  0.989000  0.668000  0.280200  1
  C  C354  1  0.989000  0.332000  0.219800  1
  C  C355  1  0.011000  0.332000  0.719800  1
  C  C356  1  0.011000  0.668000  0.780200  1
  C  C357  1  0.035100  0.521400  0.323400  1
  C  C358  1  0.035100  0.478600  0.176600  1
  C  C359  1  0.964900  0.478600  0.676600  1
  C  C360  1  0.964900  0.521400  0.823400  1
  C  C361  1  0.083000  0.478200  0.316200  1
  C  C362  1  0.083000  0.521800  0.183800  1
  C  C363  1  0.917000  0.521800  0.683800  1
  C  C364  1  0.917000  0.478200  0.816200  1
  C  C365  1  0.874000  0.683900  0.917800  1
  C  C366  1  0.874000  0.316100  0.582200  1
  C  C367  1  0.126000  0.316100  0.082200  1
  C  C368  1  0.126000  0.683900  0.417800  1
  C  C369  1  0.848000  0.740000  0.893400  1
  C  C370  1  0.848000  0.260000  0.606600  1
  C  C371  1  0.152000  0.260000  0.106600  1
  C  C372  1  0.152000  0.740000  0.393400  1
  C  C373  1  0.362500  0.882100  0.916000  1.0
  C  C374  1  0.362500  0.117900  0.584000  1.0
  C  C375  1  0.637500  0.117900  0.084000  1.0
  C  C376  1  0.637500  0.882100  0.416000  1.0
  C  C377  1  0.339300  0.766800  0.897700  1.0
  C  C378  1  0.339300  0.233200  0.602300  1.0
  C  C379  1  0.660700  0.233200  0.102300  1.0
  C  C380  1  0.660700  0.766800  0.397700  1.0
  C  C381  1  0.268800  0.780100  0.906000  1.0
  C  C382  1  0.268800  0.219900  0.594000  1.0
  C  C383  1  0.731200  0.219900  0.094000  1.0
  C  C384  1  0.731200  0.780100  0.406000  1.0
  C  C385  1  0.244800  0.845000  0.918600  1.0
  C  C386  1  0.244800  0.155000  0.581400  1.0
  C  C387  1  0.755200  0.155000  0.081400  1.0
  C  C388  1  0.755200  0.845000  0.418600  1.0
  C  C389  1  0.292500  0.897900  0.923400  1.0
  C  C390  1  0.292500  0.102100  0.576600  1.0
  C  C391  1  0.707500  0.102100  0.076600  1.0
  C  C392  1  0.707500  0.897900  0.423400  1.0
  C  C393  1  0.416900  0.932900  0.920900  1.0
  C  C394  1  0.416900  0.067100  0.579100  1.0
  C  C395  1  0.583100  0.067100  0.079100  1.0
  C  C396  1  0.583100  0.932900  0.420900  1.0
  C  C397  1  0.534700  0.959700  0.915300  1.0
  C  C398  1  0.534700  0.040300  0.584700  1.0
  C  C399  1  0.465300  0.040300  0.084700  1.0
  C  C400  1  0.465300  0.959700  0.415300  1.0
  C  C401  1  0.588900  0.964000  0.947200  1.0
  C  C402  1  0.588900  0.036000  0.552800  1.0
  C  C403  1  0.411100  0.036000  0.052800  1.0
  C  C404  1  0.411100  0.964000  0.447200  1.0
  C  C405  1  0.642500  0.010800  0.946600  1.0
  C  C406  1  0.642500  0.989200  0.553400  1.0
  C  C407  1  0.357500  0.989200  0.053400  1.0
  C  C408  1  0.357500  0.010800  0.446600  1.0
  C  C409  1  0.642000  0.052600  0.913900  1.0
  C  C410  1  0.642000  0.947400  0.586100  1.0
  C  C411  1  0.358000  0.947400  0.086100  1.0
  C  C412  1  0.358000  0.052600  0.413900  1.0
  C  C413  1  0.585800  0.047900  0.883600  1.0
  C  C414  1  0.585800  0.952100  0.616400  1.0
  C  C415  1  0.414200  0.952100  0.116400  1.0
  C  C416  1  0.414200  0.047900  0.383600  1.0
  C  C417  1  0.531800  0.001700  0.884000  1.0
  C  C418  1  0.531800  0.998300  0.616000  1.0
  C  C419  1  0.468200  0.998300  0.116000  1.0
  C  C420  1  0.468200  0.001700  0.384000  1.0
  C  C421  1  0.697700  0.103800  0.913600  1.0
  C  C422  1  0.697700  0.896200  0.586400  1.0
  C  C423  1  0.302300  0.896200  0.086400  1.0
  C  C424  1  0.302300  0.103800  0.413600  1.0
  C  C425  1  0.730000  0.136100  0.956300  1.0
  C  C426  1  0.730000  0.863900  0.543700  1.0
  C  C427  1  0.270000  0.863900  0.043700  1.0
  C  C428  1  0.270000  0.136100  0.456300  1.0
  C  C429  1  0.778600  0.187300  0.956600  1.0
  C  C430  1  0.778600  0.812700  0.543400  1.0
  C  C431  1  0.221400  0.812700  0.043400  1.0
  C  C432  1  0.221400  0.187300  0.456600  1.0
  C  C433  1  0.796400  0.206200  0.915800  1.0
  C  C434  1  0.796400  0.793800  0.584200  1.0
  C  C435  1  0.203600  0.793800  0.084200  1.0
  C  C436  1  0.203600  0.206200  0.415800  1.0
  C  C437  1  0.766300  0.174700  0.873800  1.0
  C  C438  1  0.766300  0.825300  0.626200  1.0
  C  C439  1  0.233700  0.825300  0.126200  1.0
  C  C440  1  0.233700  0.174700  0.373800  1.0
  C  C441  1  0.716100  0.123900  0.873200  1.0
  C  C442  1  0.716100  0.876100  0.626800  1.0
  C  C443  1  0.283900  0.876100  0.126800  1.0
  C  C444  1  0.283900  0.123900  0.373200  1.0
  C  C445  1  0.818800  0.320600  0.929200  1.0
  C  C446  1  0.818800  0.679400  0.570800  1.0
  C  C447  1  0.181200  0.679400  0.070800  1.0
  C  C448  1  0.181200  0.320600  0.429200  1.0
  C  C449  1  0.867800  0.377100  0.934500  1.0
  C  C450  1  0.867800  0.622900  0.565500  1.0
  C  C451  1  0.132200  0.622900  0.065500  1.0
  C  C452  1  0.132200  0.377100  0.434500  1.0
  C  C453  1  0.984400  0.405400  0.934800  1.0
  C  C454  1  0.984400  0.594600  0.565200  1.0
  C  C455  1  0.015600  0.594600  0.065200  1.0
  C  C456  1  0.015600  0.405400  0.434800  1.0
  C  C457  1  0.967600  0.473300  0.944100  1.0
  C  C458  1  0.967600  0.526700  0.555900  1.0
  C  C459  1  0.032400  0.526700  0.055900  1.0
  C  C460  1  0.032400  0.473300  0.444100  1.0
  C  C461  1  0.899300  0.493500  0.948200  1.0
  C  C462  1  0.899300  0.506500  0.551800  1.0
  C  C463  1  0.100700  0.506500  0.051800  1.0
  C  C464  1  0.100700  0.493500  0.448200  1.0
  C  C465  1  0.847800  0.444300  0.944400  1.0
  C  C466  1  0.847800  0.555700  0.555600  1.0
  C  C467  1  0.152200  0.555700  0.055600  1.0
  C  C468  1  0.152200  0.444300  0.444400  1.0
  C  C469  1  0.566700  0.796800  0.976400  1.0
  C  C470  1  0.566700  0.203200  0.523600  1.0
  C  C471  1  0.433300  0.203200  0.023600  1.0
  C  C472  1  0.433300  0.796800  0.476400  1.0
  C  C473  1  0.450300  0.808700  0.996100  1.0
  C  C474  1  0.450300  0.191300  0.503900  1.0
  C  C475  1  0.549700  0.191300  0.003900  1.0
  C  C476  1  0.549700  0.808700  0.496100  1.0
  C  C477  1  0.465200  0.799000  0.040400  1.0
  C  C478  1  0.465200  0.201000  0.459600  1.0
  C  C479  1  0.534800  0.201000  0.959600  1.0
  C  C480  1  0.534800  0.799000  0.540400  1.0
  C  C481  1  0.532300  0.787100  0.052500  1.0
  C  C482  1  0.532300  0.212900  0.447500  1.0
  C  C483  1  0.467700  0.212900  0.947500  1.0
  C  C484  1  0.467700  0.787100  0.552500  1.0
  C  C485  1  0.584700  0.786600  0.020000  1.0
  C  C486  1  0.584700  0.213400  0.480000  1.0
  C  C487  1  0.415300  0.213400  0.980000  1.0
  C  C488  1  0.415300  0.786600  0.520000  1.0
  C  C489  1  0.616500  0.795900  0.938300  1.0
  C  C490  1  0.616500  0.204100  0.561700  1.0
  C  C491  1  0.383500  0.204100  0.061700  1.0
  C  C492  1  0.383500  0.795900  0.438300  1.0
  C  C493  1  0.641500  0.797700  0.861800  1.0
  C  C494  1  0.641500  0.202300  0.638200  1.0
  C  C495  1  0.358500  0.202300  0.138200  1.0
  C  C496  1  0.358500  0.797700  0.361800  1.0
  C  C497  1  0.672200  0.853200  0.849500  1.0
  C  C498  1  0.672200  0.146800  0.650500  1.0
  C  C499  1  0.327800  0.146800  0.150500  1.0
  C  C500  1  0.327800  0.853200  0.349500  1.0
  C  C501  1  0.723400  0.844300  0.815300  1.0
  C  C502  1  0.723400  0.155700  0.684700  1.0
  C  C503  1  0.276600  0.155700  0.184700  1.0
  C  C504  1  0.276600  0.844300  0.315300  1.0
  C  C505  1  0.743900  0.779700  0.791700  1.0
  C  C506  1  0.743900  0.220300  0.708300  1.0
  C  C507  1  0.256100  0.220300  0.208300  1.0
  C  C508  1  0.256100  0.779700  0.291700  1.0
  C  C509  1  0.711100  0.725100  0.803800  1.0
  C  C510  1  0.711100  0.274900  0.696200  1.0
  C  C511  1  0.288900  0.274900  0.196200  1.0
  C  C512  1  0.288900  0.725100  0.303800  1.0
  C  C513  1  0.660600  0.734100  0.838500  1.0
  C  C514  1  0.660600  0.265900  0.661500  1.0
  C  C515  1  0.339400  0.265900  0.161500  1.0
  C  C516  1  0.339400  0.734100  0.338500  1.0
  C  C517  1  0.799800  0.770100  0.755400  1.0
  C  C518  1  0.799800  0.229900  0.744600  1.0
  C  C519  1  0.200200  0.229900  0.244600  1.0
  C  C520  1  0.200200  0.770100  0.255400  1.0
  C  C521  1  0.855200  0.815200  0.758000  1.0
  C  C522  1  0.855200  0.184800  0.742000  1.0
  C  C523  1  0.144800  0.184800  0.242000  1.0
  C  C524  1  0.144800  0.815200  0.258000  1.0
  C  C525  1  0.907200  0.806100  0.724400  1.0
  C  C526  1  0.907200  0.193900  0.775600  1.0
  C  C527  1  0.092800  0.193900  0.275600  1.0
  C  C528  1  0.092800  0.806100  0.224400  1.0
  C  C529  1  0.905400  0.750600  0.687300  1.0
  C  C530  1  0.905400  0.249400  0.812700  1.0
  C  C531  1  0.094600  0.249400  0.312700  1.0
  C  C532  1  0.094600  0.750600  0.187300  1.0
  C  C533  1  0.851100  0.703900  0.683900  1.0
  C  C534  1  0.851100  0.296100  0.816100  1.0
  C  C535  1  0.148900  0.296100  0.316100  1.0
  C  C536  1  0.148900  0.703900  0.183900  1.0
  C  C537  1  0.799100  0.713400  0.718200  1.0
  C  C538  1  0.799100  0.286600  0.781800  1.0
  C  C539  1  0.200900  0.286600  0.281800  1.0
  C  C540  1  0.200900  0.713400  0.218200  1.0
  C  C541  1  0.021000  0.734000  0.664300  1.0
  C  C542  1  0.021000  0.266000  0.835700  1.0
  C  C543  1  0.979000  0.266000  0.335700  1.0
  C  C544  1  0.979000  0.734000  0.164300  1.0
  C  C545  1  0.075000  0.729100  0.628400  1.0
  C  C546  1  0.075000  0.270900  0.871600  1.0
  C  C547  1  0.925000  0.270900  0.371600  1.0
  C  C548  1  0.925000  0.729100  0.128400  1.0
  C  C549  1  0.095000  0.733000  0.551300  1.0
  C  C550  1  0.095000  0.267000  0.948700  1.0
  C  C551  1  0.905000  0.267000  0.448700  1.0
  C  C552  1  0.905000  0.733000  0.051300  1.0
  C  C553  1  0.166000  0.723300  0.556600  1.0
  C  C554  1  0.166000  0.276700  0.943400  1.0
  C  C555  1  0.834000  0.276700  0.443400  1.0
  C  C556  1  0.834000  0.723300  0.056600  1.0
  C  C557  1  0.191600  0.716000  0.599300  1.0
  C  C558  1  0.191600  0.284000  0.900700  1.0
  C  C559  1  0.808400  0.284000  0.400700  1.0
  C  C560  1  0.808400  0.716000  0.099300  1.0
  C  C561  1  0.145400  0.719400  0.636300  1.0
  C  C562  1  0.145400  0.280600  0.863700  1.0
  C  C563  1  0.854600  0.280600  0.363700  1.0
  C  C564  1  0.854600  0.719400  0.136300  1.0
  C  C565  1  0.484300  0.690500  0.827800  1.0
  C  C566  1  0.484300  0.309500  0.672200  1.0
  C  C567  1  0.515700  0.309500  0.172200  1.0
  C  C568  1  0.515700  0.690500  0.327800  1.0
  C  C569  1  0.494800  0.663400  0.900700  1.0
  C  C570  1  0.494800  0.336600  0.599300  1.0
  C  C571  1  0.505200  0.336600  0.099300  1.0
  C  C572  1  0.505200  0.663400  0.400700  1.0
  C  C573  1  0.496200  0.595300  0.879900  1.0
  C  C574  1  0.496200  0.404700  0.620100  1.0
  C  C575  1  0.503800  0.404700  0.120100  1.0
  C  C576  1  0.503800  0.595300  0.379900  1.0
  C  C577  1  0.491100  0.574600  0.832700  1.0
  C  C578  1  0.491100  0.425400  0.667300  1.0
  C  C579  1  0.508900  0.425400  0.167300  1.0
  C  C580  1  0.508900  0.574600  0.332700  1.0
  C  C581  1  0.484300  0.622700  0.805300  1.0
  C  C582  1  0.484300  0.377300  0.694700  1.0
  C  C583  1  0.515700  0.377300  0.194700  1.0
  C  C584  1  0.515700  0.622700  0.305300  1.0
  C  C585  1  0.480300  0.745700  0.803900  1.0
  C  C586  1  0.480300  0.254300  0.696100  1.0
  C  C587  1  0.519700  0.254300  0.196100  1.0
  C  C588  1  0.519700  0.745700  0.303900  1.0
  C  C589  1  0.479300  0.859800  0.804200  1.0
  C  C590  1  0.479300  0.140200  0.695800  1.0
  C  C591  1  0.520700  0.140200  0.195800  1.0
  C  C592  1  0.520700  0.859800  0.304200  1.0
  C  C593  1  0.536200  0.875300  0.780100  1.0
  C  C594  1  0.536200  0.124700  0.719900  1.0
  C  C595  1  0.463800  0.124700  0.219900  1.0
  C  C596  1  0.463800  0.875300  0.280100  1.0
  C  C597  1  0.534700  0.929500  0.758500  1.0
  C  C598  1  0.534700  0.070500  0.741500  1.0
  C  C599  1  0.465300  0.070500  0.241500  1.0
  C  C600  1  0.465300  0.929500  0.258500  1.0
  C  C601  1  0.474600  0.969900  0.761100  1.0
  C  C602  1  0.474600  0.030100  0.738900  1.0
  C  C603  1  0.525400  0.030100  0.238900  1.0
  C  C604  1  0.525400  0.969900  0.261100  1.0
  C  C605  1  0.416200  0.952200  0.784000  1.0
  C  C606  1  0.416200  0.047800  0.716000  1.0
  C  C607  1  0.583800  0.047800  0.216000  1.0
  C  C608  1  0.583800  0.952200  0.284000  1.0
  C  C609  1  0.417600  0.898100  0.806300  1.0
  C  C610  1  0.417600  0.101900  0.693700  1.0
  C  C611  1  0.582400  0.101900  0.193700  1.0
  C  C612  1  0.582400  0.898100  0.306300  1.0
  C  C613  1  0.963400  0.021800  0.773900  1.0
  C  C614  1  0.963400  0.978200  0.726100  1.0
  C  C615  1  0.036600  0.978200  0.226100  1.0
  C  C616  1  0.036600  0.021800  0.273900  1.0
  C  C617  1  0.904100  0.025800  0.802300  1.0
  C  C618  1  0.904100  0.974200  0.697700  1.0
  C  C619  1  0.095900  0.974200  0.197700  1.0
  C  C620  1  0.095900  0.025800  0.302300  1.0
  C  C621  1  0.901200  0.069500  0.846200  1.0
  C  C622  1  0.901200  0.930500  0.653800  1.0
  C  C623  1  0.098800  0.930500  0.153800  1.0
  C  C624  1  0.098800  0.069500  0.346200  1.0
  C  C625  1  0.959600  0.108300  0.862400  1.0
  C  C626  1  0.959600  0.891700  0.637600  1.0
  C  C627  1  0.040400  0.891700  0.137600  1.0
  C  C628  1  0.040400  0.108300  0.362400  1.0
  C  C629  1  0.019600  0.103200  0.836000  1.0
  C  C630  1  0.019600  0.896800  0.664000  1.0
  C  C631  1  0.980400  0.896800  0.164000  1.0
  C  C632  1  0.980400  0.103200  0.336000  1.0
  C  C633  1  0.021000  0.059300  0.792200  1.0
  C  C634  1  0.021000  0.940700  0.707800  1.0
  C  C635  1  0.979000  0.940700  0.207800  1.0
  C  C636  1  0.979000  0.059300  0.292200  1.0
  C  C637  1  0.957000  0.135200  0.944700  1.0
  C  C638  1  0.957000  0.864800  0.555300  1.0
  C  C639  1  0.043000  0.864800  0.055300  1.0
  C  C640  1  0.043000  0.135200  0.444700  1.0
  C  C641  1  0.949800  0.184800  0.988300  1.0
  C  C642  1  0.949800  0.815200  0.511700  1.0
  C  C643  1  0.050200  0.815200  0.011700  1.0
  C  C644  1  0.050200  0.184800  0.488300  1.0
  C  C645  1  0.934600  0.299500  0.019900  1.0
  C  C646  1  0.934600  0.700500  0.480100  1.0
  C  C647  1  0.065400  0.700500  0.980100  1.0
  C  C648  1  0.065400  0.299500  0.519900  1.0
  C  C649  1  0.929200  0.286800  0.064400  1.0
  C  C650  1  0.929200  0.713200  0.435600  1.0
  C  C651  1  0.070800  0.713200  0.935600  1.0
  C  C652  1  0.070800  0.286800  0.564400  1.0
  C  C653  1  0.936500  0.220700  0.070700  1.0
  C  C654  1  0.936500  0.779300  0.429300  1.0
  C  C655  1  0.063500  0.779300  0.929300  1.0
  C  C656  1  0.063500  0.220700  0.570700  1.0
  C  C657  1  0.946300  0.168900  0.031800  1.0
  C  C658  1  0.946300  0.831100  0.468200  1.0
  C  C659  1  0.053700  0.831100  0.968200  1.0
  C  C660  1  0.053700  0.168900  0.531800  1.0
  S  S661  1  0.156100  0.813200  0.781270  1
  S  S662  1  0.156100  0.186800  0.718730  1
  S  S663  1  0.843900  0.186800  0.218730  1
  S  S664  1  0.843900  0.813200  0.281270  1
  S  S665  1  0.270200  0.720100  0.764360  1
  S  S666  1  0.270200  0.279900  0.735640  1
  S  S667  1  0.729800  0.279900  0.235640  1
  S  S668  1  0.729800  0.720100  0.264360  1
  S  S669  1  0.276040  0.601760  0.943070  1
  S  S670  1  0.276040  0.398240  0.556930  1
  S  S671  1  0.723960  0.398240  0.056930  1
  S  S672  1  0.723960  0.601760  0.443070  1
  S  S673  1  0.170450  0.503440  0.926630  1
  S  S674  1  0.170450  0.496560  0.573370  1
  S  S675  1  0.829550  0.496560  0.073370  1
  S  S676  1  0.829550  0.503440  0.426630  1
  S  S677  1  0.254580  0.096690  0.966380  1
  S  S678  1  0.254580  0.903310  0.533620  1
  S  S679  1  0.745420  0.903310  0.033620  1
  S  S680  1  0.745420  0.096690  0.466380  1
  S  S681  1  0.130310  0.051720  0.998390  1
  S  S682  1  0.130310  0.948280  0.501610  1
  S  S683  1  0.869690  0.948280  0.001610  1
  S  S684  1  0.869690  0.051720  0.498390  1
  S  S685  1  0.595700  0.321100  0.814800  1
  S  S686  1  0.595700  0.678900  0.685200  1
  S  S687  1  0.404300  0.678900  0.185200  1
  S  S688  1  0.404300  0.321100  0.314800  1
  S  S689  1  0.657200  0.447000  0.856280  1
  S  S690  1  0.657200  0.553000  0.643720  1
  S  S691  1  0.342800  0.553000  0.143720  1
  S  S692  1  0.342800  0.447000  0.356280  1
  S  S693  1  0.132600  0.706700  0.793000  1
  S  S694  1  0.132600  0.293300  0.707000  1
  S  S695  1  0.867400  0.293300  0.207000  1
  S  S696  1  0.867400  0.706700  0.293000  1
  S  S697  1  0.613000  0.321300  0.874700  1
  S  S698  1  0.613000  0.678700  0.625300  1
  S  S699  1  0.387000  0.678700  0.125300  1
  S  S700  1  0.387000  0.321300  0.374700  1
  S  S701  1  0.640000  0.418500  0.820100  1
  S  S702  1  0.640000  0.581500  0.679900  1
  S  S703  1  0.360000  0.581500  0.179900  1
  S  S704  1  0.360000  0.418500  0.320100  1
  N  N705  1  0.192900  0.747300  0.749500  1
  N  N706  1  0.192900  0.252700  0.750500  1
  N  N707  1  0.807100  0.252700  0.250500  1
  N  N708  1  0.807100  0.747300  0.249500  1
  N  N709  1  0.246200  0.528100  0.940100  1
  N  N710  1  0.246200  0.471900  0.559900  1
  N  N711  1  0.753800  0.471900  0.059900  1
  N  N712  1  0.753800  0.528100  0.440100  1
  N  N713  1  0.204900  0.039000  0.976800  1
  N  N714  1  0.204900  0.961000  0.523200  1
  N  N715  1  0.795100  0.961000  0.023200  1
  N  N716  1  0.795100  0.039000  0.476800  1
  N  N717  1  0.660900  0.370200  0.833900  1
  N  N718  1  0.660900  0.629800  0.666100  1
  N  N719  1  0.339100  0.629800  0.166100  1
  N  N720  1  0.339100  0.370200  0.333900  1
  N  N721  1  0.366900  0.326000  0.904900  1
  N  N722  1  0.366900  0.674000  0.595100  1
  N  N723  1  0.633100  0.674000  0.095100  1
  N  N724  1  0.633100  0.326000  0.404900  1
  N  N725  1  0.425000  0.102800  0.852600  1
  N  N726  1  0.425000  0.897200  0.647400  1
  N  N727  1  0.575000  0.897200  0.147400  1
  N  N728  1  0.575000  0.102800  0.352600  1
  N  N729  1  0.902300  0.654700  0.939200  1
  N  N730  1  0.902300  0.345300  0.560800  1
  N  N731  1  0.097700  0.345300  0.060800  1
  N  N732  1  0.097700  0.654700  0.439200  1
  N  N733  1  0.386200  0.817800  0.902980  1.0
  N  N734  1  0.386200  0.182200  0.597020  1.0
  N  N735  1  0.613800  0.182200  0.097020  1.0
  N  N736  1  0.613800  0.817800  0.402980  1.0
  N  N737  1  0.480100  0.910800  0.914050  1.0
  N  N738  1  0.480100  0.089200  0.585950  1.0
  N  N739  1  0.519900  0.089200  0.085950  1.0
  N  N740  1  0.519900  0.910800  0.414050  1.0
  N  N741  1  0.843900  0.261300  0.918100  1.0
  N  N742  1  0.843900  0.738700  0.581900  1.0
  N  N743  1  0.156100  0.738700  0.081900  1.0
  N  N744  1  0.156100  0.261300  0.418100  1.0
  N  N745  1  0.935100  0.356900  0.930000  1.0
  N  N746  1  0.935100  0.643100  0.570000  1.0
  N  N747  1  0.064900  0.643100  0.070000  1.0
  N  N748  1  0.064900  0.356900  0.430000  1.0
  N  N749  1  0.500300  0.806100  0.963600  1.0
  N  N750  1  0.500300  0.193900  0.536400  1.0
  N  N751  1  0.499700  0.193900  0.036400  1.0
  N  N752  1  0.499700  0.806100  0.463600  1.0
  N  N753  1  0.592500  0.805100  0.899660  1.0
  N  N754  1  0.592500  0.194900  0.600340  1.0
  N  N755  1  0.407500  0.194900  0.100340  1.0
  N  N756  1  0.407500  0.805100  0.399660  1.0
  N  N757  1  0.958200  0.740700  0.651500  1.0
  N  N758  1  0.958200  0.259300  0.848500  1.0
  N  N759  1  0.041800  0.259300  0.348500  1.0
  N  N760  1  0.041800  0.740700  0.151500  1.0
  N  N761  1  0.050200  0.735800  0.586500  1.0
  N  N762  1  0.050200  0.264200  0.913500  1.0
  N  N763  1  0.949800  0.264200  0.413500  1.0
  N  N764  1  0.949800  0.735800  0.086500  1.0
  N  N765  1  0.488400  0.710800  0.874600  1.0
  N  N766  1  0.488400  0.289200  0.625400  1.0
  N  N767  1  0.511600  0.289200  0.125400  1.0
  N  N768  1  0.511600  0.710800  0.374600  1.0
  N  N769  1  0.482000  0.805600  0.828200  1.0
  N  N770  1  0.482000  0.194400  0.671800  1.0
  N  N771  1  0.518000  0.194400  0.171800  1.0
  N  N772  1  0.518000  0.805600  0.328200  1.0
  N  N773  1  0.954800  0.156900  0.906900  1.0
  N  N774  1  0.954800  0.843100  0.593100  1.0
  N  N775  1  0.045200  0.843100  0.093100  1.0
  N  N776  1  0.045200  0.156900  0.406900  1.0
  N  N777  1  0.944600  0.248700  0.982000  1.0
  N  N778  1  0.944600  0.751300  0.518000  1.0
  N  N779  1  0.055400  0.751300  0.018000  1.0
  N  N780  1  0.055400  0.248700  0.482000  1.0
  O  O781  1  0.092300  0.820200  0.761400  1
  O  O782  1  0.092300  0.179800  0.738600  1
  O  O783  1  0.907700  0.179800  0.238600  1
  O  O784  1  0.907700  0.820200  0.261400  1
  O  O785  1  0.158000  0.815100  0.828400  1
  O  O786  1  0.158000  0.184900  0.671600  1
  O  O787  1  0.842000  0.184900  0.171600  1
  O  O788  1  0.842000  0.815100  0.328400  1
  O  O789  1  0.311100  0.759300  0.799100  1
  O  O790  1  0.311100  0.240700  0.700900  1
  O  O791  1  0.688900  0.240700  0.200900  1
  O  O792  1  0.688900  0.759300  0.299100  1
  O  O793  1  0.300900  0.687300  0.723500  1
  O  O794  1  0.300900  0.312700  0.776500  1
  O  O795  1  0.699100  0.312700  0.276500  1
  O  O796  1  0.699100  0.687300  0.223500  1
  O  O797  1  0.308400  0.610400  0.901000  1
  O  O798  1  0.308400  0.389600  0.599000  1
  O  O799  1  0.691600  0.389600  0.099000  1
  O  O800  1  0.691600  0.610400  0.401000  1
  O  O801  1  0.231300  0.655700  0.966700  1
  O  O802  1  0.231300  0.344300  0.533300  1
  O  O803  1  0.768700  0.344300  0.033300  1
  O  O804  1  0.768700  0.655700  0.466700  1
  O  O805  1  0.155000  0.444400  0.944200  1
  O  O806  1  0.155000  0.555600  0.555800  1
  O  O807  1  0.845000  0.555600  0.055800  1
  O  O808  1  0.845000  0.444400  0.444200  1
  O  O809  1  0.119100  0.555900  0.933100  1
  O  O810  1  0.119100  0.444100  0.566900  1
  O  O811  1  0.880900  0.444100  0.066900  1
  O  O812  1  0.880900  0.555900  0.433100  1
  O  O813  1  0.324600  0.071100  0.964900  1
  O  O814  1  0.324600  0.928900  0.535100  1
  O  O815  1  0.675400  0.928900  0.035100  1
  O  O816  1  0.675400  0.071100  0.464900  1
  O  O817  1  0.241700  0.162600  0.990600  1
  O  O818  1  0.241700  0.837400  0.509400  1
  O  O819  1  0.758300  0.837400  0.009400  1
  O  O820  1  0.758300  0.162600  0.490600  1
  O  O821  1  0.097500  0.112700  0.993200  1
  O  O822  1  0.097500  0.887300  0.506800  1
  O  O823  1  0.902500  0.887300  0.006800  1
  O  O824  1  0.902500  0.112700  0.493200  1
  O  O825  1  0.091700  0.991800  0.985800  1
  O  O826  1  0.091700  0.008200  0.514200  1
  O  O827  1  0.908300  0.008200  0.014200  1
  O  O828  1  0.908300  0.991800  0.485800  1
  O  O829  1  0.630600  0.245700  0.796700  1
  O  O830  1  0.630600  0.754300  0.703300  1
  O  O831  1  0.369400  0.754300  0.203300  1
  O  O832  1  0.369400  0.245700  0.296700  1
  O  O833  1  0.556900  0.364200  0.810700  1
  O  O834  1  0.556900  0.635800  0.689300  1
  O  O835  1  0.443100  0.635800  0.189300  1
  O  O836  1  0.443100  0.364200  0.310700  1
  O  O837  1  0.714500  0.476000  0.878300  1
  O  O838  1  0.714500  0.524000  0.621700  1
  O  O839  1  0.285500  0.524000  0.121700  1
  O  O840  1  0.285500  0.476000  0.378300  1
  O  O841  1  0.605300  0.480600  0.886000  1
  O  O842  1  0.605300  0.519400  0.614000  1
  O  O843  1  0.394700  0.519400  0.114000  1
  O  O844  1  0.394700  0.480600  0.386000  1
  O  O845  1  0.046800  0.576800  0.304500  1
  O  O846  1  0.046800  0.423200  0.195500  1
  O  O847  1  0.953200  0.423200  0.695500  1
  O  O848  1  0.953200  0.576800  0.804500  1
  O  O849  1  0.309600  0.631000  0.459600  1
  O  O850  1  0.309600  0.369000  0.040400  1
  O  O851  1  0.690400  0.369000  0.540400  1
  O  O852  1  0.690400  0.631000  0.959600  1
  O  O853  1  0.294000  0.585100  0.491700  1
  O  O854  1  0.294000  0.414900  0.008300  1
  O  O855  1  0.706000  0.414900  0.508300  1
  O  O856  1  0.706000  0.585100  0.991700  1
  F  F857  1  0.156500  0.942200  0.791800  1
  F  F858  1  0.156500  0.057800  0.708200  1
  F  F859  1  0.843500  0.057800  0.208200  1
  F  F860  1  0.843500  0.942200  0.291800  1
  F  F861  1  0.200000  0.890800  0.726200  1
  F  F862  1  0.200000  0.109200  0.773800  1
  F  F863  1  0.800000  0.109200  0.273800  1
  F  F864  1  0.800000  0.890800  0.226200  1
  F  F865  1  0.254500  0.893500  0.789600  1
  F  F866  1  0.254500  0.106500  0.710400  1
  F  F867  1  0.745500  0.106500  0.210400  1
  F  F868  1  0.745500  0.893500  0.289600  1
  F  F869  1  0.200000  0.605200  0.756200  1
  F  F870  1  0.200000  0.394800  0.743800  1
  F  F871  1  0.800000  0.394800  0.243800  1
  F  F872  1  0.800000  0.605200  0.256200  1
  F  F873  1  0.195100  0.672500  0.824600  1
  F  F874  1  0.195100  0.327500  0.675400  1
  F  F875  1  0.804900  0.327500  0.175400  1
  F  F876  1  0.804900  0.672500  0.324600  1
  F  F877  1  0.289400  0.615100  0.801500  1
  F  F878  1  0.289400  0.384900  0.698500  1
  F  F879  1  0.710600  0.384900  0.198500  1
  F  F880  1  0.710600  0.615100  0.301500  1
  F  F881  1  0.326100  0.589700  0.023600  1
  F  F882  1  0.326100  0.410300  0.476400  1
  F  F883  1  0.673900  0.410300  0.976400  1
  F  F884  1  0.673900  0.589700  0.523600  1
  F  F885  1  0.381600  0.658100  0.989600  1
  F  F886  1  0.381600  0.341900  0.510400  1
  F  F887  1  0.618400  0.341900  0.010400  1
  F  F888  1  0.618400  0.658100  0.489600  1
  F  F889  1  0.392900  0.549700  0.965300  1
  F  F890  1  0.392900  0.450300  0.534700  1
  F  F891  1  0.607100  0.450300  0.034700  1
  F  F892  1  0.607100  0.549700  0.465300  1
  F  F893  1  0.188800  0.519900  0.841700  1
  F  F894  1  0.188800  0.480100  0.658300  1
  F  F895  1  0.811200  0.480100  0.158300  1
  F  F896  1  0.811200  0.519900  0.341700  1
  F  F897  1  0.114600  0.442400  0.848700  1
  F  F898  1  0.114600  0.557600  0.651300  1
  F  F899  1  0.885400  0.557600  0.151300  1
  F  F900  1  0.885400  0.442400  0.348700  1
  F  F901  1  0.223900  0.423000  0.853400  1
  F  F902  1  0.223900  0.577000  0.646600  1
  F  F903  1  0.776100  0.577000  0.146600  1
  F  F904  1  0.776100  0.423000  0.353400  1
  F  F905  1  0.271800  0.144100  0.892300  1
  F  F906  1  0.271800  0.855900  0.607700  1
  F  F907  1  0.728200  0.855900  0.107700  1
  F  F908  1  0.728200  0.144100  0.392300  1
  F  F909  1  0.168800  0.109000  0.899700  1
  F  F910  1  0.168800  0.891000  0.600300  1
  F  F911  1  0.831200  0.891000  0.100300  1
  F  F912  1  0.831200  0.109000  0.399700  1
  F  F913  1  0.252700  0.036300  0.878000  1
  F  F914  1  0.252700  0.963700  0.622000  1
  F  F915  1  0.747300  0.963700  0.122000  1
  F  F916  1  0.747300  0.036300  0.378000  1
  F  F917  1  0.084900  0.069800  0.084400  1
  F  F918  1  0.084900  0.930200  0.415600  1
  F  F919  1  0.915100  0.930200  0.915600  1
  F  F920  1  0.915100  0.069800  0.584400  1
  F  F921  1  0.184000  0.111600  0.076200  1
  F  F922  1  0.184000  0.888400  0.423800  1
  F  F923  1  0.816000  0.888400  0.923800  1
  F  F924  1  0.816000  0.111600  0.576200  1
  F  F925  1  0.176400  0.010000  0.071700  1
  F  F926  1  0.176400  0.990000  0.428300  1
  F  F927  1  0.823600  0.990000  0.928300  1
  F  F928  1  0.823600  0.010000  0.571700  1
  F  F929  1  0.539100  0.229300  0.850700  1
  F  F930  1  0.539100  0.770700  0.649300  1
  F  F931  1  0.460900  0.770700  0.149300  1
  F  F932  1  0.460900  0.229300  0.350700  1
  F  F933  1  0.548100  0.335300  0.897900  1
  F  F934  1  0.548100  0.664700  0.602100  1
  F  F935  1  0.451900  0.664700  0.102100  1
  F  F936  1  0.451900  0.335300  0.397900  1
  F  F937  1  0.639900  0.277300  0.890100  1
  F  F938  1  0.639900  0.722700  0.609900  1
  F  F939  1  0.360100  0.722700  0.109900  1
  F  F940  1  0.360100  0.277300  0.390100  1
  F  F941  1  0.663200  0.550900  0.823600  1
  F  F942  1  0.663200  0.449100  0.676400  1
  F  F943  1  0.336800  0.449100  0.176400  1
  F  F944  1  0.336800  0.550900  0.323600  1
  F  F945  1  0.606100  0.471300  0.775100  1
  F  F946  1  0.606100  0.528700  0.724900  1
  F  F947  1  0.393900  0.528700  0.224900  1
  F  F948  1  0.393900  0.471300  0.275100  1
  F  F949  1  0.719400  0.461800  0.783400  1
  F  F950  1  0.719400  0.538200  0.716600  1
  F  F951  1  0.280600  0.538200  0.216600  1
  F  F952  1  0.280600  0.461800  0.283400  1
