# generated using pymatgen
data_ZnH118C106(N3O4)3
_symmetry_space_group_name_H-M   'P 1'
_cell_length_a   22.48810000
_cell_length_b   27.12600000
_cell_length_c   36.83500000
_cell_angle_alpha   90.00000000
_cell_angle_beta   103.30600000
_cell_angle_gamma   90.00000000
_symmetry_Int_Tables_number   1
_chemical_formula_structural   ZnH118C106(N3O4)3
_chemical_formula_sum   'Zn8 H944 C848 N72 O96'
_cell_volume   21866.59262621
_cell_formula_units_Z   8
loop_
 _symmetry_equiv_pos_site_id
 _symmetry_equiv_pos_as_xyz
  1  'x, y, z'
loop_
 _atom_site_type_symbol
 _atom_site_label
 _atom_site_symmetry_multiplicity
 _atom_site_fract_x
 _atom_site_fract_y
 _atom_site_fract_z
 _atom_site_occupancy
  Zn  Zn1  1  0.839230  0.000000  0.972040  1.0
  Zn  Zn2  1  0.839230  0.500000  0.472040  1.0
  Zn  Zn3  1  0.160770  0.000000  0.027960  1.0
  Zn  Zn4  1  0.160770  0.500000  0.527960  1.0
  Zn  Zn5  1  0.500000  0.628740  0.000000  1.0
  Zn  Zn6  1  0.500000  0.128740  0.500000  1.0
  Zn  Zn7  1  0.500000  0.371260  0.000000  1.0
  Zn  Zn8  1  0.500000  0.871260  0.500000  1.0
  H  H9  1  0.740600  0.680000  0.243800  1
  H  H10  1  0.740600  0.180000  0.743800  1
  H  H11  1  0.259400  0.680000  0.756200  1
  H  H12  1  0.259400  0.180000  0.256200  1
  H  H13  1  0.259400  0.320000  0.756200  1
  H  H14  1  0.259400  0.820000  0.256200  1
  H  H15  1  0.740600  0.320000  0.243800  1
  H  H16  1  0.740600  0.820000  0.743800  1
  H  H17  1  0.669400  0.680900  0.222300  1
  H  H18  1  0.669400  0.180900  0.722300  1
  H  H19  1  0.330600  0.680900  0.777700  1
  H  H20  1  0.330600  0.180900  0.277700  1
  H  H21  1  0.330600  0.319100  0.777700  1
  H  H22  1  0.330600  0.819100  0.277700  1
  H  H23  1  0.669400  0.319100  0.222300  1
  H  H24  1  0.669400  0.819100  0.722300  1
  H  H25  1  0.730400  0.687400  0.244600  1
  H  H26  1  0.730400  0.187400  0.744600  1
  H  H27  1  0.269600  0.687400  0.755400  1
  H  H28  1  0.269600  0.187400  0.255400  1
  H  H29  1  0.269600  0.312600  0.755400  1
  H  H30  1  0.269600  0.812600  0.255400  1
  H  H31  1  0.730400  0.312600  0.244600  1
  H  H32  1  0.730400  0.812600  0.744600  1
  H  H33  1  0.666667  0.671200  0.216900  1
  H  H34  1  0.666667  0.171200  0.716900  1
  H  H35  1  0.333333  0.671200  0.783100  1
  H  H36  1  0.333333  0.171200  0.283100  1
  H  H37  1  0.333333  0.328800  0.783100  1
  H  H38  1  0.333333  0.828800  0.283100  1
  H  H39  1  0.666667  0.328800  0.216900  1
  H  H40  1  0.666667  0.828800  0.716900  1
  H  H41  1  0.733900  0.613900  0.266900  1
  H  H42  1  0.733900  0.113900  0.766900  1
  H  H43  1  0.266100  0.613900  0.733100  1
  H  H44  1  0.266100  0.113900  0.233100  1
  H  H45  1  0.266100  0.386100  0.733100  1
  H  H46  1  0.266100  0.886100  0.233100  1
  H  H47  1  0.733900  0.386100  0.266900  1
  H  H48  1  0.733900  0.886100  0.766900  1
  H  H49  1  0.702700  0.571200  0.238400  1
  H  H50  1  0.702700  0.071200  0.738400  1
  H  H51  1  0.297300  0.571200  0.761600  1
  H  H52  1  0.297300  0.071200  0.261600  1
  H  H53  1  0.297300  0.428800  0.761600  1
  H  H54  1  0.297300  0.928800  0.261600  1
  H  H55  1  0.702700  0.428800  0.238400  1
  H  H56  1  0.702700  0.928800  0.738400  1
  H  H57  1  0.804800  0.559900  0.227800  1
  H  H58  1  0.804800  0.059900  0.727800  1
  H  H59  1  0.195200  0.559900  0.772200  1
  H  H60  1  0.195200  0.059900  0.272200  1
  H  H61  1  0.195200  0.440100  0.772200  1
  H  H62  1  0.195200  0.940100  0.272200  1
  H  H63  1  0.804800  0.440100  0.227800  1
  H  H64  1  0.804800  0.940100  0.727800  1
  H  H65  1  0.790900  0.537500  0.265300  1
  H  H66  1  0.790900  0.037500  0.765300  1
  H  H67  1  0.209100  0.537500  0.734700  1
  H  H68  1  0.209100  0.037500  0.234700  1
  H  H69  1  0.209100  0.462500  0.734700  1
  H  H70  1  0.209100  0.962500  0.234700  1
  H  H71  1  0.790900  0.462500  0.265300  1
  H  H72  1  0.790900  0.962500  0.765300  1
  H  H73  1  0.890000  0.581300  0.235200  1
  H  H74  1  0.890000  0.081300  0.735200  1
  H  H75  1  0.110000  0.581300  0.764800  1
  H  H76  1  0.110000  0.081300  0.264800  1
  H  H77  1  0.110000  0.418700  0.764800  1
  H  H78  1  0.110000  0.918700  0.264800  1
  H  H79  1  0.890000  0.418700  0.235200  1
  H  H80  1  0.890000  0.918700  0.735200  1
  H  H81  1  0.916100  0.555300  0.275100  1
  H  H82  1  0.916100  0.055300  0.775100  1
  H  H83  1  0.083900  0.555300  0.724900  1
  H  H84  1  0.083900  0.055300  0.224900  1
  H  H85  1  0.083900  0.444700  0.724900  1
  H  H86  1  0.083900  0.944700  0.224900  1
  H  H87  1  0.916100  0.444700  0.275100  1
  H  H88  1  0.916100  0.944700  0.775100  1
  H  H89  1  0.926600  0.659000  0.261900  1
  H  H90  1  0.926600  0.159000  0.761900  1
  H  H91  1  0.073400  0.659000  0.738100  1
  H  H92  1  0.073400  0.159000  0.238100  1
  H  H93  1  0.073400  0.341000  0.738100  1
  H  H94  1  0.073400  0.841000  0.238100  1
  H  H95  1  0.926600  0.341000  0.261900  1
  H  H96  1  0.926600  0.841000  0.761900  1
  H  H97  1  0.766700  0.619100  0.716200  1
  H  H98  1  0.766700  0.119100  0.216200  1
  H  H99  1  0.233300  0.619100  0.283800  1
  H  H100  1  0.233300  0.119100  0.783800  1
  H  H101  1  0.233300  0.380900  0.283800  1
  H  H102  1  0.233300  0.880900  0.783800  1
  H  H103  1  0.766700  0.380900  0.716200  1
  H  H104  1  0.766700  0.880900  0.216200  1
  H  H105  1  0.797800  0.651900  0.689500  1
  H  H106  1  0.797800  0.151900  0.189500  1
  H  H107  1  0.202200  0.651900  0.310500  1
  H  H108  1  0.202200  0.151900  0.810500  1
  H  H109  1  0.202200  0.348100  0.310500  1
  H  H110  1  0.202200  0.848100  0.810500  1
  H  H111  1  0.797800  0.348100  0.689500  1
  H  H112  1  0.797800  0.848100  0.189500  1
  H  H113  1  0.827200  0.538500  0.705600  1
  H  H114  1  0.827200  0.038500  0.205600  1
  H  H115  1  0.172800  0.538500  0.294400  1
  H  H116  1  0.172800  0.038500  0.794400  1
  H  H117  1  0.172800  0.461500  0.294400  1
  H  H118  1  0.172800  0.961500  0.794400  1
  H  H119  1  0.827200  0.461500  0.705600  1
  H  H120  1  0.827200  0.961500  0.205600  1
  H  H121  1  0.813800  0.579100  0.673000  1
  H  H122  1  0.813800  0.079100  0.173000  1
  H  H123  1  0.186200  0.579100  0.327000  1
  H  H124  1  0.186200  0.079100  0.827000  1
  H  H125  1  0.186200  0.420900  0.327000  1
  H  H126  1  0.186200  0.920900  0.827000  1
  H  H127  1  0.813800  0.420900  0.673000  1
  H  H128  1  0.813800  0.920900  0.173000  1
  H  H129  1  0.893300  0.524100  0.670000  1
  H  H130  1  0.893300  0.024100  0.170000  1
  H  H131  1  0.106700  0.524100  0.330000  1
  H  H132  1  0.106700  0.024100  0.830000  1
  H  H133  1  0.106700  0.475900  0.330000  1
  H  H134  1  0.106700  0.975900  0.830000  1
  H  H135  1  0.893300  0.475900  0.670000  1
  H  H136  1  0.893300  0.975900  0.170000  1
  H  H137  1  0.931800  0.548200  0.707900  1
  H  H138  1  0.931800  0.048200  0.207900  1
  H  H139  1  0.068200  0.548200  0.292100  1
  H  H140  1  0.068200  0.048200  0.792100  1
  H  H141  1  0.068200  0.451800  0.292100  1
  H  H142  1  0.068200  0.951800  0.792100  1
  H  H143  1  0.931800  0.451800  0.707900  1
  H  H144  1  0.931800  0.951800  0.207900  1
  H  H145  1  0.002500  0.590000  0.651000  1
  H  H146  1  0.002500  0.090000  0.151000  1
  H  H147  1  0.997500  0.590000  0.349000  1
  H  H148  1  0.997500  0.090000  0.849000  1
  H  H149  1  0.997500  0.410000  0.349000  1
  H  H150  1  0.997500  0.910000  0.849000  1
  H  H151  1  0.002500  0.410000  0.651000  1
  H  H152  1  0.002500  0.910000  0.151000  1
  H  H153  1  0.996100  0.556900  0.686100  1
  H  H154  1  0.996100  0.056900  0.186100  1
  H  H155  1  0.003900  0.556900  0.313900  1
  H  H156  1  0.003900  0.056900  0.813900  1
  H  H157  1  0.003900  0.443100  0.313900  1
  H  H158  1  0.003900  0.943100  0.813900  1
  H  H159  1  0.996100  0.443100  0.686100  1
  H  H160  1  0.996100  0.943100  0.186100  1
  H  H161  1  0.987200  0.659700  0.696000  1
  H  H162  1  0.987200  0.159700  0.196000  1
  H  H163  1  0.012800  0.659700  0.304000  1
  H  H164  1  0.012800  0.159700  0.804000  1
  H  H165  1  0.012800  0.340300  0.304000  1
  H  H166  1  0.012800  0.840300  0.804000  1
  H  H167  1  0.987200  0.340300  0.696000  1
  H  H168  1  0.987200  0.840300  0.196000  1
  H  H169  1  0.804400  0.954400  0.102000  1.0
  H  H170  1  0.804400  0.454400  0.602000  1.0
  H  H171  1  0.195600  0.954400  0.898000  1.0
  H  H172  1  0.195600  0.454400  0.398000  1.0
  H  H173  1  0.195600  0.045600  0.898000  1.0
  H  H174  1  0.195600  0.545600  0.398000  1.0
  H  H175  1  0.804400  0.045600  0.102000  1.0
  H  H176  1  0.804400  0.545600  0.602000  1.0
  H  H177  1  0.795700  0.816600  0.997100  1.0
  H  H178  1  0.795700  0.316600  0.497100  1.0
  H  H179  1  0.204300  0.816600  0.002900  1.0
  H  H180  1  0.204300  0.316600  0.502900  1.0
  H  H181  1  0.204300  0.183400  0.002900  1.0
  H  H182  1  0.204300  0.683400  0.502900  1.0
  H  H183  1  0.795700  0.183400  0.997100  1.0
  H  H184  1  0.795700  0.683400  0.497100  1.0
  H  H185  1  0.809700  0.816300  0.932700  1.0
  H  H186  1  0.809700  0.316300  0.432700  1.0
  H  H187  1  0.190300  0.816300  0.067300  1.0
  H  H188  1  0.190300  0.316300  0.567300  1.0
  H  H189  1  0.190300  0.183700  0.067300  1.0
  H  H190  1  0.190300  0.683700  0.567300  1.0
  H  H191  1  0.809700  0.183700  0.932700  1.0
  H  H192  1  0.809700  0.683700  0.432700  1.0
  H  H193  1  0.835200  0.954400  0.835200  1.0
  H  H194  1  0.835200  0.454400  0.335200  1.0
  H  H195  1  0.164800  0.954400  0.164800  1.0
  H  H196  1  0.164800  0.454400  0.664800  1.0
  H  H197  1  0.164800  0.045600  0.164800  1.0
  H  H198  1  0.164800  0.545600  0.664800  1.0
  H  H199  1  0.835200  0.045600  0.835200  1.0
  H  H200  1  0.835200  0.545600  0.335200  1.0
  H  H201  1  0.950700  0.957500  0.948900  1.0
  H  H202  1  0.950700  0.457500  0.448900  1.0
  H  H203  1  0.049300  0.957500  0.051100  1.0
  H  H204  1  0.049300  0.457500  0.551100  1.0
  H  H205  1  0.049300  0.042500  0.051100  1.0
  H  H206  1  0.049300  0.542500  0.551100  1.0
  H  H207  1  0.950700  0.042500  0.948900  1.0
  H  H208  1  0.950700  0.542500  0.448900  1.0
  H  H209  1  0.947700  0.928400  0.986300  1.0
  H  H210  1  0.947700  0.428400  0.486300  1.0
  H  H211  1  0.052300  0.928400  0.013700  1.0
  H  H212  1  0.052300  0.428400  0.513700  1.0
  H  H213  1  0.052300  0.071600  0.013700  1.0
  H  H214  1  0.052300  0.571600  0.513700  1.0
  H  H215  1  0.947700  0.071600  0.986300  1.0
  H  H216  1  0.947700  0.571600  0.486300  1.0
  H  H217  1  0.948300  0.928000  0.996300  1.0
  H  H218  1  0.948300  0.428000  0.496300  1.0
  H  H219  1  0.051700  0.928000  0.003700  1.0
  H  H220  1  0.051700  0.428000  0.503700  1.0
  H  H221  1  0.051700  0.072000  0.003700  1.0
  H  H222  1  0.051700  0.572000  0.503700  1.0
  H  H223  1  0.948300  0.072000  0.996300  1.0
  H  H224  1  0.948300  0.572000  0.496300  1.0
  H  H225  1  0.945300  0.957100  0.033700  1.0
  H  H226  1  0.945300  0.457100  0.533700  1.0
  H  H227  1  0.054700  0.957100  0.966300  1.0
  H  H228  1  0.054700  0.457100  0.466300  1.0
  H  H229  1  0.054700  0.042900  0.966300  1.0
  H  H230  1  0.054700  0.542900  0.466300  1.0
  H  H231  1  0.945300  0.042900  0.033700  1.0
  H  H232  1  0.945300  0.542900  0.533700  1.0
  H  H233  1  0.941500  0.970970  0.036300  1.0
  H  H234  1  0.941500  0.470970  0.536300  1.0
  H  H235  1  0.058500  0.970970  0.963700  1.0
  H  H236  1  0.058500  0.470970  0.463700  1.0
  H  H237  1  0.058500  0.029030  0.963700  1.0
  H  H238  1  0.058500  0.529030  0.463700  1.0
  H  H239  1  0.941500  0.029030  0.036300  1.0
  H  H240  1  0.941500  0.529030  0.536300  1.0
  H  H241  1  0.950400  0.970950  0.944500  1.0
  H  H242  1  0.950400  0.470950  0.444500  1.0
  H  H243  1  0.049600  0.970950  0.055500  1.0
  H  H244  1  0.049600  0.470950  0.555500  1.0
  H  H245  1  0.049600  0.029050  0.055500  1.0
  H  H246  1  0.049600  0.529050  0.555500  1.0
  H  H247  1  0.950400  0.029050  0.944500  1.0
  H  H248  1  0.950400  0.529050  0.444500  1.0
  H  H249  1  0.861100  0.790700  0.120000  1.0
  H  H250  1  0.861100  0.290700  0.620000  1.0
  H  H251  1  0.138900  0.790700  0.880000  1.0
  H  H252  1  0.138900  0.290700  0.380000  1.0
  H  H253  1  0.138900  0.209300  0.880000  1.0
  H  H254  1  0.138900  0.709300  0.380000  1.0
  H  H255  1  0.861100  0.209300  0.120000  1.0
  H  H256  1  0.861100  0.709300  0.620000  1.0
  H  H257  1  0.684000  0.832200  0.095000  1.0
  H  H258  1  0.684000  0.332200  0.595000  1.0
  H  H259  1  0.316000  0.832200  0.905000  1.0
  H  H260  1  0.316000  0.332200  0.405000  1.0
  H  H261  1  0.316000  0.167800  0.905000  1.0
  H  H262  1  0.316000  0.667800  0.405000  1.0
  H  H263  1  0.684000  0.167800  0.095000  1.0
  H  H264  1  0.684000  0.667800  0.595000  1.0
  H  H265  1  0.931900  0.823600  0.089200  1.0
  H  H266  1  0.931900  0.323600  0.589200  1.0
  H  H267  1  0.068100  0.823600  0.910800  1.0
  H  H268  1  0.068100  0.323600  0.410800  1.0
  H  H269  1  0.068100  0.176400  0.910800  1.0
  H  H270  1  0.068100  0.676400  0.410800  1.0
  H  H271  1  0.931900  0.176400  0.089200  1.0
  H  H272  1  0.931900  0.676400  0.589200  1.0
  H  H273  1  0.920100  0.880500  0.078400  1.0
  H  H274  1  0.920100  0.380500  0.578400  1.0
  H  H275  1  0.079900  0.880500  0.921600  1.0
  H  H276  1  0.079900  0.380500  0.421600  1.0
  H  H277  1  0.079900  0.119500  0.921600  1.0
  H  H278  1  0.079900  0.619500  0.421600  1.0
  H  H279  1  0.920100  0.119500  0.078400  1.0
  H  H280  1  0.920100  0.619500  0.578400  1.0
  H  H281  1  0.905000  0.839100  0.046700  1.0
  H  H282  1  0.905000  0.339100  0.546700  1.0
  H  H283  1  0.095000  0.839100  0.953300  1.0
  H  H284  1  0.095000  0.339100  0.453300  1.0
  H  H285  1  0.095000  0.160900  0.953300  1.0
  H  H286  1  0.095000  0.660900  0.453300  1.0
  H  H287  1  0.905000  0.160900  0.046700  1.0
  H  H288  1  0.905000  0.660900  0.546700  1.0
  H  H289  1  0.674600  0.926600  0.063800  1.0
  H  H290  1  0.674600  0.426600  0.563800  1.0
  H  H291  1  0.325400  0.926600  0.936200  1.0
  H  H292  1  0.325400  0.426600  0.436200  1.0
  H  H293  1  0.325400  0.073400  0.936200  1.0
  H  H294  1  0.325400  0.573400  0.436200  1.0
  H  H295  1  0.674600  0.073400  0.063800  1.0
  H  H296  1  0.674600  0.573400  0.563800  1.0
  H  H297  1  0.645500  0.879900  0.039600  1.0
  H  H298  1  0.645500  0.379900  0.539600  1.0
  H  H299  1  0.354500  0.879900  0.960400  1.0
  H  H300  1  0.354500  0.379900  0.460400  1.0
  H  H301  1  0.354500  0.120100  0.960400  1.0
  H  H302  1  0.354500  0.620100  0.460400  1.0
  H  H303  1  0.645500  0.120100  0.039600  1.0
  H  H304  1  0.645500  0.620100  0.539600  1.0
  H  H305  1  0.690700  0.915900  0.024400  1.0
  H  H306  1  0.690700  0.415900  0.524400  1.0
  H  H307  1  0.309300  0.915900  0.975600  1.0
  H  H308  1  0.309300  0.415900  0.475600  1.0
  H  H309  1  0.309300  0.084100  0.975600  1.0
  H  H310  1  0.309300  0.584100  0.475600  1.0
  H  H311  1  0.690700  0.084100  0.024400  1.0
  H  H312  1  0.690700  0.584100  0.524400  1.0
  H  H313  1  0.814900  0.713200  0.130200  1.0
  H  H314  1  0.814900  0.213200  0.630200  1.0
  H  H315  1  0.185100  0.713200  0.869800  1.0
  H  H316  1  0.185100  0.213200  0.369800  1.0
  H  H317  1  0.185100  0.286800  0.869800  1.0
  H  H318  1  0.185100  0.786800  0.369800  1.0
  H  H319  1  0.814900  0.286800  0.130200  1.0
  H  H320  1  0.814900  0.786800  0.630200  1.0
  H  H321  1  0.668500  0.758800  0.195900  1.0
  H  H322  1  0.668500  0.258800  0.695900  1.0
  H  H323  1  0.331500  0.758800  0.804100  1.0
  H  H324  1  0.331500  0.258800  0.304100  1.0
  H  H325  1  0.331500  0.241200  0.804100  1.0
  H  H326  1  0.331500  0.741200  0.304100  1.0
  H  H327  1  0.668500  0.241200  0.195900  1.0
  H  H328  1  0.668500  0.741200  0.695900  1.0
  H  H329  1  0.693200  0.812700  0.152000  1.0
  H  H330  1  0.693200  0.312700  0.652000  1.0
  H  H331  1  0.306800  0.812700  0.848000  1.0
  H  H332  1  0.306800  0.312700  0.348000  1.0
  H  H333  1  0.306800  0.187300  0.848000  1.0
  H  H334  1  0.306800  0.687300  0.348000  1.0
  H  H335  1  0.693200  0.187300  0.152000  1.0
  H  H336  1  0.693200  0.687300  0.652000  1.0
  H  H337  1  0.908200  0.793200  0.842400  1.0
  H  H338  1  0.908200  0.293200  0.342400  1.0
  H  H339  1  0.091800  0.793200  0.157600  1.0
  H  H340  1  0.091800  0.293200  0.657600  1.0
  H  H341  1  0.091800  0.206800  0.157600  1.0
  H  H342  1  0.091800  0.706800  0.657600  1.0
  H  H343  1  0.908200  0.206800  0.842400  1.0
  H  H344  1  0.908200  0.706800  0.342400  1.0
  H  H345  1  0.727300  0.811300  0.809800  1.0
  H  H346  1  0.727300  0.311300  0.309800  1.0
  H  H347  1  0.272700  0.811300  0.190200  1.0
  H  H348  1  0.272700  0.311300  0.690200  1.0
  H  H349  1  0.272700  0.188700  0.190200  1.0
  H  H350  1  0.272700  0.688700  0.690200  1.0
  H  H351  1  0.727300  0.188700  0.809800  1.0
  H  H352  1  0.727300  0.688700  0.309800  1.0
  H  H353  1  0.923700  0.854900  0.926100  1.0
  H  H354  1  0.923700  0.354900  0.426100  1.0
  H  H355  1  0.076300  0.854900  0.073900  1.0
  H  H356  1  0.076300  0.354900  0.573900  1.0
  H  H357  1  0.076300  0.145100  0.073900  1.0
  H  H358  1  0.076300  0.645100  0.573900  1.0
  H  H359  1  0.923700  0.145100  0.926100  1.0
  H  H360  1  0.923700  0.645100  0.426100  1.0
  H  H361  1  0.950800  0.886400  0.896900  1.0
  H  H362  1  0.950800  0.386400  0.396900  1.0
  H  H363  1  0.049200  0.886400  0.103100  1.0
  H  H364  1  0.049200  0.386400  0.603100  1.0
  H  H365  1  0.049200  0.113600  0.103100  1.0
  H  H366  1  0.049200  0.613600  0.603100  1.0
  H  H367  1  0.950800  0.113600  0.896900  1.0
  H  H368  1  0.950800  0.613600  0.396900  1.0
  H  H369  1  0.962400  0.828200  0.900300  1.0
  H  H370  1  0.962400  0.328200  0.400300  1.0
  H  H371  1  0.037600  0.828200  0.099700  1.0
  H  H372  1  0.037600  0.328200  0.599700  1.0
  H  H373  1  0.037600  0.171800  0.099700  1.0
  H  H374  1  0.037600  0.671800  0.599700  1.0
  H  H375  1  0.962400  0.171800  0.900300  1.0
  H  H376  1  0.962400  0.671800  0.400300  1.0
  H  H377  1  0.696000  0.905000  0.826500  1.0
  H  H378  1  0.696000  0.405000  0.326500  1.0
  H  H379  1  0.304000  0.905000  0.173500  1.0
  H  H380  1  0.304000  0.405000  0.673500  1.0
  H  H381  1  0.304000  0.095000  0.173500  1.0
  H  H382  1  0.304000  0.595000  0.673500  1.0
  H  H383  1  0.696000  0.095000  0.826500  1.0
  H  H384  1  0.696000  0.595000  0.326500  1.0
  H  H385  1  0.717700  0.911100  0.870800  1.0
  H  H386  1  0.717700  0.411100  0.370800  1.0
  H  H387  1  0.282300  0.911100  0.129200  1.0
  H  H388  1  0.282300  0.411100  0.629200  1.0
  H  H389  1  0.282300  0.088900  0.129200  1.0
  H  H390  1  0.282300  0.588900  0.629200  1.0
  H  H391  1  0.717700  0.088900  0.870800  1.0
  H  H392  1  0.717700  0.588900  0.370800  1.0
  H  H393  1  0.677400  0.864500  0.853500  1.0
  H  H394  1  0.677400  0.364500  0.353500  1.0
  H  H395  1  0.322600  0.864500  0.146500  1.0
  H  H396  1  0.322600  0.364500  0.646500  1.0
  H  H397  1  0.322600  0.135500  0.146500  1.0
  H  H398  1  0.322600  0.635500  0.646500  1.0
  H  H399  1  0.677400  0.135500  0.853500  1.0
  H  H400  1  0.677400  0.635500  0.353500  1.0
  H  H401  1  0.896500  0.771900  0.780800  1.0
  H  H402  1  0.896500  0.271900  0.280800  1.0
  H  H403  1  0.103500  0.771900  0.219200  1.0
  H  H404  1  0.103500  0.271900  0.719200  1.0
  H  H405  1  0.103500  0.228100  0.219200  1.0
  H  H406  1  0.103500  0.728100  0.719200  1.0
  H  H407  1  0.896500  0.228100  0.780800  1.0
  H  H408  1  0.896500  0.728100  0.280800  1.0
  H  H409  1  0.729000  0.664700  0.755800  1.0
  H  H410  1  0.729000  0.164700  0.255800  1.0
  H  H411  1  0.271000  0.664700  0.244200  1.0
  H  H412  1  0.271000  0.164700  0.744200  1.0
  H  H413  1  0.271000  0.335300  0.244200  1.0
  H  H414  1  0.271000  0.835300  0.744200  1.0
  H  H415  1  0.729000  0.335300  0.755800  1.0
  H  H416  1  0.729000  0.835300  0.255800  1.0
  H  H417  1  0.733700  0.728200  0.799300  1.0
  H  H418  1  0.733700  0.228200  0.299300  1.0
  H  H419  1  0.266300  0.728200  0.200700  1.0
  H  H420  1  0.266300  0.228200  0.700700  1.0
  H  H421  1  0.266300  0.271800  0.200700  1.0
  H  H422  1  0.266300  0.771800  0.700700  1.0
  H  H423  1  0.733700  0.271800  0.799300  1.0
  H  H424  1  0.733700  0.771800  0.299300  1.0
  H  H425  1  0.699200  0.606600  0.255900  1.0
  H  H426  1  0.699200  0.106600  0.755900  1.0
  H  H427  1  0.300800  0.606600  0.744100  1.0
  H  H428  1  0.300800  0.106600  0.244100  1.0
  H  H429  1  0.300800  0.393400  0.744100  1.0
  H  H430  1  0.300800  0.893400  0.244100  1.0
  H  H431  1  0.699200  0.393400  0.255900  1.0
  H  H432  1  0.699200  0.893400  0.755900  1.0
  H  H433  1  0.673500  0.567400  0.223900  1.0
  H  H434  1  0.673500  0.067400  0.723900  1.0
  H  H435  1  0.326500  0.567400  0.776100  1.0
  H  H436  1  0.326500  0.067400  0.276100  1.0
  H  H437  1  0.326500  0.432600  0.776100  1.0
  H  H438  1  0.326500  0.932600  0.276100  1.0
  H  H439  1  0.673500  0.432600  0.223900  1.0
  H  H440  1  0.673500  0.932600  0.723900  1.0
  H  H441  1  0.743300  0.523300  0.251800  1.0
  H  H442  1  0.743300  0.023300  0.751800  1.0
  H  H443  1  0.256700  0.523300  0.748200  1.0
  H  H444  1  0.256700  0.023300  0.248200  1.0
  H  H445  1  0.256700  0.476700  0.748200  1.0
  H  H446  1  0.256700  0.976700  0.248200  1.0
  H  H447  1  0.743300  0.476700  0.251800  1.0
  H  H448  1  0.743300  0.976700  0.751800  1.0
  H  H449  1  0.779200  0.568400  0.274800  1.0
  H  H450  1  0.779200  0.068400  0.774800  1.0
  H  H451  1  0.220800  0.568400  0.725200  1.0
  H  H452  1  0.220800  0.068400  0.225200  1.0
  H  H453  1  0.220800  0.431600  0.725200  1.0
  H  H454  1  0.220800  0.931600  0.225200  1.0
  H  H455  1  0.779200  0.431600  0.274800  1.0
  H  H456  1  0.779200  0.931600  0.774800  1.0
  H  H457  1  0.887000  0.523600  0.255800  1.0
  H  H458  1  0.887000  0.023600  0.755800  1.0
  H  H459  1  0.113000  0.523600  0.744200  1.0
  H  H460  1  0.113000  0.023600  0.244200  1.0
  H  H461  1  0.113000  0.476400  0.744200  1.0
  H  H462  1  0.113000  0.976400  0.244200  1.0
  H  H463  1  0.887000  0.476400  0.255800  1.0
  H  H464  1  0.887000  0.976400  0.755800  1.0
  H  H465  1  0.859200  0.563900  0.279700  1.0
  H  H466  1  0.859200  0.063900  0.779700  1.0
  H  H467  1  0.140800  0.563900  0.720300  1.0
  H  H468  1  0.140800  0.063900  0.220300  1.0
  H  H469  1  0.140800  0.436100  0.720300  1.0
  H  H470  1  0.140800  0.936100  0.220300  1.0
  H  H471  1  0.859200  0.436100  0.279700  1.0
  H  H472  1  0.859200  0.936100  0.779700  1.0
  H  H473  1  0.870100  0.616100  0.220300  1.0
  H  H474  1  0.870100  0.116100  0.720300  1.0
  H  H475  1  0.129900  0.616100  0.779700  1.0
  H  H476  1  0.129900  0.116100  0.279700  1.0
  H  H477  1  0.129900  0.383900  0.779700  1.0
  H  H478  1  0.129900  0.883900  0.279700  1.0
  H  H479  1  0.870100  0.383900  0.220300  1.0
  H  H480  1  0.870100  0.883900  0.720300  1.0
  H  H481  1  0.808400  0.606300  0.727900  1.0
  H  H482  1  0.808400  0.106300  0.227900  1.0
  H  H483  1  0.191600  0.606300  0.272100  1.0
  H  H484  1  0.191600  0.106300  0.772100  1.0
  H  H485  1  0.191600  0.393700  0.272100  1.0
  H  H486  1  0.191600  0.893700  0.772100  1.0
  H  H487  1  0.808400  0.393700  0.727900  1.0
  H  H488  1  0.808400  0.893700  0.227900  1.0
  H  H489  1  0.763500  0.639600  0.696800  1.0
  H  H490  1  0.763500  0.139600  0.196800  1.0
  H  H491  1  0.236500  0.639600  0.303200  1.0
  H  H492  1  0.236500  0.139600  0.803200  1.0
  H  H493  1  0.236500  0.360400  0.303200  1.0
  H  H494  1  0.236500  0.860400  0.803200  1.0
  H  H495  1  0.763500  0.360400  0.696800  1.0
  H  H496  1  0.763500  0.860400  0.196800  1.0
  H  H497  1  0.824200  0.583400  0.676300  1.0
  H  H498  1  0.824200  0.083400  0.176300  1.0
  H  H499  1  0.175800  0.583400  0.323700  1.0
  H  H500  1  0.175800  0.083400  0.823700  1.0
  H  H501  1  0.175800  0.416600  0.323700  1.0
  H  H502  1  0.175800  0.916600  0.823700  1.0
  H  H503  1  0.824200  0.416600  0.676300  1.0
  H  H504  1  0.824200  0.916600  0.176300  1.0
  H  H505  1  0.848900  0.617600  0.647900  1.0
  H  H506  1  0.848900  0.117600  0.147900  1.0
  H  H507  1  0.151100  0.617600  0.352100  1.0
  H  H508  1  0.151100  0.117600  0.852100  1.0
  H  H509  1  0.151100  0.382400  0.352100  1.0
  H  H510  1  0.151100  0.882400  0.852100  1.0
  H  H511  1  0.848900  0.382400  0.647900  1.0
  H  H512  1  0.848900  0.882400  0.147900  1.0
  H  H513  1  0.919600  0.567300  0.656700  1.0
  H  H514  1  0.919600  0.067300  0.156700  1.0
  H  H515  1  0.080400  0.567300  0.343300  1.0
  H  H516  1  0.080400  0.067300  0.843300  1.0
  H  H517  1  0.080400  0.432700  0.343300  1.0
  H  H518  1  0.080400  0.932700  0.843300  1.0
  H  H519  1  0.919600  0.432700  0.656700  1.0
  H  H520  1  0.919600  0.932700  0.156700  1.0
  H  H521  1  0.907500  0.549000  0.695600  1.0
  H  H522  1  0.907500  0.049000  0.195600  1.0
  H  H523  1  0.092500  0.549000  0.304400  1.0
  H  H524  1  0.092500  0.049000  0.804400  1.0
  H  H525  1  0.092500  0.451000  0.304400  1.0
  H  H526  1  0.092500  0.951000  0.804400  1.0
  H  H527  1  0.907500  0.451000  0.695600  1.0
  H  H528  1  0.907500  0.951000  0.195600  1.0
  H  H529  1  0.017400  0.543400  0.719200  1.0
  H  H530  1  0.017400  0.043400  0.219200  1.0
  H  H531  1  0.982600  0.543400  0.280800  1.0
  H  H532  1  0.982600  0.043400  0.780800  1.0
  H  H533  1  0.982600  0.456600  0.280800  1.0
  H  H534  1  0.982600  0.956600  0.780800  1.0
  H  H535  1  0.017400  0.456600  0.719200  1.0
  H  H536  1  0.017400  0.956600  0.219200  1.0
  H  H537  1  0.970000  0.557500  0.744500  1.0
  H  H538  1  0.970000  0.057500  0.244500  1.0
  H  H539  1  0.030000  0.557500  0.255500  1.0
  H  H540  1  0.030000  0.057500  0.755500  1.0
  H  H541  1  0.030000  0.442500  0.255500  1.0
  H  H542  1  0.030000  0.942500  0.755500  1.0
  H  H543  1  0.970000  0.442500  0.744500  1.0
  H  H544  1  0.970000  0.942500  0.244500  1.0
  H  H545  1  0.968900  0.633600  0.237700  1.0
  H  H546  1  0.968900  0.133600  0.737700  1.0
  H  H547  1  0.031100  0.633600  0.762300  1.0
  H  H548  1  0.031100  0.133600  0.262300  1.0
  H  H549  1  0.031100  0.366400  0.762300  1.0
  H  H550  1  0.031100  0.866400  0.262300  1.0
  H  H551  1  0.968900  0.366400  0.237700  1.0
  H  H552  1  0.968900  0.866400  0.737700  1.0
  H  H553  1  0.314600  0.657700  0.056600  1.0
  H  H554  1  0.314600  0.157700  0.556600  1.0
  H  H555  1  0.685400  0.657700  0.943400  1.0
  H  H556  1  0.685400  0.157700  0.443400  1.0
  H  H557  1  0.685400  0.342300  0.943400  1.0
  H  H558  1  0.685400  0.842300  0.443400  1.0
  H  H559  1  0.314600  0.342300  0.056600  1.0
  H  H560  1  0.314600  0.842300  0.556600  1.0
  H  H561  1  0.287800  0.645100  0.909200  1.0
  H  H562  1  0.287800  0.145100  0.409200  1.0
  H  H563  1  0.712200  0.645100  0.090800  1.0
  H  H564  1  0.712200  0.145100  0.590800  1.0
  H  H565  1  0.712200  0.354900  0.090800  1.0
  H  H566  1  0.712200  0.854900  0.590800  1.0
  H  H567  1  0.287800  0.354900  0.909200  1.0
  H  H568  1  0.287800  0.854900  0.409200  1.0
  H  H569  1  0.357500  0.651300  0.870100  1.0
  H  H570  1  0.357500  0.151300  0.370100  1.0
  H  H571  1  0.642500  0.651300  0.129900  1.0
  H  H572  1  0.642500  0.151300  0.629900  1.0
  H  H573  1  0.642500  0.348700  0.129900  1.0
  H  H574  1  0.642500  0.848700  0.629900  1.0
  H  H575  1  0.357500  0.348700  0.870100  1.0
  H  H576  1  0.357500  0.848700  0.370100  1.0
  H  H577  1  0.399100  0.653600  0.113400  1.0
  H  H578  1  0.399100  0.153600  0.613400  1.0
  H  H579  1  0.600900  0.653600  0.886600  1.0
  H  H580  1  0.600900  0.153600  0.386600  1.0
  H  H581  1  0.600900  0.346400  0.886600  1.0
  H  H582  1  0.600900  0.846400  0.386600  1.0
  H  H583  1  0.399100  0.346400  0.113400  1.0
  H  H584  1  0.399100  0.846400  0.613400  1.0
  H  H585  1  0.487900  0.541300  0.945500  1.0
  H  H586  1  0.487900  0.041300  0.445500  1.0
  H  H587  1  0.512100  0.541300  0.054500  1.0
  H  H588  1  0.512100  0.041300  0.554500  1.0
  H  H589  1  0.512100  0.458700  0.054500  1.0
  H  H590  1  0.512100  0.958700  0.554500  1.0
  H  H591  1  0.487900  0.458700  0.945500  1.0
  H  H592  1  0.487900  0.958700  0.445500  1.0
  H  H593  1  0.425700  0.541300  0.959700  1.0
  H  H594  1  0.425700  0.041300  0.459700  1.0
  H  H595  1  0.574300  0.541300  0.040300  1.0
  H  H596  1  0.574300  0.041300  0.540300  1.0
  H  H597  1  0.574300  0.458700  0.040300  1.0
  H  H598  1  0.574300  0.958700  0.540300  1.0
  H  H599  1  0.425700  0.458700  0.959700  1.0
  H  H600  1  0.425700  0.958700  0.459700  1.0
  H  H601  1  0.417000  0.541600  0.968800  1.0
  H  H602  1  0.417000  0.041600  0.468800  1.0
  H  H603  1  0.583000  0.541600  0.031200  1.0
  H  H604  1  0.583000  0.041600  0.531200  1.0
  H  H605  1  0.583000  0.458400  0.031200  1.0
  H  H606  1  0.583000  0.958400  0.531200  1.0
  H  H607  1  0.417000  0.458400  0.968800  1.0
  H  H608  1  0.417000  0.958400  0.468800  1.0
  H  H609  1  0.579700  0.541600  0.987300  1.0
  H  H610  1  0.579700  0.041600  0.487300  1.0
  H  H611  1  0.420300  0.541600  0.012700  1.0
  H  H612  1  0.420300  0.041600  0.512700  1.0
  H  H613  1  0.420300  0.458400  0.012700  1.0
  H  H614  1  0.420300  0.958400  0.512700  1.0
  H  H615  1  0.579700  0.458400  0.987300  1.0
  H  H616  1  0.579700  0.958400  0.487300  1.0
  H  H617  1  0.570000  0.541100  0.976700  1.0
  H  H618  1  0.570000  0.041100  0.476700  1.0
  H  H619  1  0.430000  0.541100  0.023300  1.0
  H  H620  1  0.430000  0.041100  0.523300  1.0
  H  H621  1  0.430000  0.458900  0.023300  1.0
  H  H622  1  0.430000  0.958900  0.523300  1.0
  H  H623  1  0.570000  0.458900  0.976700  1.0
  H  H624  1  0.570000  0.958900  0.476700  1.0
  H  H625  1  0.505000  0.541100  0.947600  1.0
  H  H626  1  0.505000  0.041100  0.447600  1.0
  H  H627  1  0.495000  0.541100  0.052400  1.0
  H  H628  1  0.495000  0.041100  0.552400  1.0
  H  H629  1  0.495000  0.458900  0.052400  1.0
  H  H630  1  0.495000  0.958900  0.552400  1.0
  H  H631  1  0.505000  0.458900  0.947600  1.0
  H  H632  1  0.505000  0.958900  0.447600  1.0
  H  H633  1  0.146000  0.593600  0.968000  1.0
  H  H634  1  0.146000  0.093600  0.468000  1.0
  H  H635  1  0.854000  0.593600  0.032000  1.0
  H  H636  1  0.854000  0.093600  0.532000  1.0
  H  H637  1  0.854000  0.406400  0.032000  1.0
  H  H638  1  0.854000  0.906400  0.532000  1.0
  H  H639  1  0.146000  0.406400  0.968000  1.0
  H  H640  1  0.146000  0.906400  0.468000  1.0
  H  H641  1  0.173300  0.739300  0.960800  1.0
  H  H642  1  0.173300  0.239300  0.460800  1.0
  H  H643  1  0.826700  0.739300  0.039200  1.0
  H  H644  1  0.826700  0.239300  0.539200  1.0
  H  H645  1  0.826700  0.260700  0.039200  1.0
  H  H646  1  0.826700  0.760700  0.539200  1.0
  H  H647  1  0.173300  0.260700  0.960800  1.0
  H  H648  1  0.173300  0.760700  0.460800  1.0
  H  H649  1  0.294800  0.560000  0.969000  1.0
  H  H650  1  0.294800  0.060000  0.469000  1.0
  H  H651  1  0.705200  0.560000  0.031000  1.0
  H  H652  1  0.705200  0.060000  0.531000  1.0
  H  H653  1  0.705200  0.440000  0.031000  1.0
  H  H654  1  0.705200  0.940000  0.531000  1.0
  H  H655  1  0.294800  0.440000  0.969000  1.0
  H  H656  1  0.294800  0.940000  0.469000  1.0
  H  H657  1  0.229100  0.538900  0.970700  1.0
  H  H658  1  0.229100  0.038900  0.470700  1.0
  H  H659  1  0.770900  0.538900  0.029300  1.0
  H  H660  1  0.770900  0.038900  0.529300  1.0
  H  H661  1  0.770900  0.461100  0.029300  1.0
  H  H662  1  0.770900  0.961100  0.529300  1.0
  H  H663  1  0.229100  0.461100  0.970700  1.0
  H  H664  1  0.229100  0.961100  0.470700  1.0
  H  H665  1  0.277200  0.553000  0.008400  1.0
  H  H666  1  0.277200  0.053000  0.508400  1.0
  H  H667  1  0.722800  0.553000  0.991600  1.0
  H  H668  1  0.722800  0.053000  0.491600  1.0
  H  H669  1  0.722800  0.447000  0.991600  1.0
  H  H670  1  0.722800  0.947000  0.491600  1.0
  H  H671  1  0.277200  0.447000  0.008400  1.0
  H  H672  1  0.277200  0.947000  0.508400  1.0
  H  H673  1  0.276200  0.768300  0.959500  1.0
  H  H674  1  0.276200  0.268300  0.459500  1.0
  H  H675  1  0.723800  0.768300  0.040500  1.0
  H  H676  1  0.723800  0.268300  0.540500  1.0
  H  H677  1  0.723800  0.231700  0.040500  1.0
  H  H678  1  0.723800  0.731700  0.540500  1.0
  H  H679  1  0.276200  0.231700  0.959500  1.0
  H  H680  1  0.276200  0.731700  0.459500  1.0
  H  H681  1  0.333600  0.732400  0.972900  1.0
  H  H682  1  0.333600  0.232400  0.472900  1.0
  H  H683  1  0.666400  0.732400  0.027100  1.0
  H  H684  1  0.666400  0.232400  0.527100  1.0
  H  H685  1  0.666400  0.267600  0.027100  1.0
  H  H686  1  0.666400  0.767600  0.527100  1.0
  H  H687  1  0.333600  0.267600  0.972900  1.0
  H  H688  1  0.333600  0.767600  0.472900  1.0
  H  H689  1  0.302300  0.757900  0.003000  1.0
  H  H690  1  0.302300  0.257900  0.503000  1.0
  H  H691  1  0.697700  0.757900  0.997000  1.0
  H  H692  1  0.697700  0.257900  0.497000  1.0
  H  H693  1  0.697700  0.242100  0.997000  1.0
  H  H694  1  0.697700  0.742100  0.497000  1.0
  H  H695  1  0.302300  0.242100  0.003000  1.0
  H  H696  1  0.302300  0.742100  0.503000  1.0
  H  H697  1  0.055500  0.611000  0.932900  1.0
  H  H698  1  0.055500  0.111000  0.432900  1.0
  H  H699  1  0.944500  0.611000  0.067100  1.0
  H  H700  1  0.944500  0.111000  0.567100  1.0
  H  H701  1  0.944500  0.389000  0.067100  1.0
  H  H702  1  0.944500  0.889000  0.567100  1.0
  H  H703  1  0.055500  0.389000  0.932900  1.0
  H  H704  1  0.055500  0.889000  0.432900  1.0
  H  H705  1  0.986300  0.765000  0.963000  1.0
  H  H706  1  0.986300  0.265000  0.463000  1.0
  H  H707  1  0.013700  0.765000  0.037000  1.0
  H  H708  1  0.013700  0.265000  0.537000  1.0
  H  H709  1  0.013700  0.235000  0.037000  1.0
  H  H710  1  0.013700  0.735000  0.537000  1.0
  H  H711  1  0.986300  0.235000  0.963000  1.0
  H  H712  1  0.986300  0.735000  0.463000  1.0
  H  H713  1  0.091100  0.748100  0.976200  1.0
  H  H714  1  0.091100  0.248100  0.476200  1.0
  H  H715  1  0.908900  0.748100  0.023800  1.0
  H  H716  1  0.908900  0.248100  0.523800  1.0
  H  H717  1  0.908900  0.251900  0.023800  1.0
  H  H718  1  0.908900  0.751900  0.523800  1.0
  H  H719  1  0.091100  0.251900  0.976200  1.0
  H  H720  1  0.091100  0.751900  0.476200  1.0
  H  H721  1  0.462600  0.601400  0.784200  1.0
  H  H722  1  0.462600  0.101400  0.284200  1.0
  H  H723  1  0.537400  0.601400  0.215800  1.0
  H  H724  1  0.537400  0.101400  0.715800  1.0
  H  H725  1  0.537400  0.398600  0.215800  1.0
  H  H726  1  0.537400  0.898600  0.715800  1.0
  H  H727  1  0.462600  0.398600  0.784200  1.0
  H  H728  1  0.462600  0.898600  0.284200  1.0
  H  H729  1  0.451500  0.747400  0.803100  1.0
  H  H730  1  0.451500  0.247400  0.303100  1.0
  H  H731  1  0.548500  0.747400  0.196900  1.0
  H  H732  1  0.548500  0.247400  0.696900  1.0
  H  H733  1  0.548500  0.252600  0.196900  1.0
  H  H734  1  0.548500  0.752600  0.696900  1.0
  H  H735  1  0.451500  0.252600  0.803100  1.0
  H  H736  1  0.451500  0.752600  0.303100  1.0
  H  H737  1  0.479500  0.544900  0.832000  1.0
  H  H738  1  0.479500  0.044900  0.332000  1.0
  H  H739  1  0.520500  0.544900  0.168000  1.0
  H  H740  1  0.520500  0.044900  0.668000  1.0
  H  H741  1  0.520500  0.455100  0.168000  1.0
  H  H742  1  0.520500  0.955100  0.668000  1.0
  H  H743  1  0.479500  0.455100  0.832000  1.0
  H  H744  1  0.479500  0.955100  0.332000  1.0
  H  H745  1  0.449600  0.560700  0.865700  1.0
  H  H746  1  0.449600  0.060700  0.365700  1.0
  H  H747  1  0.550400  0.560700  0.134300  1.0
  H  H748  1  0.550400  0.060700  0.634300  1.0
  H  H749  1  0.550400  0.439300  0.134300  1.0
  H  H750  1  0.550400  0.939300  0.634300  1.0
  H  H751  1  0.449600  0.439300  0.865700  1.0
  H  H752  1  0.449600  0.939300  0.365700  1.0
  H  H753  1  0.522200  0.562000  0.870900  1.0
  H  H754  1  0.522200  0.062000  0.370900  1.0
  H  H755  1  0.477800  0.562000  0.129100  1.0
  H  H756  1  0.477800  0.062000  0.629100  1.0
  H  H757  1  0.477800  0.438000  0.129100  1.0
  H  H758  1  0.477800  0.938000  0.629100  1.0
  H  H759  1  0.522200  0.438000  0.870900  1.0
  H  H760  1  0.522200  0.938000  0.370900  1.0
  H  H761  1  0.453100  0.779000  0.861600  1.0
  H  H762  1  0.453100  0.279000  0.361600  1.0
  H  H763  1  0.546900  0.779000  0.138400  1.0
  H  H764  1  0.546900  0.279000  0.638400  1.0
  H  H765  1  0.546900  0.221000  0.138400  1.0
  H  H766  1  0.546900  0.721000  0.638400  1.0
  H  H767  1  0.453100  0.221000  0.861600  1.0
  H  H768  1  0.453100  0.721000  0.361600  1.0
  H  H769  1  0.502700  0.752900  0.894100  1.0
  H  H770  1  0.502700  0.252900  0.394100  1.0
  H  H771  1  0.497300  0.752900  0.105900  1.0
  H  H772  1  0.497300  0.252900  0.605900  1.0
  H  H773  1  0.497300  0.247100  0.105900  1.0
  H  H774  1  0.497300  0.747100  0.605900  1.0
  H  H775  1  0.502700  0.247100  0.894100  1.0
  H  H776  1  0.502700  0.747100  0.394100  1.0
  H  H777  1  0.431500  0.741500  0.889500  1.0
  H  H778  1  0.431500  0.241500  0.389500  1.0
  H  H779  1  0.568500  0.741500  0.110500  1.0
  H  H780  1  0.568500  0.241500  0.610500  1.0
  H  H781  1  0.568500  0.258500  0.110500  1.0
  H  H782  1  0.568500  0.758500  0.610500  1.0
  H  H783  1  0.431500  0.258500  0.889500  1.0
  H  H784  1  0.431500  0.758500  0.389500  1.0
  H  H785  1  0.492600  0.628400  0.730300  1.0
  H  H786  1  0.492600  0.128400  0.230300  1.0
  H  H787  1  0.507400  0.628400  0.269700  1.0
  H  H788  1  0.507400  0.128400  0.769700  1.0
  H  H789  1  0.507400  0.371600  0.269700  1.0
  H  H790  1  0.507400  0.871600  0.769700  1.0
  H  H791  1  0.492600  0.371600  0.730300  1.0
  H  H792  1  0.492600  0.871600  0.230300  1.0
  H  H793  1  0.363100  0.761400  0.686900  1.0
  H  H794  1  0.363100  0.261400  0.186900  1.0
  H  H795  1  0.636900  0.761400  0.313100  1.0
  H  H796  1  0.636900  0.261400  0.813100  1.0
  H  H797  1  0.636900  0.238600  0.313100  1.0
  H  H798  1  0.636900  0.738600  0.813100  1.0
  H  H799  1  0.363100  0.238600  0.686900  1.0
  H  H800  1  0.363100  0.738600  0.186900  1.0
  H  H801  1  0.391300  0.744300  0.750800  1.0
  H  H802  1  0.391300  0.244300  0.250800  1.0
  H  H803  1  0.608700  0.744300  0.249200  1.0
  H  H804  1  0.608700  0.244300  0.749200  1.0
  H  H805  1  0.608700  0.255700  0.249200  1.0
  H  H806  1  0.608700  0.755700  0.749200  1.0
  H  H807  1  0.391300  0.255700  0.750800  1.0
  H  H808  1  0.391300  0.755700  0.250800  1.0
  H  H809  1  0.877800  0.695200  0.957700  1.0
  H  H810  1  0.877800  0.195200  0.457700  1.0
  H  H811  1  0.122200  0.695200  0.042300  1.0
  H  H812  1  0.122200  0.195200  0.542300  1.0
  H  H813  1  0.122200  0.304800  0.042300  1.0
  H  H814  1  0.122200  0.804800  0.542300  1.0
  H  H815  1  0.877800  0.304800  0.957700  1.0
  H  H816  1  0.877800  0.804800  0.457700  1.0
  H  H817  1  0.881900  0.742300  0.931800  1.0
  H  H818  1  0.881900  0.242300  0.431800  1.0
  H  H819  1  0.118100  0.742300  0.068200  1.0
  H  H820  1  0.118100  0.242300  0.568200  1.0
  H  H821  1  0.118100  0.257700  0.068200  1.0
  H  H822  1  0.118100  0.757700  0.568200  1.0
  H  H823  1  0.881900  0.257700  0.931800  1.0
  H  H824  1  0.881900  0.757700  0.431800  1.0
  H  H825  1  0.787600  0.687400  0.926200  1.0
  H  H826  1  0.787600  0.187400  0.426200  1.0
  H  H827  1  0.212400  0.687400  0.073800  1.0
  H  H828  1  0.212400  0.187400  0.573800  1.0
  H  H829  1  0.212400  0.312600  0.073800  1.0
  H  H830  1  0.212400  0.812600  0.573800  1.0
  H  H831  1  0.787600  0.312600  0.926200  1.0
  H  H832  1  0.787600  0.812600  0.426200  1.0
  H  H833  1  0.780300  0.716300  0.887400  1.0
  H  H834  1  0.780300  0.216300  0.387400  1.0
  H  H835  1  0.219700  0.716300  0.112600  1.0
  H  H836  1  0.219700  0.216300  0.612600  1.0
  H  H837  1  0.219700  0.283700  0.112600  1.0
  H  H838  1  0.219700  0.783700  0.612600  1.0
  H  H839  1  0.780300  0.283700  0.887400  1.0
  H  H840  1  0.780300  0.783700  0.387400  1.0
  H  H841  1  0.750800  0.653000  0.854600  1.0
  H  H842  1  0.750800  0.153000  0.354600  1.0
  H  H843  1  0.249200  0.653000  0.145400  1.0
  H  H844  1  0.249200  0.153000  0.645400  1.0
  H  H845  1  0.249200  0.347000  0.145400  1.0
  H  H846  1  0.249200  0.847000  0.645400  1.0
  H  H847  1  0.750800  0.347000  0.854600  1.0
  H  H848  1  0.750800  0.847000  0.354600  1.0
  H  H849  1  0.723500  0.641400  0.889900  1.0
  H  H850  1  0.723500  0.141400  0.389900  1.0
  H  H851  1  0.276500  0.641400  0.110100  1.0
  H  H852  1  0.276500  0.141400  0.610100  1.0
  H  H853  1  0.276500  0.358600  0.110100  1.0
  H  H854  1  0.276500  0.858600  0.610100  1.0
  H  H855  1  0.723500  0.358600  0.889900  1.0
  H  H856  1  0.723500  0.858600  0.389900  1.0
  H  H857  1  0.746800  0.576400  0.925300  1.0
  H  H858  1  0.746800  0.076400  0.425300  1.0
  H  H859  1  0.253200  0.576400  0.074700  1.0
  H  H860  1  0.253200  0.076400  0.574700  1.0
  H  H861  1  0.253200  0.423600  0.074700  1.0
  H  H862  1  0.253200  0.923600  0.574700  1.0
  H  H863  1  0.746800  0.423600  0.925300  1.0
  H  H864  1  0.746800  0.923600  0.425300  1.0
  H  H865  1  0.809500  0.546400  0.927600  1.0
  H  H866  1  0.809500  0.046400  0.427600  1.0
  H  H867  1  0.190500  0.546400  0.072400  1.0
  H  H868  1  0.190500  0.046400  0.572400  1.0
  H  H869  1  0.190500  0.453600  0.072400  1.0
  H  H870  1  0.190500  0.953600  0.572400  1.0
  H  H871  1  0.809500  0.453600  0.927600  1.0
  H  H872  1  0.809500  0.953600  0.427600  1.0
  H  H873  1  0.713200  0.538700  0.862600  1.0
  H  H874  1  0.713200  0.038700  0.362600  1.0
  H  H875  1  0.286800  0.538700  0.137400  1.0
  H  H876  1  0.286800  0.038700  0.637400  1.0
  H  H877  1  0.286800  0.461300  0.137400  1.0
  H  H878  1  0.286800  0.961300  0.637400  1.0
  H  H879  1  0.713200  0.461300  0.862600  1.0
  H  H880  1  0.713200  0.961300  0.362600  1.0
  H  H881  1  0.340000  0.706000  0.623600  1.0
  H  H882  1  0.340000  0.206000  0.123600  1.0
  H  H883  1  0.660000  0.706000  0.376400  1.0
  H  H884  1  0.660000  0.206000  0.876400  1.0
  H  H885  1  0.660000  0.294000  0.376400  1.0
  H  H886  1  0.660000  0.794000  0.876400  1.0
  H  H887  1  0.340000  0.294000  0.623600  1.0
  H  H888  1  0.340000  0.794000  0.123600  1.0
  H  H889  1  0.391500  0.746700  0.622300  1.0
  H  H890  1  0.391500  0.246700  0.122300  1.0
  H  H891  1  0.608500  0.746700  0.377700  1.0
  H  H892  1  0.608500  0.246700  0.877700  1.0
  H  H893  1  0.608500  0.253300  0.377700  1.0
  H  H894  1  0.608500  0.753300  0.877700  1.0
  H  H895  1  0.391500  0.253300  0.622300  1.0
  H  H896  1  0.391500  0.753300  0.122300  1.0
  H  H897  1  0.340300  0.692100  0.567500  1.0
  H  H898  1  0.340300  0.192100  0.067500  1.0
  H  H899  1  0.659700  0.692100  0.432500  1.0
  H  H900  1  0.659700  0.192100  0.932500  1.0
  H  H901  1  0.659700  0.307900  0.432500  1.0
  H  H902  1  0.659700  0.807900  0.932500  1.0
  H  H903  1  0.340300  0.307900  0.567500  1.0
  H  H904  1  0.340300  0.807900  0.067500  1.0
  H  H905  1  0.402400  0.715100  0.560300  1.0
  H  H906  1  0.402400  0.215100  0.060300  1.0
  H  H907  1  0.597600  0.715100  0.439700  1.0
  H  H908  1  0.597600  0.215100  0.939700  1.0
  H  H909  1  0.597600  0.284900  0.439700  1.0
  H  H910  1  0.597600  0.784900  0.939700  1.0
  H  H911  1  0.402400  0.284900  0.560300  1.0
  H  H912  1  0.402400  0.784900  0.060300  1.0
  H  H913  1  0.436900  0.633500  0.556400  1.0
  H  H914  1  0.436900  0.133500  0.056400  1.0
  H  H915  1  0.563100  0.633500  0.443600  1.0
  H  H916  1  0.563100  0.133500  0.943600  1.0
  H  H917  1  0.563100  0.366500  0.443600  1.0
  H  H918  1  0.563100  0.866500  0.943600  1.0
  H  H919  1  0.436900  0.366500  0.556400  1.0
  H  H920  1  0.436900  0.866500  0.056400  1.0
  H  H921  1  0.381600  0.650000  0.522800  1.0
  H  H922  1  0.381600  0.150000  0.022800  1.0
  H  H923  1  0.618400  0.650000  0.477200  1.0
  H  H924  1  0.618400  0.150000  0.977200  1.0
  H  H925  1  0.618400  0.350000  0.477200  1.0
  H  H926  1  0.618400  0.850000  0.977200  1.0
  H  H927  1  0.381600  0.350000  0.522800  1.0
  H  H928  1  0.381600  0.850000  0.022800  1.0
  H  H929  1  0.406800  0.550400  0.592500  1.0
  H  H930  1  0.406800  0.050400  0.092500  1.0
  H  H931  1  0.593200  0.550400  0.407500  1.0
  H  H932  1  0.593200  0.050400  0.907500  1.0
  H  H933  1  0.593200  0.449600  0.407500  1.0
  H  H934  1  0.593200  0.949600  0.907500  1.0
  H  H935  1  0.406800  0.449600  0.592500  1.0
  H  H936  1  0.406800  0.949600  0.092500  1.0
  H  H937  1  0.420800  0.553300  0.551300  1.0
  H  H938  1  0.420800  0.053300  0.051300  1.0
  H  H939  1  0.579200  0.553300  0.448700  1.0
  H  H940  1  0.579200  0.053300  0.948700  1.0
  H  H941  1  0.579200  0.446700  0.448700  1.0
  H  H942  1  0.579200  0.946700  0.948700  1.0
  H  H943  1  0.420800  0.446700  0.551300  1.0
  H  H944  1  0.420800  0.946700  0.051300  1.0
  H  H945  1  0.297600  0.540400  0.540500  1.0
  H  H946  1  0.297600  0.040400  0.040500  1.0
  H  H947  1  0.702400  0.540400  0.459500  1.0
  H  H948  1  0.702400  0.040400  0.959500  1.0
  H  H949  1  0.702400  0.459600  0.459500  1.0
  H  H950  1  0.702400  0.959600  0.959500  1.0
  H  H951  1  0.297600  0.459600  0.540500  1.0
  H  H952  1  0.297600  0.959600  0.040500  1.0
  C  C953  1  0.737500  0.594400  0.244800  1
  C  C954  1  0.737500  0.094400  0.744800  1
  C  C955  1  0.262500  0.594400  0.755200  1
  C  C956  1  0.262500  0.094400  0.255200  1
  C  C957  1  0.262500  0.405600  0.755200  1
  C  C958  1  0.262500  0.905600  0.255200  1
  C  C959  1  0.737500  0.405600  0.244800  1
  C  C960  1  0.737500  0.905600  0.744800  1
  C  C961  1  0.794300  0.568400  0.251800  1
  C  C962  1  0.794300  0.068400  0.751800  1
  C  C963  1  0.205700  0.568400  0.748200  1
  C  C964  1  0.205700  0.068400  0.248200  1
  C  C965  1  0.205700  0.431600  0.748200  1
  C  C966  1  0.205700  0.931600  0.248200  1
  C  C967  1  0.794300  0.431600  0.251800  1
  C  C968  1  0.794300  0.931600  0.751800  1
  C  C969  1  0.898100  0.586000  0.262500  1
  C  C970  1  0.898100  0.086000  0.762500  1
  C  C971  1  0.101900  0.586000  0.737500  1
  C  C972  1  0.101900  0.086000  0.237500  1
  C  C973  1  0.101900  0.414000  0.737500  1
  C  C974  1  0.101900  0.914000  0.237500  1
  C  C975  1  0.898100  0.414000  0.262500  1
  C  C976  1  0.898100  0.914000  0.762500  1
  C  C977  1  0.938700  0.628800  0.274600  1
  C  C978  1  0.938700  0.128800  0.774600  1
  C  C979  1  0.061300  0.628800  0.725400  1
  C  C980  1  0.061300  0.128800  0.225400  1
  C  C981  1  0.061300  0.371200  0.725400  1
  C  C982  1  0.061300  0.871200  0.225400  1
  C  C983  1  0.938700  0.371200  0.274600  1
  C  C984  1  0.938700  0.871200  0.774600  1
  C  C985  1  0.844200  0.567600  0.695300  1
  C  C986  1  0.844200  0.067600  0.195300  1
  C  C987  1  0.155800  0.567600  0.304700  1
  C  C988  1  0.155800  0.067600  0.804700  1
  C  C989  1  0.155800  0.432400  0.304700  1
  C  C990  1  0.155800  0.932400  0.804700  1
  C  C991  1  0.844200  0.432400  0.695300  1
  C  C992  1  0.844200  0.932400  0.195300  1
  C  C993  1  0.899500  0.554600  0.685200  1
  C  C994  1  0.899500  0.054600  0.185200  1
  C  C995  1  0.100500  0.554600  0.314800  1
  C  C996  1  0.100500  0.054600  0.814800  1
  C  C997  1  0.100500  0.445400  0.314800  1
  C  C998  1  0.100500  0.945400  0.814800  1
  C  C999  1  0.899500  0.445400  0.685200  1
  C  C1000  1  0.899500  0.945400  0.185200  1
  C  C1001  1  0.985500  0.589000  0.673500  1
  C  C1002  1  0.985500  0.089000  0.173500  1
  C  C1003  1  0.014500  0.589000  0.326500  1
  C  C1004  1  0.014500  0.089000  0.826500  1
  C  C1005  1  0.014500  0.411000  0.326500  1
  C  C1006  1  0.014500  0.911000  0.826500  1
  C  C1007  1  0.985500  0.411000  0.673500  1
  C  C1008  1  0.985500  0.911000  0.173500  1
  C  C1009  1  0.010000  0.629900  0.698800  1
  C  C1010  1  0.010000  0.129900  0.198800  1
  C  C1011  1  0.990000  0.629900  0.301200  1
  C  C1012  1  0.990000  0.129900  0.801200  1
  C  C1013  1  0.990000  0.370100  0.301200  1
  C  C1014  1  0.990000  0.870100  0.801200  1
  C  C1015  1  0.010000  0.370100  0.698800  1
  C  C1016  1  0.010000  0.870100  0.198800  1
  C  C1017  1  0.961100  0.000000  0.029200  1.0
  C  C1018  1  0.961100  0.500000  0.529200  1.0
  C  C1019  1  0.038900  0.000000  0.970800  1.0
  C  C1020  1  0.038900  0.500000  0.470800  1.0
  C  C1021  1  0.965900  0.000000  0.958700  1.0
  C  C1022  1  0.965900  0.500000  0.458700  1.0
  C  C1023  1  0.034100  0.000000  0.041300  1.0
  C  C1024  1  0.034100  0.500000  0.541300  1.0
  C  C1025  1  0.807500  0.975200  0.081700  1.0
  C  C1026  1  0.807500  0.475200  0.581700  1.0
  C  C1027  1  0.192500  0.975200  0.918300  1.0
  C  C1028  1  0.192500  0.475200  0.418300  1.0
  C  C1029  1  0.192500  0.024800  0.918300  1.0
  C  C1030  1  0.192500  0.524800  0.418300  1.0
  C  C1031  1  0.807500  0.024800  0.081700  1.0
  C  C1032  1  0.807500  0.524800  0.581700  1.0
  C  C1033  1  0.813000  0.959300  0.045100  1.0
  C  C1034  1  0.813000  0.459300  0.545100  1.0
  C  C1035  1  0.187000  0.959300  0.954900  1.0
  C  C1036  1  0.187000  0.459300  0.454900  1.0
  C  C1037  1  0.187000  0.040700  0.954900  1.0
  C  C1038  1  0.187000  0.540700  0.454900  1.0
  C  C1039  1  0.813000  0.040700  0.045100  1.0
  C  C1040  1  0.813000  0.540700  0.545100  1.0
  C  C1041  1  0.807600  0.910400  0.032600  1.0
  C  C1042  1  0.807600  0.410400  0.532600  1.0
  C  C1043  1  0.192400  0.910400  0.967400  1.0
  C  C1044  1  0.192400  0.410400  0.467400  1.0
  C  C1045  1  0.192400  0.089600  0.967400  1.0
  C  C1046  1  0.192400  0.589600  0.467400  1.0
  C  C1047  1  0.807600  0.089600  0.032600  1.0
  C  C1048  1  0.807600  0.589600  0.532600  1.0
  C  C1049  1  0.811900  0.895100  0.997700  1.0
  C  C1050  1  0.811900  0.395100  0.497700  1.0
  C  C1051  1  0.188100  0.895100  0.002300  1.0
  C  C1052  1  0.188100  0.395100  0.502300  1.0
  C  C1053  1  0.188100  0.104900  0.002300  1.0
  C  C1054  1  0.188100  0.604900  0.502300  1.0
  C  C1055  1  0.811900  0.104900  0.997700  1.0
  C  C1056  1  0.811900  0.604900  0.497700  1.0
  C  C1057  1  0.804000  0.844600  0.983600  1.0
  C  C1058  1  0.804000  0.344600  0.483600  1.0
  C  C1059  1  0.196000  0.844600  0.016400  1.0
  C  C1060  1  0.196000  0.344600  0.516400  1.0
  C  C1061  1  0.196000  0.155400  0.016400  1.0
  C  C1062  1  0.196000  0.655400  0.516400  1.0
  C  C1063  1  0.804000  0.155400  0.983600  1.0
  C  C1064  1  0.804000  0.655400  0.483600  1.0
  C  C1065  1  0.810600  0.844300  0.948300  1.0
  C  C1066  1  0.810600  0.344300  0.448300  1.0
  C  C1067  1  0.189400  0.844300  0.051700  1.0
  C  C1068  1  0.189400  0.344300  0.551700  1.0
  C  C1069  1  0.189400  0.155700  0.051700  1.0
  C  C1070  1  0.189400  0.655700  0.551700  1.0
  C  C1071  1  0.810600  0.155700  0.948300  1.0
  C  C1072  1  0.810600  0.655700  0.448300  1.0
  C  C1073  1  0.819200  0.895400  0.938400  1.0
  C  C1074  1  0.819200  0.395400  0.438400  1.0
  C  C1075  1  0.180800  0.895400  0.061600  1.0
  C  C1076  1  0.180800  0.395400  0.561600  1.0
  C  C1077  1  0.180800  0.104600  0.061600  1.0
  C  C1078  1  0.180800  0.604600  0.561600  1.0
  C  C1079  1  0.819200  0.104600  0.938400  1.0
  C  C1080  1  0.819200  0.604600  0.438400  1.0
  C  C1081  1  0.824800  0.910500  0.903400  1.0
  C  C1082  1  0.824800  0.410500  0.403400  1.0
  C  C1083  1  0.175200  0.910500  0.096600  1.0
  C  C1084  1  0.175200  0.410500  0.596600  1.0
  C  C1085  1  0.175200  0.089500  0.096600  1.0
  C  C1086  1  0.175200  0.589500  0.596600  1.0
  C  C1087  1  0.824800  0.089500  0.903400  1.0
  C  C1088  1  0.824800  0.589500  0.403400  1.0
  C  C1089  1  0.829000  0.959100  0.892700  1.0
  C  C1090  1  0.829000  0.459100  0.392700  1.0
  C  C1091  1  0.171000  0.959100  0.107300  1.0
  C  C1092  1  0.171000  0.459100  0.607300  1.0
  C  C1093  1  0.171000  0.040900  0.107300  1.0
  C  C1094  1  0.171000  0.540900  0.607300  1.0
  C  C1095  1  0.829000  0.040900  0.892700  1.0
  C  C1096  1  0.829000  0.540900  0.392700  1.0
  C  C1097  1  0.833000  0.975120  0.855600  1.0
  C  C1098  1  0.833000  0.475120  0.355600  1.0
  C  C1099  1  0.167000  0.975120  0.144400  1.0
  C  C1100  1  0.167000  0.475120  0.644400  1.0
  C  C1101  1  0.167000  0.024880  0.144400  1.0
  C  C1102  1  0.167000  0.524880  0.644400  1.0
  C  C1103  1  0.833000  0.024880  0.855600  1.0
  C  C1104  1  0.833000  0.524880  0.355600  1.0
  C  C1105  1  0.963750  0.958300  0.976500  1.0
  C  C1106  1  0.963750  0.458300  0.476500  1.0
  C  C1107  1  0.036250  0.958300  0.023500  1.0
  C  C1108  1  0.036250  0.458300  0.523500  1.0
  C  C1109  1  0.036250  0.041700  0.023500  1.0
  C  C1110  1  0.036250  0.541700  0.523500  1.0
  C  C1111  1  0.963750  0.041700  0.976500  1.0
  C  C1112  1  0.963750  0.541700  0.476500  1.0
  C  C1113  1  0.962100  0.958100  0.011100  1.0
  C  C1114  1  0.962100  0.458100  0.511100  1.0
  C  C1115  1  0.037900  0.958100  0.988900  1.0
  C  C1116  1  0.037900  0.458100  0.488900  1.0
  C  C1117  1  0.037900  0.041900  0.988900  1.0
  C  C1118  1  0.037900  0.541900  0.488900  1.0
  C  C1119  1  0.962100  0.041900  0.011100  1.0
  C  C1120  1  0.962100  0.541900  0.511100  1.0
  C  C1121  1  0.793900  0.873200  0.060000  1.0
  C  C1122  1  0.793900  0.373200  0.560000  1.0
  C  C1123  1  0.206100  0.873200  0.940000  1.0
  C  C1124  1  0.206100  0.373200  0.440000  1.0
  C  C1125  1  0.206100  0.126800  0.940000  1.0
  C  C1126  1  0.206100  0.626800  0.440000  1.0
  C  C1127  1  0.793900  0.126800  0.060000  1.0
  C  C1128  1  0.793900  0.626800  0.560000  1.0
  C  C1129  1  0.840500  0.842500  0.078500  1.0
  C  C1130  1  0.840500  0.342500  0.578500  1.0
  C  C1131  1  0.159500  0.842500  0.921500  1.0
  C  C1132  1  0.159500  0.342500  0.421500  1.0
  C  C1133  1  0.159500  0.157500  0.921500  1.0
  C  C1134  1  0.159500  0.657500  0.421500  1.0
  C  C1135  1  0.840500  0.157500  0.078500  1.0
  C  C1136  1  0.840500  0.657500  0.578500  1.0
  C  C1137  1  0.828600  0.809200  0.105000  1.0
  C  C1138  1  0.828600  0.309200  0.605000  1.0
  C  C1139  1  0.171400  0.809200  0.895000  1.0
  C  C1140  1  0.171400  0.309200  0.395000  1.0
  C  C1141  1  0.171400  0.190800  0.895000  1.0
  C  C1142  1  0.171400  0.690800  0.395000  1.0
  C  C1143  1  0.828600  0.190800  0.105000  1.0
  C  C1144  1  0.828600  0.690800  0.605000  1.0
  C  C1145  1  0.769800  0.803200  0.109500  1.0
  C  C1146  1  0.769800  0.303200  0.609500  1.0
  C  C1147  1  0.230200  0.803200  0.890500  1.0
  C  C1148  1  0.230200  0.303200  0.390500  1.0
  C  C1149  1  0.230200  0.196800  0.890500  1.0
  C  C1150  1  0.230200  0.696800  0.390500  1.0
  C  C1151  1  0.769800  0.196800  0.109500  1.0
  C  C1152  1  0.769800  0.696800  0.609500  1.0
  C  C1153  1  0.724000  0.834800  0.090700  1.0
  C  C1154  1  0.724000  0.334800  0.590700  1.0
  C  C1155  1  0.276000  0.834800  0.909300  1.0
  C  C1156  1  0.276000  0.334800  0.409300  1.0
  C  C1157  1  0.276000  0.165200  0.909300  1.0
  C  C1158  1  0.276000  0.665200  0.409300  1.0
  C  C1159  1  0.724000  0.165200  0.090700  1.0
  C  C1160  1  0.724000  0.665200  0.590700  1.0
  C  C1161  1  0.735600  0.869700  0.066000  1.0
  C  C1162  1  0.735600  0.369700  0.566000  1.0
  C  C1163  1  0.264400  0.869700  0.934000  1.0
  C  C1164  1  0.264400  0.369700  0.434000  1.0
  C  C1165  1  0.264400  0.130300  0.934000  1.0
  C  C1166  1  0.264400  0.630300  0.434000  1.0
  C  C1167  1  0.735600  0.130300  0.066000  1.0
  C  C1168  1  0.735600  0.630300  0.566000  1.0
  C  C1169  1  0.905100  0.846800  0.072700  1.0
  C  C1170  1  0.905100  0.346800  0.572700  1.0
  C  C1171  1  0.094900  0.846800  0.927300  1.0
  C  C1172  1  0.094900  0.346800  0.427300  1.0
  C  C1173  1  0.094900  0.153200  0.927300  1.0
  C  C1174  1  0.094900  0.653200  0.427300  1.0
  C  C1175  1  0.905100  0.153200  0.072700  1.0
  C  C1176  1  0.905100  0.653200  0.572700  1.0
  C  C1177  1  0.681900  0.900700  0.046800  1.0
  C  C1178  1  0.681900  0.400700  0.546800  1.0
  C  C1179  1  0.318100  0.900700  0.953200  1.0
  C  C1180  1  0.318100  0.400700  0.453200  1.0
  C  C1181  1  0.318100  0.099300  0.953200  1.0
  C  C1182  1  0.318100  0.599300  0.453200  1.0
  C  C1183  1  0.681900  0.099300  0.046800  1.0
  C  C1184  1  0.681900  0.599300  0.546800  1.0
  C  C1185  1  0.756400  0.768000  0.136980  1.0
  C  C1186  1  0.756400  0.268000  0.636980  1.0
  C  C1187  1  0.243600  0.768000  0.863020  1.0
  C  C1188  1  0.243600  0.268000  0.363020  1.0
  C  C1189  1  0.243600  0.232000  0.863020  1.0
  C  C1190  1  0.243600  0.732000  0.363020  1.0
  C  C1191  1  0.756400  0.232000  0.136980  1.0
  C  C1192  1  0.756400  0.732000  0.636980  1.0
  C  C1193  1  0.785200  0.722500  0.143540  1.0
  C  C1194  1  0.785200  0.222500  0.643540  1.0
  C  C1195  1  0.214800  0.722500  0.856460  1.0
  C  C1196  1  0.214800  0.222500  0.356460  1.0
  C  C1197  1  0.214800  0.277500  0.856460  1.0
  C  C1198  1  0.214800  0.777500  0.356460  1.0
  C  C1199  1  0.785200  0.277500  0.143540  1.0
  C  C1200  1  0.785200  0.777500  0.643540  1.0
  C  C1201  1  0.727000  0.704000  0.189130  1.0
  C  C1202  1  0.727000  0.204000  0.689130  1.0
  C  C1203  1  0.273000  0.704000  0.810870  1.0
  C  C1204  1  0.273000  0.204000  0.310870  1.0
  C  C1205  1  0.273000  0.296000  0.810870  1.0
  C  C1206  1  0.273000  0.796000  0.310870  1.0
  C  C1207  1  0.727000  0.296000  0.189130  1.0
  C  C1208  1  0.727000  0.796000  0.689130  1.0
  C  C1209  1  0.698200  0.749600  0.182600  1.0
  C  C1210  1  0.698200  0.249600  0.682600  1.0
  C  C1211  1  0.301800  0.749600  0.817400  1.0
  C  C1212  1  0.301800  0.249600  0.317400  1.0
  C  C1213  1  0.301800  0.250400  0.817400  1.0
  C  C1214  1  0.301800  0.750400  0.317400  1.0
  C  C1215  1  0.698200  0.250400  0.182600  1.0
  C  C1216  1  0.698200  0.750400  0.682600  1.0
  C  C1217  1  0.712900  0.781600  0.156500  1.0
  C  C1218  1  0.712900  0.281600  0.656500  1.0
  C  C1219  1  0.287100  0.781600  0.843500  1.0
  C  C1220  1  0.287100  0.281600  0.343500  1.0
  C  C1221  1  0.287100  0.218400  0.843500  1.0
  C  C1222  1  0.287100  0.718400  0.343500  1.0
  C  C1223  1  0.712900  0.218400  0.156500  1.0
  C  C1224  1  0.712900  0.718400  0.656500  1.0
  C  C1225  1  0.821500  0.870700  0.873400  1.0
  C  C1226  1  0.821500  0.370700  0.373400  1.0
  C  C1227  1  0.178500  0.870700  0.126600  1.0
  C  C1228  1  0.178500  0.370700  0.626600  1.0
  C  C1229  1  0.178500  0.129300  0.126600  1.0
  C  C1230  1  0.178500  0.629300  0.626600  1.0
  C  C1231  1  0.821500  0.129300  0.873400  1.0
  C  C1232  1  0.821500  0.629300  0.373400  1.0
  C  C1233  1  0.874500  0.845800  0.871600  1.0
  C  C1234  1  0.874500  0.345800  0.371600  1.0
  C  C1235  1  0.125500  0.845800  0.128400  1.0
  C  C1236  1  0.125500  0.345800  0.628400  1.0
  C  C1237  1  0.125500  0.154200  0.128400  1.0
  C  C1238  1  0.125500  0.654200  0.628400  1.0
  C  C1239  1  0.874500  0.154200  0.871600  1.0
  C  C1240  1  0.874500  0.654200  0.371600  1.0
  C  C1241  1  0.871700  0.809000  0.844900  1.0
  C  C1242  1  0.871700  0.309000  0.344900  1.0
  C  C1243  1  0.128300  0.809000  0.155100  1.0
  C  C1244  1  0.128300  0.309000  0.655100  1.0
  C  C1245  1  0.128300  0.191000  0.155100  1.0
  C  C1246  1  0.128300  0.691000  0.655100  1.0
  C  C1247  1  0.871700  0.191000  0.844900  1.0
  C  C1248  1  0.871700  0.691000  0.344900  1.0
  C  C1249  1  0.816800  0.795300  0.822100  1.0
  C  C1250  1  0.816800  0.295300  0.322100  1.0
  C  C1251  1  0.183200  0.795300  0.177900  1.0
  C  C1252  1  0.183200  0.295300  0.677900  1.0
  C  C1253  1  0.183200  0.204700  0.177900  1.0
  C  C1254  1  0.183200  0.704700  0.677900  1.0
  C  C1255  1  0.816800  0.204700  0.822100  1.0
  C  C1256  1  0.816800  0.704700  0.322100  1.0
  C  C1257  1  0.765600  0.820600  0.825300  1.0
  C  C1258  1  0.765600  0.320600  0.325300  1.0
  C  C1259  1  0.234400  0.820600  0.174700  1.0
  C  C1260  1  0.234400  0.320600  0.674700  1.0
  C  C1261  1  0.234400  0.179400  0.174700  1.0
  C  C1262  1  0.234400  0.679400  0.674700  1.0
  C  C1263  1  0.765600  0.179400  0.825300  1.0
  C  C1264  1  0.765600  0.679400  0.325300  1.0
  C  C1265  1  0.767000  0.858900  0.849900  1.0
  C  C1266  1  0.767000  0.358900  0.349900  1.0
  C  C1267  1  0.233000  0.858900  0.150100  1.0
  C  C1268  1  0.233000  0.358900  0.650100  1.0
  C  C1269  1  0.233000  0.141100  0.150100  1.0
  C  C1270  1  0.233000  0.641100  0.650100  1.0
  C  C1271  1  0.767000  0.141100  0.849900  1.0
  C  C1272  1  0.767000  0.641100  0.349900  1.0
  C  C1273  1  0.933100  0.854600  0.901400  1.0
  C  C1274  1  0.933100  0.354600  0.401400  1.0
  C  C1275  1  0.066900  0.854600  0.098600  1.0
  C  C1276  1  0.066900  0.354600  0.598600  1.0
  C  C1277  1  0.066900  0.145400  0.098600  1.0
  C  C1278  1  0.066900  0.645400  0.598600  1.0
  C  C1279  1  0.933100  0.145400  0.901400  1.0
  C  C1280  1  0.933100  0.645400  0.401400  1.0
  C  C1281  1  0.709500  0.887400  0.850200  1.0
  C  C1282  1  0.709500  0.387400  0.350200  1.0
  C  C1283  1  0.290500  0.887400  0.149800  1.0
  C  C1284  1  0.290500  0.387400  0.649800  1.0
  C  C1285  1  0.290500  0.112600  0.149800  1.0
  C  C1286  1  0.290500  0.612600  0.649800  1.0
  C  C1287  1  0.709500  0.112600  0.850200  1.0
  C  C1288  1  0.709500  0.612600  0.350200  1.0
  C  C1289  1  0.815600  0.756000  0.794150  1.0
  C  C1290  1  0.815600  0.256000  0.294150  1.0
  C  C1291  1  0.184400  0.756000  0.205850  1.0
  C  C1292  1  0.184400  0.256000  0.705850  1.0
  C  C1293  1  0.184400  0.244000  0.205850  1.0
  C  C1294  1  0.184400  0.744000  0.705850  1.0
  C  C1295  1  0.815600  0.244000  0.794150  1.0
  C  C1296  1  0.815600  0.744000  0.294150  1.0
  C  C1297  1  0.862500  0.750200  0.775700  1.0
  C  C1298  1  0.862500  0.250200  0.275700  1.0
  C  C1299  1  0.137500  0.750200  0.224300  1.0
  C  C1300  1  0.137500  0.250200  0.724300  1.0
  C  C1301  1  0.137500  0.249800  0.224300  1.0
  C  C1302  1  0.137500  0.749800  0.724300  1.0
  C  C1303  1  0.862500  0.249800  0.775700  1.0
  C  C1304  1  0.862500  0.749800  0.275700  1.0
  C  C1305  1  0.809900  0.680600  0.742390  1.0
  C  C1306  1  0.809900  0.180600  0.242390  1.0
  C  C1307  1  0.190100  0.680600  0.257610  1.0
  C  C1308  1  0.190100  0.180600  0.757610  1.0
  C  C1309  1  0.190100  0.319400  0.257610  1.0
  C  C1310  1  0.190100  0.819400  0.757610  1.0
  C  C1311  1  0.809900  0.319400  0.742390  1.0
  C  C1312  1  0.809900  0.819400  0.242390  1.0
  C  C1313  1  0.763000  0.686500  0.760900  1.0
  C  C1314  1  0.763000  0.186500  0.260900  1.0
  C  C1315  1  0.237000  0.686500  0.239100  1.0
  C  C1316  1  0.237000  0.186500  0.739100  1.0
  C  C1317  1  0.237000  0.313500  0.239100  1.0
  C  C1318  1  0.237000  0.813500  0.739100  1.0
  C  C1319  1  0.763000  0.313500  0.760900  1.0
  C  C1320  1  0.763000  0.813500  0.260900  1.0
  C  C1321  1  0.765800  0.724200  0.786700  1.0
  C  C1322  1  0.765800  0.224200  0.286700  1.0
  C  C1323  1  0.234200  0.724200  0.213300  1.0
  C  C1324  1  0.234200  0.224200  0.713300  1.0
  C  C1325  1  0.234200  0.275800  0.213300  1.0
  C  C1326  1  0.234200  0.775800  0.713300  1.0
  C  C1327  1  0.765800  0.275800  0.786700  1.0
  C  C1328  1  0.765800  0.775800  0.286700  1.0
  C  C1329  1  0.709200  0.588300  0.234800  1.0
  C  C1330  1  0.709200  0.088300  0.734800  1.0
  C  C1331  1  0.290800  0.588300  0.765200  1.0
  C  C1332  1  0.290800  0.088300  0.265200  1.0
  C  C1333  1  0.290800  0.411700  0.765200  1.0
  C  C1334  1  0.290800  0.911700  0.265200  1.0
  C  C1335  1  0.709200  0.411700  0.234800  1.0
  C  C1336  1  0.709200  0.911700  0.734800  1.0
  C  C1337  1  0.759200  0.556900  0.249400  1.0
  C  C1338  1  0.759200  0.056900  0.749400  1.0
  C  C1339  1  0.240800  0.556900  0.750600  1.0
  C  C1340  1  0.240800  0.056900  0.250600  1.0
  C  C1341  1  0.240800  0.443100  0.750600  1.0
  C  C1342  1  0.240800  0.943100  0.250600  1.0
  C  C1343  1  0.759200  0.443100  0.249400  1.0
  C  C1344  1  0.759200  0.943100  0.749400  1.0
  C  C1345  1  0.864600  0.555200  0.254600  1.0
  C  C1346  1  0.864600  0.055200  0.754600  1.0
  C  C1347  1  0.135400  0.555200  0.745400  1.0
  C  C1348  1  0.135400  0.055200  0.245400  1.0
  C  C1349  1  0.135400  0.444800  0.745400  1.0
  C  C1350  1  0.135400  0.944800  0.245400  1.0
  C  C1351  1  0.864600  0.444800  0.254600  1.0
  C  C1352  1  0.864600  0.944800  0.754600  1.0
  C  C1353  1  0.895100  0.595300  0.238200  1.0
  C  C1354  1  0.895100  0.095300  0.738200  1.0
  C  C1355  1  0.104900  0.595300  0.761800  1.0
  C  C1356  1  0.104900  0.095300  0.261800  1.0
  C  C1357  1  0.104900  0.404700  0.761800  1.0
  C  C1358  1  0.104900  0.904700  0.261800  1.0
  C  C1359  1  0.895100  0.404700  0.238200  1.0
  C  C1360  1  0.895100  0.904700  0.738200  1.0
  C  C1361  1  0.857500  0.606200  0.674100  1.0
  C  C1362  1  0.857500  0.106200  0.174100  1.0
  C  C1363  1  0.142500  0.606200  0.325900  1.0
  C  C1364  1  0.142500  0.106200  0.825900  1.0
  C  C1365  1  0.142500  0.393800  0.325900  1.0
  C  C1366  1  0.142500  0.893800  0.825900  1.0
  C  C1367  1  0.857500  0.393800  0.674100  1.0
  C  C1368  1  0.857500  0.893800  0.174100  1.0
  C  C1369  1  0.912600  0.578700  0.680900  1.0
  C  C1370  1  0.912600  0.078700  0.180900  1.0
  C  C1371  1  0.087400  0.578700  0.319100  1.0
  C  C1372  1  0.087400  0.078700  0.819100  1.0
  C  C1373  1  0.087400  0.421300  0.319100  1.0
  C  C1374  1  0.087400  0.921300  0.819100  1.0
  C  C1375  1  0.912600  0.421300  0.680900  1.0
  C  C1376  1  0.912600  0.921300  0.180900  1.0
  C  C1377  1  0.998300  0.570900  0.730000  1.0
  C  C1378  1  0.998300  0.070900  0.230000  1.0
  C  C1379  1  0.001700  0.570900  0.270000  1.0
  C  C1380  1  0.001700  0.070900  0.770000  1.0
  C  C1381  1  0.001700  0.429100  0.270000  1.0
  C  C1382  1  0.001700  0.929100  0.770000  1.0
  C  C1383  1  0.998300  0.429100  0.730000  1.0
  C  C1384  1  0.998300  0.929100  0.230000  1.0
  C  C1385  1  0.954900  0.604100  0.246900  1.0
  C  C1386  1  0.954900  0.104100  0.746900  1.0
  C  C1387  1  0.045100  0.604100  0.753100  1.0
  C  C1388  1  0.045100  0.104100  0.253100  1.0
  C  C1389  1  0.045100  0.395900  0.753100  1.0
  C  C1390  1  0.045100  0.895900  0.253100  1.0
  C  C1391  1  0.954900  0.395900  0.246900  1.0
  C  C1392  1  0.954900  0.895900  0.746900  1.0
  C  C1393  1  0.356500  0.653000  0.056900  1.0
  C  C1394  1  0.356500  0.153000  0.556900  1.0
  C  C1395  1  0.643500  0.653000  0.943100  1.0
  C  C1396  1  0.643500  0.153000  0.443100  1.0
  C  C1397  1  0.643500  0.347000  0.943100  1.0
  C  C1398  1  0.643500  0.847000  0.443100  1.0
  C  C1399  1  0.356500  0.347000  0.056900  1.0
  C  C1400  1  0.356500  0.847000  0.556900  1.0
  C  C1401  1  0.380000  0.645600  0.023500  1.0
  C  C1402  1  0.380000  0.145600  0.523500  1.0
  C  C1403  1  0.620000  0.645600  0.976500  1.0
  C  C1404  1  0.620000  0.145600  0.476500  1.0
  C  C1405  1  0.620000  0.354400  0.976500  1.0
  C  C1406  1  0.620000  0.854400  0.476500  1.0
  C  C1407  1  0.380000  0.354400  0.023500  1.0
  C  C1408  1  0.380000  0.854400  0.523500  1.0
  C  C1409  1  0.344400  0.645600  0.987300  1.0
  C  C1410  1  0.344400  0.145600  0.487300  1.0
  C  C1411  1  0.655600  0.645600  0.012700  1.0
  C  C1412  1  0.655600  0.145600  0.512700  1.0
  C  C1413  1  0.655600  0.354400  0.012700  1.0
  C  C1414  1  0.655600  0.854400  0.512700  1.0
  C  C1415  1  0.344400  0.354400  0.987300  1.0
  C  C1416  1  0.344400  0.854400  0.487300  1.0
  C  C1417  1  0.367400  0.643200  0.955400  1.0
  C  C1418  1  0.367400  0.143200  0.455400  1.0
  C  C1419  1  0.632600  0.643200  0.044600  1.0
  C  C1420  1  0.632600  0.143200  0.544600  1.0
  C  C1421  1  0.632600  0.356800  0.044600  1.0
  C  C1422  1  0.632600  0.856800  0.544600  1.0
  C  C1423  1  0.367400  0.356800  0.955400  1.0
  C  C1424  1  0.367400  0.856800  0.455400  1.0
  C  C1425  1  0.331100  0.645500  0.917100  1.0
  C  C1426  1  0.331100  0.145500  0.417100  1.0
  C  C1427  1  0.668900  0.645500  0.082900  1.0
  C  C1428  1  0.668900  0.145500  0.582900  1.0
  C  C1429  1  0.668900  0.354500  0.082900  1.0
  C  C1430  1  0.668900  0.854500  0.582900  1.0
  C  C1431  1  0.331100  0.354500  0.917100  1.0
  C  C1432  1  0.331100  0.854500  0.417100  1.0
  C  C1433  1  0.368900  0.648100  0.896500  1.0
  C  C1434  1  0.368900  0.148100  0.396500  1.0
  C  C1435  1  0.631100  0.648100  0.103500  1.0
  C  C1436  1  0.631100  0.148100  0.603500  1.0
  C  C1437  1  0.631100  0.351900  0.103500  1.0
  C  C1438  1  0.631100  0.851900  0.603500  1.0
  C  C1439  1  0.368900  0.351900  0.896500  1.0
  C  C1440  1  0.368900  0.851900  0.396500  1.0
  C  C1441  1  0.432200  0.645600  0.918000  1.0
  C  C1442  1  0.432200  0.145600  0.418000  1.0
  C  C1443  1  0.567800  0.645600  0.082000  1.0
  C  C1444  1  0.567800  0.145600  0.582000  1.0
  C  C1445  1  0.567800  0.354400  0.082000  1.0
  C  C1446  1  0.567800  0.854400  0.582000  1.0
  C  C1447  1  0.432200  0.354400  0.918000  1.0
  C  C1448  1  0.432200  0.854400  0.418000  1.0
  C  C1449  1  0.485400  0.647200  0.905000  1.0
  C  C1450  1  0.485400  0.147200  0.405000  1.0
  C  C1451  1  0.514600  0.647200  0.095000  1.0
  C  C1452  1  0.514600  0.147200  0.595000  1.0
  C  C1453  1  0.514600  0.352800  0.095000  1.0
  C  C1454  1  0.514600  0.852800  0.595000  1.0
  C  C1455  1  0.485400  0.352800  0.905000  1.0
  C  C1456  1  0.485400  0.852800  0.405000  1.0
  C  C1457  1  0.543800  0.648600  0.927400  1.0
  C  C1458  1  0.543800  0.148600  0.427400  1.0
  C  C1459  1  0.456200  0.648600  0.072600  1.0
  C  C1460  1  0.456200  0.148600  0.572600  1.0
  C  C1461  1  0.456200  0.351400  0.072600  1.0
  C  C1462  1  0.456200  0.851400  0.572600  1.0
  C  C1463  1  0.543800  0.351400  0.927400  1.0
  C  C1464  1  0.543800  0.851400  0.427400  1.0
  C  C1465  1  0.401700  0.652200  0.088100  1.0
  C  C1466  1  0.401700  0.152200  0.588100  1.0
  C  C1467  1  0.598300  0.652200  0.911900  1.0
  C  C1468  1  0.598300  0.152200  0.411900  1.0
  C  C1469  1  0.598300  0.347800  0.911900  1.0
  C  C1470  1  0.598300  0.847800  0.411900  1.0
  C  C1471  1  0.401700  0.347800  0.088100  1.0
  C  C1472  1  0.401700  0.847800  0.588100  1.0
  C  C1473  1  0.468300  0.529100  0.965300  1.0
  C  C1474  1  0.468300  0.029100  0.465300  1.0
  C  C1475  1  0.531700  0.529100  0.034700  1.0
  C  C1476  1  0.531700  0.029100  0.534700  1.0
  C  C1477  1  0.531700  0.470900  0.034700  1.0
  C  C1478  1  0.531700  0.970900  0.534700  1.0
  C  C1479  1  0.468300  0.470900  0.965300  1.0
  C  C1480  1  0.468300  0.970900  0.465300  1.0
  C  C1481  1  0.559500  0.529400  0.006800  1.0
  C  C1482  1  0.559500  0.029400  0.506800  1.0
  C  C1483  1  0.440500  0.529400  0.993200  1.0
  C  C1484  1  0.440500  0.029400  0.493200  1.0
  C  C1485  1  0.440500  0.470600  0.993200  1.0
  C  C1486  1  0.440500  0.970600  0.493200  1.0
  C  C1487  1  0.559500  0.470600  0.006800  1.0
  C  C1488  1  0.559500  0.970600  0.506800  1.0
  C  C1489  1  0.472500  0.528900  0.027700  1.0
  C  C1490  1  0.472500  0.028900  0.527700  1.0
  C  C1491  1  0.527500  0.528900  0.972300  1.0
  C  C1492  1  0.527500  0.028900  0.472300  1.0
  C  C1493  1  0.527500  0.471100  0.972300  1.0
  C  C1494  1  0.527500  0.971100  0.472300  1.0
  C  C1495  1  0.472500  0.471100  0.027700  1.0
  C  C1496  1  0.472500  0.971100  0.527700  1.0
  C  C1497  1  0.275600  0.653400  0.980900  1.0
  C  C1498  1  0.275600  0.153400  0.480900  1.0
  C  C1499  1  0.724400  0.653400  0.019100  1.0
  C  C1500  1  0.724400  0.153400  0.519100  1.0
  C  C1501  1  0.724400  0.346600  0.019100  1.0
  C  C1502  1  0.724400  0.846600  0.519100  1.0
  C  C1503  1  0.275600  0.346600  0.980900  1.0
  C  C1504  1  0.275600  0.846600  0.480900  1.0
  C  C1505  1  0.236500  0.613500  0.979600  1.0
  C  C1506  1  0.236500  0.113500  0.479600  1.0
  C  C1507  1  0.763500  0.613500  0.020400  1.0
  C  C1508  1  0.763500  0.113500  0.520400  1.0
  C  C1509  1  0.763500  0.386500  0.020400  1.0
  C  C1510  1  0.763500  0.886500  0.520400  1.0
  C  C1511  1  0.236500  0.386500  0.979600  1.0
  C  C1512  1  0.236500  0.886500  0.479600  1.0
  C  C1513  1  0.172900  0.620900  0.970100  1.0
  C  C1514  1  0.172900  0.120900  0.470100  1.0
  C  C1515  1  0.827100  0.620900  0.029900  1.0
  C  C1516  1  0.827100  0.120900  0.529900  1.0
  C  C1517  1  0.827100  0.379100  0.029900  1.0
  C  C1518  1  0.827100  0.879100  0.529900  1.0
  C  C1519  1  0.172900  0.379100  0.970100  1.0
  C  C1520  1  0.172900  0.879100  0.470100  1.0
  C  C1521  1  0.149600  0.668700  0.963900  1.0
  C  C1522  1  0.149600  0.168700  0.463900  1.0
  C  C1523  1  0.850400  0.668700  0.036100  1.0
  C  C1524  1  0.850400  0.168700  0.536100  1.0
  C  C1525  1  0.850400  0.331300  0.036100  1.0
  C  C1526  1  0.850400  0.831300  0.536100  1.0
  C  C1527  1  0.149600  0.331300  0.963900  1.0
  C  C1528  1  0.149600  0.831300  0.463900  1.0
  C  C1529  1  0.189100  0.706900  0.966000  1.0
  C  C1530  1  0.189100  0.206900  0.466000  1.0
  C  C1531  1  0.810900  0.706900  0.034000  1.0
  C  C1532  1  0.810900  0.206900  0.534000  1.0
  C  C1533  1  0.810900  0.293100  0.034000  1.0
  C  C1534  1  0.810900  0.793100  0.534000  1.0
  C  C1535  1  0.189100  0.293100  0.966000  1.0
  C  C1536  1  0.189100  0.793100  0.466000  1.0
  C  C1537  1  0.252300  0.700200  0.975700  1.0
  C  C1538  1  0.252300  0.200200  0.475700  1.0
  C  C1539  1  0.747700  0.700200  0.024300  1.0
  C  C1540  1  0.747700  0.200200  0.524300  1.0
  C  C1541  1  0.747700  0.299800  0.024300  1.0
  C  C1542  1  0.747700  0.799800  0.524300  1.0
  C  C1543  1  0.252300  0.299800  0.975700  1.0
  C  C1544  1  0.252300  0.799800  0.475700  1.0
  C  C1545  1  0.261600  0.561900  0.982200  1.0
  C  C1546  1  0.261600  0.061900  0.482200  1.0
  C  C1547  1  0.738400  0.561900  0.017800  1.0
  C  C1548  1  0.738400  0.061900  0.517800  1.0
  C  C1549  1  0.738400  0.438100  0.017800  1.0
  C  C1550  1  0.738400  0.938100  0.517800  1.0
  C  C1551  1  0.261600  0.438100  0.982200  1.0
  C  C1552  1  0.261600  0.938100  0.482200  1.0
  C  C1553  1  0.294800  0.743500  0.978000  1.0
  C  C1554  1  0.294800  0.243500  0.478000  1.0
  C  C1555  1  0.705200  0.743500  0.022000  1.0
  C  C1556  1  0.705200  0.243500  0.522000  1.0
  C  C1557  1  0.705200  0.256500  0.022000  1.0
  C  C1558  1  0.705200  0.756500  0.522000  1.0
  C  C1559  1  0.294800  0.256500  0.978000  1.0
  C  C1560  1  0.294800  0.756500  0.478000  1.0
  C  C1561  1  0.083100  0.678000  0.955800  1.0
  C  C1562  1  0.083100  0.178000  0.455800  1.0
  C  C1563  1  0.916900  0.678000  0.044200  1.0
  C  C1564  1  0.916900  0.178000  0.544200  1.0
  C  C1565  1  0.916900  0.322000  0.044200  1.0
  C  C1566  1  0.916900  0.822000  0.544200  1.0
  C  C1567  1  0.083100  0.322000  0.955800  1.0
  C  C1568  1  0.083100  0.822000  0.455800  1.0
  C  C1569  1  0.041400  0.642300  0.939000  1.0
  C  C1570  1  0.041400  0.142300  0.439000  1.0
  C  C1571  1  0.958600  0.642300  0.061000  1.0
  C  C1572  1  0.958600  0.142300  0.561000  1.0
  C  C1573  1  0.958600  0.357700  0.061000  1.0
  C  C1574  1  0.958600  0.857700  0.561000  1.0
  C  C1575  1  0.041400  0.357700  0.939000  1.0
  C  C1576  1  0.041400  0.857700  0.439000  1.0
  C  C1577  1  0.958600  0.698100  0.940200  1.0
  C  C1578  1  0.958600  0.198100  0.440200  1.0
  C  C1579  1  0.041400  0.698100  0.059800  1.0
  C  C1580  1  0.041400  0.198100  0.559800  1.0
  C  C1581  1  0.041400  0.301900  0.059800  1.0
  C  C1582  1  0.041400  0.801900  0.559800  1.0
  C  C1583  1  0.958600  0.301900  0.940200  1.0
  C  C1584  1  0.958600  0.801900  0.440200  1.0
  C  C1585  1  0.000300  0.733800  0.956900  1.0
  C  C1586  1  0.000300  0.233800  0.456900  1.0
  C  C1587  1  0.999700  0.733800  0.043100  1.0
  C  C1588  1  0.999700  0.233800  0.543100  1.0
  C  C1589  1  0.999700  0.266200  0.043100  1.0
  C  C1590  1  0.999700  0.766200  0.543100  1.0
  C  C1591  1  0.000300  0.266200  0.956900  1.0
  C  C1592  1  0.000300  0.766200  0.456900  1.0
  C  C1593  1  0.062600  0.723700  0.964700  1.0
  C  C1594  1  0.062600  0.223700  0.464700  1.0
  C  C1595  1  0.937400  0.723700  0.035300  1.0
  C  C1596  1  0.937400  0.223700  0.535300  1.0
  C  C1597  1  0.937400  0.276300  0.035300  1.0
  C  C1598  1  0.937400  0.776300  0.535300  1.0
  C  C1599  1  0.062600  0.276300  0.964700  1.0
  C  C1600  1  0.062600  0.776300  0.464700  1.0
  C  C1601  1  0.477400  0.658600  0.864400  1.0
  C  C1602  1  0.477400  0.158600  0.364400  1.0
  C  C1603  1  0.522600  0.658600  0.135600  1.0
  C  C1604  1  0.522600  0.158600  0.635600  1.0
  C  C1605  1  0.522600  0.341400  0.135600  1.0
  C  C1606  1  0.522600  0.841400  0.635600  1.0
  C  C1607  1  0.477400  0.341400  0.864400  1.0
  C  C1608  1  0.477400  0.841400  0.364400  1.0
  C  C1609  1  0.478900  0.619600  0.839700  1.0
  C  C1610  1  0.478900  0.119600  0.339700  1.0
  C  C1611  1  0.521100  0.619600  0.160300  1.0
  C  C1612  1  0.521100  0.119600  0.660300  1.0
  C  C1613  1  0.521100  0.380400  0.160300  1.0
  C  C1614  1  0.521100  0.880400  0.660300  1.0
  C  C1615  1  0.478900  0.380400  0.839700  1.0
  C  C1616  1  0.478900  0.880400  0.339700  1.0
  C  C1617  1  0.466800  0.628400  0.801000  1.0
  C  C1618  1  0.466800  0.128400  0.301000  1.0
  C  C1619  1  0.533200  0.628400  0.199000  1.0
  C  C1620  1  0.533200  0.128400  0.699000  1.0
  C  C1621  1  0.533200  0.371600  0.199000  1.0
  C  C1622  1  0.533200  0.871600  0.699000  1.0
  C  C1623  1  0.466800  0.371600  0.801000  1.0
  C  C1624  1  0.466800  0.871600  0.301000  1.0
  C  C1625  1  0.461100  0.676700  0.787100  1.0
  C  C1626  1  0.461100  0.176700  0.287100  1.0
  C  C1627  1  0.538900  0.676700  0.212900  1.0
  C  C1628  1  0.538900  0.176700  0.712900  1.0
  C  C1629  1  0.538900  0.323300  0.212900  1.0
  C  C1630  1  0.538900  0.823300  0.712900  1.0
  C  C1631  1  0.461100  0.323300  0.787100  1.0
  C  C1632  1  0.461100  0.823300  0.287100  1.0
  C  C1633  1  0.459200  0.714800  0.812300  1.0
  C  C1634  1  0.459200  0.214800  0.312300  1.0
  C  C1635  1  0.540800  0.714800  0.187700  1.0
  C  C1636  1  0.540800  0.214800  0.687700  1.0
  C  C1637  1  0.540800  0.285200  0.187700  1.0
  C  C1638  1  0.540800  0.785200  0.687700  1.0
  C  C1639  1  0.459200  0.285200  0.812300  1.0
  C  C1640  1  0.459200  0.785200  0.312300  1.0
  C  C1641  1  0.468200  0.706500  0.850200  1.0
  C  C1642  1  0.468200  0.206500  0.350200  1.0
  C  C1643  1  0.531800  0.706500  0.149800  1.0
  C  C1644  1  0.531800  0.206500  0.649800  1.0
  C  C1645  1  0.531800  0.293500  0.149800  1.0
  C  C1646  1  0.531800  0.793500  0.649800  1.0
  C  C1647  1  0.468200  0.293500  0.850200  1.0
  C  C1648  1  0.468200  0.793500  0.350200  1.0
  C  C1649  1  0.482900  0.567200  0.853300  1.0
  C  C1650  1  0.482900  0.067200  0.353300  1.0
  C  C1651  1  0.517100  0.567200  0.146700  1.0
  C  C1652  1  0.517100  0.067200  0.646700  1.0
  C  C1653  1  0.517100  0.432800  0.146700  1.0
  C  C1654  1  0.517100  0.932800  0.646700  1.0
  C  C1655  1  0.482900  0.432800  0.853300  1.0
  C  C1656  1  0.482900  0.932800  0.353300  1.0
  C  C1657  1  0.463500  0.748700  0.876100  1.0
  C  C1658  1  0.463500  0.248700  0.376100  1.0
  C  C1659  1  0.536500  0.748700  0.123900  1.0
  C  C1660  1  0.536500  0.248700  0.623900  1.0
  C  C1661  1  0.536500  0.251300  0.123900  1.0
  C  C1662  1  0.536500  0.751300  0.623900  1.0
  C  C1663  1  0.463500  0.251300  0.876100  1.0
  C  C1664  1  0.463500  0.751300  0.376100  1.0
  C  C1665  1  0.444600  0.684800  0.746580  1.0
  C  C1666  1  0.444600  0.184800  0.246580  1.0
  C  C1667  1  0.555400  0.684800  0.253420  1.0
  C  C1668  1  0.555400  0.184800  0.753420  1.0
  C  C1669  1  0.555400  0.315200  0.253420  1.0
  C  C1670  1  0.555400  0.815200  0.753420  1.0
  C  C1671  1  0.444600  0.315200  0.746580  1.0
  C  C1672  1  0.444600  0.815200  0.246580  1.0
  C  C1673  1  0.466300  0.655400  0.721500  1.0
  C  C1674  1  0.466300  0.155400  0.221500  1.0
  C  C1675  1  0.533700  0.655400  0.278500  1.0
  C  C1676  1  0.533700  0.155400  0.778500  1.0
  C  C1677  1  0.533700  0.344600  0.278500  1.0
  C  C1678  1  0.533700  0.844600  0.778500  1.0
  C  C1679  1  0.466300  0.344600  0.721500  1.0
  C  C1680  1  0.466300  0.844600  0.221500  1.0
  C  C1681  1  0.411000  0.705100  0.670630  1.0
  C  C1682  1  0.411000  0.205100  0.170630  1.0
  C  C1683  1  0.589000  0.705100  0.329370  1.0
  C  C1684  1  0.589000  0.205100  0.829370  1.0
  C  C1685  1  0.589000  0.294900  0.329370  1.0
  C  C1686  1  0.589000  0.794900  0.829370  1.0
  C  C1687  1  0.411000  0.294900  0.670630  1.0
  C  C1688  1  0.411000  0.794900  0.170630  1.0
  C  C1689  1  0.389300  0.734400  0.695700  1.0
  C  C1690  1  0.389300  0.234400  0.195700  1.0
  C  C1691  1  0.610700  0.734400  0.304300  1.0
  C  C1692  1  0.610700  0.234400  0.804300  1.0
  C  C1693  1  0.610700  0.265600  0.304300  1.0
  C  C1694  1  0.610700  0.765600  0.804300  1.0
  C  C1695  1  0.389300  0.265600  0.695700  1.0
  C  C1696  1  0.389300  0.765600  0.195700  1.0
  C  C1697  1  0.406100  0.724300  0.733700  1.0
  C  C1698  1  0.406100  0.224300  0.233700  1.0
  C  C1699  1  0.593900  0.724300  0.266300  1.0
  C  C1700  1  0.593900  0.224300  0.766300  1.0
  C  C1701  1  0.593900  0.275700  0.266300  1.0
  C  C1702  1  0.593900  0.775700  0.766300  1.0
  C  C1703  1  0.406100  0.275700  0.733700  1.0
  C  C1704  1  0.406100  0.775700  0.233700  1.0
  C  C1705  1  0.891500  0.706800  0.935400  1.0
  C  C1706  1  0.891500  0.206800  0.435400  1.0
  C  C1707  1  0.108500  0.706800  0.064600  1.0
  C  C1708  1  0.108500  0.206800  0.564600  1.0
  C  C1709  1  0.108500  0.293200  0.064600  1.0
  C  C1710  1  0.108500  0.793200  0.564600  1.0
  C  C1711  1  0.891500  0.293200  0.935400  1.0
  C  C1712  1  0.891500  0.793200  0.435400  1.0
  C  C1713  1  0.794900  0.685300  0.900700  1.0
  C  C1714  1  0.794900  0.185300  0.400700  1.0
  C  C1715  1  0.205100  0.685300  0.099300  1.0
  C  C1716  1  0.205100  0.185300  0.599300  1.0
  C  C1717  1  0.205100  0.314700  0.099300  1.0
  C  C1718  1  0.205100  0.814700  0.599300  1.0
  C  C1719  1  0.794900  0.314700  0.900700  1.0
  C  C1720  1  0.794900  0.814700  0.400700  1.0
  C  C1721  1  0.762000  0.644700  0.881500  1.0
  C  C1722  1  0.762000  0.144700  0.381500  1.0
  C  C1723  1  0.238000  0.644700  0.118500  1.0
  C  C1724  1  0.238000  0.144700  0.618500  1.0
  C  C1725  1  0.238000  0.355300  0.118500  1.0
  C  C1726  1  0.238000  0.855300  0.618500  1.0
  C  C1727  1  0.762000  0.355300  0.881500  1.0
  C  C1728  1  0.762000  0.855300  0.381500  1.0
  C  C1729  1  0.773500  0.561200  0.910500  1.0
  C  C1730  1  0.773500  0.061200  0.410500  1.0
  C  C1731  1  0.226500  0.561200  0.089500  1.0
  C  C1732  1  0.226500  0.061200  0.589500  1.0
  C  C1733  1  0.226500  0.438800  0.089500  1.0
  C  C1734  1  0.226500  0.938800  0.589500  1.0
  C  C1735  1  0.773500  0.438800  0.910500  1.0
  C  C1736  1  0.773500  0.938800  0.410500  1.0
  C  C1737  1  0.739900  0.524490  0.883800  1.0
  C  C1738  1  0.739900  0.024490  0.383800  1.0
  C  C1739  1  0.260100  0.524490  0.116200  1.0
  C  C1740  1  0.260100  0.024490  0.616200  1.0
  C  C1741  1  0.260100  0.475510  0.116200  1.0
  C  C1742  1  0.260100  0.975510  0.616200  1.0
  C  C1743  1  0.739900  0.475510  0.883800  1.0
  C  C1744  1  0.739900  0.975510  0.383800  1.0
  C  C1745  1  0.384600  0.712500  0.629600  1.0
  C  C1746  1  0.384600  0.212500  0.129600  1.0
  C  C1747  1  0.615400  0.712500  0.370400  1.0
  C  C1748  1  0.615400  0.212500  0.870400  1.0
  C  C1749  1  0.615400  0.287500  0.370400  1.0
  C  C1750  1  0.615400  0.787500  0.870400  1.0
  C  C1751  1  0.384600  0.287500  0.629600  1.0
  C  C1752  1  0.384600  0.787500  0.129600  1.0
  C  C1753  1  0.384500  0.686100  0.570100  1.0
  C  C1754  1  0.384500  0.186100  0.070100  1.0
  C  C1755  1  0.615500  0.686100  0.429900  1.0
  C  C1756  1  0.615500  0.186100  0.929900  1.0
  C  C1757  1  0.615500  0.313900  0.429900  1.0
  C  C1758  1  0.615500  0.813900  0.929900  1.0
  C  C1759  1  0.384500  0.313900  0.570100  1.0
  C  C1760  1  0.384500  0.813900  0.070100  1.0
  C  C1761  1  0.393300  0.643100  0.549900  1.0
  C  C1762  1  0.393300  0.143100  0.049900  1.0
  C  C1763  1  0.606700  0.643100  0.450100  1.0
  C  C1764  1  0.606700  0.143100  0.950100  1.0
  C  C1765  1  0.606700  0.356900  0.450100  1.0
  C  C1766  1  0.606700  0.856900  0.950100  1.0
  C  C1767  1  0.393300  0.356900  0.549900  1.0
  C  C1768  1  0.393300  0.856900  0.049900  1.0
  C  C1769  1  0.388900  0.556300  0.565700  1.0
  C  C1770  1  0.388900  0.056300  0.065700  1.0
  C  C1771  1  0.611100  0.556300  0.434300  1.0
  C  C1772  1  0.611100  0.056300  0.934300  1.0
  C  C1773  1  0.611100  0.443700  0.434300  1.0
  C  C1774  1  0.611100  0.943700  0.934300  1.0
  C  C1775  1  0.388900  0.443700  0.565700  1.0
  C  C1776  1  0.388900  0.943700  0.065700  1.0
  C  C1777  1  0.335200  0.524410  0.550900  1.0
  C  C1778  1  0.335200  0.024410  0.050900  1.0
  C  C1779  1  0.664800  0.524410  0.449100  1.0
  C  C1780  1  0.664800  0.024410  0.949100  1.0
  C  C1781  1  0.664800  0.475590  0.449100  1.0
  C  C1782  1  0.664800  0.975590  0.949100  1.0
  C  C1783  1  0.335200  0.475590  0.550900  1.0
  C  C1784  1  0.335200  0.975590  0.050900  1.0
  C  C1785  1  0.711400  0.674000  0.219700  1.0
  C  C1786  1  0.711400  0.174000  0.719700  1.0
  C  C1787  1  0.288600  0.674000  0.780300  1.0
  C  C1788  1  0.288600  0.174000  0.280300  1.0
  C  C1789  1  0.288600  0.326000  0.780300  1.0
  C  C1790  1  0.288600  0.826000  0.280300  1.0
  C  C1791  1  0.711400  0.326000  0.219700  1.0
  C  C1792  1  0.711400  0.826000  0.719700  1.0
  C  C1793  1  0.803400  0.638700  0.715100  1.0
  C  C1794  1  0.803400  0.138700  0.215100  1.0
  C  C1795  1  0.196600  0.638700  0.284900  1.0
  C  C1796  1  0.196600  0.138700  0.784900  1.0
  C  C1797  1  0.196600  0.361300  0.284900  1.0
  C  C1798  1  0.196600  0.861300  0.784900  1.0
  C  C1799  1  0.803400  0.361300  0.715100  1.0
  C  C1800  1  0.803400  0.861300  0.215100  1.0
  N  N1801  1  0.816600  0.000000  0.023500  1.0
  N  N1802  1  0.816600  0.500000  0.523500  1.0
  N  N1803  1  0.183400  0.000000  0.976500  1.0
  N  N1804  1  0.183400  0.500000  0.476500  1.0
  N  N1805  1  0.829400  0.000000  0.915400  1.0
  N  N1806  1  0.829400  0.500000  0.415400  1.0
  N  N1807  1  0.170600  0.000000  0.084600  1.0
  N  N1808  1  0.170600  0.500000  0.584600  1.0
  N  N1809  1  0.939200  0.000000  0.989800  1.0
  N  N1810  1  0.939200  0.500000  0.489800  1.0
  N  N1811  1  0.060800  0.000000  0.010200  1.0
  N  N1812  1  0.060800  0.500000  0.510200  1.0
  N  N1813  1  0.500000  0.547400  1.000000  1.0
  N  N1814  1  0.500000  0.047400  0.500000  1.0
  N  N1815  1  0.500000  0.452600  0.000000  1.0
  N  N1816  1  0.500000  0.952600  0.500000  1.0
  N  N1817  1  0.822100  0.924500  0.969030  1.0
  N  N1818  1  0.822100  0.424500  0.469030  1.0
  N  N1819  1  0.177900  0.924500  0.030970  1.0
  N  N1820  1  0.177900  0.424500  0.530970  1.0
  N  N1821  1  0.177900  0.075500  0.030970  1.0
  N  N1822  1  0.177900  0.575500  0.530970  1.0
  N  N1823  1  0.822100  0.075500  0.969030  1.0
  N  N1824  1  0.822100  0.575500  0.469030  1.0
  N  N1825  1  0.770500  0.690500  0.169600  1.0
  N  N1826  1  0.770500  0.190500  0.669600  1.0
  N  N1827  1  0.229500  0.690500  0.830400  1.0
  N  N1828  1  0.229500  0.190500  0.330400  1.0
  N  N1829  1  0.229500  0.309500  0.830400  1.0
  N  N1830  1  0.229500  0.809500  0.330400  1.0
  N  N1831  1  0.770500  0.309500  0.169600  1.0
  N  N1832  1  0.770500  0.809500  0.669600  1.0
  N  N1833  1  0.859700  0.712400  0.749800  1.0
  N  N1834  1  0.859700  0.212400  0.249800  1.0
  N  N1835  1  0.140300  0.712400  0.250200  1.0
  N  N1836  1  0.140300  0.212400  0.750200  1.0
  N  N1837  1  0.140300  0.287600  0.250200  1.0
  N  N1838  1  0.140300  0.787600  0.750200  1.0
  N  N1839  1  0.859700  0.287600  0.749800  1.0
  N  N1840  1  0.859700  0.787600  0.249800  1.0
  N  N1841  1  0.428600  0.641700  0.954700  1.0
  N  N1842  1  0.428600  0.141700  0.454700  1.0
  N  N1843  1  0.571400  0.641700  0.045300  1.0
  N  N1844  1  0.571400  0.141700  0.545300  1.0
  N  N1845  1  0.571400  0.358300  0.045300  1.0
  N  N1846  1  0.571400  0.858300  0.545300  1.0
  N  N1847  1  0.428600  0.358300  0.954700  1.0
  N  N1848  1  0.428600  0.858300  0.454700  1.0
  N  N1849  1  0.442700  0.643600  0.034100  1.0
  N  N1850  1  0.442700  0.143600  0.534100  1.0
  N  N1851  1  0.557300  0.643600  0.965900  1.0
  N  N1852  1  0.557300  0.143600  0.465900  1.0
  N  N1853  1  0.557300  0.356400  0.965900  1.0
  N  N1854  1  0.557300  0.856400  0.465900  1.0
  N  N1855  1  0.442700  0.356400  0.034100  1.0
  N  N1856  1  0.442700  0.856400  0.534100  1.0
  N  N1857  1  0.979200  0.652300  0.931200  1.0
  N  N1858  1  0.979200  0.152300  0.431200  1.0
  N  N1859  1  0.020800  0.652300  0.068800  1.0
  N  N1860  1  0.020800  0.152300  0.568800  1.0
  N  N1861  1  0.020800  0.347700  0.068800  1.0
  N  N1862  1  0.020800  0.847700  0.568800  1.0
  N  N1863  1  0.979200  0.347700  0.931200  1.0
  N  N1864  1  0.979200  0.847700  0.431200  1.0
  N  N1865  1  0.449500  0.665600  0.683500  1.0
  N  N1866  1  0.449500  0.165600  0.183500  1.0
  N  N1867  1  0.550500  0.665600  0.316500  1.0
  N  N1868  1  0.550500  0.165600  0.816500  1.0
  N  N1869  1  0.550500  0.334400  0.316500  1.0
  N  N1870  1  0.550500  0.834400  0.816500  1.0
  N  N1871  1  0.449500  0.334400  0.683500  1.0
  N  N1872  1  0.449500  0.834400  0.183500  1.0
  O  O1873  1  0.738600  0.627300  0.212900  1
  O  O1874  1  0.738600  0.127300  0.712900  1
  O  O1875  1  0.261400  0.627300  0.787100  1
  O  O1876  1  0.261400  0.127300  0.287100  1
  O  O1877  1  0.261400  0.372700  0.787100  1
  O  O1878  1  0.261400  0.872700  0.287100  1
  O  O1879  1  0.738600  0.372700  0.212900  1
  O  O1880  1  0.738600  0.872700  0.712900  1
  O  O1881  1  0.842500  0.599900  0.274200  1
  O  O1882  1  0.842500  0.099900  0.774200  1
  O  O1883  1  0.157500  0.599900  0.725800  1
  O  O1884  1  0.157500  0.099900  0.225800  1
  O  O1885  1  0.157500  0.400100  0.725800  1
  O  O1886  1  0.157500  0.900100  0.225800  1
  O  O1887  1  0.842500  0.400100  0.274200  1
  O  O1888  1  0.842500  0.900100  0.774200  1
  O  O1889  1  0.857100  0.607300  0.723600  1
  O  O1890  1  0.857100  0.107300  0.223600  1
  O  O1891  1  0.142900  0.607300  0.276400  1
  O  O1892  1  0.142900  0.107300  0.776400  1
  O  O1893  1  0.142900  0.392700  0.276400  1
  O  O1894  1  0.142900  0.892700  0.776400  1
  O  O1895  1  0.857100  0.392700  0.723600  1
  O  O1896  1  0.857100  0.892700  0.223600  1
  O  O1897  1  0.919200  0.595600  0.663200  1
  O  O1898  1  0.919200  0.095600  0.163200  1
  O  O1899  1  0.080800  0.595600  0.336800  1
  O  O1900  1  0.080800  0.095600  0.836800  1
  O  O1901  1  0.080800  0.404400  0.336800  1
  O  O1902  1  0.080800  0.904400  0.836800  1
  O  O1903  1  0.919200  0.404400  0.663200  1
  O  O1904  1  0.919200  0.904400  0.163200  1
  O  O1905  1  0.716800  0.624200  0.206500  1.0
  O  O1906  1  0.716800  0.124200  0.706500  1.0
  O  O1907  1  0.283200  0.624200  0.793500  1.0
  O  O1908  1  0.283200  0.124200  0.293500  1.0
  O  O1909  1  0.283200  0.375800  0.793500  1.0
  O  O1910  1  0.283200  0.875800  0.293500  1.0
  O  O1911  1  0.716800  0.375800  0.206500  1.0
  O  O1912  1  0.716800  0.875800  0.706500  1.0
  O  O1913  1  0.806300  0.553700  0.227100  1.0
  O  O1914  1  0.806300  0.053700  0.727100  1.0
  O  O1915  1  0.193700  0.553700  0.772900  1.0
  O  O1916  1  0.193700  0.053700  0.272900  1.0
  O  O1917  1  0.193700  0.446300  0.772900  1.0
  O  O1918  1  0.193700  0.946300  0.272900  1.0
  O  O1919  1  0.806300  0.446300  0.227100  1.0
  O  O1920  1  0.806300  0.946300  0.727100  1.0
  O  O1921  1  0.853800  0.649300  0.697600  1.0
  O  O1922  1  0.853800  0.149300  0.197600  1.0
  O  O1923  1  0.146200  0.649300  0.302400  1.0
  O  O1924  1  0.146200  0.149300  0.802400  1.0
  O  O1925  1  0.146200  0.350700  0.302400  1.0
  O  O1926  1  0.146200  0.850700  0.802400  1.0
  O  O1927  1  0.853800  0.350700  0.697600  1.0
  O  O1928  1  0.853800  0.850700  0.197600  1.0
  O  O1929  1  0.967000  0.605600  0.700800  1.0
  O  O1930  1  0.967000  0.105600  0.200800  1.0
  O  O1931  1  0.033000  0.605600  0.299200  1.0
  O  O1932  1  0.033000  0.105600  0.799200  1.0
  O  O1933  1  0.033000  0.394400  0.299200  1.0
  O  O1934  1  0.033000  0.894400  0.799200  1.0
  O  O1935  1  0.967000  0.394400  0.700800  1.0
  O  O1936  1  0.967000  0.894400  0.200800  1.0
  O  O1937  1  0.861900  0.679200  0.903100  1.0
  O  O1938  1  0.861900  0.179200  0.403100  1.0
  O  O1939  1  0.138100  0.679200  0.096900  1.0
  O  O1940  1  0.138100  0.179200  0.596900  1.0
  O  O1941  1  0.138100  0.320800  0.096900  1.0
  O  O1942  1  0.138100  0.820800  0.596900  1.0
  O  O1943  1  0.861900  0.320800  0.903100  1.0
  O  O1944  1  0.861900  0.820800  0.403100  1.0
  O  O1945  1  0.791500  0.596900  0.885200  1.0
  O  O1946  1  0.791500  0.096900  0.385200  1.0
  O  O1947  1  0.208500  0.596900  0.114800  1.0
  O  O1948  1  0.208500  0.096900  0.614800  1.0
  O  O1949  1  0.208500  0.403100  0.114800  1.0
  O  O1950  1  0.208500  0.903100  0.614800  1.0
  O  O1951  1  0.791500  0.403100  0.885200  1.0
  O  O1952  1  0.791500  0.903100  0.385200  1.0
  O  O1953  1  0.415100  0.678400  0.610500  1.0
  O  O1954  1  0.415100  0.178400  0.110500  1.0
  O  O1955  1  0.584900  0.678400  0.389500  1.0
  O  O1956  1  0.584900  0.178400  0.889500  1.0
  O  O1957  1  0.584900  0.321600  0.389500  1.0
  O  O1958  1  0.584900  0.821600  0.889500  1.0
  O  O1959  1  0.415100  0.321600  0.610500  1.0
  O  O1960  1  0.415100  0.821600  0.110500  1.0
  O  O1961  1  0.355800  0.602800  0.559000  1.0
  O  O1962  1  0.355800  0.102800  0.059000  1.0
  O  O1963  1  0.644200  0.602800  0.441000  1.0
  O  O1964  1  0.644200  0.102800  0.941000  1.0
  O  O1965  1  0.644200  0.397200  0.441000  1.0
  O  O1966  1  0.644200  0.897200  0.941000  1.0
  O  O1967  1  0.355800  0.397200  0.559000  1.0
  O  O1968  1  0.355800  0.897200  0.059000  1.0
