
#######################################################################
#
#                 Cambridge Crystallographic Data Centre
#                                CCDC 
#
#######################################################################
#
# If this CIF has been generated from an entry in the Cambridge 
# Structural Database, then it will include bibliographic, chemical, 
# crystal, experimental, refinement or atomic coordinate data resulting 
# from the CCDC's data processing and validation procedures.
#
#######################################################################

data_RATCAS
_chemical_formula_moiety         
'C190 H188 N18 O16 Zn2,5(C1 H1 Cl3),5(C1 H4 O1)'
_chemical_name_systematic        
"(\m~2~-5,5':10,10':15,15':20,20'-tetrakis(2,5,10,13-tetraoxatetradec-7-ene-1,14-diylbis(pyridine-2,5-diyl(2,6-dimethyl-4,1-phenylene)))-bis(porphyrinato))-(\m~2~-1,4-diazabicyclo(2.2.2)octane)-di-zinc chloroform methanol solvate"
_symmetry_cell_setting           monoclinic
_symmetry_space_group_name_H-M   'C 2/m'
_symmetry_Int_Tables_number      12
_space_group_name_Hall           '-C 2y'
loop_
_symmetry_equiv_pos_site_id
_symmetry_equiv_pos_as_xyz
1 x,y,z
2 1/2+x,1/2+y,z
3 -x,y,-z
4 1/2-x,1/2+y,-z
5 -x,-y,-z
6 1/2-x,1/2-y,-z
7 x,-y,z
8 1/2+x,1/2-y,z
_cell_length_a                   36.835(3)
_cell_length_b                   27.126(2)
_cell_length_c                   22.4881(12)
_cell_angle_alpha                90
_cell_angle_beta                 103.306(3)
_cell_angle_gamma                90
_cell_volume                     21866.6
_exptl_crystal_colour            red
_exptl_crystal_description       prism
_cell_formula_units_Z            4
loop_
_atom_site_label
_atom_site_type_symbol
_atom_site_fract_x
_atom_site_fract_y
_atom_site_fract_z
C1 C -0.0817(2) 0.02480(18) 0.1925(4)
H1 H -0.1020 0.0456 0.1956
C2 C -0.0451(2) 0.0407(3) 0.1870(4)
C3 C -0.0326(2) 0.0896(3) 0.1924(4)
C4 C 0.0023(2) 0.1049(3) 0.1881(4)
C5 C 0.0164(3) 0.1554(3) 0.1960(4)
H2 H 0.0029 0.1834 0.2043
C6 C 0.0517(3) 0.1557(3) 0.1894(5)
H3 H 0.0673 0.1837 0.1903
C7 C 0.0616(2) 0.1046(3) 0.1808(4)
C8 C 0.0966(2) 0.0895(3) 0.1752(4)
C9 C 0.1073(2) 0.0409(3) 0.1710(4)
C10 C 0.1444(2) 0.02488(18) 0.1670(4)
H4 H 0.1648 0.0456 0.1648
N1 N -0.0235(3) 0.0000 0.1834(5)
N2 N 0.03097(19) 0.0755(2) 0.1779(3)
N3 N 0.0846(3) 0.0000 0.1706(5)
Zn1 Zn 0.02796(5) 0.0000 0.16077(7)
C21 C -0.0292(4) 0.0000 0.0389(7)
C22 C 0.0413(3) 0.0000 0.0341(7)
C23 C 0.0235(4) 0.0417(3) 0.03625(14)
H9 H 0.0511 0.0425 0.0493
H10 H 0.0137 0.0716 0.0523
C24 C -0.0111(4) 0.0419(3) 0.0379(4)
H11 H 0.0037 0.0720 0.0517
H12 H -0.0337 0.0429 0.0547
N6 N 0.0102(3) 0.0000 0.0608(4)
H13 H -0.0363(6) 0.02903(17) 0.0585
H14 H 0.0555(4) 0.02905(17) 0.0496
C28 C -0.0600(2) 0.1268(3) 0.2061(4)
C29 C -0.0785(2) 0.1575(3) 0.1595(4)
C30 C -0.1050(3) 0.1908(4) 0.1714(4)
H21 H -0.1200 0.2093 0.1389
C31 C -0.1095(2) 0.1968(3) 0.2302(4)
C32 C -0.0907(3) 0.1652(3) 0.2760(4)
H22 H -0.0950 0.1678 0.3160
C33 C -0.0660(3) 0.1303(3) 0.2644(4)
C34 C -0.0727(3) 0.1532(4) 0.0949(4)
H23 H -0.0892 0.1764 0.0681
H24 H -0.0784 0.1195 0.0799
H25 H -0.0467 0.1609 0.0950
C35 C -0.0468(4) 0.0993(4) 0.3181(5)
H26 H -0.0638 0.0734 0.3254
H27 H -0.0396 0.1201 0.3545
H28 H -0.0244 0.0841 0.3093
C36 C -0.13698(16) 0.2320(2) 0.2436(3)
C37 C -0.14354(18) 0.2775(3) 0.2148(3)
H29 H -0.1302 0.2868 0.1851
N8 N -0.1696(2) 0.3095(2) 0.2295(3)
C38 C -0.18913(17) 0.2960(2) 0.2730(3)
C39 C -0.1826(2) 0.2504(3) 0.3018(3)
H30 H -0.1959 0.2412 0.3315
C40 C -0.1565(2) 0.2184(2) 0.2871(3)
H31 H -0.1520 0.1873 0.3068
C41 C 0.1266(2) 0.1293(3) 0.1785(3)
C42 C 0.1284(3) 0.1542(4) 0.1255(4)
C43 C 0.1551(3) 0.1910(4) 0.1283(4)
H32 H 0.1576 0.2068 0.0918
C44 C 0.1779(2) 0.2047(3) 0.1832(4)
C45 C 0.1747(3) 0.1794(3) 0.2344(4)
H33 H 0.1902 0.1887 0.2727
C46 C 0.1501(3) 0.1411(3) 0.2330(4)
C47 C 0.0986(4) 0.1454(5) 0.0669(4)
H34 H 0.0739 0.1451 0.0763
H35 H 0.1031 0.1136 0.0492
H36 H 0.0997 0.1718 0.0376
C48 C 0.1498(3) 0.1126(4) 0.2905(4)
H37 H 0.1735 0.0950 0.3040
H38 H 0.1292 0.0889 0.2823
H39 H 0.1465 0.1355 0.3226
C49 C 0.20585(17) 0.2440(2) 0.1844(4)
C50 C 0.2243(2) 0.2498(3) 0.1375(3)
H40 H 0.2192 0.2281 0.1035
N9 N 0.2502(2) 0.2876(3) 0.1403(3)
C51 C 0.25761(19) 0.3194(2) 0.1901(4)
C52 C 0.2391(2) 0.3135(3) 0.2370(3)
H41 H 0.2442 0.3353 0.2710
C53 C 0.2133(2) 0.2758(3) 0.2342(3)
H42 H 0.2007 0.2718 0.2663
C80 C -0.2197(4) 0.3260(5) 0.2886(7)
O1 O -0.2065(6) 0.3758(7) 0.2832(11)
C81 C -0.2348(11) 0.4117(9) 0.2908(10)
H67 H -0.2559 0.3934 0.3008
H68 H -0.2239 0.4326 0.3265
C82 C -0.2494(5) 0.4431(7) 0.2408(11)
H69 H -0.2518 0.4767 0.2567
H70 H -0.2748 0.4316 0.2208
O2 O -0.2271(7) 0.4463(6) 0.1937(9)
C83 C -0.2546(9) 0.4448(10) 0.1354(8)
H71 H -0.2558 0.4764 0.1130
H72 H -0.2797 0.4361 0.1408
C84 C -0.2382(9) 0.4047(12) 0.1049(12)
H73 H -0.2203 0.3839 0.1299
C90 C 0.2849(5) 0.3613(6) 0.1966(7)
H83 H 0.2721 0.3937 0.1916
H84 H 0.3032 0.3604 0.2365
O5 O 0.3024(7) 0.3507(8) 0.1462(9)
C91 C 0.3259(7) 0.3938(14) 0.1425(10)
H85 H 0.3237 0.4166 0.1758
H86 H 0.3521 0.3824 0.1511
C92 C 0.3191(9) 0.4213(12) 0.0874(11)
H87 H 0.3433 0.4327 0.0804
H88 H 0.3044 0.4510 0.0925
O6 O 0.2992(8) 0.3944(11) 0.0330(8)
C93 C 0.2700(10) 0.4291(12) 0.0017(9)
H89 H 0.2808 0.4566 -0.0174
H90 H 0.2555 0.4425 0.0300
C94 C -0.2469(9) 0.3959(14) 0.0451(13)
H91 H -0.2377 0.3664 0.0311
C1F C -0.0817(2) -0.02480(18) 0.1925(4)
C1D C 0.0817(2) -0.02480(18) -0.1925(4)
C1B C 0.0817(2) 0.02480(18) -0.1925(4)
H1F H -0.1020 -0.0456 0.1956
H1B H 0.1020 0.0456 -0.1956
H1D H 0.1020 -0.0456 -0.1956
C2F C -0.0451(2) -0.0407(3) 0.1870(4)
C2D C 0.0451(2) -0.0407(3) -0.1870(4)
C2B C 0.0451(2) 0.0407(3) -0.1870(4)
C3F C -0.0326(2) -0.0896(3) 0.1924(4)
C3B C 0.0326(2) 0.0896(3) -0.1924(4)
C3D C 0.0326(2) -0.0896(3) -0.1924(4)
C4F C 0.0023(2) -0.1049(3) 0.1881(4)
C4B C -0.0023(2) 0.1049(3) -0.1881(4)
C4D C -0.0023(2) -0.1049(3) -0.1881(4)
C5F C 0.0164(3) -0.1554(3) 0.1960(4)
C5B C -0.0164(3) 0.1554(3) -0.1960(4)
C5D C -0.0164(3) -0.1554(3) -0.1960(4)
H2F H 0.0029 -0.1834 0.2043
H2B H -0.0029 0.1834 -0.2043
H2D H -0.0029 -0.1834 -0.2043
C6F C 0.0517(3) -0.1557(3) 0.1894(5)
C6B C -0.0517(3) 0.1557(3) -0.1894(5)
C6D C -0.0517(3) -0.1557(3) -0.1894(5)
H3F H 0.0673 -0.1837 0.1903
H3B H -0.0673 0.1837 -0.1903
H3D H -0.0673 -0.1837 -0.1903
C7F C 0.0616(2) -0.1046(3) 0.1808(4)
C7B C -0.0616(2) 0.1046(3) -0.1808(4)
C7D C -0.0616(2) -0.1046(3) -0.1808(4)
C8F C 0.0966(2) -0.0895(3) 0.1752(4)
C8B C -0.0966(2) 0.0895(3) -0.1752(4)
C8D C -0.0966(2) -0.0895(3) -0.1752(4)
C9F C 0.1073(2) -0.0409(3) 0.1710(4)
C9B C -0.1073(2) 0.0409(3) -0.1710(4)
C9D C -0.1073(2) -0.0409(3) -0.1710(4)
C10F C 0.1444(2) -0.02488(18) 0.1670(4)
C10B C -0.1444(2) 0.02488(18) -0.1670(4)
C10D C -0.1444(2) -0.02488(18) -0.1670(4)
H4D H -0.1648 -0.0456 -0.1648
H4B H -0.1648 0.0456 -0.1648
H4F H 0.1648 -0.0456 0.1648
N1D N 0.0235(3) 0.0000 -0.1834(5)
N2F N 0.03097(19) -0.0755(2) 0.1779(3)
N2D N -0.03097(19) -0.0755(2) -0.1779(3)
N2B N -0.03097(19) 0.0755(2) -0.1779(3)
N3D N -0.0846(3) 0.0000 -0.1706(5)
Zn1D Zn -0.02796(5) 0.0000 -0.16077(7)
C21D C 0.0292(4) 0.0000 -0.0389(7)
C22D C -0.0413(3) 0.0000 -0.0341(7)
C23D C -0.0235(4) -0.0417(3) -0.03625(14)
C23B C -0.0235(4) 0.0417(3) -0.03625(14)
C23F C 0.0235(4) -0.0417(3) 0.03625(14)
H9D H -0.0511 -0.0425 -0.0493
H9B H -0.0511 0.0425 -0.0493
H9F H 0.0511 -0.0425 0.0493
H10F H 0.0137 -0.0716 0.0523
H10D H -0.0137 -0.0716 -0.0523
H10B H -0.0137 0.0716 -0.0523
C24F C -0.0111(4) -0.0419(3) 0.0379(4)
C24D C 0.0111(4) -0.0419(3) -0.0379(4)
C24B C 0.0111(4) 0.0419(3) -0.0379(4)
H11B H -0.0037 0.0720 -0.0517
H11D H -0.0037 -0.0720 -0.0517
H11F H 0.0037 -0.0720 0.0517
H12B H 0.0337 0.0429 -0.0547
H12D H 0.0337 -0.0429 -0.0547
H12F H -0.0337 -0.0429 0.0547
N6D N -0.0102(3) 0.0000 -0.0608(4)
H13F H -0.0363(6) -0.02903(17) 0.0585
H13B H 0.0363(6) 0.02903(17) -0.0585
H13D H 0.0363(6) -0.02903(17) -0.0585
H14F H 0.0555(4) -0.02905(17) 0.0496
H14D H -0.0555(4) -0.02905(17) -0.0496
H14B H -0.0555(4) 0.02905(17) -0.0496
C28D C 0.0600(2) -0.1268(3) -0.2061(4)
C28F C -0.0600(2) -0.1268(3) 0.2061(4)
C28B C 0.0600(2) 0.1268(3) -0.2061(4)
C29D C 0.0785(2) -0.1575(3) -0.1595(4)
C29F C -0.0785(2) -0.1575(3) 0.1595(4)
C29B C 0.0785(2) 0.1575(3) -0.1595(4)
C30D C 0.1050(3) -0.1908(4) -0.1714(4)
C30F C -0.1050(3) -0.1908(4) 0.1714(4)
C30B C 0.1050(3) 0.1908(4) -0.1714(4)
H21D H 0.1200 -0.2093 -0.1389
H21F H -0.1200 -0.2093 0.1389
H21B H 0.1200 0.2093 -0.1389
C31D C 0.1095(2) -0.1968(3) -0.2302(4)
C31F C -0.1095(2) -0.1968(3) 0.2302(4)
C31B C 0.1095(2) 0.1968(3) -0.2302(4)
C32D C 0.0907(3) -0.1652(3) -0.2760(4)
C32F C -0.0907(3) -0.1652(3) 0.2760(4)
C32B C 0.0907(3) 0.1652(3) -0.2760(4)
H22D H 0.0950 -0.1678 -0.3160
H22F H -0.0950 -0.1678 0.3160
H22B H 0.0950 0.1678 -0.3160
C33D C 0.0660(3) -0.1303(3) -0.2644(4)
C33F C -0.0660(3) -0.1303(3) 0.2644(4)
C33B C 0.0660(3) 0.1303(3) -0.2644(4)
C34D C 0.0727(3) -0.1532(4) -0.0949(4)
C34F C -0.0727(3) -0.1532(4) 0.0949(4)
C34B C 0.0727(3) 0.1532(4) -0.0949(4)
H23D H 0.0892 -0.1764 -0.0681
H23F H -0.0892 -0.1764 0.0681
H23B H 0.0892 0.1764 -0.0681
H24D H 0.0784 -0.1195 -0.0799
H24F H -0.0784 -0.1195 0.0799
H24B H 0.0784 0.1195 -0.0799
H25D H 0.0467 -0.1609 -0.0950
H25F H -0.0467 -0.1609 0.0950
H25B H 0.0467 0.1609 -0.0950
C35D C 0.0468(4) -0.0993(4) -0.3181(5)
C35F C -0.0468(4) -0.0993(4) 0.3181(5)
C35B C 0.0468(4) 0.0993(4) -0.3181(5)
H26D H 0.0638 -0.0734 -0.3254
H26F H -0.0638 -0.0734 0.3254
H26B H 0.0638 0.0734 -0.3254
H27D H 0.0396 -0.1201 -0.3545
H27F H -0.0396 -0.1201 0.3545
H27B H 0.0396 0.1201 -0.3545
H28D H 0.0244 -0.0841 -0.3093
H28F H -0.0244 -0.0841 0.3093
H28B H 0.0244 0.0841 -0.3093
C36D C 0.13698(16) -0.2320(2) -0.2436(3)
C36F C -0.13698(16) -0.2320(2) 0.2436(3)
C36B C 0.13698(16) 0.2320(2) -0.2436(3)
C37D C 0.14354(18) -0.2775(3) -0.2148(3)
C37F C -0.14354(18) -0.2775(3) 0.2148(3)
C37B C 0.14354(18) 0.2775(3) -0.2148(3)
H29D H 0.1302 -0.2868 -0.1851
H29F H -0.1302 -0.2868 0.1851
H29B H 0.1302 0.2868 -0.1851
N8D N 0.1696(2) -0.3095(2) -0.2295(3)
N8F N -0.1696(2) -0.3095(2) 0.2295(3)
N8B N 0.1696(2) 0.3095(2) -0.2295(3)
C38D C 0.18913(17) -0.2960(2) -0.2730(3)
C38F C -0.18913(17) -0.2960(2) 0.2730(3)
C38B C 0.18913(17) 0.2960(2) -0.2730(3)
C39D C 0.1826(2) -0.2504(3) -0.3018(3)
C39F C -0.1826(2) -0.2504(3) 0.3018(3)
C39B C 0.1826(2) 0.2504(3) -0.3018(3)
H30D H 0.1959 -0.2412 -0.3315
H30F H -0.1959 -0.2412 0.3315
H30B H 0.1959 0.2412 -0.3315
C40D C 0.1565(2) -0.2184(2) -0.2871(3)
C40F C -0.1565(2) -0.2184(2) 0.2871(3)
C40B C 0.1565(2) 0.2184(2) -0.2871(3)
H31D H 0.1520 -0.1873 -0.3068
H31F H -0.1520 -0.1873 0.3068
H31B H 0.1520 0.1873 -0.3068
C41F C 0.1266(2) -0.1293(3) 0.1785(3)
C41D C -0.1266(2) -0.1293(3) -0.1785(3)
C41B C -0.1266(2) 0.1293(3) -0.1785(3)
C42F C 0.1284(3) -0.1542(4) 0.1255(4)
C42D C -0.1284(3) -0.1542(4) -0.1255(4)
C42B C -0.1284(3) 0.1542(4) -0.1255(4)
C43F C 0.1551(3) -0.1910(4) 0.1283(4)
C43D C -0.1551(3) -0.1910(4) -0.1283(4)
C43B C -0.1551(3) 0.1910(4) -0.1283(4)
H32F H 0.1576 -0.2068 0.0918
H32D H -0.1576 -0.2068 -0.0918
H32B H -0.1576 0.2068 -0.0918
C44F C 0.1779(2) -0.2047(3) 0.1832(4)
C44D C -0.1779(2) -0.2047(3) -0.1832(4)
C44B C -0.1779(2) 0.2047(3) -0.1832(4)
C45F C 0.1747(3) -0.1794(3) 0.2344(4)
C45D C -0.1747(3) -0.1794(3) -0.2344(4)
C45B C -0.1747(3) 0.1794(3) -0.2344(4)
H33F H 0.1902 -0.1887 0.2727
H33D H -0.1902 -0.1887 -0.2727
H33B H -0.1902 0.1887 -0.2727
C46F C 0.1501(3) -0.1411(3) 0.2330(4)
C46D C -0.1501(3) -0.1411(3) -0.2330(4)
C46B C -0.1501(3) 0.1411(3) -0.2330(4)
C47F C 0.0986(4) -0.1454(5) 0.0669(4)
C47D C -0.0986(4) -0.1454(5) -0.0669(4)
C47B C -0.0986(4) 0.1454(5) -0.0669(4)
H34F H 0.0739 -0.1451 0.0763
H34D H -0.0739 -0.1451 -0.0763
H34B H -0.0739 0.1451 -0.0763
H35F H 0.1031 -0.1136 0.0492
H35D H -0.1031 -0.1136 -0.0492
H35B H -0.1031 0.1136 -0.0492
H36F H 0.0997 -0.1718 0.0376
H36D H -0.0997 -0.1718 -0.0376
H36B H -0.0997 0.1718 -0.0376
C48F C 0.1498(3) -0.1126(4) 0.2905(4)
C48D C -0.1498(3) -0.1126(4) -0.2905(4)
C48B C -0.1498(3) 0.1126(4) -0.2905(4)
H37F H 0.1735 -0.0950 0.3040
H37D H -0.1735 -0.0950 -0.3040
H37B H -0.1735 0.0950 -0.3040
H38F H 0.1292 -0.0889 0.2823
H38D H -0.1292 -0.0889 -0.2823
H38B H -0.1292 0.0889 -0.2823
H39F H 0.1465 -0.1355 0.3226
H39D H -0.1465 -0.1355 -0.3226
H39B H -0.1465 0.1355 -0.3226
C49F C 0.20585(17) -0.2440(2) 0.1844(4)
C49D C -0.20585(17) -0.2440(2) -0.1844(4)
C49B C -0.20585(17) 0.2440(2) -0.1844(4)
C50F C 0.2243(2) -0.2498(3) 0.1375(3)
C50D C -0.2243(2) -0.2498(3) -0.1375(3)
C50B C -0.2243(2) 0.2498(3) -0.1375(3)
H40F H 0.2192 -0.2281 0.1035
H40D H -0.2192 -0.2281 -0.1035
H40B H -0.2192 0.2281 -0.1035
N9F N 0.2502(2) -0.2876(3) 0.1403(3)
N9D N -0.2502(2) -0.2876(3) -0.1403(3)
N9B N -0.2502(2) 0.2876(3) -0.1403(3)
C51F C 0.25761(19) -0.3194(2) 0.1901(4)
C51D C -0.25761(19) -0.3194(2) -0.1901(4)
C51B C -0.25761(19) 0.3194(2) -0.1901(4)
C52F C 0.2391(2) -0.3135(3) 0.2370(3)
C52D C -0.2391(2) -0.3135(3) -0.2370(3)
C52B C -0.2391(2) 0.3135(3) -0.2370(3)
H41F H 0.2442 -0.3353 0.2710
H41D H -0.2442 -0.3353 -0.2710
H41B H -0.2442 0.3353 -0.2710
C53F C 0.2133(2) -0.2758(3) 0.2342(3)
C53D C -0.2133(2) -0.2758(3) -0.2342(3)
C53B C -0.2133(2) 0.2758(3) -0.2342(3)
H42F H 0.2007 -0.2718 0.2663
H42D H -0.2007 -0.2718 -0.2663
H42B H -0.2007 0.2718 -0.2663
C80D C 0.2197(4) -0.3260(5) -0.2886(7)
C80F C -0.2197(4) -0.3260(5) 0.2886(7)
C80B C 0.2197(4) 0.3260(5) -0.2886(7)
O1D O 0.2065(6) -0.3758(7) -0.2832(11)
O1F O -0.2065(6) -0.3758(7) 0.2832(11)
O1B O 0.2065(6) 0.3758(7) -0.2832(11)
C81D C 0.2348(11) -0.4117(9) -0.2908(10)
C81F C -0.2348(11) -0.4117(9) 0.2908(10)
C81B C 0.2348(11) 0.4117(9) -0.2908(10)
H67D H 0.2559 -0.3934 -0.3008
H67F H -0.2559 -0.3934 0.3008
H67B H 0.2559 0.3934 -0.3008
H68D H 0.2239 -0.4326 -0.3265
H68F H -0.2239 -0.4326 0.3265
H68B H 0.2239 0.4326 -0.3265
C82D C 0.2494(5) -0.4431(7) -0.2408(11)
C82F C -0.2494(5) -0.4431(7) 0.2408(11)
C82B C 0.2494(5) 0.4431(7) -0.2408(11)
H69D H 0.2518 -0.4767 -0.2567
H69F H -0.2518 -0.4767 0.2567
H69B H 0.2518 0.4767 -0.2567
H70D H 0.2748 -0.4316 -0.2208
H70F H -0.2748 -0.4316 0.2208
H70B H 0.2748 0.4316 -0.2208
O2D O 0.2271(7) -0.4463(6) -0.1937(9)
O2F O -0.2271(7) -0.4463(6) 0.1937(9)
O2B O 0.2271(7) 0.4463(6) -0.1937(9)
C83D C 0.2546(9) -0.4448(10) -0.1354(8)
C83F C -0.2546(9) -0.4448(10) 0.1354(8)
C83B C 0.2546(9) 0.4448(10) -0.1354(8)
H71D H 0.2558 -0.4764 -0.1130
H71F H -0.2558 -0.4764 0.1130
H71B H 0.2558 0.4764 -0.1130
H72D H 0.2797 -0.4361 -0.1408
H72F H -0.2797 -0.4361 0.1408
H72B H 0.2797 0.4361 -0.1408
C84D C 0.2382(9) -0.4047(12) -0.1049(12)
C84F C -0.2382(9) -0.4047(12) 0.1049(12)
C84B C 0.2382(9) 0.4047(12) -0.1049(12)
H73D H 0.2203 -0.3839 -0.1299
H73F H -0.2203 -0.3839 0.1299
H73B H 0.2203 0.3839 -0.1299
C90F C 0.2849(5) -0.3613(6) 0.1966(7)
C90D C -0.2849(5) -0.3613(6) -0.1966(7)
C90B C -0.2849(5) 0.3613(6) -0.1966(7)
H83F H 0.2721 -0.3937 0.1916
H83D H -0.2721 -0.3937 -0.1916
H83B H -0.2721 0.3937 -0.1916
H84F H 0.3032 -0.3604 0.2365
H84D H -0.3032 -0.3604 -0.2365
H84B H -0.3032 0.3604 -0.2365
O5F O 0.3024(7) -0.3507(8) 0.1462(9)
O5D O -0.3024(7) -0.3507(8) -0.1462(9)
O5B O -0.3024(7) 0.3507(8) -0.1462(9)
C91F C 0.3259(7) -0.3938(14) 0.1425(10)
C91D C -0.3259(7) -0.3938(14) -0.1425(10)
C91B C -0.3259(7) 0.3938(14) -0.1425(10)
H85F H 0.3237 -0.4166 0.1758
H85D H -0.3237 -0.4166 -0.1758
H85B H -0.3237 0.4166 -0.1758
H86F H 0.3521 -0.3824 0.1511
H86D H -0.3521 -0.3824 -0.1511
H86B H -0.3521 0.3824 -0.1511
C92F C 0.3191(9) -0.4213(12) 0.0874(11)
C92D C -0.3191(9) -0.4213(12) -0.0874(11)
C92B C -0.3191(9) 0.4213(12) -0.0874(11)
H87F H 0.3433 -0.4327 0.0804
H87D H -0.3433 -0.4327 -0.0804
H87B H -0.3433 0.4327 -0.0804
H88F H 0.3044 -0.4510 0.0925
H88D H -0.3044 -0.4510 -0.0925
H88B H -0.3044 0.4510 -0.0925
O6F O 0.2992(8) -0.3944(11) 0.0330(8)
O6D O -0.2992(8) -0.3944(11) -0.0330(8)
O6B O -0.2992(8) 0.3944(11) -0.0330(8)
C93F C 0.2700(10) -0.4291(12) 0.0017(9)
C93D C -0.2700(10) -0.4291(12) -0.0017(9)
C93B C -0.2700(10) 0.4291(12) -0.0017(9)
H89F H 0.2808 -0.4566 -0.0174
H89D H -0.2808 -0.4566 0.0174
H89B H -0.2808 0.4566 0.0174
H90F H 0.2555 -0.4425 0.0300
H90D H -0.2555 -0.4425 -0.0300
H90B H -0.2555 0.4425 -0.0300
C94D C 0.2469(9) -0.3959(14) -0.0451(13)
C94F C -0.2469(9) -0.3959(14) 0.0451(13)
C94B C 0.2469(9) 0.3959(14) -0.0451(13)
H91D H 0.2377 -0.3664 -0.0311
H91F H -0.2377 -0.3664 0.0311
H91B H 0.2377 0.3664 -0.0311
C11 C -0.0569(3) 0.3470(4) 0.6435(5)
H5 H -0.0566 0.3423 0.6854
C12 C -0.0235(3) 0.3544(4) 0.6200(4)
C13 C 0.0127(2) 0.3544(4) 0.6556(4)
C14 C 0.0446(3) 0.3568(3) 0.6326(4)
C15 C 0.0829(3) 0.3545(4) 0.6689(5)
H6 H 0.0908 0.3549 0.7122
C16 C 0.1035(4) 0.3519(4) 0.6311(4)
H7 H 0.1299 0.3487 0.6425
C17 C 0.0820(3) 0.3544(4) 0.5678(4)
C18 C 0.0950(3) 0.3528(4) 0.5146(4)
C19 C 0.0726(3) 0.3514(4) 0.4562(4)
C20 C -0.0881(3) 0.3478(4) 0.5983(4)
H8 H -0.1134 0.3464 0.6009
N4 N 0.0453(3) 0.3583(3) 0.5714(3)
N5 N -0.0341(2) 0.3564(3) 0.5573(3)
Zn2 Zn 0.0000 0.37126(5) 0.5000
C25 C 0.0347(3) 0.4709(4) 0.5317(13)
H15 H 0.0545 0.4587 0.5121
H16 H 0.0403 0.4587 0.5743
C26 C -0.0068(10) 0.4706(4) 0.4405(4)
H17 H 0.0312 0.4584 0.5830
H18 H 0.0127 0.4584 0.4203
C27 C -0.0277(5) 0.4711(3) 0.5275(12)
H19 H 0.0233 0.4589 0.4300
H20 H 0.0524 0.4589 0.4950
N7 N 0.0000 0.4526(3) 0.5000
C54 C 0.0191(3) 0.3466(3) 0.7244(3)
C55 C 0.0204(4) 0.3865(3) 0.7635(4)
C56 C 0.0299(5) 0.3791(4) 0.8271(4)
H43 H 0.0320 0.4064 0.8540
C57 C 0.0361(3) 0.3313(4) 0.8504(4)
C58 C 0.0340(3) 0.2931(4) 0.8109(4)
H44 H 0.0392 0.2607 0.8267
C59 C 0.0243(3) 0.2998(3) 0.7477(4)
C60 C 0.0178(5) 0.4381(4) 0.7384(5)
H45 H 0.0310 0.4400 0.7052
H46 H 0.0293 0.4611 0.7709
H47 H -0.0084 0.4470 0.7228
C61 C 0.0220(3) 0.2565(3) 0.7052(4)
H48 H 0.0405 0.2317 0.7238
H49 H 0.0271 0.2676 0.6664
H50 H -0.0030 0.2421 0.6977
C62 C 0.0442(3) 0.3220(4) 0.9169(4)
C63 C 0.0610(3) 0.3577(4) 0.9586(5)
H51 H 0.0671 0.3890 0.9445
N10 N 0.0688(3) 0.3477(4) 1.0208(5)
C64 C 0.0598(3) 0.3019(5) 1.0414(4)
C65 C 0.0431(4) 0.2662(4) 0.9997(5)
H52 H 0.0370 0.2350 1.0137
C66 C 0.0353(3) 0.2763(4) 0.9374(5)
H53 H 0.0238 0.2519 0.9089
C67 C 0.1356(3) 0.3414(4) 0.5226(5)
C68 C 0.1603(3) 0.3804(4) 0.5211(5)
C69 C 0.1990(3) 0.3716(4) 0.5332(6)
H54 H 0.2158 0.3986 0.5374
C70 C 0.2129(2) 0.3233(4) 0.5389(4)
C71 C 0.1877(3) 0.2852(4) 0.5408(6)
H55 H 0.1969 0.2526 0.5485
C72 C 0.1498(3) 0.2935(4) 0.5318(5)
C73 C 0.1467(4) 0.4328(4) 0.5171(7)
H56 H 0.1680 0.4551 0.5205
H57 H 0.1343 0.4393 0.5504
H58 H 0.1291 0.4380 0.4778
C74 C 0.1239(3) 0.2513(4) 0.5365(5)
H59 H 0.1384 0.2210 0.5469
H60 H 0.1059 0.2471 0.4973
H61 H 0.1105 0.2585 0.5685
C75 C 0.25342(16) 0.3152(3) 0.5554(3)
C76 C 0.2785(2) 0.3446(2) 0.5337(3)
H62 H 0.2697 0.3716 0.5074
N11 N 0.3165(2) 0.3344(3) 0.5505(3)
C77 C 0.32937(16) 0.2949(3) 0.5890(3)
C78 C 0.3043(2) 0.2656(3) 0.6107(3)
H63 H 0.3131 0.2386 0.6369
C79 C 0.2663(2) 0.2757(3) 0.5939(3)
H64 H 0.2492 0.2557 0.6087
C100 C 0.0646(5) 0.2932(6) 1.1085(5)
H101 H 0.0423 0.3048 1.1222
H102 H 0.0682 0.2577 1.1181
O9 O 0.0969(5) 0.3208(6) 1.1381(7)
C101 C 0.0993(6) 0.3147(5) 1.2051(7)
H103 H 0.0738 0.3126 1.2124
H104 H 0.1126 0.2837 1.2197
C102 C 0.1185(5) 0.3553(5) 1.2380(6)
H105 H 0.1454 0.3470 1.2492
H106 H 0.1101 0.3586 1.2765
O10 O 0.1148(4) 0.4031(4) 1.2085(7)
C103 C 0.0895(5) 0.4388(4) 1.2265(10)
H107 H 0.0747 0.4236 1.2532
H108 H 0.0724 0.4536 1.1905
C104 C 0.1162(6) 0.47551(9) 1.2601(9)
H109 H 0.1374 0.4613 1.2868
C105 C 0.3704(3) 0.2875(6) 0.6154(8)
H110 H 0.3764 0.2940 0.6600
H111 H 0.3777 0.2533 0.6085
O11 O 0.3895(4) 0.3216(5) 0.5849(7)
C106 C 0.4299(4) 0.3139(5) 0.6155(10)
H112 H 0.4325 0.3079 0.6597
H113 H 0.4397 0.2849 0.5976
C107 C 0.4501(4) 0.3569(5) 0.6067(10)
H114 H 0.4436 0.3665 0.5631
H115 H 0.4772 0.3500 0.6184
O12 O 0.4410(5) 0.3972(4) 0.6442(6)
C108 C 0.4343(6) 0.4437(4) 0.6111(8)
H116 H 0.4075 0.4496 0.5932
H117 H 0.4487 0.4467 0.5792
C109 C 0.4491(7) 0.47559(9) 0.6648(9)
H118 H 0.4595 0.4596 0.7024
C11B C 0.0569(3) 0.3470(4) 0.3565(5)
C11D C 0.0569(3) 0.6530(4) 0.3565(5)
C11F C -0.0569(3) 0.6530(4) 0.6435(5)
H5B H 0.0566 0.3423 0.3146
H5D H 0.0566 0.6577 0.3146
H5F H -0.0566 0.6577 0.6854
C12B C 0.0235(3) 0.3544(4) 0.3800(4)
C12F C -0.0235(3) 0.6456(4) 0.6200(4)
C12D C 0.0235(3) 0.6456(4) 0.3800(4)
C13B C -0.0127(2) 0.3544(4) 0.3444(4)
C13F C 0.0127(2) 0.6456(4) 0.6556(4)
C13D C -0.0127(2) 0.6456(4) 0.3444(4)
C14B C -0.0446(3) 0.3568(3) 0.3674(4)
C14F C 0.0446(3) 0.6432(3) 0.6326(4)
C14D C -0.0446(3) 0.6432(3) 0.3674(4)
C15B C -0.0829(3) 0.3545(4) 0.3311(5)
C15F C 0.0829(3) 0.6455(4) 0.6689(5)
C15D C -0.0829(3) 0.6455(4) 0.3311(5)
H6B H -0.0908 0.3549 0.2878
H6F H 0.0908 0.6451 0.7122
H6D H -0.0908 0.6451 0.2878
C16B C -0.1035(4) 0.3519(4) 0.3689(4)
C16F C 0.1035(4) 0.6481(4) 0.6311(4)
C16D C -0.1035(4) 0.6481(4) 0.3689(4)
H7B H -0.1299 0.3487 0.3575
H7F H 0.1299 0.6513 0.6425
H7D H -0.1299 0.6513 0.3575
C17B C -0.0820(3) 0.3544(4) 0.4322(4)
C17F C 0.0820(3) 0.6456(4) 0.5678(4)
C17D C -0.0820(3) 0.6456(4) 0.4322(4)
C18B C -0.0950(3) 0.3528(4) 0.4854(4)
C18F C 0.0950(3) 0.6472(4) 0.5146(4)
C18D C -0.0950(3) 0.6472(4) 0.4854(4)
C19B C -0.0726(3) 0.3514(4) 0.5438(4)
C19F C 0.0726(3) 0.6486(4) 0.4562(4)
C19D C -0.0726(3) 0.6486(4) 0.5438(4)
C20B C 0.0881(3) 0.3478(4) 0.4017(4)
C20D C 0.0881(3) 0.6522(4) 0.4017(4)
C20F C -0.0881(3) 0.6522(4) 0.5983(4)
H8F H -0.1134 0.6536 0.6009
H8D H 0.1134 0.6536 0.3991
H8B H 0.1134 0.3464 0.3991
N4B N -0.0453(3) 0.3583(3) 0.4286(3)
N4F N 0.0453(3) 0.6417(3) 0.5714(3)
N4D N -0.0453(3) 0.6417(3) 0.4286(3)
N5B N 0.0341(2) 0.3564(3) 0.4427(3)
N5D N 0.0341(2) 0.6436(3) 0.4427(3)
N5F N -0.0341(2) 0.6436(3) 0.5573(3)
Zn2F Zn 0.0000 0.62874(5) 0.5000
C25F C 0.0347(3) 0.5291(4) 0.5317(13)
C25B C -0.0347(3) 0.4709(4) 0.4683(13)
C25D C -0.0347(3) 0.5291(4) 0.4683(13)
H15F H 0.0545 0.5413 0.5121
H15B H -0.0545 0.4587 0.4879
H15D H -0.0545 0.5413 0.4879
H16F H 0.0403 0.5413 0.5743
H16B H -0.0403 0.4587 0.4257
H16D H -0.0403 0.5413 0.4257
C26D C 0.0068(10) 0.5294(4) 0.5595(4)
C26B C 0.0068(10) 0.4706(4) 0.5595(4)
C26F C -0.0068(10) 0.5294(4) 0.4405(4)
H17F H 0.0312 0.5416 0.5830
H17D H -0.0312 0.5416 0.4170
H17B H -0.0312 0.4584 0.4170
H18D H -0.0127 0.5416 0.5797
H18B H -0.0127 0.4584 0.5797
H18F H 0.0127 0.5416 0.4203
C27D C 0.0277(5) 0.5289(3) 0.4725(12)
C27B C 0.0277(5) 0.4711(3) 0.4725(12)
C27F C -0.0277(5) 0.5289(3) 0.5275(12)
H19B H -0.0233 0.4589 0.5700
H19F H 0.0233 0.5411 0.4300
H19D H -0.0233 0.5411 0.5700
H20D H -0.0524 0.5411 0.5050
H20F H 0.0524 0.5411 0.4950
H20B H -0.0524 0.4589 0.5050
N7F N 0.0000 0.5474(3) 0.5000
C54F C 0.0191(3) 0.6534(3) 0.7244(3)
C54D C -0.0191(3) 0.6534(3) 0.2756(3)
C54B C -0.0191(3) 0.3466(3) 0.2756(3)
C55F C 0.0204(4) 0.6135(3) 0.7635(4)
C55D C -0.0204(4) 0.6135(3) 0.2365(4)
C55B C -0.0204(4) 0.3865(3) 0.2365(4)
C56F C 0.0299(5) 0.6209(4) 0.8271(4)
C56D C -0.0299(5) 0.6209(4) 0.1729(4)
C56B C -0.0299(5) 0.3791(4) 0.1729(4)
H43F H 0.0320 0.5936 0.8540
H43D H -0.0320 0.5936 0.1460
H43B H -0.0320 0.4064 0.1460
C57F C 0.0361(3) 0.6687(4) 0.8504(4)
C57D C -0.0361(3) 0.6687(4) 0.1496(4)
C57B C -0.0361(3) 0.3313(4) 0.1496(4)
C58F C 0.0340(3) 0.7069(4) 0.8109(4)
C58D C -0.0340(3) 0.7069(4) 0.1891(4)
C58B C -0.0340(3) 0.2931(4) 0.1891(4)
H44F H 0.0392 0.7393 0.8267
H44D H -0.0392 0.7393 0.1733
H44B H -0.0392 0.2607 0.1733
C59F C 0.0243(3) 0.7002(3) 0.7477(4)
C59D C -0.0243(3) 0.7002(3) 0.2523(4)
C59B C -0.0243(3) 0.2998(3) 0.2523(4)
C60F C 0.0178(5) 0.5619(4) 0.7384(5)
C60D C -0.0178(5) 0.5619(4) 0.2616(5)
C60B C -0.0178(5) 0.4381(4) 0.2616(5)
H45F H 0.0310 0.5600 0.7052
H45D H -0.0310 0.5600 0.2948
H45B H -0.0310 0.4400 0.2948
H46F H 0.0293 0.5389 0.7709
H46D H -0.0293 0.5389 0.2291
H46B H -0.0293 0.4611 0.2291
H47F H -0.0084 0.5530 0.7228
H47D H 0.0084 0.5530 0.2772
H47B H 0.0084 0.4470 0.2772
C61F C 0.0220(3) 0.7435(3) 0.7052(4)
C61D C -0.0220(3) 0.7435(3) 0.2948(4)
C61B C -0.0220(3) 0.2565(3) 0.2948(4)
H48F H 0.0405 0.7683 0.7238
H48D H -0.0405 0.7683 0.2762
H48B H -0.0405 0.2317 0.2762
H49F H 0.0271 0.7324 0.6664
H49D H -0.0271 0.7324 0.3336
H49B H -0.0271 0.2676 0.3336
H50F H -0.0030 0.7579 0.6977
H50D H 0.0030 0.7579 0.3023
H50B H 0.0030 0.2421 0.3023
C62F C 0.0442(3) 0.6780(4) 0.9169(4)
C62D C -0.0442(3) 0.6780(4) 0.0831(4)
C62B C -0.0442(3) 0.3220(4) 0.0831(4)
C63F C 0.0610(3) 0.6423(4) 0.9586(5)
C63D C -0.0610(3) 0.6423(4) 0.0414(5)
C63B C -0.0610(3) 0.3577(4) 0.0414(5)
H51F H 0.0671 0.6110 0.9445
H51D H -0.0671 0.6110 0.0555
H51B H -0.0671 0.3890 0.0555
N10F N 0.0688(3) 0.6523(4) 1.0208(5)
N10D N -0.0688(3) 0.6523(4) -0.0208(5)
N10B N -0.0688(3) 0.3477(4) -0.0208(5)
C64F C 0.0598(3) 0.6981(5) 1.0414(4)
C64D C -0.0598(3) 0.6981(5) -0.0414(4)
C64B C -0.0598(3) 0.3019(5) -0.0414(4)
C65F C 0.0431(4) 0.7338(4) 0.9997(5)
C65D C -0.0431(4) 0.7338(4) 0.0003(5)
C65B C -0.0431(4) 0.2662(4) 0.0003(5)
H52F H 0.0370 0.7650 1.0137
H52D H -0.0370 0.7650 -0.0137
H52B H -0.0370 0.2350 -0.0137
C66F C 0.0353(3) 0.7237(4) 0.9374(5)
C66D C -0.0353(3) 0.7237(4) 0.0626(5)
C66B C -0.0353(3) 0.2763(4) 0.0626(5)
H53F H 0.0238 0.7481 0.9089
H53D H -0.0238 0.7481 0.0911
H53B H -0.0238 0.2519 0.0911
C67D C -0.1356(3) 0.6586(4) 0.4774(5)
C67B C -0.1356(3) 0.3414(4) 0.4774(5)
C67F C 0.1356(3) 0.6586(4) 0.5226(5)
C68D C -0.1603(3) 0.6196(4) 0.4789(5)
C68B C -0.1603(3) 0.3804(4) 0.4789(5)
C68F C 0.1603(3) 0.6196(4) 0.5211(5)
C69D C -0.1990(3) 0.6284(4) 0.4668(6)
C69B C -0.1990(3) 0.3716(4) 0.4668(6)
C69F C 0.1990(3) 0.6284(4) 0.5332(6)
H54D H -0.2158 0.6014 0.4626
H54B H -0.2158 0.3986 0.4626
H54F H 0.2158 0.6014 0.5374
C70D C -0.2129(2) 0.6767(4) 0.4611(4)
C70B C -0.2129(2) 0.3233(4) 0.4611(4)
C70F C 0.2129(2) 0.6767(4) 0.5389(4)
C71D C -0.1877(3) 0.7148(4) 0.4592(6)
C71B C -0.1877(3) 0.2852(4) 0.4592(6)
C71F C 0.1877(3) 0.7148(4) 0.5408(6)
H55D H -0.1969 0.7474 0.4515
H55B H -0.1969 0.2526 0.4515
H55F H 0.1969 0.7474 0.5485
C72D C -0.1498(3) 0.7065(4) 0.4682(5)
C72B C -0.1498(3) 0.2935(4) 0.4682(5)
C72F C 0.1498(3) 0.7065(4) 0.5318(5)
C73B C -0.1467(4) 0.4328(4) 0.4829(7)
C73D C -0.1467(4) 0.5672(4) 0.4829(7)
C73F C 0.1467(4) 0.5672(4) 0.5171(7)
H56B H -0.1680 0.4551 0.4795
H56D H -0.1680 0.5449 0.4795
H56F H 0.1680 0.5449 0.5205
H57B H -0.1343 0.4393 0.4496
H57D H -0.1343 0.5607 0.4496
H57F H 0.1343 0.5607 0.5504
H58B H -0.1291 0.4380 0.5222
H58D H -0.1291 0.5620 0.5222
H58F H 0.1291 0.5620 0.4778
C74D C -0.1239(3) 0.7487(4) 0.4635(5)
C74B C -0.1239(3) 0.2513(4) 0.4635(5)
C74F C 0.1239(3) 0.7487(4) 0.5365(5)
H59D H -0.1384 0.7790 0.4531
H59B H -0.1384 0.2210 0.4531
H59F H 0.1384 0.7790 0.5469
H60D H -0.1059 0.7529 0.5027
H60B H -0.1059 0.2471 0.5027
H60F H 0.1059 0.7529 0.4973
H61D H -0.1105 0.7415 0.4315
H61B H -0.1105 0.2585 0.4315
H61F H 0.1105 0.7415 0.5685
C75D C -0.25342(16) 0.6848(3) 0.4446(3)
C75B C -0.25342(16) 0.3152(3) 0.4446(3)
C75F C 0.25342(16) 0.6848(3) 0.5554(3)
C76D C -0.2785(2) 0.6554(2) 0.4663(3)
C76B C -0.2785(2) 0.3446(2) 0.4663(3)
C76F C 0.2785(2) 0.6554(2) 0.5337(3)
H62D H -0.2697 0.6284 0.4926
H62B H -0.2697 0.3716 0.4926
H62F H 0.2697 0.6284 0.5074
N11D N -0.3165(2) 0.6656(3) 0.4495(3)
N11B N -0.3165(2) 0.3344(3) 0.4495(3)
N11F N 0.3165(2) 0.6656(3) 0.5505(3)
C77D C -0.32937(16) 0.7051(3) 0.4110(3)
C77B C -0.32937(16) 0.2949(3) 0.4110(3)
C77F C 0.32937(16) 0.7051(3) 0.5890(3)
C78D C -0.3043(2) 0.7344(3) 0.3893(3)
C78B C -0.3043(2) 0.2656(3) 0.3893(3)
C78F C 0.3043(2) 0.7344(3) 0.6107(3)
H63D H -0.3131 0.7614 0.3631
H63B H -0.3131 0.2386 0.3631
H63F H 0.3131 0.7614 0.6369
C79D C -0.2663(2) 0.7243(3) 0.4061(3)
C79B C -0.2663(2) 0.2757(3) 0.4061(3)
C79F C 0.2663(2) 0.7243(3) 0.5939(3)
H64D H -0.2492 0.7443 0.3913
H64B H -0.2492 0.2557 0.3913
H64F H 0.2492 0.7443 0.6087
C100F C 0.0646(5) 0.7068(6) 1.1085(5)
C100D C -0.0646(5) 0.7068(6) -0.1085(5)
C100B C -0.0646(5) 0.2932(6) -0.1085(5)
H101F H 0.0423 0.6952 1.1222
H101D H -0.0423 0.6952 -0.1222
H101B H -0.0423 0.3048 -0.1222
H102F H 0.0682 0.7423 1.1181
H102D H -0.0682 0.7423 -0.1181
H102B H -0.0682 0.2577 -0.1181
O9F O 0.0969(5) 0.6792(6) 1.1381(7)
O9D O -0.0969(5) 0.6792(6) -0.1381(7)
O9B O -0.0969(5) 0.3208(6) -0.1381(7)
C101F C 0.0993(6) 0.6853(5) 1.2051(7)
C101D C -0.0993(6) 0.6853(5) -0.2051(7)
C101B C -0.0993(6) 0.3147(5) -0.2051(7)
H103F H 0.0738 0.6874 1.2124
H103D H -0.0738 0.6874 -0.2124
H103B H -0.0738 0.3126 -0.2124
H104F H 0.1126 0.7163 1.2197
H104D H -0.1126 0.7163 -0.2197
H104B H -0.1126 0.2837 -0.2197
C102F C 0.1185(5) 0.6447(5) 1.2380(6)
C102D C -0.1185(5) 0.6447(5) -0.2380(6)
C102B C -0.1185(5) 0.3553(5) -0.2380(6)
H105F H 0.1454 0.6530 1.2492
H105D H -0.1454 0.6530 -0.2492
H105B H -0.1454 0.3470 -0.2492
H106F H 0.1101 0.6414 1.2765
H106D H -0.1101 0.6414 -0.2765
H106B H -0.1101 0.3586 -0.2765
O10F O 0.1148(4) 0.5969(4) 1.2085(7)
O10D O -0.1148(4) 0.5969(4) -0.2085(7)
O10B O -0.1148(4) 0.4031(4) -0.2085(7)
C103F C 0.0895(5) 0.5612(4) 1.2265(10)
C103D C -0.0895(5) 0.5612(4) -0.2265(10)
C103B C -0.0895(5) 0.4388(4) -0.2265(10)
H107F H 0.0747 0.5764 1.2532
H107D H -0.0747 0.5764 -0.2532
H107B H -0.0747 0.4236 -0.2532
H108F H 0.0724 0.5464 1.1905
H108D H -0.0724 0.5464 -0.1905
H108B H -0.0724 0.4536 -0.1905
C104F C 0.1162(6) 0.52449(9) 1.2601(9)
C104D C -0.1162(6) 0.52449(9) -0.2601(9)
C104B C -0.1162(6) 0.47551(9) -0.2601(9)
H109F H 0.1374 0.5387 1.2868
H109D H -0.1374 0.5387 -0.2868
H109B H -0.1374 0.4613 -0.2868
C105D C -0.3704(3) 0.7125(6) 0.3846(8)
C105B C -0.3704(3) 0.2875(6) 0.3846(8)
C105F C 0.3704(3) 0.7125(6) 0.6154(8)
H110D H -0.3764 0.7060 0.3400
H110B H -0.3764 0.2940 0.3400
H110F H 0.3764 0.7060 0.6600
H111D H -0.3777 0.7467 0.3915
H111B H -0.3777 0.2533 0.3915
H111F H 0.3777 0.7467 0.6085
O11D O -0.3895(4) 0.6784(5) 0.4151(7)
O11B O -0.3895(4) 0.3216(5) 0.4151(7)
O11F O 0.3895(4) 0.6784(5) 0.5849(7)
C106D C -0.4299(4) 0.6861(5) 0.3845(10)
C106B C -0.4299(4) 0.3139(5) 0.3845(10)
C106F C 0.4299(4) 0.6861(5) 0.6155(10)
H112D H -0.4325 0.6921 0.3403
H112B H -0.4325 0.3079 0.3403
H112F H 0.4325 0.6921 0.6597
H113D H -0.4397 0.7151 0.4024
H113B H -0.4397 0.2849 0.4024
H113F H 0.4397 0.7151 0.5976
C107D C -0.4501(4) 0.6431(5) 0.3933(10)
C107B C -0.4501(4) 0.3569(5) 0.3933(10)
C107F C 0.4501(4) 0.6431(5) 0.6067(10)
H114D H -0.4436 0.6335 0.4369
H114B H -0.4436 0.3665 0.4369
H114F H 0.4436 0.6335 0.5631
H115D H -0.4772 0.6500 0.3816
H115B H -0.4772 0.3500 0.3816
H115F H 0.4772 0.6500 0.6184
O12D O -0.4410(5) 0.6028(4) 0.3558(6)
O12B O -0.4410(5) 0.3972(4) 0.3558(6)
O12F O 0.4410(5) 0.6028(4) 0.6442(6)
C108D C -0.4343(6) 0.5563(4) 0.3889(8)
C108B C -0.4343(6) 0.4437(4) 0.3889(8)
C108F C 0.4343(6) 0.5563(4) 0.6111(8)
H116D H -0.4075 0.5504 0.4068
H116B H -0.4075 0.4496 0.4068
H116F H 0.4075 0.5504 0.5932
H117D H -0.4487 0.5533 0.4208
H117B H -0.4487 0.4467 0.4208
H117F H 0.4487 0.5533 0.5792
C109D C -0.4491(7) 0.52441(9) 0.3352(9)
C109B C -0.4491(7) 0.47559(9) 0.3352(9)
C109F C 0.4491(7) 0.52441(9) 0.6648(9)
H118B H -0.4595 0.4596 0.2976
H118D H -0.4595 0.5404 0.2976
H118F H 0.4595 0.5404 0.7024
H65? H -0.2438 0.3200 0.2594
H66? H -0.2223 0.3191 0.3306
C85? C -0.2197(4) 0.3260(5) 0.2886(7)
H74? H -0.2446 0.3126 0.2696
H75? H -0.2169 0.3288 0.3333
O3? O -0.2129(6) 0.3727(7) 0.2614(11)
C86? C -0.2448(10) 0.4056(9) 0.2625(10)
H76? H -0.2669 0.3861 0.2661
H77? H -0.2384 0.4288 0.2973
C87? C -0.2518(5) 0.4316(5) 0.2057(12)
H78? H -0.2278 0.4401 0.1952
H79? H -0.2653 0.4625 0.2091
O4? O -0.2742(6) 0.4001(9) 0.1575(10)
C88? C -0.2625(8) 0.4140(12) 0.1019(10)
H80? H -0.2352 0.4187 0.1100
H81? H -0.2751 0.4447 0.0839
C89? C -0.2746(10) 0.3712(12) 0.0613(12)
H82? H -0.2619 0.3410 0.0734
C95? C 0.2849(5) 0.3613(6) 0.1966(7)
H92? H 0.2838 0.3809 0.2333
H93? H 0.3105 0.3481 0.2022
O7? O 0.2764(6) 0.3927(11) 0.1429(10)
C96? C 0.3047(10) 0.4324(9) 0.1558(12)
H94? H 0.2944 0.4615 0.1728
H95? H 0.3270 0.4209 0.1862
C97? C 0.3148(6) 0.4454(9) 0.1005(10)
H96? H 0.3300 0.4759 0.1067
H97? H 0.2921 0.4518 0.0682
O8? O 0.3368(6) 0.4044(12) 0.0808(9)
C98? C 0.3265(8) 0.4110(14) 0.0145(9)
H98? H 0.3490 0.4100 -0.0025
H99? H 0.3139 0.4431 0.0039
C99? C 0.3012(11) 0.3701(11) -0.0100(12)
H100? H 0.3040 0.3403 0.0128
loop_
_geom_bond_atom_site_label_1
_geom_bond_atom_site_label_2
_geom_bond_site_symmetry_1
_geom_bond_site_symmetry_2
C1 H1 1_555 1_555
C2 C1 1_555 1_555
C3 C2 1_555 1_555
C4 C3 1_555 1_555
C5 C4 1_555 1_555
H2 C5 1_555 1_555
C6 C5 1_555 1_555
H3 C6 1_555 1_555
C7 C6 1_555 1_555
C8 C7 1_555 1_555
C9 C8 1_555 1_555
C10 C9 1_555 1_555
H4 C10 1_555 1_555
N1 C2 1_555 1_555
N2 C4 1_555 1_555
N3 C9 1_555 1_555
Zn1 N1 1_555 1_555
C11 H5 1_555 1_555
C12 C11 1_555 1_555
C13 C12 1_555 1_555
C14 C13 1_555 1_555
C15 C14 1_555 1_555
H6 C15 1_555 1_555
C16 C15 1_555 1_555
H7 C16 1_555 1_555
C17 C16 1_555 1_555
C18 C17 1_555 1_555
C19 C18 1_555 1_555
C20 C11 1_555 1_555
H8 C20 1_555 1_555
N4 C14 1_555 1_555
N5 C12 1_555 1_555
Zn2 N4 1_555 1_555
C21 C24 1_555 1_555
C22 C23 1_555 1_555
C23 H9 1_555 1_555
H9 C22 1_555 1_555
H10 C23 1_555 1_555
C24 C23 1_555 1_555
H11 C23 1_555 1_555
H12 C21 1_555 1_555
N6 Zn1 1_555 1_555
H13 C21 1_555 1_555
H14 C22 1_555 1_555
C25 H15 1_555 1_555
H15 H20 1_555 1_555
H16 C25 1_555 1_555
C26 H18 1_555 1_555
H17 C25 1_555 1_555
H18 H19 1_555 1_555
C27 N7 1_555 1_555
H19 C26 1_555 1_555
H20 C25 1_555 1_555
N7 Zn2 1_555 1_555
C28 C3 1_555 1_555
C29 C28 1_555 1_555
C30 C29 1_555 1_555
H21 C30 1_555 1_555
C31 C30 1_555 1_555
C32 C31 1_555 1_555
H22 C32 1_555 1_555
C33 C28 1_555 1_555
C34 C29 1_555 1_555
H23 C34 1_555 1_555
H24 C34 1_555 1_555
H25 C34 1_555 1_555
C35 C33 1_555 1_555
H26 C35 1_555 1_555
H27 C35 1_555 1_555
H28 C35 1_555 1_555
C36 C31 1_555 1_555
C37 C36 1_555 1_555
H29 C37 1_555 1_555
N8 C37 1_555 1_555
C38 N8 1_555 1_555
C39 C38 1_555 1_555
H30 C39 1_555 1_555
C40 C36 1_555 1_555
H31 C40 1_555 1_555
C41 C8 1_555 1_555
C42 C41 1_555 1_555
C43 C42 1_555 1_555
H32 C43 1_555 1_555
C44 C43 1_555 1_555
C45 C44 1_555 1_555
H33 C45 1_555 1_555
C46 C41 1_555 1_555
C47 C42 1_555 1_555
H34 C47 1_555 1_555
H35 C47 1_555 1_555
H36 C47 1_555 1_555
C48 C46 1_555 1_555
H37 C48 1_555 1_555
H38 C48 1_555 1_555
H39 C48 1_555 1_555
C49 C44 1_555 1_555
C50 C49 1_555 1_555
H40 C50 1_555 1_555
N9 C50 1_555 1_555
C51 N9 1_555 1_555
C52 C51 1_555 1_555
H41 C52 1_555 1_555
C53 C49 1_555 1_555
H42 C53 1_555 1_555
C54 C13 1_555 1_555
C55 C54 1_555 1_555
C56 C55 1_555 1_555
H43 C56 1_555 1_555
C57 C56 1_555 1_555
C58 C57 1_555 1_555
H44 C58 1_555 1_555
C59 C54 1_555 1_555
C60 C55 1_555 1_555
H45 C60 1_555 1_555
H46 C60 1_555 1_555
H47 C60 1_555 1_555
C61 C59 1_555 1_555
H48 C61 1_555 1_555
H49 C61 1_555 1_555
H50 C61 1_555 1_555
C62 C57 1_555 1_555
C63 C62 1_555 1_555
H51 C63 1_555 1_555
N10 C63 1_555 1_555
C64 N10 1_555 1_555
C65 C64 1_555 1_555
H52 C65 1_555 1_555
C66 C62 1_555 1_555
H53 C66 1_555 1_555
C67 C18 1_555 1_555
C68 C67 1_555 1_555
C69 C68 1_555 1_555
H54 C69 1_555 1_555
C70 C69 1_555 1_555
C71 C70 1_555 1_555
H55 C71 1_555 1_555
C72 C67 1_555 1_555
C73 C68 1_555 1_555
H56 C73 1_555 1_555
H57 C73 1_555 1_555
H58 C73 1_555 1_555
C74 C72 1_555 1_555
H59 C74 1_555 1_555
H60 C74 1_555 1_555
H61 C74 1_555 1_555
C75 C70 1_555 1_555
C76 C75 1_555 1_555
H62 C76 1_555 1_555
N11 C76 1_555 1_555
C77 N11 1_555 1_555
C78 C77 1_555 1_555
H63 C78 1_555 1_555
C79 C75 1_555 1_555
H64 C79 1_555 1_555
C80 C38 1_555 1_555
O1 C80 1_555 1_555
C81 O1 1_555 1_555
H67 C81 1_555 1_555
H68 C81 1_555 1_555
C82 C81 1_555 1_555
H69 C82 1_555 1_555
H70 C82 1_555 1_555
O2 C82 1_555 1_555
C83 O2 1_555 1_555
H71 C83 1_555 1_555
H72 C83 1_555 1_555
C84 C83 1_555 1_555
H73 C84 1_555 1_555
C90 C51 1_555 1_555
H83 C90 1_555 1_555
H84 C90 1_555 1_555
O5 C90 1_555 1_555
C91 O5 1_555 1_555
H85 C91 1_555 1_555
H86 C91 1_555 1_555
C92 C91 1_555 1_555
H87 C92 1_555 1_555
H88 C92 1_555 1_555
O6 C92 1_555 1_555
C93 O6 1_555 1_555
H89 C93 1_555 1_555
H90 C93 1_555 1_555
C94 C84 1_555 1_555
H91 C94 1_555 1_555
C100 C64 1_555 1_555
H101 C100 1_555 1_555
H102 C100 1_555 1_555
O9 C100 1_555 1_555
C101 O9 1_555 1_555
H103 C101 1_555 1_555
H104 C101 1_555 1_555
C102 C101 1_555 1_555
H105 C102 1_555 1_555
H106 C102 1_555 1_555
O10 C102 1_555 1_555
C103 O10 1_555 1_555
H107 C103 1_555 1_555
H108 C103 1_555 1_555
C104 C103 1_555 1_555
H109 C104 1_555 1_555
C105 C77 1_555 1_555
H110 C105 1_555 1_555
H111 C105 1_555 1_555
O11 C105 1_555 1_555
C106 O11 1_555 1_555
H112 C106 1_555 1_555
H113 C106 1_555 1_555
C107 C106 1_555 1_555
H114 C107 1_555 1_555
H115 C107 1_555 1_555
O12 C107 1_555 1_555
C108 O12 1_555 1_555
H116 C108 1_555 1_555
H117 C108 1_555 1_555
C109 C108 1_555 1_555
H118 C109 1_555 1_555
C1F C1 1_555 1_555
C1D C1B 1_555 1_555
C1B H1B 1_555 1_555
H1F C1F 1_555 1_555
H1D C1D 1_555 1_555
C2F N1 1_555 1_555
C2D C1D 1_555 1_555
C2B C1B 1_555 1_555
C3F C2F 1_555 1_555
C3B C2B 1_555 1_555
C3D C2D 1_555 1_555
C4F C3F 1_555 1_555
C4B C3B 1_555 1_555
C4D C3D 1_555 1_555
C5F C4F 1_555 1_555
C5B C4B 1_555 1_555
C5D C4D 1_555 1_555
H2F C5F 1_555 1_555
H2B C5B 1_555 1_555
H2D C5D 1_555 1_555
C6F C5F 1_555 1_555
C6B C5B 1_555 1_555
C6D C5D 1_555 1_555
H3F C6F 1_555 1_555
H3B C6B 1_555 1_555
H3D C6D 1_555 1_555
C7F C6F 1_555 1_555
C7B C6B 1_555 1_555
C7D C6D 1_555 1_555
C8F C7F 1_555 1_555
C8B C7B 1_555 1_555
C8D C7D 1_555 1_555
C9F N3 1_555 1_555
C9B C8B 1_555 1_555
C9D C8D 1_555 1_555
C10F C10 1_555 1_555
C10B C9B 1_555 1_555
C10D C9D 1_555 1_555
H4D C10D 1_555 1_555
H4B C10B 1_555 1_555
H4F C10F 1_555 1_555
N1D C2D 1_555 1_555
N2F Zn1 1_555 1_555
N2D C4D 1_555 1_555
N2B C4B 1_555 1_555
N3D C9B 1_555 1_555
Zn1D N1D 1_555 1_555
C11B H5B 1_555 1_555
C11D H5D 1_555 1_555
C11F H5F 1_555 1_555
C12B C11B 1_555 1_555
C12F C11F 1_555 1_555
C12D C11D 1_555 1_555
C13B C12B 1_555 1_555
C13F C12F 1_555 1_555
C13D C12D 1_555 1_555
C14B C13B 1_555 1_555
C14F C13F 1_555 1_555
C14D C13D 1_555 1_555
C15B C14B 1_555 1_555
C15F C14F 1_555 1_555
C15D C14D 1_555 1_555
H6B C15B 1_555 1_555
H6F C15F 1_555 1_555
H6D C15D 1_555 1_555
C16B C15B 1_555 1_555
C16F C15F 1_555 1_555
C16D C15D 1_555 1_555
H7B C16B 1_555 1_555
H7F C16F 1_555 1_555
H7D C16D 1_555 1_555
C17B C16B 1_555 1_555
C17F C16F 1_555 1_555
C17D C16D 1_555 1_555
C18B C17B 1_555 1_555
C18F C17F 1_555 1_555
C18D C17D 1_555 1_555
C19B C20 1_555 1_555
C19F C18F 1_555 1_555
C19D C18D 1_555 1_555
C20B C19 1_555 1_555
C20D C11D 1_555 1_555
C20F C11F 1_555 1_555
H8F C20F 1_555 1_555
H8D C20D 1_555 1_555
H8B C20B 1_555 1_555
N4B Zn2 1_555 1_555
N4F C14F 1_555 1_555
N4D C14D 1_555 1_555
N5B C19 1_555 1_555
N5D C12D 1_555 1_555
N5F C12F 1_555 1_555
Zn2F N4F 1_555 1_555
C21D C22 1_555 1_555
C22D C21 1_555 1_555
C23D C22D 1_555 1_555
C23B C24 1_555 1_555
C23F C22 1_555 1_555
H9D C22D 1_555 1_555
H9B C22D 1_555 1_555
H9F C22 1_555 1_555
H10F C23F 1_555 1_555
H10D C23D 1_555 1_555
H10B C23B 1_555 1_555
C24F C21 1_555 1_555
C24D C21D 1_555 1_555
C24B C23 1_555 1_555
H11B C23B 1_555 1_555
H11D C23D 1_555 1_555
H11F C23F 1_555 1_555
H12B C21D 1_555 1_555
H12D C21D 1_555 1_555
H12F C21 1_555 1_555
N6D Zn1D 1_555 1_555
H13F C21 1_555 1_555
H13B C21D 1_555 1_555
H13D C21D 1_555 1_555
H14F C22 1_555 1_555
H14D C22D 1_555 1_555
H14B C22D 1_555 1_555
C25F C25 1_555 1_555
C25B C26 1_555 1_555
C25D C25B 1_555 1_555
H15F C25F 1_555 1_555
H15B C27 1_555 1_555
H15D C25D 1_555 1_555
H16F C25F 1_555 1_555
H16B C26 1_555 1_555
H16D C25D 1_555 1_555
C26D C25F 1_555 1_555
C26B C25 1_555 1_555
C26F C26 1_555 1_555
H17F C25F 1_555 1_555
H17D C25D 1_555 1_555
H17B C26 1_555 1_555
H18D C26D 1_555 1_555
H18B C27 1_555 1_555
H18F C26F 1_555 1_555
C27D C25F 1_555 1_555
C27B C25 1_555 1_555
C27F C27 1_555 1_555
H19B C27 1_555 1_555
H19F C26F 1_555 1_555
H19D C26D 1_555 1_555
H20D C25D 1_555 1_555
H20F C25F 1_555 1_555
H20B C27 1_555 1_555
N7F Zn2F 1_555 1_555
C28D C3D 1_555 1_555
C28F C3F 1_555 1_555
C28B C3B 1_555 1_555
C29D C28D 1_555 1_555
C29F C28F 1_555 1_555
C29B C28B 1_555 1_555
C30D C29D 1_555 1_555
C30F C29F 1_555 1_555
C30B C29B 1_555 1_555
H21D C30D 1_555 1_555
H21F C30F 1_555 1_555
H21B C30B 1_555 1_555
C31D C30D 1_555 1_555
C31F C30F 1_555 1_555
C31B C30B 1_555 1_555
C32D C31D 1_555 1_555
C32F C31F 1_555 1_555
C32B C31B 1_555 1_555
H22D C32D 1_555 1_555
H22F C32F 1_555 1_555
H22B C32B 1_555 1_555
C33D C28D 1_555 1_555
C33F C28F 1_555 1_555
C33B C28B 1_555 1_555
C34D C29D 1_555 1_555
C34F C29F 1_555 1_555
C34B C29B 1_555 1_555
H23D C34D 1_555 1_555
H23F C34F 1_555 1_555
H23B C34B 1_555 1_555
H24D C34D 1_555 1_555
H24F C34F 1_555 1_555
H24B C34B 1_555 1_555
H25D C34D 1_555 1_555
H25F C34F 1_555 1_555
H25B C34B 1_555 1_555
C35D C33D 1_555 1_555
C35F C33F 1_555 1_555
C35B C33B 1_555 1_555
H26D C35D 1_555 1_555
H26F C35F 1_555 1_555
H26B C35B 1_555 1_555
H27D C35D 1_555 1_555
H27F C35F 1_555 1_555
H27B C35B 1_555 1_555
H28D C35D 1_555 1_555
H28F C35F 1_555 1_555
H28B C35B 1_555 1_555
C36D C31D 1_555 1_555
C36F C31F 1_555 1_555
C36B C31B 1_555 1_555
C37D C36D 1_555 1_555
C37F C36F 1_555 1_555
C37B C36B 1_555 1_555
H29D C37D 1_555 1_555
H29F C37F 1_555 1_555
H29B C37B 1_555 1_555
N8D C37D 1_555 1_555
N8F C37F 1_555 1_555
N8B C37B 1_555 1_555
C38D N8D 1_555 1_555
C38F N8F 1_555 1_555
C38B N8B 1_555 1_555
C39D C38D 1_555 1_555
C39F C38F 1_555 1_555
C39B C38B 1_555 1_555
H30D C39D 1_555 1_555
H30F C39F 1_555 1_555
H30B C39B 1_555 1_555
C40D C36D 1_555 1_555
C40F C36F 1_555 1_555
C40B C36B 1_555 1_555
H31D C40D 1_555 1_555
H31F C40F 1_555 1_555
H31B C40B 1_555 1_555
C41F C8F 1_555 1_555
C41D C8D 1_555 1_555
C41B C8B 1_555 1_555
C42F C41F 1_555 1_555
C42D C41D 1_555 1_555
C42B C41B 1_555 1_555
C43F C42F 1_555 1_555
C43D C42D 1_555 1_555
C43B C42B 1_555 1_555
H32F C43F 1_555 1_555
H32D C43D 1_555 1_555
H32B C43B 1_555 1_555
C44F C43F 1_555 1_555
C44D C43D 1_555 1_555
C44B C43B 1_555 1_555
C45F C44F 1_555 1_555
C45D C44D 1_555 1_555
C45B C44B 1_555 1_555
H33F C45F 1_555 1_555
H33D C45D 1_555 1_555
H33B C45B 1_555 1_555
C46F C41F 1_555 1_555
C46D C41D 1_555 1_555
C46B C41B 1_555 1_555
C47F C42F 1_555 1_555
C47D C42D 1_555 1_555
C47B C42B 1_555 1_555
H34F C47F 1_555 1_555
H34D C47D 1_555 1_555
H34B C47B 1_555 1_555
H35F C47F 1_555 1_555
H35D C47D 1_555 1_555
H35B C47B 1_555 1_555
H36F C47F 1_555 1_555
H36D C47D 1_555 1_555
H36B C47B 1_555 1_555
C48F C46F 1_555 1_555
C48D C46D 1_555 1_555
C48B C46B 1_555 1_555
H37F C48F 1_555 1_555
H37D C48D 1_555 1_555
H37B C48B 1_555 1_555
H38F C48F 1_555 1_555
H38D C48D 1_555 1_555
H38B C48B 1_555 1_555
H39F C48F 1_555 1_555
H39D C48D 1_555 1_555
H39B C48B 1_555 1_555
C49F C44F 1_555 1_555
C49D C44D 1_555 1_555
C49B C44B 1_555 1_555
C50F C49F 1_555 1_555
C50D C49D 1_555 1_555
C50B C49B 1_555 1_555
H40F C50F 1_555 1_555
H40D C50D 1_555 1_555
H40B C50B 1_555 1_555
N9F C50F 1_555 1_555
N9D C50D 1_555 1_555
N9B C50B 1_555 1_555
C51F N9F 1_555 1_555
C51D N9D 1_555 1_555
C51B N9B 1_555 1_555
C52F C51F 1_555 1_555
C52D C51D 1_555 1_555
C52B C51B 1_555 1_555
H41F C52F 1_555 1_555
H41D C52D 1_555 1_555
H41B C52B 1_555 1_555
C53F C49F 1_555 1_555
C53D C49D 1_555 1_555
C53B C49B 1_555 1_555
H42F C53F 1_555 1_555
H42D C53D 1_555 1_555
H42B C53B 1_555 1_555
C54F C13F 1_555 1_555
C54D C13D 1_555 1_555
C54B C13B 1_555 1_555
C55F C54F 1_555 1_555
C55D C54D 1_555 1_555
C55B C54B 1_555 1_555
C56F C55F 1_555 1_555
C56D C55D 1_555 1_555
C56B C55B 1_555 1_555
H43F C56F 1_555 1_555
H43D C56D 1_555 1_555
H43B C56B 1_555 1_555
C57F C56F 1_555 1_555
C57D C56D 1_555 1_555
C57B C56B 1_555 1_555
C58F C57F 1_555 1_555
C58D C57D 1_555 1_555
C58B C57B 1_555 1_555
H44F C58F 1_555 1_555
H44D C58D 1_555 1_555
H44B C58B 1_555 1_555
C59F C54F 1_555 1_555
C59D C54D 1_555 1_555
C59B C54B 1_555 1_555
C60F C55F 1_555 1_555
C60D C55D 1_555 1_555
C60B C55B 1_555 1_555
H45F C60F 1_555 1_555
H45D C60D 1_555 1_555
H45B C60B 1_555 1_555
H46F C60F 1_555 1_555
H46D C60D 1_555 1_555
H46B C60B 1_555 1_555
H47F C60F 1_555 1_555
H47D C60D 1_555 1_555
H47B C60B 1_555 1_555
C61F C59F 1_555 1_555
C61D C59D 1_555 1_555
C61B C59B 1_555 1_555
H48F C61F 1_555 1_555
H48D C61D 1_555 1_555
H48B C61B 1_555 1_555
H49F C61F 1_555 1_555
H49D C61D 1_555 1_555
H49B C61B 1_555 1_555
H50F C61F 1_555 1_555
H50D C61D 1_555 1_555
H50B C61B 1_555 1_555
C62F C57F 1_555 1_555
C62D C57D 1_555 1_555
C62B C57B 1_555 1_555
C63F C62F 1_555 1_555
C63D C62D 1_555 1_555
C63B C62B 1_555 1_555
H51F C63F 1_555 1_555
H51D C63D 1_555 1_555
H51B C63B 1_555 1_555
N10F C63F 1_555 1_555
N10D C63D 1_555 1_555
N10B C63B 1_555 1_555
C64F N10F 1_555 1_555
C64D N10D 1_555 1_555
C64B N10B 1_555 1_555
C65F C64F 1_555 1_555
C65D C64D 1_555 1_555
C65B C64B 1_555 1_555
H52F C65F 1_555 1_555
H52D C65D 1_555 1_555
H52B C65B 1_555 1_555
C66F C62F 1_555 1_555
C66D C62D 1_555 1_555
C66B C62B 1_555 1_555
H53F C66F 1_555 1_555
H53D C66D 1_555 1_555
H53B C66B 1_555 1_555
C67D C18D 1_555 1_555
C67B C18B 1_555 1_555
C67F C18F 1_555 1_555
C68D C67D 1_555 1_555
C68B C67B 1_555 1_555
C68F C67F 1_555 1_555
C69D C68D 1_555 1_555
C69B C68B 1_555 1_555
C69F C68F 1_555 1_555
H54D C69D 1_555 1_555
H54B C69B 1_555 1_555
H54F C69F 1_555 1_555
C70D C69D 1_555 1_555
C70B C69B 1_555 1_555
C70F C69F 1_555 1_555
C71D C70D 1_555 1_555
C71B C70B 1_555 1_555
C71F C70F 1_555 1_555
H55D C71D 1_555 1_555
H55B C71B 1_555 1_555
H55F C71F 1_555 1_555
C72D C67D 1_555 1_555
C72B C67B 1_555 1_555
C72F C67F 1_555 1_555
C73B C68B 1_555 1_555
C73D C68D 1_555 1_555
C73F C68F 1_555 1_555
H56B C73B 1_555 1_555
H56D C73D 1_555 1_555
H56F C73F 1_555 1_555
H57B C73B 1_555 1_555
H57D C73D 1_555 1_555
H57F C73F 1_555 1_555
H58B C73B 1_555 1_555
H58D C73D 1_555 1_555
H58F C73F 1_555 1_555
C74D C72D 1_555 1_555
C74B C72B 1_555 1_555
C74F C72F 1_555 1_555
H59D C74D 1_555 1_555
H59B C74B 1_555 1_555
H59F C74F 1_555 1_555
H60D C74D 1_555 1_555
H60B C74B 1_555 1_555
H60F C74F 1_555 1_555
H61D C74D 1_555 1_555
H61B C74B 1_555 1_555
H61F C74F 1_555 1_555
C75D C70D 1_555 1_555
C75B C70B 1_555 1_555
C75F C70F 1_555 1_555
C76D C75D 1_555 1_555
C76B C75B 1_555 1_555
C76F C75F 1_555 1_555
H62D C76D 1_555 1_555
H62B C76B 1_555 1_555
H62F C76F 1_555 1_555
N11D C76D 1_555 1_555
N11B C76B 1_555 1_555
N11F C76F 1_555 1_555
C77D N11D 1_555 1_555
C77B N11B 1_555 1_555
C77F N11F 1_555 1_555
C78D C77D 1_555 1_555
C78B C77B 1_555 1_555
C78F C77F 1_555 1_555
H63D C78D 1_555 1_555
H63B C78B 1_555 1_555
H63F C78F 1_555 1_555
C79D C75D 1_555 1_555
C79B C75B 1_555 1_555
C79F C75F 1_555 1_555
H64D C79D 1_555 1_555
H64B C79B 1_555 1_555
H64F C79F 1_555 1_555
C80D C38D 1_555 1_555
C80F C38F 1_555 1_555
C80B C38B 1_555 1_555
O1D C80D 1_555 1_555
O1F C80F 1_555 1_555
O1B C80B 1_555 1_555
C81D O1D 1_555 1_555
C81F O1F 1_555 1_555
C81B O1B 1_555 1_555
H67D C81D 1_555 1_555
H67F C81F 1_555 1_555
H67B C81B 1_555 1_555
H68D C81D 1_555 1_555
H68F C81F 1_555 1_555
H68B C81B 1_555 1_555
C82D C81D 1_555 1_555
C82F C81F 1_555 1_555
C82B C81B 1_555 1_555
H69D C82D 1_555 1_555
H69F C82F 1_555 1_555
H69B C82B 1_555 1_555
H70D C82D 1_555 1_555
H70F C82F 1_555 1_555
H70B C82B 1_555 1_555
O2D C82D 1_555 1_555
O2F C82F 1_555 1_555
O2B C82B 1_555 1_555
C83D O2D 1_555 1_555
C83F O2F 1_555 1_555
C83B O2B 1_555 1_555
H71D C83D 1_555 1_555
H71F C83F 1_555 1_555
H71B C83B 1_555 1_555
H72D C83D 1_555 1_555
H72F C83F 1_555 1_555
H72B C83B 1_555 1_555
C84D C83D 1_555 1_555
C84F C83F 1_555 1_555
C84B C83B 1_555 1_555
H73D C84D 1_555 1_555
H73F C84F 1_555 1_555
H73B C84B 1_555 1_555
C90F C51F 1_555 1_555
C90D C51D 1_555 1_555
C90B C51B 1_555 1_555
H83F C90F 1_555 1_555
H83D C90D 1_555 1_555
H83B C90B 1_555 1_555
H84F C90F 1_555 1_555
H84D C90D 1_555 1_555
H84B C90B 1_555 1_555
O5F C90F 1_555 1_555
O5D C90D 1_555 1_555
O5B C90B 1_555 1_555
C91F O5F 1_555 1_555
C91D O5D 1_555 1_555
C91B O5B 1_555 1_555
H85F C91F 1_555 1_555
H85D C91D 1_555 1_555
H85B C91B 1_555 1_555
H86F C91F 1_555 1_555
H86D C91D 1_555 1_555
H86B C91B 1_555 1_555
C92F C91F 1_555 1_555
C92D C91D 1_555 1_555
C92B C91B 1_555 1_555
H87F C92F 1_555 1_555
H87D C92D 1_555 1_555
H87B C92B 1_555 1_555
H88F C92F 1_555 1_555
H88D C92D 1_555 1_555
H88B C92B 1_555 1_555
O6F C92F 1_555 1_555
O6D C92D 1_555 1_555
O6B C92B 1_555 1_555
C93F O6F 1_555 1_555
C93D O6D 1_555 1_555
C93B C94 1_555 1_555
H89F C93F 1_555 1_555
H89D C93D 1_555 1_555
H89B C93B 1_555 1_555
H90F C93F 1_555 1_555
H90D C93D 1_555 1_555
H90B C93B 1_555 1_555
C94D C84D 1_555 1_555
C94F C84F 1_555 1_555
C94B C93 1_555 1_555
H91D C94D 1_555 1_555
H91F C94F 1_555 1_555
H91B C94B 1_555 1_555
C100F C64F 1_555 1_555
C100D C64D 1_555 1_555
C100B C64B 1_555 1_555
H101F C100F 1_555 1_555
H101D C100D 1_555 1_555
H101B C100B 1_555 1_555
H102F C100F 1_555 1_555
H102D C100D 1_555 1_555
H102B C100B 1_555 1_555
O9F C100F 1_555 1_555
O9D C100D 1_555 1_555
O9B C100B 1_555 1_555
C101F O9F 1_555 1_555
C101D O9D 1_555 1_555
C101B O9B 1_555 1_555
H103F C101F 1_555 1_555
H103D C101D 1_555 1_555
H103B C101B 1_555 1_555
H104F C101F 1_555 1_555
H104D C101D 1_555 1_555
H104B C101B 1_555 1_555
C102F C101F 1_555 1_555
C102D C101D 1_555 1_555
C102B C101B 1_555 1_555
H105F C102F 1_555 1_555
H105D C102D 1_555 1_555
H105B C102B 1_555 1_555
H106F C102F 1_555 1_555
H106D C102D 1_555 1_555
H106B C102B 1_555 1_555
O10F C102F 1_555 1_555
O10D C102D 1_555 1_555
O10B C102B 1_555 1_555
C103F O10F 1_555 1_555
C103D O10D 1_555 1_555
C103B O10B 1_555 1_555
H107F C103F 1_555 1_555
H107D C103D 1_555 1_555
H107B C103B 1_555 1_555
H108F C103F 1_555 1_555
H108D C103D 1_555 1_555
H108B C103B 1_555 1_555
C104F C104 1_555 1_555
C104D C103D 1_555 1_555
C104B C103B 1_555 1_555
H109F C104F 1_555 1_555
H109D C104D 1_555 1_555
H109B C104B 1_555 1_555
C105D C77D 1_555 1_555
C105B C77B 1_555 1_555
C105F C77F 1_555 1_555
H110D C105D 1_555 1_555
H110B C105B 1_555 1_555
H110F C105F 1_555 1_555
H111D C105D 1_555 1_555
H111B C105B 1_555 1_555
H111F C105F 1_555 1_555
O11D C105D 1_555 1_555
O11B C105B 1_555 1_555
O11F C105F 1_555 1_555
C106D O11D 1_555 1_555
C106B O11B 1_555 1_555
C106F O11F 1_555 1_555
H112D C106D 1_555 1_555
H112B C106B 1_555 1_555
H112F C106F 1_555 1_555
H113D C106D 1_555 1_555
H113B C106B 1_555 1_555
H113F C106F 1_555 1_555
C107D C106D 1_555 1_555
C107B C106B 1_555 1_555
C107F C106F 1_555 1_555
H114D C107D 1_555 1_555
H114B C107B 1_555 1_555
H114F C107F 1_555 1_555
H115D C107D 1_555 1_555
H115B C107B 1_555 1_555
H115F C107F 1_555 1_555
O12D C107D 1_555 1_555
O12B C107B 1_555 1_555
O12F C107F 1_555 1_555
C108D O12D 1_555 1_555
C108B O12B 1_555 1_555
C108F O12F 1_555 1_555
H116D C108D 1_555 1_555
H116B C108B 1_555 1_555
H116F C108F 1_555 1_555
H117D C108D 1_555 1_555
H117B C108B 1_555 1_555
H117F C108F 1_555 1_555
C109D C108D 1_555 1_555
C109B C108B 1_555 1_555
C109F C109 1_555 1_555
H118B C109B 1_555 1_555
H118D C109D 1_555 1_555
H118F C109F 1_555 1_555
C7 N2 1_555 1_555
N2 Zn1 1_555 1_555
N3 Zn1 1_555 1_555
C17 N4 1_555 1_555
N5 Zn2 1_555 1_555
N5 C19B 1_555 1_555
Zn2 N5B 1_555 1_555
C21 N6 1_555 1_555
C22 N6 1_555 1_555
C23 N6 1_555 1_555
C23 H14 1_555 1_555
H9 H14 1_555 1_555
H10 C24 1_555 1_555
H10 H11 1_555 1_555
C24 H11 1_555 1_555
C24 H12 1_555 1_555
C24 N6 1_555 1_555
C24 H13 1_555 1_555
H12 H13 1_555 1_555
N6 C23F 1_555 1_555
N6 C24F 1_555 1_555
C25 N7 1_555 1_555
H15 C27B 1_555 1_555
H16 H17 1_555 1_555
H16 C26B 1_555 1_555
C26 N7 1_555 1_555
C26 C27B 1_555 1_555
H17 C26B 1_555 1_555
H18 C27B 1_555 1_555
C27 C25B 1_555 1_555
C27 C26B 1_555 1_555
H19 C27B 1_555 1_555
H20 C27B 1_555 1_555
N7 C25B 1_555 1_555
N7 C26B 1_555 1_555
N7 C27B 1_555 1_555
C32 C33 1_555 1_555
C39 C40 1_555 1_555
C45 C46 1_555 1_555
C52 C53 1_555 1_555
C58 C59 1_555 1_555
C65 C66 1_555 1_555
C71 C72 1_555 1_555
C78 C79 1_555 1_555
C1F C2F 1_555 1_555
C2B N1D 1_555 1_555
C4F N2F 1_555 1_555
C7F N2F 1_555 1_555
C7B N2B 1_555 1_555
C7D N2D 1_555 1_555
C8F C9F 1_555 1_555
C9F C10F 1_555 1_555
C9D N3D 1_555 1_555
C10B C10D 1_555 1_555
N2D Zn1D 1_555 1_555
N2B Zn1D 1_555 1_555
N3D Zn1D 1_555 1_555
C11B C20B 1_555 1_555
C12B N5B 1_555 1_555
C14B N4B 1_555 1_555
C17B N4B 1_555 1_555
C17F N4F 1_555 1_555
C17D N4D 1_555 1_555
C18B C19B 1_555 1_555
C19F C20D 1_555 1_555
C19F N5D 1_555 1_555
C19D C20F 1_555 1_555
C19D N5F 1_555 1_555
N4D Zn2F 1_555 1_555
N5D Zn2F 1_555 1_555
N5F Zn2F 1_555 1_555
C21D C24B 1_555 1_555
C21D N6D 1_555 1_555
C22D C23B 1_555 1_555
C22D N6D 1_555 1_555
C23D H9D 1_555 1_555
C23D C24F 1_555 1_555
C23D C24D 1_555 1_555
C23D N6D 1_555 1_555
C23D H14D 1_555 1_555
C23B H9B 1_555 1_555
C23B C24B 1_555 1_555
C23B N6D 1_555 1_555
C23B H14B 1_555 1_555
C23F H9F 1_555 1_555
C23F C24F 1_555 1_555
C23F C24D 1_555 1_555
C23F H14F 1_555 1_555
H9D H14D 1_555 1_555
H9B H14B 1_555 1_555
H9F H14F 1_555 1_555
H10F C24F 1_555 1_555
H10F H11F 1_555 1_555
H10D C24D 1_555 1_555
H10D H11D 1_555 1_555
H10B C24B 1_555 1_555
H10B H11B 1_555 1_555
C24F H11F 1_555 1_555
C24F H12F 1_555 1_555
C24F H13F 1_555 1_555
C24D H11D 1_555 1_555
C24D H12D 1_555 1_555
C24D N6D 1_555 1_555
C24D H13D 1_555 1_555
C24B H11B 1_555 1_555
C24B H12B 1_555 1_555
C24B N6D 1_555 1_555
C24B H13B 1_555 1_555
H12B H13B 1_555 1_555
H12D H13D 1_555 1_555
H12F H13F 1_555 1_555
C25F N7F 1_555 1_555
C25B H15B 1_555 1_555
C25B H16B 1_555 1_555
C25B H17B 1_555 1_555
C25B H20B 1_555 1_555
C25D C26F 1_555 1_555
C25D C27F 1_555 1_555
C25D N7F 1_555 1_555
H15F C27D 1_555 1_555
H15F H20F 1_555 1_555
H15B H20B 1_555 1_555
H15D C27F 1_555 1_555
H15D H20D 1_555 1_555
H16F C26D 1_555 1_555
H16F H17F 1_555 1_555
H16B H17B 1_555 1_555
H16D C26F 1_555 1_555
H16D H17D 1_555 1_555
C26D C26B 1_555 1_555
C26D H17F 1_555 1_555
C26D C27F 1_555 1_555
C26D N7F 1_555 1_555
C26B H18B 1_555 1_555
C26B H19B 1_555 1_555
C26F H17D 1_555 1_555
C26F C27D 1_555 1_555
C26F N7F 1_555 1_555
H18D C27F 1_555 1_555
H18D H19D 1_555 1_555
H18B H19B 1_555 1_555
H18F C27D 1_555 1_555
H18F H19F 1_555 1_555
C27D C27B 1_555 1_555
C27D H19F 1_555 1_555
C27D H20F 1_555 1_555
C27D N7F 1_555 1_555
C27F H19D 1_555 1_555
C27F H20D 1_555 1_555
C27F N7F 1_555 1_555
C32D C33D 1_555 1_555
C32F C33F 1_555 1_555
C32B C33B 1_555 1_555
C39D C40D 1_555 1_555
C39F C40F 1_555 1_555
C39B C40B 1_555 1_555
C45F C46F 1_555 1_555
C45D C46D 1_555 1_555
C45B C46B 1_555 1_555
C52F C53F 1_555 1_555
C52D C53D 1_555 1_555
C52B C53B 1_555 1_555
C58F C59F 1_555 1_555
C58D C59D 1_555 1_555
C58B C59B 1_555 1_555
C65F C66F 1_555 1_555
C65D C66D 1_555 1_555
C65B C66B 1_555 1_555
C71D C72D 1_555 1_555
C71B C72B 1_555 1_555
C71F C72F 1_555 1_555
C78D C79D 1_555 1_555
C78B C79B 1_555 1_555
C78F C79F 1_555 1_555
C84B C94B 1_555 1_555
O6B C93B 1_555 1_555
C93F C94D 1_555 1_555
C93D C94F 1_555 1_555
C103F C104F 1_555 1_555
C104D C104B 1_555 1_555
C108F C109F 1_555 1_555
C109D C109B 1_555 1_555

#END
