
#######################################################################
#
#                 Cambridge Crystallographic Data Centre
#                                CCDC 
#
#######################################################################
#
# If this CIF has been generated from an entry in the Cambridge 
# Structural Database, then it will include bibliographic, chemical, 
# crystal, experimental, refinement or atomic coordinate data resulting 
# from the CCDC's data processing and validation procedures.
#
#######################################################################

data_RATXIU
_chemical_formula_moiety         'C152 H188 N12 O8 Zn4,3(C2 H3 N1)'
_chemical_name_systematic        
"bis(\m~2~-Benzene-1,2,4,5-tetrayltetrakis(3,5-di-t-butylsalicylideneiminato))-bis(\m~2~-4,4'-bipyridyl)-tetra-zinc(ii) acetonitrile solvate"
_symmetry_cell_setting           monoclinic
_symmetry_space_group_name_H-M   'P 21/c'
_symmetry_Int_Tables_number      14
_space_group_name_Hall           '-P 2ybc'
loop_
_symmetry_equiv_pos_site_id
_symmetry_equiv_pos_as_xyz
1 x,y,z
2 -x,1/2+y,1/2-z
3 -x,-y,-z
4 x,1/2-y,1/2+z
_cell_length_a                   17.5988(1)
_cell_length_b                   13.0760(1)
_cell_length_c                   40.2384(4)
_cell_angle_alpha                90
_cell_angle_beta                 97.4302(5)
_cell_angle_gamma                90
_cell_volume                     9181.98
_exptl_crystal_colour            'dark red'
_exptl_crystal_description       block
_cell_formula_units_Z            2
loop_
_atom_site_label
_atom_site_type_symbol
_atom_site_fract_x
_atom_site_fract_y
_atom_site_fract_z
Zn1 Zn 0.207814(17) 0.62697(2) 0.091744(7)
O1 O 0.12404(10) 0.52782(15) 0.09138(4)
O2 O 0.14123(11) 0.74544(15) 0.08200(5)
N1 N 0.27795(12) 0.53403(17) 0.12463(5)
N2 N 0.29851(12) 0.72532(18) 0.10721(5)
C1 C 0.11829(15) 0.4442(2) 0.10836(6)
C2 C 0.04769(16) 0.3901(2) 0.10555(7)
C3 C 0.04326(16) 0.3013(2) 0.12398(7)
H1 H -0.0044 0.2663 0.1220
C4 C 0.10507(16) 0.2595(2) 0.14548(7)
C5 C 0.17285(16) 0.3117(2) 0.14826(7)
H2 H 0.2155 0.2853 0.1626
C6 C 0.18195(15) 0.4035(2) 0.13056(7)
C7 C 0.25518(15) 0.4500(2) 0.13745(6)
H3 H 0.2915 0.4159 0.1532
C8 C 0.35283(15) 0.5730(2) 0.13334(6)
C9 C 0.41455(15) 0.5171(2) 0.14936(6)
H4 H 0.4073 0.4480 0.1555
C10 C 0.48676(15) 0.5618(2) 0.15636(6)
C11 C 0.49763(15) 0.6638(2) 0.14640(6)
C12 C 0.43527(15) 0.7189(2) 0.13059(7)
H5 H 0.4425 0.7878 0.1242
C13 C 0.36353(15) 0.6759(2) 0.12408(6)
C14 C 0.29813(15) 0.8226(2) 0.10037(7)
H6 H 0.3445 0.8590 0.1067
C15 C 0.23468(16) 0.8796(2) 0.08432(7)
C16 C 0.25104(16) 0.9820(2) 0.07629(7)
H7 H 0.3022 1.0060 0.0812
C17 C 0.19641(16) 1.0472(2) 0.06187(7)
C18 C 0.12055(16) 1.0090(2) 0.05602(7)
H8 H 0.0815 1.0539 0.0462
C19 C 0.09971(16) 0.9112(2) 0.06355(7)
C20 C 0.15857(15) 0.8404(2) 0.07704(6)
C21 C -0.02310(16) 0.4314(2) 0.08263(8)
C22 C -0.04551(18) 0.5361(3) 0.09540(9)
H9 H -0.0887 0.5637 0.0803
H10 H -0.0018 0.5829 0.0962
H11 H -0.0603 0.5288 0.1179
C23 C -0.09271(17) 0.3600(3) 0.08229(9)
H12 H -0.1367 0.3896 0.0681
H13 H -0.1052 0.3518 0.1052
H14 H -0.0805 0.2931 0.0733
C24 C -0.00569(18) 0.4408(3) 0.04642(7)
H15 H 0.0123 0.3748 0.0390
H16 H 0.0341 0.4926 0.0452
H17 H -0.0523 0.4610 0.0319
C25 C 0.09482(17) 0.1591(2) 0.16443(7)
C26 C 0.0303(2) 0.1713(3) 0.18604(9)
H18 H -0.0179 0.1854 0.1716
H19 H 0.0422 0.2282 0.2017
H20 H 0.0251 0.1082 0.1987
C27 C 0.0746(3) 0.0729(3) 0.13942(10)
H21 H 0.0639 0.0105 0.1515
H22 H 0.1177 0.0607 0.1268
H23 H 0.0292 0.0920 0.1239
C28 C 0.1680(2) 0.1335(3) 0.18816(11)
H24 H 0.1788 0.1886 0.2046
H25 H 0.2112 0.1266 0.1752
H26 H 0.1608 0.0691 0.1998
C29 C 0.21565(18) 1.1568(2) 0.05145(8)
C30 C 0.2387(3) 1.1529(3) 0.01589(11)
H27 H 0.1958 1.1261 0.0003
H28 H 0.2833 1.1081 0.0157
H29 H 0.2515 1.2219 0.0089
C31 C 0.2823(2) 1.2011(3) 0.07586(12)
H30 H 0.2939 1.2705 0.0688
H31 H 0.3277 1.1578 0.0757
H32 H 0.2677 1.2032 0.0985
C32 C 0.14851(19) 1.2288(3) 0.05193(9)
H33 H 0.1645 1.2986 0.0473
H34 H 0.1308 1.2266 0.0740
H35 H 0.1068 1.2080 0.0348
C33 C 0.01551(16) 0.8754(2) 0.05780(8)
C34 C -0.00867(18) 0.8364(3) 0.09102(8)
H36 H 0.0219 0.7761 0.0986
H37 H -0.0631 0.8180 0.0876
H38 H -0.0001 0.8903 0.1080
C35 C -0.03903(17) 0.9630(3) 0.04582(9)
H39 H -0.0297 1.0210 0.0612
H40 H -0.0921 0.9398 0.0453
H41 H -0.0301 0.9840 0.0233
C36 C 0.00624(18) 0.7902(3) 0.03148(8)
H42 H 0.0174 0.8173 0.0099
H43 H -0.0465 0.7644 0.0291
H44 H 0.0418 0.7344 0.0386
Zn2 Zn 0.654986(17) 0.58985(3) 0.166424(7)
O3 O 0.71155(11) 0.48766(15) 0.19462(5)
O4 O 0.72969(10) 0.69982(16) 0.17888(5)
N3 N 0.55351(12) 0.51119(17) 0.17144(5)
N4 N 0.57339(12) 0.70140(18) 0.15257(5)
C37 C 0.69230(16) 0.3979(2) 0.20422(6)
C38 C 0.75131(15) 0.3279(2) 0.21805(6)
C39 C 0.72894(16) 0.2342(2) 0.22925(7)
H45 H 0.7682 0.1880 0.2380
C40 C 0.65239(17) 0.2015(2) 0.22879(7)
C41 C 0.59670(17) 0.2682(2) 0.21516(7)
H46 H 0.5445 0.2491 0.2146
C42 C 0.61403(15) 0.3642(2) 0.20200(7)
C43 C 0.54967(16) 0.4240(2) 0.18721(7)
H47 H 0.5000 0.3979 0.1890
C44 C 0.59128(16) 0.7938(2) 0.14399(7)
H48 H 0.5504 0.8359 0.1341
C45 C 0.66577(15) 0.8377(2) 0.14796(7)
C46 C 0.67113(17) 0.9344(2) 0.13250(8)
H49 H 0.6263 0.9644 0.1208
C47 C 0.73890(16) 0.9852(2) 0.13404(7)
C48 C 0.80346(16) 0.9398(2) 0.15277(7)
H50 H 0.8508 0.9757 0.1545
C49 C 0.80199(16) 0.8460(2) 0.16875(7)
C50 C 0.73164(15) 0.7912(2) 0.16570(6)
C51 C 0.83535(17) 0.3593(2) 0.22008(7)
C52 C 0.85667(18) 0.3862(3) 0.18554(8)
H51 H 0.9112 0.4036 0.1875
H52 H 0.8262 0.4449 0.1764
H53 H 0.8463 0.3275 0.1705
C53 C 0.88916(18) 0.2728(3) 0.23397(8)
H54 H 0.9425 0.2945 0.2340
H55 H 0.8793 0.2119 0.2199
H56 H 0.8801 0.2568 0.2569
C54 C 0.85097(19) 0.4509(3) 0.24376(8)
H57 H 0.8385 0.4325 0.2660
H58 H 0.8192 0.5089 0.2350
H59 H 0.9052 0.4699 0.2453
C55 C 0.63535(19) 0.0951(3) 0.24238(9)
C56 C 0.5519(2) 0.0875(3) 0.24904(13)
H60 H 0.5183 0.0846 0.2277
H61 H 0.5390 0.1476 0.2617
H62 H 0.5451 0.0255 0.2620
C57 C 0.6800(3) 0.0795(4) 0.27702(11)
H63 H 0.6627 0.0166 0.2869
H64 H 0.6714 0.1379 0.2913
H65 H 0.7348 0.0741 0.2751
C58 C 0.6578(4) 0.0154(3) 0.21980(14)
H66 H 0.6309 0.0265 0.1972
H67 H 0.6442 -0.0519 0.2279
H68 H 0.7132 0.0186 0.2192
C59 C 0.74515(16) 1.0896(2) 0.11680(8)
C60 C 0.6737(4) 1.1142(6) 0.0927(2)
H69 H 0.6824 1.1763 0.0801
H70 H 0.6305 1.1251 0.1054
H71 H 0.6621 1.0571 0.0771
C61 C 0.7621(8) 1.1733(4) 0.14212(16)
H72 H 0.8065 1.1542 0.1582
H73 H 0.7176 1.1838 0.1540
H74 H 0.7733 1.2367 0.1307
C62 C 0.8126(4) 1.0827(7) 0.0955(3)
H75 H 0.8259 1.1515 0.0884
H76 H 0.7973 1.0405 0.0756
H77 H 0.8572 1.0519 0.1089
C66 C 0.87472(17) 0.8007(3) 0.18819(8)
C67 C 0.8619(2) 0.7795(4) 0.22456(9)
H87 H 0.8436 0.8419 0.2344
H88 H 0.9103 0.7579 0.2375
H89 H 0.8236 0.7252 0.2250
C68 C 0.9438(2) 0.8735(3) 0.18939(10)
H90 H 0.9526 0.8909 0.1665
H91 H 0.9895 0.8400 0.2010
H92 H 0.9333 0.9361 0.2014
C69 C 0.8967(2) 0.7007(3) 0.17127(11)
H93 H 0.8549 0.6510 0.1711
H94 H 0.9435 0.6725 0.1838
H95 H 0.9055 0.7151 0.1482
N5 N 0.24125(13) 0.58656(19) 0.04419(5)
N6 N 0.67821(13) 0.54871(19) 0.11792(5)
C70 C 0.2042(2) 0.5128(3) 0.02632(8)
H96 H 0.1643 0.4785 0.0356
C71 C 0.2195(2) 0.4828(3) -0.00460(8)
H97 H 0.1904 0.4295 -0.0162
C72 C 0.27721(16) 0.5298(2) -0.01904(7)
C73 C 0.3184(3) 0.6011(4) 0.00038(11)
H98 H 0.3617 0.6326 -0.0072
C74 C 0.2971(3) 0.6273(4) 0.03100(11)
H99 H 0.3257 0.6794 0.0434
C75 C 0.6582(2) 0.4585(3) 0.10426(8)
H100 H 0.6341 0.4105 0.1172
C76 C 0.6707(2) 0.4311(3) 0.07225(9)
H101 H 0.6543 0.3661 0.0635
C77 C 0.29327(16) 0.5025(2) -0.05314(7)
C78 C 0.2730(2) 0.4090(3) -0.06714(8)
H102 H 0.2487 0.3596 -0.0547
C79 C 0.7122(2) 0.6134(3) 0.09919(9)
H103 H 0.7272 0.6784 0.1083
Zn1B Zn 0.792186(17) 0.37303(2) -0.091744(7)
O1B O 0.87596(10) 0.47218(15) -0.09138(4)
O2B O 0.85877(11) 0.25456(15) -0.08200(5)
N1B N 0.72205(12) 0.46597(17) -0.12463(5)
N2B N 0.70149(12) 0.27468(18) -0.10721(5)
C1B C 0.88171(15) 0.5558(2) -0.10836(6)
C2B C 0.95231(16) 0.6099(2) -0.10555(7)
C3B C 0.95674(16) 0.6987(2) -0.12398(7)
H1B H 1.0044 0.7337 -0.1220
C4B C 0.89493(16) 0.7405(2) -0.14548(7)
C5B C 0.82715(16) 0.6883(2) -0.14826(7)
H2B H 0.7845 0.7147 -0.1626
C6B C 0.81805(15) 0.5965(2) -0.13056(7)
C7B C 0.74482(15) 0.5500(2) -0.13745(6)
H3B H 0.7085 0.5841 -0.1532
C8B C 0.64717(15) 0.4270(2) -0.13334(6)
C9B C 0.58545(15) 0.4829(2) -0.14936(6)
H4B H 0.5927 0.5520 -0.1555
C10B C 0.51324(15) 0.4382(2) -0.15636(6)
C11B C 0.50237(15) 0.3362(2) -0.14640(6)
C12B C 0.56473(15) 0.2811(2) -0.13059(7)
H5B H 0.5575 0.2122 -0.1242
C13B C 0.63647(15) 0.3241(2) -0.12408(6)
C14B C 0.70187(15) 0.1774(2) -0.10037(7)
H6B H 0.6555 0.1410 -0.1067
C15B C 0.76532(16) 0.1204(2) -0.08432(7)
C16B C 0.74896(16) 0.0180(2) -0.07629(7)
H7B H 0.6978 -0.0060 -0.0812
C17B C 0.80359(16) -0.0472(2) -0.06187(7)
C18B C 0.87945(16) -0.0090(2) -0.05602(7)
H8B H 0.9185 -0.0539 -0.0462
C19B C 0.90029(16) 0.0888(2) -0.06355(7)
C20B C 0.84143(15) 0.1596(2) -0.07704(6)
C21B C 1.02310(16) 0.5686(2) -0.08263(8)
C22B C 1.04551(18) 0.4639(3) -0.09540(9)
H9B H 1.0887 0.4363 -0.0803
H10B H 1.0018 0.4171 -0.0962
H11B H 1.0603 0.4712 -0.1179
C23B C 1.09271(17) 0.6400(3) -0.08229(9)
H12B H 1.1367 0.6104 -0.0681
H13B H 1.1052 0.6482 -0.1052
H14B H 1.0805 0.7069 -0.0733
C24B C 1.00569(18) 0.5592(3) -0.04642(7)
H15B H 0.9877 0.6252 -0.0390
H16B H 0.9659 0.5074 -0.0452
H17B H 1.0523 0.5390 -0.0319
C25B C 0.90518(17) 0.8409(2) -0.16443(7)
C26B C 0.9697(2) 0.8287(3) -0.18604(9)
H18B H 1.0179 0.8146 -0.1716
H19B H 0.9578 0.7718 -0.2017
H20B H 0.9749 0.8918 -0.1987
C27B C 0.9254(3) 0.9271(3) -0.13942(10)
H21B H 0.9361 0.9895 -0.1515
H22B H 0.8823 0.9393 -0.1268
H23B H 0.9708 0.9080 -0.1239
C28B C 0.8320(2) 0.8665(3) -0.18816(11)
H24B H 0.8212 0.8114 -0.2046
H25B H 0.7888 0.8734 -0.1752
H26B H 0.8392 0.9309 -0.1998
C29B C 0.78435(18) -0.1568(2) -0.05145(8)
C30B C 0.7613(3) -0.1529(3) -0.01589(11)
H27B H 0.8042 -0.1261 -0.0003
H28B H 0.7167 -0.1081 -0.0157
H29B H 0.7485 -0.2219 -0.0089
C31B C 0.7177(2) -0.2011(3) -0.07586(12)
H30B H 0.7061 -0.2705 -0.0688
H31B H 0.6723 -0.1578 -0.0757
H32B H 0.7323 -0.2032 -0.0985
C32B C 0.85149(19) -0.2288(3) -0.05193(9)
H33B H 0.8355 -0.2986 -0.0473
H34B H 0.8692 -0.2266 -0.0740
H35B H 0.8932 -0.2080 -0.0348
C33B C 0.98449(16) 0.1246(2) -0.05780(8)
C34B C 1.00867(18) 0.1636(3) -0.09102(8)
H36B H 0.9781 0.2239 -0.0986
H37B H 1.0631 0.1820 -0.0876
H38B H 1.0001 0.1097 -0.1080
C35B C 1.03903(17) 0.0370(3) -0.04582(9)
H39B H 1.0297 -0.0210 -0.0612
H40B H 1.0921 0.0602 -0.0453
H41B H 1.0301 0.0160 -0.0233
C36B C 0.99376(18) 0.2098(3) -0.03148(8)
H42B H 0.9826 0.1827 -0.0099
H43B H 1.0465 0.2356 -0.0291
H44B H 0.9582 0.2656 -0.0386
Zn2B Zn 0.345014(17) 0.41015(3) -0.166424(7)
O3B O 0.28845(11) 0.51234(15) -0.19462(5)
O4B O 0.27031(10) 0.30018(16) -0.17888(5)
N3B N 0.44649(12) 0.48881(17) -0.17144(5)
N4B N 0.42661(12) 0.29860(18) -0.15257(5)
C37B C 0.30770(16) 0.6021(2) -0.20422(6)
C38B C 0.24869(15) 0.6721(2) -0.21805(6)
C39B C 0.27106(16) 0.7658(2) -0.22925(7)
H45B H 0.2318 0.8120 -0.2380
C40B C 0.34761(17) 0.7985(2) -0.22879(7)
C41B C 0.40330(17) 0.7318(2) -0.21516(7)
H46B H 0.4555 0.7509 -0.2146
C42B C 0.38597(15) 0.6358(2) -0.20200(7)
C43B C 0.45033(16) 0.5760(2) -0.18721(7)
H47B H 0.5000 0.6021 -0.1890
C44B C 0.40872(16) 0.2062(2) -0.14399(7)
H48B H 0.4496 0.1641 -0.1341
C45B C 0.33423(15) 0.1623(2) -0.14796(7)
C46B C 0.32887(17) 0.0656(2) -0.13250(8)
H49B H 0.3737 0.0356 -0.1208
C47B C 0.26110(16) 0.0148(2) -0.13404(7)
C48B C 0.19654(16) 0.0602(2) -0.15277(7)
H50B H 0.1492 0.0243 -0.1545
C49B C 0.19801(16) 0.1540(2) -0.16875(7)
C50B C 0.26836(15) 0.2088(2) -0.16570(6)
C51B C 0.16465(17) 0.6407(2) -0.22008(7)
C52B C 0.14333(18) 0.6138(3) -0.18554(8)
H51B H 0.0888 0.5964 -0.1875
H52B H 0.1738 0.5551 -0.1764
H53B H 0.1537 0.6725 -0.1705
C53B C 0.11084(18) 0.7272(3) -0.23397(8)
H54B H 0.0575 0.7055 -0.2340
H55B H 0.1207 0.7881 -0.2199
H56B H 0.1199 0.7432 -0.2569
C54B C 0.14903(19) 0.5491(3) -0.24376(8)
H57B H 0.1615 0.5675 -0.2660
H58B H 0.1808 0.4911 -0.2350
H59B H 0.0948 0.5301 -0.2453
C55B C 0.36465(19) 0.9049(3) -0.24238(9)
C56B C 0.4481(2) 0.9125(3) -0.24904(13)
H60B H 0.4817 0.9154 -0.2277
H61B H 0.4610 0.8524 -0.2617
H62B H 0.4549 0.9745 -0.2620
C57B C 0.3200(3) 0.9205(4) -0.27702(11)
H63B H 0.3373 0.9834 -0.2869
H64B H 0.3286 0.8621 -0.2913
H65B H 0.2652 0.9259 -0.2751
C58B C 0.3422(4) 0.9846(3) -0.21980(14)
H66B H 0.3691 0.9735 -0.1972
H67B H 0.3558 1.0519 -0.2279
H68B H 0.2868 0.9814 -0.2192
C59B C 0.25485(16) -0.0896(2) -0.11680(8)
C60B C 0.3263(4) -0.1142(6) -0.0927(2)
H69B H 0.3176 -0.1763 -0.0801
H70B H 0.3695 -0.1251 -0.1054
H71B H 0.3379 -0.0571 -0.0771
C61B C 0.2379(8) -0.1733(4) -0.14212(16)
H72B H 0.1935 -0.1542 -0.1582
H73B H 0.2824 -0.1838 -0.1540
H74B H 0.2267 -0.2367 -0.1307
C62B C 0.1874(4) -0.0827(7) -0.0955(3)
H75B H 0.1741 -0.1515 -0.0884
H76B H 0.2027 -0.0405 -0.0756
H77B H 0.1428 -0.0519 -0.1089
C66B C 0.12528(17) 0.1993(3) -0.18819(8)
C67B C 0.1381(2) 0.2205(4) -0.22456(9)
H87B H 0.1564 0.1581 -0.2344
H88B H 0.0897 0.2421 -0.2375
H89B H 0.1764 0.2748 -0.2250
C68B C 0.0562(2) 0.1265(3) -0.18939(10)
H90B H 0.0474 0.1091 -0.1665
H91B H 0.0105 0.1600 -0.2010
H92B H 0.0667 0.0639 -0.2014
C69B C 0.1033(2) 0.2993(3) -0.17127(11)
H93B H 0.1451 0.3490 -0.1711
H94B H 0.0565 0.3275 -0.1838
H95B H 0.0945 0.2849 -0.1482
N5B N 0.75875(13) 0.41344(19) -0.04419(5)
N6B N 0.32179(13) 0.45129(19) -0.11792(5)
C70B C 0.7958(2) 0.4872(3) -0.02632(8)
H96B H 0.8357 0.5215 -0.0356
C71B C 0.7805(2) 0.5172(3) 0.00460(8)
H97B H 0.8096 0.5705 0.0162
C72B C 0.72279(16) 0.4702(2) 0.01904(7)
C73B C 0.6816(3) 0.3989(4) -0.00038(11)
H98B H 0.6383 0.3674 0.0072
C74B C 0.7029(3) 0.3727(4) -0.03100(11)
H99B H 0.6743 0.3206 -0.0434
C75B C 0.3418(2) 0.5415(3) -0.10426(8)
H100B H 0.3659 0.5895 -0.1172
C76B C 0.3293(2) 0.5689(3) -0.07225(9)
H101B H 0.3457 0.6339 -0.0635
C77B C 0.70673(16) 0.4975(2) 0.05314(7)
C78B C 0.7270(2) 0.5910(3) 0.06714(8)
H102B H 0.7513 0.6404 0.0547
C79B C 0.2878(2) 0.3866(3) -0.09919(9)
H103B H 0.2728 0.3216 -0.1083
N7 N 0.37356(17) 0.2856(3) 0.20084(8)
C80 C 0.36239(19) 0.2376(3) 0.22276(9)
C81 C 0.3475(2) 0.1727(4) 0.25098(10)
H104 H 0.3225 0.1092 0.2424
H105 H 0.3138 0.2091 0.2646
H106 H 0.3960 0.1564 0.2648
loop_
_geom_bond_atom_site_label_1
_geom_bond_atom_site_label_2
_geom_bond_site_symmetry_1
_geom_bond_site_symmetry_2
Zn1 O1 1_555 1_555
O1 C1 1_555 1_555
O2 Zn1 1_555 1_555
N1 Zn1 1_555 1_555
N2 Zn1 1_555 1_555
C1 C2 1_555 1_555
C2 C3 1_555 1_555
C3 H1 1_555 1_555
C4 C3 1_555 1_555
C5 C4 1_555 1_555
H2 C5 1_555 1_555
C6 C1 1_555 1_555
C7 N1 1_555 1_555
H3 C7 1_555 1_555
C8 N1 1_555 1_555
C9 C8 1_555 1_555
H4 C9 1_555 1_555
C10 C9 1_555 1_555
C11 C10 1_555 1_555
C12 C11 1_555 1_555
H5 C12 1_555 1_555
C13 N2 1_555 1_555
C14 N2 1_555 1_555
H6 C14 1_555 1_555
C15 C14 1_555 1_555
C16 C15 1_555 1_555
H7 C16 1_555 1_555
C17 C16 1_555 1_555
C18 C17 1_555 1_555
H8 C18 1_555 1_555
C19 C18 1_555 1_555
C20 O2 1_555 1_555
C21 C2 1_555 1_555
C22 C21 1_555 1_555
H9 C22 1_555 1_555
H10 C22 1_555 1_555
H11 C22 1_555 1_555
C23 C21 1_555 1_555
H12 C23 1_555 1_555
H13 C23 1_555 1_555
H14 C23 1_555 1_555
C24 C21 1_555 1_555
H15 C24 1_555 1_555
H16 C24 1_555 1_555
H17 C24 1_555 1_555
C25 C4 1_555 1_555
C26 C25 1_555 1_555
H18 C26 1_555 1_555
H19 C26 1_555 1_555
H20 C26 1_555 1_555
C27 C25 1_555 1_555
H21 C27 1_555 1_555
H22 C27 1_555 1_555
H23 C27 1_555 1_555
C28 C25 1_555 1_555
H24 C28 1_555 1_555
H25 C28 1_555 1_555
H26 C28 1_555 1_555
C29 C17 1_555 1_555
C30 C29 1_555 1_555
H27 C30 1_555 1_555
H28 C30 1_555 1_555
H29 C30 1_555 1_555
C31 C29 1_555 1_555
H30 C31 1_555 1_555
H31 C31 1_555 1_555
H32 C31 1_555 1_555
C32 C29 1_555 1_555
H33 C32 1_555 1_555
H34 C32 1_555 1_555
H35 C32 1_555 1_555
C33 C19 1_555 1_555
C34 C33 1_555 1_555
H36 C34 1_555 1_555
H37 C34 1_555 1_555
H38 C34 1_555 1_555
C35 C33 1_555 1_555
H39 C35 1_555 1_555
H40 C35 1_555 1_555
H41 C35 1_555 1_555
C36 C33 1_555 1_555
H42 C36 1_555 1_555
H43 C36 1_555 1_555
H44 C36 1_555 1_555
Zn2 O3 1_555 1_555
O3 C37 1_555 1_555
O4 Zn2 1_555 1_555
N3 C10 1_555 1_555
N4 C11 1_555 1_555
C37 C38 1_555 1_555
C38 C39 1_555 1_555
C39 H45 1_555 1_555
C40 C39 1_555 1_555
C41 C40 1_555 1_555
H46 C41 1_555 1_555
C42 C37 1_555 1_555
C43 N3 1_555 1_555
H47 C43 1_555 1_555
C44 N4 1_555 1_555
H48 C44 1_555 1_555
C45 C44 1_555 1_555
C46 C45 1_555 1_555
H49 C46 1_555 1_555
C47 C46 1_555 1_555
C48 C47 1_555 1_555
H50 C48 1_555 1_555
C49 C48 1_555 1_555
C50 O4 1_555 1_555
C51 C38 1_555 1_555
C52 C51 1_555 1_555
H51 C52 1_555 1_555
H52 C52 1_555 1_555
H53 C52 1_555 1_555
C53 C51 1_555 1_555
H54 C53 1_555 1_555
H55 C53 1_555 1_555
H56 C53 1_555 1_555
C54 C51 1_555 1_555
H57 C54 1_555 1_555
H58 C54 1_555 1_555
H59 C54 1_555 1_555
C55 C40 1_555 1_555
C56 C55 1_555 1_555
H60 C56 1_555 1_555
H61 C56 1_555 1_555
H62 C56 1_555 1_555
C57 C55 1_555 1_555
H63 C57 1_555 1_555
H64 C57 1_555 1_555
H65 C57 1_555 1_555
C58 C55 1_555 1_555
H66 C58 1_555 1_555
H67 C58 1_555 1_555
H68 C58 1_555 1_555
C59 C47 1_555 1_555
C60 C59 1_555 1_555
H69 C60 1_555 1_555
H70 C60 1_555 1_555
H71 C60 1_555 1_555
C61 C59 1_555 1_555
H72 C61 1_555 1_555
H73 C61 1_555 1_555
H74 C61 1_555 1_555
C62 C59 1_555 1_555
H75 C62 1_555 1_555
H76 C62 1_555 1_555
H77 C62 1_555 1_555
C66 C49 1_555 1_555
C67 C66 1_555 1_555
H87 C67 1_555 1_555
H88 C67 1_555 1_555
H89 C67 1_555 1_555
C68 C66 1_555 1_555
H90 C68 1_555 1_555
H91 C68 1_555 1_555
H92 C68 1_555 1_555
C69 C66 1_555 1_555
H93 C69 1_555 1_555
H94 C69 1_555 1_555
H95 C69 1_555 1_555
N5 Zn1 1_555 1_555
N6 Zn2 1_555 1_555
C70 N5 1_555 1_555
H96 C70 1_555 1_555
C71 C70 1_555 1_555
H97 C71 1_555 1_555
C72 C71 1_555 1_555
C73 C72 1_555 1_555
H98 C73 1_555 1_555
C74 N5 1_555 1_555
H99 C74 1_555 1_555
C75 N6 1_555 1_555
H100 C75 1_555 1_555
C76 C75 1_555 1_555
H101 C76 1_555 1_555
C77 C72 1_555 1_555
C78 C77 1_555 1_555
H102 C78 1_555 1_555
C79 N6 1_555 1_555
H103 C79 1_555 1_555
N7 C80 1_555 1_555
C80 C81 1_555 1_555
C81 H104 1_555 1_555
H105 C81 1_555 1_555
H106 C81 1_555 1_555
Zn1B O1B 1_555 1_555
O1B C1B 1_555 1_555
O2B Zn1B 1_555 1_555
N1B Zn1B 1_555 1_555
N2B Zn1B 1_555 1_555
C1B C2B 1_555 1_555
C2B C3B 1_555 1_555
C3B H1B 1_555 1_555
C4B C3B 1_555 1_555
C5B C4B 1_555 1_555
H2B C5B 1_555 1_555
C6B C1B 1_555 1_555
C7B N1B 1_555 1_555
H3B C7B 1_555 1_555
C8B N1B 1_555 1_555
C9B C8B 1_555 1_555
H4B C9B 1_555 1_555
C10B C9B 1_555 1_555
C11B C10B 1_555 1_555
C12B C11B 1_555 1_555
H5B C12B 1_555 1_555
C13B N2B 1_555 1_555
C14B N2B 1_555 1_555
H6B C14B 1_555 1_555
C15B C14B 1_555 1_555
C16B C15B 1_555 1_555
H7B C16B 1_555 1_555
C17B C16B 1_555 1_555
C18B C17B 1_555 1_555
H8B C18B 1_555 1_555
C19B C18B 1_555 1_555
C20B O2B 1_555 1_555
C21B C2B 1_555 1_555
C22B C21B 1_555 1_555
H9B C22B 1_555 1_555
H10B C22B 1_555 1_555
H11B C22B 1_555 1_555
C23B C21B 1_555 1_555
H12B C23B 1_555 1_555
H13B C23B 1_555 1_555
H14B C23B 1_555 1_555
C24B C21B 1_555 1_555
H15B C24B 1_555 1_555
H16B C24B 1_555 1_555
H17B C24B 1_555 1_555
C25B C4B 1_555 1_555
C26B C25B 1_555 1_555
H18B C26B 1_555 1_555
H19B C26B 1_555 1_555
H20B C26B 1_555 1_555
C27B C25B 1_555 1_555
H21B C27B 1_555 1_555
H22B C27B 1_555 1_555
H23B C27B 1_555 1_555
C28B C25B 1_555 1_555
H24B C28B 1_555 1_555
H25B C28B 1_555 1_555
H26B C28B 1_555 1_555
C29B C17B 1_555 1_555
C30B C29B 1_555 1_555
H27B C30B 1_555 1_555
H28B C30B 1_555 1_555
H29B C30B 1_555 1_555
C31B C29B 1_555 1_555
H30B C31B 1_555 1_555
H31B C31B 1_555 1_555
H32B C31B 1_555 1_555
C32B C29B 1_555 1_555
H33B C32B 1_555 1_555
H34B C32B 1_555 1_555
H35B C32B 1_555 1_555
C33B C19B 1_555 1_555
C34B C33B 1_555 1_555
H36B C34B 1_555 1_555
H37B C34B 1_555 1_555
H38B C34B 1_555 1_555
C35B C33B 1_555 1_555
H39B C35B 1_555 1_555
H40B C35B 1_555 1_555
H41B C35B 1_555 1_555
C36B C33B 1_555 1_555
H42B C36B 1_555 1_555
H43B C36B 1_555 1_555
H44B C36B 1_555 1_555
Zn2B O3B 1_555 1_555
O3B C37B 1_555 1_555
O4B Zn2B 1_555 1_555
N3B C10B 1_555 1_555
N4B C11B 1_555 1_555
C37B C38B 1_555 1_555
C38B C39B 1_555 1_555
C39B H45B 1_555 1_555
C40B C39B 1_555 1_555
C41B C40B 1_555 1_555
H46B C41B 1_555 1_555
C42B C37B 1_555 1_555
C43B N3B 1_555 1_555
H47B C43B 1_555 1_555
C44B N4B 1_555 1_555
H48B C44B 1_555 1_555
C45B C44B 1_555 1_555
C46B C45B 1_555 1_555
H49B C46B 1_555 1_555
C47B C46B 1_555 1_555
C48B C47B 1_555 1_555
H50B C48B 1_555 1_555
C49B C48B 1_555 1_555
C50B O4B 1_555 1_555
C51B C38B 1_555 1_555
C52B C51B 1_555 1_555
H51B C52B 1_555 1_555
H52B C52B 1_555 1_555
H53B C52B 1_555 1_555
C53B C51B 1_555 1_555
H54B C53B 1_555 1_555
H55B C53B 1_555 1_555
H56B C53B 1_555 1_555
C54B C51B 1_555 1_555
H57B C54B 1_555 1_555
H58B C54B 1_555 1_555
H59B C54B 1_555 1_555
C55B C40B 1_555 1_555
C56B C55B 1_555 1_555
H60B C56B 1_555 1_555
H61B C56B 1_555 1_555
H62B C56B 1_555 1_555
C57B C55B 1_555 1_555
H63B C57B 1_555 1_555
H64B C57B 1_555 1_555
H65B C57B 1_555 1_555
C58B C55B 1_555 1_555
H66B C58B 1_555 1_555
H67B C58B 1_555 1_555
H68B C58B 1_555 1_555
C59B C47B 1_555 1_555
C60B C59B 1_555 1_555
H69B C60B 1_555 1_555
H70B C60B 1_555 1_555
H71B C60B 1_555 1_555
C61B C59B 1_555 1_555
H72B C61B 1_555 1_555
H73B C61B 1_555 1_555
H74B C61B 1_555 1_555
C62B C59B 1_555 1_555
H75B C62B 1_555 1_555
H76B C62B 1_555 1_555
H77B C62B 1_555 1_555
C66B C49B 1_555 1_555
C67B C66B 1_555 1_555
H87B C67B 1_555 1_555
H88B C67B 1_555 1_555
H89B C67B 1_555 1_555
C68B C66B 1_555 1_555
H90B C68B 1_555 1_555
H91B C68B 1_555 1_555
H92B C68B 1_555 1_555
C69B C66B 1_555 1_555
H93B C69B 1_555 1_555
H94B C69B 1_555 1_555
H95B C69B 1_555 1_555
N5B Zn1B 1_555 1_555
N6B Zn2B 1_555 1_555
C70B N5B 1_555 1_555
H96B C70B 1_555 1_555
C71B C70B 1_555 1_555
H97B C71B 1_555 1_555
C72B C71B 1_555 1_555
C73B C72B 1_555 1_555
H98B C73B 1_555 1_555
C74B N5B 1_555 1_555
H99B C74B 1_555 1_555
C75B N6B 1_555 1_555
H100B C75B 1_555 1_555
C76B C77 1_555 1_555
H101B C76B 1_555 1_555
C77B C76 1_555 1_555
C78B C79 1_555 1_555
H102B C78B 1_555 1_555
C79B C78 1_555 1_555
H103B C79B 1_555 1_555
C5 C6 1_555 1_555
C6 C7 1_555 1_555
C8 C13 1_555 1_555
C12 C13 1_555 1_555
C15 C20 1_555 1_555
C19 C20 1_555 1_555
Zn2 N3 1_555 1_555
Zn2 N4 1_555 1_555
C41 C42 1_555 1_555
C42 C43 1_555 1_555
C45 C50 1_555 1_555
C49 C50 1_555 1_555
C73 C74 1_555 1_555
C5B C6B 1_555 1_555
C6B C7B 1_555 1_555
C8B C13B 1_555 1_555
C12B C13B 1_555 1_555
C15B C20B 1_555 1_555
C19B C20B 1_555 1_555
Zn2B N3B 1_555 1_555
Zn2B N4B 1_555 1_555
C41B C42B 1_555 1_555
C42B C43B 1_555 1_555
C45B C50B 1_555 1_555
C49B C50B 1_555 1_555
N6B C79B 1_555 1_555
C72B C77B 1_555 1_555
C73B C74B 1_555 1_555
C75B C76B 1_555 1_555
C77B C78B 1_555 1_555

#END
