
#######################################################################
#
#                 Cambridge Crystallographic Data Centre
#                                CCDC 
#
#######################################################################
#
# If this CIF has been generated from an entry in the Cambridge 
# Structural Database, then it will include bibliographic, chemical, 
# crystal, experimental, refinement or atomic coordinate data resulting 
# from the CCDC's data processing and validation procedures.
#
#######################################################################

data_RATXAM
_chemical_formula_moiety         'C156 H196 N12 O8 Zn4,C2 H3 N1'
_chemical_name_systematic        
'bis(\m~2~-Benzene-1,2,4,5-tetrayltetrakis(3,5-di-t-butylsalicylideneiminato))-bis(\m~2~-1,2-bis(4-pyridyl)ethane)-tetra-zinc(ii) acetonitrile solvate'
_symmetry_cell_setting           monoclinic
_symmetry_space_group_name_H-M   'P 21/c'
_symmetry_Int_Tables_number      14
_space_group_name_Hall           '-P 2ybc'
loop_
_symmetry_equiv_pos_site_id
_symmetry_equiv_pos_as_xyz
1 x,y,z
2 -x,1/2+y,1/2-z
3 -x,-y,-z
4 x,1/2-y,1/2+z
_cell_length_a                   17.7604(8)
_cell_length_b                   12.8246(5)
_cell_length_c                   41.889(2)
_cell_angle_alpha                90
_cell_angle_beta                 101.184(4)
_cell_angle_gamma                90
_cell_volume                     9359.87
_exptl_crystal_colour            'dark red'
_exptl_crystal_description       block
_cell_formula_units_Z            2
loop_
_atom_site_label
_atom_site_type_symbol
_atom_site_fract_x
_atom_site_fract_y
_atom_site_fract_z
Zn1 Zn 1.14278(2) 0.20253(3) 0.168652(9)
Zn2 Zn 1.31302(2) -0.23447(3) -0.101390(10)
O1 O 1.21721(13) 0.31627(19) 0.17944(6)
O2 O 1.20440(12) 0.10170(18) 0.19774(6)
O3 O 1.38089(13) -0.35083(19) -0.08493(6)
O4 O 1.39742(13) -0.14348(19) -0.10715(6)
N1 N 1.15608(16) 0.1520(2) 0.12232(7)
N2 N 1.28148(17) -0.1705(2) -0.05883(7)
N3 N 1.05841(15) 0.3163(2) 0.15429(7)
N4 N 1.04331(15) 0.1257(2) 0.17596(6)
N5 N 1.22256(15) -0.3388(2) -0.11437(7)
N6 N 1.23825(15) -0.1482(2) -0.13603(7)
C1 C 1.2004(5) 0.2114(6) 0.10676(18)
H1 H 1.2241 0.2727 0.1168
C2 C 1.2113(5) 0.1828(6) 0.07625(18)
H2 H 1.2411 0.2257 0.0650
C3 C 1.1791(4) 0.0924(6) 0.06204(17)
C4 C 1.1364(5) 0.0329(5) 0.07977(16)
H3 H 1.1134 -0.0305 0.0712
C5 C 1.1278(5) 0.0675(6) 0.11018(16)
H4 H 1.0994 0.0257 0.1224
C6 C 1.1938(5) 0.0573(6) 0.02934(15)
H5 H 1.1456 0.0638 0.0130
H6 H 1.2321 0.1046 0.0227
C7 C 1.2211(5) -0.0479(6) 0.02897(16)
H7 H 1.1808 -0.0947 0.0342
H8 H 1.2665 -0.0552 0.0467
C8 C 1.2432(4) -0.0867(7) -0.00241(15)
C9 C 1.2999(4) -0.1644(6) -0.00160(17)
H9 H 1.3242 -0.1938 0.0186
C10 C 1.3201(5) -0.1978(7) -0.0303(2)
H10 H 1.3634 -0.2421 -0.0291
C11 C 1.2204(6) -0.1074(10) -0.05977(15)
H11 H 1.1901 -0.0907 -0.0804
C12 C 1.1995(5) -0.0659(8) -0.03239(16)
H12 H 1.1551 -0.0231 -0.0343
C25 C 0.98227(18) 0.2792(2) 0.15041(8)
C26 C 1.0743(2) 0.4069(3) 0.14322(9)
H25 H 1.0324 0.4480 0.1325
C27 C 1.14963(19) 0.4498(3) 0.14578(8)
C28 C 1.2172(2) 0.4059(3) 0.16484(8)
C29 C 1.28710(19) 0.4643(3) 0.16772(9)
C30 C 1.3603(2) 0.4252(3) 0.18982(10)
C31 C 1.3845(3) 0.3202(4) 0.17712(15)
H26 H 1.3425 0.2699 0.1759
H27 H 1.4301 0.2939 0.1920
H28 H 1.3963 0.3300 0.1554
C32 C 1.3474(3) 0.4140(4) 0.22479(11)
H29 H 1.3299 0.4808 0.2321
H30 H 1.3957 0.3938 0.2391
H31 H 1.3085 0.3604 0.2255
C33 C 1.4276(2) 0.5019(4) 0.19113(12)
H32 H 1.4373 0.5128 0.1691
H33 H 1.4737 0.4731 0.2050
H34 H 1.4147 0.5687 0.2001
C34 C 1.2853(2) 0.5558(3) 0.15010(9)
H35 H 1.3320 0.5935 0.1518
C35 C 1.2197(2) 0.5974(3) 0.12989(9)
C36 C 1.2239(3) 0.6979(4) 0.11092(13)
C37 C 1.2630(5) 0.7847(8) 0.1341(2)
H36 H 1.2374 0.7905 0.1527
H37 H 1.2590 0.8513 0.1224
H38 H 1.3172 0.7673 0.1417
C38 C 1.2729(5) 0.6775(8) 0.0855(3)
H39 H 1.3226 0.6488 0.0961
H40 H 1.2810 0.7431 0.0746
H41 H 1.2466 0.6276 0.0693
C39 C 1.1450(4) 0.7391(9) 0.0938(3)
H42 H 1.1182 0.6850 0.0794
H43 H 1.1520 0.8010 0.0809
H44 H 1.1146 0.7575 0.1101
C43 C 1.1531(2) 0.5446(3) 0.12891(9)
H54 H 1.1070 0.5724 0.1164
C44 C 0.97433(18) 0.1772(2) 0.16213(8)
C45 C 1.04372(19) 0.0359(3) 0.19058(8)
H55 H 0.9953 0.0085 0.1928
C46 C 1.10915(19) -0.0251(3) 0.20354(8)
C47 C 1.18739(19) 0.0077(3) 0.20536(8)
C48 C 1.2472(2) -0.0658(3) 0.21660(8)
C49 C 1.3314(2) -0.0351(3) 0.21783(9)
C50 C 1.3439(2) -0.0002(3) 0.18440(10)
H56 H 1.3986 0.0136 0.1854
H57 H 1.3143 0.0634 0.1779
H58 H 1.3268 -0.0554 0.1684
C51 C 1.3541(2) 0.0525(4) 0.24244(11)
H59 H 1.4074 0.0729 0.2427
H60 H 1.3492 0.0282 0.2641
H61 H 1.3204 0.1126 0.2363
C52 C 1.3857(2) -0.1274(4) 0.22842(12)
H62 H 1.3717 -0.1856 0.2133
H63 H 1.3814 -0.1494 0.2504
H64 H 1.4387 -0.1061 0.2283
C53 C 1.2264(2) -0.1638(3) 0.22593(9)
H65 H 1.2664 -0.2128 0.2327
C54 C 1.1512(2) -0.1962(3) 0.22615(9)
C55 C 1.1358(2) -0.3070(3) 0.23748(9)
C56 C 1.1921(3) -0.3357(4) 0.26824(13)
H66 H 1.2444 -0.3353 0.2639
H67 H 1.1800 -0.4055 0.2754
H68 H 1.1884 -0.2850 0.2853
C57 C 1.0557(3) -0.3149(4) 0.24614(14)
H69 H 1.0498 -0.2602 0.2618
H70 H 1.0498 -0.3834 0.2558
H71 H 1.0164 -0.3063 0.2264
C58 C 1.1410(4) -0.3828(4) 0.21092(14)
H72 H 1.1026 -0.3652 0.1915
H73 H 1.1314 -0.4535 0.2181
H74 H 1.1924 -0.3795 0.2057
C59 C 1.0944(2) -0.1266(3) 0.21489(9)
H75 H 1.0427 -0.1465 0.2146
C60 C 0.90146(18) 0.1346(3) 0.15813(8)
H76 H 0.8956 0.0662 0.1660
C61 C 0.91777(18) 0.3340(3) 0.13532(8)
H77 H 0.9237 0.4027 0.1277
C62 C 1.15464(18) -0.2913(2) -0.13117(8)
C63 C 1.2258(2) -0.4369(3) -0.10611(9)
H78 H 1.1800 -0.4763 -0.1123
C64 C 1.29098(19) -0.4908(3) -0.08885(9)
C65 C 1.3660(2) -0.4474(3) -0.08011(9)
C66 C 1.4274(2) -0.5168(3) -0.06579(9)
C67 C 1.5113(2) -0.4788(3) -0.06080(11)
C68 C 1.5302(2) -0.4439(4) -0.09304(11)
H79 H 1.5243 -0.5030 -0.1082
H80 H 1.4953 -0.3878 -0.1022
H81 H 1.5833 -0.4186 -0.0895
C69 C 1.5254(3) -0.3873(4) -0.03683(12)
H82 H 1.4918 -0.3290 -0.0454
H83 H 1.5143 -0.4092 -0.0158
H84 H 1.5791 -0.3651 -0.0340
C70 C 1.5684(3) -0.5655(4) -0.04704(15)
H85 H 1.6210 -0.5393 -0.0449
H86 H 1.5595 -0.5868 -0.0256
H87 H 1.5611 -0.6255 -0.0618
C71 C 1.4085(2) -0.6166(3) -0.05806(9)
H88 H 1.4491 -0.6601 -0.0475
C72 C 1.3345(2) -0.6594(3) -0.06438(9)
C73 C 1.3194(3) -0.7707(3) -0.05441(12)
C74 C 1.3742(5) -0.8487(7) -0.0661(2)
H89 H 1.3642 -0.8500 -0.0899
H90 H 1.4274 -0.8273 -0.0579
H91 H 1.3658 -0.9184 -0.0578
C75 C 1.3315(5) -0.7804(7) -0.01704(17)
H92 H 1.3283 -0.8539 -0.0111
H93 H 1.3822 -0.7529 -0.0072
H94 H 1.2917 -0.7406 -0.0091
C76 C 1.2367(4) -0.8073(7) -0.0683(2)
H95 H 1.2301 -0.8791 -0.0613
H96 H 1.2002 -0.7617 -0.0603
H97 H 1.2274 -0.8043 -0.0921
C80 C 1.2779(2) -0.5957(3) -0.08056(9)
H107 H 1.2274 -0.6230 -0.0865
C81 C 1.16316(18) -0.1886(2) -0.14299(8)
C82 C 1.25628(19) -0.0620(3) -0.14864(8)
H108 H 1.2170 -0.0283 -0.1637
C83 C 1.32955(19) -0.0127(3) -0.14200(9)
C84 C 1.39638(19) -0.0541(3) -0.12165(9)
C85 C 1.4660(2) 0.0056(3) -0.11784(9)
C86 C 1.5402(2) -0.0378(3) -0.09682(10)
C87 C 1.5619(2) -0.1404(4) -0.11113(13)
H109 H 1.6066 -0.1706 -0.0967
H110 H 1.5187 -0.1890 -0.1134
H111 H 1.5745 -0.1274 -0.1326
C88 C 1.5295(3) -0.0543(4) -0.06190(11)
H112 H 1.5753 -0.0881 -0.0493
H113 H 1.5218 0.0132 -0.0521
H114 H 1.4846 -0.0987 -0.0619
C89 C 1.6075(2) 0.0380(4) -0.09561(13)
H115 H 1.6156 0.0511 -0.1177
H116 H 1.5959 0.1038 -0.0857
H117 H 1.6541 0.0074 -0.0826
C90 C 1.4640(2) 0.1001(3) -0.13341(9)
H118 H 1.5103 0.1390 -0.1307
C91 C 1.3988(2) 0.1431(3) -0.15299(9)
C92 C 1.4028(2) 0.2510(3) -0.16846(10)
C93 C 1.4283(3) 0.3324(3) -0.14228(12)
H119 H 1.4308 0.4007 -0.1525
H120 H 1.3914 0.3350 -0.1277
H121 H 1.4790 0.3138 -0.1298
C94 C 1.4583(3) 0.2493(4) -0.19154(11)
H122 H 1.4431 0.1947 -0.2079
H123 H 1.4576 0.3171 -0.2024
H124 H 1.5101 0.2349 -0.1793
C95 C 1.3234(3) 0.2839(4) -0.18798(16)
H125 H 1.3048 0.2310 -0.2045
H126 H 1.2872 0.2907 -0.1732
H127 H 1.3280 0.3510 -0.1986
C96 C 1.3332(2) 0.0853(3) -0.15723(9)
H128 H 1.2883 0.1117 -0.1709
Zn1B Zn 0.85722(2) -0.20253(3) -0.168652(9)
Zn2B Zn 0.68698(2) 0.23447(3) 0.101390(10)
O1B O 0.78279(13) -0.31627(19) -0.17944(6)
O2B O 0.79560(12) -0.10170(18) -0.19774(6)
O3B O 0.61911(13) 0.35083(19) 0.08493(6)
O4B O 0.60258(13) 0.14348(19) 0.10715(6)
N1B N 0.84392(16) -0.1520(2) -0.12232(7)
N2B N 0.71852(17) 0.1705(2) 0.05883(7)
N3B N 0.94159(15) -0.3163(2) -0.15429(7)
N4B N 0.95669(15) -0.1257(2) -0.17596(6)
N5B N 0.77744(15) 0.3388(2) 0.11437(7)
N6B N 0.76175(15) 0.1482(2) 0.13603(7)
C1B C 0.7996(5) -0.2114(6) -0.10676(18)
H1B H 0.7759 -0.2727 -0.1168
C2B C 0.7887(5) -0.1828(6) -0.07625(18)
H2B H 0.7589 -0.2257 -0.0650
C3B C 0.8209(4) -0.0924(6) -0.06204(17)
C4B C 0.8636(5) -0.0329(5) -0.07977(16)
H3B H 0.8866 0.0305 -0.0712
C5B C 0.8722(5) -0.0675(6) -0.11018(16)
H4B H 0.9006 -0.0257 -0.1224
C6B C 0.8062(5) -0.0573(6) -0.02934(15)
H5B H 0.8544 -0.0638 -0.0130
H6B H 0.7679 -0.1046 -0.0227
C7B C 0.7789(5) 0.0479(6) -0.02897(16)
H7B H 0.8192 0.0947 -0.0342
H8B H 0.7335 0.0552 -0.0467
C8B C 0.7568(4) 0.0867(7) 0.00241(15)
C9B C 0.7001(4) 0.1644(6) 0.00160(17)
H9B H 0.6758 0.1938 -0.0186
C10B C 0.6799(5) 0.1978(7) 0.0303(2)
H10B H 0.6366 0.2421 0.0291
C11B C 0.7796(6) 0.1074(10) 0.05977(15)
H11B H 0.8099 0.0907 0.0804
C12B C 0.8005(5) 0.0659(8) 0.03239(16)
H12B H 0.8449 0.0231 0.0343
C25B C 1.01773(18) -0.2792(2) -0.15041(8)
C26B C 0.9257(2) -0.4069(3) -0.14322(9)
H25B H 0.9676 -0.4480 -0.1325
C27B C 0.85037(19) -0.4498(3) -0.14578(8)
C28B C 0.7828(2) -0.4059(3) -0.16484(8)
C29B C 0.71290(19) -0.4643(3) -0.16772(9)
C30B C 0.6397(2) -0.4252(3) -0.18982(10)
C31B C 0.6155(3) -0.3202(4) -0.17712(15)
H26B H 0.6575 -0.2699 -0.1759
H27B H 0.5699 -0.2939 -0.1920
H28B H 0.6037 -0.3300 -0.1554
C32B C 0.6526(3) -0.4140(4) -0.22479(11)
H29B H 0.6701 -0.4808 -0.2321
H30B H 0.6043 -0.3938 -0.2391
H31B H 0.6915 -0.3604 -0.2255
C33B C 0.5724(2) -0.5019(4) -0.19113(12)
H32B H 0.5627 -0.5128 -0.1691
H33B H 0.5263 -0.4731 -0.2050
H34B H 0.5853 -0.5687 -0.2001
C34B C 0.7147(2) -0.5558(3) -0.15010(9)
H35B H 0.6680 -0.5935 -0.1518
C35B C 0.7803(2) -0.5974(3) -0.12989(9)
C36B C 0.7761(3) -0.6979(4) -0.11092(13)
C37B C 0.7370(5) -0.7847(8) -0.1341(2)
H36B H 0.7626 -0.7905 -0.1527
H37B H 0.7410 -0.8513 -0.1224
H38B H 0.6828 -0.7673 -0.1417
C38B C 0.7271(5) -0.6775(8) -0.0855(3)
H39B H 0.6774 -0.6488 -0.0961
H40B H 0.7190 -0.7431 -0.0746
H41B H 0.7534 -0.6276 -0.0693
C39B C 0.8550(4) -0.7391(9) -0.0938(3)
H42B H 0.8818 -0.6850 -0.0794
H43B H 0.8480 -0.8010 -0.0809
H44B H 0.8854 -0.7575 -0.1101
C43B C 0.8469(2) -0.5446(3) -0.12891(9)
H54B H 0.8930 -0.5724 -0.1164
C44B C 1.02567(18) -0.1772(2) -0.16213(8)
C45B C 0.95628(19) -0.0359(3) -0.19058(8)
H55B H 1.0047 -0.0085 -0.1928
C46B C 0.89085(19) 0.0251(3) -0.20354(8)
C47B C 0.81261(19) -0.0077(3) -0.20536(8)
C48B C 0.7528(2) 0.0658(3) -0.21660(8)
C49B C 0.6686(2) 0.0351(3) -0.21783(9)
C50B C 0.6561(2) 0.0002(3) -0.18440(10)
H56B H 0.6014 -0.0136 -0.1854
H57B H 0.6857 -0.0634 -0.1779
H58B H 0.6732 0.0554 -0.1684
C51B C 0.6459(2) -0.0525(4) -0.24244(11)
H59B H 0.5926 -0.0729 -0.2427
H60B H 0.6508 -0.0282 -0.2641
H61B H 0.6796 -0.1126 -0.2363
C52B C 0.6143(2) 0.1274(4) -0.22842(12)
H62B H 0.6283 0.1856 -0.2133
H63B H 0.6186 0.1494 -0.2504
H64B H 0.5613 0.1061 -0.2283
C53B C 0.7736(2) 0.1638(3) -0.22593(9)
H65B H 0.7336 0.2128 -0.2327
C54B C 0.8488(2) 0.1962(3) -0.22615(9)
C55B C 0.8642(2) 0.3070(3) -0.23748(9)
C56B C 0.8079(3) 0.3357(4) -0.26824(13)
H66B H 0.7556 0.3353 -0.2639
H67B H 0.8200 0.4055 -0.2754
H68B H 0.8116 0.2850 -0.2853
C57B C 0.9443(3) 0.3149(4) -0.24614(14)
H69B H 0.9502 0.2602 -0.2618
H70B H 0.9502 0.3834 -0.2558
H71B H 0.9836 0.3063 -0.2264
C58B C 0.8590(4) 0.3828(4) -0.21092(14)
H72B H 0.8974 0.3652 -0.1915
H73B H 0.8686 0.4535 -0.2181
H74B H 0.8076 0.3795 -0.2057
C59B C 0.9056(2) 0.1266(3) -0.21489(9)
H75B H 0.9573 0.1465 -0.2146
C60B C 1.09854(18) -0.1346(3) -0.15813(8)
H76B H 1.1044 -0.0662 -0.1660
C61B C 1.08223(18) -0.3340(3) -0.13532(8)
H77B H 1.0763 -0.4027 -0.1277
C62B C 0.84536(18) 0.2913(2) 0.13117(8)
C63B C 0.7742(2) 0.4369(3) 0.10611(9)
H78B H 0.8200 0.4763 0.1123
C64B C 0.70902(19) 0.4908(3) 0.08885(9)
C65B C 0.6340(2) 0.4474(3) 0.08011(9)
C66B C 0.5726(2) 0.5168(3) 0.06579(9)
C67B C 0.4887(2) 0.4788(3) 0.06080(11)
C68B C 0.4698(2) 0.4439(4) 0.09304(11)
H79B H 0.4757 0.5030 0.1082
H80B H 0.5047 0.3878 0.1022
H81B H 0.4167 0.4186 0.0895
C69B C 0.4746(3) 0.3873(4) 0.03683(12)
H82B H 0.5082 0.3290 0.0454
H83B H 0.4857 0.4092 0.0158
H84B H 0.4209 0.3651 0.0340
C70B C 0.4316(3) 0.5655(4) 0.04704(15)
H85B H 0.3790 0.5393 0.0449
H86B H 0.4405 0.5868 0.0256
H87B H 0.4389 0.6255 0.0618
C71B C 0.5915(2) 0.6166(3) 0.05806(9)
H88B H 0.5509 0.6601 0.0475
C72B C 0.6655(2) 0.6594(3) 0.06438(9)
C73B C 0.6806(3) 0.7707(3) 0.05441(12)
C74B C 0.6258(5) 0.8487(7) 0.0661(2)
H89B H 0.6358 0.8500 0.0899
H90B H 0.5726 0.8273 0.0579
H91B H 0.6342 0.9184 0.0578
C75B C 0.6685(5) 0.7804(7) 0.01704(17)
H92B H 0.6717 0.8539 0.0111
H93B H 0.6178 0.7529 0.0072
H94B H 0.7083 0.7406 0.0091
C76B C 0.7633(4) 0.8073(7) 0.0683(2)
H95B H 0.7699 0.8791 0.0613
H96B H 0.7998 0.7617 0.0603
H97B H 0.7726 0.8043 0.0921
C80B C 0.7221(2) 0.5957(3) 0.08056(9)
H107B H 0.7726 0.6230 0.0865
C81B C 0.83684(18) 0.1886(2) 0.14299(8)
C82B C 0.74372(19) 0.0620(3) 0.14864(8)
H108B H 0.7830 0.0283 0.1637
C83B C 0.67045(19) 0.0127(3) 0.14200(9)
C84B C 0.60362(19) 0.0541(3) 0.12165(9)
C85B C 0.5340(2) -0.0056(3) 0.11784(9)
C86B C 0.4598(2) 0.0378(3) 0.09682(10)
C87B C 0.4381(2) 0.1404(4) 0.11113(13)
H109B H 0.3934 0.1706 0.0967
H110B H 0.4813 0.1890 0.1134
H111B H 0.4255 0.1274 0.1326
C88B C 0.4705(3) 0.0543(4) 0.06190(11)
H112B H 0.4247 0.0881 0.0493
H113B H 0.4782 -0.0132 0.0521
H114B H 0.5154 0.0987 0.0619
C89B C 0.3925(2) -0.0380(4) 0.09561(13)
H115B H 0.3844 -0.0511 0.1177
H116B H 0.4041 -0.1038 0.0857
H117B H 0.3459 -0.0074 0.0826
C90B C 0.5360(2) -0.1001(3) 0.13341(9)
H118B H 0.4897 -0.1390 0.1307
C91B C 0.6012(2) -0.1431(3) 0.15299(9)
C92B C 0.5972(2) -0.2510(3) 0.16846(10)
C93B C 0.5717(3) -0.3324(3) 0.14228(12)
H119B H 0.5692 -0.4007 0.1525
H120B H 0.6086 -0.3350 0.1277
H121B H 0.5210 -0.3138 0.1298
C94B C 0.5417(3) -0.2493(4) 0.19154(11)
H122B H 0.5569 -0.1947 0.2079
H123B H 0.5424 -0.3171 0.2024
H124B H 0.4899 -0.2349 0.1793
C95B C 0.6766(3) -0.2839(4) 0.18798(16)
H125B H 0.6952 -0.2310 0.2045
H126B H 0.7128 -0.2907 0.1732
H127B H 0.6720 -0.3510 0.1986
C96B C 0.6668(2) -0.0853(3) 0.15723(9)
H128B H 0.7117 -0.1117 0.1709
C13? C 1.2074(5) 0.1824(6) 0.10518(18)
H13? H 1.2447 0.2315 0.1152
C14? C 1.2125(5) 0.1501(6) 0.07424(18)
H14? H 1.2521 0.1765 0.0642
C15? C 1.1603(4) 0.0798(6) 0.05799(17)
C16? C 1.1017(4) 0.0480(6) 0.07344(17)
H15? H 1.0626 0.0027 0.0627
C17? C 1.1011(5) 0.0833(7) 0.10461(16)
H16? H 1.0609 0.0596 0.1148
C18? C 1.1671(4) 0.0378(6) 0.02494(15)
H17? H 1.1157 0.0386 0.0106
H18? H 1.2007 0.0849 0.0152
C19? C 1.1976(5) -0.0663(6) 0.02575(17)
H19? H 1.1567 -0.1154 0.0290
H20? H 1.2397 -0.0722 0.0450
C20? C 1.2282(4) -0.1013(8) -0.00417(16)
C21? C 1.3061(4) -0.1285(6) -0.00207(18)
H21? H 1.3419 -0.1195 0.0178
C22? C 1.3297(5) -0.1685(7) -0.0293(2)
H22? H 1.3804 -0.1949 -0.0273
C23? C 1.2157(7) -0.1242(11) -0.06116(16)
H23? H 1.1850 -0.1160 -0.0823
C24? C 1.1872(5) -0.0861(8) -0.03506(17)
H24? H 1.1397 -0.0497 -0.0385
C40? C 1.2258(5) 0.7879(9) 0.1343(2)
H45? H 1.1751 0.7963 0.1399
H46? H 1.2396 0.8520 0.1241
H47? H 1.2640 0.7739 0.1541
C41? C 1.2969(5) 0.7005(9) 0.0960(3)
H48? H 1.3419 0.7125 0.1133
H49? H 1.2926 0.7568 0.0800
H50? H 1.3026 0.6337 0.0854
C42? C 1.1541(4) 0.7088(10) 0.0830(3)
H51? H 1.1525 0.6495 0.0681
H52? H 1.1582 0.7738 0.0712
H53? H 1.1070 0.7100 0.0919
C77? C 0.6038(4) 0.8296(7) 0.0420(2)
H98? H 0.5704 0.8224 0.0579
H99? H 0.5782 0.7998 0.0211
H100? H 0.6144 0.9036 0.0390
C78? C 0.7235(5) 0.7626(7) 0.02715(19)
H101? H 0.7229 0.8302 0.0162
H102? H 0.6991 0.7100 0.0115
H103? H 0.7767 0.7421 0.0358
C79? C 0.7246(5) 0.8256(7) 0.08327(18)
H104? H 0.7329 0.8983 0.0776
H105? H 0.7743 0.7912 0.0904
H106? H 0.6957 0.8237 0.1009
loop_
_geom_bond_atom_site_label_1
_geom_bond_atom_site_label_2
_geom_bond_site_symmetry_1
_geom_bond_site_symmetry_2
Zn1 O1 1_555 1_555
Zn2 O3 1_555 1_555
O1 C28 1_555 1_555
O2 Zn1 1_555 1_555
O3 C65 1_555 1_555
O4 Zn2 1_555 1_555
N1 Zn1 1_555 1_555
N2 Zn2 1_555 1_555
N3 Zn1 1_555 1_555
N4 Zn1 1_555 1_555
N5 Zn2 1_555 1_555
N6 Zn2 1_555 1_555
C1 N1 1_555 1_555
H1 C1 1_555 1_555
C2 C1 1_555 1_555
H2 C2 1_555 1_555
C3 C2 1_555 1_555
C4 C3 1_555 1_555
H3 C4 1_555 1_555
C5 N1 1_555 1_555
H4 C5 1_555 1_555
C6 C3 1_555 1_555
H5 C6 1_555 1_555
H6 C6 1_555 1_555
C7 C6 1_555 1_555
H7 C7 1_555 1_555
H8 C7 1_555 1_555
C8 C7 1_555 1_555
C9 C8 1_555 1_555
H9 C9 1_555 1_555
C10 N2 1_555 1_555
H10 C10 1_555 1_555
C11 N2 1_555 1_555
H11 C11 1_555 1_555
C12 C8 1_555 1_555
H12 C12 1_555 1_555
C25 N3 1_555 1_555
C26 N3 1_555 1_555
H25 C26 1_555 1_555
C27 C26 1_555 1_555
C28 C27 1_555 1_555
C29 C28 1_555 1_555
C30 C29 1_555 1_555
C31 C30 1_555 1_555
H26 C31 1_555 1_555
H27 C31 1_555 1_555
H28 C31 1_555 1_555
C32 C30 1_555 1_555
H29 C32 1_555 1_555
H30 C32 1_555 1_555
H31 C32 1_555 1_555
C33 C30 1_555 1_555
H32 C33 1_555 1_555
H33 C33 1_555 1_555
H34 C33 1_555 1_555
C34 C29 1_555 1_555
H35 C34 1_555 1_555
C35 C34 1_555 1_555
C36 C35 1_555 1_555
C37 C36 1_555 1_555
H36 C37 1_555 1_555
H37 C37 1_555 1_555
H38 C37 1_555 1_555
C38 C36 1_555 1_555
H39 C38 1_555 1_555
H40 C38 1_555 1_555
H41 C38 1_555 1_555
C39 C36 1_555 1_555
H42 C39 1_555 1_555
H43 C39 1_555 1_555
H44 C39 1_555 1_555
C43 C27 1_555 1_555
H54 C43 1_555 1_555
C44 N4 1_555 1_555
C45 N4 1_555 1_555
H55 C45 1_555 1_555
C46 C45 1_555 1_555
C47 O2 1_555 1_555
C48 C47 1_555 1_555
C49 C48 1_555 1_555
C50 C49 1_555 1_555
H56 C50 1_555 1_555
H57 C50 1_555 1_555
H58 C50 1_555 1_555
C51 C49 1_555 1_555
H59 C51 1_555 1_555
H60 C51 1_555 1_555
H61 C51 1_555 1_555
C52 C49 1_555 1_555
H62 C52 1_555 1_555
H63 C52 1_555 1_555
H64 C52 1_555 1_555
C53 C48 1_555 1_555
H65 C53 1_555 1_555
C54 C53 1_555 1_555
C55 C54 1_555 1_555
C56 C55 1_555 1_555
H66 C56 1_555 1_555
H67 C56 1_555 1_555
H68 C56 1_555 1_555
C57 C55 1_555 1_555
H69 C57 1_555 1_555
H70 C57 1_555 1_555
H71 C57 1_555 1_555
C58 C55 1_555 1_555
H72 C58 1_555 1_555
H73 C58 1_555 1_555
H74 C58 1_555 1_555
C59 C46 1_555 1_555
H75 C59 1_555 1_555
C60 C44 1_555 1_555
H76 C60 1_555 1_555
C61 C25 1_555 1_555
H77 C61 1_555 1_555
C62 N5 1_555 1_555
C63 N5 1_555 1_555
H78 C63 1_555 1_555
C64 C63 1_555 1_555
C65 C64 1_555 1_555
C66 C65 1_555 1_555
C67 C66 1_555 1_555
C68 C67 1_555 1_555
H79 C68 1_555 1_555
H80 C68 1_555 1_555
H81 C68 1_555 1_555
C69 C67 1_555 1_555
H82 C69 1_555 1_555
H83 C69 1_555 1_555
H84 C69 1_555 1_555
C70 C67 1_555 1_555
H85 C70 1_555 1_555
H86 C70 1_555 1_555
H87 C70 1_555 1_555
C71 C66 1_555 1_555
H88 C71 1_555 1_555
C72 C71 1_555 1_555
C73 C72 1_555 1_555
C74 C73 1_555 1_555
H89 C74 1_555 1_555
H90 C74 1_555 1_555
H91 C74 1_555 1_555
C75 C73 1_555 1_555
H92 C75 1_555 1_555
H93 C75 1_555 1_555
H94 C75 1_555 1_555
C76 C73 1_555 1_555
H95 C76 1_555 1_555
H96 C76 1_555 1_555
H97 C76 1_555 1_555
C80 C64 1_555 1_555
H107 C80 1_555 1_555
C81 N6 1_555 1_555
C82 N6 1_555 1_555
H108 C82 1_555 1_555
C83 C82 1_555 1_555
C84 O4 1_555 1_555
C85 C84 1_555 1_555
C86 C85 1_555 1_555
C87 C86 1_555 1_555
H109 C87 1_555 1_555
H110 C87 1_555 1_555
H111 C87 1_555 1_555
C88 C86 1_555 1_555
H112 C88 1_555 1_555
H113 C88 1_555 1_555
H114 C88 1_555 1_555
C89 C86 1_555 1_555
H115 C89 1_555 1_555
H116 C89 1_555 1_555
H117 C89 1_555 1_555
C90 C85 1_555 1_555
H118 C90 1_555 1_555
C91 C90 1_555 1_555
C92 C91 1_555 1_555
C93 C92 1_555 1_555
H119 C93 1_555 1_555
H120 C93 1_555 1_555
H121 C93 1_555 1_555
C94 C92 1_555 1_555
H122 C94 1_555 1_555
H123 C94 1_555 1_555
H124 C94 1_555 1_555
C95 C92 1_555 1_555
H125 C95 1_555 1_555
H126 C95 1_555 1_555
H127 C95 1_555 1_555
C96 C83 1_555 1_555
H128 C96 1_555 1_555
Zn1B O1B 1_555 1_555
Zn2B O3B 1_555 1_555
O1B C28B 1_555 1_555
O2B Zn1B 1_555 1_555
O3B C65B 1_555 1_555
O4B Zn2B 1_555 1_555
N1B Zn1B 1_555 1_555
N2B Zn2B 1_555 1_555
N3B Zn1B 1_555 1_555
N4B Zn1B 1_555 1_555
N5B Zn2B 1_555 1_555
N6B Zn2B 1_555 1_555
C1B N1B 1_555 1_555
H1B C1B 1_555 1_555
C2B C1B 1_555 1_555
H2B C2B 1_555 1_555
C3B C2B 1_555 1_555
C4B C3B 1_555 1_555
H3B C4B 1_555 1_555
C5B N1B 1_555 1_555
H4B C5B 1_555 1_555
C6B C3B 1_555 1_555
H5B C6B 1_555 1_555
H6B C6B 1_555 1_555
C7B C6B 1_555 1_555
H7B C7B 1_555 1_555
H8B C7B 1_555 1_555
C8B C7B 1_555 1_555
C9B C8B 1_555 1_555
H9B C9B 1_555 1_555
C10B N2B 1_555 1_555
H10B C10B 1_555 1_555
C11B N2B 1_555 1_555
H11B C11B 1_555 1_555
C12B C8B 1_555 1_555
H12B C12B 1_555 1_555
C25B N3B 1_555 1_555
C26B N3B 1_555 1_555
H25B C26B 1_555 1_555
C27B C26B 1_555 1_555
C28B C27B 1_555 1_555
C29B C28B 1_555 1_555
C30B C29B 1_555 1_555
C31B C30B 1_555 1_555
H26B C31B 1_555 1_555
H27B C31B 1_555 1_555
H28B C31B 1_555 1_555
C32B C30B 1_555 1_555
H29B C32B 1_555 1_555
H30B C32B 1_555 1_555
H31B C32B 1_555 1_555
C33B C30B 1_555 1_555
H32B C33B 1_555 1_555
H33B C33B 1_555 1_555
H34B C33B 1_555 1_555
C34B C29B 1_555 1_555
H35B C34B 1_555 1_555
C35B C34B 1_555 1_555
C36B C35B 1_555 1_555
C37B C36B 1_555 1_555
H36B C37B 1_555 1_555
H37B C37B 1_555 1_555
H38B C37B 1_555 1_555
C38B C36B 1_555 1_555
H39B C38B 1_555 1_555
H40B C38B 1_555 1_555
H41B C38B 1_555 1_555
C39B C36B 1_555 1_555
H42B C39B 1_555 1_555
H43B C39B 1_555 1_555
H44B C39B 1_555 1_555
C43B C27B 1_555 1_555
H54B C43B 1_555 1_555
C44B N4B 1_555 1_555
C45B N4B 1_555 1_555
H55B C45B 1_555 1_555
C46B C45B 1_555 1_555
C47B O2B 1_555 1_555
C48B C47B 1_555 1_555
C49B C48B 1_555 1_555
C50B C49B 1_555 1_555
H56B C50B 1_555 1_555
H57B C50B 1_555 1_555
H58B C50B 1_555 1_555
C51B C49B 1_555 1_555
H59B C51B 1_555 1_555
H60B C51B 1_555 1_555
H61B C51B 1_555 1_555
C52B C49B 1_555 1_555
H62B C52B 1_555 1_555
H63B C52B 1_555 1_555
H64B C52B 1_555 1_555
C53B C48B 1_555 1_555
H65B C53B 1_555 1_555
C54B C53B 1_555 1_555
C55B C54B 1_555 1_555
C56B C55B 1_555 1_555
H66B C56B 1_555 1_555
H67B C56B 1_555 1_555
H68B C56B 1_555 1_555
C57B C55B 1_555 1_555
H69B C57B 1_555 1_555
H70B C57B 1_555 1_555
H71B C57B 1_555 1_555
C58B C55B 1_555 1_555
H72B C58B 1_555 1_555
H73B C58B 1_555 1_555
H74B C58B 1_555 1_555
C59B C46B 1_555 1_555
H75B C59B 1_555 1_555
C60B C81 1_555 1_555
H76B C60B 1_555 1_555
C61B C62 1_555 1_555
H77B C61B 1_555 1_555
C62B C61 1_555 1_555
C63B N5B 1_555 1_555
H78B C63B 1_555 1_555
C64B C63B 1_555 1_555
C65B C64B 1_555 1_555
C66B C65B 1_555 1_555
C67B C66B 1_555 1_555
C68B C67B 1_555 1_555
H79B C68B 1_555 1_555
H80B C68B 1_555 1_555
H81B C68B 1_555 1_555
C69B C67B 1_555 1_555
H82B C69B 1_555 1_555
H83B C69B 1_555 1_555
H84B C69B 1_555 1_555
C70B C67B 1_555 1_555
H85B C70B 1_555 1_555
H86B C70B 1_555 1_555
H87B C70B 1_555 1_555
C71B C66B 1_555 1_555
H88B C71B 1_555 1_555
C72B C71B 1_555 1_555
C73B C72B 1_555 1_555
C74B C73B 1_555 1_555
H89B C74B 1_555 1_555
H90B C74B 1_555 1_555
H91B C74B 1_555 1_555
C75B C73B 1_555 1_555
H92B C75B 1_555 1_555
H93B C75B 1_555 1_555
H94B C75B 1_555 1_555
C76B C73B 1_555 1_555
H95B C76B 1_555 1_555
H96B C76B 1_555 1_555
H97B C76B 1_555 1_555
C80B C64B 1_555 1_555
H107B C80B 1_555 1_555
C81B C60 1_555 1_555
C82B N6B 1_555 1_555
H108B C82B 1_555 1_555
C83B C82B 1_555 1_555
C84B O4B 1_555 1_555
C85B C84B 1_555 1_555
C86B C85B 1_555 1_555
C87B C86B 1_555 1_555
H109B C87B 1_555 1_555
H110B C87B 1_555 1_555
H111B C87B 1_555 1_555
C88B C86B 1_555 1_555
H112B C88B 1_555 1_555
H113B C88B 1_555 1_555
H114B C88B 1_555 1_555
C89B C86B 1_555 1_555
H115B C89B 1_555 1_555
H116B C89B 1_555 1_555
H117B C89B 1_555 1_555
C90B C85B 1_555 1_555
H118B C90B 1_555 1_555
C91B C90B 1_555 1_555
C92B C91B 1_555 1_555
C93B C92B 1_555 1_555
H119B C93B 1_555 1_555
H120B C93B 1_555 1_555
H121B C93B 1_555 1_555
C94B C92B 1_555 1_555
H122B C94B 1_555 1_555
H123B C94B 1_555 1_555
H124B C94B 1_555 1_555
C95B C92B 1_555 1_555
H125B C95B 1_555 1_555
H126B C95B 1_555 1_555
H127B C95B 1_555 1_555
C96B C83B 1_555 1_555
H128B C96B 1_555 1_555
C4 C5 1_555 1_555
C9 C10 1_555 1_555
C11 C12 1_555 1_555
C25 C44 1_555 1_555
C35 C43 1_555 1_555
C46 C47 1_555 1_555
C54 C59 1_555 1_555
C62 C81 1_555 1_555
C72 C80 1_555 1_555
C83 C84 1_555 1_555
C91 C96 1_555 1_555
N5B C62B 1_555 1_555
N6B C81B 1_555 1_555
C4B C5B 1_555 1_555
C9B C10B 1_555 1_555
C11B C12B 1_555 1_555
C25B C44B 1_555 1_555
C25B C61B 1_555 1_555
C35B C43B 1_555 1_555
C44B C60B 1_555 1_555
C46B C47B 1_555 1_555
C54B C59B 1_555 1_555
C62B C81B 1_555 1_555
C72B C80B 1_555 1_555
C83B C84B 1_555 1_555
C91B C96B 1_555 1_555

#END
