# generated using pymatgen
data_ZnH64C48N3O2
_symmetry_space_group_name_H-M   'P 1'
_cell_length_a   12.82460000
_cell_length_b   17.76040000
_cell_length_c   41.88900000
_cell_angle_alpha   101.18400000
_cell_angle_beta   90.00000000
_cell_angle_gamma   90.00000000
_symmetry_Int_Tables_number   1
_chemical_formula_structural   ZnH64C48N3O2
_chemical_formula_sum   'Zn8 H512 C384 N24 O16'
_cell_volume   9359.86777984
_cell_formula_units_Z   8
loop_
 _symmetry_equiv_pos_site_id
 _symmetry_equiv_pos_as_xyz
  1  'x, y, z'
loop_
 _atom_site_type_symbol
 _atom_site_label
 _atom_site_symmetry_multiplicity
 _atom_site_fract_x
 _atom_site_fract_y
 _atom_site_fract_z
 _atom_site_occupancy
  Zn  Zn1  1  0.797470  0.857220  0.831348  1.0
  Zn  Zn2  1  0.297470  0.142780  0.668652  1.0
  Zn  Zn3  1  0.202530  0.142780  0.168652  1.0
  Zn  Zn4  1  0.702530  0.857220  0.331348  1.0
  Zn  Zn5  1  0.234470  0.686980  0.101390  1.0
  Zn  Zn6  1  0.734470  0.313020  0.398610  1.0
  Zn  Zn7  1  0.765530  0.313020  0.898610  1.0
  Zn  Zn8  1  0.265530  0.686980  0.601390  1.0
  H  H9  1  0.768500  0.755300  0.884800  1
  H  H10  1  0.268500  0.244700  0.615200  1
  H  H11  1  0.231500  0.244700  0.115200  1
  H  H12  1  0.731500  0.755300  0.384800  1
  H  H13  1  0.823500  0.747900  0.935800  1
  H  H14  1  0.323500  0.252100  0.564200  1
  H  H15  1  0.176500  0.252100  0.064200  1
  H  H16  1  0.676500  0.747900  0.435800  1
  H  H17  1  0.997300  0.937400  0.937300  1
  H  H18  1  0.497300  0.062600  0.562700  1
  H  H19  1  0.002700  0.062600  0.062700  1
  H  H20  1  0.502700  0.937400  0.437300  1
  H  H21  1  0.940400  0.939100  0.885200  1
  H  H22  1  0.440400  0.060900  0.614800  1
  H  H23  1  0.059600  0.060900  0.114800  1
  H  H24  1  0.559600  0.939100  0.385200  1
  H  H25  1  0.961400  0.884300  0.989400  1
  H  H26  1  0.461400  0.115700  0.510600  1
  H  H27  1  0.038600  0.115700  0.010600  1
  H  H28  1  0.538600  0.884300  0.489400  1
  H  H29  1  0.915100  0.799300  0.984800  1
  H  H30  1  0.415100  0.200700  0.515200  1
  H  H31  1  0.084900  0.200700  0.015200  1
  H  H32  1  0.584900  0.799300  0.484800  1
  H  H33  1  0.115400  0.843300  0.971000  1
  H  H34  1  0.615400  0.156700  0.529000  1
  H  H35  1  0.884600  0.156700  0.029000  1
  H  H36  1  0.384600  0.843300  0.471000  1
  H  H37  1  0.072200  0.760300  0.955000  1
  H  H38  1  0.572200  0.239700  0.545000  1
  H  H39  1  0.927800  0.239700  0.045000  1
  H  H40  1  0.427800  0.760300  0.455000  1
  H  H41  1  0.119500  0.658100  0.982200  1
  H  H42  1  0.619500  0.341900  0.517800  1
  H  H43  1  0.880500  0.341900  0.017800  1
  H  H44  1  0.380500  0.658100  0.482200  1
  H  H45  1  0.194900  0.619600  0.027300  1
  H  H46  1  0.694900  0.380400  0.472700  1
  H  H47  1  0.805100  0.380400  0.972700  1
  H  H48  1  0.305100  0.619600  0.527300  1
  H  H49  1  0.116000  0.815000  0.082300  1
  H  H50  1  0.616000  0.185000  0.417700  1
  H  H51  1  0.884000  0.185000  0.917700  1
  H  H52  1  0.384000  0.815000  0.582300  1
  H  H53  1  0.049700  0.860300  0.038500  1
  H  H54  1  0.549700  0.139700  0.461500  1
  H  H55  1  0.950300  0.139700  0.961500  1
  H  H56  1  0.450300  0.860300  0.538500  1
  H  H57  1  0.203700  0.824900  0.860100  1
  H  H58  1  0.703700  0.175100  0.639900  1
  H  H59  1  0.796300  0.175100  0.139900  1
  H  H60  1  0.296300  0.824900  0.360100  1
  H  H61  1  0.148000  0.760400  0.875900  1
  H  H62  1  0.648000  0.239600  0.624100  1
  H  H63  1  0.852000  0.239600  0.124100  1
  H  H64  1  0.352000  0.760400  0.375900  1
  H  H65  1  0.226100  0.736000  0.845900  1
  H  H66  1  0.726100  0.264000  0.654100  1
  H  H67  1  0.773900  0.264000  0.154100  1
  H  H68  1  0.273900  0.736000  0.345900  1
  H  H69  1  0.287500  0.658100  0.886700  1
  H  H70  1  0.787500  0.341900  0.613300  1
  H  H71  1  0.712500  0.341900  0.113300  1
  H  H72  1  0.212500  0.658100  0.386700  1
  H  H73  1  0.243200  0.707400  0.920000  1
  H  H74  1  0.743200  0.292600  0.580000  1
  H  H75  1  0.756800  0.292600  0.080000  1
  H  H76  1  0.256800  0.707400  0.420000  1
  H  H77  1  0.366300  0.697400  0.914600  1
  H  H78  1  0.866300  0.302600  0.585400  1
  H  H79  1  0.633700  0.302600  0.085400  1
  H  H80  1  0.133700  0.697400  0.414600  1
  H  H81  1  0.350500  0.847500  0.931900  1
  H  H82  1  0.850500  0.152500  0.568100  1
  H  H83  1  0.649500  0.152500  0.068100  1
  H  H84  1  0.149500  0.847500  0.431900  1
  H  H85  1  0.226200  0.841800  0.928800  1
  H  H86  1  0.726200  0.158200  0.571200  1
  H  H87  1  0.773800  0.158200  0.071200  1
  H  H88  1  0.273800  0.841800  0.428800  1
  H  H89  1  0.290000  0.893000  0.908100  1
  H  H90  1  0.790000  0.107000  0.591900  1
  H  H91  1  0.710000  0.107000  0.091900  1
  H  H92  1  0.210000  0.893000  0.408100  1
  H  H93  1  0.177600  0.429600  0.942100  1
  H  H94  1  0.677600  0.570400  0.557900  1
  H  H95  1  0.822400  0.570400  0.057900  1
  H  H96  1  0.322400  0.429600  0.442100  1
  H  H97  1  0.200200  0.421800  0.978900  1
  H  H98  1  0.700200  0.578200  0.521100  1
  H  H99  1  0.799800  0.578200  0.021100  1
  H  H100  1  0.299800  0.421800  0.478900  1
  H  H101  1  0.096400  0.385600  0.961000  1
  H  H102  1  0.596400  0.614400  0.539000  1
  H  H103  1  0.903600  0.614400  0.039000  1
  H  H104  1  0.403600  0.385600  0.461000  1
  H  H105  1  0.169800  0.277100  0.983800  1
  H  H106  1  0.669800  0.722900  0.516200  1
  H  H107  1  0.830200  0.722900  0.016200  1
  H  H108  1  0.330200  0.277100  0.483800  1
  H  H109  1  0.290000  0.300900  0.988500  1
  H  H110  1  0.790000  0.699100  0.511500  1
  H  H111  1  0.710000  0.699100  0.011500  1
  H  H112  1  0.210000  0.300900  0.488500  1
  H  H113  1  0.257900  0.223300  0.964200  1
  H  H114  1  0.757900  0.776700  0.535800  1
  H  H115  1  0.742100  0.776700  0.035800  1
  H  H116  1  0.242100  0.223300  0.464200  1
  H  H117  1  0.101700  0.267100  0.922400  1
  H  H118  1  0.601700  0.732900  0.577600  1
  H  H119  1  0.898300  0.732900  0.077600  1
  H  H120  1  0.398300  0.267100  0.422400  1
  H  H121  1  0.208800  0.225700  0.909600  1
  H  H122  1  0.708800  0.774300  0.590400  1
  H  H123  1  0.791200  0.774300  0.090400  1
  H  H124  1  0.291200  0.225700  0.409600  1
  H  H125  1  0.176300  0.304300  0.899100  1
  H  H126  1  0.676300  0.695700  0.600900  1
  H  H127  1  0.823700  0.695700  0.100900  1
  H  H128  1  0.323700  0.304300  0.399100  1
  H  H129  1  0.727300  0.775900  0.883200  1.0
  H  H130  1  0.227300  0.224100  0.616800  1.0
  H  H131  1  0.272700  0.224100  0.116800  1.0
  H  H132  1  0.772700  0.775900  0.383200  1.0
  H  H133  1  0.774300  0.758900  0.935000  1.0
  H  H134  1  0.274300  0.241100  0.565000  1.0
  H  H135  1  0.225700  0.241100  0.065000  1.0
  H  H136  1  0.725700  0.758900  0.435000  1.0
  H  H137  1  0.030500  0.886600  0.928800  1.0
  H  H138  1  0.530500  0.113400  0.571200  1.0
  H  H139  1  0.969500  0.113400  0.071200  1.0
  H  H140  1  0.469500  0.886600  0.428800  1.0
  H  H141  1  0.974300  0.900600  0.877600  1.0
  H  H142  1  0.474300  0.099400  0.622400  1.0
  H  H143  1  0.025700  0.099400  0.122400  1.0
  H  H144  1  0.525700  0.900600  0.377600  1.0
  H  H145  1  0.936200  0.854400  0.987000  1.0
  H  H146  1  0.436200  0.145600  0.513000  1.0
  H  H147  1  0.063800  0.145600  0.013000  1.0
  H  H148  1  0.563800  0.854400  0.487000  1.0
  H  H149  1  0.895400  0.767900  0.977300  1.0
  H  H150  1  0.395400  0.232100  0.522700  1.0
  H  H151  1  0.104600  0.232100  0.022700  1.0
  H  H152  1  0.604600  0.767900  0.477300  1.0
  H  H153  1  0.094700  0.819200  0.965800  1.0
  H  H154  1  0.594700  0.180800  0.534200  1.0
  H  H155  1  0.905300  0.180800  0.034200  1.0
  H  H156  1  0.405300  0.819200  0.465800  1.0
  H  H157  1  0.055200  0.733500  0.953300  1.0
  H  H158  1  0.555200  0.266500  0.546700  1.0
  H  H159  1  0.944800  0.266500  0.046700  1.0
  H  H160  1  0.444800  0.733500  0.453300  1.0
  H  H161  1  0.193800  0.675800  0.981400  1.0
  H  H162  1  0.693800  0.324200  0.518600  1.0
  H  H163  1  0.806200  0.324200  0.018600  1.0
  H  H164  1  0.306200  0.675800  0.481400  1.0
  H  H165  1  0.242100  0.636600  0.029100  1.0
  H  H166  1  0.742100  0.363400  0.470900  1.0
  H  H167  1  0.757900  0.363400  0.970900  1.0
  H  H168  1  0.257900  0.636600  0.529100  1.0
  H  H169  1  0.090700  0.809900  0.080400  1.0
  H  H170  1  0.590700  0.190100  0.419600  1.0
  H  H171  1  0.909300  0.190100  0.919600  1.0
  H  H172  1  0.409300  0.809900  0.580400  1.0
  H  H173  1  0.023100  0.844900  0.034300  1.0
  H  H174  1  0.523100  0.155100  0.465700  1.0
  H  H175  1  0.976900  0.155100  0.965700  1.0
  H  H176  1  0.476900  0.844900  0.534300  1.0
  H  H177  1  0.552000  0.967600  0.867500  1.0
  H  H178  1  0.052000  0.032400  0.632500  1.0
  H  H179  1  0.448000  0.032400  0.132500  1.0
  H  H180  1  0.948000  0.967600  0.367500  1.0
  H  H181  1  0.730100  0.657500  0.824100  1.0
  H  H182  1  0.230100  0.342500  0.675900  1.0
  H  H183  1  0.269900  0.342500  0.175900  1.0
  H  H184  1  0.769900  0.657500  0.324100  1.0
  H  H185  1  0.706100  0.569900  0.808000  1.0
  H  H186  1  0.206100  0.430100  0.692000  1.0
  H  H187  1  0.293900  0.430100  0.192000  1.0
  H  H188  1  0.793900  0.569900  0.308000  1.0
  H  H189  1  0.670000  0.603700  0.844600  1.0
  H  H190  1  0.170000  0.396300  0.655400  1.0
  H  H191  1  0.330000  0.396300  0.155400  1.0
  H  H192  1  0.830000  0.603700  0.344600  1.0
  H  H193  1  0.519200  0.670100  0.767900  1.0
  H  H194  1  0.019200  0.329900  0.732100  1.0
  H  H195  1  0.480800  0.329900  0.232100  1.0
  H  H196  1  0.980800  0.670100  0.267900  1.0
  H  H197  1  0.606200  0.604300  0.760900  1.0
  H  H198  1  0.106200  0.395700  0.739100  1.0
  H  H199  1  0.393800  0.395700  0.239100  1.0
  H  H200  1  0.893800  0.604300  0.260900  1.0
  H  H201  1  0.639600  0.691500  0.774500  1.0
  H  H202  1  0.139600  0.308500  0.725500  1.0
  H  H203  1  0.360400  0.308500  0.225500  1.0
  H  H204  1  0.860400  0.691500  0.274500  1.0
  H  H205  1  0.487200  0.562700  0.830900  1.0
  H  H206  1  0.987200  0.437300  0.669100  1.0
  H  H207  1  0.512800  0.437300  0.169100  1.0
  H  H208  1  0.012800  0.562700  0.330900  1.0
  H  H209  1  0.526900  0.526300  0.795000  1.0
  H  H210  1  0.026900  0.473700  0.705000  1.0
  H  H211  1  0.473100  0.473700  0.205000  1.0
  H  H212  1  0.973100  0.526300  0.295000  1.0
  H  H213  1  0.431300  0.585300  0.799900  1.0
  H  H214  1  0.931300  0.414700  0.700100  1.0
  H  H215  1  0.568700  0.414700  0.200100  1.0
  H  H216  1  0.068700  0.585300  0.299900  1.0
  H  H217  1  0.406500  0.668000  0.848200  1.0
  H  H218  1  0.906500  0.332000  0.651800  1.0
  H  H219  1  0.593500  0.332000  0.151800  1.0
  H  H220  1  0.093500  0.668000  0.348200  1.0
  H  H221  1  0.209500  0.762600  0.847300  1.0
  H  H222  1  0.709500  0.237400  0.652700  1.0
  H  H223  1  0.790500  0.237400  0.152700  1.0
  H  H224  1  0.290500  0.762600  0.347300  1.0
  H  H225  1  0.148700  0.741000  0.877600  1.0
  H  H226  1  0.648700  0.259000  0.622400  1.0
  H  H227  1  0.851300  0.259000  0.122400  1.0
  H  H228  1  0.351300  0.741000  0.377600  1.0
  H  H229  1  0.232700  0.682800  0.858300  1.0
  H  H230  1  0.732700  0.317200  0.641700  1.0
  H  H231  1  0.767300  0.317200  0.141700  1.0
  H  H232  1  0.267300  0.682800  0.358300  1.0
  H  H233  1  0.351200  0.677400  0.903900  1.0
  H  H234  1  0.851200  0.322600  0.596100  1.0
  H  H235  1  0.648800  0.322600  0.096100  1.0
  H  H236  1  0.148800  0.677400  0.403900  1.0
  H  H237  1  0.256900  0.719000  0.925400  1.0
  H  H238  1  0.756900  0.281000  0.574600  1.0
  H  H239  1  0.743100  0.281000  0.074600  1.0
  H  H240  1  0.243100  0.719000  0.425400  1.0
  H  H241  1  0.372400  0.753400  0.930700  1.0
  H  H242  1  0.872400  0.246600  0.569300  1.0
  H  H243  1  0.627600  0.246600  0.069300  1.0
  H  H244  1  0.127600  0.753400  0.430700  1.0
  H  H245  1  0.315000  0.881800  0.920600  1.0
  H  H246  1  0.815000  0.118200  0.579400  1.0
  H  H247  1  0.685000  0.118200  0.079400  1.0
  H  H248  1  0.185000  0.881800  0.420600  1.0
  H  H249  1  0.199000  0.848000  0.919100  1.0
  H  H250  1  0.699000  0.152000  0.580900  1.0
  H  H251  1  0.801000  0.152000  0.080900  1.0
  H  H252  1  0.301000  0.848000  0.419100  1.0
  H  H253  1  0.242500  0.885400  0.889900  1.0
  H  H254  1  0.742500  0.114600  0.610100  1.0
  H  H255  1  0.757500  0.114600  0.110100  1.0
  H  H256  1  0.257500  0.885400  0.389900  1.0
  H  H257  1  0.427600  0.893000  0.883600  1.0
  H  H258  1  0.927600  0.107000  0.616400  1.0
  H  H259  1  0.572400  0.107000  0.116400  1.0
  H  H260  1  0.072400  0.893000  0.383600  1.0
  H  H261  1  0.991500  0.004700  0.807200  1.0
  H  H262  1  0.491500  0.995300  0.692800  1.0
  H  H263  1  0.008500  0.995300  0.192800  1.0
  H  H264  1  0.508500  0.004700  0.307200  1.0
  H  H265  1  0.986400  0.601400  0.814600  1.0
  H  H266  1  0.486400  0.398600  0.685400  1.0
  H  H267  1  0.013600  0.398600  0.185400  1.0
  H  H268  1  0.513600  0.601400  0.314600  1.0
  H  H269  1  0.936600  0.685700  0.822100  1.0
  H  H270  1  0.436600  0.314300  0.677900  1.0
  H  H271  1  0.063400  0.314300  0.177900  1.0
  H  H272  1  0.563400  0.685700  0.322100  1.0
  H  H273  1  0.055400  0.673200  0.831600  1.0
  H  H274  1  0.555400  0.326800  0.668400  1.0
  H  H275  1  0.944600  0.326800  0.168400  1.0
  H  H276  1  0.444600  0.673200  0.331600  1.0
  H  H277  1  0.927100  0.592600  0.757300  1.0
  H  H278  1  0.427100  0.407400  0.742700  1.0
  H  H279  1  0.072900  0.407400  0.242700  1.0
  H  H280  1  0.572900  0.592600  0.257300  1.0
  H  H281  1  0.971800  0.650800  0.735900  1.0
  H  H282  1  0.471800  0.349200  0.764100  1.0
  H  H283  1  0.028200  0.349200  0.264100  1.0
  H  H284  1  0.528200  0.650800  0.235900  1.0
  H  H285  1  0.887400  0.679600  0.763700  1.0
  H  H286  1  0.387400  0.320400  0.736300  1.0
  H  H287  1  0.112600  0.320400  0.236300  1.0
  H  H288  1  0.612600  0.679600  0.263700  1.0
  H  H289  1  0.185600  0.628300  0.786700  1.0
  H  H290  1  0.685600  0.371700  0.713300  1.0
  H  H291  1  0.814400  0.371700  0.213300  1.0
  H  H292  1  0.314400  0.628300  0.286700  1.0
  H  H293  1  0.149400  0.618600  0.749600  1.0
  H  H294  1  0.649400  0.381400  0.750400  1.0
  H  H295  1  0.850600  0.381400  0.250400  1.0
  H  H296  1  0.350600  0.618600  0.249600  1.0
  H  H297  1  0.106100  0.561300  0.771700  1.0
  H  H298  1  0.606100  0.438700  0.728300  1.0
  H  H299  1  0.893900  0.438700  0.228300  1.0
  H  H300  1  0.393900  0.561300  0.271700  1.0
  H  H301  1  0.212800  0.733600  0.767300  1.0
  H  H302  1  0.712800  0.266400  0.732700  1.0
  H  H303  1  0.787200  0.266400  0.232700  1.0
  H  H304  1  0.287200  0.733600  0.267300  1.0
  H  H305  1  0.335300  0.755600  0.736100  1.0
  H  H306  1  0.835300  0.244400  0.763900  1.0
  H  H307  1  0.664700  0.244400  0.263900  1.0
  H  H308  1  0.164700  0.755600  0.236100  1.0
  H  H309  1  0.405500  0.820000  0.724600  1.0
  H  H310  1  0.905500  0.180000  0.775400  1.0
  H  H311  1  0.594500  0.180000  0.275400  1.0
  H  H312  1  0.094500  0.820000  0.224600  1.0
  H  H313  1  0.285000  0.811600  0.714700  1.0
  H  H314  1  0.785000  0.188400  0.785300  1.0
  H  H315  1  0.715000  0.188400  0.285300  1.0
  H  H316  1  0.215000  0.811600  0.214700  1.0
  H  H317  1  0.260200  0.950200  0.738200  1.0
  H  H318  1  0.760200  0.049800  0.761800  1.0
  H  H319  1  0.739800  0.049800  0.261800  1.0
  H  H320  1  0.239800  0.950200  0.238200  1.0
  H  H321  1  0.383400  0.950200  0.744200  1.0
  H  H322  1  0.883400  0.049800  0.755800  1.0
  H  H323  1  0.616600  0.049800  0.255800  1.0
  H  H324  1  0.116600  0.950200  0.244200  1.0
  H  H325  1  0.306300  0.983600  0.773600  1.0
  H  H326  1  0.806300  0.016400  0.726400  1.0
  H  H327  1  0.693700  0.016400  0.226400  1.0
  H  H328  1  0.193700  0.983600  0.273600  1.0
  H  H329  1  0.365200  0.897400  0.808500  1.0
  H  H330  1  0.865200  0.102600  0.691500  1.0
  H  H331  1  0.634800  0.102600  0.191500  1.0
  H  H332  1  0.134800  0.897400  0.308500  1.0
  H  H333  1  0.453500  0.868600  0.781900  1.0
  H  H334  1  0.953500  0.131400  0.718100  1.0
  H  H335  1  0.546500  0.131400  0.218100  1.0
  H  H336  1  0.046500  0.868600  0.281900  1.0
  H  H337  1  0.379500  0.807600  0.794300  1.0
  H  H338  1  0.879500  0.192400  0.705700  1.0
  H  H339  1  0.620500  0.192400  0.205700  1.0
  H  H340  1  0.120500  0.807600  0.294300  1.0
  H  H341  1  0.146500  0.957300  0.785400  1.0
  H  H342  1  0.646500  0.042700  0.714600  1.0
  H  H343  1  0.853500  0.042700  0.214600  1.0
  H  H344  1  0.353500  0.957300  0.285400  1.0
  H  H345  1  0.933800  0.104400  0.834000  1.0
  H  H346  1  0.433800  0.895600  0.666000  1.0
  H  H347  1  0.066200  0.895600  0.166000  1.0
  H  H348  1  0.566200  0.104400  0.334000  1.0
  H  H349  1  0.597300  0.076300  0.872300  1.0
  H  H350  1  0.097300  0.923700  0.627700  1.0
  H  H351  1  0.402700  0.923700  0.127700  1.0
  H  H352  1  0.902700  0.076300  0.372300  1.0
  H  H353  1  0.476300  0.820000  0.112300  1.0
  H  H354  1  0.976300  0.180000  0.387700  1.0
  H  H355  1  0.523700  0.180000  0.887700  1.0
  H  H356  1  0.023700  0.820000  0.612300  1.0
  H  H357  1  0.503000  0.475700  0.108200  1.0
  H  H358  1  0.003000  0.524300  0.391800  1.0
  H  H359  1  0.497000  0.524300  0.891800  1.0
  H  H360  1  0.997000  0.475700  0.608200  1.0
  H  H361  1  0.387800  0.504700  0.102200  1.0
  H  H362  1  0.887800  0.495300  0.397800  1.0
  H  H363  1  0.612200  0.495300  0.897800  1.0
  H  H364  1  0.112200  0.504700  0.602200  1.0
  H  H365  1  0.418600  0.416700  0.089500  1.0
  H  H366  1  0.918600  0.583300  0.410500  1.0
  H  H367  1  0.581400  0.583300  0.910500  1.0
  H  H368  1  0.081400  0.416700  0.589500  1.0
  H  H369  1  0.329000  0.508200  0.045400  1.0
  H  H370  1  0.829000  0.491800  0.454600  1.0
  H  H371  1  0.671000  0.491800  0.954600  1.0
  H  H372  1  0.171000  0.508200  0.545400  1.0
  H  H373  1  0.409200  0.485700  0.015800  1.0
  H  H374  1  0.909200  0.514300  0.484200  1.0
  H  H375  1  0.590800  0.514300  0.984200  1.0
  H  H376  1  0.090800  0.485700  0.515800  1.0
  H  H377  1  0.365100  0.420900  0.034000  1.0
  H  H378  1  0.865100  0.579100  0.466000  1.0
  H  H379  1  0.634900  0.579100  0.966000  1.0
  H  H380  1  0.134900  0.420900  0.534000  1.0
  H  H381  1  0.539300  0.379000  0.044900  1.0
  H  H382  1  0.039300  0.621000  0.455100  1.0
  H  H383  1  0.460700  0.621000  0.955100  1.0
  H  H384  1  0.960700  0.379000  0.544900  1.0
  H  H385  1  0.586800  0.440500  0.025600  1.0
  H  H386  1  0.086800  0.559500  0.474400  1.0
  H  H387  1  0.413200  0.559500  0.974400  1.0
  H  H388  1  0.913200  0.440500  0.525600  1.0
  H  H389  1  0.625500  0.438900  0.061800  1.0
  H  H390  1  0.125500  0.561100  0.438200  1.0
  H  H391  1  0.374500  0.561100  0.938200  1.0
  H  H392  1  0.874500  0.438900  0.561800  1.0
  H  H393  1  0.660100  0.550900  0.047500  1.0
  H  H394  1  0.160100  0.449100  0.452500  1.0
  H  H395  1  0.339900  0.449100  0.952500  1.0
  H  H396  1  0.839900  0.550900  0.547500  1.0
  H  H397  1  0.850000  0.635800  0.089900  1.0
  H  H398  1  0.350000  0.364200  0.410100  1.0
  H  H399  1  0.150000  0.364200  0.910100  1.0
  H  H400  1  0.650000  0.635800  0.589900  1.0
  H  H401  1  0.827300  0.572600  0.057900  1.0
  H  H402  1  0.327300  0.427400  0.442100  1.0
  H  H403  1  0.172700  0.427400  0.942100  1.0
  H  H404  1  0.672700  0.572600  0.557900  1.0
  H  H405  1  0.918400  0.634200  0.057800  1.0
  H  H406  1  0.418400  0.365800  0.442200  1.0
  H  H407  1  0.081600  0.365800  0.942200  1.0
  H  H408  1  0.581600  0.634200  0.557800  1.0
  H  H409  1  0.853900  0.671700  0.011100  1.0
  H  H410  1  0.353900  0.328300  0.488900  1.0
  H  H411  1  0.146100  0.328300  0.988900  1.0
  H  H412  1  0.646100  0.671700  0.511100  1.0
  H  H413  1  0.752900  0.617800  0.007200  1.0
  H  H414  1  0.252900  0.382200  0.492800  1.0
  H  H415  1  0.247100  0.382200  0.992800  1.0
  H  H416  1  0.747100  0.617800  0.507200  1.0
  H  H417  1  0.740600  0.708300  0.009100  1.0
  H  H418  1  0.240600  0.291700  0.490900  1.0
  H  H419  1  0.259400  0.291700  0.990900  1.0
  H  H420  1  0.759400  0.708300  0.509100  1.0
  H  H421  1  0.879100  0.769900  0.061300  1.0
  H  H422  1  0.379100  0.230100  0.438700  1.0
  H  H423  1  0.120900  0.230100  0.938700  1.0
  H  H424  1  0.620900  0.769900  0.561300  1.0
  H  H425  1  0.761700  0.799800  0.060300  1.0
  H  H426  1  0.261700  0.200200  0.439700  1.0
  H  H427  1  0.238300  0.200200  0.939700  1.0
  H  H428  1  0.738300  0.799800  0.560300  1.0
  H  H429  1  0.804300  0.772600  0.092100  1.0
  H  H430  1  0.304300  0.227400  0.407900  1.0
  H  H431  1  0.195700  0.227400  0.907900  1.0
  H  H432  1  0.695700  0.772600  0.592100  1.0
  H  H433  1  0.623000  0.772600  0.086500  1.0
  H  H434  1  0.123000  0.227400  0.413500  1.0
  H  H435  1  0.377000  0.227400  0.913500  1.0
  H  H436  1  0.877000  0.772600  0.586500  1.0
  H  H437  1  0.028300  0.783000  0.163700  1.0
  H  H438  1  0.528300  0.217000  0.336300  1.0
  H  H439  1  0.971700  0.217000  0.836300  1.0
  H  H440  1  0.471700  0.783000  0.663700  1.0
  H  H441  1  0.170600  0.393400  0.096700  1.0
  H  H442  1  0.670600  0.606600  0.403300  1.0
  H  H443  1  0.829400  0.606600  0.903300  1.0
  H  H444  1  0.329400  0.393400  0.596700  1.0
  H  H445  1  0.189000  0.481300  0.113400  1.0
  H  H446  1  0.689000  0.518700  0.386600  1.0
  H  H447  1  0.811000  0.518700  0.886600  1.0
  H  H448  1  0.311000  0.481300  0.613400  1.0
  H  H449  1  0.127400  0.425500  0.132600  1.0
  H  H450  1  0.627400  0.574500  0.367400  1.0
  H  H451  1  0.872600  0.574500  0.867400  1.0
  H  H452  1  0.372600  0.425500  0.632600  1.0
  H  H453  1  0.088100  0.424700  0.049300  1.0
  H  H454  1  0.588100  0.575300  0.450700  1.0
  H  H455  1  0.911900  0.575300  0.950700  1.0
  H  H456  1  0.411900  0.424700  0.549300  1.0
  H  H457  1  0.986800  0.478200  0.052100  1.0
  H  H458  1  0.486800  0.521800  0.447900  1.0
  H  H459  1  0.013200  0.521800  0.947900  1.0
  H  H460  1  0.513200  0.478200  0.552100  1.0
  H  H461  1  0.098700  0.515400  0.061900  1.0
  H  H462  1  0.598700  0.484600  0.438100  1.0
  H  H463  1  0.901300  0.484600  0.938100  1.0
  H  H464  1  0.401300  0.515400  0.561900  1.0
  H  H465  1  0.948900  0.384400  0.117700  1.0
  H  H466  1  0.448900  0.615600  0.382300  1.0
  H  H467  1  0.051100  0.615600  0.882300  1.0
  H  H468  1  0.551100  0.384400  0.617700  1.0
  H  H469  1  0.896200  0.404100  0.085700  1.0
  H  H470  1  0.396200  0.595900  0.414300  1.0
  H  H471  1  0.103800  0.595900  0.914300  1.0
  H  H472  1  0.603800  0.404100  0.585700  1.0
  H  H473  1  0.992600  0.345900  0.082600  1.0
  H  H474  1  0.492600  0.654100  0.417400  1.0
  H  H475  1  0.007400  0.654100  0.917400  1.0
  H  H476  1  0.507400  0.345900  0.582600  1.0
  H  H477  1  0.861000  0.489700  0.130700  1.0
  H  H478  1  0.361000  0.510300  0.369300  1.0
  H  H479  1  0.139000  0.510300  0.869300  1.0
  H  H480  1  0.639000  0.489700  0.630700  1.0
  H  H481  1  0.599300  0.569200  0.152500  1.0
  H  H482  1  0.099300  0.430800  0.347500  1.0
  H  H483  1  0.400700  0.430800  0.847500  1.0
  H  H484  1  0.900700  0.569200  0.652500  1.0
  H  H485  1  0.665000  0.608600  0.127700  1.0
  H  H486  1  0.165000  0.391400  0.372300  1.0
  H  H487  1  0.335000  0.391400  0.872300  1.0
  H  H488  1  0.835000  0.608600  0.627700  1.0
  H  H489  1  0.686200  0.521000  0.129800  1.0
  H  H490  1  0.186200  0.479000  0.370200  1.0
  H  H491  1  0.313800  0.479000  0.870200  1.0
  H  H492  1  0.813800  0.521000  0.629800  1.0
  H  H493  1  0.805300  0.556900  0.207900  1.0
  H  H494  1  0.305300  0.443100  0.292100  1.0
  H  H495  1  0.194700  0.443100  0.792100  1.0
  H  H496  1  0.694700  0.556900  0.707900  1.0
  H  H497  1  0.682900  0.542400  0.202400  1.0
  H  H498  1  0.182900  0.457600  0.297600  1.0
  H  H499  1  0.317100  0.457600  0.797600  1.0
  H  H500  1  0.817100  0.542400  0.702400  1.0
  H  H501  1  0.765100  0.489900  0.179300  1.0
  H  H502  1  0.265100  0.510100  0.320700  1.0
  H  H503  1  0.234900  0.510100  0.820700  1.0
  H  H504  1  0.734900  0.489900  0.679300  1.0
  H  H505  1  0.769000  0.695200  0.204500  1.0
  H  H506  1  0.269000  0.304800  0.295500  1.0
  H  H507  1  0.231000  0.304800  0.795500  1.0
  H  H508  1  0.731000  0.695200  0.704500  1.0
  H  H509  1  0.709300  0.712800  0.173200  1.0
  H  H510  1  0.209300  0.287200  0.326800  1.0
  H  H511  1  0.290700  0.287200  0.826800  1.0
  H  H512  1  0.790700  0.712800  0.673200  1.0
  H  H513  1  0.649000  0.672000  0.198600  1.0
  H  H514  1  0.149000  0.328000  0.301400  1.0
  H  H515  1  0.351000  0.328000  0.801400  1.0
  H  H516  1  0.851000  0.672000  0.698600  1.0
  H  H517  1  0.888300  0.711700  0.170900  1.0
  H  H518  1  0.388300  0.288300  0.329100  1.0
  H  H519  1  0.111700  0.288300  0.829100  1.0
  H  H520  1  0.611700  0.711700  0.670900  1.0
  C  C521  1  0.817600  0.792600  0.894820  1
  C  C522  1  0.317600  0.207400  0.605180  1
  C  C523  1  0.182400  0.207400  0.105180  1
  C  C524  1  0.682400  0.792600  0.394820  1
  C  C525  1  0.849900  0.787500  0.925760  1
  C  C526  1  0.349900  0.212500  0.574240  1
  C  C527  1  0.150100  0.212500  0.074240  1
  C  C528  1  0.650100  0.787500  0.425760  1
  C  C529  1  0.920200  0.839700  0.942010  1
  C  C530  1  0.420200  0.160300  0.557990  1
  C  C531  1  0.079800  0.160300  0.057990  1
  C  C532  1  0.579800  0.839700  0.442010  1
  C  C533  1  0.952000  0.898300  0.926560  1
  C  C534  1  0.452000  0.101700  0.573440  1
  C  C535  1  0.048000  0.101700  0.073440  1
  C  C536  1  0.548000  0.898300  0.426560  1
  C  C537  1  0.916700  0.898900  0.895390  1
  C  C538  1  0.416700  0.101100  0.604610  1
  C  C539  1  0.083300  0.101100  0.104610  1
  C  C540  1  0.583300  0.898900  0.395390  1
  C  C541  1  0.962200  0.832900  0.975060  1
  C  C542  1  0.462200  0.167100  0.524940  1
  C  C543  1  0.037800  0.167100  0.024940  1
  C  C544  1  0.537800  0.832900  0.475060  1
  C  C545  1  0.066300  0.802400  0.974250  1
  C  C546  1  0.566300  0.197600  0.525750  1
  C  C547  1  0.933700  0.197600  0.025750  1
  C  C548  1  0.433700  0.802400  0.474250  1
  C  C549  1  0.101300  0.771800  0.004170  1
  C  C550  1  0.601300  0.228200  0.495830  1
  C  C551  1  0.898700  0.228200  0.995830  1
  C  C552  1  0.398700  0.771800  0.504170  1
  C  C553  1  0.128500  0.693900  0.002070  1
  C  C554  1  0.628500  0.306100  0.497930  1
  C  C555  1  0.871500  0.306100  0.997930  1
  C  C556  1  0.371500  0.693900  0.502070  1
  C  C557  1  0.168500  0.670300  0.029300  1
  C  C558  1  0.668500  0.329700  0.470700  1
  C  C559  1  0.831500  0.329700  0.970700  1
  C  C560  1  0.331500  0.670300  0.529300  1
  C  C561  1  0.124200  0.784300  0.061160  1
  C  C562  1  0.624200  0.215700  0.438840  1
  C  C563  1  0.875800  0.215700  0.938840  1
  C  C564  1  0.375800  0.784300  0.561160  1
  C  C565  1  0.086100  0.812800  0.035060  1
  C  C566  1  0.586100  0.187200  0.464940  1
  C  C567  1  0.913900  0.187200  0.964940  1
  C  C568  1  0.413900  0.812800  0.535060  1
  C  C569  1  0.212100  0.774200  0.865700  1
  C  C570  1  0.712100  0.225800  0.634300  1
  C  C571  1  0.787900  0.225800  0.134300  1
  C  C572  1  0.287900  0.774200  0.365700  1
  C  C573  1  0.299500  0.703100  0.904000  1
  C  C574  1  0.799500  0.296900  0.596000  1
  C  C575  1  0.700500  0.296900  0.096000  1
  C  C576  1  0.200500  0.703100  0.404000  1
  C  C577  1  0.291200  0.845900  0.917000  1
  C  C578  1  0.791200  0.154100  0.583000  1
  C  C579  1  0.708800  0.154100  0.083000  1
  C  C580  1  0.208800  0.845900  0.417000  1
  C  C581  1  0.170400  0.396200  0.958000  1
  C  C582  1  0.670400  0.603800  0.542000  1
  C  C583  1  0.829600  0.603800  0.042000  1
  C  C584  1  0.329600  0.396200  0.458000  1
  C  C585  1  0.237400  0.276500  0.972850  1
  C  C586  1  0.737400  0.723500  0.527150  1
  C  C587  1  0.762600  0.723500  0.027150  1
  C  C588  1  0.262600  0.276500  0.472850  1
  C  C589  1  0.174400  0.275400  0.916730  1
  C  C590  1  0.674400  0.724600  0.583270  1
  C  C591  1  0.825600  0.724600  0.083270  1
  C  C592  1  0.325600  0.275400  0.416730  1
  C  C593  1  0.788600  0.799600  0.893240  1.0
  C  C594  1  0.288600  0.200400  0.606760  1.0
  C  C595  1  0.211400  0.200400  0.106760  1.0
  C  C596  1  0.711400  0.799600  0.393240  1.0
  C  C597  1  0.817200  0.788700  0.923750  1.0
  C  C598  1  0.317200  0.211300  0.576250  1.0
  C  C599  1  0.182800  0.211300  0.076250  1.0
  C  C600  1  0.682800  0.788700  0.423750  1.0
  C  C601  1  0.907600  0.820900  0.937960  1.0
  C  C602  1  0.407600  0.179100  0.562040  1.0
  C  C603  1  0.092400  0.179100  0.062040  1.0
  C  C604  1  0.592400  0.820900  0.437960  1.0
  C  C605  1  0.967100  0.863600  0.920230  1.0
  C  C606  1  0.467100  0.136400  0.579770  1.0
  C  C607  1  0.032900  0.136400  0.079770  1.0
  C  C608  1  0.532900  0.863600  0.420230  1.0
  C  C609  1  0.932500  0.872200  0.889820  1.0
  C  C610  1  0.432500  0.127800  0.610180  1.0
  C  C611  1  0.067500  0.127800  0.110180  1.0
  C  C612  1  0.567500  0.872200  0.389820  1.0
  C  C613  1  0.942700  0.806200  0.970660  1.0
  C  C614  1  0.442700  0.193800  0.529340  1.0
  C  C615  1  0.057300  0.193800  0.029340  1.0
  C  C616  1  0.557300  0.806200  0.470660  1.0
  C  C617  1  0.047900  0.778900  0.971030  1.0
  C  C618  1  0.547900  0.221100  0.528970  1.0
  C  C619  1  0.952100  0.221100  0.028970  1.0
  C  C620  1  0.452100  0.778900  0.471030  1.0
  C  C621  1  0.086700  0.756800  0.002410  1.0
  C  C622  1  0.586700  0.243200  0.497590  1.0
  C  C623  1  0.913300  0.243200  0.997590  1.0
  C  C624  1  0.413300  0.756800  0.502410  1.0
  C  C625  1  0.164400  0.700100  0.001600  1.0
  C  C626  1  0.664400  0.299900  0.498400  1.0
  C  C627  1  0.835600  0.299900  0.998400  1.0
  C  C628  1  0.335600  0.700100  0.501600  1.0
  C  C629  1  0.197800  0.679900  0.030300  1.0
  C  C630  1  0.697800  0.320100  0.469700  1.0
  C  C631  1  0.802200  0.320100  0.969700  1.0
  C  C632  1  0.302200  0.679900  0.530300  1.0
  C  C633  1  0.107400  0.779600  0.059770  1.0
  C  C634  1  0.607400  0.220400  0.440230  1.0
  C  C635  1  0.892600  0.220400  0.940230  1.0
  C  C636  1  0.392600  0.779600  0.559770  1.0
  C  C637  1  0.065900  0.800500  0.032390  1.0
  C  C638  1  0.565900  0.199500  0.467610  1.0
  C  C639  1  0.934100  0.199500  0.967610  1.0
  C  C640  1  0.434100  0.800500  0.532390  1.0
  C  C641  1  0.720800  0.017730  0.849590  1.0
  C  C642  1  0.220800  0.982270  0.650410  1.0
  C  C643  1  0.279200  0.982270  0.150410  1.0
  C  C644  1  0.779200  0.017730  0.349590  1.0
  C  C645  1  0.593100  0.925700  0.856780  1.0
  C  C646  1  0.093100  0.074300  0.643220  1.0
  C  C647  1  0.406900  0.074300  0.143220  1.0
  C  C648  1  0.906900  0.925700  0.356780  1.0
  C  C649  1  0.550200  0.850370  0.854220  1.0
  C  C650  1  0.050200  0.149630  0.645780  1.0
  C  C651  1  0.449800  0.149630  0.145780  1.0
  C  C652  1  0.949800  0.850370  0.354220  1.0
  C  C653  1  0.594100  0.782800  0.835160  1.0
  C  C654  1  0.094100  0.217200  0.664840  1.0
  C  C655  1  0.405900  0.217200  0.164840  1.0
  C  C656  1  0.905900  0.782800  0.335160  1.0
  C  C657  1  0.535700  0.712900  0.832280  1.0
  C  C658  1  0.035700  0.287100  0.667720  1.0
  C  C659  1  0.464300  0.287100  0.167720  1.0
  C  C660  1  0.964300  0.712900  0.332280  1.0
  C  C661  1  0.574800  0.639700  0.810180  1.0
  C  C662  1  0.074800  0.360300  0.689820  1.0
  C  C663  1  0.425200  0.360300  0.189820  1.0
  C  C664  1  0.925200  0.639700  0.310180  1.0
  C  C665  1  0.679800  0.615500  0.822880  1.0
  C  C666  1  0.179800  0.384500  0.677120  1.0
  C  C667  1  0.320200  0.384500  0.177120  1.0
  C  C668  1  0.820200  0.615500  0.322880  1.0
  C  C669  1  0.586000  0.652600  0.775210  1.0
  C  C670  1  0.086000  0.347400  0.724790  1.0
  C  C671  1  0.414000  0.347400  0.224790  1.0
  C  C672  1  0.914000  0.652600  0.275210  1.0
  C  C673  1  0.498100  0.572400  0.808870  1.0
  C  C674  1  0.998100  0.427600  0.691130  1.0
  C  C675  1  0.501900  0.427600  0.191130  1.0
  C  C676  1  0.001900  0.572400  0.308870  1.0
  C  C677  1  0.444200  0.714700  0.849900  1.0
  C  C678  1  0.944200  0.285300  0.650100  1.0
  C  C679  1  0.555800  0.285300  0.150100  1.0
  C  C680  1  0.055800  0.714700  0.349900  1.0
  C  C681  1  0.402600  0.780300  0.870110  1.0
  C  C682  1  0.902600  0.219700  0.629890  1.0
  C  C683  1  0.597400  0.219700  0.129890  1.0
  C  C684  1  0.097400  0.780300  0.370110  1.0
  C  C685  1  0.302100  0.776100  0.889080  1.0
  C  C686  1  0.802100  0.223900  0.610920  1.0
  C  C687  1  0.697900  0.223900  0.110920  1.0
  C  C688  1  0.197900  0.776100  0.389080  1.0
  C  C689  1  0.215300  0.737000  0.865900  1.0
  C  C690  1  0.715300  0.263000  0.634100  1.0
  C  C691  1  0.784700  0.263000  0.134100  1.0
  C  C692  1  0.284700  0.737000  0.365900  1.0
  C  C693  1  0.322500  0.727100  0.914500  1.0
  C  C694  1  0.822500  0.272900  0.585500  1.0
  C  C695  1  0.677500  0.272900  0.085500  1.0
  C  C696  1  0.177500  0.727100  0.414500  1.0
  C  C697  1  0.260900  0.855000  0.906200  1.0
  C  C698  1  0.760900  0.145000  0.593800  1.0
  C  C699  1  0.739100  0.145000  0.093800  1.0
  C  C700  1  0.239100  0.855000  0.406200  1.0
  C  C701  1  0.455400  0.846900  0.871090  1.0
  C  C702  1  0.955400  0.153100  0.628910  1.0
  C  C703  1  0.544600  0.153100  0.128910  1.0
  C  C704  1  0.044600  0.846900  0.371090  1.0
  C  C705  1  0.822800  0.025670  0.837870  1.0
  C  C706  1  0.322800  0.974330  0.662130  1.0
  C  C707  1  0.177200  0.974330  0.162130  1.0
  C  C708  1  0.677200  0.025670  0.337870  1.0
  C  C709  1  0.964100  0.956280  0.809420  1.0
  C  C710  1  0.464100  0.043720  0.690580  1.0
  C  C711  1  0.035900  0.043720  0.190580  1.0
  C  C712  1  0.535900  0.956280  0.309420  1.0
  C  C713  1  0.025100  0.890850  0.796460  1.0
  C  C714  1  0.525100  0.109150  0.703540  1.0
  C  C715  1  0.974900  0.109150  0.203540  1.0
  C  C716  1  0.474900  0.890850  0.296460  1.0
  C  C717  1  0.992300  0.812610  0.794640  1.0
  C  C718  1  0.492300  0.187390  0.705360  1.0
  C  C719  1  0.007700  0.187390  0.205360  1.0
  C  C720  1  0.507700  0.812610  0.294640  1.0
  C  C721  1  0.065800  0.752800  0.783400  1.0
  C  C722  1  0.565800  0.247200  0.716600  1.0
  C  C723  1  0.934200  0.247200  0.216600  1.0
  C  C724  1  0.434200  0.752800  0.283400  1.0
  C  C725  1  0.035100  0.668600  0.782170  1.0
  C  C726  1  0.535100  0.331400  0.717830  1.0
  C  C727  1  0.964900  0.331400  0.217830  1.0
  C  C728  1  0.464900  0.668600  0.282170  1.0
  C  C729  1  0.000200  0.656100  0.815600  1.0
  C  C730  1  0.500200  0.343900  0.684400  1.0
  C  C731  1  0.999800  0.343900  0.184400  1.0
  C  C732  1  0.499800  0.656100  0.315600  1.0
  C  C733  1  0.947500  0.645900  0.757560  1.0
  C  C734  1  0.447500  0.354100  0.742440  1.0
  C  C735  1  0.052500  0.354100  0.242440  1.0
  C  C736  1  0.552500  0.645900  0.257560  1.0
  C  C737  1  0.127400  0.614300  0.771580  1.0
  C  C738  1  0.627400  0.385700  0.728420  1.0
  C  C739  1  0.872600  0.385700  0.228420  1.0
  C  C740  1  0.372600  0.614300  0.271580  1.0
  C  C741  1  0.163800  0.773600  0.774070  1.0
  C  C742  1  0.663800  0.226400  0.725930  1.0
  C  C743  1  0.836200  0.226400  0.225930  1.0
  C  C744  1  0.336200  0.773600  0.274070  1.0
  C  C745  1  0.196200  0.848800  0.773850  1.0
  C  C746  1  0.696200  0.151200  0.726150  1.0
  C  C747  1  0.803800  0.151200  0.226150  1.0
  C  C748  1  0.303800  0.848800  0.273850  1.0
  C  C749  1  0.307000  0.864200  0.762520  1.0
  C  C750  1  0.807000  0.135800  0.737480  1.0
  C  C751  1  0.693000  0.135800  0.237480  1.0
  C  C752  1  0.193000  0.864200  0.262520  1.0
  C  C753  1  0.335700  0.807900  0.731760  1.0
  C  C754  1  0.835700  0.192100  0.768240  1.0
  C  C755  1  0.664300  0.192100  0.268240  1.0
  C  C756  1  0.164300  0.807900  0.231760  1.0
  C  C757  1  0.314900  0.944300  0.753860  1.0
  C  C758  1  0.814900  0.055700  0.746140  1.0
  C  C759  1  0.685100  0.055700  0.246140  1.0
  C  C760  1  0.185100  0.944300  0.253860  1.0
  C  C761  1  0.382800  0.859000  0.789080  1.0
  C  C762  1  0.882800  0.141000  0.710920  1.0
  C  C763  1  0.617200  0.141000  0.210920  1.0
  C  C764  1  0.117200  0.859000  0.289080  1.0
  C  C765  1  0.126600  0.905600  0.785110  1.0
  C  C766  1  0.626600  0.094400  0.714890  1.0
  C  C767  1  0.873400  0.094400  0.214890  1.0
  C  C768  1  0.373400  0.905600  0.285110  1.0
  C  C769  1  0.865400  0.098540  0.841870  1.0
  C  C770  1  0.365400  0.901460  0.658130  1.0
  C  C771  1  0.134600  0.901460  0.158130  1.0
  C  C772  1  0.634600  0.098540  0.341870  1.0
  C  C773  1  0.666000  0.082230  0.864680  1.0
  C  C774  1  0.166000  0.917770  0.635320  1.0
  C  C775  1  0.334000  0.917770  0.135320  1.0
  C  C776  1  0.834000  0.082230  0.364680  1.0
  C  C777  1  0.291300  0.845360  0.131170  1.0
  C  C778  1  0.791300  0.154640  0.368830  1.0
  C  C779  1  0.708700  0.154640  0.868830  1.0
  C  C780  1  0.208700  0.845360  0.631170  1.0
  C  C781  1  0.436900  0.774200  0.106110  1.0
  C  C782  1  0.936900  0.225800  0.393890  1.0
  C  C783  1  0.563100  0.225800  0.893890  1.0
  C  C784  1  0.063100  0.774200  0.606110  1.0
  C  C785  1  0.490800  0.709020  0.088850  1.0
  C  C786  1  0.990800  0.290980  0.411150  1.0
  C  C787  1  0.509200  0.290980  0.911150  1.0
  C  C788  1  0.009200  0.709020  0.588850  1.0
  C  C789  1  0.447400  0.634000  0.080110  1.0
  C  C790  1  0.947400  0.366000  0.419890  1.0
  C  C791  1  0.552600  0.366000  0.919890  1.0
  C  C792  1  0.052600  0.634000  0.580110  1.0
  C  C793  1  0.516800  0.572600  0.065790  1.0
  C  C794  1  0.016800  0.427400  0.434210  1.0
  C  C795  1  0.483200  0.427400  0.934210  1.0
  C  C796  1  0.983200  0.572600  0.565790  1.0
  C  C797  1  0.478800  0.488700  0.060800  1.0
  C  C798  1  0.978800  0.511300  0.439200  1.0
  C  C799  1  0.521200  0.511300  0.939200  1.0
  C  C800  1  0.021200  0.488700  0.560800  1.0
  C  C801  1  0.443900  0.469800  0.093040  1.0
  C  C802  1  0.943900  0.530200  0.406960  1.0
  C  C803  1  0.556100  0.530200  0.906960  1.0
  C  C804  1  0.056100  0.469800  0.593040  1.0
  C  C805  1  0.387300  0.474600  0.036830  1.0
  C  C806  1  0.887300  0.525400  0.463170  1.0
  C  C807  1  0.612700  0.525400  0.963170  1.0
  C  C808  1  0.112700  0.474600  0.536830  1.0
  C  C809  1  0.565500  0.431600  0.047040  1.0
  C  C810  1  0.065500  0.568400  0.452960  1.0
  C  C811  1  0.434500  0.568400  0.952960  1.0
  C  C812  1  0.934500  0.431600  0.547040  1.0
  C  C813  1  0.616600  0.591500  0.058060  1.0
  C  C814  1  0.116600  0.408500  0.441940  1.0
  C  C815  1  0.383400  0.408500  0.941940  1.0
  C  C816  1  0.883400  0.591500  0.558060  1.0
  C  C817  1  0.659400  0.665500  0.064380  1.0
  C  C818  1  0.159400  0.334500  0.435620  1.0
  C  C819  1  0.340600  0.334500  0.935620  1.0
  C  C820  1  0.840600  0.665500  0.564380  1.0
  C  C821  1  0.770700  0.680600  0.054410  1.0
  C  C822  1  0.270700  0.319400  0.445590  1.0
  C  C823  1  0.229300  0.319400  0.945590  1.0
  C  C824  1  0.729300  0.680600  0.554410  1.0
  C  C825  1  0.848700  0.625800  0.066100  1.0
  C  C826  1  0.348700  0.374200  0.433900  1.0
  C  C827  1  0.151300  0.374200  0.933900  1.0
  C  C828  1  0.651300  0.625800  0.566100  1.0
  C  C829  1  0.780400  0.668500  0.017040  1.0
  C  C830  1  0.280400  0.331500  0.482960  1.0
  C  C831  1  0.219600  0.331500  0.982960  1.0
  C  C832  1  0.719600  0.668500  0.517040  1.0
  C  C833  1  0.807300  0.763300  0.068300  1.0
  C  C834  1  0.307300  0.236700  0.431700  1.0
  C  C835  1  0.192700  0.236700  0.931700  1.0
  C  C836  1  0.692700  0.763300  0.568300  1.0
  C  C837  1  0.595700  0.722100  0.080560  1.0
  C  C838  1  0.095700  0.277900  0.419440  1.0
  C  C839  1  0.404300  0.277900  0.919440  1.0
  C  C840  1  0.904300  0.722100  0.580560  1.0
  C  C841  1  0.188600  0.836840  0.142990  1.0
  C  C842  1  0.688600  0.163160  0.357010  1.0
  C  C843  1  0.811400  0.163160  0.857010  1.0
  C  C844  1  0.311400  0.836840  0.642990  1.0
  C  C845  1  0.062000  0.743720  0.148640  1.0
  C  C846  1  0.562000  0.256280  0.351360  1.0
  C  C847  1  0.938000  0.256280  0.851360  1.0
  C  C848  1  0.438000  0.743720  0.648640  1.0
  C  C849  1  0.012700  0.670450  0.142000  1.0
  C  C850  1  0.512700  0.329550  0.358000  1.0
  C  C851  1  0.987300  0.329550  0.858000  1.0
  C  C852  1  0.487300  0.670450  0.642000  1.0
  C  C853  1  0.054100  0.603620  0.121650  1.0
  C  C854  1  0.554100  0.396380  0.378350  1.0
  C  C855  1  0.945900  0.396380  0.878350  1.0
  C  C856  1  0.445900  0.603620  0.621650  1.0
  C  C857  1  0.994400  0.534000  0.117840  1.0
  C  C858  1  0.494400  0.466000  0.382160  1.0
  C  C859  1  0.005600  0.466000  0.882160  1.0
  C  C860  1  0.505600  0.534000  0.617840  1.0
  C  C861  1  0.037800  0.459800  0.096820  1.0
  C  C862  1  0.537800  0.540200  0.403180  1.0
  C  C863  1  0.962200  0.540200  0.903180  1.0
  C  C864  1  0.462200  0.459800  0.596820  1.0
  C  C865  1  0.140400  0.438100  0.111130  1.0
  C  C866  1  0.640400  0.561900  0.388870  1.0
  C  C867  1  0.859600  0.561900  0.888870  1.0
  C  C868  1  0.359600  0.438100  0.611130  1.0
  C  C869  1  0.054300  0.470500  0.061900  1.0
  C  C870  1  0.554300  0.529500  0.438100  1.0
  C  C871  1  0.945700  0.529500  0.938100  1.0
  C  C872  1  0.445700  0.470500  0.561900  1.0
  C  C873  1  0.962000  0.392500  0.095610  1.0
  C  C874  1  0.462000  0.607500  0.404390  1.0
  C  C875  1  0.038000  0.607500  0.904390  1.0
  C  C876  1  0.538000  0.392500  0.595610  1.0
  C  C877  1  0.899900  0.536000  0.133410  1.0
  C  C878  1  0.399900  0.464000  0.366590  1.0
  C  C879  1  0.100100  0.464000  0.866590  1.0
  C  C880  1  0.600100  0.536000  0.633410  1.0
  C  C881  1  0.856900  0.601200  0.152990  1.0
  C  C882  1  0.356900  0.398800  0.347010  1.0
  C  C883  1  0.143100  0.398800  0.847010  1.0
  C  C884  1  0.643100  0.601200  0.652990  1.0
  C  C885  1  0.749000  0.597200  0.168460  1.0
  C  C886  1  0.249000  0.402800  0.331540  1.0
  C  C887  1  0.251000  0.402800  0.831540  1.0
  C  C888  1  0.751000  0.597200  0.668460  1.0
  C  C889  1  0.667600  0.571700  0.142280  1.0
  C  C890  1  0.167600  0.428300  0.357720  1.0
  C  C891  1  0.332400  0.428300  0.857720  1.0
  C  C892  1  0.832400  0.571700  0.642280  1.0
  C  C893  1  0.750700  0.541700  0.191540  1.0
  C  C894  1  0.250700  0.458300  0.308460  1.0
  C  C895  1  0.249300  0.458300  0.808460  1.0
  C  C896  1  0.749300  0.541700  0.691540  1.0
  C  C897  1  0.716100  0.676600  0.187980  1.0
  C  C898  1  0.216100  0.323400  0.312020  1.0
  C  C899  1  0.283900  0.323400  0.812020  1.0
  C  C900  1  0.783900  0.676600  0.687980  1.0
  C  C901  1  0.914700  0.666800  0.157230  1.0
  C  C902  1  0.414700  0.333200  0.342770  1.0
  C  C903  1  0.085300  0.333200  0.842770  1.0
  C  C904  1  0.585300  0.666800  0.657230  1.0
  N  N905  1  0.848000  0.843920  0.877680  1.0
  N  N906  1  0.348000  0.156080  0.622320  1.0
  N  N907  1  0.152000  0.156080  0.122320  1.0
  N  N908  1  0.652000  0.843920  0.377680  1.0
  N  N909  1  0.170500  0.718520  0.058830  1.0
  N  N910  1  0.670500  0.281480  0.441170  1.0
  N  N911  1  0.829500  0.281480  0.941170  1.0
  N  N912  1  0.329500  0.718520  0.558830  1.0
  N  N913  1  0.683700  0.941590  0.845710  1.0
  N  N914  1  0.183700  0.058410  0.654290  1.0
  N  N915  1  0.316300  0.058410  0.154290  1.0
  N  N916  1  0.816300  0.941590  0.345710  1.0
  N  N917  1  0.874300  0.956690  0.824040  1.0
  N  N918  1  0.374300  0.043310  0.675960  1.0
  N  N919  1  0.125700  0.043310  0.175960  1.0
  N  N920  1  0.625700  0.956690  0.324040  1.0
  N  N921  1  0.338800  0.777440  0.114370  1.0
  N  N922  1  0.838800  0.222560  0.385630  1.0
  N  N923  1  0.661200  0.222560  0.885630  1.0
  N  N924  1  0.161200  0.777440  0.614370  1.0
  N  N925  1  0.148200  0.761750  0.136030  1.0
  N  N926  1  0.648200  0.238250  0.363970  1.0
  N  N927  1  0.851800  0.238250  0.863970  1.0
  N  N928  1  0.351800  0.761750  0.636030  1.0
  O  O929  1  0.683730  0.782790  0.820560  1.0
  O  O930  1  0.183730  0.217210  0.679440  1.0
  O  O931  1  0.316270  0.217210  0.179440  1.0
  O  O932  1  0.816270  0.782790  0.320560  1.0
  O  O933  1  0.898300  0.795600  0.802260  1.0
  O  O934  1  0.398300  0.204400  0.697740  1.0
  O  O935  1  0.101700  0.204400  0.197740  1.0
  O  O936  1  0.601700  0.795600  0.302260  1.0
  O  O937  1  0.350830  0.619110  0.084930  1.0
  O  O938  1  0.850830  0.380890  0.415070  1.0
  O  O939  1  0.649170  0.380890  0.915070  1.0
  O  O940  1  0.149170  0.619110  0.584930  1.0
  O  O941  1  0.143480  0.602580  0.107150  1.0
  O  O942  1  0.643480  0.397420  0.392850  1.0
  O  O943  1  0.856520  0.397420  0.892850  1.0
  O  O944  1  0.356520  0.602580  0.607150  1.0
