# generated using pymatgen
data_H205Pd2C221S18(N3O13)4
_symmetry_space_group_name_H-M   'P 1'
_cell_length_a   21.29700000
_cell_length_b   21.48000000
_cell_length_c   27.27600000
_cell_angle_alpha   70.01700000
_cell_angle_beta   69.06200000
_cell_angle_gamma   61.46800000
_symmetry_Int_Tables_number   1
_chemical_formula_structural   H205Pd2C221S18(N3O13)4
_chemical_formula_sum   'H410 Pd4 C442 S36 N24 O104'
_cell_volume   10013.46728319
_cell_formula_units_Z   2
loop_
 _symmetry_equiv_pos_site_id
 _symmetry_equiv_pos_as_xyz
  1  'x, y, z'
loop_
 _atom_site_type_symbol
 _atom_site_label
 _atom_site_symmetry_multiplicity
 _atom_site_fract_x
 _atom_site_fract_y
 _atom_site_fract_z
 _atom_site_occupancy
  H  H1  1  0.621300  0.671900  0.340400  1
  H  H2  1  0.378700  0.328100  0.659600  1
  H  H3  1  0.550600  0.647300  0.425000  1
  H  H4  1  0.449400  0.352700  0.575000  1
  H  H5  1  0.572700  0.528500  0.472000  1
  H  H6  1  0.427300  0.471500  0.528000  1
  H  H7  1  0.739700  0.459300  0.347400  1
  H  H8  1  0.260300  0.540700  0.652600  1
  H  H9  1  0.553400  0.453600  0.417500  1
  H  H10  1  0.446600  0.546400  0.582500  1
  H  H11  1  0.475800  0.396100  0.438400  1
  H  H12  1  0.524200  0.603900  0.561600  1
  H  H13  1  0.509900  0.275200  0.484200  1
  H  H14  1  0.490100  0.724800  0.515800  1
  H  H15  1  0.623200  0.211300  0.505800  1
  H  H16  1  0.376800  0.788700  0.494200  1
  H  H17  1  0.863000  0.200400  0.506700  1
  H  H18  1  0.137000  0.799600  0.493300  1
  H  H19  1  0.931000  0.261700  0.495900  1
  H  H20  1  0.069000  0.738300  0.504100  1
  H  H21  1  0.888700  0.388400  0.462700  1
  H  H22  1  0.111300  0.611600  0.537300  1
  H  H23  1  0.778700  0.450600  0.438400  1
  H  H24  1  0.221300  0.549400  0.561600  1
  H  H25  1  0.851100  0.805900  0.228000  1
  H  H26  1  0.148900  0.194100  0.772000  1
  H  H27  1  0.921900  0.747400  0.288400  1
  H  H28  1  0.078100  0.252600  0.711600  1
  H  H29  1  0.909000  0.806800  0.351900  1
  H  H30  1  0.091000  0.193200  0.648100  1
  H  H31  1  0.745200  0.978900  0.295300  1
  H  H32  1  0.254800  0.021100  0.704700  1
  H  H33  1  0.900500  0.975500  0.268500  1
  H  H34  1  0.099500  0.024500  0.731500  1
  H  H35  1  0.942200  0.064300  0.236500  1
  H  H36  1  0.057800  0.935700  0.763500  1
  H  H37  1  0.932900  0.128500  0.294400  1
  H  H38  1  0.067100  0.871500  0.705600  1
  H  H39  1  0.870400  0.112100  0.382600  1
  H  H40  1  0.129600  0.887900  0.617400  1
  H  H41  1  0.713500  0.994400  0.530500  1
  H  H42  1  0.286500  0.005600  0.469500  1
  H  H43  1  0.654300  0.919500  0.556000  1
  H  H44  1  0.345700  0.080500  0.444000  1
  H  H45  1  0.660800  0.858600  0.497500  1
  H  H46  1  0.339200  0.141400  0.502500  1
  H  H47  1  0.737200  0.864200  0.412300  1
  H  H48  1  0.262800  0.135800  0.587700  1
  H  H49  1  0.742200  0.163400  0.437000  1
  H  H50  1  0.257800  0.836600  0.563000  1
  H  H51  1  0.816300  0.577100  0.336100  1
  H  H52  1  0.183700  0.422900  0.663900  1
  H  H53  1  0.924000  0.501000  0.364800  1
  H  H54  1  0.076000  0.499000  0.635200  1
  H  H55  1  0.002900  0.393000  0.334000  1
  H  H56  1  0.997100  0.607000  0.666000  1
  H  H57  1  0.872400  0.454500  0.233500  1
  H  H58  1  0.127600  0.545500  0.766500  1
  H  H59  1  0.929500  0.310900  0.358400  1
  H  H60  1  0.070500  0.689100  0.641600  1
  H  H61  1  0.935900  0.200500  0.407700  1
  H  H62  1  0.064100  0.799500  0.592300  1
  H  H63  1  0.020500  0.094300  0.372800  1
  H  H64  1  0.979500  0.905700  0.627200  1
  H  H65  1  0.083500  0.105900  0.284500  1
  H  H66  1  0.916500  0.894100  0.715500  1
  H  H67  1  0.128200  0.258500  0.103400  1
  H  H68  1  0.871800  0.741500  0.896600  1
  H  H69  1  0.121400  0.371300  0.052500  1
  H  H70  1  0.878600  0.628700  0.947500  1
  H  H71  1  0.052200  0.474200  0.092300  1
  H  H72  1  0.947800  0.525800  0.907700  1
  H  H73  1  0.995600  0.467400  0.179700  1
  H  H74  1  0.004400  0.532600  0.820300  1
  H  H75  1  0.802000  0.915700  0.093900  1
  H  H76  1  0.198000  0.084300  0.906100  1
  H  H77  1  0.904600  0.913600  0.027800  1
  H  H78  1  0.095400  0.086400  0.972200  1
  H  H79  1  0.988900  0.945900  0.039000  1
  H  H80  1  0.011100  0.054100  0.961000  1
  H  H81  1  0.854600  0.987500  0.181900  1
  H  H82  1  0.145400  0.012500  0.818100  1
  H  H83  1  0.902200  0.098200  0.054000  1
  H  H84  1  0.097800  0.901800  0.946000  1
  H  H85  1  0.907800  0.208800  0.007700  1
  H  H86  1  0.092200  0.791200  0.992300  1
  H  H87  1  0.998800  0.238500  0.015400  1
  H  H88  1  0.001200  0.761500  0.984600  1
  H  H89  1  0.072900  0.161300  0.073900  1
  H  H90  1  0.927100  0.838700  0.926100  1
  H  H91  1  0.136400  0.943300  0.220600  1
  H  H92  1  0.863600  0.056700  0.779400  1
  H  H93  1  0.124600  0.837400  0.269600  1
  H  H94  1  0.875400  0.162600  0.730400  1
  H  H95  1  0.055400  0.795800  0.249800  1
  H  H96  1  0.944600  0.204200  0.750200  1
  H  H97  1  0.991700  0.862500  0.184400  1
  H  H98  1  0.008300  0.137500  0.815600  1
  H  H99  1  0.031300  0.150700  0.180100  1
  H  H100  1  0.968700  0.849300  0.819900  1
  H  H101  1  0.843300  0.651700  0.179600  1
  H  H102  1  0.156700  0.348300  0.820400  1
  H  H103  1  0.891200  0.677000  0.089400  1
  H  H104  1  0.108800  0.323000  0.910600  1
  H  H105  1  0.862500  0.642200  0.031000  1
  H  H106  1  0.137500  0.357800  0.969000  1
  H  H107  1  0.749000  0.546800  0.159400  1
  H  H108  1  0.251000  0.453200  0.840600  1
  H  H109  1  0.922400  0.484000  0.062800  1
  H  H110  1  0.077600  0.516000  0.937200  1
  H  H111  1  0.010500  0.390600  0.021800  1
  H  H112  1  0.989500  0.609400  0.978200  1
  H  H113  1  0.984900  0.351600  0.959000  1
  H  H114  1  0.015100  0.648400  0.041000  1
  H  H115  1  0.865800  0.404500  0.950200  1
  H  H116  1  0.134200  0.595500  0.049800  1
  H  H117  1  0.605900  0.576900  0.994800  1
  H  H118  1  0.394100  0.423100  0.005200  1
  H  H119  1  0.518300  0.671800  0.033600  1
  H  H120  1  0.481700  0.328200  0.966400  1
  H  H121  1  0.547300  0.719800  0.084900  1
  H  H122  1  0.452700  0.280200  0.915100  1
  H  H123  1  0.666100  0.672800  0.091900  1
  H  H124  1  0.333900  0.327200  0.908100  1
  H  H125  1  0.606300  0.964600  0.163000  1
  H  H126  1  0.393700  0.035400  0.837000  1
  H  H127  1  0.543600  0.034500  0.095800  1
  H  H128  1  0.456400  0.965500  0.904200  1
  H  H129  1  0.557500  0.140200  0.045700  1
  H  H130  1  0.442500  0.859800  0.954300  1
  H  H131  1  0.706600  0.094200  0.124400  1
  H  H132  1  0.293400  0.905800  0.875600  1
  H  H133  1  0.515000  0.235000  0.112100  1
  H  H134  1  0.485000  0.765000  0.887900  1
  H  H135  1  0.426700  0.348800  0.120200  1
  H  H136  1  0.573300  0.651200  0.879800  1
  H  H137  1  0.450000  0.450800  0.068200  1
  H  H138  1  0.550000  0.549200  0.931800  1
  H  H139  1  0.563900  0.438500  0.011600  1
  H  H140  1  0.436100  0.561500  0.988400  1
  H  H141  1  0.816400  0.280800  0.930400  1
  H  H142  1  0.183600  0.719200  0.069600  1
  H  H143  1  0.903200  0.168700  0.914600  1
  H  H144  1  0.096800  0.831300  0.085400  1
  H  H145  1  0.874500  0.065200  0.960100  1
  H  H146  1  0.125500  0.934800  0.039900  1
  H  H147  1  0.766400  0.075200  0.018600  1
  H  H148  1  0.233600  0.924800  0.981400  1
  H  H149  1  0.724200  0.391900  0.020600  1
  H  H150  1  0.275800  0.608100  0.979400  1
  H  H151  1  0.651200  0.727100  0.195100  1
  H  H152  1  0.348800  0.272900  0.804900  1
  H  H153  1  0.545400  0.777500  0.164600  1
  H  H154  1  0.454600  0.222500  0.835400  1
  H  H155  1  0.466900  0.713500  0.196700  1
  H  H156  1  0.533100  0.286500  0.803300  1
  H  H157  1  0.617300  0.550500  0.276000  1
  H  H158  1  0.382700  0.449500  0.724000  1
  H  H159  1  0.564700  0.561200  0.164500  1
  H  H160  1  0.435300  0.438800  0.835500  1
  H  H161  1  0.570400  0.490500  0.118000  1
  H  H162  1  0.429600  0.509500  0.882000  1
  H  H163  1  0.501300  0.417200  0.156700  1
  H  H164  1  0.498700  0.582800  0.843300  1
  H  H165  1  0.429800  0.420700  0.242600  1
  H  H166  1  0.570200  0.579300  0.757400  1
  H  H167  1  0.348500  0.504200  0.416000  1
  H  H168  1  0.651500  0.495800  0.584000  1
  H  H169  1  0.358300  0.574900  0.460800  1
  H  H170  1  0.641700  0.425100  0.539200  1
  H  H171  1  0.421600  0.641200  0.422900  1
  H  H172  1  0.578400  0.358800  0.577100  1
  H  H173  1  0.480900  0.650800  0.333800  1
  H  H174  1  0.519100  0.349200  0.666200  1
  H  H175  1  0.650500  0.858600  0.282500  1
  H  H176  1  0.349500  0.141400  0.717500  1
  H  H177  1  0.554400  0.866800  0.353700  1
  H  H178  1  0.445600  0.133200  0.646300  1
  H  H179  1  0.477200  0.979300  0.383600  1
  H  H180  1  0.522800  0.020700  0.616400  1
  H  H181  1  0.605000  0.066800  0.260700  1
  H  H182  1  0.395000  0.933200  0.739300  1
  H  H183  1  0.558800  0.017700  0.415700  1
  H  H184  1  0.441200  0.982300  0.584300  1
  H  H185  1  0.558800  0.044500  0.490600  1
  H  H186  1  0.441200  0.955500  0.509400  1
  H  H187  1  0.485000  0.160600  0.508300  1
  H  H188  1  0.515000  0.839400  0.491700  1
  H  H189  1  0.419400  0.252900  0.448600  1
  H  H190  1  0.580600  0.747100  0.551400  1
  H  H191  1  0.344300  0.339900  0.277200  1
  H  H192  1  0.655700  0.660100  0.722800  1
  H  H193  1  0.351900  0.316300  0.197000  1
  H  H194  1  0.648100  0.683700  0.803000  1
  H  H195  1  0.411700  0.198700  0.182500  1
  H  H196  1  0.588300  0.801300  0.817500  1
  H  H197  1  0.473100  0.105700  0.243100  1
  H  H198  1  0.526900  0.894300  0.756900  1
  H  H199  1  0.457900  0.349400  0.331900  1
  H  H200  1  0.542100  0.650600  0.668100  1
  H  H201  1  0.679800  0.196400  0.633000  1
  H  H202  1  0.320200  0.803600  0.367000  1
  H  H203  1  0.695600  0.254600  0.580100  1
  H  H204  1  0.304400  0.745400  0.419900  1
  H  H205  1  0.776300  0.262300  0.618300  1
  H  H206  1  0.223700  0.737700  0.381700  1
  H  H207  1  0.692700  0.291000  0.651800  1
  H  H208  1  0.307300  0.709000  0.348200  1
  H  H209  1  0.716500  0.166600  0.765300  1
  H  H210  1  0.283500  0.833400  0.234700  1
  H  H211  1  0.664900  0.185500  0.727100  1
  H  H212  1  0.335100  0.814500  0.272900  1
  H  H213  1  0.670700  0.249300  0.740400  1
  H  H214  1  0.329300  0.750700  0.259600  1
  H  H215  1  0.754400  0.058100  0.650500  1
  H  H216  1  0.245600  0.941900  0.349500  1
  H  H217  1  0.821500  0.010000  0.679300  1
  H  H218  1  0.178500  0.990000  0.320700  1
  H  H219  1  0.822000  0.905800  0.657500  1
  H  H220  1  0.178000  0.094200  0.342500  1
  H  H221  1  0.760700  0.937900  0.708000  1
  H  H222  1  0.239300  0.062100  0.292000  1
  H  H223  1  0.656400  0.925900  0.644000  1
  H  H224  1  0.343600  0.074100  0.356000  1
  H  H225  1  0.692700  0.889400  0.694600  1
  H  H226  1  0.307300  0.110600  0.305400  1
  H  H227  1  0.740900  0.870200  0.637300  1
  H  H228  1  0.259100  0.129800  0.362700  1
  H  H229  1  0.964700  0.870400  0.535600  1
  H  H230  1  0.035300  0.129600  0.464400  1
  H  H231  1  0.952200  0.948500  0.538900  1
  H  H232  1  0.047800  0.051500  0.461100  1
  H  H233  1  0.963000  0.983700  0.442400  1
  H  H234  1  0.037000  0.016300  0.557600  1
  H  H235  1  0.037700  0.925700  0.460600  1
  H  H236  1  0.962300  0.074300  0.539400  1
  H  H237  1  0.029200  0.859000  0.364400  1
  H  H238  1  0.970800  0.141000  0.635600  1
  H  H239  1  0.084100  0.875800  0.380300  1
  H  H240  1  0.915900  0.124200  0.619700  1
  H  H241  1  0.012100  0.940800  0.362500  1
  H  H242  1  0.987900  0.059200  0.637500  1
  H  H243  1  0.334800  0.093100  0.179000  1
  H  H244  1  0.665200  0.906900  0.821000  1
  H  H245  1  0.310600  0.166500  0.197100  1
  H  H246  1  0.689400  0.833500  0.802900  1
  H  H247  1  0.303500  0.158100  0.096500  1
  H  H248  1  0.696500  0.841900  0.903500  1
  H  H249  1  0.268000  0.233800  0.115200  1
  H  H250  1  0.732000  0.766200  0.884800  1
  H  H251  1  0.398500  0.192500  0.025000  1
  H  H252  1  0.601500  0.807500  0.975000  1
  H  H253  1  0.432000  0.234200  0.040300  1
  H  H254  1  0.568000  0.765800  0.959700  1
  H  H255  1  0.345700  0.268000  0.043600  1
  H  H256  1  0.654300  0.732000  0.956400  1
  H  H257  1  0.324700  0.925100  0.182400  1
  H  H258  1  0.675300  0.074900  0.817600  1
  H  H259  1  0.315300  0.969500  0.223200  1
  H  H260  1  0.684700  0.030500  0.776800  1
  H  H261  1  0.439600  0.885600  0.197900  1
  H  H262  1  0.560400  0.114400  0.802100  1
  H  H263  1  0.441900  0.929100  0.137000  1
  H  H264  1  0.558100  0.070900  0.863000  1
  H  H265  1  0.483600  0.983100  0.238000  1
  H  H266  1  0.516400  0.016900  0.762000  1
  H  H267  1  0.487100  0.905300  0.242600  1
  H  H268  1  0.512900  0.094700  0.757400  1
  H  H269  1  0.410700  0.967800  0.264000  1
  H  H270  1  0.589300  0.032200  0.736000  1
  H  H271  1  0.201300  0.018300  0.057200  1
  H  H272  1  0.798700  0.981700  0.942800  1
  H  H273  1  0.260200  0.936300  0.058300  1
  H  H274  1  0.739800  0.063700  0.941700  1
  H  H275  1  0.308500  0.024600  0.000000  1
  H  H276  1  0.691500  0.975400  0.000000  1
  H  H277  1  0.299300  0.049100  0.052500  1
  H  H278  1  0.700700  0.950900  0.947500  1
  H  H279  1  0.481000  0.927000  0.034700  1
  H  H280  1  0.519000  0.073000  0.965300  1
  H  H281  1  0.426700  0.005300  0.048200  1
  H  H282  1  0.573300  0.994700  0.951800  1
  H  H283  1  0.442100  0.991700  0.990100  1
  H  H284  1  0.557900  0.008300  0.009900  1
  H  H285  1  0.827100  0.547900  0.874100  1
  H  H286  1  0.172900  0.452100  0.125900  1
  H  H287  1  0.772300  0.601900  0.914400  1
  H  H288  1  0.227700  0.398100  0.085600  1
  H  H289  1  0.735200  0.694800  0.836000  1
  H  H290  1  0.264800  0.305200  0.164000  1
  H  H291  1  0.817600  0.672100  0.838800  1
  H  H292  1  0.182400  0.327900  0.161200  1
  H  H293  1  0.854600  0.672900  0.710500  1
  H  H294  1  0.145400  0.327100  0.289500  1
  H  H295  1  0.825800  0.724400  0.751500  1
  H  H296  1  0.174200  0.275600  0.248500  1
  H  H297  1  0.768200  0.718000  0.730600  1
  H  H298  1  0.231800  0.282000  0.269400  1
  H  H299  1  0.740200  0.567800  0.780200  1
  H  H300  1  0.259800  0.432200  0.219800  1
  H  H301  1  0.733200  0.514100  0.756000  1
  H  H302  1  0.266800  0.485900  0.244000  1
  H  H303  1  0.856400  0.478000  0.757900  1
  H  H304  1  0.143600  0.522000  0.242100  1
  H  H305  1  0.832400  0.466100  0.822300  1
  H  H306  1  0.167600  0.533900  0.177700  1
  H  H307  1  0.908800  0.301300  0.785400  1
  H  H308  1  0.091200  0.698700  0.214600  1
  H  H309  1  0.888000  0.319600  0.842900  1
  H  H310  1  0.112000  0.680400  0.157100  1
  H  H311  1  0.930900  0.359500  0.791200  1
  H  H312  1  0.069100  0.640500  0.208800  1
  H  H313  1  0.724600  0.362200  0.829200  1
  H  H314  1  0.275400  0.637800  0.170800  1
  H  H315  1  0.648300  0.425600  0.816800  1
  H  H316  1  0.351700  0.574400  0.183200  1
  H  H317  1  0.592800  0.341800  0.853500  1
  H  H318  1  0.407200  0.658200  0.146500  1
  H  H319  1  0.659200  0.319700  0.802800  1
  H  H320  1  0.340800  0.680300  0.197200  1
  H  H321  1  0.761800  0.165700  0.847200  1
  H  H322  1  0.238200  0.834300  0.152800  1
  H  H323  1  0.787900  0.220700  0.853200  1
  H  H324  1  0.212100  0.779300  0.146800  1
  H  H325  1  0.755100  0.239000  0.803100  1
  H  H326  1  0.244900  0.761000  0.196900  1
  H  H327  1  0.194300  0.568300  0.306300  1
  H  H328  1  0.805700  0.431700  0.693700  1
  H  H329  1  0.269900  0.577100  0.273500  1
  H  H330  1  0.730100  0.422900  0.726500  1
  H  H331  1  0.221700  0.681200  0.315000  1
  H  H332  1  0.778300  0.318800  0.685000  1
  H  H333  1  0.186000  0.693300  0.268200  1
  H  H334  1  0.814000  0.306700  0.731800  1
  H  H335  1  0.076200  0.684700  0.418400  1
  H  H336  1  0.923800  0.315300  0.581600  1
  H  H337  1  0.127100  0.729100  0.392000  1
  H  H338  1  0.872900  0.270900  0.608000  1
  H  H339  1  0.163800  0.642400  0.404200  1
  H  H340  1  0.836200  0.357600  0.595800  1
  H  H341  1  0.154900  0.406300  0.467800  1
  H  H342  1  0.845100  0.593700  0.532200  1
  H  H343  1  0.104600  0.490000  0.461000  1
  H  H344  1  0.895400  0.510000  0.539000  1
  H  H345  1  0.156700  0.508600  0.503200  1
  H  H346  1  0.843300  0.491400  0.496800  1
  H  H347  1  0.175200  0.425100  0.529300  1
  H  H348  1  0.824800  0.574900  0.470700  1
  H  H349  1  0.331000  0.356700  0.521500  1
  H  H350  1  0.669000  0.643300  0.478500  1
  H  H351  1  0.251300  0.390700  0.559400  1
  H  H352  1  0.748700  0.609300  0.440600  1
  H  H353  1  0.307400  0.428600  0.541200  1
  H  H354  1  0.692600  0.571400  0.458800  1
  H  H355  1  0.257400  0.265200  0.467100  1
  H  H356  1  0.742600  0.734800  0.532900  1
  H  H357  1  0.289700  0.215700  0.423600  1
  H  H358  1  0.710300  0.784300  0.576400  1
  H  H359  1  0.175600  0.212600  0.474700  1
  H  H360  1  0.824400  0.787400  0.525300  1
  H  H361  1  0.136600  0.299300  0.463500  1
  H  H362  1  0.863400  0.700700  0.536500  1
  H  H363  1  0.102300  0.222300  0.384100  1
  H  H364  1  0.897700  0.777700  0.615900  1
  H  H365  1  0.053600  0.285600  0.417100  1
  H  H366  1  0.946400  0.714400  0.582900  1
  H  H367  1  0.098200  0.205300  0.446800  1
  H  H368  1  0.901800  0.794700  0.553200  1
  H  H369  1  0.338900  0.102000  0.147100  1
  H  H370  1  0.661100  0.898000  0.852900  1
  H  H371  1  0.319300  0.180000  0.154700  1
  H  H372  1  0.680700  0.820000  0.845300  1
  H  H373  1  0.271200  0.166400  0.075600  1
  H  H374  1  0.728800  0.833600  0.924400  1
  H  H375  1  0.275900  0.237100  0.078900  1
  H  H376  1  0.724100  0.762900  0.921100  1
  H  H377  1  0.355500  0.229100  0.982000  1
  H  H378  1  0.644500  0.770900  0.018000  1
  H  H379  1  0.430000  0.214500  0.994200  1
  H  H380  1  0.570000  0.785500  0.005800  1
  H  H381  1  0.352500  0.266900  0.024600  1
  H  H382  1  0.647500  0.733100  0.975400  1
  H  H383  1  0.344100  0.909400  0.162600  1
  H  H384  1  0.655900  0.090600  0.837400  1
  H  H385  1  0.293200  0.937300  0.217100  1
  H  H386  1  0.706800  0.062700  0.782900  1
  H  H387  1  0.424300  0.876200  0.215500  1
  H  H388  1  0.575700  0.123800  0.784500  1
  H  H389  1  0.434800  0.943100  0.169100  1
  H  H390  1  0.565200  0.056900  0.830900  1
  H  H391  1  0.409800  0.013100  0.273400  1
  H  H392  1  0.590200  0.986900  0.726600  1
  H  H393  1  0.464100  0.992100  0.217800  1
  H  H394  1  0.535900  0.007900  0.782200  1
  H  H395  1  0.463000  0.930200  0.271000  1
  H  H396  1  0.537000  0.069800  0.729000  1
  H  H397  1  0.592300  0.437200  0.861700  1
  H  H398  1  0.407700  0.562800  0.138300  1
  H  H399  1  0.592000  0.379600  0.917800  1
  H  H400  1  0.408000  0.620400  0.082200  1
  H  H401  1  0.569300  0.344500  0.852400  1
  H  H402  1  0.430700  0.655500  0.147600  1
  H  H403  1  0.647200  0.341100  0.814000  1
  H  H404  1  0.352800  0.658900  0.186000  1
  H  H405  1  0.738600  0.206200  0.824400  1
  H  H406  1  0.261400  0.793800  0.175600  1
  H  H407  1  0.748900  0.185600  0.884000  1
  H  H408  1  0.251100  0.814400  0.116000  1
  H  H409  1  0.752600  0.259300  0.844600  1
  H  H410  1  0.247400  0.740700  0.155400  1
  Pd  Pd411  1  0.726260  0.955830  0.202620  1
  Pd  Pd412  1  0.273740  0.044170  0.797380  1
  Pd  Pd413  1  0.741780  0.583650  0.257070  1
  Pd  Pd414  1  0.258220  0.416350  0.742930  1
  C  C415  1  0.630800  0.623000  0.358700  1
  C  C416  1  0.369200  0.377000  0.641300  1
  C  C417  1  0.589300  0.608300  0.409100  1
  C  C418  1  0.410700  0.391700  0.590900  1
  C  C419  1  0.602400  0.538100  0.437200  1
  C  C420  1  0.397600  0.461900  0.562800  1
  C  C421  1  0.660700  0.480600  0.413300  1
  C  C422  1  0.339300  0.519400  0.586700  1
  C  C423  1  0.700100  0.498100  0.363100  1
  C  C424  1  0.299900  0.501900  0.636900  1
  C  C425  1  0.567700  0.404600  0.436300  1
  C  C426  1  0.432300  0.595400  0.563700  1
  C  C427  1  0.521600  0.370300  0.448400  1
  C  C428  1  0.478400  0.629700  0.551600  1
  C  C429  1  0.542200  0.298500  0.475000  1
  C  C430  1  0.457800  0.701500  0.525000  1
  C  C431  1  0.609300  0.260800  0.488100  1
  C  C432  1  0.390700  0.739200  0.511900  1
  C  C433  1  0.658300  0.293700  0.476000  1
  C  C434  1  0.341700  0.706300  0.524000  1
  C  C435  1  0.729100  0.251900  0.488400  1
  C  C436  1  0.270900  0.748100  0.511600  1
  C  C437  1  0.774200  0.289000  0.478900  1
  C  C438  1  0.225800  0.711000  0.521100  1
  C  C439  1  0.844900  0.251200  0.492900  1
  C  C440  1  0.155100  0.748800  0.507100  1
  C  C441  1  0.884800  0.287600  0.486500  1
  C  C442  1  0.115200  0.712400  0.513500  1
  C  C443  1  0.860000  0.363600  0.466200  1
  C  C444  1  0.140000  0.636400  0.533800  1
  C  C445  1  0.795400  0.399700  0.452000  1
  C  C446  1  0.204600  0.600300  0.548000  1
  C  C447  1  0.751000  0.363600  0.456800  1
  C  C448  1  0.249000  0.636400  0.543200  1
  C  C449  1  0.680700  0.404000  0.441200  1
  C  C450  1  0.319300  0.596000  0.558800  1
  C  C451  1  0.635300  0.368700  0.451300  1
  C  C452  1  0.364700  0.631300  0.548700  1
  C  C453  1  0.843300  0.829500  0.254800  1
  C  C454  1  0.156700  0.170500  0.745200  1
  C  C455  1  0.886100  0.795500  0.289300  1
  C  C456  1  0.113900  0.204500  0.710700  1
  C  C457  1  0.878200  0.830800  0.327300  1
  C  C458  1  0.121800  0.169200  0.672700  1
  C  C459  1  0.826400  0.899300  0.328600  1
  C  C460  1  0.173600  0.100700  0.671400  1
  C  C461  1  0.782100  0.931300  0.293800  1
  C  C462  1  0.217900  0.068700  0.706200  1
  C  C463  1  0.891800  0.004400  0.291900  1
  C  C464  1  0.108200  0.995600  0.708100  1
  C  C465  1  0.918400  0.054900  0.273400  1
  C  C466  1  0.081600  0.945100  0.726600  1
  C  C467  1  0.911500  0.094200  0.307700  1
  C  C468  1  0.088500  0.905800  0.692300  1
  C  C469  1  0.874700  0.084300  0.360100  1
  C  C470  1  0.125300  0.915700  0.639900  1
  C  C471  1  0.841700  0.031800  0.382300  1
  C  C472  1  0.158300  0.968200  0.617700  1
  C  C473  1  0.802800  0.022400  0.435000  1
  C  C474  1  0.197200  0.977600  0.565000  1
  C  C475  1  0.765700  0.975300  0.453300  1
  C  C476  1  0.234300  0.024700  0.546700  1
  C  C477  1  0.719300  0.968500  0.506000  1
  C  C478  1  0.280700  0.031500  0.494000  1
  C  C479  1  0.683800  0.924800  0.520500  1
  C  C480  1  0.316200  0.075200  0.479500  1
  C  C481  1  0.688400  0.887200  0.486000  1
  C  C482  1  0.311600  0.112800  0.514000  1
  C  C483  1  0.732400  0.891300  0.435600  1
  C  C484  1  0.267600  0.108700  0.564400  1
  C  C485  1  0.771500  0.937000  0.418000  1
  C  C486  1  0.228500  0.063000  0.582000  1
  C  C487  1  0.816500  0.942600  0.366300  1
  C  C488  1  0.183500  0.057400  0.633700  1
  C  C489  1  0.849600  0.991700  0.347000  1
  C  C490  1  0.150400  0.008300  0.653000  1
  C  C491  1  0.758100  0.172600  0.503800  1
  C  C492  1  0.241900  0.827400  0.496200  1
  C  C493  1  0.782900  0.131100  0.550700  1
  C  C494  1  0.217100  0.868900  0.449300  1
  C  C495  1  0.819100  0.056100  0.557400  1
  C  C496  1  0.180900  0.943900  0.442600  1
  C  C497  1  0.829500  0.020200  0.519500  1
  C  C498  1  0.170500  0.979800  0.480500  1
  C  C499  1  0.798500  0.060000  0.475100  1
  C  C500  1  0.201500  0.940000  0.524900  1
  C  C501  1  0.763100  0.136200  0.467300  1
  C  C502  1  0.236900  0.863800  0.532700  1
  C  C503  1  0.850600  0.536400  0.320400  1
  C  C504  1  0.149400  0.463600  0.679600  1
  C  C505  1  0.913300  0.489800  0.338600  1
  C  C506  1  0.086700  0.510200  0.661400  1
  C  C507  1  0.961500  0.426800  0.319500  1
  C  C508  1  0.038500  0.573200  0.680500  1
  C  C509  1  0.946800  0.414500  0.277600  1
  C  C510  1  0.053200  0.585500  0.722400  1
  C  C511  1  0.883700  0.463700  0.260300  1
  C  C512  1  0.116300  0.536300  0.739700  1
  C  C513  1  0.959800  0.269800  0.342500  1
  C  C514  1  0.040200  0.730200  0.657500  1
  C  C515  1  0.965000  0.204800  0.372000  1
  C  C516  1  0.035000  0.795200  0.628000  1
  C  C517  1  0.014000  0.141000  0.350700  1
  C  C518  1  0.986000  0.859000  0.649300  1
  C  C519  1  0.051000  0.148300  0.298500  1
  C  C520  1  0.949000  0.851700  0.701500  1
  C  C521  1  0.042900  0.217700  0.263500  1
  C  C522  1  0.957100  0.782300  0.736500  1
  C  C523  1  0.077400  0.223100  0.209100  1
  C  C524  1  0.922600  0.776900  0.790900  1
  C  C525  1  0.070200  0.291000  0.176500  1
  C  C526  1  0.929800  0.709000  0.823500  1
  C  C527  1  0.103000  0.299400  0.119700  1
  C  C528  1  0.897000  0.700600  0.880300  1
  C  C529  1  0.097700  0.365700  0.089600  1
  C  C530  1  0.902300  0.634300  0.910400  1
  C  C531  1  0.055800  0.428000  0.114300  1
  C  C532  1  0.944200  0.572000  0.885700  1
  C  C533  1  0.022400  0.424700  0.165500  1
  C  C534  1  0.977600  0.575300  0.834500  1
  C  C535  1  0.027000  0.355300  0.199900  1
  C  C536  1  0.973000  0.644700  0.800100  1
  C  C537  1  0.994100  0.347400  0.254000  1
  C  C538  1  0.005900  0.652600  0.746000  1
  C  C539  1  0.999100  0.280000  0.286500  1
  C  C540  1  0.000900  0.720000  0.713500  1
  C  C541  1  0.834400  0.930800  0.098500  1
  C  C542  1  0.165600  0.069200  0.901500  1
  C  C543  1  0.895400  0.928600  0.059600  1
  C  C544  1  0.104600  0.071400  0.940400  1
  C  C545  1  0.945100  0.948200  0.065900  1
  C  C546  1  0.054900  0.051800  0.934100  1
  C  C547  1  0.929300  0.971300  0.112200  1
  C  C548  1  0.070700  0.028700  0.887800  1
  C  C549  1  0.865400  0.972500  0.149800  1
  C  C550  1  0.134600  0.027500  0.850200  1
  C  C551  1  0.936700  0.110700  0.058500  1
  C  C552  1  0.063300  0.889300  0.941500  1
  C  C553  1  0.940300  0.176100  0.030400  1
  C  C554  1  0.059700  0.823900  0.969600  1
  C  C555  1  0.994000  0.194700  0.035900  1
  C  C556  1  0.006000  0.805300  0.964100  1
  C  C557  1  0.037500  0.148800  0.070800  1
  C  C558  1  0.962500  0.851200  0.929200  1
  C  C559  1  0.032000  0.082900  0.102700  1
  C  C560  1  0.968000  0.917100  0.897300  1
  C  C561  1  0.073700  0.038400  0.140900  1
  C  C562  1  0.926300  0.961600  0.859100  1
  C  C563  1  0.069000  0.973200  0.170100  1
  C  C564  1  0.931000  0.026800  0.829900  1
  C  C565  1  0.106400  0.928400  0.212500  1
  C  C566  1  0.893600  0.071600  0.787500  1
  C  C567  1  0.099900  0.865300  0.241300  1
  C  C568  1  0.900100  0.134700  0.758700  1
  C  C569  1  0.057700  0.840900  0.230000  1
  C  C570  1  0.942300  0.159100  0.770000  1
  C  C571  1  0.020000  0.880400  0.191400  1
  C  C572  1  0.980000  0.119600  0.808600  1
  C  C573  1  0.021900  0.949600  0.160200  1
  C  C574  1  0.978100  0.050400  0.839800  1
  C  C575  1  0.981200  0.993700  0.121900  1
  C  C576  1  0.018800  0.006300  0.878100  1
  C  C577  1  0.983000  0.061400  0.093900  1
  C  C578  1  0.017000  0.938600  0.906100  1
  C  C579  1  0.120400  0.156200  0.186400  1
  C  C580  1  0.879600  0.843800  0.813600  1
  C  C581  1  0.196300  0.120100  0.179300  1
  C  C582  1  0.803700  0.879900  0.820700  1
  C  C583  1  0.233500  0.057900  0.159100  1
  C  C584  1  0.766500  0.942100  0.840900  1
  C  C585  1  0.195200  0.031500  0.144700  1
  C  C586  1  0.804800  0.968500  0.855300  1
  C  C587  1  0.118900  0.066100  0.152500  1
  C  C588  1  0.881100  0.933900  0.847500  1
  C  C589  1  0.083400  0.127200  0.173700  1
  C  C590  1  0.916600  0.872800  0.826300  1
  C  C591  1  0.833000  0.635000  0.156600  1
  C  C592  1  0.167000  0.365000  0.843400  1
  C  C593  1  0.860800  0.651000  0.103100  1
  C  C594  1  0.139200  0.349000  0.896900  1
  C  C595  1  0.845000  0.629700  0.068700  1
  C  C596  1  0.155000  0.370300  0.931300  1
  C  C597  1  0.801800  0.588400  0.090700  1
  C  C598  1  0.198200  0.411600  0.909300  1
  C  C599  1  0.777900  0.574500  0.144200  1
  C  C600  1  0.222100  0.425500  0.855800  1
  C  C601  1  0.910700  0.468900  0.039500  1
  C  C602  1  0.089300  0.531100  0.960500  1
  C  C603  1  0.962800  0.413800  0.015000  1
  C  C604  1  0.037200  0.586200  0.985000  1
  C  C605  1  0.947700  0.388400  0.977800  1
  C  C606  1  0.052300  0.611600  0.022200  1
  C  C607  1  0.877600  0.421000  0.972500  1
  C  C608  1  0.122400  0.579000  0.027500  1
  C  C609  1  0.819600  0.478900  0.998000  1
  C  C610  1  0.180400  0.521100  0.002000  1
  C  C611  1  0.749300  0.509100  0.991300  1
  C  C612  1  0.250700  0.490900  0.008700  1
  C  C613  1  0.692500  0.566000  0.017100  1
  C  C614  1  0.307500  0.434000  0.982900  1
  C  C615  1  0.619500  0.596200  0.014100  1
  C  C616  1  0.380500  0.403800  0.985900  1
  C  C617  1  0.567200  0.652000  0.037600  1
  C  C618  1  0.432800  0.348000  0.962400  1
  C  C619  1  0.584200  0.681100  0.067900  1
  C  C620  1  0.415800  0.318900  0.932100  1
  C  C621  1  0.654600  0.652400  0.072100  1
  C  C622  1  0.345400  0.347600  0.927900  1
  C  C623  1  0.712700  0.593400  0.048700  1
  C  C624  1  0.287300  0.406600  0.951300  1
  C  C625  1  0.785000  0.563000  0.054700  1
  C  C626  1  0.215000  0.437000  0.945300  1
  C  C627  1  0.838300  0.504400  0.030500  1
  C  C628  1  0.161700  0.495600  0.969500  1
  C  C629  1  0.614600  0.006200  0.140800  1
  C  C630  1  0.385400  0.993800  0.859200  1
  C  C631  1  0.576200  0.048200  0.101800  1
  C  C632  1  0.423800  0.951800  0.898200  1
  C  C633  1  0.585100  0.109500  0.071900  1
  C  C634  1  0.414900  0.890500  0.928100  1
  C  C635  1  0.635800  0.127500  0.080100  1
  C  C636  1  0.364200  0.872500  0.919900  1
  C  C637  1  0.672600  0.082500  0.118400  1
  C  C638  1  0.327400  0.917500  0.881600  1
  C  C639  1  0.525500  0.275800  0.090900  1
  C  C640  1  0.474500  0.724200  0.909100  1
  C  C641  1  0.473200  0.343100  0.095900  1
  C  C642  1  0.526800  0.656900  0.904100  1
  C  C643  1  0.487500  0.403800  0.065400  1
  C  C644  1  0.512500  0.596200  0.934600  1
  C  C645  1  0.554700  0.396600  0.031500  1
  C  C646  1  0.445300  0.603400  0.968500  1
  C  C647  1  0.611400  0.325900  0.025800  1
  C  C648  1  0.388600  0.674100  0.974200  1
  C  C649  1  0.680100  0.317800  0.990600  1
  C  C650  1  0.319900  0.682200  0.009400  1
  C  C651  1  0.734800  0.249400  0.982100  1
  C  C652  1  0.265200  0.750600  0.017900  1
  C  C653  1  0.805000  0.239600  0.947800  1
  C  C654  1  0.195000  0.760400  0.052200  1
  C  C655  1  0.856800  0.173800  0.938700  1
  C  C656  1  0.143200  0.826200  0.061300  1
  C  C657  1  0.839200  0.111800  0.966500  1
  C  C658  1  0.160800  0.888200  0.033500  1
  C  C659  1  0.775200  0.117800  0.000900  1
  C  C660  1  0.224800  0.882200  0.999100  1
  C  C661  1  0.718400  0.186100  0.012500  1
  C  C662  1  0.281600  0.813900  0.987500  1
  C  C663  1  0.650100  0.194900  0.046400  1
  C  C664  1  0.349900  0.805100  0.953600  1
  C  C665  1  0.596000  0.264100  0.054900  1
  C  C666  1  0.404000  0.735900  0.945100  1
  C  C667  1  0.729300  0.478900  0.960100  1
  C  C668  1  0.270700  0.521100  0.039900  1
  C  C669  1  0.719000  0.510700  0.908100  1
  C  C670  1  0.281000  0.489300  0.091900  1
  C  C671  1  0.699900  0.479000  0.881500  1
  C  C672  1  0.300100  0.521000  0.118500  1
  C  C673  1  0.689200  0.415500  0.908600  1
  C  C674  1  0.310800  0.584500  0.091400  1
  C  C675  1  0.697200  0.383500  0.960400  1
  C  C676  1  0.302800  0.616500  0.039600  1
  C  C677  1  0.717600  0.414600  0.985100  1
  C  C678  1  0.282400  0.585400  0.014900  1
  C  C679  1  0.622400  0.700000  0.205400  1
  C  C680  1  0.377600  0.300000  0.794600  1
  C  C681  1  0.558500  0.731400  0.188100  1
  C  C682  1  0.441500  0.268600  0.811900  1
  C  C683  1  0.512600  0.693100  0.206300  1
  C  C684  1  0.487400  0.306900  0.793700  1
  C  C685  1  0.537300  0.624500  0.238700  1
  C  C686  1  0.462700  0.375500  0.761300  1
  C  C687  1  0.602300  0.597000  0.253100  1
  C  C688  1  0.397700  0.403000  0.746900  1
  C  C689  1  0.537000  0.532400  0.180900  1
  C  C690  1  0.463000  0.467600  0.819100  1
  C  C691  1  0.540400  0.491200  0.153500  1
  C  C692  1  0.459600  0.508800  0.846500  1
  C  C693  1  0.499400  0.447100  0.176500  1
  C  C694  1  0.500600  0.552900  0.823500  1
  C  C695  1  0.458000  0.449200  0.227100  1
  C  C696  1  0.542000  0.550800  0.772900  1
  C  C697  1  0.454900  0.492500  0.258200  1
  C  C698  1  0.545100  0.507500  0.741800  1
  C  C699  1  0.413800  0.491800  0.313200  1
  C  C700  1  0.586200  0.508200  0.686800  1
  C  C701  1  0.415300  0.532300  0.342100  1
  C  C702  1  0.584700  0.467700  0.657900  1
  C  C703  1  0.377000  0.532100  0.397600  1
  C  C704  1  0.623000  0.467900  0.602400  1
  C  C705  1  0.383200  0.575500  0.424100  1
  C  C706  1  0.616800  0.424500  0.575900  1
  C  C707  1  0.419600  0.614900  0.402100  1
  C  C708  1  0.580400  0.385100  0.597900  1
  C  C709  1  0.455300  0.620000  0.349900  1
  C  C710  1  0.544700  0.380000  0.650100  1
  C  C711  1  0.454100  0.577100  0.317500  1
  C  C712  1  0.545900  0.422900  0.682500  1
  C  C713  1  0.494200  0.578700  0.263200  1
  C  C714  1  0.505800  0.421300  0.736800  1
  C  C715  1  0.494100  0.536400  0.233700  1
  C  C716  1  0.505900  0.463600  0.766300  1
  C  C717  1  0.620600  0.904000  0.292800  1
  C  C718  1  0.379400  0.096000  0.707200  1
  C  C719  1  0.564300  0.908700  0.335000  1
  C  C720  1  0.435700  0.091300  0.665000  1
  C  C721  1  0.517600  0.975800  0.353200  1
  C  C722  1  0.482400  0.024200  0.646800  1
  C  C723  1  0.534400  0.033400  0.324900  1
  C  C724  1  0.465600  0.966600  0.675100  1
  C  C725  1  0.594000  0.025700  0.280200  1
  C  C726  1  0.406000  0.974300  0.719800  1
  C  C727  1  0.530600  0.065700  0.421600  1
  C  C728  1  0.469400  0.934300  0.578400  1
  C  C729  1  0.530000  0.081000  0.466300  1
  C  C730  1  0.470000  0.919000  0.533700  1
  C  C731  1  0.486800  0.150900  0.476200  1
  C  C732  1  0.513200  0.849100  0.523800  1
  C  C733  1  0.447100  0.205700  0.441200  1
  C  C734  1  0.552900  0.794300  0.558800  1
  C  C735  1  0.447100  0.192100  0.394200  1
  C  C736  1  0.552900  0.807900  0.605800  1
  C  C737  1  0.409100  0.247900  0.356300  1
  C  C738  1  0.590900  0.752100  0.643700  1
  C  C739  1  0.411300  0.233600  0.309900  1
  C  C740  1  0.588700  0.766400  0.690100  1
  C  C741  1  0.371900  0.292200  0.270600  1
  C  C742  1  0.628100  0.707800  0.729400  1
  C  C743  1  0.375200  0.277700  0.223200  1
  C  C744  1  0.624800  0.722300  0.776800  1
  C  C745  1  0.411900  0.208000  0.214100  1
  C  C746  1  0.588100  0.792000  0.785900  1
  C  C747  1  0.448100  0.153200  0.250200  1
  C  C748  1  0.551900  0.846800  0.749800  1
  C  C749  1  0.450100  0.163900  0.298700  1
  C  C750  1  0.549900  0.836100  0.701300  1
  C  C751  1  0.489900  0.105600  0.337500  1
  C  C752  1  0.510100  0.894400  0.662500  1
  C  C753  1  0.489500  0.120100  0.382900  1
  C  C754  1  0.510500  0.879900  0.617100  1
  C  C755  1  0.371700  0.444400  0.338300  1
  C  C756  1  0.628300  0.555600  0.661700  1
  C  C757  1  0.294800  0.475500  0.355100  1
  C  C758  1  0.705200  0.524500  0.644900  1
  C  C759  1  0.257700  0.432400  0.378500  1
  C  C760  1  0.742300  0.567600  0.621500  1
  C  C761  1  0.292800  0.358100  0.381900  1
  C  C762  1  0.707200  0.641900  0.618100  1
  C  C763  1  0.369400  0.325500  0.362900  1
  C  C764  1  0.630600  0.674500  0.637100  1
  C  C765  1  0.405800  0.370600  0.343000  1
  C  C766  1  0.594200  0.629400  0.657000  1
  C  C767  1  0.716700  0.216200  0.609600  1
  C  C768  1  0.283300  0.783800  0.390400  1
  C  C769  1  0.736000  0.247200  0.641400  1
  C  C770  1  0.264000  0.752800  0.358600  1
  C  C771  1  0.697800  0.200000  0.733800  1
  C  C772  1  0.302200  0.800000  0.266200  1
  C  C773  1  0.799400  0.012600  0.651900  1
  C  C774  1  0.200600  0.987400  0.348100  1
  C  C775  1  0.778600  0.949100  0.668500  1
  C  C776  1  0.221400  0.050900  0.331500  1
  C  C777  1  0.701500  0.908600  0.655800  1
  C  C778  1  0.298500  0.091400  0.344200  1
  C  C779  1  0.944600  0.922700  0.519000  1
  C  C780  1  0.055400  0.077300  0.481000  1
  C  C781  1  0.987600  0.933500  0.461600  1
  C  C782  1  0.012400  0.066500  0.538400  1
  C  C783  1  0.032500  0.890300  0.381600  1
  C  C784  1  0.967500  0.109700  0.618400  1
  C  C785  1  0.299200  0.144400  0.176700  1
  C  C786  1  0.700800  0.855600  0.823300  1
  C  C787  1  0.306700  0.184000  0.118800  1
  C  C788  1  0.693300  0.816000  0.881200  1
  C  C789  1  0.389300  0.222900  0.048800  1
  C  C790  1  0.610700  0.777100  0.951200  1
  C  C791  1  0.337700  0.961600  0.186000  1
  C  C792  1  0.662300  0.038400  0.814000  1
  C  C793  1  0.420100  0.934100  0.174800  1
  C  C794  1  0.579900  0.065900  0.825200  1
  C  C795  1  0.456900  0.957500  0.236400  1
  C  C796  1  0.543100  0.042500  0.763600  1
  C  C797  1  0.247100  0.981900  0.068500  1
  C  C798  1  0.752900  0.018100  0.931500  1
  C  C799  1  0.307500  0.008000  0.038800  1
  C  C800  1  0.692500  0.992000  0.961200  1
  C  C801  1  0.436100  0.970000  0.028500  1
  C  C802  1  0.563900  0.030000  0.971500  1
  C  C803  1  0.780400  0.591100  0.879600  1
  C  C804  1  0.219600  0.408900  0.120400  1
  C  C805  1  0.784600  0.654700  0.834900  1
  C  C806  1  0.215400  0.345300  0.165100  1
  C  C807  1  0.815400  0.691600  0.741000  1
  C  C808  1  0.184600  0.308400  0.259000  1
  C  C809  1  0.743000  0.518300  0.787400  1
  C  C810  1  0.257000  0.481700  0.212600  1
  C  C811  1  0.821000  0.465500  0.790400  1
  C  C812  1  0.179000  0.534500  0.209600  1
  C  C813  1  0.893600  0.339700  0.804200  1
  C  C814  1  0.106400  0.660300  0.195800  1
  C  C815  1  0.670500  0.379400  0.841300  1
  C  C816  1  0.329500  0.620600  0.158700  1
  C  C817  1  0.646900  0.323900  0.840500  1
  C  C818  1  0.353100  0.676100  0.159500  1
  C  C819  1  0.751700  0.216800  0.841400  1
  C  C820  1  0.248300  0.783200  0.158600  1
  C  C821  1  0.229500  0.586300  0.306100  1
  C  C822  1  0.770500  0.413700  0.693900  1
  C  C823  1  0.191000  0.666667  0.305200  1
  C  C824  1  0.809000  0.333333  0.694800  1
  C  C825  1  0.122100  0.686000  0.392900  1
  C  C826  1  0.877900  0.314000  0.607100  1
  C  C827  1  0.156600  0.454700  0.455000  1
  C  C828  1  0.843400  0.545300  0.545000  1
  C  C829  1  0.185600  0.459300  0.495700  1
  C  C830  1  0.814400  0.540700  0.504300  1
  C  C831  1  0.290000  0.401900  0.530100  1
  C  C832  1  0.710000  0.598100  0.469900  1
  C  C833  1  0.249500  0.260400  0.435100  1
  C  C834  1  0.750500  0.739600  0.564900  1
  C  C835  1  0.175700  0.257400  0.447900  1
  C  C836  1  0.824300  0.742600  0.552100  1
  C  C837  1  0.098900  0.241600  0.413200  1
  C  C838  1  0.901100  0.758400  0.586800  1
  C  C839  1  0.302000  0.153000  0.144000  1
  C  C840  1  0.698000  0.847000  0.856000  1
  C  C841  1  0.300000  0.184000  0.085200  1
  C  C842  1  0.700000  0.816000  0.914800  1
  C  C843  1  0.378000  0.223000  0.010000  1
  C  C844  1  0.622000  0.777000  0.990000  1
  C  C845  1  0.331900  0.943600  0.184700  1
  C  C846  1  0.668100  0.056400  0.815300  1
  C  C847  1  0.399700  0.928600  0.200800  1
  C  C848  1  0.600300  0.071400  0.799200  1
  C  C849  1  0.432900  0.977000  0.251400  1
  C  C850  1  0.567100  0.023000  0.748600  1
  C  C851  1  0.618000  0.387000  0.879500  1
  C  C852  1  0.382000  0.613000  0.120500  1
  C  C853  1  0.620000  0.333000  0.852000  1
  C  C854  1  0.380000  0.667000  0.148000  1
  C  C855  1  0.729000  0.226000  0.855000  1
  C  C856  1  0.271000  0.774000  0.145000  1
  S  S857  1  0.834200  0.328100  0.119300  1
  S  S858  1  0.165800  0.671900  0.880700  1
  S  S859  1  0.891200  0.348000  0.157300  1
  S  S860  1  0.108800  0.652000  0.842700  1
  S  S861  1  0.854900  0.306600  0.238300  1
  S  S862  1  0.145100  0.693400  0.761700  1
  S  S863  1  0.752400  0.394600  0.251300  1
  S  S864  1  0.247600  0.605400  0.748700  1
  S  S865  1  0.685300  0.378700  0.219800  1
  S  S866  1  0.314700  0.621300  0.780200  1
  S  S867  1  0.732300  0.415100  0.139300  1
  S  S868  1  0.267700  0.584900  0.860700  1
  S  S869  1  0.785900  0.175200  0.192400  1
  S  S870  1  0.214100  0.824800  0.807600  1
  S  S871  1  0.745300  0.218400  0.126600  1
  S  S872  1  0.254700  0.781600  0.873400  1
  S  S873  1  0.646600  0.293100  0.155800  1
  S  S874  1  0.353400  0.706900  0.844200  1
  S  S875  1  0.588400  0.233300  0.203400  1
  S  S876  1  0.411600  0.766700  0.796600  1
  S  S877  1  0.621000  0.200400  0.272300  1
  S  S878  1  0.379000  0.799600  0.727700  1
  S  S879  1  0.718800  0.125100  0.242000  1
  S  S880  1  0.281200  0.874900  0.758000  1
  S  S881  1  0.627700  0.353000  0.287600  1
  S  S882  1  0.372300  0.647000  0.712400  1
  S  S883  1  0.707900  0.303000  0.331000  1
  S  S884  1  0.292100  0.697000  0.669000  1
  S  S885  1  0.804100  0.313900  0.282400  1
  S  S886  1  0.195900  0.686100  0.717600  1
  S  S887  1  0.815500  0.381200  0.207100  1
  S  S888  1  0.184500  0.618800  0.792900  1
  S  S889  1  0.767700  0.383500  0.152200  1
  S  S890  1  0.232300  0.616500  0.847800  1
  S  S891  1  0.709900  0.383100  0.231700  1
  S  S892  1  0.290100  0.616900  0.768300  1
  N  N893  1  0.687400  0.566300  0.333700  1
  N  N894  1  0.312600  0.433700  0.666300  1
  N  N895  1  0.788200  0.897600  0.256500  1
  N  N896  1  0.211800  0.102400  0.743500  1
  N  N897  1  0.837400  0.524000  0.279600  1
  N  N898  1  0.162600  0.476000  0.720400  1
  N  N899  1  0.817400  0.953400  0.143600  1
  N  N900  1  0.182600  0.046600  0.856400  1
  N  N901  1  0.792000  0.597200  0.178100  1
  N  N902  1  0.208000  0.402800  0.821900  1
  N  N903  1  0.663400  0.022100  0.148400  1
  N  N904  1  0.336600  0.977900  0.851600  1
  N  N905  1  0.646100  0.633400  0.236000  1
  N  N906  1  0.353900  0.366600  0.764000  1
  N  N907  1  0.637200  0.961700  0.263500  1
  N  N908  1  0.362800  0.038300  0.736500  1
  N  N909  1  0.507700  0.212200  0.674000  1
  N  N910  1  0.492300  0.787800  0.326000  1
  N  N911  1  0.651500  0.838100  0.085400  1
  N  N912  1  0.348500  0.161900  0.914600  1
  N  N913  1  0.031300  0.246200  0.880900  1
  N  N914  1  0.968700  0.753800  0.119100  1
  N  N915  1  0.797100  0.711000  0.382000  1
  N  N916  1  0.202900  0.289000  0.618000  1
  O  O917  1  0.781500  0.160900  0.588600  1
  O  O918  1  0.218500  0.839100  0.411400  1
  O  O919  1  0.757900  0.197800  0.688200  1
  O  O920  1  0.242100  0.802200  0.311800  1
  O  O921  1  0.849600  0.014600  0.601500  1
  O  O922  1  0.150400  0.985400  0.398500  1
  O  O923  1  0.722700  0.967600  0.643200  1
  O  O924  1  0.277300  0.032400  0.356800  1
  O  O925  1  0.868500  0.946900  0.525300  1
  O  O926  1  0.131500  0.053100  0.474700  1
  O  O927  1  0.991600  0.883500  0.436600  1
  O  O928  1  0.008400  0.116500  0.563400  1
  O  O929  1  0.227300  0.147800  0.199500  1
  O  O930  1  0.772700  0.852200  0.800500  1
  O  O931  1  0.377200  0.184900  0.103500  1
  O  O932  1  0.622800  0.815100  0.896500  1
  O  O933  1  0.310000  0.027000  0.149600  1
  O  O934  1  0.690000  0.973000  0.850400  1
  O  O935  1  0.441200  0.981500  0.184600  1
  O  O936  1  0.558800  0.018500  0.815400  1
  O  O937  1  0.233900  0.969400  0.124600  1
  O  O938  1  0.766100  0.030600  0.875400  1
  O  O939  1  0.375100  0.949400  0.047000  1
  O  O940  1  0.624900  0.050600  0.953000  1
  O  O941  1  0.721800  0.577400  0.880100  1
  O  O942  1  0.278200  0.422600  0.119900  1
  O  O943  1  0.812000  0.631900  0.785600  1
  O  O944  1  0.188000  0.368100  0.214400  1
  O  O945  1  0.686300  0.511300  0.832000  1
  O  O946  1  0.313700  0.488700  0.168000  1
  O  O947  1  0.824600  0.396300  0.794100  1
  O  O948  1  0.175400  0.603700  0.205900  1
  O  O949  1  0.647300  0.390500  0.894100  1
  O  O950  1  0.352700  0.609500  0.105900  1
  O  O951  1  0.679100  0.253700  0.871600  1
  O  O952  1  0.320900  0.746300  0.128400  1
  O  O953  1  0.257700  0.549900  0.352100  1
  O  O954  1  0.742300  0.450100  0.647900  1
  O  O955  1  0.120600  0.686700  0.340400  1
  O  O956  1  0.879400  0.313300  0.659600  1
  O  O957  1  0.180700  0.462800  0.398800  1
  O  O958  1  0.819300  0.537200  0.601200  1
  O  O959  1  0.261000  0.445200  0.483800  1
  O  O960  1  0.739000  0.554800  0.516200  1
  O  O961  1  0.248300  0.320700  0.393800  1
  O  O962  1  0.751700  0.679300  0.606200  1
  O  O963  1  0.161400  0.258400  0.400600  1
  O  O964  1  0.838600  0.741600  0.599400  1
  O  O965  1  0.517100  0.221400  0.624700  1
  O  O966  1  0.482900  0.778600  0.375300  1
  O  O967  1  0.561100  0.189700  0.693500  1
  O  O968  1  0.438900  0.810300  0.306500  1
  O  O969  1  0.446100  0.217200  0.704200  1
  O  O970  1  0.553900  0.782800  0.295800  1
  O  O971  1  0.610700  0.090100  0.589700  1
  O  O972  1  0.389300  0.909900  0.410300  1
  O  O973  1  0.752400  0.711200  0.272300  1
  O  O974  1  0.247600  0.288800  0.727700  1
  O  O975  1  0.590300  0.874600  0.111700  1
  O  O976  1  0.409700  0.125400  0.888300  1
  O  O977  1  0.708000  0.835500  0.091800  1
  O  O978  1  0.292000  0.164500  0.908200  1
  O  O979  1  0.654200  0.828500  0.042000  1
  O  O980  1  0.345800  0.171500  0.958000  1
  O  O981  1  0.913900  0.648700  0.246400  1
  O  O982  1  0.086100  0.351300  0.753600  1
  O  O983  1  0.036500  0.217900  0.846200  1
  O  O984  1  0.963500  0.782100  0.153800  1
  O  O985  1  0.086700  0.243800  0.888100  1
  O  O986  1  0.913300  0.756200  0.111900  1
  O  O987  1  0.970800  0.269600  0.913100  1
  O  O988  1  0.029200  0.730400  0.086900  1
  O  O989  1  0.809800  0.719400  0.419900  1
  O  O990  1  0.190200  0.280600  0.580100  1
  O  O991  1  0.742000  0.756100  0.364200  1
  O  O992  1  0.258000  0.243900  0.635800  1
  O  O993  1  0.840300  0.656800  0.362000  1
  O  O994  1  0.159700  0.343200  0.638000  1
  O  O995  1  0.408100  0.248400  0.575100  1
  O  O996  1  0.591900  0.751600  0.424900  1
  O  O997  1  0.758900  0.813800  0.178100  1
  O  O998  1  0.241100  0.186200  0.821900  1
  O  O999  1  0.583900  0.185300  0.881100  1
  O  O1000  1  0.416100  0.814700  0.118900  1
  O  O1001  1  0.080900  0.472100  0.350600  1
  O  O1002  1  0.919100  0.527900  0.649400  1
  O  O1003  1  0.000300  0.561700  0.556700  1
  O  O1004  1  0.999700  0.438300  0.443300  1
  O  O1005  1  0.197600  0.200900  0.028300  1
  O  O1006  1  0.802400  0.799100  0.971700  1
  O  O1007  1  0.084400  0.203600  0.532200  1
  O  O1008  1  0.915600  0.796400  0.467800  1
  O  O1009  1  0.236000  0.152000  0.182200  1
  O  O1010  1  0.764000  0.848000  0.817800  1
  O  O1011  1  0.373000  0.162000  0.052100  1
  O  O1012  1  0.627000  0.838000  0.947900  1
  O  O1013  1  0.307000  0.016000  0.154900  1
  O  O1014  1  0.693000  0.984000  0.845100  1
  O  O1015  1  0.378100  0.968600  0.240000  1
  O  O1016  1  0.621900  0.031400  0.760000  1
  O  O1017  1  0.695200  0.372500  0.875100  1
  O  O1018  1  0.304800  0.627500  0.124900  1
  O  O1019  1  0.651700  0.262700  0.874100  1
  O  O1020  1  0.348300  0.737300  0.125900  1
