
#######################################################################
#
#                 Cambridge Crystallographic Data Centre
#                                CCDC 
#
#######################################################################
#
# If this CIF has been generated from an entry in the Cambridge 
# Structural Database, then it will include bibliographic, chemical, 
# crystal, experimental, refinement or atomic coordinate data resulting 
# from the CCDC's data processing and validation procedures.
#
#######################################################################

data_REFDAK
_chemical_formula_moiety         
'C212 H184 N8 O24 Pd2 4+,2(S6),4(N1 O3 1-),10(H2 O1)'
_chemical_name_systematic        
"tetrakis(\m-3,3'-{[4,5,6-tris(2-methoxyethoxy)-1,3-phenylene]bis(anthracene-10,9-diyl)}dipyridine)-di-palladium(ii) bis(hexathiane) tetranitrate decahydrate"
_symmetry_cell_setting           triclinic
_symmetry_space_group_name_H-M   'P -1'
_symmetry_Int_Tables_number      2
_space_group_name_Hall           '-P 1'
loop_
_symmetry_equiv_pos_site_id
_symmetry_equiv_pos_as_xyz
1 x,y,z
2 -x,-y,-z
_cell_length_a                   21.297(2)
_cell_length_b                   21.480(2)
_cell_length_c                   27.276(3)
_cell_angle_alpha                70.0170(10)
_cell_angle_beta                 69.0620(10)
_cell_angle_gamma                61.4680(10)
_cell_volume                     10013.5
_exptl_crystal_colour            yellow
_exptl_crystal_description       prism
_cell_formula_units_Z            2
loop_
_atom_site_label
_atom_site_type_symbol
_atom_site_fract_x
_atom_site_fract_y
_atom_site_fract_z
N1 N 0.6874(6) 0.5663(6) 0.3337(4)
C1 C 0.6308(7) 0.6230(7) 0.3587(6)
H1 H 0.6213 0.6719 0.3404
C2 C 0.5893(8) 0.6083(7) 0.4091(6)
H2 H 0.5506 0.6473 0.4250
C3 C 0.6024(7) 0.5381(7) 0.4372(5)
H3 H 0.5727 0.5285 0.4720
C4 C 0.6607(7) 0.4806(7) 0.4133(5)
C5 C 0.7001(7) 0.4981(7) 0.3631(5)
H4 H 0.7397 0.4593 0.3474
C6 C 0.5677(7) 0.4046(8) 0.4363(5)
H5 H 0.5534 0.4536 0.4175
C7 C 0.5216(7) 0.3703(8) 0.4484(5)
H6 H 0.4758 0.3961 0.4384
C8 C 0.5422(7) 0.2985(7) 0.4750(5)
H7 H 0.5099 0.2752 0.4842
C9 C 0.6093(7) 0.2608(7) 0.4881(5)
H8 H 0.6232 0.2113 0.5058
C10 C 0.6583(7) 0.2937(7) 0.4760(5)
C11 C 0.7291(7) 0.2519(7) 0.4884(5)
C12 C 0.7742(7) 0.2890(7) 0.4789(5)
C13 C 0.8449(7) 0.2512(7) 0.4929(5)
H9 H 0.8630 0.2004 0.5067
C14 C 0.8848(7) 0.2876(7) 0.4865(5)
H10 H 0.9310 0.2617 0.4959
C15 C 0.8600(7) 0.3636(7) 0.4662(5)
H11 H 0.8887 0.3884 0.4627
C16 C 0.7954(7) 0.3997(7) 0.4520(5)
H12 H 0.7787 0.4506 0.4384
C17 C 0.7510(7) 0.3636(7) 0.4568(5)
C18 C 0.6807(7) 0.4040(7) 0.4412(5)
C19 C 0.6353(7) 0.3687(7) 0.4513(5)
N2 N 0.7882(5) -0.1024(5) 0.2565(4)
C20 C 0.8433(7) -0.1705(7) 0.2548(5)
H13 H 0.8511 -0.1941 0.2280
C21 C 0.8861(7) -0.2045(7) 0.2893(5)
H14 H 0.9219 -0.2526 0.2884
C22 C 0.8782(7) -0.1692(7) 0.3273(6)
H15 H 0.9090 -0.1932 0.3519
C23 C 0.8264(7) -0.1007(7) 0.3286(5)
C24 C 0.7821(7) -0.0687(7) 0.2938(5)
H16 H 0.7452 -0.0211 0.2953
C25 C 0.8918(6) 0.0044(6) 0.2919(5)
H17 H 0.9005 -0.0245 0.2685
C26 C 0.9184(6) 0.0549(6) 0.2734(5)
H18 H 0.9422 0.0643 0.2365
C27 C 0.9115(6) 0.0942(7) 0.3077(5)
H19 H 0.9329 0.1285 0.2944
C28 C 0.8747(6) 0.0843(6) 0.3601(5)
H20 H 0.8704 0.1121 0.3826
C29 C 0.8417(6) 0.0318(6) 0.3823(5)
C30 C 0.8028(6) 0.0224(6) 0.4350(5)
C31 C 0.7657(6) -0.0247(6) 0.4533(5)
C32 C 0.7193(7) -0.0315(7) 0.5060(5)
H21 H 0.7135 -0.0056 0.5305
C33 C 0.6838(7) -0.0752(8) 0.5205(6)
H22 H 0.6543 -0.0805 0.5560
C34 C 0.6884(7) -0.1128(8) 0.4860(6)
H23 H 0.6608 -0.1414 0.4975
C35 C 0.7324(7) -0.1087(7) 0.4356(5)
H24 H 0.7372 -0.1358 0.4123
C36 C 0.7715(6) -0.0630(6) 0.4180(5)
C37 C 0.8165(6) -0.0574(6) 0.3663(5)
C38 C 0.8496(6) -0.0083(6) 0.3470(5)
C39 C 0.7581(6) 0.1726(6) 0.5038(5)
C40 C 0.7829(6) 0.1311(7) 0.5507(5)
C41 C 0.8191(6) 0.0561(7) 0.5574(5)
C42 C 0.8295(6) 0.0202(6) 0.5195(5)
C43 C 0.7985(6) 0.0600(6) 0.4751(5)
C44 C 0.7631(6) 0.1362(7) 0.4673(5)
H25 H 0.7422 0.1634 0.4370
N3 N 0.8374(6) 0.5240(6) 0.2796(5)
C45 C 0.8506(9) 0.5364(8) 0.3204(7)
H26 H 0.8163 0.5771 0.3361
C46 C 0.9133(9) 0.4898(9) 0.3386(7)
H27 H 0.9240 0.5010 0.3648
C47 C 0.9615(9) 0.4268(8) 0.3195(7)
H28 H 1.0029 0.3930 0.3340
C48 C 0.9468(7) 0.4145(7) 0.2776(6)
C49 C 0.8837(7) 0.4637(7) 0.2603(6)
H29 H 0.8724 0.4545 0.2335
C50 C 0.9598(7) 0.2698(7) 0.3425(5)
H30 H 0.9295 0.3109 0.3584
C51 C 0.9650(7) 0.2048(7) 0.3720(6)
H31 H 0.9359 0.2005 0.4077
C52 C 1.0140(6) 0.1410(7) 0.3507(5)
H32 H 1.0205 0.0943 0.3728
C53 C 1.0510(6) 0.1483(6) 0.2985(4)
H33 H 1.0835 0.1059 0.2845
C54 C 1.0429(6) 0.2177(6) 0.2635(5)
C55 C 1.0774(6) 0.2231(6) 0.2091(5)
C56 C 1.0702(6) 0.2910(6) 0.1765(5)
C57 C 1.1030(7) 0.2994(7) 0.1197(5)
H34 H 1.1282 0.2585 0.1034
C58 C 1.0977(7) 0.3657(8) 0.0896(6)
H35 H 1.1214 0.3713 0.0525
C59 C 1.0558(7) 0.4280(8) 0.1143(6)
H36 H 1.0522 0.4742 0.0923
C60 C 1.0224(7) 0.4247(7) 0.1655(6)
H37 H 0.9956 0.4674 0.1797
C61 C 1.0270(6) 0.3553(6) 0.1999(5)
C62 C 0.9941(7) 0.3474(7) 0.2540(5)
C63 C 0.9991(6) 0.2800(6) 0.2865(5)
N4 N 0.8174(5) -0.0466(5) 0.1436(4)
C64 C 0.8344(6) -0.0692(6) 0.0985(5)
H38 H 0.8020 -0.0843 0.0939
C65 C 0.8954(6) -0.0714(6) 0.0596(5)
H39 H 0.9046 -0.0864 0.0278
C66 C 0.9451(7) -0.0518(6) 0.0659(5)
H40 H 0.9889 -0.0541 0.0390
C67 C 0.9293(6) -0.0287(6) 0.1122(5)
C68 C 0.8654(6) -0.0275(6) 0.1498(5)
H41 H 0.8546 -0.0125 0.1819
C69 C 0.9367(7) 0.1107(6) 0.0585(5)
H42 H 0.9022 0.0982 0.0540
C70 C 0.9403(7) 0.1761(7) 0.0304(5)
H43 H 0.9078 0.2088 0.0077
C71 C 0.9940(7) 0.1947(7) 0.0359(5)
H44 H 0.9988 0.2385 0.0154
C72 C 1.0375(7) 0.1488(7) 0.0708(5)
H45 H 1.0729 0.1613 0.0739
C73 C 1.0320(6) 0.0829(6) 0.1027(5)
C74 C 1.0737(6) 0.0384(6) 0.1409(4)
C75 C 1.0690(6) -0.0268(6) 0.1701(5)
C76 C 1.1064(6) -0.0716(6) 0.2125(5)
H46 H 1.1364 -0.0567 0.2206
C77 C 1.0999(7) -0.1347(7) 0.2413(5)
H47 H 1.1246 -0.1626 0.2696
C78 C 1.0577(7) -0.1591(7) 0.2300(5)
H48 H 1.0554 -0.2042 0.2498
C79 C 1.0200(6) -0.1196(6) 0.1914(5)
H49 H 0.9917 -0.1375 0.1844
C80 C 1.0219(6) -0.0504(6) 0.1602(5)
C81 C 0.9812(6) -0.0063(6) 0.1219(5)
C82 C 0.9830(6) 0.0614(6) 0.0939(5)
C83 C 1.1204(6) 0.1562(6) 0.1864(5)
C84 C 1.1963(6) 0.1201(7) 0.1793(5)
C85 C 1.2335(6) 0.0579(7) 0.1591(5)
C86 C 1.1952(6) 0.0315(7) 0.1447(5)
C87 C 1.1189(6) 0.0661(6) 0.1525(4)
C88 C 1.0834(6) 0.1272(6) 0.1737(5)
H50 H 1.0313 0.1507 0.1801
N5 N 0.7920(6) 0.5972(6) 0.1781(4)
C89 C 0.8330(8) 0.6350(9) 0.1566(7)
H51 H 0.8433 0.6517 0.1796
C90 C 0.8608(10) 0.6510(10) 0.1031(7)
H52 H 0.8912 0.6770 0.0894
C91 C 0.8450(9) 0.6297(9) 0.0687(7)
H53 H 0.8625 0.6422 0.0310
C92 C 0.8018(7) 0.5884(8) 0.0907(6)
C93 C 0.7779(7) 0.5745(7) 0.1442(5)
H54 H 0.7490 0.5468 0.1594
C94 C 0.9107(7) 0.4689(7) 0.0395(5)
H55 H 0.9224 0.4840 0.0628
C95 C 0.9628(7) 0.4138(7) 0.0150(5)
H56 H 1.0105 0.3906 0.0218
C96 C 0.9477(7) 0.3884(7) -0.0222(5)
H57 H 0.9849 0.3516 -0.0410
C97 C 0.8776(7) 0.4210(6) -0.0275(5)
H58 H 0.8658 0.4045 -0.0498
C98 C 0.8196(6) 0.4789(6) -0.0020(5)
C99 C 0.7493(7) 0.5091(6) -0.0087(5)
C100 C 0.6925(7) 0.5660(7) 0.0171(5)
C101 C 0.6195(7) 0.5962(8) 0.0141(6)
H59 H 0.6059 0.5769 -0.0052
C102 C 0.5672(9) 0.6520(9) 0.0376(6)
H60 H 0.5183 0.6718 0.0336
C103 C 0.5842(8) 0.6811(9) 0.0679(6)
H61 H 0.5473 0.7198 0.0849
C104 C 0.6546(7) 0.6524(8) 0.0721(6)
H62 H 0.6661 0.6728 0.0919
C105 C 0.7127(7) 0.5934(7) 0.0487(6)
C106 C 0.7850(7) 0.5630(7) 0.0547(5)
C107 C 0.8383(7) 0.5044(7) 0.0305(5)
N6 N 0.6634(5) 0.0221(5) 0.1484(4)
C108 C 0.6146(7) 0.0062(7) 0.1408(6)
H63 H 0.6063 -0.0354 0.1630
C109 C 0.5762(8) 0.0482(8) 0.1018(6)
H64 H 0.5436 0.0345 0.0958
C110 C 0.5851(7) 0.1095(7) 0.0719(6)
H65 H 0.5575 0.1402 0.0457
C111 C 0.6358(6) 0.1275(6) 0.0801(5)
C112 C 0.6726(6) 0.0825(6) 0.1184(5)
H66 H 0.7066 0.0942 0.1244
C113 C 0.5255(6) 0.2758(7) 0.0909(5)
H67 H 0.5150 0.2350 0.1121
C114 C 0.4732(7) 0.3431(7) 0.0959(5)
H68 H 0.4267 0.3488 0.1202
C115 C 0.4875(7) 0.4038(7) 0.0654(5)
H69 H 0.4500 0.4508 0.0682
C116 C 0.5547(6) 0.3966(7) 0.0315(5)
H70 H 0.5639 0.4385 0.0116
C117 C 0.6114(6) 0.3259(6) 0.0258(5)
C118 C 0.6801(6) 0.3178(6) -0.0094(4)
C119 C 0.7348(6) 0.2494(6) -0.0179(5)
C120 C 0.8050(6) 0.2396(7) -0.0522(5)
H71 H 0.8164 0.2808 -0.0696
C121 C 0.8568(7) 0.1738(7) -0.0613(5)
H72 H 0.9032 0.1687 -0.0854
C122 C 0.8392(7) 0.1118(7) -0.0335(5)
H73 H 0.8745 0.0652 -0.0399
C123 C 0.7752(6) 0.1178(7) 0.0009(5)
H74 H 0.7664 0.0752 0.0186
C124 C 0.7184(6) 0.1861(6) 0.0125(5)
C125 C 0.6501(6) 0.1949(6) 0.0464(5)
C126 C 0.5960(6) 0.2641(6) 0.0549(5)
C127 C 0.7293(6) 0.4789(6) -0.0399(5)
C128 C 0.7190(7) 0.5107(7) -0.0919(5)
C129 C 0.6999(7) 0.4790(7) -0.1185(5)
C130 C 0.6892(7) 0.4155(7) -0.0914(5)
C131 C 0.6972(6) 0.3835(6) -0.0396(5)
C132 C 0.7176(6) 0.4146(6) -0.0149(5)
H75 H 0.7242 0.3919 0.0206
N7 N 0.6461(6) 0.6334(5) 0.2360(4)
C133 C 0.6224(7) 0.7000(7) 0.2054(5)
H76 H 0.6512 0.7271 0.1951
C134 C 0.5585(7) 0.7314(8) 0.1881(6)
H77 H 0.5454 0.7775 0.1646
C135 C 0.5126(7) 0.6931(7) 0.2063(5)
H78 H 0.4669 0.7135 0.1967
C136 C 0.5373(7) 0.6245(7) 0.2387(5)
C137 C 0.6023(7) 0.5970(7) 0.2531(5)
H79 H 0.6173 0.5505 0.2760
C138 C 0.5370(8) 0.5324(8) 0.1809(6)
H80 H 0.5647 0.5612 0.1645
C139 C 0.5404(8) 0.4912(8) 0.1535(6)
H81 H 0.5704 0.4905 0.1180
C140 C 0.4994(8) 0.4471(8) 0.1765(6)
H82 H 0.5013 0.4172 0.1567
C141 C 0.4580(7) 0.4492(8) 0.2271(6)
H83 H 0.4298 0.4207 0.2426
C142 C 0.4549(7) 0.4925(7) 0.2582(5)
C143 C 0.4138(7) 0.4918(7) 0.3132(5)
C144 C 0.4153(7) 0.5323(8) 0.3421(5)
C145 C 0.3770(7) 0.5321(8) 0.3976(6)
H84 H 0.3485 0.5042 0.4160
C146 C 0.3832(8) 0.5755(8) 0.4241(6)
H85 H 0.3583 0.5749 0.4608
C147 C 0.4196(8) 0.6149(8) 0.4021(6)
H86 H 0.4216 0.6412 0.4229
C148 C 0.4553(7) 0.6200(8) 0.3499(6)
H87 H 0.4809 0.6508 0.3338
C149 C 0.4541(7) 0.5771(8) 0.3175(5)
C150 C 0.4942(7) 0.5787(7) 0.2632(5)
C151 C 0.4941(7) 0.5364(7) 0.2337(5)
N8 N 0.6372(6) -0.0383(6) 0.2635(4)
C152 C 0.6206(8) -0.0960(8) 0.2928(6)
H88 H 0.6505 -0.1414 0.2825
C153 C 0.5643(8) -0.0913(9) 0.3350(7)
H89 H 0.5544 -0.1332 0.3537
C154 C 0.5176(8) -0.0242(8) 0.3532(6)
H90 H 0.4772 -0.0207 0.3836
C155 C 0.5344(7) 0.0334(8) 0.3249(6)
C156 C 0.5940(7) 0.0257(8) 0.2802(6)
H91 H 0.6050 0.0668 0.2607
C157 C 0.5306(7) 0.0657(8) 0.4216(6)
H92 H 0.5588 0.0177 0.4157
C158 C 0.5300(8) 0.0810(8) 0.4663(6)
H93 H 0.5588 0.0445 0.4906
C159 C 0.4868(8) 0.1509(8) 0.4762(6)
H94 H 0.4850 0.1606 0.5083
C160 C 0.4471(8) 0.2057(8) 0.4412(6)
H95 H 0.4194 0.2529 0.4486
C161 C 0.4471(7) 0.1921(8) 0.3942(5)
C162 C 0.4091(7) 0.2479(8) 0.3563(6)
C163 C 0.4113(7) 0.2336(8) 0.3099(5)
C164 C 0.3719(7) 0.2922(8) 0.2706(6)
H96 H 0.3443 0.3399 0.2772
C165 C 0.3752(7) 0.2777(8) 0.2232(6)
H97 H 0.3519 0.3163 0.1970
C166 C 0.4119(7) 0.2080(8) 0.2141(6)
H98 H 0.4117 0.1987 0.1825
C167 C 0.4481(7) 0.1532(8) 0.2502(6)
H99 H 0.4731 0.1057 0.2431
C168 C 0.4501(7) 0.1639(8) 0.2987(6)
C169 C 0.4899(7) 0.1056(7) 0.3375(5)
C170 C 0.4895(7) 0.1201(8) 0.3829(5)
C171 C 0.3717(7) 0.4444(8) 0.3383(5)
C172 C 0.2948(9) 0.4755(9) 0.3551(7)
C173 C 0.2577(10) 0.4324(11) 0.3785(8)
C174 C 0.2928(10) 0.3581(11) 0.3819(8)
C175 C 0.3694(8) 0.3255(9) 0.3629(6)
C176 C 0.4058(7) 0.3706(8) 0.3430(5)
H100 H 0.4579 0.3494 0.3319
O1 O 0.7815(4) 0.1609(4) 0.5886(3)
C177 C 0.7167(6) 0.2162(7) 0.6096(6)
H101 H 0.6798 0.1964 0.6330
H102 H 0.6956 0.2546 0.5801
C178 C 0.7360(9) 0.2472(7) 0.6414(5)
H103 H 0.7763 0.2623 0.6183
H104 H 0.6927 0.2910 0.6518
O2 O 0.7579(6) 0.1978(6) 0.6882(4)
C179 C 0.6978(9) 0.2000(12) 0.7338(6)
H105 H 0.7165 0.1666 0.7653
H106 H 0.6649 0.1855 0.7271
H107 H 0.6707 0.2493 0.7404
O3 O 0.8496(4) 0.0146(4) 0.6015(3)
C180 C 0.7994(6) 0.0126(6) 0.6519(4)
H108 H 0.7544 0.0581 0.6505
H109 H 0.8215 0.0100 0.6793
C181 C 0.7786(7) -0.0509(7) 0.6685(5)
H110 H 0.8220 -0.0942 0.6575
H111 H 0.7607 -0.0621 0.7080
O4 O 0.7227(5) -0.0324(5) 0.6432(4)
C182 C 0.7015(9) -0.0914(8) 0.6558(7)
H112 H 0.6564 -0.0741 0.6440
H113 H 0.6927 -0.1106 0.6946
H114 H 0.7409 -0.1298 0.6373
O5 O 0.8685(4) -0.0531(4) 0.5253(3)
C183 C 0.9446(5) -0.0773(7) 0.5190(4)
H115 H 0.9647 -0.1296 0.5356
H116 H 0.9522 -0.0515 0.5389
C184 C 0.9876(7) -0.0665(6) 0.4616(4)
H117 H 0.9630 -0.0163 0.4424
H118 H 1.0377 -0.0743 0.4606
O6 O 0.9916(5) -0.1165(5) 0.4366(3)
C185 C 1.0325(8) -0.1097(9) 0.3816(4)
H119 H 1.0292 -0.1410 0.3644
H120 H 1.0841 -0.1242 0.3803
H121 H 1.0121 -0.0592 0.3625
O7 O 1.2273(6) 0.1478(8) 0.1995(4)
C186 C 1.2992(7) 0.1444(9) 0.1767(6)
H122 H 1.3348 0.0931 0.1790
H123 H 1.3106 0.1665 0.1971
C187 C 1.3067(8) 0.1840(11) 0.1188(6)
H124 H 1.3035 0.1581 0.0965
H125 H 1.2680 0.2338 0.1152
O8 O 1.3772(7) 0.1849(8) 0.1035(5)
C188 C 1.3893(13) 0.2229(13) 0.0488(7)
H126 H 1.3985 0.1925 0.0250
H127 H 1.4320 0.2342 0.0403
H128 H 1.3457 0.2680 0.0436
O9 O 1.3100(16) 0.0270(14) 0.1496(13)
C189 C 1.3377(11) -0.0384(12) 0.1860(11)
H129 H 1.3247 -0.0749 0.1824
H130 H 1.3153 -0.0305 0.2232
C190 C 1.4201(11) -0.0659(11) 0.1748(11)
H131 H 1.4396 -0.1144 0.1979
H132 H 1.4419 -0.0709 0.1370
O10 O 1.4412(9) -0.0185(9) 0.1846(7)
C191 C 1.4569(18) -0.0425(18) 0.2364(9)
H133 H 1.4836 -0.0169 0.2380
H134 H 1.4871 -0.0947 0.2426
H135 H 1.4107 -0.0322 0.2640
O11 O 1.2339(4) -0.0306(5) 0.1246(3)
C192 C 1.2471(7) -0.0181(8) 0.0685(4)
H136 H 1.2013 0.0183 0.0572
H137 H 1.2602 -0.0637 0.0583
C193 C 1.3075(6) 0.0080(7) 0.0388(6)
H138 H 1.3085 0.0246 0.0000
H139 H 1.2993 0.0491 0.0525
O12 O 1.3751(5) -0.0506(6) 0.0470(5)
C194 C 1.4361(9) -0.0300(12) 0.0285(9)
H140 H 1.4810 -0.0730 0.0347
H141 H 1.4267 0.0053 0.0482
H142 H 1.4421 -0.0083 -0.0099
O13 O 0.7218(4) 0.5774(4) -0.1199(3)
C195 C 0.7804(7) 0.5911(7) -0.1204(5)
H143 H 0.8271 0.5479 -0.1259
H144 H 0.7723 0.6019 -0.0856
C196 C 0.7846(8) 0.6547(7) -0.1651(4)
H145 H 0.7352 0.6948 -0.1640
H146 H 0.8176 0.6721 -0.1612
O14 O 0.8120(6) 0.6319(6) -0.2144(4)
C197 C 0.8154(10) 0.6916(9) -0.2590(6)
H147 H 0.8546 0.6729 -0.2895
H148 H 0.8258 0.7244 -0.2485
H149 H 0.7682 0.7180 -0.2694
O15 O 0.6863(5) 0.5113(5) -0.1680(3)
C198 C 0.7430(6) 0.5183(9) -0.2126(6)
H150 H 0.7402 0.5678 -0.2198
H151 H 0.7332 0.5141 -0.2440
C199 C 0.8210(8) 0.4655(7) -0.2096(8)
H152 H 0.8564 0.4780 -0.2421
H153 H 0.8324 0.4661 -0.1777
O16 O 0.8246(6) 0.3963(6) -0.2059(5)
C200 C 0.8936(9) 0.3397(10) -0.1958(8)
H154 H 0.9088 0.3013 -0.2146
H155 H 0.8880 0.3196 -0.1571
H156 H 0.9309 0.3595 -0.2088
O17 O 0.6473(10) 0.3905(8) -0.1059(6)
C201 C 0.6705(12) 0.3794(11) -0.1587(6)
H157 H 0.7246 0.3622 -0.1708
H158 H 0.6483 0.4256 -0.1832
C202 C 0.6469(13) 0.3239(9) -0.1595(10)
H159 H 0.5928 0.3418 -0.1465
H160 H 0.6592 0.3197 -0.1972
O18 O 0.6791(11) 0.2537(9) -0.1284(8)
C203 C 0.7517(13) 0.2168(18) -0.1586(14)
H161 H 0.7618 0.1657 -0.1528
H162 H 0.7879 0.2207 -0.1468
H163 H 0.7551 0.2390 -0.1969
O19 O 0.2577(6) 0.5499(6) 0.3521(5)
C204 C 0.2295(11) 0.5863(9) 0.3061(6)
H164 H 0.1943 0.5683 0.3063
H165 H 0.2699 0.5771 0.2735
C205 C 0.1910(10) 0.6666(9) 0.3052(8)
H166 H 0.2217 0.6812 0.3150
H167 H 0.1860 0.6933 0.2682
O20 O 0.1206(9) 0.6867(10) 0.3404(8)
C206 C 0.1221(18) 0.686(2) 0.3929(9)
H168 H 0.0762 0.6847 0.4184
H169 H 0.1271 0.7291 0.3920
H170 H 0.1638 0.6424 0.4042
O21 O 0.1807(7) 0.4628(8) 0.3988(6)
C207 C 0.1566(12) 0.4547(16) 0.4550(7)
H171 H 0.1549 0.4063 0.4678
H172 H 0.1046 0.4900 0.4610
C208 C 0.1856(10) 0.4593(16) 0.4957(9)
H173 H 0.1567 0.5086 0.5032
H174 H 0.1752 0.4251 0.5293
O22 O 0.2610(10) 0.4452(11) 0.4838(8)
C209 C 0.2900(14) 0.4019(15) 0.5301(10)
H175 H 0.3310 0.3567 0.5215
H176 H 0.2513 0.3907 0.5594
H177 H 0.3074 0.4286 0.5412
O23 O 0.2483(8) 0.3207(9) 0.3938(7)
C210 C 0.2495(12) 0.2604(12) 0.4351(10)
H178 H 0.2574 0.2652 0.4671
H179 H 0.2897 0.2157 0.4236
C211 C 0.1757(13) 0.2574(16) 0.4479(9)
H180 H 0.1756 0.2126 0.4747
H181 H 0.1366 0.2993 0.4635
O24 O 0.1614(11) 0.2584(11) 0.4006(8)
C212 C 0.0989(14) 0.2416(17) 0.4132(13)
H182 H 0.1023 0.2223 0.3841
H183 H 0.0536 0.2856 0.4171
H184 H 0.0982 0.2053 0.4468
Pd1 Pd 0.72626(5) -0.04417(5) 0.20262(4)
Pd2 Pd 0.74178(6) 0.58365(5) 0.25707(4)
S1 S 0.8342(4) 0.3281(4) 0.1193(3)
S2 S 0.8912(6) 0.3480(5) 0.1573(3)
S3 S 0.8549(5) 0.3066(5) 0.2383(4)
S4 S 0.7524(5) 0.3946(6) 0.2513(5)
S5 S 0.6853(7) 0.3787(8) 0.2198(4)
S6 S 0.7323(5) 0.4151(5) 0.1393(4)
S13 S 0.7859(6) 0.1752(6) 0.1924(4)
S14 S 0.7453(4) 0.2184(4) 0.1266(3)
S15 S 0.6466(4) 0.2931(4) 0.1558(4)
S16 S 0.5884(5) 0.2333(5) 0.2034(3)
S17 S 0.6210(6) 0.2004(6) 0.2723(4)
S18 S 0.7188(6) 0.1251(5) 0.2420(5)
N9 N 0.5077(7) 0.2122(10) 0.6740(4)
O31 O 0.5171(6) 0.2214(7) 0.6247(4)
O32 O 0.5611(8) 0.1897(10) 0.6935(6)
O33 O 0.4461(7) 0.2172(9) 0.7042(5)
O34 O 0.6107(6) 0.0901(6) 0.5897(5)
O35 O 0.7524(7) 0.7112(6) 0.2723(5)
N10 N 0.6515(12) 0.8381(16) 0.0854(10)
O36 O 0.5903(13) 0.8746(18) 0.1117(12)
O37 O 0.7080(13) 0.8355(19) 0.0918(13)
O38 O 0.6542(16) 0.8285(18) 0.0420(11)
O39 O 0.9139(13) 0.6487(13) 0.2464(10)
N11 N 0.0313(6) 0.2462(9) 0.8809(6)
O40 O 0.0365(7) 0.2179(7) 0.8462(5)
O41 O 0.0867(7) 0.2438(8) 0.8881(7)
O42 O -0.0292(7) 0.2696(9) 0.9131(6)
N12 N 0.7971(16) -0.2890(15) 0.3820(13)
O43 O 0.8098(15) -0.2806(14) 0.4199(10)
O44 O 0.7420(11) -0.2439(12) 0.3642(9)
O45 O 0.8403(14) -0.3432(13) 0.3620(12)
O46 O 0.4081(15) 0.2484(14) 0.5751(11)
O47 O 0.7589(11) -0.1862(8) 0.1781(7)
O48 O 0.5839(7) 0.1853(7) -0.1189(7)
O49 O 0.0809(15) 0.4721(17) 0.3506(12)
O50 O 0.0003(14) 0.5617(15) 0.5567(11)
O51 O 1.1976(12) 0.2009(13) 0.0283(9)
O52 O 0.0844(17) 0.2036(19) 0.5322(14)
O25? O 1.236(2) 0.152(3) 0.1822(15)
C213? C 1.302(2) 0.153(4) 0.1440(15)
H185? H 1.3389 0.1020 0.1471
H186? H 1.3193 0.1800 0.1547
C214? C 1.300(2) 0.184(3) 0.0852(16)
H187? H 1.2712 0.1664 0.0756
H188? H 1.2759 0.2371 0.0789
O26? O 1.373(2) 0.162(2) 0.0521(15)
C215? C 1.378(4) 0.223(3) 0.010(3)
H189? H 1.3555 0.2291 -0.0180
H190? H 1.4300 0.2145 -0.0058
H191? H 1.3525 0.2669 0.0246
O27? O 1.307(2) 0.0160(17) 0.1549(17)
C216? C 1.3319(17) -0.0564(15) 0.1847(14)
H192? H 1.3441 -0.0906 0.1626
H193? H 1.2932 -0.0627 0.2171
C217? C 1.3997(14) -0.0714(16) 0.2008(12)
H194? H 1.4243 -0.1238 0.2155
H195? H 1.4348 -0.0569 0.1691
O28? O 1.3781(11) -0.0314(12) 0.2400(9)
C218? C 1.4329(18) -0.023(2) 0.2514(17)
H196? H 1.4098 0.0131 0.2734
H197? H 1.4641 -0.0079 0.2178
H198? H 1.4630 -0.0698 0.2710
O29? O 0.6952(13) 0.3725(12) -0.1249(10)
C219? C 0.618(2) 0.387(2) -0.1205(16)
H199? H 0.5923 0.4372 -0.1383
H200? H 0.5920 0.3796 -0.0822
C220? C 0.620(2) 0.333(2) -0.1480(18)
H201? H 0.5693 0.3445 -0.1476
H202? H 0.6472 0.3411 -0.1860
O30? O 0.6517(12) 0.2627(11) -0.1259(13)
C221? C 0.729(3) 0.226(3) -0.145(2)
H203? H 0.7386 0.2062 -0.1756
H204? H 0.7489 0.1856 -0.1160
H205? H 0.7526 0.2593 -0.1554
S7? S 0.6277(13) 0.3530(15) 0.2876(10)
S8? S 0.7079(14) 0.303(2) 0.3310(14)
S9? S 0.8041(14) 0.3139(14) 0.2824(9)
S10? S 0.8155(14) 0.3812(13) 0.2071(8)
S11? S 0.7677(12) 0.3835(13) 0.1522(8)
S12? S 0.7099(16) 0.3831(19) 0.2317(9)
loop_
_geom_bond_atom_site_label_1
_geom_bond_atom_site_label_2
_geom_bond_site_symmetry_1
_geom_bond_site_symmetry_2
N1 C1 1_555 1_555
C1 H1 1_555 1_555
C2 C1 1_555 1_555
H2 C2 1_555 1_555
C3 C2 1_555 1_555
H3 C3 1_555 1_555
C4 C3 1_555 1_555
C5 N1 1_555 1_555
H4 C5 1_555 1_555
C6 H5 1_555 1_555
C7 C6 1_555 1_555
H6 C7 1_555 1_555
C8 C7 1_555 1_555
H7 C8 1_555 1_555
C9 C8 1_555 1_555
H8 C9 1_555 1_555
C10 C9 1_555 1_555
C11 C10 1_555 1_555
C12 C11 1_555 1_555
C13 C12 1_555 1_555
H9 C13 1_555 1_555
C14 C13 1_555 1_555
H10 C14 1_555 1_555
C15 C14 1_555 1_555
H11 C15 1_555 1_555
C16 C15 1_555 1_555
H12 C16 1_555 1_555
C17 C12 1_555 1_555
C18 C4 1_555 1_555
C19 C6 1_555 1_555
N2 C20 1_555 1_555
C20 H13 1_555 1_555
C21 C20 1_555 1_555
H14 C21 1_555 1_555
C22 C21 1_555 1_555
H15 C22 1_555 1_555
C23 C22 1_555 1_555
C24 N2 1_555 1_555
H16 C24 1_555 1_555
C25 H17 1_555 1_555
C26 C25 1_555 1_555
H18 C26 1_555 1_555
C27 C26 1_555 1_555
H19 C27 1_555 1_555
C28 C27 1_555 1_555
H20 C28 1_555 1_555
C29 C28 1_555 1_555
C30 C29 1_555 1_555
C31 C30 1_555 1_555
C32 C31 1_555 1_555
H21 C32 1_555 1_555
C33 C32 1_555 1_555
H22 C33 1_555 1_555
C34 C33 1_555 1_555
H23 C34 1_555 1_555
C35 C34 1_555 1_555
H24 C35 1_555 1_555
C36 C31 1_555 1_555
C37 C23 1_555 1_555
C38 C25 1_555 1_555
C39 C11 1_555 1_555
C40 C39 1_555 1_555
C41 C40 1_555 1_555
C42 C41 1_555 1_555
C43 C30 1_555 1_555
C44 C39 1_555 1_555
H25 C44 1_555 1_555
N3 C45 1_555 1_555
C45 H26 1_555 1_555
C46 C45 1_555 1_555
H27 C46 1_555 1_555
C47 C46 1_555 1_555
H28 C47 1_555 1_555
C48 C47 1_555 1_555
C49 N3 1_555 1_555
H29 C49 1_555 1_555
C50 H30 1_555 1_555
C51 C50 1_555 1_555
H31 C51 1_555 1_555
C52 C51 1_555 1_555
H32 C52 1_555 1_555
C53 C52 1_555 1_555
H33 C53 1_555 1_555
C54 C53 1_555 1_555
C55 C54 1_555 1_555
C56 C55 1_555 1_555
C57 C56 1_555 1_555
H34 C57 1_555 1_555
C58 C57 1_555 1_555
H35 C58 1_555 1_555
C59 C58 1_555 1_555
H36 C59 1_555 1_555
C60 C59 1_555 1_555
H37 C60 1_555 1_555
C61 C56 1_555 1_555
C62 C48 1_555 1_555
C63 C50 1_555 1_555
N4 C64 1_555 1_555
C64 H38 1_555 1_555
C65 C64 1_555 1_555
H39 C65 1_555 1_555
C66 C65 1_555 1_555
H40 C66 1_555 1_555
C67 C66 1_555 1_555
C68 N4 1_555 1_555
H41 C68 1_555 1_555
C69 H42 1_555 1_555
C70 C69 1_555 1_555
H43 C70 1_555 1_555
C71 C70 1_555 1_555
H44 C71 1_555 1_555
C72 C71 1_555 1_555
H45 C72 1_555 1_555
C73 C72 1_555 1_555
C74 C73 1_555 1_555
C75 C74 1_555 1_555
C76 C75 1_555 1_555
H46 C76 1_555 1_555
C77 C76 1_555 1_555
H47 C77 1_555 1_555
C78 C77 1_555 1_555
H48 C78 1_555 1_555
C79 C78 1_555 1_555
H49 C79 1_555 1_555
C80 C75 1_555 1_555
C81 C67 1_555 1_555
C82 C69 1_555 1_555
C83 C55 1_555 1_555
C84 C83 1_555 1_555
C85 C84 1_555 1_555
C86 C85 1_555 1_555
C87 C74 1_555 1_555
C88 C83 1_555 1_555
H50 C88 1_555 1_555
N5 C89 1_555 1_555
C89 H51 1_555 1_555
C90 C89 1_555 1_555
H52 C90 1_555 1_555
C91 C90 1_555 1_555
H53 C91 1_555 1_555
C92 C91 1_555 1_555
C93 N5 1_555 1_555
H54 C93 1_555 1_555
C94 H55 1_555 1_555
C95 C94 1_555 1_555
H56 C95 1_555 1_555
C96 C95 1_555 1_555
H57 C96 1_555 1_555
C97 C96 1_555 1_555
H58 C97 1_555 1_555
C98 C97 1_555 1_555
C99 C98 1_555 1_555
C100 C99 1_555 1_555
C101 C100 1_555 1_555
H59 C101 1_555 1_555
C102 C101 1_555 1_555
H60 C102 1_555 1_555
C103 C102 1_555 1_555
H61 C103 1_555 1_555
C104 C103 1_555 1_555
H62 C104 1_555 1_555
C105 C100 1_555 1_555
C106 C92 1_555 1_555
C107 C94 1_555 1_555
N6 C108 1_555 1_555
C108 H63 1_555 1_555
C109 C108 1_555 1_555
H64 C109 1_555 1_555
C110 C109 1_555 1_555
H65 C110 1_555 1_555
C111 C110 1_555 1_555
C112 N6 1_555 1_555
H66 C112 1_555 1_555
C113 H67 1_555 1_555
C114 C113 1_555 1_555
H68 C114 1_555 1_555
C115 C114 1_555 1_555
H69 C115 1_555 1_555
C116 C115 1_555 1_555
H70 C116 1_555 1_555
C117 C116 1_555 1_555
C118 C117 1_555 1_555
C119 C118 1_555 1_555
C120 C119 1_555 1_555
H71 C120 1_555 1_555
C121 C120 1_555 1_555
H72 C121 1_555 1_555
C122 C121 1_555 1_555
H73 C122 1_555 1_555
C123 C122 1_555 1_555
H74 C123 1_555 1_555
C124 C119 1_555 1_555
C125 C111 1_555 1_555
C126 C113 1_555 1_555
C127 C99 1_555 1_555
C128 C127 1_555 1_555
C129 C128 1_555 1_555
C130 C129 1_555 1_555
C131 C118 1_555 1_555
C132 C127 1_555 1_555
H75 C132 1_555 1_555
N7 C133 1_555 1_555
C133 H76 1_555 1_555
C134 C133 1_555 1_555
H77 C134 1_555 1_555
C135 C134 1_555 1_555
H78 C135 1_555 1_555
C136 C135 1_555 1_555
C137 N7 1_555 1_555
H79 C137 1_555 1_555
C138 H80 1_555 1_555
C139 C138 1_555 1_555
H81 C139 1_555 1_555
C140 C139 1_555 1_555
H82 C140 1_555 1_555
C141 C140 1_555 1_555
H83 C141 1_555 1_555
C142 C141 1_555 1_555
C143 C142 1_555 1_555
C144 C143 1_555 1_555
C145 C144 1_555 1_555
H84 C145 1_555 1_555
C146 C145 1_555 1_555
H85 C146 1_555 1_555
C147 C146 1_555 1_555
H86 C147 1_555 1_555
C148 C147 1_555 1_555
H87 C148 1_555 1_555
C149 C144 1_555 1_555
C150 C136 1_555 1_555
C151 C138 1_555 1_555
N8 C152 1_555 1_555
C152 H88 1_555 1_555
C153 C152 1_555 1_555
H89 C153 1_555 1_555
C154 C153 1_555 1_555
H90 C154 1_555 1_555
C155 C154 1_555 1_555
C156 N8 1_555 1_555
H91 C156 1_555 1_555
C157 H92 1_555 1_555
C158 C157 1_555 1_555
H93 C158 1_555 1_555
C159 C158 1_555 1_555
H94 C159 1_555 1_555
C160 C159 1_555 1_555
H95 C160 1_555 1_555
C161 C160 1_555 1_555
C162 C161 1_555 1_555
C163 C162 1_555 1_555
C164 C163 1_555 1_555
H96 C164 1_555 1_555
C165 C164 1_555 1_555
H97 C165 1_555 1_555
C166 C165 1_555 1_555
H98 C166 1_555 1_555
C167 C166 1_555 1_555
H99 C167 1_555 1_555
C168 C163 1_555 1_555
C169 C155 1_555 1_555
C170 C157 1_555 1_555
C171 C143 1_555 1_555
C172 C171 1_555 1_555
C173 C172 1_555 1_555
C174 C173 1_555 1_555
C175 C162 1_555 1_555
C176 C171 1_555 1_555
H100 C176 1_555 1_555
O1 C40 1_555 1_555
C177 O1 1_555 1_555
H101 C177 1_555 1_555
H102 C177 1_555 1_555
C178 C177 1_555 1_555
H103 C178 1_555 1_555
H104 C178 1_555 1_555
O2 C178 1_555 1_555
C179 O2 1_555 1_555
H105 C179 1_555 1_555
H106 C179 1_555 1_555
H107 C179 1_555 1_555
O3 C41 1_555 1_555
C180 O3 1_555 1_555
H108 C180 1_555 1_555
H109 C180 1_555 1_555
C181 C180 1_555 1_555
H110 C181 1_555 1_555
H111 C181 1_555 1_555
O4 C181 1_555 1_555
C182 O4 1_555 1_555
H112 C182 1_555 1_555
H113 C182 1_555 1_555
H114 C182 1_555 1_555
O5 C42 1_555 1_555
C183 O5 1_555 1_555
H115 C183 1_555 1_555
H116 C183 1_555 1_555
C184 C183 1_555 1_555
H117 C184 1_555 1_555
H118 C184 1_555 1_555
O6 C184 1_555 1_555
C185 O6 1_555 1_555
H119 C185 1_555 1_555
H120 C185 1_555 1_555
H121 C185 1_555 1_555
O7 C84 1_555 1_555
C186 O7 1_555 1_555
H122 C186 1_555 1_555
H123 C186 1_555 1_555
C187 C186 1_555 1_555
H124 C187 1_555 1_555
H125 C187 1_555 1_555
O8 C187 1_555 1_555
C188 O8 1_555 1_555
H126 C188 1_555 1_555
H127 C188 1_555 1_555
H128 C188 1_555 1_555
O9 C85 1_555 1_555
C189 O9 1_555 1_555
H129 C189 1_555 1_555
H130 C189 1_555 1_555
C190 C189 1_555 1_555
H131 C190 1_555 1_555
H132 C190 1_555 1_555
O10 C190 1_555 1_555
C191 O10 1_555 1_555
H133 C191 1_555 1_555
H134 C191 1_555 1_555
H135 C191 1_555 1_555
O11 C86 1_555 1_555
C192 O11 1_555 1_555
H136 C192 1_555 1_555
H137 C192 1_555 1_555
C193 C192 1_555 1_555
H138 C193 1_555 1_555
H139 C193 1_555 1_555
O12 C193 1_555 1_555
C194 O12 1_555 1_555
H140 C194 1_555 1_555
H141 C194 1_555 1_555
H142 C194 1_555 1_555
O13 C128 1_555 1_555
C195 O13 1_555 1_555
H143 C195 1_555 1_555
H144 C195 1_555 1_555
C196 C195 1_555 1_555
H145 C196 1_555 1_555
H146 C196 1_555 1_555
O14 C196 1_555 1_555
C197 O14 1_555 1_555
H147 C197 1_555 1_555
H148 C197 1_555 1_555
H149 C197 1_555 1_555
O15 C129 1_555 1_555
C198 O15 1_555 1_555
H150 C198 1_555 1_555
H151 C198 1_555 1_555
C199 C198 1_555 1_555
H152 C199 1_555 1_555
H153 C199 1_555 1_555
O16 C199 1_555 1_555
C200 O16 1_555 1_555
H154 C200 1_555 1_555
H155 C200 1_555 1_555
H156 C200 1_555 1_555
O17 C130 1_555 1_555
C201 O17 1_555 1_555
H157 C201 1_555 1_555
H158 C201 1_555 1_555
C202 C201 1_555 1_555
H159 C202 1_555 1_555
H160 C202 1_555 1_555
O18 C202 1_555 1_555
C203 O18 1_555 1_555
H161 C203 1_555 1_555
H162 C203 1_555 1_555
H163 C203 1_555 1_555
O19 C172 1_555 1_555
C204 O19 1_555 1_555
H164 C204 1_555 1_555
H165 C204 1_555 1_555
C205 C204 1_555 1_555
H166 C205 1_555 1_555
H167 C205 1_555 1_555
O20 C205 1_555 1_555
C206 O20 1_555 1_555
H168 C206 1_555 1_555
H169 C206 1_555 1_555
H170 C206 1_555 1_555
O21 C173 1_555 1_555
C207 O21 1_555 1_555
H171 C207 1_555 1_555
H172 C207 1_555 1_555
C208 C207 1_555 1_555
H173 C208 1_555 1_555
H174 C208 1_555 1_555
O22 C208 1_555 1_555
C209 O22 1_555 1_555
H175 C209 1_555 1_555
H176 C209 1_555 1_555
H177 C209 1_555 1_555
O23 C174 1_555 1_555
C210 O23 1_555 1_555
H178 C210 1_555 1_555
H179 C210 1_555 1_555
C211 C210 1_555 1_555
H180 C211 1_555 1_555
H181 C211 1_555 1_555
O24 C211 1_555 1_555
C212 O24 1_555 1_555
H182 C212 1_555 1_555
H183 C212 1_555 1_555
H184 C212 1_555 1_555
Pd1 N2 1_555 1_555
Pd2 N1 1_555 1_555
S1 S2 1_555 1_555
S2 S3 1_555 1_555
S3 S4 1_555 1_555
S4 S5 1_555 1_555
S5 S6 1_555 1_555
S6 S1 1_555 1_555
S13 S14 1_555 1_555
S14 S15 1_555 1_555
S15 S16 1_555 1_555
S16 S17 1_555 1_555
S17 S18 1_555 1_555
S18 S13 1_555 1_555
N9 O31 1_555 1_555
O32 N9 1_555 1_555
O33 N9 1_555 1_555
N10 O36 1_555 1_555
O37 N10 1_555 1_555
O38 N10 1_555 1_555
N11 O40 1_555 1_555
O41 N11 1_555 1_555
O42 N11 1_555 1_555
N12 O43 1_555 1_555
O44 N12 1_555 1_555
O45 N12 1_555 1_555
C4 C5 1_555 1_555
C10 C19 1_555 1_555
C16 C17 1_555 1_555
C17 C18 1_555 1_555
C18 C19 1_555 1_555
C23 C24 1_555 1_555
C29 C38 1_555 1_555
C35 C36 1_555 1_555
C36 C37 1_555 1_555
C37 C38 1_555 1_555
C42 C43 1_555 1_555
C43 C44 1_555 1_555
N3 Pd2 1_555 1_555
C48 C49 1_555 1_555
C54 C63 1_555 1_555
C60 C61 1_555 1_555
C61 C62 1_555 1_555
C62 C63 1_555 1_555
N4 Pd1 1_555 1_555
C67 C68 1_555 1_555
C73 C82 1_555 1_555
C79 C80 1_555 1_555
C80 C81 1_555 1_555
C81 C82 1_555 1_555
C86 C87 1_555 1_555
C87 C88 1_555 1_555
N5 Pd2 1_555 1_555
C92 C93 1_555 1_555
C98 C107 1_555 1_555
C104 C105 1_555 1_555
C105 C106 1_555 1_555
C106 C107 1_555 1_555
N6 Pd1 1_555 1_555
C111 C112 1_555 1_555
C117 C126 1_555 1_555
C123 C124 1_555 1_555
C124 C125 1_555 1_555
C125 C126 1_555 1_555
C130 C131 1_555 1_555
C131 C132 1_555 1_555
N7 Pd2 1_555 1_555
C136 C137 1_555 1_555
C142 C151 1_555 1_555
C148 C149 1_555 1_555
C149 C150 1_555 1_555
C150 C151 1_555 1_555
N8 Pd1 1_555 1_555
C155 C156 1_555 1_555
C161 C170 1_555 1_555
C167 C168 1_555 1_555
C168 C169 1_555 1_555
C169 C170 1_555 1_555
C174 C175 1_555 1_555
C175 C176 1_555 1_555

#END
