
#######################################################################
#
#                 Cambridge Crystallographic Data Centre
#                                CCDC 
#
#######################################################################
#
# If this CIF has been generated from an entry in the Cambridge 
# Structural Database, then it will include bibliographic, chemical, 
# crystal, experimental, refinement or atomic coordinate data resulting 
# from the CCDC's data processing and validation procedures.
#
#######################################################################

data_REHRUU
_chemical_formula_moiety         
'C212 H184 N8 O24 Pd2 4+,2(S8),10(H2 O1),4(N1 O3 1-)'
_chemical_name_systematic        
"tetrakis(\m-3,3'-{[4,5,6-tris(2-methoxyethoxy)-1,3-phenylene]bis(anthracene-10,9-diyl)}dipyridine)-di-palladium(ii) bis(octathiocane) tetranitrate unknown solvate decahydrate"
_symmetry_cell_setting           monoclinic
_symmetry_space_group_name_H-M   'P 21/n'
_symmetry_Int_Tables_number      14
_space_group_name_Hall           '-P 2yn'
loop_
_symmetry_equiv_pos_site_id
_symmetry_equiv_pos_as_xyz
1 x,y,z
2 1/2-x,1/2+y,1/2-z
3 -x,-y,-z
4 1/2+x,1/2-y,1/2+z
_cell_length_a                   21.7593(11)
_cell_length_b                   33.6872(16)
_cell_length_c                   28.3246(14)
_cell_angle_alpha                90
_cell_angle_beta                 92.856(3)
_cell_angle_gamma                90
_cell_volume                     20736.4
_exptl_crystal_colour            yellow
_exptl_crystal_description       prism
_cell_formula_units_Z            4
_exptl_crystal_recrystallization_method '25:1 water/acetonitrile'
loop_
_atom_site_label
_atom_site_type_symbol
_atom_site_fract_x
_atom_site_fract_y
_atom_site_fract_z
S1 S 0.1286(2) 0.18666(15) 0.3746(2)
S2 S 0.1783(2) 0.19310(14) 0.31491(17)
S3 S 0.1272(2) 0.22542(14) 0.26634(18)
S4 S 0.1629(3) 0.28188(16) 0.2659(2)
S5 S 0.1198(3) 0.31551(17) 0.3122(2)
S6 S 0.1657(3) 0.31266(17) 0.3776(2)
S7 S 0.1188(4) 0.2763(2) 0.4201(3)
S8 S 0.1622(3) 0.22249(19) 0.4257(3)
S9 S 0.3000(2) 0.15059(12) 0.37204(16)
S10 S 0.36014(19) 0.14660(12) 0.31788(16)
S11 S 0.3268(2) 0.18300(14) 0.26479(15)
S12 S 0.3708(3) 0.23703(17) 0.2699(2)
S13 S 0.3193(3) 0.27538(15) 0.3043(2)
S14 S 0.3520(3) 0.27732(16) 0.3733(2)
S15 S 0.2969(3) 0.24401(18) 0.4090(3)
S16 S 0.3368(2) 0.18911(16) 0.42200(17)
O25 O 0.6979(3) 0.2218(3) 0.3948(3)
O26 O -0.1907(8) 0.1791(5) 0.5484(6)
O27 O 0.1519(7) 0.5352(4) 0.6605(5)
O28 O -0.2189(7) 0.2317(6) 0.2819(9)
O29 O -0.1830(15) 0.3364(10) 0.1765(10)
O30 O 0.1965(10) 0.1615(7) 0.0169(10)
O31 O 0.2910(11) 0.1660(6) -0.1091(8)
O32 O 0.6807(7) 0.3214(5) 0.2595(6)
O33 O 0.7340(8) 0.2334(7) 0.5023(7)
O34 O -0.2549(10) 0.2750(8) 0.1849(9)
Pd1 Pd 0.55893(3) 0.22660(2) 0.36803(2)
Pd2 Pd -0.08121(3) 0.23779(2) 0.30963(3)
N1 N 0.5667(3) 0.2152(2) 0.2986(3)
C1 C 0.6128(5) 0.2311(4) 0.2750(4)
H1 H 0.6428 0.2460 0.2915
C2 C 0.6167(5) 0.2261(4) 0.2266(4)
H2 H 0.6499 0.2362 0.2111
C3 C 0.5713(5) 0.2060(4) 0.2023(4)
H3 H 0.5723 0.2040 0.1696
C4 C 0.5225(4) 0.1880(3) 0.2258(4)
C5 C 0.5228(4) 0.1949(3) 0.2740(3)
H4 H 0.4904 0.1847 0.2904
C6 C 0.5052(6) 0.1052(4) 0.2471(4)
H5 H 0.5389 0.1187 0.2607
C7 C 0.4961(6) 0.0662(4) 0.2585(4)
H6 H 0.5244 0.0531 0.2787
C8 C 0.4445(6) 0.0462(4) 0.2399(4)
H7 H 0.4378 0.0200 0.2488
C9 C 0.4037(5) 0.0642(3) 0.2088(4)
H8 H 0.3697 0.0501 0.1968
C10 C 0.4119(5) 0.1037(3) 0.1945(4)
C11 C 0.3711(4) 0.1231(3) 0.1611(3)
C12 C 0.3821(4) 0.1616(3) 0.1465(3)
C13 C 0.3431(5) 0.1812(3) 0.1106(3)
H9 H 0.3097 0.1676 0.0967
C14 C 0.3541(5) 0.2182(3) 0.0969(4)
H10 H 0.3296 0.2296 0.0727
C15 C 0.4034(5) 0.2408(3) 0.1193(4)
H11 H 0.4096 0.2669 0.1099
C16 C 0.4400(5) 0.2250(3) 0.1530(4)
H12 H 0.4708 0.2405 0.1677
C17 C 0.4328(4) 0.1840(3) 0.1674(3)
C18 C 0.4722(4) 0.1658(3) 0.2018(3)
C19 C 0.4634(5) 0.1256(3) 0.2144(4)
N2 N -0.0730(4) 0.1792(3) 0.2948(3)
C20 C -0.1158(5) 0.1516(3) 0.3035(4)
H13 H -0.1513 0.1593 0.3181
C21 C -0.1090(6) 0.1141(4) 0.2921(5)
H14 H -0.1394 0.0959 0.2992
C22 C -0.0579(5) 0.1012(4) 0.2699(5)
H15 H -0.0536 0.0747 0.2615
C23 C -0.0127(5) 0.1291(3) 0.2601(4)
C24 C -0.0226(5) 0.1673(3) 0.2724(4)
H16 H 0.0065 0.1862 0.2651
C25 C -0.0103(5) 0.1371(3) 0.1587(4)
H17 H -0.0458 0.1433 0.1742
C26 C -0.0096(6) 0.1412(3) 0.1108(4)
H18 H -0.0444 0.1505 0.0939
C27 C 0.0432(5) 0.1316(3) 0.0867(4)
H19 H 0.0429 0.1347 0.0541
C28 C 0.0941(5) 0.1179(3) 0.1100(3)
H20 H 0.1282 0.1109 0.0932
C29 C 0.0965(4) 0.1140(3) 0.1605(3)
C30 C 0.1503(4) 0.1016(3) 0.1867(3)
C31 C 0.1511(4) 0.0983(3) 0.2361(3)
C32 C 0.2054(5) 0.0862(3) 0.2638(4)
H21 H 0.2411 0.0807 0.2483
C33 C 0.2063(5) 0.0824(3) 0.3107(4)
H22 H 0.2424 0.0754 0.3276
C34 C 0.1499(5) 0.0895(3) 0.3353(4)
H23 H 0.1497 0.0857 0.3678
C35 C 0.0980(5) 0.1016(3) 0.3113(4)
H24 H 0.0629 0.1070 0.3276
C36 C 0.0966(4) 0.1063(3) 0.2607(3)
C37 C 0.0434(4) 0.1190(3) 0.2343(4)
C38 C 0.0430(4) 0.1233(3) 0.1855(3)
C39 C 0.3124(5) 0.1012(3) 0.1450(4)
C40 C 0.3131(5) 0.0683(3) 0.1149(4)
C41 C 0.2590(5) 0.0443(3) 0.1104(4)
C42 C 0.2076(5) 0.0556(3) 0.1343(4)
C43 C 0.2066(4) 0.0903(3) 0.1609(3)
C44 C 0.2593(4) 0.1125(3) 0.1652(3)
H25 H 0.2590 0.1361 0.1824
N3 N 0.5520(3) 0.1685(3) 0.3815(3)
C45 C 0.5938(4) 0.1413(3) 0.3673(4)
H26 H 0.6272 0.1503 0.3510
C46 C 0.5890(4) 0.1020(3) 0.3757(4)
H27 H 0.6184 0.0845 0.3651
C47 C 0.5405(5) 0.0879(3) 0.4001(4)
H28 H 0.5377 0.0609 0.4066
C48 C 0.4950(4) 0.1140(3) 0.4153(3)
C49 C 0.5033(4) 0.1546(3) 0.4045(3)
H29 H 0.4738 0.1727 0.4136
C50 C 0.4748(5) 0.1429(3) 0.5114(4)
H30 H 0.5117 0.1487 0.4977
C51 C 0.4637(5) 0.1579(3) 0.5544(4)
H31 H 0.4931 0.1739 0.5698
C52 C 0.4095(5) 0.1497(3) 0.5761(4)
H32 H 0.4030 0.1600 0.6059
C53 C 0.3661(5) 0.1269(3) 0.5541(4)
H33 H 0.3291 0.1227 0.5684
C54 C 0.3758(4) 0.1089(3) 0.5093(4)
C55 C 0.3328(4) 0.0823(3) 0.4881(3)
C56 C 0.3438(4) 0.0648(3) 0.4447(3)
C57 C 0.3036(5) 0.0352(3) 0.4228(3)
H34 H 0.2697 0.0267 0.4388
C58 C 0.3132(5) 0.0198(3) 0.3808(4)
H35 H 0.2855 0.0012 0.3681
C59 C 0.3647(5) 0.0309(3) 0.3545(4)
H36 H 0.3710 0.0197 0.3251
C60 C 0.4053(5) 0.0590(3) 0.3743(3)
H37 H 0.4384 0.0673 0.3572
C61 C 0.3977(4) 0.0753(3) 0.4199(3)
C62 C 0.4407(4) 0.1022(3) 0.4412(3)
C63 C 0.4305(4) 0.1182(3) 0.4865(3)
N4 N -0.0834(4) 0.2256(3) 0.3799(3)
C64 C -0.1280(5) 0.2382(4) 0.4058(5)
H38 H -0.1587 0.2541 0.3918
C65 C -0.1308(5) 0.2286(4) 0.4524(5)
H39 H -0.1625 0.2386 0.4698
C66 C -0.0866(5) 0.2040(4) 0.4740(5)
H40 H -0.0882 0.1971 0.5057
C67 C -0.0388(5) 0.1897(3) 0.4459(4)
C68 C -0.0388(4) 0.2017(3) 0.4003(4)
H41 H -0.0070 0.1933 0.3820
C69 C -0.0256(5) 0.1091(3) 0.4136(4)
H42 H -0.0598 0.1239 0.4034
C70 C -0.0179(5) 0.0717(3) 0.3955(4)
H43 H -0.0455 0.0617 0.3723
C71 C 0.0333(5) 0.0481(3) 0.4128(4)
H44 H 0.0387 0.0229 0.4004
C72 C 0.0744(5) 0.0618(3) 0.4470(4)
H45 H 0.1062 0.0454 0.4583
C73 C 0.0691(5) 0.1004(3) 0.4654(3)
C74 C 0.1103(5) 0.1155(3) 0.5016(4)
C75 C 0.1023(5) 0.1535(3) 0.5202(4)
C76 C 0.1427(5) 0.1679(4) 0.5575(4)
H46 H 0.1745 0.1517 0.5694
C77 C 0.1356(6) 0.2048(4) 0.5759(5)
H47 H 0.1613 0.2134 0.6011
C78 C 0.0899(6) 0.2296(4) 0.5568(5)
H48 H 0.0866 0.2552 0.5687
C79 C 0.0505(6) 0.2180(4) 0.5220(4)
H49 H 0.0208 0.2356 0.5099
C80 C 0.0533(5) 0.1779(3) 0.5024(4)
C81 C 0.0121(5) 0.1642(3) 0.4663(4)
C82 C 0.0178(5) 0.1259(3) 0.4481(4)
C83 C 0.2736(5) 0.0749(3) 0.5114(4)
C84 C 0.2706(5) 0.0485(3) 0.5477(4)
C85 C 0.2140(5) 0.0424(3) 0.5690(4)
C86 C 0.1622(5) 0.0641(3) 0.5545(4)
C87 C 0.1644(5) 0.0913(3) 0.5167(4)
C88 C 0.2206(5) 0.0950(3) 0.4955(4)
H50 H 0.2228 0.1117 0.4695
N5 N 0.5447(4) 0.2407(2) 0.4360(3)
C89 C 0.5831(5) 0.2299(3) 0.4725(3)
H51 H 0.6155 0.2128 0.4667
C90 C 0.5764(5) 0.2428(3) 0.5171(4)
H52 H 0.6038 0.2347 0.5414
C91 C 0.5285(5) 0.2685(3) 0.5266(4)
H53 H 0.5243 0.2783 0.5569
C92 C 0.4867(4) 0.2793(3) 0.4895(3)
C93 C 0.4978(4) 0.2649(3) 0.4444(4)
H54 H 0.4714 0.2725 0.4191
C94 C 0.4892(5) 0.3625(3) 0.4624(3)
H55 H 0.5233 0.3462 0.4592
C95 C 0.4917(6) 0.4013(3) 0.4482(4)
H56 H 0.5269 0.4111 0.4350
C96 C 0.4404(6) 0.4263(4) 0.4537(4)
H57 H 0.4421 0.4527 0.4444
C97 C 0.3887(6) 0.4120(3) 0.4724(4)
H58 H 0.3552 0.4289 0.4751
C98 C 0.3837(5) 0.3717(3) 0.4882(4)
C99 C 0.3312(5) 0.3575(3) 0.5078(4)
C100 C 0.3275(5) 0.3168(3) 0.5202(4)
C101 C 0.2752(6) 0.3009(3) 0.5397(5)
H59 H 0.2420 0.3174 0.5447
C102 C 0.2714(6) 0.2605(4) 0.5519(5)
H60 H 0.2370 0.2505 0.5662
C103 C 0.3213(6) 0.2354(3) 0.5417(5)
H61 H 0.3176 0.2082 0.5463
C104 C 0.3736(5) 0.2499(3) 0.5257(4)
H62 H 0.4066 0.2328 0.5219
C105 C 0.3798(5) 0.2905(3) 0.5144(4)
C106 C 0.4331(5) 0.3061(3) 0.4957(3)
C107 C 0.4355(5) 0.3464(3) 0.4822(3)
N6 N -0.0838(4) 0.2965(2) 0.3225(4)
C108 C -0.1231(5) 0.3211(4) 0.2981(5)
H63 H -0.1506 0.3105 0.2753
C109 C -0.1235(6) 0.3603(4) 0.3061(5)
H64 H -0.1529 0.3762 0.2903
C110 C -0.0808(6) 0.3771(4) 0.3374(5)
H65 H -0.0805 0.4044 0.3423
C111 C -0.0364(5) 0.3522(3) 0.3627(5)
C112 C -0.0410(5) 0.3122(3) 0.3529(4)
H66 H -0.0128 0.2951 0.3681
C113 C -0.0351(6) 0.3297(4) 0.4626(5)
H67 H -0.0693 0.3231 0.4432
C114 C -0.0317(7) 0.3165(4) 0.5071(5)
H68 H -0.0632 0.3005 0.5175
C115 C 0.0160(7) 0.3257(4) 0.5373(5)
H69 H 0.0160 0.3160 0.5681
C116 C 0.0665(7) 0.3495(4) 0.5240(5)
H70 H 0.0990 0.3554 0.5454
C117 C 0.0650(6) 0.3643(4) 0.4755(5)
C118 C 0.1119(6) 0.3895(3) 0.4609(4)
C119 C 0.1079(5) 0.4042(3) 0.4147(4)
C120 C 0.1519(5) 0.4317(3) 0.3982(4)
H71 H 0.1834 0.4402 0.4192
C121 C 0.1499(6) 0.4461(4) 0.3536(4)
H72 H 0.1779 0.4652 0.3448
C122 C 0.1036(6) 0.4314(4) 0.3199(5)
H73 H 0.1031 0.4399 0.2886
C123 C 0.0606(5) 0.4051(3) 0.3337(4)
H74 H 0.0313 0.3954 0.3116
C124 C 0.0595(5) 0.3922(3) 0.3810(4)
C125 C 0.0123(5) 0.3662(3) 0.3966(4)
C126 C 0.0129(6) 0.3543(4) 0.4432(5)
C127 C 0.2756(6) 0.3821(3) 0.5139(4)
C128 C 0.2717(6) 0.4097(4) 0.5505(4)
C129 C 0.2158(7) 0.4299(4) 0.5587(5)
C130 C 0.1649(7) 0.4236(4) 0.5290(5)
C131 C 0.1660(6) 0.3975(3) 0.4918(4)
C132 C 0.2219(6) 0.3772(3) 0.4852(4)
H75 H 0.2230 0.3594 0.4602
N7 N 0.5607(3) 0.2851(2) 0.3540(3)
C133 C 0.6004(4) 0.3107(3) 0.3757(3)
H76 H 0.6305 0.3009 0.3971
C134 C 0.5976(5) 0.3508(3) 0.3672(4)
H77 H 0.6252 0.3678 0.3831
C135 C 0.5537(5) 0.3658(3) 0.3350(4)
H78 H 0.5520 0.3928 0.3285
C136 C 0.5119(4) 0.3395(3) 0.3123(3)
C137 C 0.5180(4) 0.3004(3) 0.3232(3)
H79 H 0.4905 0.2828 0.3081
C138 C 0.5286(5) 0.3331(3) 0.2124(4)
H80 H 0.5607 0.3279 0.2345
C139 C 0.5369(5) 0.3277(3) 0.1650(4)
H81 H 0.5744 0.3187 0.1547
C140 C 0.4874(5) 0.3361(3) 0.1322(4)
H82 H 0.4927 0.3322 0.1002
C141 C 0.4321(5) 0.3498(3) 0.1463(3)
H83 H 0.4009 0.3556 0.1237
C142 C 0.4218(4) 0.3553(3) 0.1957(3)
C143 C 0.3649(4) 0.3682(2) 0.2106(3)
C144 C 0.3547(4) 0.3727(3) 0.2591(3)
C145 C 0.2968(4) 0.3842(3) 0.2770(3)
H84 H 0.2637 0.3895 0.2560
C146 C 0.2896(5) 0.3874(3) 0.3235(4)
H85 H 0.2517 0.3953 0.3341
C147 C 0.3381(5) 0.3791(3) 0.3566(4)
H86 H 0.3315 0.3810 0.3887
C148 C 0.3936(5) 0.3684(3) 0.3426(3)
H87 H 0.4255 0.3638 0.3650
C149 C 0.4044(4) 0.3640(3) 0.2932(3)
C150 C 0.4618(4) 0.3515(3) 0.2778(3)
C151 C 0.4702(4) 0.3467(3) 0.2281(3)
N8 N -0.0744(4) 0.2485(3) 0.2396(3)
C152 C -0.1117(5) 0.2329(3) 0.2058(5)
H88 H -0.1447 0.2175 0.2147
C153 C -0.1037(5) 0.2383(3) 0.1588(4)
H89 H -0.1311 0.2271 0.1363
C154 C -0.0554(5) 0.2602(3) 0.1453(4)
H90 H -0.0494 0.2642 0.1134
C155 C -0.0144(4) 0.2768(3) 0.1797(4)
C156 C -0.0258(4) 0.2710(3) 0.2267(4)
H91 H -0.0001 0.2827 0.2500
C157 C -0.0066(5) 0.3622(3) 0.1933(4)
H92 H -0.0434 0.3490 0.1978
C158 C -0.0017(5) 0.4018(3) 0.2030(4)
H93 H -0.0348 0.4151 0.2154
C159 C 0.0529(5) 0.4232(3) 0.1944(4)
H94 H 0.0549 0.4503 0.2006
C160 C 0.1026(5) 0.4041(3) 0.1772(4)
H95 H 0.1384 0.4183 0.1720
C161 C 0.1000(4) 0.3626(3) 0.1671(4)
C162 C 0.1502(4) 0.3424(3) 0.1496(3)
C163 C 0.1465(4) 0.3009(3) 0.1411(3)
C164 C 0.1967(5) 0.2803(3) 0.1224(3)
H96 H 0.2312 0.2943 0.1138
C165 C 0.1947(5) 0.2398(3) 0.1169(4)
H97 H 0.2282 0.2264 0.1054
C166 C 0.1413(5) 0.2186(3) 0.1289(4)
H98 H 0.1401 0.1912 0.1253
C167 C 0.0927(5) 0.2376(3) 0.1453(4)
H99 H 0.0584 0.2230 0.1533
C168 C 0.0924(4) 0.2797(3) 0.1508(3)
C169 C 0.0417(4) 0.3003(3) 0.1680(3)
C170 C 0.0440(4) 0.3412(3) 0.1764(3)
C171 C 0.3135(4) 0.3779(3) 0.1754(3)
C172 C 0.3175(4) 0.4098(3) 0.1450(3)
C173 C 0.2700(4) 0.4172(3) 0.1116(3)
C174 C 0.2170(4) 0.3949(3) 0.1115(3)
C175 C 0.2094(4) 0.3639(3) 0.1431(3)
C176 C 0.2593(4) 0.3554(3) 0.1742(3)
H100 H 0.2565 0.3342 0.1949
O1 O 0.3628(4) 0.0541(3) 0.0920(3)
C177 C 0.4005(6) 0.0829(4) 0.0685(4)
H101 H 0.4359 0.0699 0.0556
H102 H 0.4151 0.1032 0.0906
C178 C 0.3609(8) 0.1008(4) 0.0298(5)
H103 H 0.3193 0.1045 0.0396
H104 H 0.3772 0.1262 0.0203
O2 O 0.3626(7) 0.0722(4) -0.0082(4)
C179 C 0.3281(11) 0.0867(7) -0.0496(7)
H105 H 0.3296 0.0674 -0.0745
H106 H 0.2861 0.0910 -0.0420
H107 H 0.3456 0.1112 -0.0597
O3 O 0.2576(4) 0.0100(2) 0.0845(3)
C180 C 0.2556(6) 0.0142(4) 0.0333(3)
H108 H 0.2582 -0.0119 0.0190
H109 H 0.2908 0.0295 0.0243
C181 C 0.1983(5) 0.0341(4) 0.0150(5)
H110 H 0.1932 0.0589 0.0317
H111 H 0.2015 0.0401 -0.0182
O4 O 0.1451(4) 0.0090(3) 0.0211(4)
C182 C 0.0895(6) 0.0293(5) 0.0060(7)
H112 H 0.0548 0.0123 0.0103
H113 H 0.0854 0.0530 0.0245
H114 H 0.0911 0.0363 -0.0268
O5 O 0.1530(4) 0.0334(2) 0.1308(3)
C183 C 0.1594(7) -0.0075(3) 0.1471(4)
H115 H 0.1868 -0.0214 0.1268
H116 H 0.1195 -0.0203 0.1440
C184 C 0.1838(6) -0.0114(6) 0.1971(5)
H117 H 0.1617 0.0071 0.2163
H118 H 0.1746 -0.0379 0.2080
O6 O 0.2493(5) -0.0044(4) 0.2056(4)
C185 C 0.2661(7) -0.0158(4) 0.2535(4)
H119 H 0.3093 -0.0114 0.2598
H120 H 0.2432 -0.0002 0.2749
H121 H 0.2569 -0.0434 0.2578
O7 O 0.3226(4) 0.0280(2) 0.5609(2)
C186 C 0.3424(5) 0.0256(5) 0.6108(3)
H122 H 0.3382 -0.0013 0.6222
H123 H 0.3173 0.0429 0.6294
C187 C 0.4081(5) 0.0382(4) 0.6156(5)
H124 H 0.4127 0.0639 0.6007
H125 H 0.4205 0.0409 0.6489
O8 O 0.4471(5) 0.0095(3) 0.5940(4)
C188 C 0.5007(7) 0.0249(5) 0.5724(7)
H126 H 0.5232 0.0035 0.5592
H127 H 0.4882 0.0433 0.5479
H128 H 0.5264 0.0383 0.5959
O9 O 0.2109(4) 0.0143(2) 0.6053(3)
C189 C 0.1744(7) -0.0205(3) 0.5916(6)
H129 H 0.1656 -0.0203 0.5577
H130 H 0.1356 -0.0198 0.6071
C190 C 0.2086(10) -0.0573(4) 0.6055(10)
H131 H 0.2474 -0.0569 0.5901
H132 H 0.2181 -0.0561 0.6392
O10 O 0.1793(8) -0.0950(5) 0.5951(7)
C191 C 0.2173(12) -0.1301(6) 0.5917(11)
H133 H 0.1917 -0.1527 0.5847
H134 H 0.2454 -0.1265 0.5669
H135 H 0.2402 -0.1343 0.6211
O11 O 0.1078(4) 0.0575(3) 0.5755(3)
C192 C 0.1071(7) 0.0771(4) 0.6212(4)
H136 H 0.1025 0.1055 0.6166
H137 H 0.1459 0.0725 0.6387
C193 C 0.0559(8) 0.0621(5) 0.6488(7)
H138 H 0.0528 0.0782 0.6770
H139 H 0.0176 0.0646 0.6301
O12 O 0.0648(8) 0.0211(4) 0.6624(6)
C194 C 0.1035(15) 0.0181(9) 0.7051(9)
O13 O 0.3245(5) 0.4142(2) 0.5802(3)
C195 C 0.3491(7) 0.4546(3) 0.5825(6)
H140 H 0.3252 0.4715 0.6024
H141 H 0.3505 0.4663 0.5513
C196 C 0.4121(8) 0.4475(5) 0.6039(9)
H142 H 0.4096 0.4344 0.6343
H143 H 0.4351 0.4306 0.5835
O14 O 0.4425(8) 0.4853(5) 0.6100(7)
C197 C 0.5062(9) 0.4809(9) 0.6271(11)
H144 H 0.5248 0.5067 0.6306
H145 H 0.5077 0.4676 0.6570
H146 H 0.5281 0.4656 0.6048
O15 O 0.2160(5) 0.4568(3) 0.5952(3)
C198 C 0.2140(8) 0.4390(6) 0.6418(5)
H147 H 0.2323 0.4570 0.6653
H148 H 0.2376 0.4146 0.6428
C199 C 0.1495(8) 0.4306(6) 0.6527(8)
H149 H 0.1480 0.4270 0.6867
H150 H 0.1249 0.4538 0.6444
O16 O 0.1205(9) 0.3964(5) 0.6298(7)
C200 C 0.0545(9) 0.4016(10) 0.6325(12)
H151 H 0.0335 0.3795 0.6177
H152 H 0.0443 0.4031 0.6651
H153 H 0.0421 0.4257 0.6166
O17 O 0.1108(5) 0.4421(3) 0.5382(3)
C201 C 0.1058(7) 0.4843(3) 0.5275(6)
H154 H 0.1008 0.4882 0.4936
H155 H 0.1429 0.4980 0.5388
C202 C 0.0516(7) 0.5008(5) 0.5509(4)
H156 H 0.0455 0.5283 0.5416
H157 H 0.0150 0.4860 0.5410
O18 O 0.0616(6) 0.4983(4) 0.6020(4)
C203 C 0.0049(8) 0.5098(7) 0.6224(8)
H158 H 0.0098 0.5085 0.6563
H159 H -0.0055 0.5365 0.6130
H160 H -0.0275 0.4921 0.6116
O19 O 0.3705(3) 0.43171(17) 0.1466(2)
C204 C 0.3640(5) 0.4737(2) 0.1581(4)
H161 H 0.3273 0.4778 0.1756
H162 H 0.3604 0.4893 0.1294
C205 C 0.4195(7) 0.4856(5) 0.1871(5)
H163 H 0.4564 0.4795 0.1707
H164 H 0.4188 0.5139 0.1934
O20 O 0.4186(7) 0.4635(5) 0.2310(5)
C206 C 0.4732(11) 0.4671(10) 0.2620(10)
H165 H 0.4684 0.4515 0.2899
H166 H 0.5083 0.4577 0.2460
H167 H 0.4793 0.4944 0.2706
O21 O 0.2751(3) 0.44959(18) 0.08141(19)
C207 C 0.2886(4) 0.4377(3) 0.0338(3)
H168 H 0.2787 0.4594 0.0122
H169 H 0.2629 0.4152 0.0244
C208 C 0.3544(4) 0.4265(3) 0.0300(4)
H170 H 0.3655 0.4066 0.0536
H171 H 0.3601 0.4151 -0.0010
O22 O 0.3940(3) 0.4608(2) 0.0368(3)
C209 C 0.4572(4) 0.4504(4) 0.0308(5)
H172 H 0.4826 0.4735 0.0354
H173 H 0.4697 0.4304 0.0535
H174 H 0.4615 0.4402 -0.0006
O23 O 0.1706(3) 0.4055(2) 0.0785(2)
C210 C 0.1416(6) 0.3742(3) 0.0495(3)
H175 H 0.1029 0.3665 0.0625
H176 H 0.1681 0.3511 0.0496
C211 C 0.1304(6) 0.3889(3) 0.0002(4)
H177 H 0.1693 0.3965 -0.0124
H178 H 0.1131 0.3676 -0.0192
O24 O 0.0890(4) 0.4226(3) -0.0024(3)
C212 C 0.1230(7) 0.4594(4) -0.0025(6)
H179 H 0.0947 0.4813 -0.0043
H180 H 0.1486 0.4614 0.0260
H181 H 0.1482 0.4600 -0.0293
loop_
_geom_bond_atom_site_label_1
_geom_bond_atom_site_label_2
_geom_bond_site_symmetry_1
_geom_bond_site_symmetry_2
Pd1 N1 1_555 1_555
Pd2 N2 1_555 1_555
N1 C1 1_555 1_555
C1 H1 1_555 1_555
C2 C1 1_555 1_555
H2 C2 1_555 1_555
C3 C2 1_555 1_555
H3 C3 1_555 1_555
C4 C3 1_555 1_555
C5 N1 1_555 1_555
H4 C5 1_555 1_555
C6 H5 1_555 1_555
C7 C6 1_555 1_555
H6 C7 1_555 1_555
C8 C7 1_555 1_555
H7 C8 1_555 1_555
C9 C8 1_555 1_555
H8 C9 1_555 1_555
C10 C9 1_555 1_555
C11 C10 1_555 1_555
C12 C11 1_555 1_555
C13 C12 1_555 1_555
H9 C13 1_555 1_555
C14 C13 1_555 1_555
H10 C14 1_555 1_555
C15 C14 1_555 1_555
H11 C15 1_555 1_555
C16 C15 1_555 1_555
H12 C16 1_555 1_555
C17 C12 1_555 1_555
C18 C4 1_555 1_555
C19 C6 1_555 1_555
N2 C20 1_555 1_555
C20 H13 1_555 1_555
C21 C20 1_555 1_555
H14 C21 1_555 1_555
C22 C21 1_555 1_555
H15 C22 1_555 1_555
C23 C22 1_555 1_555
C24 N2 1_555 1_555
H16 C24 1_555 1_555
C25 H17 1_555 1_555
C26 C25 1_555 1_555
H18 C26 1_555 1_555
C27 C26 1_555 1_555
H19 C27 1_555 1_555
C28 C27 1_555 1_555
H20 C28 1_555 1_555
C29 C28 1_555 1_555
C30 C29 1_555 1_555
C31 C30 1_555 1_555
C32 C31 1_555 1_555
H21 C32 1_555 1_555
C33 C32 1_555 1_555
H22 C33 1_555 1_555
C34 C33 1_555 1_555
H23 C34 1_555 1_555
C35 C34 1_555 1_555
H24 C35 1_555 1_555
C36 C31 1_555 1_555
C37 C23 1_555 1_555
C38 C25 1_555 1_555
C39 C11 1_555 1_555
C40 C39 1_555 1_555
C41 C40 1_555 1_555
C42 C41 1_555 1_555
C43 C30 1_555 1_555
C44 C39 1_555 1_555
H25 C44 1_555 1_555
N3 Pd1 1_555 1_555
C45 N3 1_555 1_555
H26 C45 1_555 1_555
C46 C45 1_555 1_555
H27 C46 1_555 1_555
C47 C46 1_555 1_555
H28 C47 1_555 1_555
C48 C47 1_555 1_555
C49 N3 1_555 1_555
H29 C49 1_555 1_555
C50 H30 1_555 1_555
C51 C50 1_555 1_555
H31 C51 1_555 1_555
C52 C51 1_555 1_555
H32 C52 1_555 1_555
C53 C52 1_555 1_555
H33 C53 1_555 1_555
C54 C53 1_555 1_555
C55 C54 1_555 1_555
C56 C55 1_555 1_555
C57 C56 1_555 1_555
H34 C57 1_555 1_555
C58 C57 1_555 1_555
H35 C58 1_555 1_555
C59 C58 1_555 1_555
H36 C59 1_555 1_555
C60 C59 1_555 1_555
H37 C60 1_555 1_555
C61 C56 1_555 1_555
C62 C48 1_555 1_555
C63 C50 1_555 1_555
N4 Pd2 1_555 1_555
C64 N4 1_555 1_555
H38 C64 1_555 1_555
C65 C64 1_555 1_555
H39 C65 1_555 1_555
C66 C65 1_555 1_555
H40 C66 1_555 1_555
C67 C66 1_555 1_555
C68 N4 1_555 1_555
H41 C68 1_555 1_555
C69 H42 1_555 1_555
C70 C69 1_555 1_555
H43 C70 1_555 1_555
C71 C70 1_555 1_555
H44 C71 1_555 1_555
C72 C71 1_555 1_555
H45 C72 1_555 1_555
C73 C72 1_555 1_555
C74 C73 1_555 1_555
C75 C74 1_555 1_555
C76 C75 1_555 1_555
H46 C76 1_555 1_555
C77 C76 1_555 1_555
H47 C77 1_555 1_555
C78 C77 1_555 1_555
H48 C78 1_555 1_555
C79 C78 1_555 1_555
H49 C79 1_555 1_555
C80 C75 1_555 1_555
C81 C67 1_555 1_555
C82 C69 1_555 1_555
C83 C55 1_555 1_555
C84 C83 1_555 1_555
C85 C84 1_555 1_555
C86 C85 1_555 1_555
C87 C74 1_555 1_555
C88 C83 1_555 1_555
H50 C88 1_555 1_555
N5 Pd1 1_555 1_555
C89 N5 1_555 1_555
H51 C89 1_555 1_555
C90 C89 1_555 1_555
H52 C90 1_555 1_555
C91 C90 1_555 1_555
H53 C91 1_555 1_555
C92 C91 1_555 1_555
C93 N5 1_555 1_555
H54 C93 1_555 1_555
C94 H55 1_555 1_555
C95 C94 1_555 1_555
H56 C95 1_555 1_555
C96 C95 1_555 1_555
H57 C96 1_555 1_555
C97 C96 1_555 1_555
H58 C97 1_555 1_555
C98 C97 1_555 1_555
C99 C98 1_555 1_555
C100 C99 1_555 1_555
C101 C100 1_555 1_555
H59 C101 1_555 1_555
C102 C101 1_555 1_555
H60 C102 1_555 1_555
C103 C102 1_555 1_555
H61 C103 1_555 1_555
C104 C103 1_555 1_555
H62 C104 1_555 1_555
C105 C100 1_555 1_555
C106 C92 1_555 1_555
C107 C94 1_555 1_555
N6 Pd2 1_555 1_555
C108 N6 1_555 1_555
H63 C108 1_555 1_555
C109 C108 1_555 1_555
H64 C109 1_555 1_555
C110 C109 1_555 1_555
H65 C110 1_555 1_555
C111 C110 1_555 1_555
C112 N6 1_555 1_555
H66 C112 1_555 1_555
C113 H67 1_555 1_555
C114 C113 1_555 1_555
H68 C114 1_555 1_555
C115 C114 1_555 1_555
H69 C115 1_555 1_555
C116 C115 1_555 1_555
H70 C116 1_555 1_555
C117 C116 1_555 1_555
C118 C117 1_555 1_555
C119 C118 1_555 1_555
C120 C119 1_555 1_555
H71 C120 1_555 1_555
C121 C120 1_555 1_555
H72 C121 1_555 1_555
C122 C121 1_555 1_555
H73 C122 1_555 1_555
C123 C122 1_555 1_555
H74 C123 1_555 1_555
C124 C119 1_555 1_555
C125 C111 1_555 1_555
C126 C113 1_555 1_555
C127 C99 1_555 1_555
C128 C127 1_555 1_555
C129 C128 1_555 1_555
C130 C129 1_555 1_555
C131 C118 1_555 1_555
C132 C127 1_555 1_555
H75 C132 1_555 1_555
N7 Pd1 1_555 1_555
C133 N7 1_555 1_555
H76 C133 1_555 1_555
C134 C133 1_555 1_555
H77 C134 1_555 1_555
C135 C134 1_555 1_555
H78 C135 1_555 1_555
C136 C135 1_555 1_555
C137 N7 1_555 1_555
H79 C137 1_555 1_555
C138 H80 1_555 1_555
C139 C138 1_555 1_555
H81 C139 1_555 1_555
C140 C139 1_555 1_555
H82 C140 1_555 1_555
C141 C140 1_555 1_555
H83 C141 1_555 1_555
C142 C141 1_555 1_555
C143 C142 1_555 1_555
C144 C143 1_555 1_555
C145 C144 1_555 1_555
H84 C145 1_555 1_555
C146 C145 1_555 1_555
H85 C146 1_555 1_555
C147 C146 1_555 1_555
H86 C147 1_555 1_555
C148 C147 1_555 1_555
H87 C148 1_555 1_555
C149 C144 1_555 1_555
C150 C136 1_555 1_555
C151 C138 1_555 1_555
N8 Pd2 1_555 1_555
C152 N8 1_555 1_555
H88 C152 1_555 1_555
C153 C152 1_555 1_555
H89 C153 1_555 1_555
C154 C153 1_555 1_555
H90 C154 1_555 1_555
C155 C154 1_555 1_555
C156 N8 1_555 1_555
H91 C156 1_555 1_555
C157 H92 1_555 1_555
C158 C157 1_555 1_555
H93 C158 1_555 1_555
C159 C158 1_555 1_555
H94 C159 1_555 1_555
C160 C159 1_555 1_555
H95 C160 1_555 1_555
C161 C160 1_555 1_555
C162 C161 1_555 1_555
C163 C162 1_555 1_555
C164 C163 1_555 1_555
H96 C164 1_555 1_555
C165 C164 1_555 1_555
H97 C165 1_555 1_555
C166 C165 1_555 1_555
H98 C166 1_555 1_555
C167 C166 1_555 1_555
H99 C167 1_555 1_555
C168 C163 1_555 1_555
C169 C155 1_555 1_555
C170 C157 1_555 1_555
C171 C143 1_555 1_555
C172 C171 1_555 1_555
C173 C172 1_555 1_555
C174 C173 1_555 1_555
C175 C162 1_555 1_555
C176 C171 1_555 1_555
H100 C176 1_555 1_555
O1 C40 1_555 1_555
C177 O1 1_555 1_555
H101 C177 1_555 1_555
H102 C177 1_555 1_555
C178 C177 1_555 1_555
H103 C178 1_555 1_555
H104 C178 1_555 1_555
O2 C178 1_555 1_555
C179 O2 1_555 1_555
H105 C179 1_555 1_555
H106 C179 1_555 1_555
H107 C179 1_555 1_555
O3 C41 1_555 1_555
C180 O3 1_555 1_555
H108 C180 1_555 1_555
H109 C180 1_555 1_555
C181 C180 1_555 1_555
H110 C181 1_555 1_555
H111 C181 1_555 1_555
O4 C181 1_555 1_555
C182 O4 1_555 1_555
H112 C182 1_555 1_555
H113 C182 1_555 1_555
H114 C182 1_555 1_555
O5 C42 1_555 1_555
C183 O5 1_555 1_555
H115 C183 1_555 1_555
H116 C183 1_555 1_555
C184 C183 1_555 1_555
H117 C184 1_555 1_555
H118 C184 1_555 1_555
O6 C184 1_555 1_555
C185 O6 1_555 1_555
H119 C185 1_555 1_555
H120 C185 1_555 1_555
H121 C185 1_555 1_555
O7 C84 1_555 1_555
C186 O7 1_555 1_555
H122 C186 1_555 1_555
H123 C186 1_555 1_555
C187 C186 1_555 1_555
H124 C187 1_555 1_555
H125 C187 1_555 1_555
O8 C187 1_555 1_555
C188 O8 1_555 1_555
H126 C188 1_555 1_555
H127 C188 1_555 1_555
H128 C188 1_555 1_555
O9 C85 1_555 1_555
C189 O9 1_555 1_555
H129 C189 1_555 1_555
H130 C189 1_555 1_555
C190 C189 1_555 1_555
H131 C190 1_555 1_555
H132 C190 1_555 1_555
O10 C190 1_555 1_555
C191 O10 1_555 1_555
H133 C191 1_555 1_555
H134 C191 1_555 1_555
H135 C191 1_555 1_555
O11 C86 1_555 1_555
C192 O11 1_555 1_555
H136 C192 1_555 1_555
H137 C192 1_555 1_555
C193 C192 1_555 1_555
H138 C193 1_555 1_555
H139 C193 1_555 1_555
O12 C193 1_555 1_555
C194 O12 1_555 1_555
O13 C128 1_555 1_555
C195 O13 1_555 1_555
H140 C195 1_555 1_555
H141 C195 1_555 1_555
C196 C195 1_555 1_555
H142 C196 1_555 1_555
H143 C196 1_555 1_555
O14 C196 1_555 1_555
C197 O14 1_555 1_555
H144 C197 1_555 1_555
H145 C197 1_555 1_555
H146 C197 1_555 1_555
O15 C129 1_555 1_555
C198 O15 1_555 1_555
H147 C198 1_555 1_555
H148 C198 1_555 1_555
C199 C198 1_555 1_555
H149 C199 1_555 1_555
H150 C199 1_555 1_555
O16 C199 1_555 1_555
C200 O16 1_555 1_555
H151 C200 1_555 1_555
H152 C200 1_555 1_555
H153 C200 1_555 1_555
O17 C130 1_555 1_555
C201 O17 1_555 1_555
H154 C201 1_555 1_555
H155 C201 1_555 1_555
C202 C201 1_555 1_555
H156 C202 1_555 1_555
H157 C202 1_555 1_555
O18 C202 1_555 1_555
C203 O18 1_555 1_555
H158 C203 1_555 1_555
H159 C203 1_555 1_555
H160 C203 1_555 1_555
O19 C172 1_555 1_555
C204 O19 1_555 1_555
H161 C204 1_555 1_555
H162 C204 1_555 1_555
C205 C204 1_555 1_555
H163 C205 1_555 1_555
H164 C205 1_555 1_555
O20 C205 1_555 1_555
C206 O20 1_555 1_555
H165 C206 1_555 1_555
H166 C206 1_555 1_555
H167 C206 1_555 1_555
O21 C173 1_555 1_555
C207 O21 1_555 1_555
H168 C207 1_555 1_555
H169 C207 1_555 1_555
C208 C207 1_555 1_555
H170 C208 1_555 1_555
H171 C208 1_555 1_555
O22 C208 1_555 1_555
C209 O22 1_555 1_555
H172 C209 1_555 1_555
H173 C209 1_555 1_555
H174 C209 1_555 1_555
O23 C174 1_555 1_555
C210 O23 1_555 1_555
H175 C210 1_555 1_555
H176 C210 1_555 1_555
C211 C210 1_555 1_555
H177 C211 1_555 1_555
H178 C211 1_555 1_555
O24 C211 1_555 1_555
C212 O24 1_555 1_555
H179 C212 1_555 1_555
H180 C212 1_555 1_555
H181 C212 1_555 1_555
S1 S2 1_555 1_555
S2 S3 1_555 1_555
S3 S4 1_555 1_555
S4 S5 1_555 1_555
S5 S6 1_555 1_555
S6 S7 1_555 1_555
S7 S8 1_555 1_555
S8 S1 1_555 1_555
S9 S10 1_555 1_555
S10 S11 1_555 1_555
S11 S12 1_555 1_555
S12 S13 1_555 1_555
S13 S14 1_555 1_555
S14 S15 1_555 1_555
S15 S16 1_555 1_555
S16 S9 1_555 1_555
C4 C5 1_555 1_555
C10 C19 1_555 1_555
C16 C17 1_555 1_555
C17 C18 1_555 1_555
C18 C19 1_555 1_555
C23 C24 1_555 1_555
C29 C38 1_555 1_555
C35 C36 1_555 1_555
C36 C37 1_555 1_555
C37 C38 1_555 1_555
C42 C43 1_555 1_555
C43 C44 1_555 1_555
C48 C49 1_555 1_555
C54 C63 1_555 1_555
C60 C61 1_555 1_555
C61 C62 1_555 1_555
C62 C63 1_555 1_555
C67 C68 1_555 1_555
C73 C82 1_555 1_555
C79 C80 1_555 1_555
C80 C81 1_555 1_555
C81 C82 1_555 1_555
C86 C87 1_555 1_555
C87 C88 1_555 1_555
C92 C93 1_555 1_555
C98 C107 1_555 1_555
C104 C105 1_555 1_555
C105 C106 1_555 1_555
C106 C107 1_555 1_555
C111 C112 1_555 1_555
C117 C126 1_555 1_555
C123 C124 1_555 1_555
C124 C125 1_555 1_555
C125 C126 1_555 1_555
C130 C131 1_555 1_555
C131 C132 1_555 1_555
C136 C137 1_555 1_555
C142 C151 1_555 1_555
C148 C149 1_555 1_555
C149 C150 1_555 1_555
C150 C151 1_555 1_555
C155 C156 1_555 1_555
C161 C170 1_555 1_555
C167 C168 1_555 1_555
C168 C169 1_555 1_555
C169 C170 1_555 1_555
C174 C175 1_555 1_555
C175 C176 1_555 1_555

#END
