# generated using pymatgen
data_H181Pd2C212S16(N4O17)2
_symmetry_space_group_name_H-M   'P 1'
_cell_length_a   21.75930000
_cell_length_b   28.32460000
_cell_length_c   33.68720000
_cell_angle_alpha   90.00000000
_cell_angle_beta   90.00000000
_cell_angle_gamma   92.85600000
_symmetry_Int_Tables_number   1
_chemical_formula_structural   H181Pd2C212S16(N4O17)2
_chemical_formula_sum   'H724 Pd8 C848 S64 N32 O136'
_cell_volume   20736.42353120
_cell_formula_units_Z   4
loop_
 _symmetry_equiv_pos_site_id
 _symmetry_equiv_pos_as_xyz
  1  'x, y, z'
loop_
 _atom_site_type_symbol
 _atom_site_label
 _atom_site_symmetry_multiplicity
 _atom_site_fract_x
 _atom_site_fract_y
 _atom_site_fract_z
 _atom_site_occupancy
  H  H1  1  0.357200  0.708500  0.754000  1
  H  H2  1  0.142800  0.791500  0.254000  1
  H  H3  1  0.642800  0.291500  0.246000  1
  H  H4  1  0.857200  0.208500  0.746000  1
  H  H5  1  0.350100  0.788900  0.763800  1
  H  H6  1  0.149900  0.711100  0.263800  1
  H  H7  1  0.649900  0.211100  0.236200  1
  H  H8  1  0.850100  0.288900  0.736200  1
  H  H9  1  0.427700  0.830400  0.796000  1
  H  H10  1  0.072300  0.669600  0.296000  1
  H  H11  1  0.572300  0.169600  0.204000  1
  H  H12  1  0.927700  0.330400  0.704000  1
  H  H13  1  0.509600  0.709600  0.815300  1
  H  H14  1  0.990400  0.790400  0.315300  1
  H  H15  1  0.490400  0.290400  0.184700  1
  H  H16  1  0.009600  0.209600  0.684700  1
  H  H17  1  0.461100  0.739300  0.881300  1
  H  H18  1  0.038900  0.760700  0.381300  1
  H  H19  1  0.538900  0.260700  0.118700  1
  H  H20  1  0.961100  0.239300  0.618700  1
  H  H21  1  0.475600  0.721300  0.946900  1
  H  H22  1  0.024400  0.778700  0.446900  1
  H  H23  1  0.524400  0.278700  0.053100  1
  H  H24  1  0.975600  0.221300  0.553100  1
  H  H25  1  0.562200  0.751200  0.980000  1
  H  H26  1  0.937800  0.748800  0.480000  1
  H  H27  1  0.437800  0.248800  0.020000  1
  H  H28  1  0.062200  0.251200  0.520000  1
  H  H29  1  0.630300  0.803200  0.949900  1
  H  H30  1  0.869700  0.696800  0.449900  1
  H  H31  1  0.369700  0.196800  0.050100  1
  H  H32  1  0.130300  0.303200  0.550100  1
  H  H33  1  0.690300  0.903300  0.832400  1
  H  H34  1  0.809700  0.596700  0.332400  1
  H  H35  1  0.309700  0.096700  0.167600  1
  H  H36  1  0.190300  0.403300  0.667600  1
  H  H37  1  0.670400  0.927300  0.770400  1
  H  H38  1  0.829600  0.572700  0.270400  1
  H  H39  1  0.329600  0.072700  0.229600  1
  H  H40  1  0.170400  0.427300  0.729600  1
  H  H41  1  0.590400  0.890100  0.733100  1
  H  H42  1  0.909600  0.609900  0.233100  1
  H  H43  1  0.409600  0.109900  0.266900  1
  H  H44  1  0.090400  0.390100  0.766900  1
  H  H45  1  0.529200  0.832300  0.759500  1
  H  H46  1  0.970800  0.667700  0.259500  1
  H  H47  1  0.470800  0.167700  0.240500  1
  H  H48  1  0.029200  0.332300  0.740500  1
  H  H49  1  0.151300  0.681900  0.840700  1
  H  H50  1  0.348700  0.818100  0.340700  1
  H  H51  1  0.848700  0.318100  0.159300  1
  H  H52  1  0.651300  0.181900  0.659300  1
  H  H53  1  0.139400  0.700800  0.904100  1
  H  H54  1  0.360600  0.799200  0.404100  1
  H  H55  1  0.860600  0.299200  0.095900  1
  H  H56  1  0.639400  0.200800  0.595900  1
  H  H57  1  0.053600  0.738500  0.925300  1
  H  H58  1  0.446400  0.761500  0.425300  1
  H  H59  1  0.946400  0.261500  0.074700  1
  H  H60  1  0.553600  0.238500  0.574700  1
  H  H61  1  0.993500  0.734900  0.813800  1
  H  H62  1  0.506500  0.765100  0.313800  1
  H  H63  1  0.006500  0.265100  0.186200  1
  H  H64  1  0.493500  0.234900  0.686200  1
  H  H65  1  0.045800  0.825800  0.856700  1
  H  H66  1  0.454200  0.674200  0.356700  1
  H  H67  1  0.954200  0.174200  0.143300  1
  H  H68  1  0.545800  0.325800  0.643300  1
  H  H69  1  0.044400  0.906100  0.849500  1
  H  H70  1  0.455600  0.593900  0.349500  1
  H  H71  1  0.955600  0.093900  0.150500  1
  H  H72  1  0.544400  0.406100  0.650500  1
  H  H73  1  0.957100  0.945900  0.865300  1
  H  H74  1  0.542900  0.554100  0.365300  1
  H  H75  1  0.042900  0.054100  0.134700  1
  H  H76  1  0.457100  0.445900  0.634700  1
  H  H77  1  0.871800  0.906800  0.889100  1
  H  H78  1  0.628200  0.593200  0.389100  1
  H  H79  1  0.128200  0.093200  0.110900  1
  H  H80  1  0.371800  0.406800  0.610900  1
  H  H81  1  0.758900  0.751700  0.919300  1
  H  H82  1  0.741100  0.748300  0.419300  1
  H  H83  1  0.241100  0.248300  0.080700  1
  H  H84  1  0.258900  0.251700  0.580700  1
  H  H85  1  0.757600  0.672400  0.924600  1
  H  H86  1  0.742400  0.827600  0.424600  1
  H  H87  1  0.242400  0.327600  0.075400  1
  H  H88  1  0.257600  0.172400  0.575400  1
  H  H89  1  0.850300  0.632200  0.914300  1
  H  H90  1  0.649700  0.867800  0.414300  1
  H  H91  1  0.149700  0.367800  0.085700  1
  H  H92  1  0.350300  0.132200  0.585700  1
  H  H93  1  0.937100  0.672400  0.893000  1
  H  H94  1  0.562900  0.827600  0.393000  1
  H  H95  1  0.062900  0.327600  0.107000  1
  H  H96  1  0.437100  0.172400  0.607000  1
  H  H97  1  0.741000  0.817600  0.863900  1
  H  H98  1  0.759000  0.682400  0.363900  1
  H  H99  1  0.259000  0.182400  0.136100  1
  H  H100  1  0.241000  0.317600  0.636100  1
  H  H101  1  0.372800  0.649000  0.849700  1
  H  H102  1  0.127200  0.851000  0.349700  1
  H  H103  1  0.627200  0.351000  0.150300  1
  H  H104  1  0.872800  0.149000  0.650300  1
  H  H105  1  0.381600  0.634900  0.915500  1
  H  H106  1  0.118400  0.865100  0.415500  1
  H  H107  1  0.618400  0.365100  0.084500  1
  H  H108  1  0.881600  0.134900  0.584500  1
  H  H109  1  0.462300  0.593400  0.939100  1
  H  H110  1  0.037700  0.906600  0.439100  1
  H  H111  1  0.537700  0.406600  0.060900  1
  H  H112  1  0.962300  0.093400  0.560900  1
  H  H113  1  0.526200  0.586400  0.827300  1
  H  H114  1  0.973800  0.913600  0.327300  1
  H  H115  1  0.473800  0.413600  0.172700  1
  H  H116  1  0.026200  0.086400  0.672700  1
  H  H117  1  0.488300  0.502300  0.851300  1
  H  H118  1  0.011700  0.997700  0.351300  1
  H  H119  1  0.511700  0.497700  0.148700  1
  H  H120  1  0.988300  0.002300  0.648700  1
  H  H121  1  0.506900  0.430200  0.826100  1
  H  H122  1  0.993100  0.069800  0.326100  1
  H  H123  1  0.493100  0.569800  0.173900  1
  H  H124  1  0.006900  0.930200  0.673900  1
  H  H125  1  0.597000  0.394100  0.840000  1
  H  H126  1  0.903000  0.105900  0.340000  1
  H  H127  1  0.403000  0.605900  0.160000  1
  H  H128  1  0.097000  0.894100  0.660000  1
  H  H129  1  0.670900  0.431600  0.877300  1
  H  H130  1  0.829100  0.068400  0.377300  1
  H  H131  1  0.329100  0.568400  0.122700  1
  H  H132  1  0.170900  0.931600  0.622700  1
  H  H133  1  0.730300  0.561200  0.973300  1
  H  H134  1  0.769700  0.938800  0.473300  1
  H  H135  1  0.269700  0.438800  0.026700  1
  H  H136  1  0.230300  0.061200  0.526700  1
  H  H137  1  0.714500  0.631900  0.998800  1
  H  H138  1  0.785500  0.868100  0.498800  1
  H  H139  1  0.285500  0.368100  0.001200  1
  H  H140  1  0.214500  0.131900  0.501200  1
  H  H141  1  0.629000  0.674900  0.980300  1
  H  H142  1  0.871000  0.825100  0.480300  1
  H  H143  1  0.371000  0.325100  0.019700  1
  H  H144  1  0.129000  0.174900  0.519700  1
  H  H145  1  0.561600  0.642800  0.932700  1
  H  H146  1  0.938400  0.857200  0.432700  1
  H  H147  1  0.438400  0.357200  0.067300  1
  H  H148  1  0.061600  0.142800  0.567300  1
  H  H149  1  0.158700  0.608200  0.745900  1
  H  H150  1  0.341300  0.891800  0.245900  1
  H  H151  1  0.841300  0.391800  0.254100  1
  H  H152  1  0.658700  0.108200  0.754100  1
  H  H153  1  0.162500  0.530200  0.761400  1
  H  H154  1  0.337500  0.969800  0.261400  1
  H  H155  1  0.837500  0.469800  0.238600  1
  H  H156  1  0.662500  0.030200  0.738600  1
  H  H157  1  0.088200  0.494300  0.802900  1
  H  H158  1  0.411800  0.005700  0.302900  1
  H  H159  1  0.911800  0.505700  0.197100  1
  H  H160  1  0.588200  0.994300  0.697100  1
  H  H161  1  0.007000  0.618000  0.806700  1
  H  H162  1  0.493000  0.882000  0.306700  1
  H  H163  1  0.993000  0.382000  0.193300  1
  H  H164  1  0.507000  0.118000  0.693300  1
  H  H165  1  0.059800  0.596600  0.876100  1
  H  H166  1  0.440200  0.903400  0.376100  1
  H  H167  1  0.940200  0.403400  0.123900  1
  H  H168  1  0.559800  0.096600  0.623900  1
  H  H169  1  0.045500  0.627700  0.938300  1
  H  H170  1  0.454500  0.872300  0.438300  1
  H  H171  1  0.954500  0.372300  0.061700  1
  H  H172  1  0.545500  0.127700  0.561700  1
  H  H173  1  0.961300  0.599600  0.977100  1
  H  H174  1  0.538700  0.900400  0.477100  1
  H  H175  1  0.038700  0.400400  0.022900  1
  H  H176  1  0.461300  0.099600  0.522900  1
  H  H177  1  0.893800  0.541700  0.954600  1
  H  H178  1  0.606200  0.958300  0.454600  1
  H  H179  1  0.106200  0.458300  0.045400  1
  H  H180  1  0.393800  0.041700  0.545400  1
  H  H181  1  0.825500  0.430600  0.848300  1
  H  H182  1  0.674500  0.069400  0.348300  1
  H  H183  1  0.174500  0.569400  0.151700  1
  H  H184  1  0.325500  0.930600  0.651700  1
  H  H185  1  0.838700  0.398900  0.786600  1
  H  H186  1  0.661300  0.101100  0.286600  1
  H  H187  1  0.161300  0.601100  0.213400  1
  H  H188  1  0.338700  0.898900  0.713400  1
  H  H189  1  0.913400  0.431300  0.744800  1
  H  H190  1  0.586600  0.068700  0.244800  1
  H  H191  1  0.086600  0.568700  0.255200  1
  H  H192  1  0.413400  0.931300  0.755200  1
  H  H193  1  0.979200  0.490100  0.764400  1
  H  H194  1  0.520800  0.009900  0.264400  1
  H  H195  1  0.020800  0.509900  0.235600  1
  H  H196  1  0.479200  0.990100  0.735600  1
  H  H197  1  0.777200  0.530500  0.888300  1
  H  H198  1  0.722800  0.969500  0.388300  1
  H  H199  1  0.222800  0.469500  0.111700  1
  H  H200  1  0.277200  0.030500  0.611700  1
  H  H201  1  0.384500  0.533300  0.787200  1
  H  H202  1  0.115500  0.966700  0.287200  1
  H  H203  1  0.615500  0.466700  0.212800  1
  H  H204  1  0.884500  0.033300  0.712800  1
  H  H205  1  0.396200  0.458600  0.765300  1
  H  H206  1  0.103800  0.041400  0.265300  1
  H  H207  1  0.603800  0.541400  0.234700  1
  H  H208  1  0.896200  0.958600  0.734700  1
  H  H209  1  0.475700  0.443100  0.721700  1
  H  H210  1  0.024300  0.056900  0.221700  1
  H  H211  1  0.524300  0.556900  0.278300  1
  H  H212  1  0.975700  0.943100  0.778300  1
  H  H213  1  0.528600  0.580900  0.727500  1
  H  H214  1  0.971400  0.919100  0.227500  1
  H  H215  1  0.471400  0.419100  0.272500  1
  H  H216  1  0.028600  0.080900  0.772500  1
  H  H217  1  0.476700  0.540800  0.653800  1
  H  H218  1  0.023300  0.959200  0.153800  1
  H  H219  1  0.523300  0.459200  0.346200  1
  H  H220  1  0.976700  0.040800  0.846200  1
  H  H221  1  0.473100  0.565000  0.588900  1
  H  H222  1  0.026900  0.935000  0.088900  1
  H  H223  1  0.526900  0.435000  0.411100  1
  H  H224  1  0.973100  0.065000  0.911100  1
  H  H225  1  0.557900  0.555600  0.547300  1
  H  H226  1  0.942100  0.944400  0.047300  1
  H  H227  1  0.442100  0.444400  0.452700  1
  H  H228  1  0.057900  0.055600  0.952700  1
  H  H229  1  0.644800  0.524900  0.571100  1
  H  H230  1  0.855200  0.975100  0.071100  1
  H  H231  1  0.355200  0.475100  0.428900  1
  H  H232  1  0.144800  0.024900  0.928900  1
  H  H233  1  0.758000  0.455300  0.682600  1
  H  H234  1  0.742000  0.044700  0.182600  1
  H  H235  1  0.242000  0.544700  0.317400  1
  H  H236  1  0.258000  0.955300  0.817400  1
  H  H237  1  0.763000  0.433800  0.749500  1
  H  H238  1  0.737000  0.066200  0.249500  1
  H  H239  1  0.237000  0.566200  0.250500  1
  H  H240  1  0.263000  0.933800  0.750500  1
  H  H241  1  0.682400  0.453700  0.791800  1
  H  H242  1  0.817600  0.046300  0.291800  1
  H  H243  1  0.317600  0.546300  0.208200  1
  H  H244  1  0.182400  0.953700  0.708200  1
  H  H245  1  0.593400  0.478100  0.767200  1
  H  H246  1  0.906600  0.021900  0.267200  1
  H  H247  1  0.406600  0.521900  0.232800  1
  H  H248  1  0.093400  0.978100  0.732800  1
  H  H249  1  0.150600  0.724700  0.689500  1
  H  H250  1  0.349400  0.775300  0.189500  1
  H  H251  1  0.849400  0.275300  0.310500  1
  H  H252  1  0.650600  0.224700  0.810500  1
  H  H253  1  0.152900  0.709700  0.623800  1
  H  H254  1  0.347100  0.790300  0.123800  1
  H  H255  1  0.847100  0.290300  0.376200  1
  H  H256  1  0.652900  0.209700  0.876200  1
  H  H257  1  0.080500  0.657700  0.595600  1
  H  H258  1  0.419500  0.842300  0.095600  1
  H  H259  1  0.919500  0.342300  0.404400  1
  H  H260  1  0.580500  0.157700  0.904400  1
  H  H261  1  0.012800  0.631900  0.704900  1
  H  H262  1  0.487200  0.868100  0.204900  1
  H  H263  1  0.987200  0.368100  0.295100  1
  H  H264  1  0.512800  0.131900  0.795100  1
  H  H265  1  0.069300  0.556800  0.676900  1
  H  H266  1  0.430700  0.943200  0.176900  1
  H  H267  1  0.930700  0.443200  0.323100  1
  H  H268  1  0.569300  0.056800  0.823100  1
  H  H269  1  0.063200  0.482500  0.699500  1
  H  H270  1  0.436800  0.017500  0.199500  1
  H  H271  1  0.936800  0.517500  0.300500  1
  H  H272  1  0.563200  0.982500  0.800500  1
  H  H273  1  0.984000  0.431900  0.684000  1
  H  H274  1  0.516000  0.068100  0.184000  1
  H  H275  1  0.016000  0.568100  0.316000  1
  H  H276  1  0.484000  0.931900  0.816000  1
  H  H277  1  0.901000  0.454600  0.644600  1
  H  H278  1  0.599000  0.045400  0.144600  1
  H  H279  1  0.099000  0.545400  0.355400  1
  H  H280  1  0.401000  0.954600  0.855400  1
  H  H281  1  0.816600  0.580800  0.559800  1
  H  H282  1  0.683400  0.919200  0.059800  1
  H  H283  1  0.183400  0.419200  0.440200  1
  H  H284  1  0.316600  0.080800  0.940200  1
  H  H285  1  0.822100  0.655200  0.534800  1
  H  H286  1  0.677900  0.844800  0.034800  1
  H  H287  1  0.177900  0.344800  0.465200  1
  H  H288  1  0.322100  0.155200  0.965200  1
  H  H289  1  0.896900  0.711400  0.560100  1
  H  H290  1  0.603100  0.788600  0.060100  1
  H  H291  1  0.103100  0.288600  0.439900  1
  H  H292  1  0.396900  0.211400  0.939900  1
  H  H293  1  0.968700  0.688400  0.604600  1
  H  H294  1  0.531300  0.811600  0.104600  1
  H  H295  1  0.031300  0.311600  0.395400  1
  H  H296  1  0.468700  0.188400  0.895400  1
  H  H297  1  0.777000  0.539800  0.640600  1
  H  H298  1  0.723000  0.960200  0.140600  1
  H  H299  1  0.223000  0.460200  0.359400  1
  H  H300  1  0.277000  0.039800  0.859400  1
  H  H301  1  0.369500  0.602900  0.699100  1
  H  H302  1  0.130500  0.897100  0.199100  1
  H  H303  1  0.630500  0.397100  0.300900  1
  H  H304  1  0.869500  0.102900  0.800900  1
  H  H305  1  0.374800  0.616900  0.632200  1
  H  H306  1  0.125200  0.883100  0.132200  1
  H  H307  1  0.625200  0.383100  0.367800  1
  H  H308  1  0.874800  0.116900  0.867800  1
  H  H309  1  0.448000  0.671500  0.607200  1
  H  H310  1  0.052000  0.828500  0.107200  1
  H  H311  1  0.552000  0.328500  0.392800  1
  H  H312  1  0.948000  0.171500  0.892800  1
  H  H313  1  0.509500  0.691900  0.717200  1
  H  H314  1  0.990500  0.808100  0.217200  1
  H  H315  1  0.490500  0.308100  0.282800  1
  H  H316  1  0.009500  0.191900  0.782800  1
  H  H317  1  0.439300  0.765500  0.672100  1
  H  H318  1  0.060700  0.734500  0.172100  1
  H  H319  1  0.560700  0.234500  0.327900  1
  H  H320  1  0.939300  0.265500  0.827900  1
  H  H321  1  0.425600  0.845300  0.681300  1
  H  H322  1  0.074400  0.654700  0.181300  1
  H  H323  1  0.574400  0.154700  0.318700  1
  H  H324  1  0.925600  0.345300  0.818700  1
  H  H325  1  0.507300  0.899800  0.667800  1
  H  H326  1  0.992700  0.600200  0.167800  1
  H  H327  1  0.492700  0.100200  0.332200  1
  H  H328  1  0.007300  0.399800  0.832200  1
  H  H329  1  0.599100  0.876300  0.644400  1
  H  H330  1  0.900900  0.623700  0.144400  1
  H  H331  1  0.400900  0.123700  0.355600  1
  H  H332  1  0.099100  0.376300  0.855600  1
  H  H333  1  0.736300  0.744000  0.610500  1
  H  H334  1  0.763700  0.756000  0.110500  1
  H  H335  1  0.263700  0.256000  0.389500  1
  H  H336  1  0.236300  0.244000  0.889500  1
  H  H337  1  0.748300  0.665900  0.604700  1
  H  H338  1  0.751700  0.834100  0.104700  1
  H  H339  1  0.251700  0.334100  0.395300  1
  H  H340  1  0.248300  0.165900  0.895300  1
  H  H341  1  0.668500  0.611300  0.619000  1
  H  H342  1  0.831500  0.888700  0.119000  1
  H  H343  1  0.331500  0.388700  0.381000  1
  H  H344  1  0.168500  0.111300  0.881000  1
  H  H345  1  0.574500  0.635000  0.636200  1
  H  H346  1  0.925500  0.865000  0.136200  1
  H  H347  1  0.425500  0.365000  0.363800  1
  H  H348  1  0.074500  0.135000  0.863800  1
  H  H349  1  0.144700  0.785300  0.782500  1
  H  H350  1  0.355300  0.714700  0.282500  1
  H  H351  1  0.855300  0.214700  0.217500  1
  H  H352  1  0.644700  0.285300  0.717500  1
  H  H353  1  0.131100  0.863700  0.772900  1
  H  H354  1  0.368900  0.636300  0.272900  1
  H  H355  1  0.868900  0.136300  0.227100  1
  H  H356  1  0.631100  0.363700  0.727100  1
  H  H357  1  0.049400  0.886600  0.735800  1
  H  H358  1  0.450600  0.613400  0.235800  1
  H  H359  1  0.950600  0.113400  0.264200  1
  H  H360  1  0.549400  0.386600  0.764200  1
  H  H361  1  0.000100  0.750000  0.717300  1
  H  H362  1  0.499900  0.750000  0.217300  1
  H  H363  1  0.999900  0.250000  0.282700  1
  H  H364  1  0.500100  0.250000  0.782700  1
  H  H365  1  0.043400  0.802200  0.651000  1
  H  H366  1  0.456600  0.697800  0.151000  1
  H  H367  1  0.956600  0.197800  0.349000  1
  H  H368  1  0.543400  0.302200  0.849000  1
  H  H369  1  0.034800  0.784600  0.584900  1
  H  H370  1  0.465200  0.715400  0.084900  1
  H  H371  1  0.965200  0.215400  0.415100  1
  H  H372  1  0.534800  0.284600  0.915100  1
  H  H373  1  0.945100  0.799400  0.549700  1
  H  H374  1  0.554900  0.700600  0.049700  1
  H  H375  1  0.054900  0.200600  0.450300  1
  H  H376  1  0.445100  0.299400  0.950300  1
  H  H377  1  0.861600  0.828000  0.581700  1
  H  H378  1  0.638400  0.672000  0.081700  1
  H  H379  1  0.138400  0.172000  0.418300  1
  H  H380  1  0.361600  0.328000  0.918300  1
  H  H381  1  0.768800  0.886200  0.705700  1
  H  H382  1  0.731200  0.613800  0.205700  1
  H  H383  1  0.231200  0.113800  0.294300  1
  H  H384  1  0.268800  0.386200  0.794300  1
  H  H385  1  0.771800  0.894600  0.773600  1
  H  H386  1  0.728200  0.605400  0.273600  1
  H  H387  1  0.228200  0.105400  0.226400  1
  H  H388  1  0.271800  0.394600  0.726400  1
  H  H389  1  0.859900  0.874700  0.808800  1
  H  H390  1  0.640100  0.625300  0.308800  1
  H  H391  1  0.140100  0.125300  0.191200  1
  H  H392  1  0.359900  0.374700  0.691200  1
  H  H393  1  0.941600  0.846700  0.777000  1
  H  H394  1  0.558400  0.653300  0.277000  1
  H  H395  1  0.058400  0.153300  0.223000  1
  H  H396  1  0.441600  0.346700  0.723000  1
  H  H397  1  0.743500  0.805100  0.665800  1
  H  H398  1  0.756500  0.694900  0.165800  1
  H  H399  1  0.256500  0.194900  0.334200  1
  H  H400  1  0.243500  0.305100  0.834200  1
  H  H401  1  0.564100  0.944400  0.930100  1
  H  H402  1  0.935900  0.555600  0.430100  1
  H  H403  1  0.435900  0.055600  0.069900  1
  H  H404  1  0.064100  0.444400  0.569900  1
  H  H405  1  0.584900  0.909400  0.896800  1
  H  H406  1  0.915100  0.590600  0.396800  1
  H  H407  1  0.415100  0.090600  0.103200  1
  H  H408  1  0.084900  0.409400  0.603200  1
  H  H409  1  0.680700  0.960400  0.895500  1
  H  H410  1  0.819300  0.539600  0.395500  1
  H  H411  1  0.319300  0.039600  0.104500  1
  H  H412  1  0.180700  0.460400  0.604500  1
  H  H413  1  0.622800  0.979700  0.873800  1
  H  H414  1  0.877200  0.520300  0.373800  1
  H  H415  1  0.377200  0.020300  0.126200  1
  H  H416  1  0.122800  0.479700  0.626200  1
  H  H417  1  0.670400  0.074500  0.932600  1
  H  H418  1  0.829600  0.425500  0.432600  1
  H  H419  1  0.329600  0.925500  0.067400  1
  H  H420  1  0.170400  0.574500  0.567400  1
  H  H421  1  0.713900  0.042000  0.909000  1
  H  H422  1  0.786100  0.458000  0.409000  1
  H  H423  1  0.286100  0.958000  0.091000  1
  H  H424  1  0.213900  0.542000  0.591000  1
  H  H425  1  0.654400  0.059700  0.888800  1
  H  H426  1  0.845600  0.440300  0.388800  1
  H  H427  1  0.345600  0.940300  0.111200  1
  H  H428  1  0.154400  0.559700  0.611200  1
  H  H429  1  0.741800  0.981000  0.011900  1
  H  H430  1  0.758200  0.519000  0.511900  1
  H  H431  1  0.258200  0.019000  0.988100  1
  H  H432  1  0.241800  0.481000  0.488100  1
  H  H433  1  0.709200  0.975700  0.970500  1
  H  H434  1  0.790800  0.524300  0.470500  1
  H  H435  1  0.290800  0.024300  0.029500  1
  H  H436  1  0.209200  0.475700  0.529500  1
  H  H437  1  0.806800  0.968300  0.941100  1
  H  H438  1  0.693200  0.531700  0.441100  1
  H  H439  1  0.193200  0.031700  0.058900  1
  H  H440  1  0.306800  0.468300  0.558900  1
  H  H441  1  0.798500  0.018200  0.959900  1
  H  H442  1  0.701500  0.481800  0.459900  1
  H  H443  1  0.201500  0.981800  0.040100  1
  H  H444  1  0.298500  0.518200  0.540100  1
  H  H445  1  0.945200  0.989700  0.987700  1
  H  H446  1  0.554800  0.510300  0.487700  1
  H  H447  1  0.054800  0.010300  0.012300  1
  H  H448  1  0.445200  0.489700  0.512300  1
  H  H449  1  0.914600  0.975500  0.947000  1
  H  H450  1  0.585400  0.524500  0.447000  1
  H  H451  1  0.085400  0.024500  0.053000  1
  H  H452  1  0.414600  0.475500  0.553000  1
  H  H453  1  0.908900  0.026800  0.963700  1
  H  H454  1  0.591100  0.473200  0.463700  1
  H  H455  1  0.091100  0.973200  0.036300  1
  H  H456  1  0.408900  0.526800  0.536300  1
  H  H457  1  0.813200  0.873200  0.021400  1
  H  H458  1  0.686800  0.626800  0.521400  1
  H  H459  1  0.186800  0.126800  0.978600  1
  H  H460  1  0.313200  0.373200  0.478600  1
  H  H461  1  0.880500  0.856000  0.020300  1
  H  H462  1  0.619500  0.644000  0.520300  1
  H  H463  1  0.119500  0.144000  0.979700  1
  H  H464  1  0.380500  0.356000  0.479700  1
  H  H465  1  0.838300  0.783700  0.992900  1
  H  H466  1  0.661700  0.716300  0.492900  1
  H  H467  1  0.161700  0.216300  0.007100  1
  H  H468  1  0.338300  0.283700  0.507100  1
  H  H469  1  0.825400  0.792000  0.037900  1
  H  H470  1  0.674600  0.708000  0.537900  1
  H  H471  1  0.174600  0.208000  0.962100  1
  H  H472  1  0.325400  0.292000  0.462100  1
  H  H473  1  0.690700  0.740200  0.011400  1
  H  H474  1  0.809300  0.759800  0.511400  1
  H  H475  1  0.309300  0.259800  0.988600  1
  H  H476  1  0.190700  0.240200  0.488600  1
  H  H477  1  0.756800  0.725100  0.000200  1
  H  H478  1  0.743200  0.774900  0.500200  1
  H  H479  1  0.243200  0.274900  0.999800  1
  H  H480  1  0.256800  0.225100  0.499800  1
  H  H481  1  0.743100  0.742200  0.043400  1
  H  H482  1  0.756900  0.757800  0.543400  1
  H  H483  1  0.256900  0.257800  0.956600  1
  H  H484  1  0.243100  0.242200  0.456600  1
  H  H485  1  0.661800  0.377800  0.001300  1
  H  H486  1  0.838200  0.122200  0.501300  1
  H  H487  1  0.338200  0.622200  0.998700  1
  H  H488  1  0.161800  0.877800  0.498700  1
  H  H489  1  0.682700  0.370600  0.957100  1
  H  H490  1  0.817300  0.129400  0.457100  1
  H  H491  1  0.317300  0.629400  0.042900  1
  H  H492  1  0.182700  0.870600  0.542900  1
  H  H493  1  0.587300  0.399300  0.936100  1
  H  H494  1  0.912700  0.100700  0.436100  1
  H  H495  1  0.412700  0.600700  0.063900  1
  H  H496  1  0.087300  0.899300  0.563900  1
  H  H497  1  0.579500  0.351100  0.959100  1
  H  H498  1  0.920500  0.148900  0.459100  1
  H  H499  1  0.420500  0.648900  0.040900  1
  H  H500  1  0.079500  0.851100  0.540900  1
  H  H501  1  0.476800  0.440800  0.996500  1
  H  H502  1  0.023200  0.059200  0.496500  1
  H  H503  1  0.523200  0.559200  0.003500  1
  H  H504  1  0.976800  0.940800  0.503500  1
  H  H505  1  0.511800  0.452100  0.956700  1
  H  H506  1  0.988200  0.047900  0.456700  1
  H  H507  1  0.488200  0.547900  0.043300  1
  H  H508  1  0.011800  0.952100  0.543300  1
  H  H509  1  0.473600  0.404100  0.961700  1
  H  H510  1  0.026400  0.095900  0.461700  1
  H  H511  1  0.526400  0.595900  0.038300  1
  H  H512  1  0.973600  0.904100  0.538300  1
  H  H513  1  0.834400  0.442300  0.020300  1
  H  H514  1  0.665600  0.057700  0.520300  1
  H  H515  1  0.165600  0.557700  0.979700  1
  H  H516  1  0.334400  0.942300  0.479700  1
  H  H517  1  0.864400  0.392900  0.019800  1
  H  H518  1  0.635600  0.107100  0.519800  1
  H  H519  1  0.135600  0.607100  0.980200  1
  H  H520  1  0.364400  0.892900  0.480200  1
  H  H521  1  0.752600  0.409900  0.056900  1
  H  H522  1  0.747400  0.090100  0.556900  1
  H  H523  1  0.247400  0.590100  0.943100  1
  H  H524  1  0.252600  0.909900  0.443100  1
  H  H525  1  0.781900  0.360800  0.056100  1
  H  H526  1  0.718100  0.139200  0.556100  1
  H  H527  1  0.218100  0.639200  0.943900  1
  H  H528  1  0.281900  0.860800  0.443900  1
  H  H529  1  0.808300  0.415300  0.152700  1
  H  H530  1  0.691700  0.084700  0.652700  1
  H  H531  1  0.191700  0.584700  0.847300  1
  H  H532  1  0.308300  0.915300  0.347300  1
  H  H533  1  0.754600  0.433100  0.126500  1
  H  H534  1  0.745400  0.066900  0.626500  1
  H  H535  1  0.245400  0.566900  0.873500  1
  H  H536  1  0.254600  0.933100  0.373500  1
  H  H537  1  0.759800  0.378900  0.134300  1
  H  H538  1  0.740200  0.121100  0.634300  1
  H  H539  1  0.240200  0.621100  0.865700  1
  H  H540  1  0.259800  0.878900  0.365700  1
  H  H541  1  0.897500  0.383400  0.894500  1
  H  H542  1  0.602500  0.116600  0.394500  1
  H  H543  1  0.102500  0.616600  0.105500  1
  H  H544  1  0.397500  0.883400  0.605500  1
  H  H545  1  0.854100  0.361300  0.927500  1
  H  H546  1  0.645900  0.138700  0.427500  1
  H  H547  1  0.145900  0.638700  0.072500  1
  H  H548  1  0.354100  0.861300  0.572500  1
  H  H549  1  0.947200  0.323000  0.921800  1
  H  H550  1  0.552800  0.177000  0.421800  1
  H  H551  1  0.052800  0.677000  0.078200  1
  H  H552  1  0.447200  0.823000  0.578200  1
  H  H553  1  0.982400  0.369900  0.935400  1
  H  H554  1  0.517600  0.130100  0.435400  1
  H  H555  1  0.017600  0.630100  0.064600  1
  H  H556  1  0.482400  0.869900  0.564600  1
  H  H557  1  0.674800  0.397600  0.528500  1
  H  H558  1  0.825200  0.102400  0.028500  1
  H  H559  1  0.325200  0.602400  0.471500  1
  H  H560  1  0.174800  0.897600  0.971500  1
  H  H561  1  0.649500  0.448700  0.533700  1
  H  H562  1  0.850500  0.051300  0.033700  1
  H  H563  1  0.350500  0.551300  0.466300  1
  H  H564  1  0.149500  0.948700  0.966300  1
  H  H565  1  0.590400  0.365700  0.565600  1
  H  H566  1  0.909600  0.134300  0.065600  1
  H  H567  1  0.409600  0.634300  0.434400  1
  H  H568  1  0.090400  0.865700  0.934400  1
  H  H569  1  0.564900  0.416500  0.569400  1
  H  H570  1  0.935100  0.083500  0.069400  1
  H  H571  1  0.435100  0.583500  0.430600  1
  H  H572  1  0.064900  0.916500  0.930600  1
  H  H573  1  0.475200  0.369400  0.493300  1
  H  H574  1  0.024800  0.130600  0.993300  1
  H  H575  1  0.524800  0.630600  0.506700  1
  H  H576  1  0.975200  0.869400  0.006700  1
  H  H577  1  0.492300  0.343000  0.532400  1
  H  H578  1  0.007700  0.157000  0.032400  1
  H  H579  1  0.507700  0.657000  0.467600  1
  H  H580  1  0.992300  0.843000  0.967600  1
  H  H581  1  0.471900  0.395200  0.534400  1
  H  H582  1  0.028100  0.104800  0.034400  1
  H  H583  1  0.528100  0.604800  0.465600  1
  H  H584  1  0.971900  0.895200  0.965600  1
  H  H585  1  0.767700  0.334700  0.543000  1
  H  H586  1  0.732300  0.165300  0.043000  1
  H  H587  1  0.232300  0.665300  0.457000  1
  H  H588  1  0.267700  0.834700  0.957000  1
  H  H589  1  0.762400  0.357200  0.585400  1
  H  H590  1  0.737600  0.142800  0.085400  1
  H  H591  1  0.237600  0.642800  0.414600  1
  H  H592  1  0.262400  0.857200  0.914600  1
  H  H593  1  0.852000  0.313300  0.573000  1
  H  H594  1  0.648000  0.186700  0.073000  1
  H  H595  1  0.148000  0.686700  0.427000  1
  H  H596  1  0.352000  0.813300  0.927000  1
  H  H597  1  0.875100  0.355600  0.546200  1
  H  H598  1  0.624900  0.144400  0.046200  1
  H  H599  1  0.124900  0.644400  0.453800  1
  H  H600  1  0.375100  0.855600  0.953800  1
  H  H601  1  0.966500  0.382300  0.620500  1
  H  H602  1  0.533500  0.117700  0.120500  1
  H  H603  1  0.033500  0.617700  0.379500  1
  H  H604  1  0.466500  0.882300  0.879500  1
  H  H605  1  0.955700  0.334900  0.596900  1
  H  H606  1  0.544300  0.165100  0.096900  1
  H  H607  1  0.044300  0.665100  0.403100  1
  H  H608  1  0.455700  0.834900  0.903100  1
  H  H609  1  0.957900  0.383400  0.574300  1
  H  H610  1  0.542100  0.116600  0.074300  1
  H  H611  1  0.042100  0.616600  0.425700  1
  H  H612  1  0.457900  0.883400  0.925700  1
  H  H613  1  0.899200  0.506400  0.511800  1
  H  H614  1  0.600800  0.993600  0.011800  1
  H  H615  1  0.100800  0.493600  0.488200  1
  H  H616  1  0.399200  0.006400  0.988200  1
  H  H617  1  0.857100  0.461200  0.502000  1
  H  H618  1  0.642900  0.038800  0.002000  1
  H  H619  1  0.142900  0.538800  0.498000  1
  H  H620  1  0.357100  0.961200  0.998000  1
  H  H621  1  0.954500  0.458400  0.471700  1
  H  H622  1  0.545500  0.041600  0.971700  1
  H  H623  1  0.045500  0.541600  0.528300  1
  H  H624  1  0.454500  0.958400  0.028300  1
  H  H625  1  0.985000  0.459000  0.514000  1
  H  H626  1  0.515000  0.041000  0.014000  1
  H  H627  1  0.015000  0.541000  0.486000  1
  H  H628  1  0.485000  0.959000  0.986000  1
  H  H629  1  0.990200  0.343700  0.491500  1
  H  H630  1  0.509800  0.156300  0.991500  1
  H  H631  1  0.009800  0.656300  0.508500  1
  H  H632  1  0.490200  0.843700  0.008500  1
  H  H633  1  0.005500  0.387000  0.463500  1
  H  H634  1  0.494500  0.113000  0.963500  1
  H  H635  1  0.994500  0.613000  0.536500  1
  H  H636  1  0.505500  0.887000  0.036500  1
  H  H637  1  0.027500  0.388400  0.507900  1
  H  H638  1  0.472500  0.111600  0.007900  1
  H  H639  1  0.972500  0.611600  0.492100  1
  H  H640  1  0.527500  0.888400  0.992100  1
  H  H641  1  0.672700  0.824400  0.522200  1
  H  H642  1  0.827300  0.675600  0.022200  1
  H  H643  1  0.327300  0.175600  0.477800  1
  H  H644  1  0.172700  0.324400  0.977800  1
  H  H645  1  0.639600  0.870600  0.510700  1
  H  H646  1  0.860400  0.629400  0.010700  1
  H  H647  1  0.360400  0.129400  0.489300  1
  H  H648  1  0.139600  0.370600  0.989300  1
  H  H649  1  0.543600  0.829300  0.520500  1
  H  H650  1  0.956400  0.670700  0.020500  1
  H  H651  1  0.456400  0.170700  0.479500  1
  H  H652  1  0.043600  0.329300  0.979500  1
  H  H653  1  0.581200  0.806600  0.486100  1
  H  H654  1  0.918800  0.693400  0.986100  1
  H  H655  1  0.418800  0.193400  0.513900  1
  H  H656  1  0.081200  0.306600  0.013900  1
  H  H657  1  0.531600  0.710100  0.548500  1
  H  H658  1  0.968400  0.789900  0.048500  1
  H  H659  1  0.468400  0.289900  0.451500  1
  H  H660  1  0.031600  0.210100  0.951500  1
  H  H661  1  0.491700  0.754000  0.542300  1
  H  H662  1  0.008300  0.746000  0.042300  1
  H  H663  1  0.508300  0.246000  0.457700  1
  H  H664  1  0.991700  0.254000  0.957700  1
  H  H665  1  0.520700  0.729400  0.505600  1
  H  H666  1  0.979300  0.770600  0.005600  1
  H  H667  1  0.479300  0.270600  0.494400  1
  H  H668  1  0.020700  0.229400  0.994400  1
  H  H669  1  0.721300  0.987800  0.540600  1
  H  H670  1  0.778700  0.512200  0.040600  1
  H  H671  1  0.278700  0.012200  0.459400  1
  H  H672  1  0.221300  0.487800  0.959400  1
  H  H673  1  0.737100  0.975600  0.584800  1
  H  H674  1  0.762900  0.524400  0.084800  1
  H  H675  1  0.262900  0.024400  0.415200  1
  H  H676  1  0.237100  0.475600  0.915200  1
  H  H677  1  0.634500  0.946400  0.593400  1
  H  H678  1  0.865500  0.553600  0.093400  1
  H  H679  1  0.365500  0.053600  0.406600  1
  H  H680  1  0.134500  0.446400  0.906600  1
  H  H681  1  0.639900  0.001000  0.584900  1
  H  H682  1  0.860100  0.499000  0.084900  1
  H  H683  1  0.360100  0.999000  0.415100  1
  H  H684  1  0.139900  0.501000  0.915100  1
  H  H685  1  0.517400  0.964600  0.526500  1
  H  H686  1  0.982600  0.535400  0.026500  1
  H  H687  1  0.482600  0.035400  0.473500  1
  H  H688  1  0.017400  0.464600  0.973500  1
  H  H689  1  0.530300  0.946500  0.569600  1
  H  H690  1  0.969700  0.553500  0.069600  1
  H  H691  1  0.469700  0.053500  0.430400  1
  H  H692  1  0.030300  0.446500  0.930400  1
  H  H693  1  0.538500  0.000600  0.559800  1
  H  H694  1  0.961500  0.499400  0.059800  1
  H  H695  1  0.461500  0.999400  0.440200  1
  H  H696  1  0.038500  0.500600  0.940200  1
  H  H697  1  0.897100  0.937500  0.633500  1
  H  H698  1  0.602900  0.562500  0.133500  1
  H  H699  1  0.102900  0.062500  0.366500  1
  H  H700  1  0.397100  0.437500  0.866500  1
  H  H701  1  0.831900  0.950400  0.648900  1
  H  H702  1  0.668100  0.549600  0.148900  1
  H  H703  1  0.168100  0.049600  0.351100  1
  H  H704  1  0.331900  0.450400  0.851100  1
  H  H705  1  0.830700  0.012400  0.603500  1
  H  H706  1  0.669300  0.487600  0.103500  1
  H  H707  1  0.169300  0.987600  0.396500  1
  H  H708  1  0.330700  0.512400  0.896500  1
  H  H709  1  0.886900  0.019200  0.632400  1
  H  H710  1  0.613100  0.480800  0.132400  1
  H  H711  1  0.113100  0.980800  0.367600  1
  H  H712  1  0.386900  0.519200  0.867600  1
  H  H713  1  0.905300  0.004300  0.518700  1
  H  H714  1  0.594700  0.495700  0.018700  1
  H  H715  1  0.094700  0.995700  0.481300  1
  H  H716  1  0.405300  0.504300  0.981300  1
  H  H717  1  0.851400  0.974000  0.538600  1
  H  H718  1  0.648600  0.526000  0.038600  1
  H  H719  1  0.148600  0.026000  0.461400  1
  H  H720  1  0.351400  0.474000  0.961400  1
  H  H721  1  0.851800  0.029300  0.540000  1
  H  H722  1  0.648200  0.470700  0.040000  1
  H  H723  1  0.148200  0.970700  0.460000  1
  H  H724  1  0.351800  0.529300  0.960000  1
  Pd  Pd725  1  0.441070  0.631970  0.773400  1
  Pd  Pd726  1  0.058930  0.868030  0.273400  1
  Pd  Pd727  1  0.558930  0.368030  0.226600  1
  Pd  Pd728  1  0.941070  0.131970  0.726600  1
  Pd  Pd729  1  0.081210  0.690370  0.762210  1
  Pd  Pd730  1  0.418790  0.809630  0.262210  1
  Pd  Pd731  1  0.918790  0.309630  0.237790  1
  Pd  Pd732  1  0.581210  0.190370  0.737790  1
  C  C733  1  0.387200  0.725000  0.768900  1
  C  C734  1  0.112800  0.775000  0.268900  1
  C  C735  1  0.612800  0.275000  0.231100  1
  C  C736  1  0.887200  0.225000  0.731100  1
  C  C737  1  0.383300  0.773400  0.773900  1
  C  C738  1  0.116700  0.726600  0.273900  1
  C  C739  1  0.616700  0.226600  0.226100  1
  C  C740  1  0.883300  0.273400  0.726100  1
  C  C741  1  0.428700  0.797700  0.794000  1
  C  C742  1  0.071300  0.702300  0.294000  1
  C  C743  1  0.571300  0.202300  0.206000  1
  C  C744  1  0.928700  0.297700  0.706000  1
  C  C745  1  0.477500  0.774200  0.812000  1
  C  C746  1  0.022500  0.725800  0.312000  1
  C  C747  1  0.522500  0.225800  0.188000  1
  C  C748  1  0.977500  0.274200  0.688000  1
  C  C749  1  0.477200  0.726000  0.805100  1
  C  C750  1  0.022800  0.774000  0.305100  1
  C  C751  1  0.522800  0.274000  0.194900  1
  C  C752  1  0.977200  0.226000  0.694900  1
  C  C753  1  0.494800  0.752900  0.894800  1
  C  C754  1  0.005200  0.747100  0.394800  1
  C  C755  1  0.505200  0.247100  0.105200  1
  C  C756  1  0.994800  0.252900  0.605200  1
  C  C757  1  0.503900  0.741500  0.933800  1
  C  C758  1  0.996100  0.758500  0.433800  1
  C  C759  1  0.496100  0.258500  0.066200  1
  C  C760  1  0.003900  0.241500  0.566200  1
  C  C761  1  0.555500  0.760100  0.953800  1
  C  C762  1  0.944500  0.739900  0.453800  1
  C  C763  1  0.444500  0.239900  0.046200  1
  C  C764  1  0.055500  0.260100  0.546200  1
  C  C765  1  0.596300  0.791200  0.935800  1
  C  C766  1  0.903700  0.708800  0.435800  1
  C  C767  1  0.403700  0.208800  0.064200  1
  C  C768  1  0.096300  0.291200  0.564200  1
  C  C769  1  0.588100  0.805500  0.896300  1
  C  C770  1  0.911900  0.694500  0.396300  1
  C  C771  1  0.411900  0.194500  0.103700  1
  C  C772  1  0.088100  0.305500  0.603700  1
  C  C773  1  0.628900  0.838900  0.876900  1
  C  C774  1  0.871100  0.661100  0.376900  1
  C  C775  1  0.371100  0.161100  0.123100  1
  C  C776  1  0.128900  0.338900  0.623100  1
  C  C777  1  0.617900  0.853500  0.838400  1
  C  C778  1  0.882100  0.646500  0.338400  1
  C  C779  1  0.382100  0.146500  0.161600  1
  C  C780  1  0.117900  0.353500  0.661600  1
  C  C781  1  0.656900  0.889400  0.818800  1
  C  C782  1  0.843100  0.610600  0.318800  1
  C  C783  1  0.343100  0.110600  0.181200  1
  C  C784  1  0.156900  0.389400  0.681200  1
  C  C785  1  0.645900  0.903100  0.781800  1
  C  C786  1  0.854100  0.596900  0.281800  1
  C  C787  1  0.354100  0.096900  0.218200  1
  C  C788  1  0.145900  0.403100  0.718200  1
  C  C789  1  0.596600  0.880700  0.759200  1
  C  C790  1  0.903400  0.619300  0.259200  1
  C  C791  1  0.403400  0.119300  0.240800  1
  C  C792  1  0.096600  0.380700  0.740800  1
  C  C793  1  0.560000  0.847000  0.775000  1
  C  C794  1  0.940000  0.653000  0.275000  1
  C  C795  1  0.440000  0.153000  0.225000  1
  C  C796  1  0.060000  0.347000  0.725000  1
  C  C797  1  0.567200  0.832600  0.816000  1
  C  C798  1  0.932800  0.667400  0.316000  1
  C  C799  1  0.432800  0.167400  0.184000  1
  C  C800  1  0.067200  0.332600  0.684000  1
  C  C801  1  0.527800  0.798200  0.834200  1
  C  C802  1  0.972200  0.701800  0.334200  1
  C  C803  1  0.472200  0.201800  0.165800  1
  C  C804  1  0.027800  0.298200  0.665800  1
  C  C805  1  0.536600  0.785600  0.874400  1
  C  C806  1  0.963400  0.714400  0.374400  1
  C  C807  1  0.463400  0.214400  0.125600  1
  C  C808  1  0.036600  0.285600  0.625600  1
  C  C809  1  0.115800  0.696500  0.848400  1
  C  C810  1  0.384200  0.803500  0.348400  1
  C  C811  1  0.884200  0.303500  0.151600  1
  C  C812  1  0.615800  0.196500  0.651600  1
  C  C813  1  0.109000  0.707900  0.885900  1
  C  C814  1  0.391000  0.792100  0.385900  1
  C  C815  1  0.891000  0.292100  0.114100  1
  C  C816  1  0.609000  0.207900  0.614100  1
  C  C817  1  0.057900  0.730100  0.898800  1
  C  C818  1  0.442100  0.769900  0.398800  1
  C  C819  1  0.942100  0.269900  0.101200  1
  C  C820  1  0.557900  0.230100  0.601200  1
  C  C821  1  0.012700  0.739900  0.870900  1
  C  C822  1  0.487300  0.760100  0.370900  1
  C  C823  1  0.987300  0.260100  0.129100  1
  C  C824  1  0.512700  0.239900  0.629100  1
  C  C825  1  0.022600  0.727600  0.832700  1
  C  C826  1  0.477400  0.772400  0.332700  1
  C  C827  1  0.977400  0.272400  0.167300  1
  C  C828  1  0.522600  0.227600  0.667300  1
  C  C829  1  0.010300  0.841300  0.862900  1
  C  C830  1  0.489700  0.658700  0.362900  1
  C  C831  1  0.989700  0.158700  0.137100  1
  C  C832  1  0.510300  0.341300  0.637100  1
  C  C833  1  0.009600  0.889200  0.858800  1
  C  C834  1  0.490400  0.610800  0.358800  1
  C  C835  1  0.990400  0.110800  0.141200  1
  C  C836  1  0.509600  0.389200  0.641200  1
  C  C837  1  0.956800  0.913300  0.868400  1
  C  C838  1  0.543200  0.586700  0.368400  1
  C  C839  1  0.043200  0.086700  0.131600  1
  C  C840  1  0.456800  0.413300  0.631600  1
  C  C841  1  0.905900  0.890000  0.882100  1
  C  C842  1  0.594100  0.610000  0.382100  1
  C  C843  1  0.094100  0.110000  0.117900  1
  C  C844  1  0.405900  0.390000  0.617900  1
  C  C845  1  0.903500  0.839500  0.886000  1
  C  C846  1  0.596500  0.660500  0.386000  1
  C  C847  1  0.096500  0.160500  0.114000  1
  C  C848  1  0.403500  0.339500  0.614000  1
  C  C849  1  0.849700  0.813300  0.898400  1
  C  C850  1  0.650300  0.686700  0.398400  1
  C  C851  1  0.150300  0.186700  0.101600  1
  C  C852  1  0.349700  0.313300  0.601600  1
  C  C853  1  0.848900  0.763900  0.901700  1
  C  C854  1  0.651100  0.736100  0.401700  1
  C  C855  1  0.151100  0.236100  0.098300  1
  C  C856  1  0.348900  0.263900  0.598300  1
  C  C857  1  0.794600  0.736200  0.913800  1
  C  C858  1  0.705400  0.763800  0.413800  1
  C  C859  1  0.205400  0.263800  0.086200  1
  C  C860  1  0.294600  0.236200  0.586200  1
  C  C861  1  0.793700  0.689300  0.917600  1
  C  C862  1  0.706300  0.810700  0.417600  1
  C  C863  1  0.206300  0.310700  0.082400  1
  C  C864  1  0.293700  0.189300  0.582400  1
  C  C865  1  0.850100  0.664700  0.910500  1
  C  C866  1  0.649900  0.835300  0.410500  1
  C  C867  1  0.149900  0.335300  0.089500  1
  C  C868  1  0.350100  0.164700  0.589500  1
  C  C869  1  0.902000  0.688700  0.898400  1
  C  C870  1  0.598000  0.811300  0.398400  1
  C  C871  1  0.098000  0.311300  0.101600  1
  C  C872  1  0.402000  0.188700  0.601600  1
  C  C873  1  0.903400  0.739300  0.893700  1
  C  C874  1  0.596600  0.760700  0.393700  1
  C  C875  1  0.096600  0.260700  0.106300  1
  C  C876  1  0.403400  0.239300  0.606300  1
  C  C877  1  0.956600  0.765700  0.881000  1
  C  C878  1  0.543400  0.734300  0.381000  1
  C  C879  1  0.043400  0.234300  0.119000  1
  C  C880  1  0.456600  0.265700  0.619000  1
  C  C881  1  0.957000  0.814500  0.876700  1
  C  C882  1  0.543000  0.685500  0.376700  1
  C  C883  1  0.043000  0.185500  0.123300  1
  C  C884  1  0.457000  0.314500  0.623300  1
  C  C885  1  0.687600  0.855000  0.898800  1
  C  C886  1  0.812400  0.645000  0.398800  1
  C  C887  1  0.312400  0.145000  0.101200  1
  C  C888  1  0.187600  0.355000  0.601200  1
  C  C889  1  0.686900  0.885100  0.931700  1
  C  C890  1  0.813100  0.614900  0.431700  1
  C  C891  1  0.313100  0.114900  0.068300  1
  C  C892  1  0.186900  0.385100  0.568300  1
  C  C893  1  0.741000  0.889600  0.955700  1
  C  C894  1  0.759000  0.610400  0.455700  1
  C  C895  1  0.259000  0.110400  0.044300  1
  C  C896  1  0.241000  0.389600  0.544300  1
  C  C897  1  0.792400  0.865700  0.944400  1
  C  C898  1  0.707600  0.634300  0.444400  1
  C  C899  1  0.207600  0.134300  0.055600  1
  C  C900  1  0.292400  0.365700  0.555600  1
  C  C901  1  0.793400  0.839100  0.909700  1
  C  C902  1  0.706600  0.660900  0.409700  1
  C  C903  1  0.206600  0.160900  0.090300  1
  C  C904  1  0.293400  0.339100  0.590300  1
  C  C905  1  0.740700  0.834800  0.887500  1
  C  C906  1  0.759300  0.665200  0.387500  1
  C  C907  1  0.259300  0.165200  0.112500  1
  C  C908  1  0.240700  0.334800  0.612500  1
  C  C909  1  0.406200  0.632700  0.858700  1
  C  C910  1  0.093800  0.867300  0.358700  1
  C  C911  1  0.593800  0.367300  0.141300  1
  C  C912  1  0.906200  0.132700  0.641300  1
  C  C913  1  0.411000  0.624300  0.898000  1
  C  C914  1  0.089000  0.875700  0.398000  1
  C  C915  1  0.589000  0.375700  0.102000  1
  C  C916  1  0.911000  0.124300  0.602000  1
  C  C917  1  0.459500  0.599900  0.912100  1
  C  C918  1  0.040500  0.900100  0.412100  1
  C  C919  1  0.540500  0.400100  0.087900  1
  C  C920  1  0.959500  0.099900  0.587900  1
  C  C921  1  0.505000  0.584700  0.886000  1
  C  C922  1  0.995000  0.915300  0.386000  1
  C  C923  1  0.495000  0.415300  0.114000  1
  C  C924  1  0.005000  0.084700  0.614000  1
  C  C925  1  0.496700  0.595500  0.845400  1
  C  C926  1  0.003300  0.904500  0.345400  1
  C  C927  1  0.503300  0.404500  0.154600  1
  C  C928  1  0.996700  0.095500  0.654600  1
  C  C929  1  0.525200  0.488600  0.857100  1
  C  C930  1  0.974800  0.011400  0.357100  1
  C  C931  1  0.474800  0.511400  0.142900  1
  C  C932  1  0.025200  0.988600  0.642900  1
  C  C933  1  0.536300  0.445600  0.842100  1
  C  C934  1  0.963700  0.054400  0.342100  1
  C  C935  1  0.463700  0.554400  0.157900  1
  C  C936  1  0.036300  0.945600  0.657900  1
  C  C937  1  0.590500  0.423900  0.850300  1
  C  C938  1  0.909500  0.076100  0.350300  1
  C  C939  1  0.409500  0.576100  0.149700  1
  C  C940  1  0.090500  0.923900  0.649700  1
  C  C941  1  0.633900  0.445900  0.873100  1
  C  C942  1  0.866100  0.054100  0.373100  1
  C  C943  1  0.366100  0.554100  0.126900  1
  C  C944  1  0.133900  0.945900  0.626900  1
  C  C945  1  0.624200  0.490700  0.891100  1
  C  C946  1  0.875800  0.009300  0.391100  1
  C  C947  1  0.375800  0.509300  0.108900  1
  C  C948  1  0.124200  0.990700  0.608900  1
  C  C949  1  0.667200  0.511900  0.917700  1
  C  C950  1  0.832800  0.988100  0.417700  1
  C  C951  1  0.332800  0.488100  0.082300  1
  C  C952  1  0.167200  0.011900  0.582300  1
  C  C953  1  0.656200  0.555300  0.935200  1
  C  C954  1  0.843800  0.944700  0.435200  1
  C  C955  1  0.343800  0.444700  0.064800  1
  C  C956  1  0.156200  0.055300  0.564800  1
  C  C957  1  0.696400  0.577200  0.964800  1
  C  C958  1  0.803600  0.922800  0.464800  1
  C  C959  1  0.303600  0.422800  0.035200  1
  C  C960  1  0.196400  0.077200  0.535200  1
  C  C961  1  0.686800  0.619200  0.980200  1
  C  C962  1  0.813200  0.880800  0.480200  1
  C  C963  1  0.313200  0.380800  0.019800  1
  C  C964  1  0.186800  0.119200  0.519800  1
  C  C965  1  0.635300  0.645500  0.969100  1
  C  C966  1  0.864700  0.854500  0.469100  1
  C  C967  1  0.364700  0.354500  0.030900  1
  C  C968  1  0.135300  0.145500  0.530900  1
  C  C969  1  0.594700  0.625700  0.941000  1
  C  C970  1  0.905300  0.874300  0.441000  1
  C  C971  1  0.405300  0.374300  0.059000  1
  C  C972  1  0.094700  0.125700  0.559000  1
  C  C973  1  0.602300  0.580100  0.924700  1
  C  C974  1  0.897700  0.919900  0.424700  1
  C  C975  1  0.397700  0.419900  0.075300  1
  C  C976  1  0.102300  0.080100  0.575300  1
  C  C977  1  0.559300  0.558800  0.897800  1
  C  C978  1  0.940700  0.941200  0.397800  1
  C  C979  1  0.440700  0.441200  0.102200  1
  C  C980  1  0.059300  0.058800  0.602200  1
  C  C981  1  0.569500  0.513500  0.881800  1
  C  C982  1  0.930500  0.986500  0.381800  1
  C  C983  1  0.430500  0.486500  0.118200  1
  C  C984  1  0.069500  0.013500  0.618200  1
  C  C985  1  0.128000  0.594200  0.761800  1
  C  C986  1  0.372000  0.905800  0.261800  1
  C  C987  1  0.872000  0.405800  0.238200  1
  C  C988  1  0.628000  0.094200  0.738200  1
  C  C989  1  0.130800  0.547600  0.771400  1
  C  C990  1  0.369200  0.952400  0.271400  1
  C  C991  1  0.869200  0.452400  0.228600  1
  C  C992  1  0.630800  0.047600  0.728600  1
  C  C993  1  0.086600  0.526000  0.796000  1
  C  C994  1  0.413400  0.974000  0.296000  1
  C  C995  1  0.913400  0.474000  0.204000  1
  C  C996  1  0.586600  0.026000  0.704000  1
  C  C997  1  0.038800  0.554100  0.810300  1
  C  C998  1  0.461200  0.945900  0.310300  1
  C  C999  1  0.961200  0.445900  0.189700  1
  C  C1000  1  0.538800  0.054100  0.689700  1
  C  C1001  1  0.038800  0.599700  0.798300  1
  C  C1002  1  0.461200  0.900300  0.298300  1
  C  C1003  1  0.961200  0.400300  0.201700  1
  C  C1004  1  0.538800  0.099700  0.701700  1
  C  C1005  1  0.025600  0.586400  0.890900  1
  C  C1006  1  0.474400  0.913600  0.390900  1
  C  C1007  1  0.974400  0.413600  0.109100  1
  C  C1008  1  0.525600  0.086400  0.609100  1
  C  C1009  1  0.017900  0.604500  0.928300  1
  C  C1010  1  0.482100  0.895500  0.428300  1
  C  C1011  1  0.982100  0.395500  0.071700  1
  C  C1012  1  0.517900  0.104500  0.571700  1
  C  C1013  1  0.966700  0.587200  0.951900  1
  C  C1014  1  0.533300  0.912800  0.451900  1
  C  C1015  1  0.033300  0.412800  0.048100  1
  C  C1016  1  0.466700  0.087200  0.548100  1
  C  C1017  1  0.925600  0.553000  0.938200  1
  C  C1018  1  0.574400  0.947000  0.438200  1
  C  C1019  1  0.074400  0.447000  0.061800  1
  C  C1020  1  0.425600  0.053000  0.561800  1
  C  C1021  1  0.930900  0.534600  0.899600  1
  C  C1022  1  0.569100  0.965400  0.399600  1
  C  C1023  1  0.069100  0.465400  0.100400  1
  C  C1024  1  0.430900  0.034600  0.600400  1
  C  C1025  1  0.889700  0.498400  0.884500  1
  C  C1026  1  0.610300  0.001600  0.384500  1
  C  C1027  1  0.110300  0.501600  0.115500  1
  C  C1028  1  0.389700  0.998400  0.615500  1
  C  C1029  1  0.897700  0.479800  0.846500  1
  C  C1030  1  0.602300  0.020200  0.346500  1
  C  C1031  1  0.102300  0.520200  0.153500  1
  C  C1032  1  0.397700  0.979800  0.653500  1
  C  C1033  1  0.857300  0.442500  0.832100  1
  C  C1034  1  0.642700  0.057500  0.332100  1
  C  C1035  1  0.142700  0.557500  0.167900  1
  C  C1036  1  0.357300  0.942500  0.667900  1
  C  C1037  1  0.864400  0.424100  0.795200  1
  C  C1038  1  0.635600  0.075900  0.295200  1
  C  C1039  1  0.135600  0.575900  0.204800  1
  C  C1040  1  0.364400  0.924100  0.704800  1
  C  C1041  1  0.910100  0.443200  0.770400  1
  C  C1042  1  0.589900  0.056800  0.270400  1
  C  C1043  1  0.089900  0.556800  0.229600  1
  C  C1044  1  0.410100  0.943200  0.729600  1
  C  C1045  1  0.949500  0.478000  0.782000  1
  C  C1046  1  0.550500  0.022000  0.282000  1
  C  C1047  1  0.050500  0.522000  0.218000  1
  C  C1048  1  0.449500  0.978000  0.718000  1
  C  C1049  1  0.946700  0.497600  0.822100  1
  C  C1050  1  0.553300  0.002400  0.322100  1
  C  C1051  1  0.053300  0.502400  0.177900  1
  C  C1052  1  0.446700  0.997600  0.677900  1
  C  C1053  1  0.987900  0.533700  0.835800  1
  C  C1054  1  0.512100  0.966300  0.335800  1
  C  C1055  1  0.012100  0.466300  0.164200  1
  C  C1056  1  0.487900  0.033700  0.664200  1
  C  C1057  1  0.982200  0.551900  0.874100  1
  C  C1058  1  0.517800  0.948100  0.374100  1
  C  C1059  1  0.017800  0.448100  0.125900  1
  C  C1060  1  0.482200  0.051900  0.625900  1
  C  C1061  1  0.726400  0.488600  0.925100  1
  C  C1062  1  0.773600  0.011400  0.425100  1
  C  C1063  1  0.273600  0.511400  0.074900  1
  C  C1064  1  0.226400  0.988600  0.574900  1
  C  C1065  1  0.729400  0.452300  0.951500  1
  C  C1066  1  0.770600  0.047700  0.451500  1
  C  C1067  1  0.270600  0.547700  0.048500  1
  C  C1068  1  0.229400  0.952300  0.548500  1
  C  C1069  1  0.786000  0.431000  0.957600  1
  C  C1070  1  0.714000  0.069000  0.457600  1
  C  C1071  1  0.214000  0.569000  0.042400  1
  C  C1072  1  0.286000  0.931000  0.542400  1
  C  C1073  1  0.837800  0.445500  0.935900  1
  C  C1074  1  0.662200  0.054500  0.435900  1
  C  C1075  1  0.162200  0.554500  0.064100  1
  C  C1076  1  0.337800  0.945500  0.564100  1
  C  C1077  1  0.835600  0.483300  0.908700  1
  C  C1078  1  0.664400  0.016700  0.408700  1
  C  C1079  1  0.164400  0.516700  0.091300  1
  C  C1080  1  0.335600  0.983300  0.591300  1
  C  C1081  1  0.779400  0.504500  0.905000  1
  C  C1082  1  0.720600  0.995500  0.405000  1
  C  C1083  1  0.220600  0.495500  0.095000  1
  C  C1084  1  0.279400  0.004500  0.595000  1
  C  C1085  1  0.416900  0.527500  0.770100  1
  C  C1086  1  0.083100  0.972500  0.270100  1
  C  C1087  1  0.583100  0.472500  0.229900  1
  C  C1088  1  0.916900  0.027500  0.729900  1
  C  C1089  1  0.423600  0.482900  0.757200  1
  C  C1090  1  0.076400  0.017100  0.257200  1
  C  C1091  1  0.576400  0.517100  0.242800  1
  C  C1092  1  0.923600  0.982900  0.742800  1
  C  C1093  1  0.471500  0.473400  0.731500  1
  C  C1094  1  0.028500  0.026600  0.231500  1
  C  C1095  1  0.528500  0.526600  0.268500  1
  C  C1096  1  0.971500  0.973400  0.768500  1
  C  C1097  1  0.513300  0.510500  0.720700  1
  C  C1098  1  0.986700  0.989500  0.220700  1
  C  C1099  1  0.486700  0.489500  0.279300  1
  C  C1100  1  0.013300  0.010500  0.779300  1
  C  C1101  1  0.502200  0.555600  0.735100  1
  C  C1102  1  0.997800  0.944400  0.235100  1
  C  C1103  1  0.497800  0.444400  0.264900  1
  C  C1104  1  0.002200  0.055600  0.764900  1
  C  C1105  1  0.510800  0.537600  0.637500  1
  C  C1106  1  0.989200  0.962400  0.137500  1
  C  C1107  1  0.489200  0.462400  0.362500  1
  C  C1108  1  0.010800  0.037600  0.862500  1
  C  C1109  1  0.508300  0.551800  0.598700  1
  C  C1110  1  0.991700  0.948200  0.098700  1
  C  C1111  1  0.491700  0.448200  0.401300  1
  C  C1112  1  0.008300  0.051800  0.901300  1
  C  C1113  1  0.559600  0.546300  0.573700  1
  C  C1114  1  0.940400  0.953700  0.073700  1
  C  C1115  1  0.440400  0.453700  0.426300  1
  C  C1116  1  0.059600  0.046300  0.926300  1
  C  C1117  1  0.611300  0.527600  0.588000  1
  C  C1118  1  0.888700  0.972400  0.088000  1
  C  C1119  1  0.388700  0.472400  0.412000  1
  C  C1120  1  0.111300  0.027600  0.912000  1
  C  C1121  1  0.616300  0.511800  0.628300  1
  C  C1122  1  0.883700  0.988200  0.128300  1
  C  C1123  1  0.383700  0.488200  0.371700  1
  C  C1124  1  0.116300  0.011800  0.871700  1
  C  C1125  1  0.668800  0.492200  0.642500  1
  C  C1126  1  0.831200  0.007800  0.142500  1
  C  C1127  1  0.331200  0.507800  0.357500  1
  C  C1128  1  0.168800  0.992200  0.857500  1
  C  C1129  1  0.672500  0.479800  0.683200  1
  C  C1130  1  0.827500  0.020200  0.183200  1
  C  C1131  1  0.327500  0.520200  0.316800  1
  C  C1132  1  0.172500  0.979800  0.816800  1
  C  C1133  1  0.724800  0.460300  0.699100  1
  C  C1134  1  0.775200  0.039700  0.199100  1
  C  C1135  1  0.275200  0.539700  0.300900  1
  C  C1136  1  0.224800  0.960300  0.800900  1
  C  C1137  1  0.728600  0.448100  0.739500  1
  C  C1138  1  0.771400  0.051900  0.239500  1
  C  C1139  1  0.271400  0.551900  0.260500  1
  C  C1140  1  0.228600  0.948100  0.760500  1
  C  C1141  1  0.678700  0.458300  0.764600  1
  C  C1142  1  0.821300  0.041700  0.264600  1
  C  C1143  1  0.321300  0.541700  0.235400  1
  C  C1144  1  0.178700  0.958300  0.735400  1
  C  C1145  1  0.626400  0.474300  0.750100  1
  C  C1146  1  0.873600  0.025700  0.250100  1
  C  C1147  1  0.373600  0.525700  0.249900  1
  C  C1148  1  0.126400  0.974300  0.749900  1
  C  C1149  1  0.620200  0.485600  0.709500  1
  C  C1150  1  0.879800  0.014400  0.209500  1
  C  C1151  1  0.379800  0.514400  0.290500  1
  C  C1152  1  0.120200  0.985600  0.790500  1
  C  C1153  1  0.566900  0.504300  0.693900  1
  C  C1154  1  0.933100  0.995700  0.193900  1
  C  C1155  1  0.433100  0.495700  0.306100  1
  C  C1156  1  0.066900  0.004300  0.806100  1
  C  C1157  1  0.564500  0.517800  0.653600  1
  C  C1158  1  0.935500  0.982200  0.153600  1
  C  C1159  1  0.435500  0.482200  0.346400  1
  C  C1160  1  0.064500  0.017800  0.846400  1
  C  C1161  1  0.123100  0.701900  0.678900  1
  C  C1162  1  0.376900  0.798100  0.178900  1
  C  C1163  1  0.876900  0.298100  0.321100  1
  C  C1164  1  0.623100  0.201900  0.821100  1
  C  C1165  1  0.123500  0.693900  0.639700  1
  C  C1166  1  0.376500  0.806100  0.139700  1
  C  C1167  1  0.876500  0.306100  0.360300  1
  C  C1168  1  0.623500  0.193900  0.860300  1
  C  C1169  1  0.080800  0.662600  0.622900  1
  C  C1170  1  0.419200  0.837400  0.122900  1
  C  C1171  1  0.919200  0.337400  0.377100  1
  C  C1172  1  0.580800  0.162600  0.877100  1
  C  C1173  1  0.036400  0.637300  0.647800  1
  C  C1174  1  0.463600  0.862700  0.147800  1
  C  C1175  1  0.963600  0.362700  0.352200  1
  C  C1176  1  0.536400  0.137300  0.852200  1
  C  C1177  1  0.041000  0.647100  0.687800  1
  C  C1178  1  0.459000  0.852900  0.187800  1
  C  C1179  1  0.959000  0.352900  0.312200  1
  C  C1180  1  0.541000  0.147100  0.812200  1
  C  C1181  1  0.035100  0.537400  0.670300  1
  C  C1182  1  0.464900  0.962600  0.170300  1
  C  C1183  1  0.964900  0.462600  0.329700  1
  C  C1184  1  0.535100  0.037400  0.829700  1
  C  C1185  1  0.031700  0.492900  0.683500  1
  C  C1186  1  0.468300  0.007100  0.183500  1
  C  C1187  1  0.968300  0.507100  0.316500  1
  C  C1188  1  0.531700  0.992900  0.816500  1
  C  C1189  1  0.984000  0.462700  0.674300  1
  C  C1190  1  0.516000  0.037300  0.174300  1
  C  C1191  1  0.016000  0.537300  0.325700  1
  C  C1192  1  0.484000  0.962700  0.825700  1
  C  C1193  1  0.933500  0.476000  0.650500  1
  C  C1194  1  0.566500  0.024000  0.150500  1
  C  C1195  1  0.066500  0.524000  0.349500  1
  C  C1196  1  0.433500  0.976000  0.849500  1
  C  C1197  1  0.935000  0.524500  0.635700  1
  C  C1198  1  0.565000  0.975500  0.135700  1
  C  C1199  1  0.065000  0.475500  0.364300  1
  C  C1200  1  0.435000  0.024500  0.864300  1
  C  C1201  1  0.888100  0.539100  0.610500  1
  C  C1202  1  0.611900  0.960900  0.110500  1
  C  C1203  1  0.111900  0.460900  0.389500  1
  C  C1204  1  0.388100  0.039100  0.889500  1
  C  C1205  1  0.892100  0.585300  0.595800  1
  C  C1206  1  0.607900  0.914700  0.095800  1
  C  C1207  1  0.107900  0.414700  0.404200  1
  C  C1208  1  0.392100  0.085300  0.904200  1
  C  C1209  1  0.848100  0.601800  0.568300  1
  C  C1210  1  0.651900  0.898200  0.068300  1
  C  C1211  1  0.151900  0.398200  0.431700  1
  C  C1212  1  0.348100  0.101800  0.931700  1
  C  C1213  1  0.850100  0.646400  0.553900  1
  C  C1214  1  0.649900  0.853600  0.053900  1
  C  C1215  1  0.149900  0.353600  0.446100  1
  C  C1216  1  0.350100  0.146400  0.946100  1
  C  C1217  1  0.896400  0.680100  0.568600  1
  C  C1218  1  0.603600  0.819900  0.068600  1
  C  C1219  1  0.103600  0.319900  0.431400  1
  C  C1220  1  0.396400  0.180100  0.931400  1
  C  C1221  1  0.939400  0.666300  0.594900  1
  C  C1222  1  0.560600  0.833700  0.094900  1
  C  C1223  1  0.060600  0.333700  0.405100  1
  C  C1224  1  0.439400  0.166300  0.905100  1
  C  C1225  1  0.940500  0.619000  0.607800  1
  C  C1226  1  0.559500  0.881000  0.107800  1
  C  C1227  1  0.059500  0.381000  0.392200  1
  C  C1228  1  0.440500  0.119000  0.892200  1
  C  C1229  1  0.987700  0.603400  0.633800  1
  C  C1230  1  0.512300  0.896600  0.133800  1
  C  C1231  1  0.012300  0.396600  0.366200  1
  C  C1232  1  0.487700  0.103400  0.866200  1
  C  C1233  1  0.987100  0.556800  0.645700  1
  C  C1234  1  0.512900  0.943200  0.145700  1
  C  C1235  1  0.012900  0.443200  0.354300  1
  C  C1236  1  0.487100  0.056800  0.854300  1
  C  C1237  1  0.724400  0.486100  0.617900  1
  C  C1238  1  0.775600  0.013900  0.117900  1
  C  C1239  1  0.275600  0.513900  0.382100  1
  C  C1240  1  0.224400  0.986100  0.882100  1
  C  C1241  1  0.728300  0.449500  0.590300  1
  C  C1242  1  0.771700  0.050500  0.090300  1
  C  C1243  1  0.271700  0.550500  0.409700  1
  C  C1244  1  0.228300  0.949500  0.909700  1
  C  C1245  1  0.784200  0.441300  0.570100  1
  C  C1246  1  0.715800  0.058700  0.070100  1
  C  C1247  1  0.215800  0.558700  0.429900  1
  C  C1248  1  0.284200  0.941300  0.929900  1
  C  C1249  1  0.835100  0.471000  0.576400  1
  C  C1250  1  0.664900  0.029000  0.076400  1
  C  C1251  1  0.164900  0.529000  0.423600  1
  C  C1252  1  0.335100  0.971000  0.923600  1
  C  C1253  1  0.834000  0.508200  0.602500  1
  C  C1254  1  0.666000  0.991800  0.102500  1
  C  C1255  1  0.166000  0.491800  0.397500  1
  C  C1256  1  0.334000  0.008200  0.897500  1
  C  C1257  1  0.778100  0.514800  0.622800  1
  C  C1258  1  0.721900  0.985200  0.122800  1
  C  C1259  1  0.221900  0.485200  0.377200  1
  C  C1260  1  0.278100  0.014800  0.877200  1
  C  C1261  1  0.399600  0.624300  0.689300  1
  C  C1262  1  0.100400  0.875700  0.189300  1
  C  C1263  1  0.600400  0.375700  0.310700  1
  C  C1264  1  0.899600  0.124300  0.810700  1
  C  C1265  1  0.402400  0.632800  0.649200  1
  C  C1266  1  0.097600  0.867200  0.149200  1
  C  C1267  1  0.597600  0.367200  0.350800  1
  C  C1268  1  0.902400  0.132800  0.850800  1
  C  C1269  1  0.446300  0.665000  0.634200  1
  C  C1270  1  0.053700  0.835000  0.134200  1
  C  C1271  1  0.553700  0.335000  0.365800  1
  C  C1272  1  0.946300  0.165000  0.865800  1
  C  C1273  1  0.488100  0.687700  0.660500  1
  C  C1274  1  0.011900  0.812300  0.160500  1
  C  C1275  1  0.511900  0.312300  0.339500  1
  C  C1276  1  0.988100  0.187700  0.839500  1
  C  C1277  1  0.482000  0.676800  0.699600  1
  C  C1278  1  0.018000  0.823200  0.199600  1
  C  C1279  1  0.518000  0.323200  0.300400  1
  C  C1280  1  0.982000  0.176800  0.800400  1
  C  C1281  1  0.471400  0.787600  0.666900  1
  C  C1282  1  0.028600  0.712400  0.166900  1
  C  C1283  1  0.528600  0.212400  0.333100  1
  C  C1284  1  0.971400  0.287600  0.833100  1
  C  C1285  1  0.463100  0.835000  0.672300  1
  C  C1286  1  0.036900  0.665000  0.172300  1
  C  C1287  1  0.536900  0.165000  0.327700  1
  C  C1288  1  0.963100  0.335000  0.827700  1
  C  C1289  1  0.512600  0.867800  0.663900  1
  C  C1290  1  0.987400  0.632200  0.163900  1
  C  C1291  1  0.487400  0.132200  0.336100  1
  C  C1292  1  0.012600  0.367800  0.836100  1
  C  C1293  1  0.567900  0.853700  0.650200  1
  C  C1294  1  0.932100  0.646300  0.150200  1
  C  C1295  1  0.432100  0.146300  0.349800  1
  C  C1296  1  0.067900  0.353700  0.849800  1
  C  C1297  1  0.578200  0.804300  0.644700  1
  C  C1298  1  0.921800  0.695700  0.144700  1
  C  C1299  1  0.421800  0.195700  0.355300  1
  C  C1300  1  0.078200  0.304300  0.855300  1
  C  C1301  1  0.635100  0.789400  0.631800  1
  C  C1302  1  0.864900  0.710600  0.131800  1
  C  C1303  1  0.364900  0.210600  0.368200  1
  C  C1304  1  0.135100  0.289400  0.868200  1
  C  C1305  1  0.645300  0.740900  0.627300  1
  C  C1306  1  0.854700  0.759100  0.127300  1
  C  C1307  1  0.354700  0.259100  0.372700  1
  C  C1308  1  0.145300  0.240900  0.872700  1
  C  C1309  1  0.703200  0.723000  0.615800  1
  C  C1310  1  0.796800  0.777000  0.115800  1
  C  C1311  1  0.296800  0.277000  0.384200  1
  C  C1312  1  0.203200  0.223000  0.884200  1
  C  C1313  1  0.710400  0.676500  0.612600  1
  C  C1314  1  0.789600  0.823500  0.112600  1
  C  C1315  1  0.289600  0.323500  0.387400  1
  C  C1316  1  0.210400  0.176500  0.887400  1
  C  C1317  1  0.661900  0.643400  0.620900  1
  C  C1318  1  0.838100  0.856600  0.120900  1
  C  C1319  1  0.338100  0.356600  0.379100  1
  C  C1320  1  0.161900  0.143400  0.879100  1
  C  C1321  1  0.606400  0.657400  0.631600  1
  C  C1322  1  0.893600  0.842600  0.131600  1
  C  C1323  1  0.393600  0.342600  0.368400  1
  C  C1324  1  0.106400  0.157400  0.868400  1
  C  C1325  1  0.595600  0.706800  0.636000  1
  C  C1326  1  0.904400  0.793200  0.136000  1
  C  C1327  1  0.404400  0.293200  0.364000  1
  C  C1328  1  0.095600  0.206800  0.864000  1
  C  C1329  1  0.538200  0.722200  0.648500  1
  C  C1330  1  0.961800  0.777800  0.148500  1
  C  C1331  1  0.461800  0.277800  0.351500  1
  C  C1332  1  0.038200  0.222200  0.851500  1
  C  C1333  1  0.529800  0.771900  0.653300  1
  C  C1334  1  0.970200  0.728100  0.153300  1
  C  C1335  1  0.470200  0.228100  0.346700  1
  C  C1336  1  0.029800  0.271900  0.846700  1
  C  C1337  1  0.111700  0.794200  0.767100  1
  C  C1338  1  0.388300  0.705800  0.267100  1
  C  C1339  1  0.888300  0.205800  0.232900  1
  C  C1340  1  0.611700  0.294200  0.732900  1
  C  C1341  1  0.103700  0.841200  0.761700  1
  C  C1342  1  0.396300  0.658800  0.261700  1
  C  C1343  1  0.896300  0.158800  0.238300  1
  C  C1344  1  0.603700  0.341200  0.738300  1
  C  C1345  1  0.055400  0.854700  0.739800  1
  C  C1346  1  0.444600  0.645300  0.239800  1
  C  C1347  1  0.944600  0.145300  0.260200  1
  C  C1348  1  0.555400  0.354700  0.760200  1
  C  C1349  1  0.014400  0.820300  0.723200  1
  C  C1350  1  0.485600  0.679700  0.223200  1
  C  C1351  1  0.985600  0.179700  0.276800  1
  C  C1352  1  0.514400  0.320300  0.776800  1
  C  C1353  1  0.025800  0.773300  0.729000  1
  C  C1354  1  0.474200  0.726700  0.229000  1
  C  C1355  1  0.974200  0.226700  0.271000  1
  C  C1356  1  0.525800  0.273300  0.771000  1
  C  C1357  1  0.006600  0.806700  0.637800  1
  C  C1358  1  0.493400  0.693300  0.137800  1
  C  C1359  1  0.993400  0.193300  0.362200  1
  C  C1360  1  0.506600  0.306700  0.862200  1
  C  C1361  1  0.001700  0.797000  0.598200  1
  C  C1362  1  0.498300  0.703000  0.098200  1
  C  C1363  1  0.998300  0.203000  0.401800  1
  C  C1364  1  0.501700  0.297000  0.901800  1
  C  C1365  1  0.947100  0.805600  0.576800  1
  C  C1366  1  0.552900  0.694400  0.076800  1
  C  C1367  1  0.052900  0.194400  0.423200  1
  C  C1368  1  0.447100  0.305600  0.923200  1
  C  C1369  1  0.897400  0.822800  0.595900  1
  C  C1370  1  0.602600  0.677200  0.095900  1
  C  C1371  1  0.102600  0.177200  0.404100  1
  C  C1372  1  0.397400  0.322800  0.904100  1
  C  C1373  1  0.900000  0.832900  0.637400  1
  C  C1374  1  0.600000  0.667100  0.137400  1
  C  C1375  1  0.100000  0.167100  0.362600  1
  C  C1376  1  0.400000  0.332900  0.862600  1
  C  C1377  1  0.849800  0.850400  0.657600  1
  C  C1378  1  0.650200  0.649600  0.157600  1
  C  C1379  1  0.150200  0.149600  0.342400  1
  C  C1380  1  0.349800  0.350400  0.842400  1
  C  C1381  1  0.853500  0.858900  0.699100  1
  C  C1382  1  0.646500  0.641100  0.199100  1
  C  C1383  1  0.146500  0.141100  0.300900  1
  C  C1384  1  0.353500  0.358900  0.800900  1
  C  C1385  1  0.803300  0.877600  0.719700  1
  C  C1386  1  0.696700  0.622400  0.219700  1
  C  C1387  1  0.196700  0.122400  0.280300  1
  C  C1388  1  0.303300  0.377600  0.780300  1
  C  C1389  1  0.805300  0.883100  0.760200  1
  C  C1390  1  0.694700  0.616900  0.260200  1
  C  C1391  1  0.194700  0.116900  0.239800  1
  C  C1392  1  0.305300  0.383100  0.739800  1
  C  C1393  1  0.858700  0.871100  0.781400  1
  C  C1394  1  0.641300  0.628900  0.281400  1
  C  C1395  1  0.141300  0.128900  0.218600  1
  C  C1396  1  0.358700  0.371100  0.718600  1
  C  C1397  1  0.907300  0.854700  0.762400  1
  C  C1398  1  0.592700  0.645300  0.262400  1
  C  C1399  1  0.092700  0.145300  0.237600  1
  C  C1400  1  0.407300  0.354700  0.737600  1
  C  C1401  1  0.907600  0.849200  0.720300  1
  C  C1402  1  0.592400  0.650800  0.220300  1
  C  C1403  1  0.092400  0.150800  0.279700  1
  C  C1404  1  0.407600  0.349200  0.779700  1
  C  C1405  1  0.958300  0.832000  0.699700  1
  C  C1406  1  0.541700  0.668000  0.199700  1
  C  C1407  1  0.041700  0.168000  0.300300  1
  C  C1408  1  0.458300  0.332000  0.800300  1
  C  C1409  1  0.956000  0.823600  0.658800  1
  C  C1410  1  0.544000  0.676400  0.158800  1
  C  C1411  1  0.044000  0.176400  0.341200  1
  C  C1412  1  0.456000  0.323600  0.841200  1
  C  C1413  1  0.686500  0.824600  0.622100  1
  C  C1414  1  0.813500  0.675400  0.122100  1
  C  C1415  1  0.313500  0.175400  0.377900  1
  C  C1416  1  0.186500  0.324600  0.877900  1
  C  C1417  1  0.682500  0.855000  0.590200  1
  C  C1418  1  0.817500  0.645000  0.090200  1
  C  C1419  1  0.317500  0.145000  0.409800  1
  C  C1420  1  0.182500  0.355000  0.909800  1
  C  C1421  1  0.730000  0.888400  0.582800  1
  C  C1422  1  0.770000  0.611600  0.082800  1
  C  C1423  1  0.270000  0.111600  0.417200  1
  C  C1424  1  0.230000  0.388400  0.917200  1
  C  C1425  1  0.783000  0.888500  0.605100  1
  C  C1426  1  0.717000  0.611500  0.105100  1
  C  C1427  1  0.217000  0.111500  0.394900  1
  C  C1428  1  0.283000  0.388500  0.894900  1
  C  C1429  1  0.790600  0.856900  0.636100  1
  C  C1430  1  0.709400  0.643100  0.136100  1
  C  C1431  1  0.209400  0.143100  0.363900  1
  C  C1432  1  0.290600  0.356900  0.863900  1
  C  C1433  1  0.740700  0.825800  0.644600  1
  C  C1434  1  0.759300  0.674200  0.144600  1
  C  C1435  1  0.259300  0.174200  0.355400  1
  C  C1436  1  0.240700  0.325800  0.855400  1
  C  C1437  1  0.599500  0.931500  0.917100  1
  C  C1438  1  0.900500  0.568500  0.417100  1
  C  C1439  1  0.400500  0.068500  0.082900  1
  C  C1440  1  0.099500  0.431500  0.582900  1
  C  C1441  1  0.639100  0.970200  0.899200  1
  C  C1442  1  0.860900  0.529800  0.399200  1
  C  C1443  1  0.360900  0.029800  0.100800  1
  C  C1444  1  0.139100  0.470200  0.600800  1
  C  C1445  1  0.671900  0.049600  0.913300  1
  C  C1446  1  0.828100  0.450400  0.413300  1
  C  C1447  1  0.328100  0.950400  0.086700  1
  C  C1448  1  0.171900  0.549600  0.586700  1
  C  C1449  1  0.744400  0.966700  0.985800  1
  C  C1450  1  0.755600  0.533300  0.485800  1
  C  C1451  1  0.255600  0.033300  0.014200  1
  C  C1452  1  0.244400  0.466700  0.514200  1
  C  C1453  1  0.801700  0.985000  0.965900  1
  C  C1454  1  0.698300  0.515000  0.465900  1
  C  C1455  1  0.198300  0.015000  0.034100  1
  C  C1456  1  0.301700  0.485000  0.534100  1
  C  C1457  1  0.910500  0.994000  0.970700  1
  C  C1458  1  0.589500  0.506000  0.470700  1
  C  C1459  1  0.089500  0.006000  0.029300  1
  C  C1460  1  0.410500  0.494000  0.529300  1
  C  C1461  1  0.840600  0.852900  0.007500  1
  C  C1462  1  0.659400  0.647100  0.507500  1
  C  C1463  1  0.159400  0.147100  0.992500  1
  C  C1464  1  0.340600  0.352900  0.492500  1
  C  C1465  1  0.816200  0.802900  0.011400  1
  C  C1466  1  0.683800  0.697100  0.511400  1
  C  C1467  1  0.183800  0.197100  0.988600  1
  C  C1468  1  0.316200  0.302900  0.488600  1
  C  C1469  1  0.733900  0.746500  0.015800  1
  C  C1470  1  0.766100  0.753500  0.515800  1
  C  C1471  1  0.266100  0.253500  0.984200  1
  C  C1472  1  0.233900  0.246500  0.484200  1
  C  C1473  1  0.657600  0.389200  0.974400  1
  C  C1474  1  0.842400  0.110800  0.474400  1
  C  C1475  1  0.342400  0.610800  0.025600  1
  C  C1476  1  0.157600  0.889200  0.525600  1
  C  C1477  1  0.591900  0.384400  0.961800  1
  C  C1478  1  0.908100  0.115600  0.461800  1
  C  C1479  1  0.408100  0.615600  0.038200  1
  C  C1480  1  0.091900  0.884400  0.538200  1
  C  C1481  1  0.499300  0.427600  0.975100  1
  C  C1482  1  0.000700  0.072400  0.475100  1
  C  C1483  1  0.500700  0.572400  0.024900  1
  C  C1484  1  0.999300  0.927600  0.524900  1
  C  C1485  1  0.825600  0.408400  0.020500  1
  C  C1486  1  0.674400  0.091600  0.520500  1
  C  C1487  1  0.174400  0.591600  0.979500  1
  C  C1488  1  0.325600  0.908400  0.479500  1
  C  C1489  1  0.791400  0.394500  0.057300  1
  C  C1490  1  0.708600  0.105500  0.557300  1
  C  C1491  1  0.208600  0.605500  0.942700  1
  C  C1492  1  0.291400  0.894500  0.442700  1
  C  C1493  1  0.782700  0.408300  0.130100  1
  C  C1494  1  0.717300  0.091700  0.630100  1
  C  C1495  1  0.217300  0.591700  0.869900  1
  C  C1496  1  0.282700  0.908300  0.369900  1
  C  C1497  1  0.892900  0.378800  0.922900  1
  C  C1498  1  0.607100  0.121200  0.422900  1
  C  C1499  1  0.107100  0.621200  0.077100  1
  C  C1500  1  0.392900  0.878800  0.577100  1
  C  C1501  1  0.944100  0.351200  0.937900  1
  C  C1502  1  0.555900  0.148800  0.437900  1
  C  C1503  1  0.055900  0.648800  0.062100  1
  C  C1504  1  0.444100  0.851200  0.562100  1
  C  C1505  1  0.896500  0.294900  0.981900  1
  C  C1506  1  0.603500  0.205100  0.481900  1
  C  C1507  1  0.103500  0.705100  0.018100  1
  C  C1508  1  0.396500  0.794900  0.518100  1
  C  C1509  1  0.650900  0.417500  0.545400  1
  C  C1510  1  0.849100  0.082500  0.045400  1
  C  C1511  1  0.349100  0.582500  0.454600  1
  C  C1512  1  0.150900  0.917500  0.954600  1
  C  C1513  1  0.587900  0.396100  0.552500  1
  C  C1514  1  0.912100  0.103900  0.052500  1
  C  C1515  1  0.412100  0.603900  0.447500  1
  C  C1516  1  0.087900  0.896100  0.947500  1
  C  C1517  1  0.493800  0.372900  0.519100  1
  C  C1518  1  0.006200  0.127100  0.019100  1
  C  C1519  1  0.506200  0.627100  0.480900  1
  C  C1520  1  0.993800  0.872900  0.980900  1
  C  C1521  1  0.786000  0.358200  0.561000  1
  C  C1522  1  0.714000  0.141800  0.061000  1
  C  C1523  1  0.214000  0.641800  0.439000  1
  C  C1524  1  0.286000  0.858200  0.939000  1
  C  C1525  1  0.850500  0.347300  0.569400  1
  C  C1526  1  0.649500  0.152700  0.069400  1
  C  C1527  1  0.149500  0.652700  0.430600  1
  C  C1528  1  0.350500  0.847300  0.930600  1
  C  C1529  1  0.945500  0.367500  0.598400  1
  C  C1530  1  0.554500  0.132500  0.098400  1
  C  C1531  1  0.054500  0.632500  0.401600  1
  C  C1532  1  0.445500  0.867500  0.901600  1
  C  C1533  1  0.894200  0.472500  0.515700  1
  C  C1534  1  0.605800  0.027500  0.015700  1
  C  C1535  1  0.105800  0.527500  0.484300  1
  C  C1536  1  0.394200  0.972500  0.984300  1
  C  C1537  1  0.948400  0.449100  0.499200  1
  C  C1538  1  0.551600  0.050900  0.999200  1
  C  C1539  1  0.051600  0.550900  0.500800  1
  C  C1540  1  0.448400  0.949100  0.000800  1
  C  C1541  1  0.995100  0.377600  0.490200  1
  C  C1542  1  0.504900  0.122400  0.990200  1
  C  C1543  1  0.004900  0.622400  0.509800  1
  C  C1544  1  0.495100  0.877600  0.009800  1
  C  C1545  1  0.636000  0.841900  0.526300  1
  C  C1546  1  0.864000  0.658100  0.026300  1
  C  C1547  1  0.364000  0.158100  0.473700  1
  C  C1548  1  0.136000  0.341900  0.973700  1
  C  C1549  1  0.580500  0.812900  0.514400  1
  C  C1550  1  0.919500  0.687100  0.014400  1
  C  C1551  1  0.419500  0.187100  0.485600  1
  C  C1552  1  0.080500  0.312900  0.985600  1
  C  C1553  1  0.526800  0.738000  0.532900  1
  C  C1554  1  0.973200  0.762000  0.032900  1
  C  C1555  1  0.473200  0.262000  0.467100  1
  C  C1556  1  0.026800  0.238000  0.967100  1
  C  C1557  1  0.711400  0.966200  0.562300  1
  C  C1558  1  0.788600  0.533800  0.062300  1
  C  C1559  1  0.288600  0.033800  0.437700  1
  C  C1560  1  0.211400  0.466200  0.937700  1
  C  C1561  1  0.645600  0.970000  0.573500  1
  C  C1562  1  0.854400  0.530000  0.073500  1
  C  C1563  1  0.354400  0.030000  0.426500  1
  C  C1564  1  0.145600  0.470000  0.926500  1
  C  C1565  1  0.542800  0.969200  0.549600  1
  C  C1566  1  0.957200  0.530800  0.049600  1
  C  C1567  1  0.457200  0.030800  0.450400  1
  C  C1568  1  0.042800  0.469200  0.950400  1
  C  C1569  1  0.858400  0.950500  0.625800  1
  C  C1570  1  0.641600  0.549500  0.125800  1
  C  C1571  1  0.141600  0.049500  0.374200  1
  C  C1572  1  0.358400  0.450500  0.874200  1
  C  C1573  1  0.869600  0.999800  0.611100  1
  C  C1574  1  0.630400  0.500200  0.111100  1
  C  C1575  1  0.130400  0.000200  0.388900  1
  C  C1576  1  0.369600  0.499800  0.888900  1
  C  C1577  1  0.877000  0.002500  0.540600  1
  C  C1578  1  0.623000  0.497500  0.040600  1
  C  C1579  1  0.123000  0.997500  0.459400  1
  C  C1580  1  0.377000  0.502500  0.959400  1
  S  S1581  1  0.871400  0.625400  0.813340  1
  S  S1582  1  0.628600  0.874600  0.313340  1
  S  S1583  1  0.128600  0.374600  0.186660  1
  S  S1584  1  0.371400  0.125400  0.686660  1
  S  S1585  1  0.821700  0.685090  0.806900  1
  S  S1586  1  0.678300  0.814910  0.306900  1
  S  S1587  1  0.178300  0.314910  0.193100  1
  S  S1588  1  0.321700  0.185090  0.693100  1
  S  S1589  1  0.872800  0.733660  0.774580  1
  S  S1590  1  0.627200  0.766340  0.274580  1
  S  S1591  1  0.127200  0.266340  0.225420  1
  S  S1592  1  0.372800  0.233660  0.725420  1
  S  S1593  1  0.837100  0.734100  0.718120  1
  S  S1594  1  0.662900  0.765900  0.218120  1
  S  S1595  1  0.162900  0.265900  0.281880  1
  S  S1596  1  0.337100  0.234100  0.781880  1
  S  S1597  1  0.880200  0.687800  0.684490  1
  S  S1598  1  0.619800  0.812200  0.184490  1
  S  S1599  1  0.119800  0.312200  0.315510  1
  S  S1600  1  0.380200  0.187800  0.815510  1
  S  S1601  1  0.834300  0.622400  0.687340  1
  S  S1602  1  0.665700  0.877600  0.187340  1
  S  S1603  1  0.165700  0.377600  0.312660  1
  S  S1604  1  0.334300  0.122400  0.812660  1
  S  S1605  1  0.881200  0.579900  0.723700  1
  S  S1606  1  0.618800  0.920100  0.223700  1
  S  S1607  1  0.118800  0.420100  0.276300  1
  S  S1608  1  0.381200  0.079900  0.776300  1
  S  S1609  1  0.837800  0.574300  0.777510  1
  S  S1610  1  0.662200  0.925700  0.277510  1
  S  S1611  1  0.162200  0.425700  0.222490  1
  S  S1612  1  0.337800  0.074300  0.722490  1
  S  S1613  1  0.700000  0.627960  0.849410  1
  S  S1614  1  0.800000  0.872040  0.349410  1
  S  S1615  1  0.300000  0.372040  0.150590  1
  S  S1616  1  0.200000  0.127960  0.650590  1
  S  S1617  1  0.639860  0.682120  0.853400  1
  S  S1618  1  0.860140  0.817880  0.353400  1
  S  S1619  1  0.360140  0.317880  0.146600  1
  S  S1620  1  0.139860  0.182120  0.646600  1
  S  S1621  1  0.673200  0.735210  0.817000  1
  S  S1622  1  0.826800  0.764790  0.317000  1
  S  S1623  1  0.326800  0.264790  0.183000  1
  S  S1624  1  0.173200  0.235210  0.683000  1
  S  S1625  1  0.629200  0.730100  0.762970  1
  S  S1626  1  0.870800  0.769900  0.262970  1
  S  S1627  1  0.370800  0.269900  0.237030  1
  S  S1628  1  0.129200  0.230100  0.737030  1
  S  S1629  1  0.680700  0.695700  0.724620  1
  S  S1630  1  0.819300  0.804300  0.224620  1
  S  S1631  1  0.319300  0.304300  0.275380  1
  S  S1632  1  0.180700  0.195700  0.775380  1
  S  S1633  1  0.648000  0.626700  0.722680  1
  S  S1634  1  0.852000  0.873300  0.222680  1
  S  S1635  1  0.352000  0.373300  0.277320  1
  S  S1636  1  0.148000  0.126700  0.777320  1
  S  S1637  1  0.703100  0.591000  0.755990  1
  S  S1638  1  0.796900  0.909000  0.255990  1
  S  S1639  1  0.296900  0.409000  0.244010  1
  S  S1640  1  0.203100  0.091000  0.744010  1
  S  S1641  1  0.663200  0.578000  0.810890  1
  S  S1642  1  0.836800  0.922000  0.310890  1
  S  S1643  1  0.336800  0.422000  0.189110  1
  S  S1644  1  0.163200  0.078000  0.689110  1
  N  N1645  1  0.433300  0.701400  0.784800  1
  N  N1646  1  0.066700  0.798600  0.284800  1
  N  N1647  1  0.566700  0.298600  0.215200  1
  N  N1648  1  0.933300  0.201400  0.715200  1
  N  N1649  1  0.073000  0.705200  0.820800  1
  N  N1650  1  0.427000  0.794800  0.320800  1
  N  N1651  1  0.927000  0.294800  0.179200  1
  N  N1652  1  0.573000  0.205200  0.679200  1
  N  N1653  1  0.448000  0.618500  0.831500  1
  N  N1654  1  0.052000  0.881500  0.331500  1
  N  N1655  1  0.552000  0.381500  0.168500  1
  N  N1656  1  0.948000  0.118500  0.668500  1
  N  N1657  1  0.083400  0.620100  0.774400  1
  N  N1658  1  0.416600  0.879900  0.274400  1
  N  N1659  1  0.916600  0.379900  0.225600  1
  N  N1660  1  0.583400  0.120100  0.725600  1
  N  N1661  1  0.455300  0.564000  0.759300  1
  N  N1662  1  0.044700  0.936000  0.259300  1
  N  N1663  1  0.544700  0.436000  0.240700  1
  N  N1664  1  0.955300  0.064000  0.740700  1
  N  N1665  1  0.083800  0.677500  0.703500  1
  N  N1666  1  0.416200  0.822500  0.203500  1
  N  N1667  1  0.916200  0.322500  0.296500  1
  N  N1668  1  0.583800  0.177500  0.796500  1
  N  N1669  1  0.439300  0.646000  0.714900  1
  N  N1670  1  0.060700  0.854000  0.214900  1
  N  N1671  1  0.560700  0.354000  0.285100  1
  N  N1672  1  0.939300  0.146000  0.785100  1
  N  N1673  1  0.074400  0.760400  0.751500  1
  N  N1674  1  0.425600  0.739600  0.251500  1
  N  N1675  1  0.925600  0.239600  0.248500  1
  N  N1676  1  0.574400  0.260400  0.748500  1
  O  O1677  1  0.302100  0.605200  0.778200  1
  O  O1678  1  0.197900  0.894800  0.278200  1
  O  O1679  1  0.697900  0.394800  0.221800  1
  O  O1680  1  0.802100  0.105200  0.721800  1
  O  O1681  1  0.190700  0.451600  0.820900  1
  O  O1682  1  0.309300  0.048400  0.320900  1
  O  O1683  1  0.809300  0.548400  0.179100  1
  O  O1684  1  0.690700  0.951600  0.679100  1
  O  O1685  1  0.848100  0.339500  0.464800  1
  O  O1686  1  0.651900  0.160500  0.964800  1
  O  O1687  1  0.151900  0.660500  0.535200  1
  O  O1688  1  0.348100  0.839500  0.035200  1
  O  O1689  1  0.218900  0.718100  0.768300  1
  O  O1690  1  0.281100  0.781900  0.268300  1
  O  O1691  1  0.781100  0.281900  0.231700  1
  O  O1692  1  0.718900  0.218100  0.731700  1
  O  O1693  1  0.183000  0.823500  0.663600  1
  O  O1694  1  0.317000  0.676500  0.163600  1
  O  O1695  1  0.817000  0.176500  0.336400  1
  O  O1696  1  0.683000  0.323500  0.836400  1
  O  O1697  1  0.803500  0.983100  0.838500  1
  O  O1698  1  0.696500  0.516900  0.338500  1
  O  O1699  1  0.196500  0.016900  0.161500  1
  O  O1700  1  0.303500  0.483100  0.661500  1
  O  O1701  1  0.709000  0.109100  0.834000  1
  O  O1702  1  0.791000  0.390900  0.334000  1
  O  O1703  1  0.291000  0.890900  0.166000  1
  O  O1704  1  0.209000  0.609100  0.666000  1
  O  O1705  1  0.319300  0.740500  0.678600  1
  O  O1706  1  0.180700  0.759500  0.178600  1
  O  O1707  1  0.680700  0.259500  0.321400  1
  O  O1708  1  0.819300  0.240500  0.821400  1
  O  O1709  1  0.266000  0.497700  0.766600  1
  O  O1710  1  0.234000  0.002300  0.266600  1
  O  O1711  1  0.734000  0.502300  0.233400  1
  O  O1712  1  0.766000  0.997700  0.733400  1
  O  O1713  1  0.254900  0.815100  0.725000  1
  O  O1714  1  0.245100  0.684900  0.225000  1
  O  O1715  1  0.745100  0.184900  0.275000  1
  O  O1716  1  0.754900  0.315100  0.775000  1
  O  O1717  1  0.637200  0.908000  0.945900  1
  O  O1718  1  0.862800  0.592000  0.445900  1
  O  O1719  1  0.362800  0.092000  0.054100  1
  O  O1720  1  0.137200  0.408000  0.554100  1
  O  O1721  1  0.637400  0.008200  0.927800  1
  O  O1722  1  0.862600  0.491800  0.427800  1
  O  O1723  1  0.362600  0.991800  0.072200  1
  O  O1724  1  0.137400  0.508200  0.572200  1
  O  O1725  1  0.742400  0.915500  0.990000  1
  O  O1726  1  0.757600  0.584500  0.490000  1
  O  O1727  1  0.257600  0.084500  0.010000  1
  O  O1728  1  0.242400  0.415500  0.510000  1
  O  O1729  1  0.854900  0.978900  0.991000  1
  O  O1730  1  0.645100  0.521100  0.491000  1
  O  O1731  1  0.145100  0.021100  0.009000  1
  O  O1732  1  0.354900  0.478900  0.509000  1
  O  O1733  1  0.847000  0.869200  0.966600  1
  O  O1734  1  0.653000  0.630800  0.466600  1
  O  O1735  1  0.153000  0.130800  0.033400  1
  O  O1736  1  0.347000  0.369200  0.533400  1
  O  O1737  1  0.750700  0.794400  0.004400  1
  O  O1738  1  0.749300  0.705600  0.504400  1
  O  O1739  1  0.249300  0.205600  0.995600  1
  O  O1740  1  0.250700  0.294400  0.495600  1
  O  O1741  1  0.677400  0.439100  0.972000  1
  O  O1742  1  0.822600  0.060900  0.472000  1
  O  O1743  1  0.322600  0.560900  0.028000  1
  O  O1744  1  0.177400  0.939100  0.528000  1
  O  O1745  1  0.552900  0.406000  0.990500  1
  O  O1746  1  0.947100  0.094000  0.490500  1
  O  O1747  1  0.447100  0.594000  0.009500  1
  O  O1748  1  0.052900  0.906000  0.509500  1
  O  O1749  1  0.789100  0.394700  0.985700  1
  O  O1750  1  0.710900  0.105300  0.485700  1
  O  O1751  1  0.210900  0.605300  0.014300  1
  O  O1752  1  0.289100  0.894700  0.514300  1
  O  O1753  1  0.820700  0.404900  0.095000  1
  O  O1754  1  0.679300  0.095100  0.595000  1
  O  O1755  1  0.179300  0.595100  0.905000  1
  O  O1756  1  0.320700  0.904900  0.405000  1
  O  O1757  1  0.892200  0.424500  0.942500  1
  O  O1758  1  0.607800  0.075500  0.442500  1
  O  O1759  1  0.107800  0.575500  0.057500  1
  O  O1760  1  0.392200  0.924500  0.557500  1
  O  O1761  1  0.935200  0.337600  0.978900  1
  O  O1762  1  0.564800  0.162400  0.478900  1
  O  O1763  1  0.064800  0.662400  0.021100  1
  O  O1764  1  0.435200  0.837600  0.521100  1
  O  O1765  1  0.675500  0.419800  0.585800  1
  O  O1766  1  0.824500  0.080200  0.085800  1
  O  O1767  1  0.324500  0.580200  0.414200  1
  O  O1768  1  0.175500  0.919800  0.914200  1
  O  O1769  1  0.557500  0.390000  0.514700  1
  O  O1770  1  0.942500  0.110000  0.014700  1
  O  O1771  1  0.442500  0.610000  0.485300  1
  O  O1772  1  0.057500  0.890000  0.985300  1
  O  O1773  1  0.784000  0.404800  0.543200  1
  O  O1774  1  0.716000  0.095200  0.043200  1
  O  O1775  1  0.216000  0.595200  0.456800  1
  O  O1776  1  0.284000  0.904800  0.956800  1
  O  O1777  1  0.879500  0.370200  0.603600  1
  O  O1778  1  0.620500  0.129800  0.103600  1
  O  O1779  1  0.120500  0.629800  0.396400  1
  O  O1780  1  0.379500  0.870200  0.896400  1
  O  O1781  1  0.889200  0.461800  0.557900  1
  O  O1782  1  0.610800  0.038200  0.057900  1
  O  O1783  1  0.110800  0.538200  0.442100  1
  O  O1784  1  0.389200  0.961800  0.942100  1
  O  O1785  1  0.938400  0.398000  0.501700  1
  O  O1786  1  0.561600  0.102000  0.001700  1
  O  O1787  1  0.061600  0.602000  0.498300  1
  O  O1788  1  0.438400  0.898000  0.998300  1
  O  O1789  1  0.629500  0.853400  0.568290  1
  O  O1790  1  0.870500  0.646600  0.068290  1
  O  O1791  1  0.370500  0.146600  0.431710  1
  O  O1792  1  0.129500  0.353400  0.931710  1
  O  O1793  1  0.581400  0.769000  0.536500  1
  O  O1794  1  0.918600  0.731000  0.036500  1
  O  O1795  1  0.418600  0.231000  0.463500  1
  O  O1796  1  0.081400  0.269000  0.963500  1
  O  O1797  1  0.724900  0.918590  0.550410  1
  O  O1798  1  0.775100  0.581410  0.050410  1
  O  O1799  1  0.275100  0.081410  0.449590  1
  O  O1800  1  0.224900  0.418590  0.949590  1
  O  O1801  1  0.606000  0.963200  0.539200  1
  O  O1802  1  0.894000  0.536800  0.039200  1
  O  O1803  1  0.394000  0.036800  0.460800  1
  O  O1804  1  0.106000  0.463200  0.960800  1
  O  O1805  1  0.829400  0.921500  0.594500  1
  O  O1806  1  0.670600  0.578500  0.094500  1
  O  O1807  1  0.170600  0.078500  0.405500  1
  O  O1808  1  0.329400  0.421500  0.905500  1
  O  O1809  1  0.911000  0.002400  0.577400  1
  O  O1810  1  0.589000  0.497600  0.077400  1
  O  O1811  1  0.089000  0.997600  0.422600  1
  O  O1812  1  0.411000  0.502400  0.922600  1
