
#######################################################################
#
#                 Cambridge Crystallographic Data Centre
#                                CCDC 
#
#######################################################################
#
# If this CIF has been generated from an entry in the Cambridge 
# Structural Database, then it will include bibliographic, chemical, 
# crystal, experimental, refinement or atomic coordinate data resulting 
# from the CCDC's data processing and validation procedures.
#
#######################################################################

data_REJXEK
_chemical_formula_moiety         'C12 H14 B7 O3 Re1'
_chemical_name_systematic        
1,1,1-Tricarbonyl-2-phenyl-1-rhena-2,3,4-tricarba-closo-undecaborane(9)
_symmetry_cell_setting           monoclinic
_symmetry_space_group_name_H-M   'P 21/n'
_symmetry_Int_Tables_number      14
_space_group_name_Hall           '-P 2yn'
loop_
_symmetry_equiv_pos_site_id
_symmetry_equiv_pos_as_xyz
1 x,y,z
2 1/2-x,1/2+y,1/2-z
3 -x,-y,-z
4 1/2+x,1/2-y,1/2+z
_cell_length_a                   6.3488(4)
_cell_length_b                   15.1333(11)
_cell_length_c                   16.1255(13)
_cell_angle_alpha                90
_cell_angle_beta                 90.467(1)
_cell_angle_gamma                90
_cell_volume                     1549.26
_exptl_crystal_colour            gold
_chemical_melting_point          '99.5 deg.C'
_cell_formula_units_Z            4
_exptl_crystal_recrystallization_method n-pentane
loop_
_atom_site_label
_atom_site_type_symbol
_atom_site_fract_x
_atom_site_fract_y
_atom_site_fract_z
Re1 Re 0.42262(2) 0.558450(9) 0.802459(8)
C1 C 0.3760(6) 0.4150(3) 0.7885(2)
C2 C 0.3570(6) 0.5979(3) 0.6755(2)
H1 H 0.3887 0.6687 0.6665
C3 C 0.5137(6) 0.4256(3) 0.7127(2)
H2 H 0.6682 0.3930 0.7168
B1 B 0.1479(7) 0.4534(3) 0.7651(3)
H3 H 0.0181 0.4422 0.8086
B2 B 0.1354(9) 0.5592(3) 0.7001(3)
H4 H 0.0000 0.6037 0.7076
B3 B 0.5263(7) 0.5244(3) 0.6539(2)
H5 H 0.6811 0.5437 0.6297
B4 B 0.2729(6) 0.3690(3) 0.7015(2)
H6 H 0.2337 0.2986 0.6945
B5 B 0.2668(7) 0.5304(4) 0.6031(3)
H7 H 0.2250 0.5504 0.5395
B6 B 0.3850(7) 0.4280(3) 0.6196(3)
H8 H 0.4374 0.3906 0.5650
B7 B 0.1167(8) 0.4493(3) 0.6541(3)
H9 H -0.0327 0.4276 0.6257
C4 C 0.4269(6) 0.3518(3) 0.8575(2)
C5 C 0.6230(6) 0.3108(3) 0.8626(2)
H10 H 0.7256 0.3233 0.8234
C6 C 0.6652(7) 0.2512(3) 0.9261(2)
H11 H 0.7969 0.2245 0.9297
C7 C 0.5124(7) 0.2313(3) 0.9840(2)
H12 H 0.5403 0.1906 1.0258
C8 C 0.3189(7) 0.2721(3) 0.9792(2)
H13 H 0.2169 0.2593 1.0185
C9 C 0.2745(6) 0.3321(3) 0.9164(2)
H14 H 0.1431 0.3592 0.9136
C10 C 0.6071(6) 0.5232(3) 0.8956(2)
O1 O 0.7170(5) 0.5032(2) 0.94874(17)
C11 C 0.2293(6) 0.6065(3) 0.8803(2)
O2 O 0.1028(5) 0.6352(2) 0.92214(17)
C12 C 0.5833(6) 0.6685(3) 0.8058(2)
O3 O 0.6778(5) 0.7321(2) 0.80821(18)
loop_
_geom_bond_atom_site_label_1
_geom_bond_atom_site_label_2
_geom_bond_site_symmetry_1
_geom_bond_site_symmetry_2
Re1 C1 1_555 1_555
C1 C3 1_555 1_555
C2 Re1 1_555 1_555
H1 C2 1_555 1_555
C3 Re1 1_555 1_555
H2 C3 1_555 1_555
B1 Re1 1_555 1_555
H3 B1 1_555 1_555
B2 Re1 1_555 1_555
H4 B2 1_555 1_555
B3 Re1 1_555 1_555
H5 B3 1_555 1_555
B4 C1 1_555 1_555
H6 B4 1_555 1_555
B5 C2 1_555 1_555
H7 B5 1_555 1_555
B6 C3 1_555 1_555
H8 B6 1_555 1_555
B7 B1 1_555 1_555
H9 B7 1_555 1_555
C4 C1 1_555 1_555
C5 C4 1_555 1_555
H10 C5 1_555 1_555
C6 C5 1_555 1_555
H11 C6 1_555 1_555
C7 C6 1_555 1_555
H12 C7 1_555 1_555
C8 C7 1_555 1_555
H13 C8 1_555 1_555
C9 C4 1_555 1_555
H14 C9 1_555 1_555
C10 Re1 1_555 1_555
O1 C10 1_555 1_555
C11 Re1 1_555 1_555
O2 C11 1_555 1_555
C12 Re1 1_555 1_555
O3 C12 1_555 1_555
C1 B1 1_555 1_555
C2 B2 1_555 1_555
C2 B3 1_555 1_555
C3 B3 1_555 1_555
C3 B4 1_555 1_555
B1 B2 1_555 1_555
B1 B4 1_555 1_555
B2 B5 1_555 1_555
B2 B7 1_555 1_555
B3 B5 1_555 1_555
B3 B6 1_555 1_555
B4 B6 1_555 1_555
B4 B7 1_555 1_555
B5 B6 1_555 1_555
B5 B7 1_555 1_555
B6 B7 1_555 1_555
C8 C9 1_555 1_555

#END
