
#######################################################################
#
#                 Cambridge Crystallographic Data Centre
#                                CCDC 
#
#######################################################################
#
# If this CIF has been generated from an entry in the Cambridge 
# Structural Database, then it will include bibliographic, chemical, 
# crystal, experimental, refinement or atomic coordinate data resulting 
# from the CCDC's data processing and validation procedures.
#
#######################################################################

data_RENGID
_chemical_formula_moiety         
'C94 H87 Cl3 N11 O14 Ru1,1.67(C2 H6 O1),0.9(H2 O1)'
_chemical_name_systematic        
"(2,8,14,20-tetraethyl-4,24:6,10:12,16-O,O'-tris(4,5-dipropanamidobenzene-1,2-diyl)-18,22-O,O'-(2-([1^2^,2^2^:2^6^,3^2^-terpyridin]-2^4^-yl)-1H-benzimidazole-5,6-diyl)calix[4]resorcinarene)-trichloro-ruthenium(iii) ethanol unknown solvate hydrate"
_symmetry_cell_setting           orthorhombic
_symmetry_space_group_name_H-M   'P b c n'
_symmetry_Int_Tables_number      60
_space_group_name_Hall           '-P 2n 2ab'
loop_
_symmetry_equiv_pos_site_id
_symmetry_equiv_pos_as_xyz
1 x,y,z
2 1/2-x,1/2-y,1/2+z
3 -x,y,1/2-z
4 1/2+x,1/2-y,-z
5 -x,-y,-z
6 1/2+x,1/2+y,1/2-z
7 x,-y,1/2+z
8 1/2-x,1/2+y,z
_cell_length_a                   67.017(3)
_cell_length_b                   31.4138(15)
_cell_length_c                   32.1376(17)
_cell_angle_alpha                90
_cell_angle_beta                 90
_cell_angle_gamma                90
_cell_volume                     67658
_exptl_crystal_colour            purple
_exptl_crystal_description       prism
_cell_formula_units_Z            24
loop_
_atom_site_label
_atom_site_type_symbol
_atom_site_fract_x
_atom_site_fract_y
_atom_site_fract_z
Ru1 Ru -0.04996(2) 0.58206(2) 0.31023(2)
Cl1 Cl -0.02140(3) 0.59331(7) 0.35112(6)
Cl2 Cl -0.06941(3) 0.62742(7) 0.35296(6)
Cl3 Cl -0.07663(3) 0.56623(7) 0.26603(6)
C1 C 0.01495(6) 0.39193(13) 0.07519(10)
C2 C 0.00676(6) 0.43134(12) 0.08493(12)
H1 H 0.0059 0.4529 0.0642
C3 C -0.00017(7) 0.43927(11) 0.12495(13)
C4 C 0.00110(7) 0.40779(14) 0.15523(10)
C5 C 0.00929(7) 0.36838(13) 0.14549(12)
H2 H 0.0102 0.3469 0.1662
C6 C 0.01622(6) 0.36045(11) 0.10547(13)
C7 C -0.01102(10) 0.4632(2) 0.1836(2)
C8 C -0.01925(10) 0.4926(2) 0.2146(2)
C9 C -0.01819(10) 0.5363(2) 0.2094(2)
H3 H -0.0119 0.5481 0.1856
C10 C -0.02622(10) 0.5618(2) 0.2385(2)
C11 C -0.03560(10) 0.5024(2) 0.2794(2)
C12 C -0.02764(10) 0.4755(2) 0.2508(2)
H4 H -0.0278 0.4456 0.2552
C13 C -0.02771(11) 0.6084(2) 0.2376(2)
C14 C -0.01833(10) 0.6352(2) 0.2086(2)
H5 H -0.0107 0.6227 0.1867
C15 C -0.01973(12) 0.6779(3) 0.2107(3)
H6 H -0.0137 0.6956 0.1902
C16 C -0.03048(12) 0.6957(3) 0.2445(3)
H7 H -0.0312 0.7256 0.2483
C17 C -0.03979(12) 0.6686(3) 0.2714(3)
H8 H -0.0475 0.6806 0.2932
C18 C -0.04562(10) 0.4916(2) 0.3196(2)
C19 C -0.04653(10) 0.4500(3) 0.3344(2)
H9 H -0.0408 0.4272 0.3191
C20 C -0.05603(11) 0.4427(3) 0.3723(2)
H10 H -0.0572 0.4146 0.3830
C21 C -0.06384(10) 0.4778(3) 0.3944(2)
H11 H -0.0698 0.4738 0.4210
C22 C -0.06276(10) 0.5177(3) 0.3771(2)
H12 H -0.0684 0.5410 0.3918
C23 C 0.05662(11) 0.3373(2) 0.0339(2)
H13 H 0.0429 0.3256 0.0292
C24 C 0.07075(11) 0.3107(2) 0.0072(2)
H14 H 0.0847 0.3193 0.0126
H15 H 0.0679 0.3156 -0.0226
C25 C 0.06806(13) 0.2633(2) 0.0176(3)
H16 H 0.0707 0.2587 0.0472
H17 H 0.0774 0.2464 0.0009
H18 H 0.0543 0.2547 0.0112
C26 C 0.06081(10) 0.3333(2) 0.0804(2)
C27 C 0.04606(11) 0.3227(2) 0.1085(2)
C28 C 0.05101(11) 0.3130(2) 0.1499(2)
H19 H 0.0409 0.3042 0.1687
C29 C 0.07008(11) 0.3161(2) 0.1629(2)
C30 C 0.08540(10) 0.3289(2) 0.1362(2)
C31 C 0.08041(11) 0.3365(2) 0.0952(2)
H20 H 0.0907 0.3441 0.0763
O1 O 0.0733(3) 0.2956(6) 0.2017(7)
O2 O 0.0812(3) 0.3953(6) 0.2026(7)
C32 C 0.0845(4) 0.3257(9) 0.2335(10)
C33 C 0.0862(4) 0.2915(9) 0.2665(9)
H21 H 0.0813 0.2632 0.2644
C34 C 0.0968(6) 0.3103(8) 0.3032(7)
C35 C 0.1032(4) 0.3513(7) 0.3052(6)
C36 C 0.1008(4) 0.3789(10) 0.2688(10)
H22 H 0.1072 0.4059 0.2681
C37 C 0.0897(5) 0.3666(9) 0.2368(10)
N1 N 0.1018(3) 0.2860(5) 0.3387(5)
H23 H 0.1137 0.2888 0.3497
O3 O 0.07348(18) 0.2489(5) 0.3392(4)
C38 C 0.0887(2) 0.2587(6) 0.3562(4)
C39 C 0.0950(2) 0.2399(7) 0.3977(5)
H24 H 0.1043 0.2597 0.4116
H25 H 0.1022 0.2128 0.3926
C40 C 0.0772(3) 0.2312(9) 0.4268(5)
H26 H 0.0678 0.2551 0.4254
H27 H 0.0821 0.2281 0.4554
H28 H 0.0705 0.2050 0.4181
N2 N 0.1099(3) 0.3734(6) 0.3410(4)
H29 H 0.1208 0.3885 0.3372
O4 O 0.0893(3) 0.3503(6) 0.3895(7)
C41 C 0.1023(2) 0.3755(5) 0.3803(4)
C42 C 0.1143(2) 0.4060(6) 0.4086(5)
H30 H 0.1084 0.4348 0.4074
H31 H 0.1136 0.3959 0.4378
C43 C 0.13623(19) 0.4079(8) 0.3946(8)
H32 H 0.1381 0.3894 0.3703
H33 H 0.1449 0.3982 0.4172
H34 H 0.1397 0.4372 0.3872
C44 C 0.10720(10) 0.3367(2) 0.1516(2)
H35 H 0.1083 0.3256 0.1806
C45 C 0.12257(11) 0.3133(2) 0.1244(2)
H36 H 0.1211 0.3223 0.0951
H37 H 0.1362 0.3207 0.1337
C46 C 0.11944(11) 0.2651(2) 0.1278(2)
H38 H 0.1203 0.2564 0.1570
H39 H 0.1298 0.2503 0.1117
H40 H 0.1063 0.2577 0.1168
C47 C 0.10972(10) 0.3849(2) 0.1528(2)
C48 C 0.09729(10) 0.4096(2) 0.1785(2)
C49 C 0.09759(10) 0.4533(2) 0.1779(2)
H41 H 0.0890 0.4692 0.1956
C50 C 0.11033(10) 0.4735(2) 0.1516(2)
C51 C 0.12384(10) 0.4509(2) 0.1255(2)
C52 C 0.12310(10) 0.4072(2) 0.1277(2)
H42 H 0.1322 0.3913 0.1112
C53 C 0.12558(11) 0.5399(2) 0.1625(2)
C54 C 0.13132(11) 0.5362(2) 0.2024(2)
H43 H 0.1238 0.5191 0.2210
C55 C 0.14834(11) 0.5574(2) 0.2165(2)
C56 C 0.15955(12) 0.5805(2) 0.1879(3)
C57 C 0.15318(11) 0.5853(2) 0.1479(2)
H44 H 0.1605 0.6025 0.1291
C58 C 0.13595(11) 0.5648(2) 0.1348(2)
C59 C 0.14637(11) 0.5331(3) 0.28970(18)
C60 C 0.15657(12) 0.5360(3) 0.33127(19)
H45 H 0.1614 0.5654 0.3354
H46 H 0.1683 0.5169 0.3312
C61 C 0.14295(14) 0.5239(4) 0.3678(2)
H47 H 0.1303 0.5395 0.3656
H48 H 0.1495 0.5312 0.3941
H49 H 0.1403 0.4932 0.3671
C62 C 0.18702(10) 0.6339(2) 0.1907(3)
C63 C 0.20821(10) 0.6395(2) 0.2057(3)
H50 H 0.2174 0.6275 0.1848
H51 H 0.2100 0.6233 0.2319
C64 C 0.21375(13) 0.6863(2) 0.2135(4)
H52 H 0.2276 0.6880 0.2232
H53 H 0.2123 0.7025 0.1876
H54 H 0.2049 0.6983 0.2347
C65 C 0.13674(11) 0.4749(2) 0.0955(2)
H55 H 0.1446 0.4958 0.1122
C66 C 0.15187(10) 0.4475(2) 0.0713(2)
H56 H 0.1444 0.4237 0.0584
H57 H 0.1572 0.4652 0.0483
C67 C 0.16853(18) 0.4297(4) 0.0932(4)
H58 H 0.1758 0.4525 0.1074
H59 H 0.1774 0.4155 0.0733
H60 H 0.1637 0.4090 0.1137
C68 C 0.12295(10) 0.5011(2) 0.0670(2)
C69 C 0.11969(10) 0.5437(2) 0.0696(2)
C70 C 0.10506(11) 0.5634(2) 0.0447(2)
H61 H 0.1021 0.5927 0.0483
C71 C 0.09512(10) 0.5405(2) 0.0155(2)
C72 C 0.09842(10) 0.4983(2) 0.0095(2)
C73 C 0.11223(9) 0.4789(2) 0.0358(2)
H62 H 0.1146 0.4492 0.0327
C74 C 0.06222(10) 0.5699(2) 0.0070(2)
C75 C 0.05921(11) 0.6070(2) 0.0296(2)
H63 H 0.0699 0.6263 0.0344
C76 C 0.03994(11) 0.6154(2) 0.0453(2)
C77 C 0.02453(9) 0.5879(2) 0.0373(2)
C78 C 0.02829(11) 0.5507(2) 0.0135(2)
H64 H 0.0177 0.5314 0.0079
C79 C 0.04690(10) 0.5425(2) -0.0014(2)
C80 C 0.04226(13) 0.6918(2) 0.0599(2)
C81 C 0.03886(16) 0.7276(2) 0.0901(3)
H65 H 0.0323 0.7512 0.0750
H66 H 0.0520 0.7381 0.0995
C82 C 0.02648(19) 0.7177(4) 0.1284(3)
H67 H 0.0253 0.7433 0.1456
H68 H 0.0132 0.7082 0.1198
H69 H 0.0330 0.6951 0.1444
C83 C -0.00754(8) 0.5726(2) 0.0723(2)
C84 C -0.02641(9) 0.5950(2) 0.0878(2)
H70 H -0.0227 0.6172 0.1083
H71 H -0.0331 0.6092 0.0641
C85 C -0.04092(10) 0.5637(3) 0.1081(3)
H72 H -0.0414 0.5374 0.0917
H73 H -0.0543 0.5764 0.1093
H74 H -0.0364 0.5571 0.1364
C86 C 0.08874(11) 0.4731(2) -0.0255(2)
H75 H 0.0834 0.4946 -0.0456
C87 C 0.10397(11) 0.4459(2) -0.0501(2)
H76 H 0.1155 0.4640 -0.0577
H77 H 0.1089 0.4228 -0.0319
C88 C 0.09587(15) 0.4273(4) -0.0873(3)
H78 H 0.0851 0.4075 -0.0800
H79 H 0.1064 0.4119 -0.1022
H80 H 0.0906 0.4499 -0.1053
C89 C 0.07118(10) 0.4490(2) -0.0095(2)
C90 C 0.05258(11) 0.4669(2) -0.0089(2)
C91 C 0.03553(10) 0.4457(2) 0.0069(2)
H81 H 0.0229 0.4593 0.0071
C92 C 0.03774(10) 0.4052(2) 0.0219(2)
C93 C 0.05596(10) 0.3842(2) 0.0209(2)
C94 C 0.07226(10) 0.4063(2) 0.0051(2)
H82 H 0.0848 0.3921 0.0039
N3 N -0.00739(8) 0.47414(19) 0.14304(18)
N4 N -0.00596(8) 0.42212(19) 0.19225(18)
N5 N -0.03878(9) 0.6273(2) 0.26908(19)
N6 N -0.03447(8) 0.5441(2) 0.27336(18)
N7 N -0.05392(8) 0.5249(2) 0.33952(19)
N8 N 0.15500(9) 0.55498(19) 0.25817(17)
H83 H 0.1659 0.5692 0.2643
N9 N 0.17892(9) 0.59530(18) 0.2007(2)
H84 H 0.1861 0.5781 0.2162
N10 N 0.03695(10) 0.65195(16) 0.0710(2)
H85 H 0.0313 0.6483 0.0954
N11 N 0.00512(7) 0.59874(19) 0.05179(18)
H86 H 0.0010 0.6249 0.0470
O5 O 0.02640(7) 0.32280(15) 0.09601(16)
O6 O 0.10867(7) 0.51859(15) 0.14835(15)
O7 O 0.13103(7) 0.57224(15) 0.09345(16)
O8 O 0.08131(7) 0.56223(15) -0.01028(15)
O9 O 0.05007(7) 0.50732(15) -0.02750(14)
O10 O 0.02139(7) 0.38272(16) 0.03541(15)
O11 O 0.13121(11) 0.5130(3) 0.2856(2)
O12 O 0.17744(9) 0.66268(19) 0.1743(2)
O13 O 0.04956(11) 0.7002(2) 0.0256(2)
O14 O -0.00466(7) 0.53472(16) 0.07728(17)
O15 O 0.03962(19) 0.3671(4) 0.4217(6)
H87 H 0.0313 0.3492 0.4302
C95 C 0.0589(2) 0.3482(6) 0.4206(7)
H88 H 0.0691 0.3694 0.4288
H89 H 0.0620 0.3383 0.3921
C96 C 0.0592(3) 0.3107(5) 0.4508(7)
H90 H 0.0628 0.3208 0.4786
H91 H 0.0690 0.2897 0.4414
H92 H 0.0459 0.2976 0.4516
Ru2 Ru 0.14985(2) 0.68839(2) 0.31009(2)
Cl4 Cl 0.12408(3) 0.73665(6) 0.32467(5)
Cl5 Cl 0.13515(3) 0.63545(6) 0.35365(6)
Cl6 Cl 0.17694(2) 0.64408(5) 0.29627(6)
C97 C 0.21859(10) 0.8984(2) 0.0955(3)
C98 C 0.20800(10) 0.8612(2) 0.0986(2)
H93 H 0.2047 0.8450 0.0747
C99 C 0.20225(10) 0.8480(2) 0.1383(2)
C100 C 0.20815(10) 0.8702(2) 0.1744(3)
C101 C 0.21824(10) 0.9102(2) 0.1715(3)
H94 H 0.2217 0.9263 0.1955
C102 C 0.22262(10) 0.9239(2) 0.1326(3)
C103 C 0.19130(10) 0.8165(2) 0.1948(2)
C104 C 0.18115(9) 0.7865(2) 0.2215(2)
C105 C 0.16645(9) 0.7584(2) 0.2055(2)
H95 H 0.1629 0.7586 0.1769
C106 C 0.15749(10) 0.7305(2) 0.2333(2)
C107 C 0.17597(9) 0.75664(19) 0.2898(2)
C108 C 0.18539(10) 0.7853(2) 0.2641(2)
H96 H 0.1949 0.8045 0.2755
C109 C 0.14182(9) 0.6990(2) 0.2229(2)
C110 C 0.13355(9) 0.6948(2) 0.1828(2)
H97 H 0.1378 0.7124 0.1605
C111 C 0.11908(10) 0.6644(2) 0.1772(2)
H98 H 0.1129 0.6616 0.1507
C112 C 0.11326(11) 0.6378(2) 0.2093(2)
H99 H 0.1034 0.6165 0.2053
C113 C 0.12242(10) 0.6434(2) 0.2475(2)
H100 H 0.1187 0.6254 0.2699
C114 C 0.17867(9) 0.75161(19) 0.3352(2)
C115 C 0.19166(10) 0.7768(2) 0.3587(2)
H101 H 0.1997 0.7981 0.3461
C116 C 0.19246(11) 0.7693(2) 0.4016(2)
H102 H 0.2013 0.7856 0.4184
C117 C 0.18043(10) 0.7383(2) 0.4197(2)
H103 H 0.1808 0.7335 0.4489
C118 C 0.16787(10) 0.7145(2) 0.3942(2)
H104 H 0.1595 0.6935 0.4064
C119 C 0.21998(11) 1.0011(2) 0.0468(3)
H105 H 0.2330 0.9871 0.0537
C120 C 0.22511(12) 1.0406(2) 0.0202(3)
H106 H 0.2331 1.0608 0.0370
H107 H 0.2126 1.0553 0.0119
C121 C 0.23699(16) 1.0280(3) -0.0195(4)
H108 H 0.2400 1.0536 -0.0357
H109 H 0.2495 1.0140 -0.0114
H110 H 0.2290 1.0085 -0.0364
C122 C 0.21035(11) 1.0142(2) 0.0890(3)
C123 C 0.21694(11) 0.9965(2) 0.1271(3)
C124 C 0.20951(11) 1.0095(2) 0.1639(3)
H111 H 0.2146 0.9979 0.1891
C125 C 0.19476(12) 1.0394(2) 0.1651(3)
C126 C 0.18625(11) 1.0565(2) 0.1285(3)
C127 C 0.19512(10) 1.0425(2) 0.0913(3)
H112 H 0.1900 1.0536 0.0660
C128 C 0.17091(14) 1.0594(2) 0.2227(3)
C129 C 0.17081(15) 1.0841(3) 0.2579(3)
H113 H 0.1828 1.0962 0.2682
C130 C 0.15297(16) 1.0909(3) 0.2782(3)
C131 C 0.13539(13) 1.0734(3) 0.2632(3)
C132 C 0.13541(15) 1.0491(3) 0.2280(3)
H114 H 0.1234 1.0376 0.2171
C133 C 0.15430(13) 1.0412(3) 0.2079(3)
N12 N 0.15217(12) 1.1166(2) 0.3144(2)
H115 H 0.1460 1.1063 0.3364
C134 C 0.16027(15) 1.1559(2) 0.3172(2)
C135 C 0.15743(16) 1.1771(3) 0.3588(3)
H116 H 0.1557 1.1545 0.3800
H117 H 0.1448 1.1935 0.3578
C136 C 0.17385(19) 1.2066(4) 0.3733(4)
H118 H 0.1703 1.2183 0.4006
H119 H 0.1864 1.1906 0.3756
H120 H 0.1755 1.2298 0.3533
N13 N 0.11646(18) 1.0752(4) 0.2824(4)
H121 H 0.1062 1.0818 0.2665
O16 O 0.12583(19) 1.0616(3) 0.3479(4)
C137 C 0.11260(16) 1.06754(17) 0.3232(3)
C138 C 0.09053(17) 1.0672(5) 0.3340(4)
H122 H 0.0852 1.0382 0.3296
H123 H 0.0834 1.0866 0.3147
C139 C 0.0860(3) 1.0808(8) 0.3787(4)
H124 H 0.0716 1.0799 0.3835
H125 H 0.0927 1.0614 0.3981
H126 H 0.0909 1.1099 0.3832
C140 C 0.16878(11) 1.0858(2) 0.1284(3)
H127 H 0.1665 1.0948 0.1579
C141 C 0.17186(11) 1.1266(2) 0.1025(2)
H128 H 0.1854 1.1379 0.1079
H129 H 0.1709 1.1195 0.0726
C142 C 0.15655(13) 1.1608(2) 0.1127(3)
H130 H 0.1591 1.1860 0.0956
H131 H 0.1431 1.1499 0.1069
H132 H 0.1576 1.1684 0.1422
C143 C 0.15030(11) 1.0598(2) 0.1148(2)
C144 C 0.14380(11) 1.0257(2) 0.1390(2)
C145 C 0.12898(11) 0.9988(2) 0.1262(2)
H133 H 0.1252 0.9752 0.1430
C146 C 0.11945(11) 1.0063(2) 0.0885(3)
C147 C 0.12494(10) 1.0401(2) 0.0625(2)
C148 C 0.14026(10) 1.0671(2) 0.0772(2)
H134 H 0.1439 1.0911 0.0609
C149 C 0.08723(9) 0.9853(5) 0.07247(18)
C150 C 0.07751(9) 0.9983(5) 0.1086(2)
H135 H 0.0845 1.0005 0.1343
C151 C 0.05658(9) 1.0082(5) 0.10594(16)
C152 C 0.04702(8) 1.0070(6) 0.06756(17)
C153 C 0.05779(9) 0.9953(5) 0.0312(2)
H136 H 0.0515 0.9942 0.0047
C154 C 0.07794(9) 0.9856(5) 0.03610(18)
C155 C 0.04936(19) 1.0090(3) 0.18234(16)
C156 C 0.0399(2) 1.0381(4) 0.21465(19)
H137 H 0.0252 1.0370 0.2118
H138 H 0.0442 1.0678 0.2094
C157 C 0.0457(4) 1.0255(7) 0.25948(19)
H139 H 0.0394 1.0449 0.2793
H140 H 0.0415 0.9962 0.2653
H141 H 0.0603 1.0274 0.2621
C158 C 0.01370(6) 1.0083(3) 0.0990(2)
C159 C -0.00726(7) 1.0262(2) 0.0898(3)
H142 H -0.0135 1.0358 0.1161
H143 H -0.0061 1.0512 0.0712
C160 C -0.0207 0.9925 0.0691
H144 H -0.0339 1.0048 0.0639
H145 H -0.0147 0.9838 0.0426
H146 H -0.0220 0.9676 0.0873
N14 N 0.04718(15) 1.0223(4) 0.14260(14)
H147 H 0.0385 1.0431 0.1391
N15 N 0.02633(8) 1.0135(5) 0.0662(2)
H148 H 0.0211 1.0215 0.0423
O17 O 0.10743(10) 0.9741(4) 0.0759(3)
O18 O 0.08694(14) 0.9688(4) -0.0007(2)
O19 O 0.05958(19) 0.9794(3) 0.1939(4)
O20 O 0.0142(2) 0.9803(4) 0.1249(3)
C161 C 0.11528(11) 1.0446(2) 0.0197(2)
H149 H 0.1005 1.0445 0.0237
C162 C 0.12073(11) 1.0856(2) -0.0032(3)
H150 H 0.1172 1.1103 0.0144
H151 H 0.1353 1.0863 -0.0079
C163 C 0.11010(14) 1.0894(3) -0.0449(3)
H152 H 0.1140 1.1160 -0.0584
H153 H 0.1138 1.0653 -0.0626
H154 H 0.0956 1.0893 -0.0404
C164 C 0.12079(11) 1.0044(2) -0.0050(2)
C165 C 0.10785(11) 0.9701(3) -0.0113(3)
C166 C 0.11387(11) 0.9350(3) -0.0305(3)
H155 H 0.1048 0.9120 -0.0344
C167 C 0.13348(12) 0.9314(2) -0.0450(2)
C168 C 0.14664(11) 0.9643(2) -0.0408(2)
C169 C 0.13998(11) 0.9996(2) -0.0202(2)
H156 H 0.1491 1.0223 -0.0160
C170 C 0.14468(4) 0.85984(8) -0.03930(9)
C171 C 0.12944(4) 0.83408(8) -0.02415(8)
H157 H 0.1158 0.8404 -0.0293
C172 C 0.13526(3) 0.79730(7) -0.00024(7)
C173 C 0.15520(3) 0.78773(7) 0.00681(7)
C174 C 0.17018(4) 0.81559(8) -0.00885(9)
H158 H 0.1840 0.8104 -0.0044
C175 C 0.16355(4) 0.85097(8) -0.03110(9)
C176 C 0.11557(4) 0.73191(9) 0.00816(10)
C177 C 0.09789(5) 0.71277(11) 0.03101(14)
H159 H 0.0911 0.6920 0.0126
H160 H 0.0882 0.7356 0.0376
C178 C 0.10410(6) 0.69019(12) 0.07170(14)
H161 H 0.0922 0.6784 0.0853
H162 H 0.1135 0.6671 0.0653
H163 H 0.1105 0.7107 0.0903
C179 C 0.17284(5) 0.74914(9) 0.06105(10)
C180 C 0.17429(6) 0.70520(10) 0.08175(13)
H164 H 0.1657 0.6849 0.0666
H165 H 0.1693 0.7072 0.1107
C181 C 0.19587(6) 0.68817(13) 0.08216(17)
H166 H 0.1962 0.6602 0.0956
H167 H 0.2008 0.6856 0.0535
H168 H 0.2044 0.7079 0.0976
N16 N 0.11890(4) 0.77338(8) 0.01614(9)
H169 H 0.1104 0.7867 0.0326
N17 N 0.16002(8) 0.75050(14) 0.02863(15)
H170 H 0.1544 0.7265 0.0207
O21 O 0.13907(8) 0.89374(14) -0.06519(15)
O22 O 0.17890(7) 0.87679(14) -0.04905(16)
O23 O 0.12762(8) 0.70851(17) -0.0087(2)
O24 O 0.18290(7) 0.77793(14) 0.07441(17)
C182 C 0.16705(11) 0.9623(2) -0.0612(2)
H171 H 0.1664 0.9390 -0.0824
C183 C 0.17160(11) 1.0046(2) -0.0856(3)
H172 H 0.1713 1.0287 -0.0657
H173 H 0.1853 1.0028 -0.0972
C184 C 0.15724(13) 1.0140(3) -0.1206(3)
H174 H 0.1611 1.0407 -0.1342
H175 H 0.1576 0.9908 -0.1409
H176 H 0.1437 1.0166 -0.1094
C185 C 0.18291(11) 0.9499(2) -0.0306(2)
C186 C 0.18785(11) 0.9074(2) -0.0240(2)
C187 C 0.20222(11) 0.8954(2) 0.0052(2)
H177 H 0.2059 0.8663 0.0084
C188 C 0.21080(11) 0.9261(2) 0.0288(3)
C189 C 0.20757(10) 0.9681(2) 0.0233(2)
C190 C 0.19338(10) 0.9806(2) -0.0057(2)
H178 H 0.1905 1.0100 -0.0091
N18 N 0.19162(8) 0.81441(17) 0.15190(19)
H179 H 0.1859 0.7948 0.1363
N19 N 0.20107(9) 0.84941(17) 0.2086(2)
N20 N 0.13614(7) 0.67296(17) 0.25414(17)
N21 N 0.16216(8) 0.73078(15) 0.27339(16)
N22 N 0.16717(8) 0.72033(17) 0.35274(17)
O25 O 0.22547(7) 0.91377(14) 0.05820(17)
O26 O 0.23186(7) 0.96321(16) 0.12615(18)
O27 O 0.19009(9) 1.05443(17) 0.20523(18)
O28 O 0.15436(8) 1.01391(16) 0.17432(17)
O29 O 0.16983(10) 1.1717(2) 0.28854(19)
Ru3 Ru 0.11513(2) 0.84473(2) 0.13569(2)
Cl7 Cl 0.13596(3) 0.78810(6) 0.11560(6)
Cl8 Cl 0.09683(3) 0.84222(7) 0.07211(7)
Cl9 Cl 0.09585(3) 0.90163(7) 0.15921(7)
C191 C 0.17870(11) 0.8714(2) 0.4370(2)
C192 C 0.16075(11) 0.8613(2) 0.4163(2)
H180 H 0.1489 0.8535 0.4308
C193 C 0.16166(10) 0.8637(2) 0.3725(2)
C194 C 0.17848(10) 0.8781(2) 0.3521(2)
C195 C 0.19568(11) 0.8886(2) 0.3740(2)
H181 H 0.2072 0.8989 0.3601
C196 C 0.19523(10) 0.8835(2) 0.4170(2)
C197 C 0.15689(11) 0.8630(2) 0.3052(2)
C198 C 0.14678(10) 0.8573(2) 0.2649(2)
C199 C 0.13098(9) 0.8291(2) 0.2600(2)
H182 H 0.1264 0.8128 0.2829
C200 C 0.12207(10) 0.8250(2) 0.2215(2)
C201 C 0.14475(9) 0.8747(2) 0.1918(2)
C202 C 0.15412(10) 0.8790(2) 0.2305(2)
H183 H 0.1655 0.8967 0.2332
C203 C 0.10506(10) 0.7972(2) 0.2096(2)
C204 C 0.09734(12) 0.7672(3) 0.2357(3)
H184 H 0.1018 0.7649 0.2637
C205 C 0.08288(14) 0.7401(3) 0.2201(3)
H185 H 0.0771 0.7187 0.2372
C206 C 0.07701(15) 0.7446(3) 0.1799(3)
H186 H 0.0676 0.7252 0.1685
C207 C 0.08447(13) 0.7765(3) 0.1554(3)
H187 H 0.0795 0.7808 0.1280
C208 C 0.15031(9) 0.8952(2) 0.1526(2)
C209 C 0.16565(10) 0.9230(2) 0.1470(2)
H188 H 0.1735 0.9313 0.1702
C210 C 0.16984(11) 0.9390(2) 0.1081(2)
H189 H 0.1811 0.9569 0.1040
C211 C 0.15765(10) 0.9290(2) 0.0751(2)
H190 H 0.1600 0.9405 0.0482
C212 C 0.14174(11) 0.9014(2) 0.0824(2)
H191 H 0.1335 0.8935 0.0597
C213 C 0.21427(11) 0.8339(2) 0.5133(2)
H192 H 0.2112 0.8650 0.5147
C214 C 0.22675(10) 0.8232(2) 0.5509(2)
H193 H 0.2307 0.7928 0.5494
H194 H 0.2185 0.8270 0.5762
C215 C 0.24566(12) 0.8504(3) 0.5551(4)
H195 H 0.2522 0.8442 0.5817
H196 H 0.2420 0.8807 0.5541
H197 H 0.2548 0.8439 0.5322
C216 C 0.22588(10) 0.8262(2) 0.4722(2)
C217 C 0.22560(10) 0.8548(2) 0.4394(2)
C218 C 0.23775(10) 0.8482(2) 0.4044(2)
H198 H 0.2377 0.8680 0.3821
C219 C 0.24964(10) 0.8131(2) 0.4028(2)
C220 C 0.24968(9) 0.78229(19) 0.4335(2)
C221 C 0.23741(9) 0.79017(19) 0.4671(2)
H199 H 0.2368 0.7692 0.4884
C222 C 0.26695(10) 0.7800(2) 0.3423(3)
C223 C 0.28484(10) 0.7815(2) 0.3204(3)
H200 H 0.2935 0.8052 0.3240
C224 C 0.29018(10) 0.7498(2) 0.2941(3)
C225 C 0.27793(11) 0.7158(2) 0.2880(2)
C226 C 0.25957(10) 0.7138(2) 0.3092(2)
H201 H 0.2509 0.6903 0.3049
C227 C 0.25442(10) 0.7454(2) 0.3357(2)
C228 C 0.31939(12) 0.7826(3) 0.2594(4)
C229 C 0.33964(12) 0.7698(3) 0.2422(4)
H202 H 0.3457 0.7487 0.2613
H203 H 0.3376 0.7556 0.2150
C230 C 0.35419(16) 0.8062(4) 0.2363(6)
H204 H 0.3595 0.8054 0.2079
H205 H 0.3652 0.8034 0.2563
H206 H 0.3473 0.8333 0.2409
C231 C 0.28361(14) 0.6850(2) 0.2190(2)
C232 C 0.28575(19) 0.6434(4) 0.1958(4)
H207 H 0.2925 0.6228 0.2143
H208 H 0.2945 0.6482 0.1715
C233 C 0.2665(2) 0.6235(5) 0.1806(6)
H209 H 0.2610 0.6051 0.2024
H210 H 0.2692 0.6065 0.1556
H211 H 0.2569 0.6460 0.1739
C234 C 0.25996(10) 0.7396(2) 0.4309(2)
H212 H 0.2692 0.7413 0.4065
C235 C 0.27315(10) 0.7290(2) 0.4695(3)
H213 H 0.2647 0.7277 0.4947
H214 H 0.2795 0.7008 0.4657
C236 C 0.28932(13) 0.7628(2) 0.4755(3)
H215 H 0.2983 0.7626 0.4515
H216 H 0.2969 0.7566 0.5008
H217 H 0.2831 0.7909 0.4780
C237 C 0.24481(9) 0.70590(19) 0.4204(2)
C238 C 0.23327(9) 0.7099(2) 0.3842(2)
C239 C 0.21748(9) 0.68352(19) 0.3760(2)
H218 H 0.2100 0.6867 0.3511
C240 C 0.21269(9) 0.6526(2) 0.4041(2)
C241 C 0.22394(9) 0.6457(2) 0.4400(2)
C242 C 0.23962(10) 0.6727(2) 0.4474(2)
H219 H 0.2473 0.6686 0.4719
C243 C 0.19832(10) 0.5866(2) 0.3872(2)
C244 C 0.20927(11) 0.5742(2) 0.3527(3)
H220 H 0.2155 0.5952 0.3358
C245 C 0.21113(12) 0.5326(3) 0.3427(3)
C246 C 0.20364(13) 0.5013(3) 0.3687(3)
C247 C 0.19370(11) 0.5130(2) 0.4053(3)
H221 H 0.1891 0.4917 0.4239
C248 C 0.19053(10) 0.5554(2) 0.4142(3)
N23 N 0.22231(11) 0.5198(2) 0.3057(2)
H222 H 0.2188 0.4956 0.2940
O30 O 0.24689(17) 0.5688(3) 0.3069(4)
C249 C 0.23776(18) 0.5419(4) 0.2872(3)
C250 C 0.2455(2) 0.5203(6) 0.2478(3)
H223 H 0.2469 0.4894 0.2530
H224 H 0.2589 0.5317 0.2410
C251 C 0.2313(3) 0.5273(8) 0.2099(4)
H225 H 0.2357 0.5095 0.1866
H226 H 0.2316 0.5573 0.2015
H227 H 0.2176 0.5195 0.2177
N24 N 0.20545(11) 0.4583(2) 0.3594(3)
H228 H 0.2108 0.4425 0.3791
O31 O 0.1957(2) 0.4578(5) 0.2929(4)
C252 C 0.2000(3) 0.4369(3) 0.3237(3)
C253 C 0.1988(2) 0.3884(3) 0.3313(7)
H229 H 0.2068 0.3807 0.3560
H230 H 0.2043 0.3730 0.3070
C254 C 0.1766(2) 0.3754(5) 0.3382(9)
H231 H 0.1710 0.3646 0.3121
H232 H 0.1689 0.4002 0.3474
H233 H 0.1759 0.3531 0.3595
C255 C 0.21684(10) 0.6112(2) 0.4717(2)
H234 H 0.2159 0.5836 0.4564
C256 C 0.23137(10) 0.6046(2) 0.5084(2)
H235 H 0.2449 0.5990 0.4974
H236 H 0.2320 0.6309 0.5252
C257 C 0.22501(12) 0.5680(2) 0.5355(3)
H237 H 0.2119 0.5742 0.5476
H238 H 0.2348 0.5641 0.5580
H239 H 0.2242 0.5420 0.5188
C258 C 0.19578(10) 0.6235(2) 0.4853(2)
C259 C 0.17875(10) 0.6041(2) 0.4697(2)
C260 C 0.15996(11) 0.6179(2) 0.4784(2)
H240 H 0.1485 0.6043 0.4669
C261 C 0.15820(11) 0.6528(2) 0.5049(2)
C262 C 0.17394(11) 0.6715(2) 0.5241(2)
C263 C 0.19276(11) 0.6569(2) 0.5124(2)
H241 H 0.2041 0.6707 0.5237
C264 C 0.12883(11) 0.6934(3) 0.4867(2)
C265 C 0.11857(10) 0.6760(3) 0.4539(2)
H242 H 0.1194 0.6462 0.4488
C266 C 0.10679(11) 0.7018(3) 0.4278(2)
C267 C 0.10667(10) 0.7451(2) 0.4337(2)
C268 C 0.11765(11) 0.7631(3) 0.4677(2)
H243 H 0.1173 0.7929 0.4725
C269 C 0.12868(11) 0.7375(3) 0.4933(2)
N25 N 0.09886(16) 0.6768(4) 0.3948(4)
H244 H 0.1069 0.6586 0.3824
O32 O 0.06741(19) 0.7010(4) 0.3986(5)
C270 C 0.07988(16) 0.6792(4) 0.3814(3)
C271 C 0.0752(2) 0.6514(4) 0.3439(3)
H245 H 0.0618 0.6387 0.3473
H246 H 0.0850 0.6279 0.3424
C272 C 0.0759(3) 0.6770(5) 0.3030(3)
H247 H 0.0892 0.6891 0.2992
H248 H 0.0660 0.7000 0.3042
H249 H 0.0728 0.6581 0.2796
C273 C 0.10099(9) 0.8073(2) 0.3876(2)
C274 C 0.08644(12) 0.8262(2) 0.3578(3)
H250 H 0.0731 0.8254 0.3708
H251 H 0.0859 0.8078 0.3328
C275 C 0.0904(2) 0.8715(3) 0.3435(5)
H252 H 0.0800 0.8802 0.3237
H253 H 0.1035 0.8729 0.3300
H254 H 0.0902 0.8906 0.3676
C276 C 0.17119(12) 0.7067(2) 0.5561(2)
H255 H 0.1570 0.7053 0.5656
C277 C 0.18438(12) 0.7004(3) 0.5953(2)
H256 H 0.1823 0.6711 0.6059
H257 H 0.1986 0.7030 0.5871
C278 C 0.18025(13) 0.7308(3) 0.6291(2)
H258 H 0.1661 0.7293 0.6367
H259 H 0.1834 0.7597 0.6198
H260 H 0.1885 0.7237 0.6534
C279 C 0.17395(10) 0.7499(2) 0.5359(2)
C280 C 0.15655(11) 0.7719(2) 0.5214(2)
C281 C 0.15851(11) 0.8111(2) 0.5028(2)
H261 H 0.1470 0.8255 0.4931
C282 C 0.17669(11) 0.8295(2) 0.4982(2)
C283 C 0.19425(11) 0.8100(2) 0.5134(2)
C284 C 0.19166(11) 0.7701(2) 0.5323(2)
H262 H 0.2031 0.7564 0.5432
N26 N 0.14768(8) 0.85359(17) 0.34263(18)
N27 N 0.17506(9) 0.87758(17) 0.30907(18)
N28 N 0.09879(9) 0.8016(2) 0.1702(2)
N29 N 0.12930(8) 0.84767(17) 0.18925(17)
N30 N 0.13776(8) 0.88595(17) 0.11979(17)
N31 N 0.30897(9) 0.7497(2) 0.2747(2)
H263 H 0.3147 0.7247 0.2723
N32 N 0.28304(9) 0.68154(19) 0.26113(19)
H264 H 0.2860 0.6568 0.2724
N33 N 0.09470(9) 0.77272(19) 0.40869(18)
H265 H 0.0819 0.7666 0.4069
O33 O 0.17821(8) 0.87064(15) 0.48096(15)
O34 O 0.21293(7) 0.89020(13) 0.44019(16)
O35 O 0.26303(7) 0.81314(15) 0.36831(18)
O36 O 0.23608(6) 0.74432(13) 0.35655(14)
O37 O 0.19532(6) 0.62873(13) 0.39626(15)
O38 O 0.17933(7) 0.56379(14) 0.44862(17)
O39 O 0.13835(7) 0.66554(16) 0.51516(15)
O40 O 0.13793(7) 0.75389(16) 0.52771(15)
O41 O 0.31195(13) 0.8181(2) 0.2576(3)
O42 O 0.28210(14) 0.7202(2) 0.2034(2)
O43 O 0.11793(7) 0.82167(16) 0.39120(16)
O44 O 0.02663(11) 0.7171(3) 0.3864(3)
O45 O 0.1561(2) 0.6966(4) -0.0726(5)
O46 O 0.2334(2) 0.9175(4) 0.3125(5)
O47 O 0.1181(2) 0.9555(5) 0.2894(6)
O48 O 0.1728(2) 0.3681(4) 0.4733(5)
H266 H 0.1667 0.3461 0.4658
C285 C 0.1609(4) 0.3911(5) 0.5027(6)
H267 H 0.1667 0.3880 0.5310
H268 H 0.1472 0.3796 0.5031
C286 C 0.1605(4) 0.4380(4) 0.4905(9)
H269 H 0.1524 0.4539 0.5106
H270 H 0.1741 0.4493 0.4904
H271 H 0.1547 0.4409 0.4627
O49 O 0.00706(17) 0.6874(3) 0.4516(3)
H272 H 0.0143 0.6946 0.4314
C287 C 0.0084(3) 0.7187(5) 0.4834(4)
H273 H 0.0021 0.7455 0.4739
H274 H 0.0226 0.7246 0.4897
C288 C -0.0021(3) 0.7030(6) 0.5224(4)
H275 H 0.0034 0.6752 0.5304
H276 H -0.0164 0.7002 0.5169
H277 H 0.0000 0.7234 0.5450
O50 O 0.10213(10) 0.4707(3) 0.3274(3)
H278 H 0.1034 0.4647 0.3527
C289 C 0.08239(14) 0.4868(4) 0.3198(4)
H279 H 0.0786 0.4818 0.2904
H280 H 0.0821 0.5179 0.3250
C290 C 0.06778(14) 0.4645(5) 0.3485(4)
H281 H 0.0681 0.4338 0.3430
H282 H 0.0543 0.4754 0.3435
H283 H 0.0715 0.4698 0.3775
O51 O 0.19872(16) 0.9343(3) 0.2588(4)
H284 H 0.2101 0.9431 0.2518
C291 C 0.18643(18) 0.9691(4) 0.2696(4)
H285 H 0.1736 0.9584 0.2805
H286 H 0.1837 0.9863 0.2444
C292 C 0.1963(2) 0.9965(4) 0.3020(4)
H287 H 0.1969 0.9811 0.3285
H288 H 0.1887 1.0229 0.3055
H289 H 0.2099 1.0034 0.2930
O52 O 0.28409(13) 0.6039(2) 0.3082(2)
H290 H 0.2716 0.6015 0.3075
C293 C 0.2908(2) 0.6007(4) 0.3502(3)
H291 H 0.3044 0.6124 0.3525
H292 H 0.2912 0.5704 0.3586
C294 C 0.2768(2) 0.6252(5) 0.3790(3)
H293 H 0.2750 0.6542 0.3684
H294 H 0.2826 0.6263 0.4070
H295 H 0.2638 0.6108 0.3800
O53 O 0.23535(13) 0.7631(3) 0.0886(3)
H296 H 0.2442 0.7673 0.0705
C295 C 0.24452(17) 0.7568(7) 0.1278(4)
H297 H 0.2402 0.7290 0.1392
H298 H 0.2399 0.7793 0.1471
C296 C 0.26714(15) 0.7578(6) 0.1254(5)
H299 H 0.2713 0.7724 0.0999
H300 H 0.2723 0.7286 0.1253
H301 H 0.2725 0.7731 0.1496
O54 O 0.22573(16) 0.8495(4) 0.2816(4)
H302 H 0.2253 0.8761 0.2835
C297 C 0.24412(19) 0.8372(5) 0.2640(5)
H303 H 0.2541 0.8329 0.2863
H304 H 0.2491 0.8600 0.2453
C298 C 0.2415(3) 0.7959(5) 0.2392(5)
H305 H 0.2525 0.7763 0.2456
H306 H 0.2415 0.8023 0.2094
H307 H 0.2288 0.7825 0.2468
O55 O 0.2083(2) 0.4045(5) 0.4347(4)
H308 H 0.1962 0.4051 0.4415
C299 C 0.2201(3) 0.3965(7) 0.4705(5)
H309 H 0.2345 0.3986 0.4634
H310 H 0.2175 0.3675 0.4812
C300 C 0.2147(4) 0.4298(7) 0.5039(5)
H311 H 0.2228 0.4248 0.5289
H312 H 0.2175 0.4584 0.4931
H313 H 0.2005 0.4274 0.5108
O56 O 0.01992(19) 0.3043(5) 0.2372(3)
H314 H 0.0099 0.3098 0.2226
C301 C 0.0295(4) 0.3437(5) 0.2495(6)
H315 H 0.0197 0.3671 0.2499
H316 H 0.0402 0.3510 0.2295
C302 C 0.0384(3) 0.3375(7) 0.2929(5)
H317 H 0.0286 0.3235 0.3109
H318 H 0.0419 0.3653 0.3047
H319 H 0.0504 0.3198 0.2910
O57? O 0.0736(2) 0.3027(4) 0.2043(5)
O58? O 0.0828(2) 0.3876(4) 0.2021(5)
C303? C 0.0823(3) 0.3187(5) 0.2345(7)
C304? C 0.0886(3) 0.2989(6) 0.2712(6)
H320? H 0.0862 0.2692 0.2729
C305? C 0.0974(4) 0.3159(6) 0.3035(5)
C306? C 0.1024(3) 0.3596(5) 0.3023(4)
C307? C 0.0966(2) 0.3839(6) 0.2686(6)
H321? H 0.0982 0.4140 0.2683
C308? C 0.0880(3) 0.3611(6) 0.2336(7)
N34? N 0.1000(2) 0.2908(3) 0.3395(4)
H322? H 0.0995 0.3043 0.3634
O59? O 0.1105(3) 0.2287(5) 0.3121(5)
C309? C 0.1033(3) 0.2483(4) 0.3415(4)
C310? C 0.1041(3) 0.2308(4) 0.3858(4)
H323? H 0.0948 0.2459 0.4045
H324? H 0.1178 0.2321 0.3975
C311? C 0.0976(3) 0.1850(5) 0.3778(8)
H325? H 0.0910 0.1832 0.3506
H326? H 0.0882 0.1761 0.3995
H327? H 0.1092 0.1663 0.3781
N35? N 0.11135(18) 0.3829(4) 0.3350(3)
H328? H 0.1078 0.4097 0.3380
O60? O 0.13327(14) 0.3330(3) 0.3594(3)
C312? C 0.12497(18) 0.3672(3) 0.3618(4)
C313? C 0.12873(17) 0.3952(5) 0.3993(3)
H329? H 0.1275 0.4251 0.3900
H330? H 0.1428 0.3909 0.4077
C314? C 0.1158 0.3900 0.4383
H331? H 0.1202 0.4104 0.4596
H332? H 0.1018 0.3953 0.4313
H333? H 0.1173 0.3610 0.4491
N36? N 0.1159(2) 1.0844(4) 0.2810(4)
H334? H 0.1072 1.0949 0.2633
O61? O 0.1195(2) 1.0710(4) 0.3507(5)
C315? C 0.10947(15) 1.08056(17) 0.3209(4)
C316? C 0.08724(17) 1.0897(5) 0.3259(4)
H335? H 0.0853 1.1202 0.3325
H336? H 0.0819 1.0727 0.3493
C317? C 0.0755(2) 1.0786(10) 0.2858(6)
H337? H 0.0613 1.0849 0.2900
H338? H 0.0805 1.0958 0.2626
H339? H 0.0771 1.0483 0.2794
C318? C 0.08589(8) 0.99613(14) 0.06578(16)
C319? C 0.07625(7) 1.01657(10) 0.09854(17)
H340? H 0.0827 1.0204 0.1246
C320? C 0.05624(6) 1.03180(10) 0.09166(14)
C321? C 0.04714(8) 1.0260(2) 0.05332(16)
C322? C 0.05757(8) 1.0050(2) 0.02078(19)
H341? H 0.0517 1.0007 -0.0058
C323? C 0.07684(8) 0.9909(2) 0.02951(17)
C324? C 0.02782(6) 1.05183(16) 0.13762(15)
C325? C 0.02173(5) 1.0883(2) 0.1660(3)
H342? H 0.0260 1.1155 0.1533
H343? H 0.0287 1.0853 0.1930
C326? C -0.0010 1.0896 0.1736
H344? H -0.0042 1.1135 0.1920
H345? H -0.0080 1.0931 0.1470
H346? H -0.0053 1.0629 0.1867
C327? C 0.02124(10) 1.0565(5) 0.01017(19)
C328? C -0.00105(10) 1.0683(5) 0.0096(3)
H347? H -0.0024 1.0996 0.0110
H348? H -0.0070 1.0586 -0.0169
C329? C -0.01242(15) 1.0480(6) 0.0462(4)
H349? H -0.0265 1.0562 0.0448
H350? H -0.0113 1.0169 0.0445
H351? H -0.0067 1.0579 0.0725
N37? N 0.04718(7) 1.0523(2) 0.12576(19)
H352? H 0.0552 1.0675 0.1415
N38? N 0.02756(9) 1.0410(3) 0.0474(2)
H353? H 0.0192 1.0404 0.0685
O62? O 0.10470(10) 0.9784(4) 0.0741(3)
O63? O 0.08691(14) 0.9737(4) -0.0059(2)
O64? O 0.01566(13) 1.0253(3) 0.1274(4)
O65? O 0.02931(17) 1.0517(6) -0.0230(2)
H354? H 0.2405 0.8163 0.5418
H355? H 0.2211 0.7977 0.5647
C330? C 0.22751(17) 0.8599(3) 0.5822(3)
H356? H 0.2357 0.8516 0.6061
H357? H 0.2333 0.8851 0.5689
H358? H 0.2140 0.8665 0.5918
C331? C 0.2894(3) 0.6505(7) 0.1965(6)
H359? H 0.2909 0.6256 0.2151
H360? H 0.3026 0.6562 0.1835
C332? C 0.2743(2) 0.6409(6) 0.1631(5)
H361? H 0.2614 0.6348 0.1761
H362? H 0.2787 0.6161 0.1470
H363? H 0.2730 0.6656 0.1446
H364? H 0.2337 0.5064 0.3097
O66? O 0.20190(19) 0.5488(5) 0.2618(5)
C333? C 0.21659(16) 0.5269(5) 0.2653(3)
C334? C 0.2322(2) 0.5124(5) 0.2340(4)
H365? H 0.2255 0.5052 0.2075
H366? H 0.2387 0.4863 0.2446
C335? C 0.2484(2) 0.5470(6) 0.2256(7)
H367? H 0.2600 0.5416 0.2434
H368? H 0.2429 0.5752 0.2319
H369? H 0.2525 0.5458 0.1963
H370? H 0.1950 0.4413 0.3610
O67? O 0.24154(18) 0.4544(5) 0.3512(6)
C336? C 0.22439(15) 0.4423(5) 0.3474(5)
C337? C 0.2182(4) 0.3984(5) 0.3310(4)
H371? H 0.2048 0.3913 0.3418
H372? H 0.2277 0.3767 0.3415
C338? C 0.2178(3) 0.3966(6) 0.2832(4)
H373? H 0.2096 0.4200 0.2725
H374? H 0.2121 0.3694 0.2742
H375? H 0.2314 0.3993 0.2724
N39? N 0.09549(18) 0.6882(4) 0.3926(4)
H376? H 0.1022 0.6743 0.3733
O68? O 0.06527(19) 0.7177(4) 0.4042(4)
C339? C 0.0759(3) 0.6940(5) 0.3851(4)
C340? C 0.0681(2) 0.6712(6) 0.3470(5)
H377? H 0.0585 0.6492 0.3566
H378? H 0.0603 0.6921 0.3304
C341? C 0.0821(3) 0.6509(5) 0.3193(5)
H379? H 0.0924 0.6714 0.3111
H380? H 0.0751 0.6406 0.2945
H381? H 0.0884 0.6268 0.3336
H382? H 0.0940 0.8363 0.3332
H383? H 0.0804 0.8516 0.3711
C342? C 0.0697(2) 0.7982(6) 0.3426(6)
H384? H 0.0613 0.8143 0.3233
H385? H 0.0753 0.7734 0.3282
H386? H 0.0617 0.7887 0.3664
C343? C 0.24527(17) 0.8009(4) 0.0794(6)
C344? C 0.26721(14) 0.7916(4) 0.0725(5)
O69? O 0.0235(2) 0.3643(5) 0.2483(5)
H387? H 0.0193 0.3818 0.2643
C345? C 0.0343(3) 0.3313(5) 0.2682(7)
H388? H 0.0428 0.3164 0.2477
H389? H 0.0249 0.3104 0.2804
C346? C 0.0473(3) 0.3507(8) 0.3026(6)
H390? H 0.0535 0.3770 0.2924
H391? H 0.0578 0.3304 0.3104
H392? H 0.0390 0.3570 0.3270
H393? H 0.2028 0.8567 0.2348
loop_
_geom_bond_atom_site_label_1
_geom_bond_atom_site_label_2
_geom_bond_site_symmetry_1
_geom_bond_site_symmetry_2
Ru1 Cl1 1_555 1_555
Cl2 Ru1 1_555 1_555
Cl3 Ru1 1_555 1_555
C1 C2 1_555 1_555
C2 H1 1_555 1_555
C3 C2 1_555 1_555
C4 C3 1_555 1_555
C5 C4 1_555 1_555
H2 C5 1_555 1_555
C6 C1 1_555 1_555
C7 C8 1_555 1_555
C8 C9 1_555 1_555
C9 H3 1_555 1_555
C10 C9 1_555 1_555
C11 C12 1_555 1_555
C12 C8 1_555 1_555
H4 C12 1_555 1_555
C13 C10 1_555 1_555
C14 C13 1_555 1_555
H5 C14 1_555 1_555
C15 C14 1_555 1_555
H6 C15 1_555 1_555
C16 C15 1_555 1_555
H7 C16 1_555 1_555
C17 C16 1_555 1_555
H8 C17 1_555 1_555
C18 C11 1_555 1_555
C19 C18 1_555 1_555
H9 C19 1_555 1_555
C20 C19 1_555 1_555
H10 C20 1_555 1_555
C21 C20 1_555 1_555
H11 C21 1_555 1_555
C22 C21 1_555 1_555
H12 C22 1_555 1_555
C23 H13 1_555 1_555
C24 C23 1_555 1_555
H14 C24 1_555 1_555
H15 C24 1_555 1_555
C25 C24 1_555 1_555
H16 C25 1_555 1_555
H17 C25 1_555 1_555
H18 C25 1_555 1_555
C26 C23 1_555 1_555
C27 C26 1_555 1_555
C28 C27 1_555 1_555
H19 C28 1_555 1_555
C29 C28 1_555 1_555
C30 C29 1_555 1_555
C31 C26 1_555 1_555
H20 C31 1_555 1_555
O1 C29 1_555 1_555
O2 C37 1_555 1_555
C32 O1 1_555 1_555
C33 C32 1_555 1_555
H21 C33 1_555 1_555
C34 C33 1_555 1_555
C35 C34 1_555 1_555
C36 C35 1_555 1_555
H22 C36 1_555 1_555
C37 C32 1_555 1_555
N1 C34 1_555 1_555
H23 N1 1_555 1_555
O3 C38 1_555 1_555
C38 N1 1_555 1_555
C39 C38 1_555 1_555
H24 C39 1_555 1_555
H25 C39 1_555 1_555
C40 C39 1_555 1_555
H26 C40 1_555 1_555
H27 C40 1_555 1_555
H28 C40 1_555 1_555
N2 C35 1_555 1_555
H29 N2 1_555 1_555
O4 C41 1_555 1_555
C41 N2 1_555 1_555
C42 C41 1_555 1_555
H30 C42 1_555 1_555
H31 C42 1_555 1_555
C43 C42 1_555 1_555
H32 C43 1_555 1_555
H33 C43 1_555 1_555
H34 C43 1_555 1_555
C44 C30 1_555 1_555
H35 C44 1_555 1_555
C45 C44 1_555 1_555
H36 C45 1_555 1_555
H37 C45 1_555 1_555
C46 C45 1_555 1_555
H38 C46 1_555 1_555
H39 C46 1_555 1_555
H40 C46 1_555 1_555
C47 C44 1_555 1_555
C48 O2 1_555 1_555
C49 C48 1_555 1_555
H41 C49 1_555 1_555
C50 C49 1_555 1_555
C51 C50 1_555 1_555
C52 C47 1_555 1_555
H42 C52 1_555 1_555
C53 C54 1_555 1_555
C54 H43 1_555 1_555
C55 C54 1_555 1_555
C56 C55 1_555 1_555
C57 C56 1_555 1_555
H44 C57 1_555 1_555
C58 C53 1_555 1_555
C59 C60 1_555 1_555
C60 H45 1_555 1_555
H46 C60 1_555 1_555
C61 C60 1_555 1_555
H47 C61 1_555 1_555
H48 C61 1_555 1_555
H49 C61 1_555 1_555
C62 C63 1_555 1_555
C63 H50 1_555 1_555
H51 C63 1_555 1_555
C64 C63 1_555 1_555
H52 C64 1_555 1_555
H53 C64 1_555 1_555
H54 C64 1_555 1_555
C65 C51 1_555 1_555
H55 C65 1_555 1_555
C66 C65 1_555 1_555
H56 C66 1_555 1_555
H57 C66 1_555 1_555
C67 C66 1_555 1_555
H58 C67 1_555 1_555
H59 C67 1_555 1_555
H60 C67 1_555 1_555
C68 C65 1_555 1_555
C69 C68 1_555 1_555
C70 C69 1_555 1_555
H61 C70 1_555 1_555
C71 C70 1_555 1_555
C72 C71 1_555 1_555
C73 C68 1_555 1_555
H62 C73 1_555 1_555
C74 C75 1_555 1_555
C75 H63 1_555 1_555
C76 C75 1_555 1_555
C77 C76 1_555 1_555
C78 C77 1_555 1_555
H64 C78 1_555 1_555
C79 C74 1_555 1_555
C80 C81 1_555 1_555
C81 H65 1_555 1_555
H66 C81 1_555 1_555
C82 C81 1_555 1_555
H67 C82 1_555 1_555
H68 C82 1_555 1_555
H69 C82 1_555 1_555
C83 C84 1_555 1_555
C84 H70 1_555 1_555
H71 C84 1_555 1_555
C85 C84 1_555 1_555
H72 C85 1_555 1_555
H73 C85 1_555 1_555
H74 C85 1_555 1_555
C86 C72 1_555 1_555
H75 C86 1_555 1_555
C87 C86 1_555 1_555
H76 C87 1_555 1_555
H77 C87 1_555 1_555
C88 C87 1_555 1_555
H78 C88 1_555 1_555
H79 C88 1_555 1_555
H80 C88 1_555 1_555
C89 C86 1_555 1_555
C90 C89 1_555 1_555
C91 C90 1_555 1_555
H81 C91 1_555 1_555
C92 C91 1_555 1_555
C93 C23 1_555 1_555
C94 C89 1_555 1_555
H82 C94 1_555 1_555
N3 C3 1_555 1_555
N4 C4 1_555 1_555
N5 Ru1 1_555 1_555
N6 Ru1 1_555 1_555
N7 Ru1 1_555 1_555
N8 C55 1_555 1_555
H83 N8 1_555 1_555
N9 C56 1_555 1_555
H84 N9 1_555 1_555
N10 C76 1_555 1_555
H85 N10 1_555 1_555
N11 C77 1_555 1_555
H86 N11 1_555 1_555
O5 C6 1_555 1_555
O6 C50 1_555 1_555
O7 C58 1_555 1_555
O8 C71 1_555 1_555
O9 C79 1_555 1_555
O10 C1 1_555 1_555
O11 C59 1_555 1_555
O12 C62 1_555 1_555
O13 C80 1_555 1_555
O14 C83 1_555 1_555
O15 H87 1_555 1_555
C95 O15 1_555 1_555
H88 C95 1_555 1_555
H89 C95 1_555 1_555
C96 C95 1_555 1_555
H90 C96 1_555 1_555
H91 C96 1_555 1_555
H92 C96 1_555 1_555
Ru2 Cl4 1_555 1_555
Cl5 Ru2 1_555 1_555
Cl6 Ru2 1_555 1_555
C97 C98 1_555 1_555
C98 H93 1_555 1_555
C99 C98 1_555 1_555
C100 C99 1_555 1_555
C101 C100 1_555 1_555
H94 C101 1_555 1_555
C102 C97 1_555 1_555
C103 C104 1_555 1_555
C104 C105 1_555 1_555
C105 H95 1_555 1_555
C106 C105 1_555 1_555
C107 C108 1_555 1_555
C108 C104 1_555 1_555
H96 C108 1_555 1_555
C109 C106 1_555 1_555
C110 C109 1_555 1_555
H97 C110 1_555 1_555
C111 C110 1_555 1_555
H98 C111 1_555 1_555
C112 C111 1_555 1_555
H99 C112 1_555 1_555
C113 C112 1_555 1_555
H100 C113 1_555 1_555
C114 C107 1_555 1_555
C115 C114 1_555 1_555
H101 C115 1_555 1_555
C116 C115 1_555 1_555
H102 C116 1_555 1_555
C117 C116 1_555 1_555
H103 C117 1_555 1_555
C118 C117 1_555 1_555
H104 C118 1_555 1_555
C119 H105 1_555 1_555
C120 C119 1_555 1_555
H106 C120 1_555 1_555
H107 C120 1_555 1_555
C121 C120 1_555 1_555
H108 C121 1_555 1_555
H109 C121 1_555 1_555
H110 C121 1_555 1_555
C122 C119 1_555 1_555
C123 C122 1_555 1_555
C124 C123 1_555 1_555
H111 C124 1_555 1_555
C125 C124 1_555 1_555
C126 C125 1_555 1_555
C127 C122 1_555 1_555
H112 C127 1_555 1_555
C128 C129 1_555 1_555
C129 H113 1_555 1_555
C130 C129 1_555 1_555
C131 C130 1_555 1_555
C132 C131 1_555 1_555
H114 C132 1_555 1_555
C133 C128 1_555 1_555
N12 C130 1_555 1_555
H115 N12 1_555 1_555
C134 N12 1_555 1_555
C135 C134 1_555 1_555
H116 C135 1_555 1_555
H117 C135 1_555 1_555
C136 C135 1_555 1_555
H118 C136 1_555 1_555
H119 C136 1_555 1_555
H120 C136 1_555 1_555
N13 C131 1_555 1_555
H121 N13 1_555 1_555
O16 C137 1_555 1_555
C137 N13 1_555 1_555
C138 C137 1_555 1_555
H122 C138 1_555 1_555
H123 C138 1_555 1_555
C139 C138 1_555 1_555
H124 C139 1_555 1_555
H125 C139 1_555 1_555
H126 C139 1_555 1_555
C140 C126 1_555 1_555
H127 C140 1_555 1_555
C141 C140 1_555 1_555
H128 C141 1_555 1_555
H129 C141 1_555 1_555
C142 C141 1_555 1_555
H130 C142 1_555 1_555
H131 C142 1_555 1_555
H132 C142 1_555 1_555
C143 C140 1_555 1_555
C144 C143 1_555 1_555
C145 C144 1_555 1_555
H133 C145 1_555 1_555
C146 C145 1_555 1_555
C147 C146 1_555 1_555
C148 C143 1_555 1_555
H134 C148 1_555 1_555
C149 C150 1_555 1_555
C150 H135 1_555 1_555
C151 C150 1_555 1_555
C152 C151 1_555 1_555
C153 C152 1_555 1_555
H136 C153 1_555 1_555
C154 C149 1_555 1_555
C155 C156 1_555 1_555
C156 H137 1_555 1_555
H138 C156 1_555 1_555
C157 C156 1_555 1_555
H139 C157 1_555 1_555
H140 C157 1_555 1_555
H141 C157 1_555 1_555
C158 C159 1_555 1_555
C159 H142 1_555 1_555
H143 C159 1_555 1_555
C160 C159 1_555 1_555
H144 C160 1_555 1_555
H145 C160 1_555 1_555
H146 C160 1_555 1_555
N14 C151 1_555 1_555
H147 N14 1_555 1_555
N15 C152 1_555 1_555
H148 N15 1_555 1_555
O17 C146 1_555 1_555
O18 C154 1_555 1_555
O19 C155 1_555 1_555
O20 C158 1_555 1_555
C161 C147 1_555 1_555
H149 C161 1_555 1_555
C162 C161 1_555 1_555
H150 C162 1_555 1_555
H151 C162 1_555 1_555
C163 C162 1_555 1_555
H152 C163 1_555 1_555
H153 C163 1_555 1_555
H154 C163 1_555 1_555
C164 C161 1_555 1_555
C165 O18 1_555 1_555
C166 C165 1_555 1_555
H155 C166 1_555 1_555
C167 C166 1_555 1_555
C168 C167 1_555 1_555
C169 C164 1_555 1_555
H156 C169 1_555 1_555
C170 C171 1_555 1_555
C171 H157 1_555 1_555
C172 C171 1_555 1_555
C173 C172 1_555 1_555
C174 C173 1_555 1_555
H158 C174 1_555 1_555
C175 C170 1_555 1_555
C176 C177 1_555 1_555
C177 H159 1_555 1_555
H160 C177 1_555 1_555
C178 C177 1_555 1_555
H161 C178 1_555 1_555
H162 C178 1_555 1_555
H163 C178 1_555 1_555
C179 C180 1_555 1_555
C180 H164 1_555 1_555
H165 C180 1_555 1_555
C181 C180 1_555 1_555
H166 C181 1_555 1_555
H167 C181 1_555 1_555
H168 C181 1_555 1_555
N16 C172 1_555 1_555
H169 N16 1_555 1_555
N17 C173 1_555 1_555
H170 N17 1_555 1_555
O21 C167 1_555 1_555
O22 C175 1_555 1_555
O23 C176 1_555 1_555
O24 C179 1_555 1_555
C182 C168 1_555 1_555
H171 C182 1_555 1_555
C183 C182 1_555 1_555
H172 C183 1_555 1_555
H173 C183 1_555 1_555
C184 C183 1_555 1_555
H174 C184 1_555 1_555
H175 C184 1_555 1_555
H176 C184 1_555 1_555
C185 C182 1_555 1_555
C186 O22 1_555 1_555
C187 C186 1_555 1_555
H177 C187 1_555 1_555
C188 C187 1_555 1_555
C189 C119 1_555 1_555
C190 C185 1_555 1_555
H178 C190 1_555 1_555
N18 C99 1_555 1_555
H179 N18 1_555 1_555
N19 C100 1_555 1_555
N20 Ru2 1_555 1_555
N21 Ru2 1_555 1_555
N22 Ru2 1_555 1_555
O25 C97 1_555 1_555
O26 C102 1_555 1_555
O27 C125 1_555 1_555
O28 C133 1_555 1_555
O29 C134 1_555 1_555
Ru3 Cl7 1_555 1_555
Cl8 Ru3 1_555 1_555
Cl9 Ru3 1_555 1_555
C191 C192 1_555 1_555
C192 H180 1_555 1_555
C193 C192 1_555 1_555
C194 C193 1_555 1_555
C195 C194 1_555 1_555
H181 C195 1_555 1_555
C196 C191 1_555 1_555
C197 C198 1_555 1_555
C198 C199 1_555 1_555
C199 H182 1_555 1_555
C200 C199 1_555 1_555
C201 C202 1_555 1_555
C202 C198 1_555 1_555
H183 C202 1_555 1_555
C203 C200 1_555 1_555
C204 C203 1_555 1_555
H184 C204 1_555 1_555
C205 C204 1_555 1_555
H185 C205 1_555 1_555
C206 C205 1_555 1_555
H186 C206 1_555 1_555
C207 C206 1_555 1_555
H187 C207 1_555 1_555
C208 C201 1_555 1_555
C209 C208 1_555 1_555
H188 C209 1_555 1_555
C210 C209 1_555 1_555
H189 C210 1_555 1_555
C211 C210 1_555 1_555
H190 C211 1_555 1_555
C212 C211 1_555 1_555
H191 C212 1_555 1_555
C213 H192 1_555 1_555
C214 C213 1_555 1_555
H193 C214 1_555 1_555
H194 C214 1_555 1_555
C215 C214 1_555 1_555
H195 C215 1_555 1_555
H196 C215 1_555 1_555
H197 C215 1_555 1_555
C216 C213 1_555 1_555
C217 C216 1_555 1_555
C218 C217 1_555 1_555
H198 C218 1_555 1_555
C219 C218 1_555 1_555
C220 C219 1_555 1_555
C221 C216 1_555 1_555
H199 C221 1_555 1_555
C222 C223 1_555 1_555
C223 H200 1_555 1_555
C224 C223 1_555 1_555
C225 C224 1_555 1_555
C226 C225 1_555 1_555
H201 C226 1_555 1_555
C227 C222 1_555 1_555
C228 C229 1_555 1_555
C229 H202 1_555 1_555
H203 C229 1_555 1_555
C230 C229 1_555 1_555
H204 C230 1_555 1_555
H205 C230 1_555 1_555
H206 C230 1_555 1_555
C231 C232 1_555 1_555
C232 H207 1_555 1_555
H208 C232 1_555 1_555
C233 C232 1_555 1_555
H209 C233 1_555 1_555
H210 C233 1_555 1_555
H211 C233 1_555 1_555
C234 C220 1_555 1_555
H212 C234 1_555 1_555
C235 C234 1_555 1_555
H213 C235 1_555 1_555
H214 C235 1_555 1_555
C236 C235 1_555 1_555
H215 C236 1_555 1_555
H216 C236 1_555 1_555
H217 C236 1_555 1_555
C237 C234 1_555 1_555
C238 C237 1_555 1_555
C239 C238 1_555 1_555
H218 C239 1_555 1_555
C240 C239 1_555 1_555
C241 C240 1_555 1_555
C242 C237 1_555 1_555
H219 C242 1_555 1_555
C243 C244 1_555 1_555
C244 H220 1_555 1_555
C245 C244 1_555 1_555
C246 C245 1_555 1_555
C247 C246 1_555 1_555
H221 C247 1_555 1_555
C248 C243 1_555 1_555
N23 C245 1_555 1_555
H222 N23 1_555 1_555
O30 C249 1_555 1_555
C249 N23 1_555 1_555
C250 C249 1_555 1_555
H223 C250 1_555 1_555
H224 C250 1_555 1_555
C251 C250 1_555 1_555
H225 C251 1_555 1_555
H226 C251 1_555 1_555
H227 C251 1_555 1_555
N24 C246 1_555 1_555
H228 N24 1_555 1_555
O31 C252 1_555 1_555
C252 N24 1_555 1_555
C253 C252 1_555 1_555
H229 C253 1_555 1_555
H230 C253 1_555 1_555
C254 C253 1_555 1_555
H231 C254 1_555 1_555
H232 C254 1_555 1_555
H233 C254 1_555 1_555
C255 C241 1_555 1_555
H234 C255 1_555 1_555
C256 C255 1_555 1_555
H235 C256 1_555 1_555
H236 C256 1_555 1_555
C257 C256 1_555 1_555
H237 C257 1_555 1_555
H238 C257 1_555 1_555
H239 C257 1_555 1_555
C258 C255 1_555 1_555
C259 C258 1_555 1_555
C260 C259 1_555 1_555
H240 C260 1_555 1_555
C261 C260 1_555 1_555
C262 C261 1_555 1_555
C263 C258 1_555 1_555
H241 C263 1_555 1_555
C264 C265 1_555 1_555
C265 H242 1_555 1_555
C266 C265 1_555 1_555
C267 C266 1_555 1_555
C268 C267 1_555 1_555
H243 C268 1_555 1_555
C269 C264 1_555 1_555
N25 C266 1_555 1_555
H244 N25 1_555 1_555
O32 C270 1_555 1_555
C270 N25 1_555 1_555
C271 C270 1_555 1_555
H245 C271 1_555 1_555
H246 C271 1_555 1_555
C272 C271 1_555 1_555
H247 C272 1_555 1_555
H248 C272 1_555 1_555
H249 C272 1_555 1_555
C273 C274 1_555 1_555
C274 H250 1_555 1_555
H251 C274 1_555 1_555
C275 C274 1_555 1_555
H252 C275 1_555 1_555
H253 C275 1_555 1_555
H254 C275 1_555 1_555
C276 C262 1_555 1_555
H255 C276 1_555 1_555
C277 C276 1_555 1_555
H256 C277 1_555 1_555
H257 C277 1_555 1_555
C278 C277 1_555 1_555
H258 C278 1_555 1_555
H259 C278 1_555 1_555
H260 C278 1_555 1_555
C279 C276 1_555 1_555
C280 C279 1_555 1_555
C281 C280 1_555 1_555
H261 C281 1_555 1_555
C282 C281 1_555 1_555
C283 C213 1_555 1_555
C284 C279 1_555 1_555
H262 C284 1_555 1_555
N26 C193 1_555 1_555
N27 C194 1_555 1_555
N28 Ru3 1_555 1_555
N29 Ru3 1_555 1_555
N30 Ru3 1_555 1_555
N31 C224 1_555 1_555
H263 N31 1_555 1_555
N32 C225 1_555 1_555
H264 N32 1_555 1_555
N33 C267 1_555 1_555
H265 N33 1_555 1_555
O33 C191 1_555 1_555
O34 C196 1_555 1_555
O35 C219 1_555 1_555
O36 C227 1_555 1_555
O37 C240 1_555 1_555
O38 C248 1_555 1_555
O39 C261 1_555 1_555
O40 C269 1_555 1_555
O41 C228 1_555 1_555
O42 C231 1_555 1_555
O43 C273 1_555 1_555
O48 H266 1_555 1_555
C285 O48 1_555 1_555
H267 C285 1_555 1_555
H268 C285 1_555 1_555
C286 C285 1_555 1_555
H269 C286 1_555 1_555
H270 C286 1_555 1_555
H271 C286 1_555 1_555
O49 H272 1_555 1_555
C287 O49 1_555 1_555
H273 C287 1_555 1_555
H274 C287 1_555 1_555
C288 C287 1_555 1_555
H275 C288 1_555 1_555
H276 C288 1_555 1_555
H277 C288 1_555 1_555
O50 H278 1_555 1_555
C289 O50 1_555 1_555
H279 C289 1_555 1_555
H280 C289 1_555 1_555
C290 C289 1_555 1_555
H281 C290 1_555 1_555
H282 C290 1_555 1_555
H283 C290 1_555 1_555
O51 H284 1_555 1_555
C291 O51 1_555 1_555
H285 C291 1_555 1_555
H286 C291 1_555 1_555
C292 C291 1_555 1_555
H287 C292 1_555 1_555
H288 C292 1_555 1_555
H289 C292 1_555 1_555
O52 H290 1_555 1_555
C293 O52 1_555 1_555
H291 C293 1_555 1_555
H292 C293 1_555 1_555
C294 C293 1_555 1_555
H293 C294 1_555 1_555
H294 C294 1_555 1_555
H295 C294 1_555 1_555
O53 H296 1_555 1_555
C295 O53 1_555 1_555
H297 C295 1_555 1_555
H298 C295 1_555 1_555
C296 C295 1_555 1_555
H299 C296 1_555 1_555
H300 C296 1_555 1_555
H301 C296 1_555 1_555
O54 H302 1_555 1_555
C297 O54 1_555 1_555
H303 C297 1_555 1_555
H304 C297 1_555 1_555
C298 C297 1_555 1_555
H305 C298 1_555 1_555
H306 C298 1_555 1_555
H307 C298 1_555 1_555
O55 H308 1_555 1_555
C299 O55 1_555 1_555
H309 C299 1_555 1_555
H310 C299 1_555 1_555
C300 C299 1_555 1_555
H311 C300 1_555 1_555
H312 C300 1_555 1_555
H313 C300 1_555 1_555
O56 H314 1_555 1_555
C301 O56 1_555 1_555
H315 C301 1_555 1_555
H316 C301 1_555 1_555
C302 C301 1_555 1_555
H317 C302 1_555 1_555
H318 C302 1_555 1_555
H319 C302 1_555 1_555
C5 C6 1_555 1_555
C7 N3 1_555 1_555
C7 N4 1_555 1_555
C10 N6 1_555 1_555
C11 N6 1_555 1_555
C13 N5 1_555 1_555
C17 N5 1_555 1_555
C18 N7 1_555 1_555
C22 N7 1_555 1_555
C27 O5 1_555 1_555
C30 C31 1_555 1_555
C36 C37 1_555 1_555
C47 C48 1_555 1_555
C51 C52 1_555 1_555
C53 O6 1_555 1_555
C57 C58 1_555 1_555
C59 N8 1_555 1_555
C62 N9 1_555 1_555
C69 O7 1_555 1_555
C72 C73 1_555 1_555
C74 O8 1_555 1_555
C78 C79 1_555 1_555
C80 N10 1_555 1_555
C83 N11 1_555 1_555
C90 O9 1_555 1_555
C92 C93 1_555 1_555
C92 O10 1_555 1_555
C93 C94 1_555 1_555
C101 C102 1_555 1_555
C103 N18 1_555 1_555
C103 N19 1_555 1_555
C106 N21 1_555 1_555
C107 N21 1_555 1_555
C109 N20 1_555 1_555
C113 N20 1_555 1_555
C114 N22 1_555 1_555
C118 N22 1_555 1_555
C123 O26 1_555 1_555
C126 C127 1_555 1_555
C128 O27 1_555 1_555
C132 C133 1_555 1_555
C144 O28 1_555 1_555
C147 C148 1_555 1_555
C149 O17 1_555 1_555
C153 C154 1_555 1_555
C155 N14 1_555 1_555
C158 N15 1_555 1_555
C164 C165 1_555 1_555
C168 C169 1_555 1_555
C170 O21 1_555 1_555
C174 C175 1_555 1_555
C176 N16 1_555 1_555
C179 N17 1_555 1_555
C185 C186 1_555 1_555
C188 C189 1_555 1_555
C188 O25 1_555 1_555
C189 C190 1_555 1_555
C195 C196 1_555 1_555
C197 N26 1_555 1_555
C197 N27 1_555 1_555
C200 N29 1_555 1_555
C201 N29 1_555 1_555
C203 N28 1_555 1_555
C207 N28 1_555 1_555
C208 N30 1_555 1_555
C212 N30 1_555 1_555
C217 O34 1_555 1_555
C220 C221 1_555 1_555
C222 O35 1_555 1_555
C226 C227 1_555 1_555
C228 N31 1_555 1_555
C231 N32 1_555 1_555
C238 O36 1_555 1_555
C241 C242 1_555 1_555
C243 O37 1_555 1_555
C247 C248 1_555 1_555
C259 O38 1_555 1_555
C262 C263 1_555 1_555
C264 O39 1_555 1_555
C268 C269 1_555 1_555
C273 N33 1_555 1_555
C280 O40 1_555 1_555
C282 C283 1_555 1_555
C282 O33 1_555 1_555
C283 C284 1_555 1_555

#END
