# generated using pymatgen
data_H393Ru3C346N39(Cl3O23)3
_symmetry_space_group_name_H-M   'P 1'
_cell_length_a   31.41380000
_cell_length_b   32.13760000
_cell_length_c   67.01700000
_cell_angle_alpha   90.00000000
_cell_angle_beta   90.00000000
_cell_angle_gamma   90.00000000
_symmetry_Int_Tables_number   1
_chemical_formula_structural   H393Ru3C346N39(Cl3O23)3
_chemical_formula_sum   'H3144 Ru24 C2768 N312 Cl72 O552'
_cell_volume   67657.95989532
_cell_formula_units_Z   8
loop_
 _symmetry_equiv_pos_site_id
 _symmetry_equiv_pos_as_xyz
  1  'x, y, z'
loop_
 _atom_site_type_symbol
 _atom_site_label
 _atom_site_symmetry_multiplicity
 _atom_site_fract_x
 _atom_site_fract_y
 _atom_site_fract_z
 _atom_site_occupancy
  H  H1  1  0.452900  0.064200  0.005900  1
  H  H2  1  0.047100  0.564200  0.494100  1
  H  H3  1  0.452900  0.435800  0.994100  1
  H  H4  1  0.047100  0.935800  0.505900  1
  H  H5  1  0.547100  0.935800  0.994100  1
  H  H6  1  0.952900  0.435800  0.505900  1
  H  H7  1  0.547100  0.564200  0.005900  1
  H  H8  1  0.952900  0.064200  0.494100  1
  H  H9  1  0.346900  0.166200  0.010200  1
  H  H10  1  0.153100  0.666200  0.489800  1
  H  H11  1  0.346900  0.333800  0.989800  1
  H  H12  1  0.153100  0.833800  0.510200  1
  H  H13  1  0.653100  0.833800  0.989800  1
  H  H14  1  0.846900  0.333800  0.510200  1
  H  H15  1  0.653100  0.666200  0.010200  1
  H  H16  1  0.846900  0.166200  0.489800  1
  H  H17  1  0.548100  0.185600  0.988100  1
  H  H18  1  0.951900  0.685600  0.511900  1
  H  H19  1  0.548100  0.314400  0.011900  1
  H  H20  1  0.951900  0.814400  0.488100  1
  H  H21  1  0.451900  0.814400  0.011900  1
  H  H22  1  0.048100  0.314400  0.488100  1
  H  H23  1  0.451900  0.685600  0.988100  1
  H  H24  1  0.048100  0.185600  0.511900  1
  H  H25  1  0.445600  0.255200  0.972200  1
  H  H26  1  0.054400  0.755200  0.527800  1
  H  H27  1  0.445600  0.244800  0.027800  1
  H  H28  1  0.054400  0.744800  0.472200  1
  H  H29  1  0.554400  0.744800  0.027800  1
  H  H30  1  0.945600  0.244800  0.472200  1
  H  H31  1  0.554400  0.755200  0.972200  1
  H  H32  1  0.945600  0.255200  0.527800  1
  H  H33  1  0.622700  0.186700  0.989300  1
  H  H34  1  0.877300  0.686700  0.510700  1
  H  H35  1  0.622700  0.313300  0.010700  1
  H  H36  1  0.877300  0.813300  0.489300  1
  H  H37  1  0.377300  0.813300  0.010700  1
  H  H38  1  0.122700  0.313300  0.489300  1
  H  H39  1  0.377300  0.686700  0.989300  1
  H  H40  1  0.122700  0.186700  0.510700  1
  H  H41  1  0.695600  0.190200  0.986300  1
  H  H42  1  0.804400  0.690200  0.513700  1
  H  H43  1  0.695600  0.309800  0.013700  1
  H  H44  1  0.804400  0.809800  0.486300  1
  H  H45  1  0.304400  0.809800  0.013700  1
  H  H46  1  0.195600  0.309800  0.486300  1
  H  H47  1  0.304400  0.690200  0.986300  1
  H  H48  1  0.195600  0.190200  0.513700  1
  H  H49  1  0.725600  0.248300  0.968800  1
  H  H50  1  0.774400  0.748300  0.531200  1
  H  H51  1  0.725600  0.251700  0.031200  1
  H  H52  1  0.774400  0.751700  0.468800  1
  H  H53  1  0.274400  0.751700  0.031200  1
  H  H54  1  0.225600  0.251700  0.468800  1
  H  H55  1  0.274400  0.748300  0.968800  1
  H  H56  1  0.225600  0.248300  0.531200  1
  H  H57  1  0.680600  0.293200  0.952500  1
  H  H58  1  0.819400  0.793200  0.547500  1
  H  H59  1  0.680600  0.206800  0.047500  1
  H  H60  1  0.819400  0.706800  0.452500  1
  H  H61  1  0.319400  0.706800  0.047500  1
  H  H62  1  0.180600  0.206800  0.452500  1
  H  H63  1  0.319400  0.793200  0.952500  1
  H  H64  1  0.180600  0.293200  0.547500  1
  H  H65  1  0.427200  0.319100  0.959200  1
  H  H66  1  0.072800  0.819100  0.540800  1
  H  H67  1  0.427200  0.180900  0.040800  1
  H  H68  1  0.072800  0.680900  0.459200  1
  H  H69  1  0.572800  0.680900  0.040800  1
  H  H70  1  0.927200  0.180900  0.459200  1
  H  H71  1  0.572800  0.819100  0.959200  1
  H  H72  1  0.927200  0.319100  0.540800  1
  H  H73  1  0.414600  0.383000  0.942800  1
  H  H74  1  0.085400  0.883000  0.557200  1
  H  H75  1  0.414600  0.117000  0.057200  1
  H  H76  1  0.085400  0.617000  0.442800  1
  H  H77  1  0.585400  0.617000  0.057200  1
  H  H78  1  0.914600  0.117000  0.442800  1
  H  H79  1  0.585400  0.883000  0.942800  1
  H  H80  1  0.914600  0.383000  0.557200  1
  H  H81  1  0.473800  0.421000  0.930200  1
  H  H82  1  0.026200  0.921000  0.569800  1
  H  H83  1  0.473800  0.079000  0.069800  1
  H  H84  1  0.026200  0.579000  0.430200  1
  H  H85  1  0.526200  0.579000  0.069800  1
  H  H86  1  0.973800  0.079000  0.430200  1
  H  H87  1  0.526200  0.921000  0.930200  1
  H  H88  1  0.973800  0.421000  0.569800  1
  H  H89  1  0.541000  0.391800  0.931600  1
  H  H90  1  0.959000  0.891800  0.568400  1
  H  H91  1  0.541000  0.108200  0.068400  1
  H  H92  1  0.959000  0.608200  0.431600  1
  H  H93  1  0.459000  0.608200  0.068400  1
  H  H94  1  0.041000  0.108200  0.431600  1
  H  H95  1  0.459000  0.891800  0.931600  1
  H  H96  1  0.041000  0.391800  0.568400  1
  H  H97  1  0.325600  0.029200  0.042900  1
  H  H98  1  0.174400  0.529200  0.457100  1
  H  H99  1  0.325600  0.470800  0.957100  1
  H  H100  1  0.174400  0.970800  0.542900  1
  H  H101  1  0.674400  0.970800  0.957100  1
  H  H102  1  0.825600  0.470800  0.542900  1
  H  H103  1  0.674400  0.529200  0.042900  1
  H  H104  1  0.825600  0.029200  0.457100  1
  H  H105  1  0.319300  0.012600  0.084700  1
  H  H106  1  0.180700  0.512600  0.415300  1
  H  H107  1  0.319300  0.487400  0.915300  1
  H  H108  1  0.180700  0.987400  0.584700  1
  H  H109  1  0.680700  0.987400  0.915300  1
  H  H110  1  0.819300  0.487400  0.584700  1
  H  H111  1  0.680700  0.512600  0.084700  1
  H  H112  1  0.819300  0.012600  0.415300  1
  H  H113  1  0.315600  0.977400  0.067900  1
  H  H114  1  0.184400  0.477400  0.432100  1
  H  H115  1  0.315600  0.522600  0.932100  1
  H  H116  1  0.184400  0.022600  0.567900  1
  H  H117  1  0.684400  0.022600  0.932100  1
  H  H118  1  0.815600  0.522600  0.567900  1
  H  H119  1  0.684400  0.477400  0.067900  1
  H  H120  1  0.815600  0.977400  0.432100  1
  H  H121  1  0.258700  0.047200  0.070700  1
  H  H122  1  0.241300  0.547200  0.429300  1
  H  H123  1  0.258700  0.452800  0.929300  1
  H  H124  1  0.241300  0.952800  0.570700  1
  H  H125  1  0.741300  0.952800  0.929300  1
  H  H126  1  0.758700  0.452800  0.570700  1
  H  H127  1  0.741300  0.547200  0.070700  1
  H  H128  1  0.758700  0.047200  0.429300  1
  H  H129  1  0.246400  0.000900  0.077400  1
  H  H130  1  0.253600  0.500900  0.422600  1
  H  H131  1  0.246400  0.499100  0.922600  1
  H  H132  1  0.253600  0.999100  0.577400  1
  H  H133  1  0.753600  0.999100  0.922600  1
  H  H134  1  0.746400  0.499100  0.577400  1
  H  H135  1  0.753600  0.500900  0.077400  1
  H  H136  1  0.746400  0.000900  0.422600  1
  H  H137  1  0.254700  0.011200  0.054300  1
  H  H138  1  0.245300  0.511200  0.445700  1
  H  H139  1  0.254700  0.488800  0.945700  1
  H  H140  1  0.245300  0.988800  0.554300  1
  H  H141  1  0.745300  0.988800  0.945700  1
  H  H142  1  0.754700  0.488800  0.554300  1
  H  H143  1  0.745300  0.511200  0.054300  1
  H  H144  1  0.754700  0.011200  0.445700  1
  H  H145  1  0.304200  0.168700  0.040900  1
  H  H146  1  0.195800  0.668700  0.459100  1
  H  H147  1  0.304200  0.331300  0.959100  1
  H  H148  1  0.195800  0.831300  0.540900  1
  H  H149  1  0.695800  0.831300  0.959100  1
  H  H150  1  0.804200  0.331300  0.540900  1
  H  H151  1  0.695800  0.668700  0.040900  1
  H  H152  1  0.804200  0.168700  0.459100  1
  H  H153  1  0.344100  0.076300  0.090700  1
  H  H154  1  0.155900  0.576300  0.409300  1
  H  H155  1  0.344100  0.423700  0.909300  1
  H  H156  1  0.155900  0.923700  0.590700  1
  H  H157  1  0.655900  0.923700  0.909300  1
  H  H158  1  0.844100  0.423700  0.590700  1
  H  H159  1  0.655900  0.576300  0.090700  1
  H  H160  1  0.844100  0.076300  0.409300  1
  H  H161  1  0.263200  0.264400  0.081300  1
  H  H162  1  0.236800  0.764400  0.418700  1
  H  H163  1  0.263200  0.235600  0.918700  1
  H  H164  1  0.236800  0.735600  0.581300  1
  H  H165  1  0.736800  0.735600  0.918700  1
  H  H166  1  0.763200  0.235600  0.581300  1
  H  H167  1  0.736800  0.764400  0.081300  1
  H  H168  1  0.763200  0.264400  0.418700  1
  H  H169  1  0.405900  0.268100  0.107200  1
  H  H170  1  0.094100  0.768100  0.392800  1
  H  H171  1  0.405900  0.231900  0.892800  1
  H  H172  1  0.094100  0.731900  0.607200  1
  H  H173  1  0.594100  0.731900  0.892800  1
  H  H174  1  0.905900  0.231900  0.607200  1
  H  H175  1  0.594100  0.768100  0.107200  1
  H  H176  1  0.905900  0.268100  0.392800  1
  H  H177  1  0.288800  0.349700  0.113700  1
  H  H178  1  0.211200  0.849700  0.386300  1
  H  H179  1  0.288800  0.150300  0.886300  1
  H  H180  1  0.211200  0.650300  0.613700  1
  H  H181  1  0.711200  0.650300  0.886300  1
  H  H182  1  0.788800  0.150300  0.613700  1
  H  H183  1  0.711200  0.849700  0.113700  1
  H  H184  1  0.788800  0.349700  0.386300  1
  H  H185  1  0.259700  0.411600  0.104300  1
  H  H186  1  0.240300  0.911600  0.395700  1
  H  H187  1  0.259700  0.088400  0.895700  1
  H  H188  1  0.240300  0.588400  0.604300  1
  H  H189  1  0.740300  0.588400  0.895700  1
  H  H190  1  0.759700  0.088400  0.604300  1
  H  H191  1  0.740300  0.911600  0.104300  1
  H  H192  1  0.759700  0.411600  0.395700  1
  H  H193  1  0.212800  0.392600  0.102200  1
  H  H194  1  0.287200  0.892600  0.397800  1
  H  H195  1  0.212800  0.107400  0.897800  1
  H  H196  1  0.287200  0.607400  0.602200  1
  H  H197  1  0.787200  0.607400  0.897800  1
  H  H198  1  0.712800  0.107400  0.602200  1
  H  H199  1  0.787200  0.892600  0.102200  1
  H  H200  1  0.712800  0.392600  0.397800  1
  H  H201  1  0.255100  0.425400  0.067800  1
  H  H202  1  0.244900  0.925400  0.432200  1
  H  H203  1  0.255100  0.074600  0.932200  1
  H  H204  1  0.244900  0.574600  0.567800  1
  H  H205  1  0.744900  0.574600  0.932200  1
  H  H206  1  0.755100  0.074600  0.567800  1
  H  H207  1  0.744900  0.925400  0.067800  1
  H  H208  1  0.755100  0.425400  0.432200  1
  H  H209  1  0.228100  0.455400  0.082100  1
  H  H210  1  0.271900  0.955400  0.417900  1
  H  H211  1  0.228100  0.044600  0.917900  1
  H  H212  1  0.271900  0.544600  0.582100  1
  H  H213  1  0.771900  0.544600  0.917900  1
  H  H214  1  0.728100  0.044600  0.582100  1
  H  H215  1  0.771900  0.955400  0.082100  1
  H  H216  1  0.728100  0.455400  0.417900  1
  H  H217  1  0.205000  0.418100  0.070500  1
  H  H218  1  0.295000  0.918100  0.429500  1
  H  H219  1  0.205000  0.081900  0.929500  1
  H  H220  1  0.295000  0.581900  0.570500  1
  H  H221  1  0.795000  0.581900  0.929500  1
  H  H222  1  0.705000  0.081900  0.570500  1
  H  H223  1  0.795000  0.918100  0.070500  1
  H  H224  1  0.705000  0.418100  0.429500  1
  H  H225  1  0.388500  0.337200  0.120800  1
  H  H226  1  0.111500  0.837200  0.379200  1
  H  H227  1  0.388500  0.162800  0.879200  1
  H  H228  1  0.111500  0.662800  0.620800  1
  H  H229  1  0.611500  0.662800  0.879200  1
  H  H230  1  0.888500  0.162800  0.620800  1
  H  H231  1  0.611500  0.837200  0.120800  1
  H  H232  1  0.888500  0.337200  0.379200  1
  H  H233  1  0.434800  0.407400  0.108400  1
  H  H234  1  0.065200  0.907400  0.391600  1
  H  H235  1  0.434800  0.092600  0.891600  1
  H  H236  1  0.065200  0.592600  0.608400  1
  H  H237  1  0.565200  0.592600  0.891600  1
  H  H238  1  0.934800  0.092600  0.608400  1
  H  H239  1  0.565200  0.907400  0.108400  1
  H  H240  1  0.934800  0.407400  0.391600  1
  H  H241  1  0.395900  0.437800  0.113600  1
  H  H242  1  0.104100  0.937800  0.386400  1
  H  H243  1  0.395900  0.062200  0.886400  1
  H  H244  1  0.104100  0.562200  0.613600  1
  H  H245  1  0.604100  0.562200  0.886400  1
  H  H246  1  0.895900  0.062200  0.613600  1
  H  H247  1  0.604100  0.937800  0.113600  1
  H  H248  1  0.895900  0.437800  0.386400  1
  H  H249  1  0.389400  0.370300  0.138100  1
  H  H250  1  0.110600  0.870300  0.361900  1
  H  H251  1  0.389400  0.129700  0.861900  1
  H  H252  1  0.110600  0.629700  0.638100  1
  H  H253  1  0.610600  0.629700  0.861900  1
  H  H254  1  0.889400  0.129700  0.638100  1
  H  H255  1  0.610600  0.870300  0.138100  1
  H  H256  1  0.889400  0.370300  0.361900  1
  H  H257  1  0.398200  0.417200  0.144900  1
  H  H258  1  0.101800  0.917200  0.355100  1
  H  H259  1  0.398200  0.082800  0.855100  1
  H  H260  1  0.101800  0.582800  0.644900  1
  H  H261  1  0.601800  0.582800  0.855100  1
  H  H262  1  0.898200  0.082800  0.644900  1
  H  H263  1  0.601800  0.917200  0.144900  1
  H  H264  1  0.898200  0.417200  0.355100  1
  H  H265  1  0.437200  0.387200  0.139700  1
  H  H266  1  0.062800  0.887200  0.360300  1
  H  H267  1  0.437200  0.112800  0.860300  1
  H  H268  1  0.062800  0.612800  0.639700  1
  H  H269  1  0.562800  0.612800  0.860300  1
  H  H270  1  0.937200  0.112800  0.639700  1
  H  H271  1  0.562800  0.887200  0.139700  1
  H  H272  1  0.937200  0.387200  0.360300  1
  H  H273  1  0.325600  0.180600  0.108300  1
  H  H274  1  0.174400  0.680600  0.391700  1
  H  H275  1  0.325600  0.319400  0.891700  1
  H  H276  1  0.174400  0.819400  0.608300  1
  H  H277  1  0.674400  0.819400  0.891700  1
  H  H278  1  0.825600  0.319400  0.608300  1
  H  H279  1  0.674400  0.680600  0.108300  1
  H  H280  1  0.825600  0.180600  0.391700  1
  H  H281  1  0.322300  0.095100  0.121100  1
  H  H282  1  0.177700  0.595100  0.378900  1
  H  H283  1  0.322300  0.404900  0.878900  1
  H  H284  1  0.177700  0.904900  0.621100  1
  H  H285  1  0.677700  0.904900  0.878900  1
  H  H286  1  0.822300  0.404900  0.621100  1
  H  H287  1  0.677700  0.595100  0.121100  1
  H  H288  1  0.822300  0.095100  0.378900  1
  H  H289  1  0.320700  0.133700  0.136200  1
  H  H290  1  0.179300  0.633700  0.363800  1
  H  H291  1  0.320700  0.366300  0.863800  1
  H  H292  1  0.179300  0.866300  0.636200  1
  H  H293  1  0.679300  0.866300  0.863800  1
  H  H294  1  0.820700  0.366300  0.636200  1
  H  H295  1  0.679300  0.633700  0.136200  1
  H  H296  1  0.820700  0.133700  0.363800  1
  H  H297  1  0.256400  0.157000  0.120300  1
  H  H298  1  0.243600  0.657000  0.379700  1
  H  H299  1  0.256400  0.343000  0.879700  1
  H  H300  1  0.243600  0.843000  0.620300  1
  H  H301  1  0.743600  0.843000  0.879700  1
  H  H302  1  0.756400  0.343000  0.620300  1
  H  H303  1  0.743600  0.657000  0.120300  1
  H  H304  1  0.756400  0.157000  0.379700  1
  H  H305  1  0.250300  0.111700  0.129800  1
  H  H306  1  0.249700  0.611700  0.370200  1
  H  H307  1  0.250300  0.388300  0.870200  1
  H  H308  1  0.249700  0.888300  0.629800  1
  H  H309  1  0.749700  0.888300  0.870200  1
  H  H310  1  0.750300  0.388300  0.629800  1
  H  H311  1  0.749700  0.611700  0.129800  1
  H  H312  1  0.750300  0.111700  0.370200  1
  H  H313  1  0.257700  0.116800  0.106300  1
  H  H314  1  0.242300  0.616800  0.393700  1
  H  H315  1  0.257700  0.383200  0.893700  1
  H  H316  1  0.242300  0.883200  0.606300  1
  H  H317  1  0.742300  0.883200  0.893700  1
  H  H318  1  0.757700  0.383200  0.606300  1
  H  H319  1  0.742300  0.616800  0.106300  1
  H  H320  1  0.757700  0.116800  0.393700  1
  H  H321  1  0.469200  0.195600  0.089000  1
  H  H322  1  0.030800  0.695600  0.411000  1
  H  H323  1  0.469200  0.304400  0.911000  1
  H  H324  1  0.030800  0.804400  0.589000  1
  H  H325  1  0.530800  0.804400  0.911000  1
  H  H326  1  0.969200  0.304400  0.589000  1
  H  H327  1  0.530800  0.695600  0.089000  1
  H  H328  1  0.969200  0.195600  0.411000  1
  H  H329  1  0.391300  0.111200  0.132200  1
  H  H330  1  0.108700  0.611200  0.367800  1
  H  H331  1  0.391300  0.388800  0.867800  1
  H  H332  1  0.108700  0.888800  0.632200  1
  H  H333  1  0.608700  0.888800  0.867800  1
  H  H334  1  0.891300  0.388800  0.632200  1
  H  H335  1  0.608700  0.611200  0.132200  1
  H  H336  1  0.891300  0.111200  0.367800  1
  H  H337  1  0.519100  0.221000  0.123800  1
  H  H338  1  0.980900  0.721000  0.376200  1
  H  H339  1  0.519100  0.279000  0.876200  1
  H  H340  1  0.980900  0.779000  0.623800  1
  H  H341  1  0.480900  0.779000  0.876200  1
  H  H342  1  0.019100  0.279000  0.623800  1
  H  H343  1  0.480900  0.721000  0.123800  1
  H  H344  1  0.019100  0.221000  0.376200  1
  H  H345  1  0.602500  0.129100  0.160500  1
  H  H346  1  0.897500  0.629100  0.339500  1
  H  H347  1  0.602500  0.370900  0.839500  1
  H  H348  1  0.897500  0.870900  0.660500  1
  H  H349  1  0.397500  0.870900  0.839500  1
  H  H350  1  0.102500  0.370900  0.660500  1
  H  H351  1  0.397500  0.629100  0.160500  1
  H  H352  1  0.102500  0.129100  0.339500  1
  H  H353  1  0.565400  0.335400  0.161400  1
  H  H354  1  0.934600  0.835400  0.338600  1
  H  H355  1  0.565400  0.164600  0.838600  1
  H  H356  1  0.934600  0.664600  0.661400  1
  H  H357  1  0.434600  0.664600  0.838600  1
  H  H358  1  0.065400  0.164600  0.661400  1
  H  H359  1  0.434600  0.835400  0.161400  1
  H  H360  1  0.065400  0.335400  0.338600  1
  H  H361  1  0.516900  0.331200  0.168300  1
  H  H362  1  0.983100  0.831200  0.331700  1
  H  H363  1  0.516900  0.168800  0.831700  1
  H  H364  1  0.983100  0.668800  0.668300  1
  H  H365  1  0.483100  0.668800  0.831700  1
  H  H366  1  0.016900  0.168800  0.668300  1
  H  H367  1  0.483100  0.831200  0.168300  1
  H  H368  1  0.016900  0.331200  0.331700  1
  H  H369  1  0.539500  0.365600  0.130300  1
  H  H370  1  0.960500  0.865600  0.369700  1
  H  H371  1  0.539500  0.134400  0.869700  1
  H  H372  1  0.960500  0.634400  0.630300  1
  H  H373  1  0.460500  0.634400  0.869700  1
  H  H374  1  0.039500  0.134400  0.630300  1
  H  H375  1  0.460500  0.865600  0.130300  1
  H  H376  1  0.039500  0.365600  0.369700  1
  H  H377  1  0.531200  0.394100  0.149500  1
  H  H378  1  0.968800  0.894100  0.350500  1
  H  H379  1  0.531200  0.105900  0.850500  1
  H  H380  1  0.968800  0.605900  0.649500  1
  H  H381  1  0.468800  0.605900  0.850500  1
  H  H382  1  0.031200  0.105900  0.649500  1
  H  H383  1  0.468800  0.894100  0.149500  1
  H  H384  1  0.031200  0.394100  0.350500  1
  H  H385  1  0.493200  0.367100  0.140300  1
  H  H386  1  0.006800  0.867100  0.359700  1
  H  H387  1  0.493200  0.132900  0.859700  1
  H  H388  1  0.006800  0.632900  0.640300  1
  H  H389  1  0.506800  0.632900  0.859700  1
  H  H390  1  0.993200  0.132900  0.640300  1
  H  H391  1  0.506800  0.867100  0.140300  1
  H  H392  1  0.993200  0.367100  0.359700  1
  H  H393  1  0.627500  0.184800  0.217400  1
  H  H394  1  0.872500  0.684800  0.282600  1
  H  H395  1  0.627500  0.315200  0.782600  1
  H  H396  1  0.872500  0.815200  0.717400  1
  H  H397  1  0.372500  0.815200  0.782600  1
  H  H398  1  0.127500  0.315200  0.717400  1
  H  H399  1  0.372500  0.684800  0.217400  1
  H  H400  1  0.127500  0.184800  0.282600  1
  H  H401  1  0.623300  0.231900  0.210000  1
  H  H402  1  0.876700  0.731900  0.290000  1
  H  H403  1  0.623300  0.268100  0.790000  1
  H  H404  1  0.876700  0.768100  0.710000  1
  H  H405  1  0.376700  0.768100  0.790000  1
  H  H406  1  0.123300  0.268100  0.710000  1
  H  H407  1  0.376700  0.731900  0.210000  1
  H  H408  1  0.123300  0.231900  0.290000  1
  H  H409  1  0.688000  0.223200  0.227600  1
  H  H410  1  0.812000  0.723200  0.272400  1
  H  H411  1  0.688000  0.276800  0.772400  1
  H  H412  1  0.812000  0.776800  0.727600  1
  H  H413  1  0.312000  0.776800  0.772400  1
  H  H414  1  0.188000  0.276800  0.727600  1
  H  H415  1  0.312000  0.723200  0.227600  1
  H  H416  1  0.188000  0.223200  0.272400  1
  H  H417  1  0.702500  0.187600  0.212300  1
  H  H418  1  0.797500  0.687600  0.287700  1
  H  H419  1  0.702500  0.312400  0.787700  1
  H  H420  1  0.797500  0.812400  0.712300  1
  H  H421  1  0.297500  0.812400  0.787700  1
  H  H422  1  0.202500  0.312400  0.712300  1
  H  H423  1  0.297500  0.687600  0.212300  1
  H  H424  1  0.202500  0.187600  0.287700  1
  H  H425  1  0.698300  0.234700  0.204900  1
  H  H426  1  0.801700  0.734700  0.295100  1
  H  H427  1  0.698300  0.265300  0.795100  1
  H  H428  1  0.801700  0.765300  0.704900  1
  H  H429  1  0.301700  0.765300  0.795100  1
  H  H430  1  0.198300  0.265300  0.704900  1
  H  H431  1  0.301700  0.734700  0.204900  1
  H  H432  1  0.198300  0.234700  0.295100  1
  H  H433  1  0.495800  0.112200  0.144600  1
  H  H434  1  0.004200  0.612200  0.355400  1
  H  H435  1  0.495800  0.387800  0.855400  1
  H  H436  1  0.004200  0.887800  0.644600  1
  H  H437  1  0.504200  0.887800  0.855400  1
  H  H438  1  0.995800  0.387800  0.644600  1
  H  H439  1  0.504200  0.612200  0.144600  1
  H  H440  1  0.995800  0.112200  0.355400  1
  H  H441  1  0.423700  0.058400  0.144400  1
  H  H442  1  0.076300  0.558400  0.355600  1
  H  H443  1  0.423700  0.441600  0.855600  1
  H  H444  1  0.076300  0.941600  0.644400  1
  H  H445  1  0.576300  0.941600  0.855600  1
  H  H446  1  0.923700  0.441600  0.644400  1
  H  H447  1  0.576300  0.558400  0.144400  1
  H  H448  1  0.923700  0.058400  0.355600  1
  H  H449  1  0.465200  0.048300  0.157200  1
  H  H450  1  0.034800  0.548300  0.342800  1
  H  H451  1  0.465200  0.451700  0.842800  1
  H  H452  1  0.034800  0.951700  0.657200  1
  H  H453  1  0.534800  0.951700  0.842800  1
  H  H454  1  0.965200  0.451700  0.657200  1
  H  H455  1  0.534800  0.548300  0.157200  1
  H  H456  1  0.965200  0.048300  0.342800  1
  H  H457  1  0.452500  0.107400  0.175800  1
  H  H458  1  0.047500  0.607400  0.324200  1
  H  H459  1  0.452500  0.392600  0.824200  1
  H  H460  1  0.047500  0.892600  0.675800  1
  H  H461  1  0.547500  0.892600  0.824200  1
  H  H462  1  0.952500  0.392600  0.675800  1
  H  H463  1  0.547500  0.607400  0.175800  1
  H  H464  1  0.952500  0.107400  0.324200  1
  H  H465  1  0.415500  0.073300  0.177400  1
  H  H466  1  0.084500  0.573300  0.322600  1
  H  H467  1  0.415500  0.426700  0.822600  1
  H  H468  1  0.084500  0.926700  0.677400  1
  H  H469  1  0.584500  0.926700  0.822600  1
  H  H470  1  0.915500  0.426700  0.677400  1
  H  H471  1  0.584500  0.573300  0.177400  1
  H  H472  1  0.915500  0.073300  0.322600  1
  H  H473  1  0.409000  0.113700  0.163700  1
  H  H474  1  0.091000  0.613700  0.336300  1
  H  H475  1  0.409000  0.386300  0.836300  1
  H  H476  1  0.091000  0.886300  0.663700  1
  H  H477  1  0.591000  0.886300  0.836300  1
  H  H478  1  0.909000  0.386300  0.663700  1
  H  H479  1  0.591000  0.613700  0.163700  1
  H  H480  1  0.909000  0.113700  0.336300  1
  H  H481  1  0.592700  0.048300  0.102100  1
  H  H482  1  0.907300  0.548300  0.397900  1
  H  H483  1  0.592700  0.451700  0.897900  1
  H  H484  1  0.907300  0.951700  0.602100  1
  H  H485  1  0.407300  0.951700  0.897900  1
  H  H486  1  0.092700  0.451700  0.602100  1
  H  H487  1  0.407300  0.548300  0.102100  1
  H  H488  1  0.092700  0.048300  0.397900  1
  H  H489  1  0.449200  0.032700  0.114600  1
  H  H490  1  0.050800  0.532700  0.385400  1
  H  H491  1  0.449200  0.467300  0.885400  1
  H  H492  1  0.050800  0.967300  0.614600  1
  H  H493  1  0.550800  0.967300  0.885400  1
  H  H494  1  0.949200  0.467300  0.614600  1
  H  H495  1  0.550800  0.532700  0.114600  1
  H  H496  1  0.949200  0.032700  0.385400  1
  H  H497  1  0.626300  0.034400  0.069900  1
  H  H498  1  0.873700  0.534400  0.430100  1
  H  H499  1  0.626300  0.465600  0.930100  1
  H  H500  1  0.873700  0.965600  0.569900  1
  H  H501  1  0.373700  0.965600  0.930100  1
  H  H502  1  0.126300  0.465600  0.569900  1
  H  H503  1  0.373700  0.534400  0.069900  1
  H  H504  1  0.126300  0.034400  0.430100  1
  H  H505  1  0.531400  0.007900  0.017700  1
  H  H506  1  0.968600  0.507900  0.482300  1
  H  H507  1  0.531400  0.492100  0.982300  1
  H  H508  1  0.968600  0.992100  0.517700  1
  H  H509  1  0.468600  0.992100  0.982300  1
  H  H510  1  0.031400  0.492100  0.517700  1
  H  H511  1  0.468600  0.507900  0.017700  1
  H  H512  1  0.031400  0.007900  0.482300  1
  H  H513  1  0.751200  0.075000  0.032300  1
  H  H514  1  0.748800  0.575000  0.467700  1
  H  H515  1  0.751200  0.425000  0.967700  1
  H  H516  1  0.748800  0.925000  0.532300  1
  H  H517  1  0.248800  0.925000  0.967700  1
  H  H518  1  0.251200  0.425000  0.532300  1
  H  H519  1  0.248800  0.575000  0.032300  1
  H  H520  1  0.251200  0.075000  0.467700  1
  H  H521  1  0.738100  0.099500  0.052000  1
  H  H522  1  0.761900  0.599500  0.448000  1
  H  H523  1  0.738100  0.400500  0.948000  1
  H  H524  1  0.761900  0.900500  0.552000  1
  H  H525  1  0.261900  0.900500  0.948000  1
  H  H526  1  0.238100  0.400500  0.552000  1
  H  H527  1  0.261900  0.599500  0.052000  1
  H  H528  1  0.238100  0.099500  0.448000  1
  H  H529  1  0.743300  0.145600  0.025300  1
  H  H530  1  0.756700  0.645600  0.474700  1
  H  H531  1  0.743300  0.354400  0.974700  1
  H  H532  1  0.756700  0.854400  0.525300  1
  H  H533  1  0.256700  0.854400  0.974700  1
  H  H534  1  0.243300  0.354400  0.525300  1
  H  H535  1  0.256700  0.645600  0.025300  1
  H  H536  1  0.243300  0.145600  0.474700  1
  H  H537  1  0.708200  0.119800  0.013200  1
  H  H538  1  0.791800  0.619800  0.486800  1
  H  H539  1  0.708200  0.380200  0.986800  1
  H  H540  1  0.791800  0.880200  0.513200  1
  H  H541  1  0.291800  0.880200  0.986800  1
  H  H542  1  0.208200  0.380200  0.513200  1
  H  H543  1  0.291800  0.619800  0.013200  1
  H  H544  1  0.208200  0.119800  0.486800  1
  H  H545  1  0.695100  0.144400  0.033000  1
  H  H546  1  0.804900  0.644400  0.467000  1
  H  H547  1  0.695100  0.355600  0.967000  1
  H  H548  1  0.804900  0.855600  0.533000  1
  H  H549  1  0.304900  0.855600  0.967000  1
  H  H550  1  0.195100  0.355600  0.533000  1
  H  H551  1  0.304900  0.644400  0.033000  1
  H  H552  1  0.195100  0.144400  0.467000  1
  H  H553  1  0.617200  0.108300  0.977300  1
  H  H554  1  0.882800  0.608300  0.522700  1
  H  H555  1  0.617200  0.391700  0.022700  1
  H  H556  1  0.882800  0.891700  0.477300  1
  H  H557  1  0.382800  0.891700  0.022700  1
  H  H558  1  0.117200  0.391700  0.477300  1
  H  H559  1  0.382800  0.608300  0.977300  1
  H  H560  1  0.117200  0.108300  0.522700  1
  H  H561  1  0.609200  0.064100  0.966900  1
  H  H562  1  0.890800  0.564100  0.533100  1
  H  H563  1  0.609200  0.435900  0.033100  1
  H  H564  1  0.890800  0.935900  0.466900  1
  H  H565  1  0.390800  0.935900  0.033100  1
  H  H566  1  0.109200  0.435900  0.466900  1
  H  H567  1  0.390800  0.564100  0.966900  1
  H  H568  1  0.109200  0.064100  0.533100  1
  H  H569  1  0.537400  0.091700  0.958600  1
  H  H570  1  0.962600  0.591700  0.541400  1
  H  H571  1  0.537400  0.408300  0.041400  1
  H  H572  1  0.962600  0.908300  0.458600  1
  H  H573  1  0.462600  0.908300  0.041400  1
  H  H574  1  0.037400  0.408300  0.458600  1
  H  H575  1  0.462600  0.591700  0.958600  1
  H  H576  1  0.037400  0.091700  0.541400  1
  H  H577  1  0.576400  0.109300  0.945700  1
  H  H578  1  0.923600  0.609300  0.554300  1
  H  H579  1  0.576400  0.390700  0.054300  1
  H  H580  1  0.923600  0.890700  0.445700  1
  H  H581  1  0.423600  0.890700  0.054300  1
  H  H582  1  0.076400  0.390700  0.445700  1
  H  H583  1  0.423600  0.609300  0.945700  1
  H  H584  1  0.076400  0.109300  0.554300  1
  H  H585  1  0.557100  0.136400  0.963600  1
  H  H586  1  0.942900  0.636400  0.536400  1
  H  H587  1  0.557100  0.363600  0.036400  1
  H  H588  1  0.942900  0.863600  0.463600  1
  H  H589  1  0.442900  0.863600  0.036400  1
  H  H590  1  0.057100  0.363600  0.463600  1
  H  H591  1  0.442900  0.636400  0.963600  1
  H  H592  1  0.057100  0.136400  0.536400  1
  H  H593  1  0.494600  0.954400  0.083400  1
  H  H594  1  0.005400  0.454400  0.416600  1
  H  H595  1  0.494600  0.545600  0.916600  1
  H  H596  1  0.005400  0.045600  0.583400  1
  H  H597  1  0.505400  0.045600  0.916600  1
  H  H598  1  0.994600  0.545600  0.583400  1
  H  H599  1  0.505400  0.454400  0.083400  1
  H  H600  1  0.994600  0.954400  0.416600  1
  H  H601  1  0.464000  0.942300  0.115500  1
  H  H602  1  0.036000  0.442300  0.384500  1
  H  H603  1  0.464000  0.557700  0.884500  1
  H  H604  1  0.036000  0.057700  0.615500  1
  H  H605  1  0.536000  0.057700  0.884500  1
  H  H606  1  0.964000  0.557700  0.615500  1
  H  H607  1  0.536000  0.442300  0.115500  1
  H  H608  1  0.964000  0.942300  0.384500  1
  H  H609  1  0.422800  0.968100  0.108900  1
  H  H610  1  0.077200  0.468100  0.391100  1
  H  H611  1  0.422800  0.531900  0.891100  1
  H  H612  1  0.077200  0.031900  0.608900  1
  H  H613  1  0.577200  0.031900  0.891100  1
  H  H614  1  0.922800  0.531900  0.608900  1
  H  H615  1  0.577200  0.468100  0.108900  1
  H  H616  1  0.922800  0.968100  0.391100  1
  H  H617  1  0.407500  0.920000  0.085100  1
  H  H618  1  0.092500  0.420000  0.414900  1
  H  H619  1  0.407500  0.580000  0.914900  1
  H  H620  1  0.092500  0.080000  0.585100  1
  H  H621  1  0.592500  0.080000  0.914900  1
  H  H622  1  0.907500  0.580000  0.585100  1
  H  H623  1  0.592500  0.420000  0.085100  1
  H  H624  1  0.907500  0.920000  0.414900  1
  H  H625  1  0.411900  0.897800  0.106400  1
  H  H626  1  0.088100  0.397800  0.393600  1
  H  H627  1  0.411900  0.602200  0.893600  1
  H  H628  1  0.088100  0.102200  0.606400  1
  H  H629  1  0.588100  0.102200  0.893600  1
  H  H630  1  0.911900  0.602200  0.606400  1
  H  H631  1  0.588100  0.397800  0.106400  1
  H  H632  1  0.911900  0.897800  0.393600  1
  H  H633  1  0.449900  0.894700  0.090600  1
  H  H634  1  0.050100  0.394700  0.409400  1
  H  H635  1  0.449900  0.605300  0.909400  1
  H  H636  1  0.050100  0.105300  0.590600  1
  H  H637  1  0.550100  0.105300  0.909400  1
  H  H638  1  0.949900  0.605300  0.590600  1
  H  H639  1  0.550100  0.394700  0.090600  1
  H  H640  1  0.949900  0.894700  0.409400  1
  H  H641  1  0.459300  0.007100  0.022900  1
  H  H642  1  0.040700  0.507100  0.477100  1
  H  H643  1  0.459300  0.492900  0.977100  1
  H  H644  1  0.040700  0.992900  0.522900  1
  H  H645  1  0.540700  0.992900  0.977100  1
  H  H646  1  0.959300  0.492900  0.522900  1
  H  H647  1  0.540700  0.507100  0.022900  1
  H  H648  1  0.959300  0.007100  0.477100  1
  H  H649  1  0.392100  0.003900  0.084800  1
  H  H650  1  0.107900  0.503900  0.415200  1
  H  H651  1  0.392100  0.496100  0.915200  1
  H  H652  1  0.107900  0.996100  0.584800  1
  H  H653  1  0.607900  0.996100  0.915200  1
  H  H654  1  0.892100  0.496100  0.584800  1
  H  H655  1  0.607900  0.503900  0.084800  1
  H  H656  1  0.892100  0.003900  0.415200  1
  H  H657  1  0.569200  0.264300  0.165900  1
  H  H658  1  0.930800  0.764300  0.334100  1
  H  H659  1  0.569200  0.235700  0.834100  1
  H  H660  1  0.930800  0.735700  0.665900  1
  H  H661  1  0.430800  0.735700  0.834100  1
  H  H662  1  0.069200  0.235700  0.665900  1
  H  H663  1  0.430800  0.764300  0.165900  1
  H  H664  1  0.069200  0.264300  0.334100  1
  H  H665  1  0.578100  0.216200  0.186100  1
  H  H666  1  0.921900  0.716200  0.313900  1
  H  H667  1  0.578100  0.283800  0.813900  1
  H  H668  1  0.921900  0.783800  0.686100  1
  H  H669  1  0.421900  0.783800  0.813900  1
  H  H670  1  0.078100  0.283800  0.686100  1
  H  H671  1  0.421900  0.716200  0.186100  1
  H  H672  1  0.078100  0.216200  0.313900  1
  H  H673  1  0.648300  0.095400  0.031300  1
  H  H674  1  0.851700  0.595400  0.468700  1
  H  H675  1  0.648300  0.404600  0.968700  1
  H  H676  1  0.851700  0.904600  0.531300  1
  H  H677  1  0.351700  0.904600  0.968700  1
  H  H678  1  0.148300  0.404600  0.531300  1
  H  H679  1  0.351700  0.595400  0.031300  1
  H  H680  1  0.148300  0.095400  0.468700  1
  H  H681  1  0.624900  0.047000  0.001000  1
  H  H682  1  0.875100  0.547000  0.499000  1
  H  H683  1  0.624900  0.453000  0.999000  1
  H  H684  1  0.875100  0.953000  0.501000  1
  H  H685  1  0.375100  0.953000  0.999000  1
  H  H686  1  0.124900  0.453000  0.501000  1
  H  H687  1  0.375100  0.547000  0.001000  1
  H  H688  1  0.124900  0.047000  0.499000  1
  H  H689  1  0.349200  0.430200  0.031300  1
  H  H690  1  0.150800  0.930200  0.468700  1
  H  H691  1  0.349200  0.069800  0.968700  1
  H  H692  1  0.150800  0.569800  0.531300  1
  H  H693  1  0.650800  0.569800  0.968700  1
  H  H694  1  0.849200  0.069800  0.531300  1
  H  H695  1  0.650800  0.930200  0.031300  1
  H  H696  1  0.849200  0.430200  0.468700  1
  H  H697  1  0.369400  0.428800  0.069100  1
  H  H698  1  0.130600  0.928800  0.430900  1
  H  H699  1  0.369400  0.071200  0.930900  1
  H  H700  1  0.130600  0.571200  0.569100  1
  H  H701  1  0.630600  0.571200  0.930900  1
  H  H702  1  0.869400  0.071200  0.569100  1
  H  H703  1  0.630600  0.928800  0.069100  1
  H  H704  1  0.869400  0.428800  0.430900  1
  H  H705  1  0.338300  0.392100  0.062000  1
  H  H706  1  0.161700  0.892100  0.438000  1
  H  H707  1  0.338300  0.107900  0.938000  1
  H  H708  1  0.161700  0.607900  0.562000  1
  H  H709  1  0.661700  0.607900  0.938000  1
  H  H710  1  0.838300  0.107900  0.562000  1
  H  H711  1  0.661700  0.892100  0.062000  1
  H  H712  1  0.838300  0.392100  0.438000  1
  H  H713  1  0.320800  0.478600  0.062800  1
  H  H714  1  0.179200  0.978600  0.437200  1
  H  H715  1  0.320800  0.021400  0.937200  1
  H  H716  1  0.179200  0.521400  0.562800  1
  H  H717  1  0.679200  0.521400  0.937200  1
  H  H718  1  0.820800  0.021400  0.562800  1
  H  H719  1  0.679200  0.978600  0.062800  1
  H  H720  1  0.820800  0.478600  0.437200  1
  H  H721  1  0.289700  0.441400  0.069000  1
  H  H722  1  0.210300  0.941400  0.431000  1
  H  H723  1  0.289700  0.058600  0.931000  1
  H  H724  1  0.210300  0.558600  0.569000  1
  H  H725  1  0.710300  0.558600  0.931000  1
  H  H726  1  0.789700  0.058600  0.569000  1
  H  H727  1  0.710300  0.941400  0.069000  1
  H  H728  1  0.789700  0.441400  0.431000  1
  H  H729  1  0.297600  0.451600  0.045900  1
  H  H730  1  0.202400  0.951600  0.454100  1
  H  H731  1  0.297600  0.048400  0.954100  1
  H  H732  1  0.202400  0.548400  0.545900  1
  H  H733  1  0.702400  0.548400  0.954100  1
  H  H734  1  0.797600  0.048400  0.545900  1
  H  H735  1  0.702400  0.951600  0.045900  1
  H  H736  1  0.797600  0.451600  0.454100  1
  H  H737  1  0.845000  0.074700  0.204700  1
  H  H738  1  0.655000  0.574700  0.295300  1
  H  H739  1  0.845000  0.425300  0.795300  1
  H  H740  1  0.655000  0.925300  0.704700  1
  H  H741  1  0.155000  0.925300  0.795300  1
  H  H742  1  0.345000  0.425300  0.704700  1
  H  H743  1  0.155000  0.574700  0.204700  1
  H  H744  1  0.345000  0.074700  0.295300  1
  H  H745  1  0.926300  0.195500  0.221700  1
  H  H746  1  0.573700  0.695500  0.278300  1
  H  H747  1  0.926300  0.304500  0.778300  1
  H  H748  1  0.573700  0.804500  0.721700  1
  H  H749  1  0.073700  0.804500  0.778300  1
  H  H750  1  0.426300  0.304500  0.721700  1
  H  H751  1  0.073700  0.695500  0.221700  1
  H  H752  1  0.426300  0.195500  0.278300  1
  H  H753  1  0.758600  0.176900  0.162900  1
  H  H754  1  0.741400  0.676900  0.337100  1
  H  H755  1  0.758600  0.323100  0.837100  1
  H  H756  1  0.741400  0.823100  0.662900  1
  H  H757  1  0.241400  0.823100  0.837100  1
  H  H758  1  0.258600  0.323100  0.662900  1
  H  H759  1  0.241400  0.676900  0.162900  1
  H  H760  1  0.258600  0.176900  0.337100  1
  H  H761  1  0.804500  0.275500  0.194900  1
  H  H762  1  0.695500  0.775500  0.305100  1
  H  H763  1  0.804500  0.224500  0.805100  1
  H  H764  1  0.695500  0.724500  0.694900  1
  H  H765  1  0.195500  0.724500  0.805100  1
  H  H766  1  0.304500  0.224500  0.694900  1
  H  H767  1  0.195500  0.775500  0.194900  1
  H  H768  1  0.304500  0.275500  0.305100  1
  H  H769  1  0.712400  0.160500  0.137800  1
  H  H770  1  0.787600  0.660500  0.362200  1
  H  H771  1  0.712400  0.339500  0.862200  1
  H  H772  1  0.787600  0.839500  0.637800  1
  H  H773  1  0.287600  0.839500  0.862200  1
  H  H774  1  0.212400  0.339500  0.637800  1
  H  H775  1  0.287600  0.660500  0.137800  1
  H  H776  1  0.212400  0.160500  0.362200  1
  H  H777  1  0.661600  0.150700  0.112900  1
  H  H778  1  0.838400  0.650700  0.387100  1
  H  H779  1  0.661600  0.349300  0.887100  1
  H  H780  1  0.838400  0.849300  0.612900  1
  H  H781  1  0.338400  0.849300  0.887100  1
  H  H782  1  0.161600  0.349300  0.612900  1
  H  H783  1  0.338400  0.650700  0.112900  1
  H  H784  1  0.161600  0.150700  0.387100  1
  H  H785  1  0.616500  0.205300  0.103400  1
  H  H786  1  0.883500  0.705300  0.396600  1
  H  H787  1  0.616500  0.294700  0.896600  1
  H  H788  1  0.883500  0.794700  0.603400  1
  H  H789  1  0.383500  0.794700  0.896600  1
  H  H790  1  0.116500  0.294700  0.603400  1
  H  H791  1  0.383500  0.705300  0.103400  1
  H  H792  1  0.116500  0.205300  0.396600  1
  H  H793  1  0.625400  0.269900  0.118700  1
  H  H794  1  0.874600  0.769900  0.381300  1
  H  H795  1  0.625400  0.230100  0.881300  1
  H  H796  1  0.874600  0.730100  0.618700  1
  H  H797  1  0.374600  0.730100  0.881300  1
  H  H798  1  0.125400  0.230100  0.618700  1
  H  H799  1  0.374600  0.769900  0.118700  1
  H  H800  1  0.125400  0.269900  0.381300  1
  H  H801  1  0.798100  0.346100  0.199700  1
  H  H802  1  0.701900  0.846100  0.300300  1
  H  H803  1  0.798100  0.153900  0.800300  1
  H  H804  1  0.701900  0.653900  0.699700  1
  H  H805  1  0.201900  0.653900  0.800300  1
  H  H806  1  0.298100  0.153900  0.699700  1
  H  H807  1  0.201900  0.846100  0.199700  1
  H  H808  1  0.298100  0.346100  0.300300  1
  H  H809  1  0.785600  0.418400  0.201300  1
  H  H810  1  0.714400  0.918400  0.298700  1
  H  H811  1  0.785600  0.081600  0.798700  1
  H  H812  1  0.714400  0.581600  0.701300  1
  H  H813  1  0.214400  0.581600  0.798700  1
  H  H814  1  0.285600  0.081600  0.701300  1
  H  H815  1  0.214400  0.918400  0.201300  1
  H  H816  1  0.285600  0.418400  0.298700  1
  H  H817  1  0.733500  0.448900  0.180800  1
  H  H818  1  0.766500  0.948900  0.319200  1
  H  H819  1  0.733500  0.051100  0.819200  1
  H  H820  1  0.766500  0.551100  0.680800  1
  H  H821  1  0.266500  0.551100  0.819200  1
  H  H822  1  0.233500  0.051100  0.680800  1
  H  H823  1  0.266500  0.948900  0.180800  1
  H  H824  1  0.233500  0.448900  0.319200  1
  H  H825  1  0.693500  0.406400  0.159500  1
  H  H826  1  0.806500  0.906400  0.340500  1
  H  H827  1  0.693500  0.093600  0.840500  1
  H  H828  1  0.806500  0.593600  0.659500  1
  H  H829  1  0.306500  0.593600  0.840500  1
  H  H830  1  0.193500  0.093600  0.659500  1
  H  H831  1  0.306500  0.906400  0.159500  1
  H  H832  1  0.193500  0.406400  0.340500  1
  H  H833  1  0.987100  0.053700  0.233000  1
  H  H834  1  0.512900  0.553700  0.267000  1
  H  H835  1  0.987100  0.446300  0.767000  1
  H  H836  1  0.512900  0.946300  0.733000  1
  H  H837  1  0.012900  0.946300  0.767000  1
  H  H838  1  0.487100  0.446300  0.733000  1
  H  H839  1  0.012900  0.553700  0.233000  1
  H  H840  1  0.487100  0.053700  0.267000  1
  H  H841  1  0.060800  0.037000  0.233100  1
  H  H842  1  0.439200  0.537000  0.266900  1
  H  H843  1  0.060800  0.463000  0.766900  1
  H  H844  1  0.439200  0.963000  0.733100  1
  H  H845  1  0.939200  0.963000  0.766900  1
  H  H846  1  0.560800  0.463000  0.733100  1
  H  H847  1  0.939200  0.537000  0.233100  1
  H  H848  1  0.560800  0.037000  0.266900  1
  H  H849  1  0.055300  0.011900  0.212600  1
  H  H850  1  0.444700  0.511900  0.287400  1
  H  H851  1  0.055300  0.488100  0.787400  1
  H  H852  1  0.444700  0.988100  0.712600  1
  H  H853  1  0.944700  0.988100  0.787400  1
  H  H854  1  0.555300  0.488100  0.712600  1
  H  H855  1  0.944700  0.511900  0.212600  1
  H  H856  1  0.555300  0.011900  0.287400  1
  H  H857  1  0.053600  0.964300  0.240000  1
  H  H858  1  0.446400  0.464300  0.260000  1
  H  H859  1  0.053600  0.535700  0.760000  1
  H  H860  1  0.446400  0.035700  0.740000  1
  H  H861  1  0.946400  0.035700  0.760000  1
  H  H862  1  0.553600  0.535700  0.740000  1
  H  H863  1  0.946400  0.464300  0.240000  1
  H  H864  1  0.553600  0.964300  0.260000  1
  H  H865  1  0.014000  0.988600  0.249500  1
  H  H866  1  0.486000  0.488600  0.250500  1
  H  H867  1  0.014000  0.511400  0.750500  1
  H  H868  1  0.486000  0.011400  0.749500  1
  H  H869  1  0.986000  0.011400  0.750500  1
  H  H870  1  0.514000  0.511400  0.749500  1
  H  H871  1  0.986000  0.488600  0.249500  1
  H  H872  1  0.514000  0.988600  0.250500  1
  H  H873  1  0.008500  0.963600  0.229000  1
  H  H874  1  0.491500  0.463600  0.271000  1
  H  H875  1  0.008500  0.536400  0.771000  1
  H  H876  1  0.491500  0.036400  0.729000  1
  H  H877  1  0.991500  0.036400  0.771000  1
  H  H878  1  0.508500  0.536400  0.729000  1
  H  H879  1  0.991500  0.463600  0.229000  1
  H  H880  1  0.508500  0.963600  0.271000  1
  H  H881  1  0.997900  0.189100  0.214600  1
  H  H882  1  0.502100  0.689100  0.285400  1
  H  H883  1  0.997900  0.310900  0.785400  1
  H  H884  1  0.502100  0.810900  0.714600  1
  H  H885  1  0.002100  0.810900  0.785400  1
  H  H886  1  0.497900  0.310900  0.714600  1
  H  H887  1  0.002100  0.689100  0.214600  1
  H  H888  1  0.497900  0.189100  0.285400  1
  H  H889  1  0.053600  0.066000  0.190000  1
  H  H890  1  0.446400  0.566000  0.310000  1
  H  H891  1  0.053600  0.434000  0.810000  1
  H  H892  1  0.446400  0.934000  0.690000  1
  H  H893  1  0.946400  0.934000  0.810000  1
  H  H894  1  0.553600  0.434000  0.690000  1
  H  H895  1  0.946400  0.566000  0.190000  1
  H  H896  1  0.553600  0.066000  0.310000  1
  H  H897  1  0.096200  0.268200  0.182800  1
  H  H898  1  0.403800  0.768200  0.317200  1
  H  H899  1  0.096200  0.231800  0.817200  1
  H  H900  1  0.403800  0.731800  0.682800  1
  H  H901  1  0.903800  0.731800  0.817200  1
  H  H902  1  0.596200  0.231800  0.682800  1
  H  H903  1  0.903800  0.768200  0.182800  1
  H  H904  1  0.596200  0.268200  0.317200  1
  H  H905  1  0.037600  0.217100  0.123400  1
  H  H906  1  0.462400  0.717100  0.376600  1
  H  H907  1  0.037600  0.282900  0.876600  1
  H  H908  1  0.462400  0.782900  0.623400  1
  H  H909  1  0.962400  0.782900  0.876600  1
  H  H910  1  0.537600  0.282900  0.623400  1
  H  H911  1  0.962400  0.717100  0.123400  1
  H  H912  1  0.537600  0.217100  0.376600  1
  H  H913  1  0.106300  0.336400  0.146000  1
  H  H914  1  0.393700  0.836400  0.354000  1
  H  H915  1  0.106300  0.163600  0.854000  1
  H  H916  1  0.393700  0.663600  0.646000  1
  H  H917  1  0.893700  0.663600  0.854000  1
  H  H918  1  0.606300  0.163600  0.646000  1
  H  H919  1  0.893700  0.836400  0.146000  1
  H  H920  1  0.606300  0.336400  0.354000  1
  H  H921  1  0.154500  0.380000  0.155700  1
  H  H922  1  0.345500  0.880000  0.344300  1
  H  H923  1  0.154500  0.120000  0.844300  1
  H  H924  1  0.345500  0.620000  0.655700  1
  H  H925  1  0.845500  0.620000  0.844300  1
  H  H926  1  0.654500  0.120000  0.655700  1
  H  H927  1  0.845500  0.880000  0.155700  1
  H  H928  1  0.654500  0.380000  0.344300  1
  H  H929  1  0.193500  0.357800  0.144800  1
  H  H930  1  0.306500  0.857800  0.355200  1
  H  H931  1  0.193500  0.142200  0.855200  1
  H  H932  1  0.306500  0.642200  0.644800  1
  H  H933  1  0.806500  0.642200  0.855200  1
  H  H934  1  0.693500  0.142200  0.644800  1
  H  H935  1  0.806500  0.857800  0.144800  1
  H  H936  1  0.693500  0.357800  0.355200  1
  H  H937  1  0.218300  0.400600  0.170300  1
  H  H938  1  0.281700  0.900600  0.329700  1
  H  H939  1  0.218300  0.099400  0.829700  1
  H  H940  1  0.281700  0.599400  0.670300  1
  H  H941  1  0.781700  0.599400  0.829700  1
  H  H942  1  0.718300  0.099400  0.670300  1
  H  H943  1  0.781700  0.900600  0.170300  1
  H  H944  1  0.718300  0.400600  0.329700  1
  H  H945  1  0.190600  0.375600  0.186400  1
  H  H946  1  0.309400  0.875600  0.313600  1
  H  H947  1  0.190600  0.124400  0.813600  1
  H  H948  1  0.309400  0.624400  0.686400  1
  H  H949  1  0.809400  0.624400  0.813600  1
  H  H950  1  0.690600  0.124400  0.686400  1
  H  H951  1  0.809400  0.875600  0.186400  1
  H  H952  1  0.690600  0.375600  0.313600  1
  H  H953  1  0.229800  0.353300  0.175500  1
  H  H954  1  0.270200  0.853300  0.324500  1
  H  H955  1  0.229800  0.146700  0.824500  1
  H  H956  1  0.270200  0.646700  0.675500  1
  H  H957  1  0.770200  0.646700  0.824500  1
  H  H958  1  0.729800  0.146700  0.675500  1
  H  H959  1  0.770200  0.853300  0.175500  1
  H  H960  1  0.729800  0.353300  0.324500  1
  H  H961  1  0.081800  0.266500  0.106200  1
  H  H962  1  0.418200  0.766500  0.393800  1
  H  H963  1  0.081800  0.233500  0.893800  1
  H  H964  1  0.418200  0.733500  0.606200  1
  H  H965  1  0.918200  0.733500  0.893800  1
  H  H966  1  0.581800  0.233500  0.606200  1
  H  H967  1  0.918200  0.766500  0.106200  1
  H  H968  1  0.581800  0.266500  0.393800  1
  H  H969  1  0.038200  0.329600  0.085200  1
  H  H970  1  0.461800  0.829600  0.414800  1
  H  H971  1  0.038200  0.170400  0.914800  1
  H  H972  1  0.461800  0.670400  0.585200  1
  H  H973  1  0.961800  0.670400  0.914800  1
  H  H974  1  0.538200  0.170400  0.585200  1
  H  H975  1  0.961800  0.829600  0.085200  1
  H  H976  1  0.538200  0.329600  0.414800  1
  H  H977  1  0.086600  0.314700  0.083400  1
  H  H978  1  0.413400  0.814700  0.416600  1
  H  H979  1  0.086600  0.185300  0.916600  1
  H  H980  1  0.413400  0.685300  0.583400  1
  H  H981  1  0.913400  0.685300  0.916600  1
  H  H982  1  0.586600  0.185300  0.583400  1
  H  H983  1  0.913400  0.814700  0.083400  1
  H  H984  1  0.586600  0.314700  0.416600  1
  H  H985  1  0.079900  0.383500  0.071600  1
  H  H986  1  0.420100  0.883500  0.428400  1
  H  H987  1  0.079900  0.116500  0.928400  1
  H  H988  1  0.420100  0.616500  0.571600  1
  H  H989  1  0.920100  0.616500  0.928400  1
  H  H990  1  0.579900  0.116500  0.571600  1
  H  H991  1  0.920100  0.883500  0.071600  1
  H  H992  1  0.579900  0.383500  0.428400  1
  H  H993  1  0.061400  0.398100  0.092700  1
  H  H994  1  0.438600  0.898100  0.407300  1
  H  H995  1  0.061400  0.101900  0.907300  1
  H  H996  1  0.438600  0.601900  0.592700  1
  H  H997  1  0.938600  0.601900  0.907300  1
  H  H998  1  0.561400  0.101900  0.592700  1
  H  H999  1  0.938600  0.898100  0.092700  1
  H  H1000  1  0.561400  0.398100  0.407300  1
  H  H1001  1  0.109900  0.383200  0.090900  1
  H  H1002  1  0.390100  0.883200  0.409100  1
  H  H1003  1  0.109900  0.116800  0.909100  1
  H  H1004  1  0.390100  0.616800  0.590900  1
  H  H1005  1  0.890100  0.616800  0.909100  1
  H  H1006  1  0.609900  0.116800  0.590900  1
  H  H1007  1  0.890100  0.883200  0.090900  1
  H  H1008  1  0.609900  0.383200  0.409100  1
  H  H1009  1  0.094800  0.157900  0.166500  1
  H  H1010  1  0.405200  0.657900  0.333500  1
  H  H1011  1  0.094800  0.342100  0.833500  1
  H  H1012  1  0.405200  0.842100  0.666500  1
  H  H1013  1  0.905200  0.842100  0.833500  1
  H  H1014  1  0.594800  0.342100  0.666500  1
  H  H1015  1  0.905200  0.657900  0.166500  1
  H  H1016  1  0.594800  0.157900  0.333500  1
  H  H1017  1  0.137900  0.107900  0.185400  1
  H  H1018  1  0.362100  0.607900  0.314600  1
  H  H1019  1  0.137900  0.392100  0.814600  1
  H  H1020  1  0.362100  0.892100  0.685400  1
  H  H1021  1  0.862100  0.892100  0.814600  1
  H  H1022  1  0.637900  0.392100  0.685400  1
  H  H1023  1  0.862100  0.607900  0.185400  1
  H  H1024  1  0.637900  0.107900  0.314600  1
  H  H1025  1  0.119500  0.072600  0.170900  1
  H  H1026  1  0.380500  0.572600  0.329100  1
  H  H1027  1  0.119500  0.427400  0.829100  1
  H  H1028  1  0.380500  0.927400  0.670900  1
  H  H1029  1  0.880500  0.927400  0.829100  1
  H  H1030  1  0.619500  0.427400  0.670900  1
  H  H1031  1  0.880500  0.572600  0.170900  1
  H  H1032  1  0.619500  0.072600  0.329100  1
  H  H1033  1  0.186000  0.095600  0.159100  1
  H  H1034  1  0.314000  0.595600  0.340900  1
  H  H1035  1  0.186000  0.404400  0.840900  1
  H  H1036  1  0.314000  0.904400  0.659100  1
  H  H1037  1  0.814000  0.904400  0.840900  1
  H  H1038  1  0.686000  0.404400  0.659100  1
  H  H1039  1  0.814000  0.595600  0.159100  1
  H  H1040  1  0.686000  0.095600  0.340900  1
  H  H1041  1  0.149900  0.106900  0.143100  1
  H  H1042  1  0.350100  0.606900  0.356900  1
  H  H1043  1  0.149900  0.393100  0.856900  1
  H  H1044  1  0.350100  0.893100  0.643100  1
  H  H1045  1  0.850100  0.893100  0.856900  1
  H  H1046  1  0.649900  0.393100  0.643100  1
  H  H1047  1  0.850100  0.606900  0.143100  1
  H  H1048  1  0.649900  0.106900  0.356900  1
  H  H1049  1  0.168400  0.142200  0.157600  1
  H  H1050  1  0.331600  0.642200  0.342400  1
  H  H1051  1  0.168400  0.357800  0.842400  1
  H  H1052  1  0.331600  0.857800  0.657600  1
  H  H1053  1  0.831600  0.857800  0.842400  1
  H  H1054  1  0.668400  0.357800  0.657600  1
  H  H1055  1  0.831600  0.642200  0.157600  1
  H  H1056  1  0.668400  0.142200  0.342400  1
  H  H1057  1  0.975200  0.143000  0.125200  1
  H  H1058  1  0.524800  0.643000  0.374800  1
  H  H1059  1  0.975200  0.357000  0.874800  1
  H  H1060  1  0.524800  0.857000  0.625200  1
  H  H1061  1  0.024800  0.857000  0.874800  1
  H  H1062  1  0.475200  0.357000  0.625200  1
  H  H1063  1  0.024800  0.643000  0.125200  1
  H  H1064  1  0.475200  0.143000  0.374800  1
  H  H1065  1  0.091100  0.060900  0.143900  1
  H  H1066  1  0.408900  0.560900  0.356100  1
  H  H1067  1  0.091100  0.439100  0.856100  1
  H  H1068  1  0.408900  0.939100  0.643900  1
  H  H1069  1  0.908900  0.939100  0.856100  1
  H  H1070  1  0.591100  0.439100  0.643900  1
  H  H1071  1  0.908900  0.560900  0.143900  1
  H  H1072  1  0.591100  0.060900  0.356100  1
  H  H1073  1  0.000500  0.134300  0.084500  1
  H  H1074  1  0.499500  0.634300  0.415500  1
  H  H1075  1  0.000500  0.365700  0.915500  1
  H  H1076  1  0.499500  0.865700  0.584500  1
  H  H1077  1  0.999500  0.865700  0.915500  1
  H  H1078  1  0.500500  0.365700  0.584500  1
  H  H1079  1  0.999500  0.634300  0.084500  1
  H  H1080  1  0.500500  0.134300  0.415500  1
  H  H1081  1  0.994200  0.004700  0.051500  1
  H  H1082  1  0.505800  0.504700  0.448500  1
  H  H1083  1  0.994200  0.495300  0.948500  1
  H  H1084  1  0.505800  0.995300  0.551500  1
  H  H1085  1  0.005800  0.995300  0.948500  1
  H  H1086  1  0.494200  0.495300  0.551500  1
  H  H1087  1  0.005800  0.504700  0.051500  1
  H  H1088  1  0.494200  0.004700  0.448500  1
  H  H1089  1  0.037000  0.211800  0.025200  1
  H  H1090  1  0.463000  0.711800  0.474800  1
  H  H1091  1  0.037000  0.288200  0.974800  1
  H  H1092  1  0.463000  0.788200  0.525200  1
  H  H1093  1  0.963000  0.788200  0.974800  1
  H  H1094  1  0.537000  0.288200  0.525200  1
  H  H1095  1  0.963000  0.711800  0.025200  1
  H  H1096  1  0.537000  0.211800  0.474800  1
  H  H1097  1  0.067800  0.209400  0.044200  1
  H  H1098  1  0.432200  0.709400  0.455800  1
  H  H1099  1  0.067800  0.290600  0.955800  1
  H  H1100  1  0.432200  0.790600  0.544200  1
  H  H1101  1  0.932200  0.790600  0.955800  1
  H  H1102  1  0.567800  0.290600  0.544200  1
  H  H1103  1  0.932200  0.709400  0.044200  1
  H  H1104  1  0.567800  0.209400  0.455800  1
  H  H1105  1  0.044900  0.279300  0.039400  1
  H  H1106  1  0.455100  0.779300  0.460600  1
  H  H1107  1  0.044900  0.220700  0.960600  1
  H  H1108  1  0.455100  0.720700  0.539400  1
  H  H1109  1  0.955100  0.720700  0.960600  1
  H  H1110  1  0.544900  0.220700  0.539400  1
  H  H1111  1  0.955100  0.779300  0.039400  1
  H  H1112  1  0.544900  0.279300  0.460600  1
  H  H1113  1  0.996200  0.265300  0.041500  1
  H  H1114  1  0.503800  0.765300  0.458500  1
  H  H1115  1  0.996200  0.234700  0.958500  1
  H  H1116  1  0.503800  0.734700  0.541500  1
  H  H1117  1  0.003800  0.734700  0.958500  1
  H  H1118  1  0.496200  0.234700  0.541500  1
  H  H1119  1  0.003800  0.765300  0.041500  1
  H  H1120  1  0.496200  0.265300  0.458500  1
  H  H1121  1  0.027400  0.262100  0.060300  1
  H  H1122  1  0.472600  0.762100  0.439700  1
  H  H1123  1  0.027400  0.237900  0.939700  1
  H  H1124  1  0.472600  0.737900  0.560300  1
  H  H1125  1  0.972600  0.737900  0.939700  1
  H  H1126  1  0.527400  0.237900  0.560300  1
  H  H1127  1  0.972600  0.762100  0.060300  1
  H  H1128  1  0.527400  0.262100  0.439700  1
  H  H1129  1  0.035800  0.116100  0.986500  1
  H  H1130  1  0.464200  0.616100  0.513500  1
  H  H1131  1  0.035800  0.383900  0.013500  1
  H  H1132  1  0.464200  0.883900  0.486500  1
  H  H1133  1  0.964200  0.883900  0.013500  1
  H  H1134  1  0.535800  0.383900  0.486500  1
  H  H1135  1  0.964200  0.616100  0.986500  1
  H  H1136  1  0.535800  0.116100  0.513500  1
  H  H1137  1  0.051200  0.071200  0.993900  1
  H  H1138  1  0.448800  0.571200  0.506100  1
  H  H1139  1  0.051200  0.428800  0.006100  1
  H  H1140  1  0.448800  0.928800  0.493900  1
  H  H1141  1  0.948800  0.928800  0.006100  1
  H  H1142  1  0.551200  0.428800  0.493900  1
  H  H1143  1  0.948800  0.571200  0.993900  1
  H  H1144  1  0.551200  0.071200  0.506100  1
  H  H1145  1  0.004800  0.063900  0.966100  1
  H  H1146  1  0.495200  0.563900  0.533900  1
  H  H1147  1  0.004800  0.436100  0.033900  1
  H  H1148  1  0.495200  0.936100  0.466100  1
  H  H1149  1  0.995200  0.936100  0.033900  1
  H  H1150  1  0.504800  0.436100  0.466100  1
  H  H1151  1  0.995200  0.563900  0.966100  1
  H  H1152  1  0.504800  0.063900  0.533900  1
  H  H1153  1  0.983800  0.042600  0.985300  1
  H  H1154  1  0.516200  0.542600  0.514700  1
  H  H1155  1  0.983800  0.457400  0.014700  1
  H  H1156  1  0.516200  0.957400  0.485300  1
  H  H1157  1  0.016200  0.957400  0.014700  1
  H  H1158  1  0.483800  0.457400  0.485300  1
  H  H1159  1  0.016200  0.542600  0.985300  1
  H  H1160  1  0.483800  0.042600  0.514700  1
  H  H1161  1  0.967600  0.087300  0.978000  1
  H  H1162  1  0.532400  0.587300  0.522000  1
  H  H1163  1  0.967600  0.412700  0.022000  1
  H  H1164  1  0.532400  0.912700  0.478000  1
  H  H1165  1  0.032400  0.912700  0.022000  1
  H  H1166  1  0.467600  0.412700  0.478000  1
  H  H1167  1  0.032400  0.587300  0.978000  1
  H  H1168  1  0.467600  0.087300  0.522000  1
  H  H1169  1  0.043100  0.139100  0.038500  1
  H  H1170  1  0.456900  0.639100  0.461500  1
  H  H1171  1  0.043100  0.360900  0.961500  1
  H  H1172  1  0.456900  0.860900  0.538500  1
  H  H1173  1  0.956900  0.860900  0.961500  1
  H  H1174  1  0.543100  0.360900  0.538500  1
  H  H1175  1  0.956900  0.639100  0.038500  1
  H  H1176  1  0.543100  0.139100  0.461500  1
  H  H1177  1  0.021500  0.042300  0.021100  1
  H  H1178  1  0.478500  0.542300  0.478900  1
  H  H1179  1  0.021500  0.457700  0.978900  1
  H  H1180  1  0.478500  0.957700  0.521100  1
  H  H1181  1  0.978500  0.957700  0.978900  1
  H  H1182  1  0.521500  0.457700  0.521100  1
  H  H1183  1  0.978500  0.542300  0.021100  1
  H  H1184  1  0.521500  0.042300  0.478900  1
  H  H1185  1  0.044500  0.023700  0.100500  1
  H  H1186  1  0.455500  0.523700  0.399500  1
  H  H1187  1  0.044500  0.476300  0.899500  1
  H  H1188  1  0.455500  0.976300  0.600500  1
  H  H1189  1  0.955500  0.976300  0.899500  1
  H  H1190  1  0.544500  0.476300  0.600500  1
  H  H1191  1  0.955500  0.523700  0.100500  1
  H  H1192  1  0.544500  0.023700  0.399500  1
  H  H1193  1  0.110300  0.014400  0.117200  1
  H  H1194  1  0.389700  0.514400  0.382800  1
  H  H1195  1  0.110300  0.485600  0.882800  1
  H  H1196  1  0.389700  0.985600  0.617200  1
  H  H1197  1  0.889700  0.985600  0.882800  1
  H  H1198  1  0.610300  0.485600  0.617200  1
  H  H1199  1  0.889700  0.514400  0.117200  1
  H  H1200  1  0.610300  0.014400  0.382800  1
  H  H1201  1  0.086300  0.992100  0.135300  1
  H  H1202  1  0.413700  0.492100  0.364700  1
  H  H1203  1  0.086300  0.507900  0.864700  1
  H  H1204  1  0.413700  0.007900  0.635300  1
  H  H1205  1  0.913700  0.007900  0.864700  1
  H  H1206  1  0.586300  0.507900  0.635300  1
  H  H1207  1  0.913700  0.492100  0.135300  1
  H  H1208  1  0.586300  0.992100  0.364700  1
  H  H1209  1  0.116000  0.941600  0.114000  1
  H  H1210  1  0.384000  0.441600  0.386000  1
  H  H1211  1  0.116000  0.558400  0.886000  1
  H  H1212  1  0.384000  0.058400  0.614000  1
  H  H1213  1  0.884000  0.058400  0.886000  1
  H  H1214  1  0.616000  0.558400  0.614000  1
  H  H1215  1  0.884000  0.441600  0.114000  1
  H  H1216  1  0.616000  0.941600  0.386000  1
  H  H1217  1  0.065300  0.937400  0.113800  1
  H  H1218  1  0.434700  0.437400  0.386200  1
  H  H1219  1  0.065300  0.562600  0.886200  1
  H  H1220  1  0.434700  0.062600  0.613800  1
  H  H1221  1  0.934700  0.062600  0.886200  1
  H  H1222  1  0.565300  0.562600  0.613800  1
  H  H1223  1  0.934700  0.437400  0.113800  1
  H  H1224  1  0.565300  0.937400  0.386200  1
  H  H1225  1  0.089300  0.959600  0.095600  1
  H  H1226  1  0.410700  0.459600  0.404400  1
  H  H1227  1  0.089300  0.540400  0.904400  1
  H  H1228  1  0.410700  0.040400  0.595600  1
  H  H1229  1  0.910700  0.040400  0.904400  1
  H  H1230  1  0.589300  0.540400  0.595600  1
  H  H1231  1  0.910700  0.459600  0.095600  1
  H  H1232  1  0.589300  0.959600  0.404400  1
  H  H1233  1  0.912000  0.965600  0.104800  1
  H  H1234  1  0.588000  0.465600  0.395200  1
  H  H1235  1  0.912000  0.534400  0.895200  1
  H  H1236  1  0.588000  0.034400  0.604800  1
  H  H1237  1  0.088000  0.034400  0.895200  1
  H  H1238  1  0.412000  0.534400  0.604800  1
  H  H1239  1  0.088000  0.465600  0.104800  1
  H  H1240  1  0.412000  0.965600  0.395200  1
  H  H1241  1  0.022300  0.984000  0.149100  1
  H  H1242  1  0.477700  0.484000  0.350900  1
  H  H1243  1  0.022300  0.516000  0.850900  1
  H  H1244  1  0.477700  0.016000  0.649100  1
  H  H1245  1  0.977700  0.016000  0.850900  1
  H  H1246  1  0.522300  0.516000  0.649100  1
  H  H1247  1  0.977700  0.484000  0.149100  1
  H  H1248  1  0.522300  0.984000  0.350900  1
  H  H1249  1  0.840400  0.970700  0.115800  1
  H  H1250  1  0.659600  0.470700  0.384200  1
  H  H1251  1  0.840400  0.529300  0.884200  1
  H  H1252  1  0.659600  0.029300  0.615800  1
  H  H1253  1  0.159600  0.029300  0.884200  1
  H  H1254  1  0.340400  0.529300  0.615800  1
  H  H1255  1  0.159600  0.470700  0.115800  1
  H  H1256  1  0.340400  0.970700  0.384200  1
  H  H1257  1  0.810400  0.995600  0.184000  1
  H  H1258  1  0.689600  0.495600  0.316000  1
  H  H1259  1  0.810400  0.504400  0.816000  1
  H  H1260  1  0.689600  0.004400  0.684000  1
  H  H1261  1  0.189600  0.004400  0.816000  1
  H  H1262  1  0.310400  0.504400  0.684000  1
  H  H1263  1  0.189600  0.495600  0.184000  1
  H  H1264  1  0.310400  0.995600  0.316000  1
  H  H1265  1  0.692000  0.012600  0.091100  1
  H  H1266  1  0.808000  0.512600  0.408900  1
  H  H1267  1  0.692000  0.487400  0.908900  1
  H  H1268  1  0.808000  0.987400  0.591100  1
  H  H1269  1  0.308000  0.987400  0.908900  1
  H  H1270  1  0.192000  0.487400  0.591100  1
  H  H1271  1  0.308000  0.512600  0.091100  1
  H  H1272  1  0.192000  0.012600  0.408900  1
  H  H1273  1  0.735600  0.037600  0.088200  1
  H  H1274  1  0.764400  0.537600  0.411800  1
  H  H1275  1  0.735600  0.462400  0.911800  1
  H  H1276  1  0.764400  0.962400  0.588200  1
  H  H1277  1  0.264400  0.962400  0.911800  1
  H  H1278  1  0.235600  0.462400  0.588200  1
  H  H1279  1  0.264400  0.537600  0.088200  1
  H  H1280  1  0.235600  0.037600  0.411800  1
  H  H1281  1  0.678400  0.085300  0.092200  1
  H  H1282  1  0.821600  0.585300  0.407800  1
  H  H1283  1  0.678400  0.414700  0.907800  1
  H  H1284  1  0.821600  0.914700  0.592200  1
  H  H1285  1  0.321600  0.914700  0.907800  1
  H  H1286  1  0.178400  0.414700  0.592200  1
  H  H1287  1  0.321600  0.585300  0.092200  1
  H  H1288  1  0.178400  0.085300  0.407800  1
  H  H1289  1  0.667100  0.065300  0.113500  1
  H  H1290  1  0.832900  0.565300  0.386500  1
  H  H1291  1  0.667100  0.434700  0.886500  1
  H  H1292  1  0.832900  0.934700  0.613500  1
  H  H1293  1  0.332900  0.934700  0.886500  1
  H  H1294  1  0.167100  0.434700  0.613500  1
  H  H1295  1  0.332900  0.565300  0.113500  1
  H  H1296  1  0.167100  0.065300  0.386500  1
  H  H1297  1  0.710700  0.090300  0.110500  1
  H  H1298  1  0.789300  0.590300  0.389500  1
  H  H1299  1  0.710700  0.409700  0.889500  1
  H  H1300  1  0.789300  0.909700  0.610500  1
  H  H1301  1  0.289300  0.909700  0.889500  1
  H  H1302  1  0.210700  0.409700  0.610500  1
  H  H1303  1  0.289300  0.590300  0.110500  1
  H  H1304  1  0.210700  0.090300  0.389500  1
  H  H1305  1  0.684900  0.066600  0.165700  1
  H  H1306  1  0.815100  0.566600  0.334300  1
  H  H1307  1  0.684900  0.433400  0.834300  1
  H  H1308  1  0.815100  0.933400  0.665700  1
  H  H1309  1  0.315100  0.933400  0.834300  1
  H  H1310  1  0.184900  0.433400  0.665700  1
  H  H1311  1  0.315100  0.566600  0.165700  1
  H  H1312  1  0.184900  0.066600  0.334300  1
  H  H1313  1  0.707200  0.110700  0.169300  1
  H  H1314  1  0.792800  0.610700  0.330700  1
  H  H1315  1  0.707200  0.389300  0.830700  1
  H  H1316  1  0.792800  0.889300  0.669300  1
  H  H1317  1  0.292800  0.889300  0.830700  1
  H  H1318  1  0.207200  0.389300  0.669300  1
  H  H1319  1  0.292800  0.610700  0.169300  1
  H  H1320  1  0.207200  0.110700  0.330700  1
  H  H1321  1  0.660200  0.095600  0.196200  1
  H  H1322  1  0.839800  0.595600  0.303800  1
  H  H1323  1  0.660200  0.404400  0.803800  1
  H  H1324  1  0.839800  0.904400  0.696200  1
  H  H1325  1  0.339800  0.904400  0.803800  1
  H  H1326  1  0.160200  0.404400  0.696200  1
  H  H1327  1  0.339800  0.595600  0.196200  1
  H  H1328  1  0.160200  0.095600  0.303800  1
  H  H1329  1  0.685600  0.053500  0.200800  1
  H  H1330  1  0.814400  0.553500  0.299200  1
  H  H1331  1  0.685600  0.446500  0.799200  1
  H  H1332  1  0.814400  0.946500  0.700800  1
  H  H1333  1  0.314400  0.946500  0.799200  1
  H  H1334  1  0.185600  0.446500  0.700800  1
  H  H1335  1  0.314400  0.553500  0.200800  1
  H  H1336  1  0.185600  0.053500  0.299200  1
  H  H1337  1  0.707900  0.097600  0.204400  1
  H  H1338  1  0.792100  0.597600  0.295600  1
  H  H1339  1  0.707900  0.402400  0.795600  1
  H  H1340  1  0.792100  0.902400  0.704400  1
  H  H1341  1  0.292100  0.902400  0.795600  1
  H  H1342  1  0.207900  0.402400  0.704400  1
  H  H1343  1  0.292100  0.597600  0.204400  1
  H  H1344  1  0.207900  0.097600  0.295600  1
  H  H1345  1  0.786700  0.032600  0.110400  1
  H  H1346  1  0.713300  0.532600  0.389600  1
  H  H1347  1  0.786700  0.467400  0.889600  1
  H  H1348  1  0.713300  0.967400  0.610400  1
  H  H1349  1  0.213300  0.967400  0.889600  1
  H  H1350  1  0.286700  0.467400  0.610400  1
  H  H1351  1  0.213300  0.532600  0.110400  1
  H  H1352  1  0.286700  0.032600  0.389600  1
  H  H1353  1  0.726500  0.020700  0.154400  1
  H  H1354  1  0.773500  0.520700  0.345600  1
  H  H1355  1  0.726500  0.479300  0.845600  1
  H  H1356  1  0.773500  0.979300  0.654400  1
  H  H1357  1  0.273500  0.979300  0.845600  1
  H  H1358  1  0.226500  0.479300  0.654400  1
  H  H1359  1  0.273500  0.520700  0.154400  1
  H  H1360  1  0.226500  0.020700  0.345600  1
  H  H1361  1  0.939000  0.917600  0.166400  1
  H  H1362  1  0.561000  0.417600  0.333600  1
  H  H1363  1  0.939000  0.582400  0.833600  1
  H  H1364  1  0.561000  0.082400  0.666400  1
  H  H1365  1  0.061000  0.082400  0.833600  1
  H  H1366  1  0.439000  0.582400  0.666400  1
  H  H1367  1  0.061000  0.417600  0.166400  1
  H  H1368  1  0.439000  0.917600  0.333600  1
  H  H1369  1  0.028700  0.934300  0.171300  1
  H  H1370  1  0.471300  0.434300  0.328700  1
  H  H1371  1  0.028700  0.565700  0.828700  1
  H  H1372  1  0.471300  0.065700  0.671300  1
  H  H1373  1  0.971300  0.065700  0.828700  1
  H  H1374  1  0.528700  0.565700  0.671300  1
  H  H1375  1  0.971300  0.434300  0.171300  1
  H  H1376  1  0.528700  0.934300  0.328700  1
  H  H1377  1  0.002800  0.902800  0.185300  1
  H  H1378  1  0.497200  0.402800  0.314700  1
  H  H1379  1  0.002800  0.597200  0.814700  1
  H  H1380  1  0.497200  0.097200  0.685300  1
  H  H1381  1  0.997200  0.097200  0.814700  1
  H  H1382  1  0.502800  0.597200  0.685300  1
  H  H1383  1  0.997200  0.402800  0.185300  1
  H  H1384  1  0.502800  0.902800  0.314700  1
  H  H1385  1  0.040700  0.865800  0.161100  1
  H  H1386  1  0.459300  0.365800  0.338900  1
  H  H1387  1  0.040700  0.634200  0.838900  1
  H  H1388  1  0.459300  0.134200  0.661100  1
  H  H1389  1  0.959300  0.134200  0.838900  1
  H  H1390  1  0.540700  0.634200  0.661100  1
  H  H1391  1  0.959300  0.365800  0.161100  1
  H  H1392  1  0.540700  0.865800  0.338900  1
  H  H1393  1  0.990800  0.859100  0.157600  1
  H  H1394  1  0.509200  0.359100  0.342400  1
  H  H1395  1  0.990800  0.640900  0.842400  1
  H  H1396  1  0.509200  0.140900  0.657600  1
  H  H1397  1  0.009200  0.140900  0.842400  1
  H  H1398  1  0.490800  0.640900  0.657600  1
  H  H1399  1  0.009200  0.359100  0.157600  1
  H  H1400  1  0.490800  0.859100  0.342400  1
  H  H1401  1  0.016600  0.890600  0.143700  1
  H  H1402  1  0.483400  0.390600  0.356300  1
  H  H1403  1  0.016600  0.609400  0.856300  1
  H  H1404  1  0.483400  0.109400  0.643700  1
  H  H1405  1  0.983400  0.109400  0.856300  1
  H  H1406  1  0.516600  0.609400  0.643700  1
  H  H1407  1  0.983400  0.390600  0.143700  1
  H  H1408  1  0.516600  0.890600  0.356300  1
  H  H1409  1  0.866300  0.008400  0.205900  1
  H  H1410  1  0.633700  0.508400  0.294100  1
  H  H1411  1  0.866300  0.491600  0.794100  1
  H  H1412  1  0.633700  0.991600  0.705900  1
  H  H1413  1  0.133700  0.991600  0.794100  1
  H  H1414  1  0.366300  0.491600  0.705900  1
  H  H1415  1  0.133700  0.508400  0.205900  1
  H  H1416  1  0.366300  0.008400  0.294100  1
  H  H1417  1  0.010000  0.990900  0.190500  1
  H  H1418  1  0.490000  0.490900  0.309500  1
  H  H1419  1  0.010000  0.509100  0.809500  1
  H  H1420  1  0.490000  0.009100  0.690500  1
  H  H1421  1  0.990000  0.009100  0.809500  1
  H  H1422  1  0.510000  0.509100  0.690500  1
  H  H1423  1  0.990000  0.490900  0.190500  1
  H  H1424  1  0.510000  0.990900  0.309500  1
  H  H1425  1  0.794800  0.136300  0.185900  1
  H  H1426  1  0.705200  0.636300  0.314100  1
  H  H1427  1  0.794800  0.363700  0.814100  1
  H  H1428  1  0.705200  0.863700  0.685900  1
  H  H1429  1  0.205200  0.863700  0.814100  1
  H  H1430  1  0.294800  0.363700  0.685900  1
  H  H1431  1  0.205200  0.636300  0.185900  1
  H  H1432  1  0.294800  0.136300  0.314100  1
  H  H1433  1  0.853500  0.430800  0.148900  1
  H  H1434  1  0.646500  0.930800  0.351100  1
  H  H1435  1  0.853500  0.069200  0.851100  1
  H  H1436  1  0.646500  0.569200  0.648900  1
  H  H1437  1  0.146500  0.569200  0.851100  1
  H  H1438  1  0.353500  0.069200  0.648900  1
  H  H1439  1  0.146500  0.930800  0.148900  1
  H  H1440  1  0.353500  0.430800  0.351100  1
  H  H1441  1  0.898900  0.360100  0.207200  1
  H  H1442  1  0.601100  0.860100  0.292800  1
  H  H1443  1  0.898900  0.139900  0.792800  1
  H  H1444  1  0.601100  0.639900  0.707200  1
  H  H1445  1  0.101100  0.639900  0.792800  1
  H  H1446  1  0.398900  0.139900  0.707200  1
  H  H1447  1  0.101100  0.860100  0.207200  1
  H  H1448  1  0.398900  0.360100  0.292800  1
  H  H1449  1  0.812800  0.282900  0.126400  1
  H  H1450  1  0.687200  0.782900  0.373600  1
  H  H1451  1  0.812800  0.217100  0.873600  1
  H  H1452  1  0.687200  0.717100  0.626400  1
  H  H1453  1  0.187200  0.717100  0.873600  1
  H  H1454  1  0.312800  0.217100  0.626400  1
  H  H1455  1  0.187200  0.782900  0.126400  1
  H  H1456  1  0.312800  0.282900  0.373600  1
  H  H1457  1  0.896700  0.233200  0.165500  1
  H  H1458  1  0.603300  0.733200  0.334500  1
  H  H1459  1  0.896700  0.266800  0.834500  1
  H  H1460  1  0.603300  0.766800  0.665500  1
  H  H1461  1  0.103300  0.766800  0.834500  1
  H  H1462  1  0.396700  0.266800  0.665500  1
  H  H1463  1  0.103300  0.733200  0.165500  1
  H  H1464  1  0.396700  0.233200  0.334500  1
  H  H1465  1  0.764900  0.263700  0.101800  1
  H  H1466  1  0.735100  0.763700  0.398200  1
  H  H1467  1  0.764900  0.236300  0.898200  1
  H  H1468  1  0.735100  0.736300  0.601800  1
  H  H1469  1  0.235100  0.736300  0.898200  1
  H  H1470  1  0.264900  0.236300  0.601800  1
  H  H1471  1  0.235100  0.763700  0.101800  1
  H  H1472  1  0.264900  0.263700  0.398200  1
  H  H1473  1  0.718700  0.237200  0.077100  1
  H  H1474  1  0.781300  0.737200  0.422900  1
  H  H1475  1  0.718700  0.262800  0.922900  1
  H  H1476  1  0.781300  0.762800  0.577100  1
  H  H1477  1  0.281300  0.762800  0.922900  1
  H  H1478  1  0.218700  0.262800  0.577100  1
  H  H1479  1  0.281300  0.737200  0.077100  1
  H  H1480  1  0.218700  0.237200  0.422900  1
  H  H1481  1  0.725200  0.168500  0.067600  1
  H  H1482  1  0.774800  0.668500  0.432400  1
  H  H1483  1  0.725200  0.331500  0.932400  1
  H  H1484  1  0.774800  0.831500  0.567600  1
  H  H1485  1  0.274800  0.831500  0.932400  1
  H  H1486  1  0.225200  0.331500  0.567600  1
  H  H1487  1  0.274800  0.668500  0.067600  1
  H  H1488  1  0.225200  0.168500  0.432400  1
  H  H1489  1  0.780800  0.128000  0.079500  1
  H  H1490  1  0.719200  0.628000  0.420500  1
  H  H1491  1  0.780800  0.372000  0.920500  1
  H  H1492  1  0.719200  0.872000  0.579500  1
  H  H1493  1  0.219200  0.872000  0.920500  1
  H  H1494  1  0.280800  0.372000  0.579500  1
  H  H1495  1  0.219200  0.628000  0.079500  1
  H  H1496  1  0.280800  0.128000  0.420500  1
  H  H1497  1  0.931300  0.170200  0.173500  1
  H  H1498  1  0.568700  0.670200  0.326500  1
  H  H1499  1  0.931300  0.329800  0.826500  1
  H  H1500  1  0.568700  0.829800  0.673500  1
  H  H1501  1  0.068700  0.829800  0.826500  1
  H  H1502  1  0.431300  0.329800  0.673500  1
  H  H1503  1  0.068700  0.670200  0.173500  1
  H  H1504  1  0.431300  0.170200  0.326500  1
  H  H1505  1  0.956900  0.104000  0.181100  1
  H  H1506  1  0.543100  0.604000  0.318900  1
  H  H1507  1  0.956900  0.396000  0.818900  1
  H  H1508  1  0.543100  0.896000  0.681100  1
  H  H1509  1  0.043100  0.896000  0.818900  1
  H  H1510  1  0.456900  0.396000  0.681100  1
  H  H1511  1  0.043100  0.604000  0.181100  1
  H  H1512  1  0.456900  0.104000  0.318900  1
  H  H1513  1  0.940500  0.048200  0.160000  1
  H  H1514  1  0.559500  0.548200  0.340000  1
  H  H1515  1  0.940500  0.451800  0.840000  1
  H  H1516  1  0.559500  0.951800  0.660000  1
  H  H1517  1  0.059500  0.951800  0.840000  1
  H  H1518  1  0.440500  0.451800  0.660000  1
  H  H1519  1  0.059500  0.548200  0.160000  1
  H  H1520  1  0.440500  0.048200  0.340000  1
  H  H1521  1  0.893500  0.059700  0.133500  1
  H  H1522  1  0.606500  0.559700  0.366500  1
  H  H1523  1  0.893500  0.440300  0.866500  1
  H  H1524  1  0.606500  0.940300  0.633500  1
  H  H1525  1  0.106500  0.940300  0.866500  1
  H  H1526  1  0.393500  0.440300  0.633500  1
  H  H1527  1  0.106500  0.559700  0.133500  1
  H  H1528  1  0.393500  0.059700  0.366500  1
  H  H1529  1  0.865000  0.514700  0.211200  1
  H  H1530  1  0.635000  0.014700  0.288800  1
  H  H1531  1  0.865000  0.985300  0.788800  1
  H  H1532  1  0.635000  0.485300  0.711200  1
  H  H1533  1  0.135000  0.485300  0.788800  1
  H  H1534  1  0.365000  0.985300  0.711200  1
  H  H1535  1  0.135000  0.014700  0.211200  1
  H  H1536  1  0.365000  0.514700  0.288800  1
  H  H1537  1  0.792800  0.549400  0.230700  1
  H  H1538  1  0.707200  0.049400  0.269300  1
  H  H1539  1  0.792800  0.950600  0.769300  1
  H  H1540  1  0.707200  0.450600  0.730700  1
  H  H1541  1  0.207200  0.450600  0.769300  1
  H  H1542  1  0.292800  0.950600  0.730700  1
  H  H1543  1  0.207200  0.049400  0.230700  1
  H  H1544  1  0.292800  0.549400  0.269300  1
  H  H1545  1  0.827000  0.576200  0.218500  1
  H  H1546  1  0.673000  0.076200  0.281500  1
  H  H1547  1  0.827000  0.923800  0.781500  1
  H  H1548  1  0.673000  0.423800  0.718500  1
  H  H1549  1  0.173000  0.423800  0.781500  1
  H  H1550  1  0.327000  0.923800  0.718500  1
  H  H1551  1  0.173000  0.076200  0.218500  1
  H  H1552  1  0.327000  0.576200  0.281500  1
  H  H1553  1  0.844200  0.581700  0.252200  1
  H  H1554  1  0.655800  0.081700  0.247800  1
  H  H1555  1  0.844200  0.918300  0.747800  1
  H  H1556  1  0.655800  0.418300  0.752200  1
  H  H1557  1  0.155800  0.418300  0.747800  1
  H  H1558  1  0.344200  0.918300  0.752200  1
  H  H1559  1  0.155800  0.081700  0.252200  1
  H  H1560  1  0.344200  0.581700  0.247800  1
  H  H1561  1  0.880700  0.554100  0.242000  1
  H  H1562  1  0.619300  0.054100  0.258000  1
  H  H1563  1  0.880700  0.945900  0.758000  1
  H  H1564  1  0.619300  0.445900  0.742000  1
  H  H1565  1  0.119300  0.445900  0.758000  1
  H  H1566  1  0.380700  0.945900  0.742000  1
  H  H1567  1  0.119300  0.054100  0.242000  1
  H  H1568  1  0.380700  0.554100  0.258000  1
  H  H1569  1  0.843900  0.532200  0.254800  1
  H  H1570  1  0.656100  0.032200  0.245200  1
  H  H1571  1  0.843900  0.967800  0.745200  1
  H  H1572  1  0.656100  0.467800  0.754800  1
  H  H1573  1  0.156100  0.467800  0.745200  1
  H  H1574  1  0.343900  0.967800  0.754800  1
  H  H1575  1  0.156100  0.032200  0.254800  1
  H  H1576  1  0.343900  0.532200  0.245200  1
  H  H1577  1  0.868000  0.382100  0.237700  1
  H  H1578  1  0.632000  0.882100  0.262300  1
  H  H1579  1  0.868000  0.117900  0.762300  1
  H  H1580  1  0.632000  0.617900  0.737700  1
  H  H1581  1  0.132000  0.617900  0.762300  1
  H  H1582  1  0.368000  0.117900  0.737700  1
  H  H1583  1  0.132000  0.882100  0.237700  1
  H  H1584  1  0.368000  0.382100  0.262300  1
  H  H1585  1  0.769200  0.488400  0.236800  1
  H  H1586  1  0.730800  0.988400  0.263200  1
  H  H1587  1  0.769200  0.011600  0.763200  1
  H  H1588  1  0.730800  0.511600  0.736800  1
  H  H1589  1  0.230800  0.511600  0.763200  1
  H  H1590  1  0.269200  0.011600  0.736800  1
  H  H1591  1  0.230800  0.988400  0.236800  1
  H  H1592  1  0.269200  0.488400  0.263200  1
  H  H1593  1  0.805200  0.324000  0.293500  1
  H  H1594  1  0.694800  0.824000  0.206500  1
  H  H1595  1  0.805200  0.176000  0.706500  1
  H  H1596  1  0.694800  0.676000  0.793500  1
  H  H1597  1  0.194800  0.676000  0.706500  1
  H  H1598  1  0.305200  0.176000  0.793500  1
  H  H1599  1  0.194800  0.824000  0.293500  1
  H  H1600  1  0.305200  0.324000  0.206500  1
  H  H1601  1  0.690300  0.304900  0.250900  1
  H  H1602  1  0.809700  0.804900  0.249100  1
  H  H1603  1  0.690300  0.195100  0.749100  1
  H  H1604  1  0.809700  0.695100  0.750900  1
  H  H1605  1  0.309700  0.695100  0.749100  1
  H  H1606  1  0.190300  0.195100  0.750900  1
  H  H1607  1  0.309700  0.804900  0.250900  1
  H  H1608  1  0.190300  0.304900  0.249100  1
  H  H1609  1  0.748700  0.261300  0.345700  1
  H  H1610  1  0.751300  0.761300  0.154300  1
  H  H1611  1  0.748700  0.238700  0.654300  1
  H  H1612  1  0.751300  0.738700  0.845700  1
  H  H1613  1  0.251300  0.738700  0.654300  1
  H  H1614  1  0.248700  0.238700  0.845700  1
  H  H1615  1  0.251300  0.761300  0.345700  1
  H  H1616  1  0.248700  0.261300  0.154300  1
  H  H1617  1  0.755600  0.215000  0.337600  1
  H  H1618  1  0.744400  0.715000  0.162400  1
  H  H1619  1  0.755600  0.285000  0.662400  1
  H  H1620  1  0.744400  0.785000  0.837600  1
  H  H1621  1  0.244400  0.785000  0.662400  1
  H  H1622  1  0.255600  0.285000  0.837600  1
  H  H1623  1  0.244400  0.715000  0.337600  1
  H  H1624  1  0.255600  0.215000  0.162400  1
  H  H1625  1  0.805400  0.207900  0.359500  1
  H  H1626  1  0.694600  0.707900  0.140500  1
  H  H1627  1  0.805400  0.292100  0.640500  1
  H  H1628  1  0.694600  0.792100  0.859500  1
  H  H1629  1  0.194600  0.792100  0.640500  1
  H  H1630  1  0.305400  0.292100  0.859500  1
  H  H1631  1  0.194600  0.707900  0.359500  1
  H  H1632  1  0.305400  0.207900  0.140500  1
  H  H1633  1  0.803400  0.256300  0.365200  1
  H  H1634  1  0.696600  0.756300  0.134800  1
  H  H1635  1  0.803400  0.243700  0.634800  1
  H  H1636  1  0.696600  0.743700  0.865200  1
  H  H1637  1  0.196600  0.743700  0.634800  1
  H  H1638  1  0.303400  0.243700  0.865200  1
  H  H1639  1  0.196600  0.756300  0.365200  1
  H  H1640  1  0.303400  0.256300  0.134800  1
  H  H1641  1  0.833300  0.240900  0.347300  1
  H  H1642  1  0.666700  0.740900  0.152700  1
  H  H1643  1  0.833300  0.259100  0.652700  1
  H  H1644  1  0.666700  0.759100  0.847300  1
  H  H1645  1  0.166700  0.759100  0.652700  1
  H  H1646  1  0.333300  0.259100  0.847300  1
  H  H1647  1  0.166700  0.740900  0.347300  1
  H  H1648  1  0.333300  0.240900  0.152700  1
  H  H1649  1  0.622800  0.214300  0.292500  1
  H  H1650  1  0.877200  0.714300  0.207500  1
  H  H1651  1  0.622800  0.285700  0.707500  1
  H  H1652  1  0.877200  0.785700  0.792500  1
  H  H1653  1  0.377200  0.785700  0.707500  1
  H  H1654  1  0.122800  0.285700  0.792500  1
  H  H1655  1  0.377200  0.714300  0.292500  1
  H  H1656  1  0.122800  0.214300  0.207500  1
  H  H1657  1  0.648200  0.171500  0.294500  1
  H  H1658  1  0.851800  0.671500  0.205500  1
  H  H1659  1  0.648200  0.328500  0.705500  1
  H  H1660  1  0.851800  0.828500  0.794500  1
  H  H1661  1  0.351800  0.828500  0.705500  1
  H  H1662  1  0.148200  0.328500  0.794500  1
  H  H1663  1  0.351800  0.671500  0.294500  1
  H  H1664  1  0.148200  0.171500  0.205500  1
  H  H1665  1  0.605100  0.202400  0.261000  1
  H  H1666  1  0.894900  0.702400  0.239000  1
  H  H1667  1  0.605100  0.297600  0.739000  1
  H  H1668  1  0.894900  0.797600  0.761000  1
  H  H1669  1  0.394900  0.797600  0.739000  1
  H  H1670  1  0.105100  0.297600  0.761000  1
  H  H1671  1  0.394900  0.702400  0.261000  1
  H  H1672  1  0.105100  0.202400  0.239000  1
  H  H1673  1  0.606500  0.155600  0.269200  1
  H  H1674  1  0.893500  0.655600  0.230800  1
  H  H1675  1  0.606500  0.344400  0.730800  1
  H  H1676  1  0.893500  0.844400  0.769200  1
  H  H1677  1  0.393500  0.844400  0.730800  1
  H  H1678  1  0.106500  0.344400  0.769200  1
  H  H1679  1  0.393500  0.655600  0.269200  1
  H  H1680  1  0.106500  0.155600  0.230800  1
  H  H1681  1  0.646000  0.173900  0.256900  1
  H  H1682  1  0.854000  0.673900  0.243100  1
  H  H1683  1  0.646000  0.326100  0.743100  1
  H  H1684  1  0.854000  0.826100  0.756900  1
  H  H1685  1  0.354000  0.826100  0.743100  1
  H  H1686  1  0.146000  0.326100  0.756900  1
  H  H1687  1  0.354000  0.673900  0.256900  1
  H  H1688  1  0.146000  0.173900  0.243100  1
  H  H1689  1  0.741300  0.406500  0.269200  1
  H  H1690  1  0.758700  0.906500  0.230800  1
  H  H1691  1  0.741300  0.093500  0.730800  1
  H  H1692  1  0.758700  0.593500  0.769200  1
  H  H1693  1  0.258700  0.593500  0.730800  1
  H  H1694  1  0.241300  0.093500  0.769200  1
  H  H1695  1  0.258700  0.906500  0.269200  1
  H  H1696  1  0.241300  0.406500  0.230800  1
  H  H1697  1  0.727700  0.494700  0.264700  1
  H  H1698  1  0.772300  0.994700  0.235300  1
  H  H1699  1  0.727700  0.005300  0.735300  1
  H  H1700  1  0.772300  0.505300  0.764700  1
  H  H1701  1  0.272300  0.505300  0.735300  1
  H  H1702  1  0.227700  0.005300  0.764700  1
  H  H1703  1  0.272300  0.994700  0.264700  1
  H  H1704  1  0.227700  0.494700  0.235300  1
  H  H1705  1  0.700800  0.465700  0.279500  1
  H  H1706  1  0.799200  0.965700  0.220500  1
  H  H1707  1  0.700800  0.034300  0.720500  1
  H  H1708  1  0.799200  0.534300  0.779500  1
  H  H1709  1  0.299200  0.534300  0.720500  1
  H  H1710  1  0.200800  0.034300  0.779500  1
  H  H1711  1  0.299200  0.965700  0.279500  1
  H  H1712  1  0.200800  0.465700  0.220500  1
  H  H1713  1  0.762600  0.451500  0.298300  1
  H  H1714  1  0.737400  0.951500  0.201700  1
  H  H1715  1  0.762600  0.048500  0.701700  1
  H  H1716  1  0.737400  0.548500  0.798300  1
  H  H1717  1  0.237400  0.548500  0.701700  1
  H  H1718  1  0.262600  0.048500  0.798300  1
  H  H1719  1  0.237400  0.951500  0.298300  1
  H  H1720  1  0.262600  0.451500  0.201700  1
  H  H1721  1  0.756600  0.500800  0.296900  1
  H  H1722  1  0.743400  0.000800  0.203100  1
  H  H1723  1  0.756600  0.999200  0.703100  1
  H  H1724  1  0.743400  0.499200  0.796900  1
  H  H1725  1  0.243400  0.499200  0.703100  1
  H  H1726  1  0.256600  0.999200  0.796900  1
  H  H1727  1  0.243400  0.000800  0.296900  1
  H  H1728  1  0.256600  0.500800  0.203100  1
  H  H1729  1  0.790900  0.478000  0.283100  1
  H  H1730  1  0.709100  0.978000  0.216900  1
  H  H1731  1  0.790900  0.022000  0.716900  1
  H  H1732  1  0.709100  0.522000  0.783100  1
  H  H1733  1  0.209100  0.522000  0.716900  1
  H  H1734  1  0.290900  0.022000  0.783100  1
  H  H1735  1  0.209100  0.978000  0.283100  1
  H  H1736  1  0.290900  0.478000  0.216900  1
  H  H1737  1  0.686700  0.351100  0.210000  1
  H  H1738  1  0.813300  0.851100  0.290000  1
  H  H1739  1  0.686700  0.148900  0.790000  1
  H  H1740  1  0.813300  0.648900  0.710000  1
  H  H1741  1  0.313300  0.648900  0.790000  1
  H  H1742  1  0.186700  0.148900  0.710000  1
  H  H1743  1  0.313300  0.851100  0.210000  1
  H  H1744  1  0.186700  0.351100  0.290000  1
  H  H1745  1  0.668600  0.471900  0.247300  1
  H  H1746  1  0.831400  0.971900  0.252700  1
  H  H1747  1  0.668600  0.028100  0.752700  1
  H  H1748  1  0.831400  0.528100  0.747300  1
  H  H1749  1  0.331400  0.528100  0.752700  1
  H  H1750  1  0.168600  0.028100  0.747300  1
  H  H1751  1  0.331400  0.971900  0.247300  1
  H  H1752  1  0.168600  0.471900  0.252700  1
  H  H1753  1  0.595200  0.335800  0.215500  1
  H  H1754  1  0.904800  0.835800  0.284500  1
  H  H1755  1  0.595200  0.164200  0.784500  1
  H  H1756  1  0.904800  0.664200  0.715500  1
  H  H1757  1  0.404800  0.664200  0.784500  1
  H  H1758  1  0.095200  0.164200  0.715500  1
  H  H1759  1  0.404800  0.835800  0.215500  1
  H  H1760  1  0.095200  0.335800  0.284500  1
  H  H1761  1  0.491700  0.423900  0.189100  1
  H  H1762  1  0.008300  0.923900  0.310900  1
  H  H1763  1  0.491700  0.076100  0.810900  1
  H  H1764  1  0.008300  0.576100  0.689100  1
  H  H1765  1  0.508300  0.576100  0.810900  1
  H  H1766  1  0.991700  0.076100  0.689100  1
  H  H1767  1  0.508300  0.923900  0.189100  1
  H  H1768  1  0.991700  0.423900  0.310900  1
  H  H1769  1  0.495600  0.294000  0.218800  1
  H  H1770  1  0.004400  0.794000  0.281200  1
  H  H1771  1  0.495600  0.206000  0.781200  1
  H  H1772  1  0.004400  0.706000  0.718800  1
  H  H1773  1  0.504400  0.706000  0.781200  1
  H  H1774  1  0.995600  0.206000  0.718800  1
  H  H1775  1  0.504400  0.794000  0.218800  1
  H  H1776  1  0.995600  0.294000  0.281200  1
  H  H1777  1  0.489400  0.253000  0.246900  1
  H  H1778  1  0.010600  0.753000  0.253100  1
  H  H1779  1  0.489400  0.247000  0.753100  1
  H  H1780  1  0.010600  0.747000  0.746900  1
  H  H1781  1  0.510600  0.747000  0.753100  1
  H  H1782  1  0.989400  0.247000  0.746900  1
  H  H1783  1  0.510600  0.753000  0.246900  1
  H  H1784  1  0.989400  0.253000  0.253100  1
  H  H1785  1  0.531700  0.241000  0.258900  1
  H  H1786  1  0.968300  0.741000  0.241100  1
  H  H1787  1  0.531700  0.259000  0.741100  1
  H  H1788  1  0.968300  0.759000  0.758900  1
  H  H1789  1  0.468300  0.759000  0.741100  1
  H  H1790  1  0.031700  0.259000  0.758900  1
  H  H1791  1  0.468300  0.741000  0.258900  1
  H  H1792  1  0.031700  0.241000  0.241100  1
  H  H1793  1  0.509500  0.186600  0.235700  1
  H  H1794  1  0.990500  0.686600  0.264300  1
  H  H1795  1  0.509500  0.313400  0.764300  1
  H  H1796  1  0.990500  0.813400  0.735700  1
  H  H1797  1  0.490500  0.813400  0.764300  1
  H  H1798  1  0.009500  0.313400  0.735700  1
  H  H1799  1  0.490500  0.686600  0.235700  1
  H  H1800  1  0.009500  0.186600  0.264300  1
  H  H1801  1  0.557300  0.201500  0.231600  1
  H  H1802  1  0.942700  0.701500  0.268400  1
  H  H1803  1  0.557300  0.298500  0.768400  1
  H  H1804  1  0.942700  0.798500  0.731600  1
  H  H1805  1  0.442700  0.798500  0.768400  1
  H  H1806  1  0.057300  0.298500  0.731600  1
  H  H1807  1  0.442700  0.701500  0.231600  1
  H  H1808  1  0.057300  0.201500  0.268400  1
  H  H1809  1  0.519500  0.217700  0.217600  1
  H  H1810  1  0.980500  0.717700  0.282400  1
  H  H1811  1  0.519500  0.282300  0.782400  1
  H  H1812  1  0.980500  0.782300  0.717600  1
  H  H1813  1  0.480500  0.782300  0.782400  1
  H  H1814  1  0.019500  0.282300  0.717600  1
  H  H1815  1  0.480500  0.717700  0.217600  1
  H  H1816  1  0.019500  0.217700  0.282400  1
  H  H1817  1  0.442500  0.379100  0.210800  1
  H  H1818  1  0.057500  0.879100  0.289200  1
  H  H1819  1  0.442500  0.120900  0.789200  1
  H  H1820  1  0.057500  0.620900  0.710800  1
  H  H1821  1  0.557500  0.620900  0.789200  1
  H  H1822  1  0.942500  0.120900  0.710800  1
  H  H1823  1  0.557500  0.879100  0.210800  1
  H  H1824  1  0.942500  0.379100  0.289200  1
  H  H1825  1  0.380700  0.356000  0.206800  1
  H  H1826  1  0.119300  0.856000  0.293200  1
  H  H1827  1  0.380700  0.144000  0.793200  1
  H  H1828  1  0.119300  0.644000  0.706800  1
  H  H1829  1  0.619300  0.644000  0.793200  1
  H  H1830  1  0.880700  0.144000  0.706800  1
  H  H1831  1  0.619300  0.856000  0.206800  1
  H  H1832  1  0.880700  0.356000  0.293200  1
  H  H1833  1  0.373000  0.307000  0.204300  1
  H  H1834  1  0.127000  0.807000  0.295700  1
  H  H1835  1  0.373000  0.193000  0.795700  1
  H  H1836  1  0.127000  0.693000  0.704300  1
  H  H1837  1  0.627000  0.693000  0.795700  1
  H  H1838  1  0.873000  0.193000  0.704300  1
  H  H1839  1  0.627000  0.807000  0.204300  1
  H  H1840  1  0.873000  0.307000  0.295700  1
  H  H1841  1  0.364600  0.312100  0.171000  1
  H  H1842  1  0.135400  0.812100  0.329000  1
  H  H1843  1  0.364600  0.187900  0.829000  1
  H  H1844  1  0.135400  0.687900  0.671000  1
  H  H1845  1  0.635400  0.687900  0.829000  1
  H  H1846  1  0.864600  0.187900  0.671000  1
  H  H1847  1  0.635400  0.812100  0.171000  1
  H  H1848  1  0.864600  0.312100  0.329000  1
  H  H1849  1  0.400200  0.347400  0.168900  1
  H  H1850  1  0.099800  0.847400  0.331100  1
  H  H1851  1  0.400200  0.152600  0.831100  1
  H  H1852  1  0.099800  0.652600  0.668900  1
  H  H1853  1  0.599800  0.652600  0.831100  1
  H  H1854  1  0.900200  0.152600  0.668900  1
  H  H1855  1  0.599800  0.847400  0.168900  1
  H  H1856  1  0.900200  0.347400  0.331100  1
  H  H1857  1  0.353100  0.359500  0.175900  1
  H  H1858  1  0.146900  0.859500  0.324100  1
  H  H1859  1  0.353100  0.140500  0.824100  1
  H  H1860  1  0.146900  0.640500  0.675900  1
  H  H1861  1  0.646900  0.640500  0.824100  1
  H  H1862  1  0.853100  0.140500  0.675900  1
  H  H1863  1  0.646900  0.859500  0.175900  1
  H  H1864  1  0.853100  0.359500  0.324100  1
  H  H1865  1  0.583600  0.456400  0.215900  1
  H  H1866  1  0.916400  0.956400  0.284100  1
  H  H1867  1  0.583600  0.043600  0.784100  1
  H  H1868  1  0.916400  0.543600  0.715900  1
  H  H1869  1  0.416400  0.543600  0.784100  1
  H  H1870  1  0.083600  0.043600  0.715900  1
  H  H1871  1  0.416400  0.956400  0.215900  1
  H  H1872  1  0.083600  0.456400  0.284100  1
  H  H1873  1  0.599000  0.497400  0.244900  1
  H  H1874  1  0.901000  0.997400  0.255100  1
  H  H1875  1  0.599000  0.002600  0.755100  1
  H  H1876  1  0.901000  0.502600  0.744900  1
  H  H1877  1  0.401000  0.502600  0.755100  1
  H  H1878  1  0.099000  0.002600  0.744900  1
  H  H1879  1  0.401000  0.997400  0.244900  1
  H  H1880  1  0.099000  0.497400  0.255100  1
  H  H1881  1  0.630900  0.525200  0.232000  1
  H  H1882  1  0.869100  0.025200  0.268000  1
  H  H1883  1  0.630900  0.974800  0.768000  1
  H  H1884  1  0.869100  0.474800  0.732000  1
  H  H1885  1  0.369100  0.474800  0.768000  1
  H  H1886  1  0.130900  0.974800  0.732000  1
  H  H1887  1  0.369100  0.025200  0.232000  1
  H  H1888  1  0.130900  0.525200  0.268000  1
  H  H1889  1  0.574200  0.547600  0.211900  1
  H  H1890  1  0.925800  0.047600  0.288100  1
  H  H1891  1  0.574200  0.952400  0.788100  1
  H  H1892  1  0.925800  0.452400  0.711900  1
  H  H1893  1  0.425800  0.452400  0.788100  1
  H  H1894  1  0.074200  0.952400  0.711900  1
  H  H1895  1  0.425800  0.047600  0.211900  1
  H  H1896  1  0.074200  0.547600  0.288100  1
  H  H1897  1  0.564100  0.558000  0.234800  1
  H  H1898  1  0.935900  0.058000  0.265200  1
  H  H1899  1  0.564100  0.942000  0.765200  1
  H  H1900  1  0.935900  0.442000  0.734800  1
  H  H1901  1  0.435900  0.442000  0.765200  1
  H  H1902  1  0.064100  0.942000  0.734800  1
  H  H1903  1  0.435900  0.058000  0.234800  1
  H  H1904  1  0.064100  0.558000  0.265200  1
  H  H1905  1  0.542000  0.518800  0.224200  1
  H  H1906  1  0.958000  0.018800  0.275800  1
  H  H1907  1  0.542000  0.981200  0.775800  1
  H  H1908  1  0.958000  0.481200  0.724200  1
  H  H1909  1  0.458000  0.481200  0.775800  1
  H  H1910  1  0.042000  0.981200  0.724200  1
  H  H1911  1  0.458000  0.018800  0.224200  1
  H  H1912  1  0.042000  0.518800  0.275800  1
  H  H1913  1  0.604300  0.466900  0.148500  1
  H  H1914  1  0.895700  0.966900  0.351500  1
  H  H1915  1  0.604300  0.033100  0.851500  1
  H  H1916  1  0.895700  0.533100  0.648500  1
  H  H1917  1  0.395700  0.533100  0.851500  1
  H  H1918  1  0.104300  0.033100  0.648500  1
  H  H1919  1  0.395700  0.966900  0.148500  1
  H  H1920  1  0.104300  0.466900  0.351500  1
  H  H1921  1  0.670700  0.523700  0.204100  1
  H  H1922  1  0.829300  0.023700  0.295900  1
  H  H1923  1  0.670700  0.976300  0.795900  1
  H  H1924  1  0.829300  0.476300  0.704100  1
  H  H1925  1  0.329300  0.476300  0.795900  1
  H  H1926  1  0.170700  0.976300  0.704100  1
  H  H1927  1  0.329300  0.023700  0.204100  1
  H  H1928  1  0.170700  0.523700  0.295900  1
  H  H1929  1  0.646200  0.448800  0.119400  1
  H  H1930  1  0.853800  0.948800  0.380600  1
  H  H1931  1  0.646200  0.051200  0.880600  1
  H  H1932  1  0.853800  0.551200  0.619400  1
  H  H1933  1  0.353800  0.551200  0.880600  1
  H  H1934  1  0.146200  0.051200  0.619400  1
  H  H1935  1  0.353800  0.948800  0.119400  1
  H  H1936  1  0.146200  0.448800  0.380600  1
  H  H1937  1  0.792900  0.472500  0.117300  1
  H  H1938  1  0.707100  0.972500  0.382700  1
  H  H1939  1  0.792900  0.027500  0.882700  1
  H  H1940  1  0.707100  0.527500  0.617300  1
  H  H1941  1  0.207100  0.527500  0.882700  1
  H  H1942  1  0.292900  0.027500  0.617300  1
  H  H1943  1  0.207100  0.972500  0.117300  1
  H  H1944  1  0.292900  0.472500  0.382700  1
  H  H1945  1  0.658600  0.382400  0.106900  1
  H  H1946  1  0.841400  0.882400  0.393100  1
  H  H1947  1  0.658600  0.117600  0.893100  1
  H  H1948  1  0.841400  0.617600  0.606900  1
  H  H1949  1  0.341400  0.617600  0.893100  1
  H  H1950  1  0.158600  0.117600  0.606900  1
  H  H1951  1  0.341400  0.882400  0.106900  1
  H  H1952  1  0.158600  0.382400  0.393100  1
  H  H1953  1  0.638700  0.347300  0.061800  1
  H  H1954  1  0.861300  0.847300  0.438200  1
  H  H1955  1  0.638700  0.152700  0.938200  1
  H  H1956  1  0.861300  0.652700  0.561800  1
  H  H1957  1  0.361300  0.652700  0.938200  1
  H  H1958  1  0.138700  0.152700  0.561800  1
  H  H1959  1  0.361300  0.847300  0.061800  1
  H  H1960  1  0.138700  0.347300  0.438200  1
  H  H1961  1  0.627900  0.342400  0.085000  1
  H  H1962  1  0.872100  0.842400  0.415000  1
  H  H1963  1  0.627900  0.157600  0.915000  1
  H  H1964  1  0.872100  0.657600  0.585000  1
  H  H1965  1  0.372100  0.657600  0.915000  1
  H  H1966  1  0.127900  0.157600  0.585000  1
  H  H1967  1  0.372100  0.842400  0.085000  1
  H  H1968  1  0.127900  0.342400  0.415000  1
  H  H1969  1  0.689100  0.299200  0.089200  1
  H  H1970  1  0.810900  0.799200  0.410800  1
  H  H1971  1  0.689100  0.200800  0.910800  1
  H  H1972  1  0.810900  0.700800  0.589200  1
  H  H1973  1  0.310900  0.700800  0.910800  1
  H  H1974  1  0.189100  0.200800  0.589200  1
  H  H1975  1  0.310900  0.799200  0.089200  1
  H  H1976  1  0.189100  0.299200  0.410800  1
  H  H1977  1  0.700000  0.304200  0.066000  1
  H  H1978  1  0.800000  0.804200  0.434000  1
  H  H1979  1  0.700000  0.195800  0.934000  1
  H  H1980  1  0.800000  0.695800  0.566000  1
  H  H1981  1  0.300000  0.695800  0.934000  1
  H  H1982  1  0.200000  0.195800  0.566000  1
  H  H1983  1  0.300000  0.804200  0.066000  1
  H  H1984  1  0.200000  0.304200  0.434000  1
  H  H1985  1  0.658100  0.279600  0.072800  1
  H  H1986  1  0.841900  0.779600  0.427200  1
  H  H1987  1  0.658100  0.220400  0.927200  1
  H  H1988  1  0.841900  0.720400  0.572800  1
  H  H1989  1  0.341900  0.720400  0.927200  1
  H  H1990  1  0.158100  0.220400  0.572800  1
  H  H1991  1  0.341900  0.779600  0.072800  1
  H  H1992  1  0.158100  0.279600  0.427200  1
  H  H1993  1  0.825400  0.370800  0.073100  1
  H  H1994  1  0.674600  0.870800  0.426900  1
  H  H1995  1  0.825400  0.129200  0.926900  1
  H  H1996  1  0.674600  0.629200  0.573100  1
  H  H1997  1  0.174600  0.629200  0.926900  1
  H  H1998  1  0.325400  0.129200  0.573100  1
  H  H1999  1  0.174600  0.870800  0.073100  1
  H  H2000  1  0.325400  0.370800  0.426900  1
  H  H2001  1  0.807800  0.332800  0.085900  1
  H  H2002  1  0.692200  0.832800  0.414100  1
  H  H2003  1  0.807800  0.167200  0.914100  1
  H  H2004  1  0.692200  0.667200  0.585900  1
  H  H2005  1  0.192200  0.667200  0.914100  1
  H  H2006  1  0.307800  0.167200  0.585900  1
  H  H2007  1  0.192200  0.832800  0.085900  1
  H  H2008  1  0.307800  0.332800  0.414100  1
  H  H2009  1  0.880200  0.323700  0.080000  1
  H  H2010  1  0.619800  0.823700  0.420000  1
  H  H2011  1  0.880200  0.176300  0.920000  1
  H  H2012  1  0.619800  0.676300  0.580000  1
  H  H2013  1  0.119800  0.676300  0.920000  1
  H  H2014  1  0.380200  0.176300  0.580000  1
  H  H2015  1  0.119800  0.823700  0.080000  1
  H  H2016  1  0.380200  0.323700  0.420000  1
  H  H2017  1  0.872900  0.330000  0.103500  1
  H  H2018  1  0.627100  0.830000  0.396500  1
  H  H2019  1  0.872900  0.170000  0.896500  1
  H  H2020  1  0.627100  0.670000  0.603500  1
  H  H2021  1  0.127100  0.670000  0.896500  1
  H  H2022  1  0.372900  0.170000  0.603500  1
  H  H2023  1  0.127100  0.830000  0.103500  1
  H  H2024  1  0.372900  0.330000  0.396500  1
  H  H2025  1  0.890600  0.367600  0.090200  1
  H  H2026  1  0.609400  0.867600  0.409800  1
  H  H2027  1  0.890600  0.132400  0.909800  1
  H  H2028  1  0.609400  0.632400  0.590200  1
  H  H2029  1  0.109400  0.632400  0.909800  1
  H  H2030  1  0.390600  0.132400  0.590200  1
  H  H2031  1  0.109400  0.867600  0.090200  1
  H  H2032  1  0.390600  0.367600  0.409800  1
  H  H2033  1  0.705300  0.565600  0.157000  1
  H  H2034  1  0.794700  0.065600  0.343000  1
  H  H2035  1  0.705300  0.934400  0.843000  1
  H  H2036  1  0.794700  0.434400  0.657000  1
  H  H2037  1  0.294700  0.434400  0.843000  1
  H  H2038  1  0.205300  0.934400  0.657000  1
  H  H2039  1  0.294700  0.065600  0.157000  1
  H  H2040  1  0.205300  0.565600  0.343000  1
  H  H2041  1  0.671100  0.605900  0.182300  1
  H  H2042  1  0.828900  0.105900  0.317700  1
  H  H2043  1  0.671100  0.894100  0.817700  1
  H  H2044  1  0.828900  0.394100  0.682300  1
  H  H2045  1  0.328900  0.394100  0.817700  1
  H  H2046  1  0.171100  0.894100  0.682300  1
  H  H2047  1  0.328900  0.105900  0.182300  1
  H  H2048  1  0.171100  0.605900  0.317700  1
  H  H2049  1  0.703000  0.587100  0.198600  1
  H  H2050  1  0.797000  0.087100  0.301400  1
  H  H2051  1  0.703000  0.912900  0.801400  1
  H  H2052  1  0.797000  0.412900  0.698600  1
  H  H2053  1  0.297000  0.412900  0.801400  1
  H  H2054  1  0.203000  0.912900  0.698600  1
  H  H2055  1  0.297000  0.087100  0.198600  1
  H  H2056  1  0.203000  0.587100  0.301400  1
  H  H2057  1  0.729300  0.636700  0.166100  1
  H  H2058  1  0.770700  0.136700  0.333900  1
  H  H2059  1  0.729300  0.863300  0.833900  1
  H  H2060  1  0.770700  0.363300  0.666100  1
  H  H2061  1  0.270700  0.363300  0.833900  1
  H  H2062  1  0.229300  0.863300  0.666100  1
  H  H2063  1  0.270700  0.136700  0.166100  1
  H  H2064  1  0.229300  0.636700  0.333900  1
  H  H2065  1  0.759700  0.619800  0.183400  1
  H  H2066  1  0.740300  0.119800  0.316600  1
  H  H2067  1  0.759700  0.880200  0.816600  1
  H  H2068  1  0.740300  0.380200  0.683400  1
  H  H2069  1  0.240300  0.380200  0.816600  1
  H  H2070  1  0.259700  0.880200  0.683400  1
  H  H2071  1  0.240300  0.119800  0.183400  1
  H  H2072  1  0.259700  0.619800  0.316600  1
  H  H2073  1  0.723700  0.653400  0.188500  1
  H  H2074  1  0.776300  0.153400  0.311500  1
  H  H2075  1  0.723700  0.846600  0.811500  1
  H  H2076  1  0.776300  0.346600  0.688500  1
  H  H2077  1  0.276300  0.346600  0.811500  1
  H  H2078  1  0.223700  0.846600  0.688500  1
  H  H2079  1  0.276300  0.153400  0.188500  1
  H  H2080  1  0.223700  0.653400  0.311500  1
  H  H2081  1  0.825500  0.493100  0.147000  1
  H  H2082  1  0.674500  0.993100  0.353000  1
  H  H2083  1  0.825500  0.006900  0.853000  1
  H  H2084  1  0.674500  0.506900  0.647000  1
  H  H2085  1  0.174500  0.506900  0.853000  1
  H  H2086  1  0.325500  0.006900  0.647000  1
  H  H2087  1  0.174500  0.993100  0.147000  1
  H  H2088  1  0.325500  0.493100  0.353000  1
  H  H2089  1  0.756400  0.543200  0.203100  1
  H  H2090  1  0.743600  0.043200  0.296900  1
  H  H2091  1  0.756400  0.956800  0.796900  1
  H  H2092  1  0.743600  0.456800  0.703100  1
  H  H2093  1  0.243600  0.456800  0.796900  1
  H  H2094  1  0.256400  0.956800  0.703100  1
  H  H2095  1  0.243600  0.043200  0.203100  1
  H  H2096  1  0.256400  0.543200  0.296900  1
  H  H2097  1  0.724700  0.272300  0.314700  1
  H  H2098  1  0.775300  0.772300  0.185300  1
  H  H2099  1  0.724700  0.227700  0.685300  1
  H  H2100  1  0.775300  0.727700  0.814700  1
  H  H2101  1  0.275300  0.727700  0.685300  1
  H  H2102  1  0.224700  0.227700  0.814700  1
  H  H2103  1  0.275300  0.772300  0.314700  1
  H  H2104  1  0.224700  0.272300  0.185300  1
  H  H2105  1  0.656800  0.272400  0.286000  1
  H  H2106  1  0.843200  0.772400  0.214000  1
  H  H2107  1  0.656800  0.227600  0.714000  1
  H  H2108  1  0.843200  0.727600  0.786000  1
  H  H2109  1  0.343200  0.727600  0.714000  1
  H  H2110  1  0.156800  0.227600  0.786000  1
  H  H2111  1  0.343200  0.772400  0.286000  1
  H  H2112  1  0.156800  0.272400  0.214000  1
  H  H2113  1  0.766600  0.406900  0.081900  1
  H  H2114  1  0.733400  0.906900  0.418100  1
  H  H2115  1  0.766600  0.093100  0.918100  1
  H  H2116  1  0.733400  0.593100  0.581900  1
  H  H2117  1  0.233400  0.593100  0.918100  1
  H  H2118  1  0.266600  0.093100  0.581900  1
  H  H2119  1  0.233400  0.906900  0.081900  1
  H  H2120  1  0.266600  0.406900  0.418100  1
  H  H2121  1  0.346100  0.465800  0.166700  1
  H  H2122  1  0.153900  0.965800  0.333300  1
  H  H2123  1  0.346100  0.034200  0.833300  1
  H  H2124  1  0.153900  0.534200  0.666700  1
  H  H2125  1  0.653900  0.534200  0.833300  1
  H  H2126  1  0.846100  0.034200  0.666700  1
  H  H2127  1  0.653900  0.965800  0.166700  1
  H  H2128  1  0.846100  0.465800  0.333300  1
  H  H2129  1  0.388000  0.531000  0.166700  1
  H  H2130  1  0.112000  0.031000  0.333300  1
  H  H2131  1  0.388000  0.969000  0.833300  1
  H  H2132  1  0.112000  0.469000  0.666700  1
  H  H2133  1  0.612000  0.469000  0.833300  1
  H  H2134  1  0.888000  0.969000  0.666700  1
  H  H2135  1  0.612000  0.031000  0.166700  1
  H  H2136  1  0.888000  0.531000  0.333300  1
  H  H2137  1  0.379600  0.503100  0.147200  1
  H  H2138  1  0.120400  0.003100  0.352800  1
  H  H2139  1  0.379600  0.996900  0.852800  1
  H  H2140  1  0.120400  0.496900  0.647200  1
  H  H2141  1  0.620400  0.496900  0.852800  1
  H  H2142  1  0.879600  0.996900  0.647200  1
  H  H2143  1  0.620400  0.003100  0.147200  1
  H  H2144  1  0.879600  0.503100  0.352800  1
  H  H2145  1  0.453900  0.510600  0.152400  1
  H  H2146  1  0.046100  0.010600  0.347600  1
  H  H2147  1  0.453900  0.989400  0.847600  1
  H  H2148  1  0.046100  0.489400  0.652400  1
  H  H2149  1  0.546100  0.489400  0.847600  1
  H  H2150  1  0.953900  0.989400  0.652400  1
  H  H2151  1  0.546100  0.010600  0.152400  1
  H  H2152  1  0.953900  0.510600  0.347600  1
  H  H2153  1  0.449300  0.490400  0.174100  1
  H  H2154  1  0.050700  0.990400  0.325900  1
  H  H2155  1  0.449300  0.009600  0.825900  1
  H  H2156  1  0.050700  0.509600  0.674100  1
  H  H2157  1  0.550700  0.509600  0.825900  1
  H  H2158  1  0.949300  0.009600  0.674100  1
  H  H2159  1  0.550700  0.990400  0.174100  1
  H  H2160  1  0.949300  0.490400  0.325900  1
  H  H2161  1  0.440900  0.462700  0.154700  1
  H  H2162  1  0.059100  0.962700  0.345300  1
  H  H2163  1  0.440900  0.037300  0.845300  1
  H  H2164  1  0.059100  0.537300  0.654700  1
  H  H2165  1  0.559100  0.537300  0.845300  1
  H  H2166  1  0.940900  0.037300  0.654700  1
  H  H2167  1  0.559100  0.962700  0.154700  1
  H  H2168  1  0.940900  0.462700  0.345300  1
  H  H2169  1  0.694600  0.431400  0.014300  1
  H  H2170  1  0.805400  0.931400  0.485700  1
  H  H2171  1  0.694600  0.068600  0.985700  1
  H  H2172  1  0.805400  0.568600  0.514300  1
  H  H2173  1  0.305400  0.568600  0.985700  1
  H  H2174  1  0.194600  0.068600  0.514300  1
  H  H2175  1  0.305400  0.931400  0.014300  1
  H  H2176  1  0.194600  0.431400  0.485700  1
  H  H2177  1  0.745500  0.473900  0.002100  1
  H  H2178  1  0.754500  0.973900  0.497900  1
  H  H2179  1  0.745500  0.026100  0.997900  1
  H  H2180  1  0.754500  0.526100  0.502100  1
  H  H2181  1  0.254500  0.526100  0.997900  1
  H  H2182  1  0.245500  0.026100  0.502100  1
  H  H2183  1  0.254500  0.973900  0.002100  1
  H  H2184  1  0.245500  0.473900  0.497900  1
  H  H2185  1  0.724600  0.489700  0.022600  1
  H  H2186  1  0.775400  0.989700  0.477400  1
  H  H2187  1  0.724600  0.010300  0.977400  1
  H  H2188  1  0.775400  0.510300  0.522600  1
  H  H2189  1  0.275400  0.510300  0.977400  1
  H  H2190  1  0.224600  0.010300  0.522600  1
  H  H2191  1  0.275400  0.989700  0.022600  1
  H  H2192  1  0.224600  0.489700  0.477400  1
  H  H2193  1  0.675200  0.530400  0.003400  1
  H  H2194  1  0.824800  0.030400  0.496600  1
  H  H2195  1  0.675200  0.969600  0.996600  1
  H  H2196  1  0.824800  0.469600  0.503400  1
  H  H2197  1  0.324800  0.469600  0.996600  1
  H  H2198  1  0.175200  0.969600  0.503400  1
  H  H2199  1  0.324800  0.030400  0.003400  1
  H  H2200  1  0.175200  0.530400  0.496600  1
  H  H2201  1  0.700200  0.516900  0.983600  1
  H  H2202  1  0.799800  0.016900  0.516400  1
  H  H2203  1  0.700200  0.983100  0.016400  1
  H  H2204  1  0.799800  0.483100  0.483600  1
  H  H2205  1  0.299800  0.483100  0.016400  1
  H  H2206  1  0.200200  0.983100  0.483600  1
  H  H2207  1  0.299800  0.016900  0.983600  1
  H  H2208  1  0.200200  0.516900  0.516400  1
  H  H2209  1  0.723400  0.545000  0.000000  1
  H  H2210  1  0.776600  0.045000  0.500000  1
  H  H2211  1  0.723400  0.955000  0.000000  1
  H  H2212  1  0.776600  0.455000  0.500000  1
  H  H2213  1  0.276600  0.455000  0.000000  1
  H  H2214  1  0.223400  0.955000  0.500000  1
  H  H2215  1  0.276600  0.045000  0.000000  1
  H  H2216  1  0.223400  0.545000  0.500000  1
  H  H2217  1  0.464700  0.352700  0.103400  1
  H  H2218  1  0.035300  0.852700  0.396600  1
  H  H2219  1  0.464700  0.147300  0.896600  1
  H  H2220  1  0.035300  0.647300  0.603400  1
  H  H2221  1  0.535300  0.647300  0.896600  1
  H  H2222  1  0.964700  0.147300  0.603400  1
  H  H2223  1  0.535300  0.852700  0.103400  1
  H  H2224  1  0.964700  0.352700  0.396600  1
  H  H2225  1  0.481800  0.290400  0.078600  1
  H  H2226  1  0.018200  0.790400  0.421400  1
  H  H2227  1  0.481800  0.209600  0.921400  1
  H  H2228  1  0.018200  0.709600  0.578600  1
  H  H2229  1  0.518200  0.709600  0.921400  1
  H  H2230  1  0.981800  0.209600  0.578600  1
  H  H2231  1  0.518200  0.790400  0.078600  1
  H  H2232  1  0.981800  0.290400  0.421400  1
  H  H2233  1  0.517900  0.325000  0.082100  1
  H  H2234  1  0.982100  0.825000  0.417900  1
  H  H2235  1  0.517900  0.175000  0.917900  1
  H  H2236  1  0.982100  0.675000  0.582100  1
  H  H2237  1  0.482100  0.675000  0.917900  1
  H  H2238  1  0.017900  0.175000  0.582100  1
  H  H2239  1  0.482100  0.825000  0.082100  1
  H  H2240  1  0.017900  0.325000  0.417900  1
  H  H2241  1  0.433800  0.343000  0.068100  1
  H  H2242  1  0.066200  0.843000  0.431900  1
  H  H2243  1  0.433800  0.157000  0.931900  1
  H  H2244  1  0.066200  0.657000  0.568100  1
  H  H2245  1  0.566200  0.657000  0.931900  1
  H  H2246  1  0.933800  0.157000  0.568100  1
  H  H2247  1  0.566200  0.843000  0.068100  1
  H  H2248  1  0.933800  0.343000  0.431900  1
  H  H2249  1  0.475400  0.343500  0.054300  1
  H  H2250  1  0.024600  0.843500  0.445700  1
  H  H2251  1  0.475400  0.156500  0.945700  1
  H  H2252  1  0.024600  0.656500  0.554300  1
  H  H2253  1  0.524600  0.656500  0.945700  1
  H  H2254  1  0.975400  0.156500  0.554300  1
  H  H2255  1  0.524600  0.843500  0.054300  1
  H  H2256  1  0.975400  0.343500  0.445700  1
  H  H2257  1  0.469800  0.377500  0.071500  1
  H  H2258  1  0.030200  0.877500  0.428500  1
  H  H2259  1  0.469800  0.122500  0.928500  1
  H  H2260  1  0.030200  0.622500  0.571500  1
  H  H2261  1  0.530200  0.622500  0.928500  1
  H  H2262  1  0.969800  0.122500  0.571500  1
  H  H2263  1  0.530200  0.877500  0.071500  1
  H  H2264  1  0.969800  0.377500  0.428500  1
  H  H2265  1  0.943100  0.251800  0.210100  1
  H  H2266  1  0.556900  0.751800  0.289900  1
  H  H2267  1  0.943100  0.248200  0.789900  1
  H  H2268  1  0.556900  0.748200  0.710100  1
  H  H2269  1  0.056900  0.748200  0.789900  1
  H  H2270  1  0.443100  0.248200  0.710100  1
  H  H2271  1  0.056900  0.751800  0.210100  1
  H  H2272  1  0.443100  0.251800  0.289900  1
  H  H2273  1  0.958400  0.280500  0.173600  1
  H  H2274  1  0.541600  0.780500  0.326400  1
  H  H2275  1  0.958400  0.219500  0.826400  1
  H  H2276  1  0.541600  0.719500  0.673600  1
  H  H2277  1  0.041600  0.719500  0.826400  1
  H  H2278  1  0.458400  0.219500  0.673600  1
  H  H2279  1  0.041600  0.780500  0.173600  1
  H  H2280  1  0.458400  0.280500  0.326400  1
  H  H2281  1  0.986300  0.244400  0.183700  1
  H  H2282  1  0.513700  0.744400  0.316300  1
  H  H2283  1  0.986300  0.255600  0.816300  1
  H  H2284  1  0.513700  0.755600  0.683700  1
  H  H2285  1  0.013700  0.755600  0.816300  1
  H  H2286  1  0.486300  0.255600  0.683700  1
  H  H2287  1  0.013700  0.744400  0.183700  1
  H  H2288  1  0.486300  0.244400  0.316300  1
  H  H2289  1  0.981100  0.328500  0.196900  1
  H  H2290  1  0.518900  0.828500  0.303100  1
  H  H2291  1  0.981100  0.171500  0.803100  1
  H  H2292  1  0.518900  0.671500  0.696900  1
  H  H2293  1  0.018900  0.671500  0.803100  1
  H  H2294  1  0.481100  0.171500  0.696900  1
  H  H2295  1  0.018900  0.828500  0.196900  1
  H  H2296  1  0.481100  0.328500  0.303100  1
  H  H2297  1  0.022900  0.305500  0.188700  1
  H  H2298  1  0.477100  0.805500  0.311300  1
  H  H2299  1  0.022900  0.194500  0.811300  1
  H  H2300  1  0.477100  0.694500  0.688700  1
  H  H2301  1  0.977100  0.694500  0.811300  1
  H  H2302  1  0.522900  0.194500  0.688700  1
  H  H2303  1  0.977100  0.805500  0.188700  1
  H  H2304  1  0.522900  0.305500  0.311300  1
  H  H2305  1  0.003400  0.293000  0.209900  1
  H  H2306  1  0.496600  0.793000  0.290100  1
  H  H2307  1  0.003400  0.207000  0.790100  1
  H  H2308  1  0.496600  0.707000  0.709900  1
  H  H2309  1  0.996600  0.707000  0.790100  1
  H  H2310  1  0.503400  0.207000  0.709900  1
  H  H2311  1  0.996600  0.793000  0.209900  1
  H  H2312  1  0.503400  0.293000  0.290100  1
  H  H2313  1  0.601500  0.307500  0.271600  1
  H  H2314  1  0.898500  0.807500  0.228400  1
  H  H2315  1  0.601500  0.192500  0.728400  1
  H  H2316  1  0.898500  0.692500  0.771600  1
  H  H2317  1  0.398500  0.692500  0.728400  1
  H  H2318  1  0.101500  0.192500  0.771600  1
  H  H2319  1  0.398500  0.807500  0.271600  1
  H  H2320  1  0.101500  0.307500  0.228400  1
  H  H2321  1  0.612400  0.352500  0.304400  1
  H  H2322  1  0.887600  0.852500  0.195600  1
  H  H2323  1  0.612400  0.147500  0.695600  1
  H  H2324  1  0.887600  0.647500  0.804400  1
  H  H2325  1  0.387600  0.647500  0.695600  1
  H  H2326  1  0.112400  0.147500  0.804400  1
  H  H2327  1  0.387600  0.852500  0.304400  1
  H  H2328  1  0.112400  0.352500  0.195600  1
  H  H2329  1  0.570400  0.358600  0.291200  1
  H  H2330  1  0.929600  0.858600  0.208800  1
  H  H2331  1  0.570400  0.141400  0.708800  1
  H  H2332  1  0.929600  0.641400  0.791200  1
  H  H2333  1  0.429600  0.641400  0.708800  1
  H  H2334  1  0.070400  0.141400  0.791200  1
  H  H2335  1  0.429600  0.858600  0.291200  1
  H  H2336  1  0.070400  0.358600  0.208800  1
  H  H2337  1  0.654200  0.368400  0.275000  1
  H  H2338  1  0.845800  0.868400  0.225000  1
  H  H2339  1  0.654200  0.131600  0.725000  1
  H  H2340  1  0.845800  0.631600  0.775000  1
  H  H2341  1  0.345800  0.631600  0.725000  1
  H  H2342  1  0.154200  0.131600  0.775000  1
  H  H2343  1  0.345800  0.868400  0.275000  1
  H  H2344  1  0.154200  0.368400  0.225000  1
  H  H2345  1  0.626300  0.407000  0.282600  1
  H  H2346  1  0.873700  0.907000  0.217400  1
  H  H2347  1  0.626300  0.093000  0.717400  1
  H  H2348  1  0.873700  0.593000  0.782600  1
  H  H2349  1  0.373700  0.593000  0.717400  1
  H  H2350  1  0.126300  0.093000  0.782600  1
  H  H2351  1  0.373700  0.907000  0.282600  1
  H  H2352  1  0.126300  0.407000  0.217400  1
  H  H2353  1  0.610800  0.380000  0.263800  1
  H  H2354  1  0.889200  0.880000  0.236200  1
  H  H2355  1  0.610800  0.120000  0.736200  1
  H  H2356  1  0.889200  0.620000  0.763800  1
  H  H2357  1  0.389200  0.620000  0.736200  1
  H  H2358  1  0.110800  0.120000  0.763800  1
  H  H2359  1  0.389200  0.880000  0.263800  1
  H  H2360  1  0.110800  0.380000  0.236200  1
  H  H2361  1  0.767300  0.070500  0.244200  1
  H  H2362  1  0.732700  0.570500  0.255800  1
  H  H2363  1  0.767300  0.429500  0.755800  1
  H  H2364  1  0.732700  0.929500  0.744200  1
  H  H2365  1  0.232700  0.929500  0.755800  1
  H  H2366  1  0.267300  0.429500  0.744200  1
  H  H2367  1  0.232700  0.570500  0.244200  1
  H  H2368  1  0.267300  0.070500  0.255800  1
  H  H2369  1  0.729000  0.139200  0.240200  1
  H  H2370  1  0.771000  0.639200  0.259800  1
  H  H2371  1  0.729000  0.360800  0.759800  1
  H  H2372  1  0.771000  0.860800  0.740200  1
  H  H2373  1  0.271000  0.860800  0.759800  1
  H  H2374  1  0.229000  0.360800  0.740200  1
  H  H2375  1  0.271000  0.639200  0.240200  1
  H  H2376  1  0.229000  0.139200  0.259800  1
  H  H2377  1  0.779300  0.147100  0.239900  1
  H  H2378  1  0.720700  0.647100  0.260100  1
  H  H2379  1  0.779300  0.352900  0.760100  1
  H  H2380  1  0.720700  0.852900  0.739900  1
  H  H2381  1  0.220700  0.852900  0.760100  1
  H  H2382  1  0.279300  0.352900  0.739900  1
  H  H2383  1  0.220700  0.647100  0.239900  1
  H  H2384  1  0.279300  0.147100  0.260100  1
  H  H2385  1  0.772400  0.099900  0.271300  1
  H  H2386  1  0.727600  0.599900  0.228700  1
  H  H2387  1  0.772400  0.400100  0.728700  1
  H  H2388  1  0.727600  0.900100  0.771300  1
  H  H2389  1  0.227600  0.900100  0.728700  1
  H  H2390  1  0.272400  0.400100  0.771300  1
  H  H2391  1  0.227600  0.599900  0.271300  1
  H  H2392  1  0.272400  0.099900  0.228700  1
  H  H2393  1  0.728600  0.125300  0.272300  1
  H  H2394  1  0.771400  0.625300  0.227700  1
  H  H2395  1  0.728600  0.374700  0.727700  1
  H  H2396  1  0.771400  0.874700  0.772300  1
  H  H2397  1  0.271400  0.874700  0.727700  1
  H  H2398  1  0.228600  0.374700  0.772300  1
  H  H2399  1  0.271400  0.625300  0.272300  1
  H  H2400  1  0.228600  0.125300  0.227700  1
  H  H2401  1  0.773100  0.149600  0.272500  1
  H  H2402  1  0.726900  0.649600  0.227500  1
  H  H2403  1  0.773100  0.350400  0.727500  1
  H  H2404  1  0.726900  0.850400  0.772500  1
  H  H2405  1  0.226900  0.850400  0.727500  1
  H  H2406  1  0.273100  0.350400  0.772500  1
  H  H2407  1  0.226900  0.649600  0.272500  1
  H  H2408  1  0.273100  0.149600  0.227500  1
  H  H2409  1  0.876100  0.283500  0.225300  1
  H  H2410  1  0.623900  0.783500  0.274700  1
  H  H2411  1  0.876100  0.216500  0.774700  1
  H  H2412  1  0.623900  0.716500  0.725300  1
  H  H2413  1  0.123900  0.716500  0.774700  1
  H  H2414  1  0.376100  0.216500  0.725300  1
  H  H2415  1  0.123900  0.783500  0.225300  1
  H  H2416  1  0.376100  0.283500  0.274700  1
  H  H2417  1  0.832900  0.286300  0.254100  1
  H  H2418  1  0.667100  0.786300  0.245900  1
  H  H2419  1  0.832900  0.213700  0.745900  1
  H  H2420  1  0.667100  0.713700  0.754100  1
  H  H2421  1  0.167100  0.713700  0.745900  1
  H  H2422  1  0.332900  0.213700  0.754100  1
  H  H2423  1  0.167100  0.786300  0.254100  1
  H  H2424  1  0.332900  0.286300  0.245900  1
  H  H2425  1  0.860000  0.245300  0.249100  1
  H  H2426  1  0.640000  0.745300  0.250900  1
  H  H2427  1  0.860000  0.254700  0.750900  1
  H  H2428  1  0.640000  0.754700  0.749100  1
  H  H2429  1  0.140000  0.754700  0.750900  1
  H  H2430  1  0.360000  0.254700  0.749100  1
  H  H2431  1  0.140000  0.745300  0.249100  1
  H  H2432  1  0.360000  0.245300  0.250900  1
  H  H2433  1  0.776300  0.245600  0.252500  1
  H  H2434  1  0.723700  0.745600  0.247500  1
  H  H2435  1  0.776300  0.254400  0.747500  1
  H  H2436  1  0.723700  0.754400  0.752500  1
  H  H2437  1  0.223700  0.754400  0.747500  1
  H  H2438  1  0.276300  0.254400  0.752500  1
  H  H2439  1  0.223700  0.745600  0.252500  1
  H  H2440  1  0.276300  0.245600  0.247500  1
  H  H2441  1  0.802300  0.209400  0.241500  1
  H  H2442  1  0.697700  0.709400  0.258500  1
  H  H2443  1  0.802300  0.290600  0.758500  1
  H  H2444  1  0.697700  0.790600  0.741500  1
  H  H2445  1  0.197700  0.790600  0.758500  1
  H  H2446  1  0.302300  0.290600  0.741500  1
  H  H2447  1  0.197700  0.709400  0.241500  1
  H  H2448  1  0.302300  0.209400  0.258500  1
  H  H2449  1  0.782500  0.246800  0.228800  1
  H  H2450  1  0.717500  0.746800  0.271200  1
  H  H2451  1  0.782500  0.253200  0.771200  1
  H  H2452  1  0.717500  0.753200  0.728800  1
  H  H2453  1  0.217500  0.753200  0.771200  1
  H  H2454  1  0.282500  0.253200  0.728800  1
  H  H2455  1  0.217500  0.746800  0.228800  1
  H  H2456  1  0.282500  0.246800  0.271200  1
  H  H2457  1  0.405100  0.441500  0.196200  1
  H  H2458  1  0.094900  0.941500  0.303800  1
  H  H2459  1  0.405100  0.058500  0.803800  1
  H  H2460  1  0.094900  0.558500  0.696200  1
  H  H2461  1  0.594900  0.558500  0.803800  1
  H  H2462  1  0.905100  0.058500  0.696200  1
  H  H2463  1  0.594900  0.941500  0.196200  1
  H  H2464  1  0.905100  0.441500  0.303800  1
  H  H2465  1  0.398600  0.463400  0.234500  1
  H  H2466  1  0.101400  0.963400  0.265500  1
  H  H2467  1  0.398600  0.036600  0.765500  1
  H  H2468  1  0.101400  0.536600  0.734500  1
  H  H2469  1  0.601400  0.536600  0.765500  1
  H  H2470  1  0.898600  0.036600  0.734500  1
  H  H2471  1  0.601400  0.963400  0.234500  1
  H  H2472  1  0.898600  0.463400  0.265500  1
  H  H2473  1  0.367500  0.481200  0.217500  1
  H  H2474  1  0.132500  0.981200  0.282500  1
  H  H2475  1  0.367500  0.018800  0.782500  1
  H  H2476  1  0.132500  0.518800  0.717500  1
  H  H2477  1  0.632500  0.518800  0.782500  1
  H  H2478  1  0.867500  0.018800  0.717500  1
  H  H2479  1  0.632500  0.981200  0.217500  1
  H  H2480  1  0.867500  0.481200  0.282500  1
  H  H2481  1  0.424800  0.528900  0.222800  1
  H  H2482  1  0.075200  0.028900  0.277200  1
  H  H2483  1  0.424800  0.971100  0.777200  1
  H  H2484  1  0.075200  0.471100  0.722800  1
  H  H2485  1  0.575200  0.471100  0.777200  1
  H  H2486  1  0.924800  0.971100  0.722800  1
  H  H2487  1  0.575200  0.028900  0.222800  1
  H  H2488  1  0.924800  0.528900  0.277200  1
  H  H2489  1  0.458400  0.493100  0.217500  1
  H  H2490  1  0.041600  0.993100  0.282500  1
  H  H2491  1  0.458400  0.006900  0.782500  1
  H  H2492  1  0.041600  0.506900  0.717500  1
  H  H2493  1  0.541600  0.506900  0.782500  1
  H  H2494  1  0.958400  0.006900  0.717500  1
  H  H2495  1  0.541600  0.993100  0.217500  1
  H  H2496  1  0.958400  0.493100  0.282500  1
  H  H2497  1  0.427400  0.510800  0.200500  1
  H  H2498  1  0.072600  0.010800  0.299500  1
  H  H2499  1  0.427400  0.989200  0.799500  1
  H  H2500  1  0.072600  0.489200  0.700500  1
  H  H2501  1  0.572600  0.489200  0.799500  1
  H  H2502  1  0.927400  0.989200  0.700500  1
  H  H2503  1  0.572600  0.010800  0.200500  1
  H  H2504  1  0.927400  0.510800  0.299500  1
  H  H2505  1  0.309800  0.222600  0.009900  1
  H  H2506  1  0.190200  0.722600  0.490100  1
  H  H2507  1  0.309800  0.277400  0.990100  1
  H  H2508  1  0.190200  0.777400  0.509900  1
  H  H2509  1  0.690200  0.777400  0.990100  1
  H  H2510  1  0.809800  0.277400  0.509900  1
  H  H2511  1  0.690200  0.722600  0.009900  1
  H  H2512  1  0.809800  0.222600  0.490100  1
  H  H2513  1  0.367100  0.249900  0.019700  1
  H  H2514  1  0.132900  0.749900  0.480300  1
  H  H2515  1  0.367100  0.250100  0.980300  1
  H  H2516  1  0.132900  0.750100  0.519700  1
  H  H2517  1  0.632900  0.750100  0.980300  1
  H  H2518  1  0.867100  0.250100  0.519700  1
  H  H2519  1  0.632900  0.749900  0.019700  1
  H  H2520  1  0.867100  0.249900  0.480300  1
  H  H2521  1  0.351000  0.229500  0.040200  1
  H  H2522  1  0.149000  0.729500  0.459800  1
  H  H2523  1  0.351000  0.270500  0.959800  1
  H  H2524  1  0.149000  0.770500  0.540200  1
  H  H2525  1  0.649000  0.770500  0.959800  1
  H  H2526  1  0.851000  0.270500  0.540200  1
  H  H2527  1  0.649000  0.729500  0.040200  1
  H  H2528  1  0.851000  0.229500  0.459800  1
  H  H2529  1  0.323500  0.310900  0.028600  1
  H  H2530  1  0.176500  0.810900  0.471400  1
  H  H2531  1  0.323500  0.189100  0.971400  1
  H  H2532  1  0.176500  0.689100  0.528600  1
  H  H2533  1  0.676500  0.689100  0.971400  1
  H  H2534  1  0.823500  0.189100  0.528600  1
  H  H2535  1  0.676500  0.810900  0.028600  1
  H  H2536  1  0.823500  0.310900  0.471400  1
  H  H2537  1  0.365300  0.304700  0.041900  1
  H  H2538  1  0.134700  0.804700  0.458100  1
  H  H2539  1  0.365300  0.195300  0.958100  1
  H  H2540  1  0.134700  0.695300  0.541900  1
  H  H2541  1  0.634700  0.695300  0.958100  1
  H  H2542  1  0.865300  0.195300  0.541900  1
  H  H2543  1  0.634700  0.804700  0.041900  1
  H  H2544  1  0.865300  0.304700  0.458100  1
  H  H2545  1  0.319800  0.291000  0.050400  1
  H  H2546  1  0.180200  0.791000  0.449600  1
  H  H2547  1  0.319800  0.209000  0.949600  1
  H  H2548  1  0.180200  0.709000  0.550400  1
  H  H2549  1  0.680200  0.709000  0.949600  1
  H  H2550  1  0.819800  0.209000  0.550400  1
  H  H2551  1  0.680200  0.791000  0.050400  1
  H  H2552  1  0.819800  0.291000  0.449600  1
  H  H2553  1  0.269200  0.272900  0.086200  1
  H  H2554  1  0.230800  0.772900  0.413800  1
  H  H2555  1  0.269200  0.227100  0.913800  1
  H  H2556  1  0.230800  0.727100  0.586200  1
  H  H2557  1  0.730800  0.727100  0.913800  1
  H  H2558  1  0.769200  0.227100  0.586200  1
  H  H2559  1  0.730800  0.772900  0.086200  1
  H  H2560  1  0.769200  0.272900  0.413800  1
  H  H2561  1  0.414000  0.268300  0.098200  1
  H  H2562  1  0.086000  0.768300  0.401800  1
  H  H2563  1  0.414000  0.231700  0.901800  1
  H  H2564  1  0.086000  0.731700  0.598200  1
  H  H2565  1  0.586000  0.731700  0.901800  1
  H  H2566  1  0.914000  0.231700  0.598200  1
  H  H2567  1  0.586000  0.768300  0.098200  1
  H  H2568  1  0.914000  0.268300  0.401800  1
  H  H2569  1  0.304300  0.363400  0.099500  1
  H  H2570  1  0.195700  0.863400  0.400500  1
  H  H2571  1  0.304300  0.136600  0.900500  1
  H  H2572  1  0.195700  0.636600  0.599500  1
  H  H2573  1  0.695700  0.636600  0.900500  1
  H  H2574  1  0.804300  0.136600  0.599500  1
  H  H2575  1  0.695700  0.863400  0.099500  1
  H  H2576  1  0.804300  0.363400  0.400500  1
  H  H2577  1  0.245900  0.404500  0.094800  1
  H  H2578  1  0.254100  0.904500  0.405200  1
  H  H2579  1  0.245900  0.095500  0.905200  1
  H  H2580  1  0.254100  0.595500  0.594800  1
  H  H2581  1  0.754100  0.595500  0.905200  1
  H  H2582  1  0.745900  0.095500  0.594800  1
  H  H2583  1  0.754100  0.904500  0.094800  1
  H  H2584  1  0.745900  0.404500  0.405200  1
  H  H2585  1  0.232100  0.397500  0.117800  1
  H  H2586  1  0.267900  0.897500  0.382200  1
  H  H2587  1  0.232100  0.102500  0.882200  1
  H  H2588  1  0.267900  0.602500  0.617800  1
  H  H2589  1  0.767900  0.602500  0.882200  1
  H  H2590  1  0.732100  0.102500  0.617800  1
  H  H2591  1  0.767900  0.897500  0.117800  1
  H  H2592  1  0.732100  0.397500  0.382200  1
  H  H2593  1  0.183200  0.350600  0.091000  1
  H  H2594  1  0.316800  0.850600  0.409000  1
  H  H2595  1  0.183200  0.149400  0.909000  1
  H  H2596  1  0.316800  0.649400  0.591000  1
  H  H2597  1  0.816800  0.649400  0.909000  1
  H  H2598  1  0.683200  0.149400  0.591000  1
  H  H2599  1  0.816800  0.850600  0.091000  1
  H  H2600  1  0.683200  0.350600  0.409000  1
  H  H2601  1  0.176100  0.399500  0.088200  1
  H  H2602  1  0.323900  0.899500  0.411800  1
  H  H2603  1  0.176100  0.100500  0.911800  1
  H  H2604  1  0.323900  0.600500  0.588200  1
  H  H2605  1  0.823900  0.600500  0.911800  1
  H  H2606  1  0.676100  0.100500  0.588200  1
  H  H2607  1  0.823900  0.899500  0.088200  1
  H  H2608  1  0.676100  0.399500  0.411800  1
  H  H2609  1  0.166300  0.378100  0.109200  1
  H  H2610  1  0.333700  0.878100  0.390800  1
  H  H2611  1  0.166300  0.121900  0.890800  1
  H  H2612  1  0.333700  0.621900  0.609200  1
  H  H2613  1  0.833700  0.621900  0.890800  1
  H  H2614  1  0.666300  0.121900  0.609200  1
  H  H2615  1  0.833700  0.878100  0.109200  1
  H  H2616  1  0.666300  0.378100  0.390800  1
  H  H2617  1  0.409700  0.338000  0.107800  1
  H  H2618  1  0.090300  0.838000  0.392200  1
  H  H2619  1  0.409700  0.162000  0.892200  1
  H  H2620  1  0.090300  0.662000  0.607800  1
  H  H2621  1  0.590300  0.662000  0.892200  1
  H  H2622  1  0.909700  0.162000  0.607800  1
  H  H2623  1  0.590300  0.838000  0.107800  1
  H  H2624  1  0.909700  0.338000  0.392200  1
  H  H2625  1  0.425100  0.390000  0.127500  1
  H  H2626  1  0.074900  0.890000  0.372500  1
  H  H2627  1  0.425100  0.110000  0.872500  1
  H  H2628  1  0.074900  0.610000  0.627500  1
  H  H2629  1  0.574900  0.610000  0.872500  1
  H  H2630  1  0.925100  0.110000  0.627500  1
  H  H2631  1  0.574900  0.890000  0.127500  1
  H  H2632  1  0.925100  0.390000  0.372500  1
  H  H2633  1  0.390900  0.407700  0.142800  1
  H  H2634  1  0.109100  0.907700  0.357200  1
  H  H2635  1  0.390900  0.092300  0.857200  1
  H  H2636  1  0.109100  0.592300  0.642800  1
  H  H2637  1  0.609100  0.592300  0.857200  1
  H  H2638  1  0.890900  0.092300  0.642800  1
  H  H2639  1  0.609100  0.907700  0.142800  1
  H  H2640  1  0.890900  0.407700  0.357200  1
  H  H2641  1  0.410400  0.459600  0.120200  1
  H  H2642  1  0.089600  0.959600  0.379800  1
  H  H2643  1  0.410400  0.040400  0.879800  1
  H  H2644  1  0.089600  0.540400  0.620200  1
  H  H2645  1  0.589600  0.540400  0.879800  1
  H  H2646  1  0.910400  0.040400  0.620200  1
  H  H2647  1  0.589600  0.959600  0.120200  1
  H  H2648  1  0.910400  0.459600  0.379800  1
  H  H2649  1  0.395300  0.431300  0.101800  1
  H  H2650  1  0.104700  0.931300  0.398200  1
  H  H2651  1  0.395300  0.068700  0.898200  1
  H  H2652  1  0.104700  0.568700  0.601800  1
  H  H2653  1  0.604700  0.568700  0.898200  1
  H  H2654  1  0.895300  0.068700  0.601800  1
  H  H2655  1  0.604700  0.931300  0.101800  1
  H  H2656  1  0.895300  0.431300  0.398200  1
  H  H2657  1  0.361000  0.449100  0.117300  1
  H  H2658  1  0.139000  0.949100  0.382700  1
  H  H2659  1  0.361000  0.050900  0.882700  1
  H  H2660  1  0.139000  0.550900  0.617300  1
  H  H2661  1  0.639000  0.550900  0.882700  1
  H  H2662  1  0.861000  0.050900  0.617300  1
  H  H2663  1  0.639000  0.949100  0.117300  1
  H  H2664  1  0.861000  0.449100  0.382700  1
  H  H2665  1  0.094900  0.263300  0.107200  1
  H  H2666  1  0.405100  0.763300  0.392800  1
  H  H2667  1  0.094900  0.236700  0.892800  1
  H  H2668  1  0.405100  0.736700  0.607200  1
  H  H2669  1  0.905100  0.736700  0.892800  1
  H  H2670  1  0.594900  0.236700  0.607200  1
  H  H2671  1  0.905100  0.763300  0.107200  1
  H  H2672  1  0.594900  0.263300  0.392800  1
  H  H2673  1  0.120200  0.332500  0.085300  1
  H  H2674  1  0.379800  0.832500  0.414700  1
  H  H2675  1  0.120200  0.167500  0.914700  1
  H  H2676  1  0.379800  0.667500  0.585300  1
  H  H2677  1  0.879800  0.667500  0.914700  1
  H  H2678  1  0.620200  0.167500  0.585300  1
  H  H2679  1  0.879800  0.832500  0.085300  1
  H  H2680  1  0.620200  0.332500  0.414700  1
  H  H2681  1  0.072700  0.349300  0.081900  1
  H  H2682  1  0.427300  0.849300  0.418100  1
  H  H2683  1  0.072700  0.150700  0.918100  1
  H  H2684  1  0.427300  0.650700  0.581900  1
  H  H2685  1  0.927300  0.650700  0.918100  1
  H  H2686  1  0.572700  0.150700  0.581900  1
  H  H2687  1  0.927300  0.849300  0.081900  1
  H  H2688  1  0.572700  0.349300  0.418100  1
  H  H2689  1  0.084900  0.290000  0.061300  1
  H  H2690  1  0.415100  0.790000  0.438700  1
  H  H2691  1  0.084900  0.210000  0.938700  1
  H  H2692  1  0.415100  0.710000  0.561300  1
  H  H2693  1  0.915100  0.710000  0.938700  1
  H  H2694  1  0.584900  0.210000  0.561300  1
  H  H2695  1  0.915100  0.790000  0.061300  1
  H  H2696  1  0.584900  0.290000  0.438700  1
  H  H2697  1  0.095800  0.262600  0.080500  1
  H  H2698  1  0.404200  0.762600  0.419500  1
  H  H2699  1  0.095800  0.237400  0.919500  1
  H  H2700  1  0.404200  0.737400  0.580500  1
  H  H2701  1  0.904200  0.737400  0.919500  1
  H  H2702  1  0.595800  0.237400  0.580500  1
  H  H2703  1  0.904200  0.762600  0.080500  1
  H  H2704  1  0.595800  0.262600  0.419500  1
  H  H2705  1  0.048300  0.279400  0.077100  1
  H  H2706  1  0.451700  0.779400  0.422900  1
  H  H2707  1  0.048300  0.220600  0.922900  1
  H  H2708  1  0.451700  0.720600  0.577100  1
  H  H2709  1  0.951700  0.720600  0.922900  1
  H  H2710  1  0.548300  0.220600  0.577100  1
  H  H2711  1  0.951700  0.779400  0.077100  1
  H  H2712  1  0.548300  0.279400  0.422900  1
  H  H2713  1  0.020400  0.124600  0.082700  1
  H  H2714  1  0.479600  0.624600  0.417300  1
  H  H2715  1  0.020400  0.375400  0.917300  1
  H  H2716  1  0.479600  0.875400  0.582700  1
  H  H2717  1  0.979600  0.875400  0.917300  1
  H  H2718  1  0.520400  0.375400  0.582700  1
  H  H2719  1  0.979600  0.624600  0.082700  1
  H  H2720  1  0.520400  0.124600  0.417300  1
  H  H2721  1  0.000700  0.994200  0.051700  1
  H  H2722  1  0.499300  0.494200  0.448300  1
  H  H2723  1  0.000700  0.505800  0.948300  1
  H  H2724  1  0.499300  0.005800  0.551700  1
  H  H2725  1  0.999300  0.005800  0.948300  1
  H  H2726  1  0.500700  0.505800  0.551700  1
  H  H2727  1  0.999300  0.494200  0.051700  1
  H  H2728  1  0.500700  0.994200  0.448300  1
  H  H2729  1  0.115500  0.153300  0.026000  1
  H  H2730  1  0.384500  0.653300  0.474000  1
  H  H2731  1  0.115500  0.346700  0.974000  1
  H  H2732  1  0.384500  0.846700  0.526000  1
  H  H2733  1  0.884500  0.846700  0.974000  1
  H  H2734  1  0.615500  0.346700  0.526000  1
  H  H2735  1  0.884500  0.653300  0.026000  1
  H  H2736  1  0.615500  0.153300  0.474000  1
  H  H2737  1  0.085300  0.193000  0.028700  1
  H  H2738  1  0.414700  0.693000  0.471300  1
  H  H2739  1  0.085300  0.307000  0.971300  1
  H  H2740  1  0.414700  0.807000  0.528700  1
  H  H2741  1  0.914700  0.807000  0.971300  1
  H  H2742  1  0.585300  0.307000  0.528700  1
  H  H2743  1  0.914700  0.693000  0.028700  1
  H  H2744  1  0.585300  0.193000  0.471300  1
  H  H2745  1  0.113500  0.192000  0.995800  1
  H  H2746  1  0.386500  0.692000  0.504200  1
  H  H2747  1  0.113500  0.308000  0.004200  1
  H  H2748  1  0.386500  0.808000  0.495800  1
  H  H2749  1  0.886500  0.808000  0.004200  1
  H  H2750  1  0.613500  0.308000  0.495800  1
  H  H2751  1  0.886500  0.692000  0.995800  1
  H  H2752  1  0.613500  0.192000  0.504200  1
  H  H2753  1  0.093100  0.147000  0.992000  1
  H  H2754  1  0.406900  0.647000  0.508000  1
  H  H2755  1  0.093100  0.353000  0.008000  1
  H  H2756  1  0.406900  0.853000  0.492000  1
  H  H2757  1  0.906900  0.853000  0.008000  1
  H  H2758  1  0.593100  0.353000  0.492000  1
  H  H2759  1  0.906900  0.647000  0.992000  1
  H  H2760  1  0.593100  0.147000  0.508000  1
  H  H2761  1  0.062900  0.186700  0.994700  1
  H  H2762  1  0.437100  0.686700  0.505300  1
  H  H2763  1  0.062900  0.313300  0.005300  1
  H  H2764  1  0.437100  0.813300  0.494700  1
  H  H2765  1  0.937100  0.813300  0.005300  1
  H  H2766  1  0.562900  0.313300  0.494700  1
  H  H2767  1  0.937100  0.686700  0.994700  1
  H  H2768  1  0.562900  0.186700  0.505300  1
  H  H2769  1  0.099600  0.011000  0.997600  1
  H  H2770  1  0.400400  0.511000  0.502400  1
  H  H2771  1  0.099600  0.489000  0.002400  1
  H  H2772  1  0.400400  0.989000  0.497600  1
  H  H2773  1  0.900400  0.989000  0.002400  1
  H  H2774  1  0.599600  0.489000  0.497600  1
  H  H2775  1  0.900400  0.511000  0.997600  1
  H  H2776  1  0.599600  0.011000  0.502400  1
  H  H2777  1  0.058600  0.983100  0.993000  1
  H  H2778  1  0.441400  0.483100  0.507000  1
  H  H2779  1  0.058600  0.516900  0.007000  1
  H  H2780  1  0.441400  0.016900  0.493000  1
  H  H2781  1  0.941400  0.016900  0.007000  1
  H  H2782  1  0.558600  0.516900  0.493000  1
  H  H2783  1  0.941400  0.483100  0.993000  1
  H  H2784  1  0.558600  0.983100  0.507000  1
  H  H2785  1  0.056200  0.044800  0.973500  1
  H  H2786  1  0.443800  0.544800  0.526500  1
  H  H2787  1  0.056200  0.455200  0.026500  1
  H  H2788  1  0.443800  0.955200  0.473500  1
  H  H2789  1  0.943800  0.955200  0.026500  1
  H  H2790  1  0.556200  0.455200  0.473500  1
  H  H2791  1  0.943800  0.544800  0.973500  1
  H  H2792  1  0.556200  0.044800  0.526500  1
  H  H2793  1  0.016900  0.044500  0.988700  1
  H  H2794  1  0.483100  0.544500  0.511300  1
  H  H2795  1  0.016900  0.455500  0.011300  1
  H  H2796  1  0.483100  0.955500  0.488700  1
  H  H2797  1  0.983100  0.955500  0.011300  1
  H  H2798  1  0.516900  0.455500  0.488700  1
  H  H2799  1  0.983100  0.544500  0.988700  1
  H  H2800  1  0.516900  0.044500  0.511300  1
  H  H2801  1  0.057900  0.072500  0.993300  1
  H  H2802  1  0.442100  0.572500  0.506700  1
  H  H2803  1  0.057900  0.427500  0.006700  1
  H  H2804  1  0.442100  0.927500  0.493300  1
  H  H2805  1  0.942100  0.927500  0.006700  1
  H  H2806  1  0.557900  0.427500  0.493300  1
  H  H2807  1  0.942100  0.572500  0.993300  1
  H  H2808  1  0.557900  0.072500  0.506700  1
  H  H2809  1  0.067500  0.141500  0.055200  1
  H  H2810  1  0.432500  0.641500  0.444800  1
  H  H2811  1  0.067500  0.358500  0.944800  1
  H  H2812  1  0.432500  0.858500  0.555200  1
  H  H2813  1  0.932500  0.858500  0.944800  1
  H  H2814  1  0.567500  0.358500  0.555200  1
  H  H2815  1  0.932500  0.641500  0.055200  1
  H  H2816  1  0.567500  0.141500  0.444800  1
  H  H2817  1  0.040400  0.068500  0.019200  1
  H  H2818  1  0.459600  0.568500  0.480800  1
  H  H2819  1  0.040400  0.431500  0.980800  1
  H  H2820  1  0.459600  0.931500  0.519200  1
  H  H2821  1  0.959600  0.931500  0.980800  1
  H  H2822  1  0.540400  0.431500  0.519200  1
  H  H2823  1  0.959600  0.568500  0.019200  1
  H  H2824  1  0.540400  0.068500  0.480800  1
  H  H2825  1  0.816300  0.541800  0.240500  1
  H  H2826  1  0.683700  0.041800  0.259500  1
  H  H2827  1  0.816300  0.958200  0.759500  1
  H  H2828  1  0.683700  0.458200  0.740500  1
  H  H2829  1  0.183700  0.458200  0.759500  1
  H  H2830  1  0.316300  0.958200  0.740500  1
  H  H2831  1  0.183700  0.041800  0.240500  1
  H  H2832  1  0.316300  0.541800  0.259500  1
  H  H2833  1  0.797700  0.564700  0.221100  1
  H  H2834  1  0.702300  0.064700  0.278900  1
  H  H2835  1  0.797700  0.935300  0.778900  1
  H  H2836  1  0.702300  0.435300  0.721100  1
  H  H2837  1  0.202300  0.435300  0.778900  1
  H  H2838  1  0.297700  0.935300  0.721100  1
  H  H2839  1  0.202300  0.064700  0.221100  1
  H  H2840  1  0.297700  0.564700  0.278900  1
  H  H2841  1  0.851600  0.606100  0.235700  1
  H  H2842  1  0.648400  0.106100  0.264300  1
  H  H2843  1  0.851600  0.893900  0.764300  1
  H  H2844  1  0.648400  0.393900  0.735700  1
  H  H2845  1  0.148400  0.393900  0.764300  1
  H  H2846  1  0.351600  0.893900  0.735700  1
  H  H2847  1  0.148400  0.106100  0.235700  1
  H  H2848  1  0.351600  0.606100  0.264300  1
  H  H2849  1  0.885100  0.568900  0.233300  1
  H  H2850  1  0.614900  0.068900  0.266700  1
  H  H2851  1  0.885100  0.931100  0.766700  1
  H  H2852  1  0.614900  0.431100  0.733300  1
  H  H2853  1  0.114900  0.431100  0.766700  1
  H  H2854  1  0.385100  0.931100  0.733300  1
  H  H2855  1  0.114900  0.068900  0.233300  1
  H  H2856  1  0.385100  0.568900  0.266700  1
  H  H2857  1  0.866500  0.591800  0.214000  1
  H  H2858  1  0.633500  0.091800  0.286000  1
  H  H2859  1  0.866500  0.908200  0.786000  1
  H  H2860  1  0.633500  0.408200  0.714000  1
  H  H2861  1  0.133500  0.408200  0.786000  1
  H  H2862  1  0.366500  0.908200  0.714000  1
  H  H2863  1  0.133500  0.091800  0.214000  1
  H  H2864  1  0.366500  0.591800  0.286000  1
  H  H2865  1  0.625600  0.215100  0.290900  1
  H  H2866  1  0.874400  0.715100  0.209100  1
  H  H2867  1  0.625600  0.284900  0.709100  1
  H  H2868  1  0.874400  0.784900  0.790900  1
  H  H2869  1  0.374400  0.784900  0.709100  1
  H  H2870  1  0.125600  0.284900  0.790900  1
  H  H2871  1  0.374400  0.715100  0.290900  1
  H  H2872  1  0.125600  0.215100  0.209100  1
  H  H2873  1  0.656200  0.183500  0.302600  1
  H  H2874  1  0.843800  0.683500  0.197400  1
  H  H2875  1  0.656200  0.316500  0.697400  1
  H  H2876  1  0.843800  0.816500  0.802600  1
  H  H2877  1  0.343800  0.816500  0.697400  1
  H  H2878  1  0.156200  0.316500  0.802600  1
  H  H2879  1  0.343800  0.683500  0.302600  1
  H  H2880  1  0.156200  0.183500  0.197400  1
  H  H2881  1  0.634800  0.176100  0.261400  1
  H  H2882  1  0.865200  0.676100  0.238600  1
  H  H2883  1  0.634800  0.323900  0.738600  1
  H  H2884  1  0.865200  0.823900  0.761400  1
  H  H2885  1  0.365200  0.823900  0.738600  1
  H  H2886  1  0.134800  0.323900  0.761400  1
  H  H2887  1  0.365200  0.676100  0.261400  1
  H  H2888  1  0.134800  0.176100  0.238600  1
  H  H2889  1  0.616100  0.147000  0.278700  1
  H  H2890  1  0.883900  0.647000  0.221300  1
  H  H2891  1  0.616100  0.353000  0.721300  1
  H  H2892  1  0.883900  0.853000  0.778700  1
  H  H2893  1  0.383900  0.853000  0.721300  1
  H  H2894  1  0.116100  0.353000  0.778700  1
  H  H2895  1  0.383900  0.647000  0.278700  1
  H  H2896  1  0.116100  0.147000  0.221300  1
  H  H2897  1  0.665600  0.144600  0.273000  1
  H  H2898  1  0.834400  0.644600  0.227000  1
  H  H2899  1  0.665600  0.355400  0.727000  1
  H  H2900  1  0.834400  0.855400  0.773000  1
  H  H2901  1  0.334400  0.855400  0.727000  1
  H  H2902  1  0.165600  0.355400  0.773000  1
  H  H2903  1  0.334400  0.644600  0.273000  1
  H  H2904  1  0.165600  0.144600  0.227000  1
  H  H2905  1  0.506400  0.309700  0.233700  1
  H  H2906  1  0.993600  0.809700  0.266300  1
  H  H2907  1  0.506400  0.190300  0.766300  1
  H  H2908  1  0.993600  0.690300  0.733700  1
  H  H2909  1  0.493600  0.690300  0.766300  1
  H  H2910  1  0.006400  0.190300  0.733700  1
  H  H2911  1  0.493600  0.809700  0.233700  1
  H  H2912  1  0.006400  0.309700  0.266300  1
  H  H2913  1  0.505200  0.207500  0.225500  1
  H  H2914  1  0.994800  0.707500  0.274500  1
  H  H2915  1  0.505200  0.292500  0.774500  1
  H  H2916  1  0.994800  0.792500  0.725500  1
  H  H2917  1  0.494800  0.792500  0.774500  1
  H  H2918  1  0.005200  0.292500  0.725500  1
  H  H2919  1  0.494800  0.707500  0.225500  1
  H  H2920  1  0.005200  0.207500  0.274500  1
  H  H2921  1  0.486300  0.244600  0.238700  1
  H  H2922  1  0.013700  0.744600  0.261300  1
  H  H2923  1  0.486300  0.255400  0.761300  1
  H  H2924  1  0.013700  0.755400  0.738700  1
  H  H2925  1  0.513700  0.755400  0.761300  1
  H  H2926  1  0.986300  0.255400  0.738700  1
  H  H2927  1  0.513700  0.744600  0.238700  1
  H  H2928  1  0.986300  0.244600  0.261300  1
  H  H2929  1  0.541600  0.243400  0.260000  1
  H  H2930  1  0.958400  0.743400  0.240000  1
  H  H2931  1  0.541600  0.256600  0.740000  1
  H  H2932  1  0.958400  0.756600  0.760000  1
  H  H2933  1  0.458400  0.756600  0.740000  1
  H  H2934  1  0.041600  0.256600  0.760000  1
  H  H2935  1  0.458400  0.743400  0.260000  1
  H  H2936  1  0.041600  0.243400  0.240000  1
  H  H2937  1  0.575200  0.231900  0.242900  1
  H  H2938  1  0.924800  0.731900  0.257100  1
  H  H2939  1  0.575200  0.268100  0.757100  1
  H  H2940  1  0.924800  0.768100  0.742900  1
  H  H2941  1  0.424800  0.768100  0.757100  1
  H  H2942  1  0.075200  0.268100  0.742900  1
  H  H2943  1  0.424800  0.731900  0.242900  1
  H  H2944  1  0.075200  0.231900  0.257100  1
  H  H2945  1  0.545800  0.196300  0.252500  1
  H  H2946  1  0.954200  0.696300  0.247500  1
  H  H2947  1  0.545800  0.303700  0.747500  1
  H  H2948  1  0.954200  0.803700  0.752500  1
  H  H2949  1  0.454200  0.803700  0.747500  1
  H  H2950  1  0.045800  0.303700  0.752500  1
  H  H2951  1  0.454200  0.696300  0.252500  1
  H  H2952  1  0.045800  0.196300  0.247500  1
  H  H2953  1  0.441300  0.361000  0.195000  1
  H  H2954  1  0.058700  0.861000  0.305000  1
  H  H2955  1  0.441300  0.139000  0.805000  1
  H  H2956  1  0.058700  0.639000  0.695000  1
  H  H2957  1  0.558700  0.639000  0.805000  1
  H  H2958  1  0.941300  0.139000  0.695000  1
  H  H2959  1  0.558700  0.861000  0.195000  1
  H  H2960  1  0.941300  0.361000  0.305000  1
  H  H2961  1  0.391300  0.341800  0.204800  1
  H  H2962  1  0.108700  0.841800  0.295200  1
  H  H2963  1  0.391300  0.158200  0.795200  1
  H  H2964  1  0.108700  0.658200  0.704800  1
  H  H2965  1  0.608700  0.658200  0.795200  1
  H  H2966  1  0.891300  0.158200  0.704800  1
  H  H2967  1  0.608700  0.841800  0.204800  1
  H  H2968  1  0.891300  0.341800  0.295200  1
  H  H2969  1  0.376700  0.341500  0.227700  1
  H  H2970  1  0.123300  0.841500  0.272300  1
  H  H2971  1  0.376700  0.158500  0.772300  1
  H  H2972  1  0.123300  0.658500  0.727700  1
  H  H2973  1  0.623300  0.658500  0.772300  1
  H  H2974  1  0.876700  0.158500  0.727700  1
  H  H2975  1  0.623300  0.841500  0.227700  1
  H  H2976  1  0.876700  0.341500  0.272300  1
  H  H2977  1  0.420000  0.272500  0.209600  1
  H  H2978  1  0.080000  0.772500  0.290400  1
  H  H2979  1  0.420000  0.227500  0.790400  1
  H  H2980  1  0.080000  0.727500  0.709600  1
  H  H2981  1  0.580000  0.727500  0.790400  1
  H  H2982  1  0.920000  0.227500  0.709600  1
  H  H2983  1  0.580000  0.772500  0.209600  1
  H  H2984  1  0.920000  0.272500  0.290400  1
  H  H2985  1  0.369400  0.274200  0.212100  1
  H  H2986  1  0.130600  0.774200  0.287900  1
  H  H2987  1  0.369400  0.225800  0.787900  1
  H  H2988  1  0.130600  0.725800  0.712100  1
  H  H2989  1  0.630600  0.725800  0.787900  1
  H  H2990  1  0.869400  0.225800  0.712100  1
  H  H2991  1  0.630600  0.774200  0.212100  1
  H  H2992  1  0.869400  0.274200  0.287900  1
  H  H2993  1  0.399300  0.272400  0.231400  1
  H  H2994  1  0.100700  0.772400  0.268600  1
  H  H2995  1  0.399300  0.227600  0.768600  1
  H  H2996  1  0.100700  0.727600  0.731400  1
  H  H2997  1  0.600700  0.727600  0.768600  1
  H  H2998  1  0.899300  0.227600  0.731400  1
  H  H2999  1  0.600700  0.772400  0.231400  1
  H  H3000  1  0.899300  0.272400  0.268600  1
  H  H3001  1  0.674300  0.373300  0.102200  1
  H  H3002  1  0.825700  0.873300  0.397800  1
  H  H3003  1  0.674300  0.126700  0.897800  1
  H  H3004  1  0.825700  0.626700  0.602200  1
  H  H3005  1  0.325700  0.626700  0.897800  1
  H  H3006  1  0.174300  0.126700  0.602200  1
  H  H3007  1  0.325700  0.873300  0.102200  1
  H  H3008  1  0.174300  0.373300  0.397800  1
  H  H3009  1  0.649200  0.356600  0.058500  1
  H  H3010  1  0.850800  0.856600  0.441500  1
  H  H3011  1  0.649200  0.143400  0.941500  1
  H  H3012  1  0.850800  0.643400  0.558500  1
  H  H3013  1  0.350800  0.643400  0.941500  1
  H  H3014  1  0.149200  0.143400  0.558500  1
  H  H3015  1  0.350800  0.856600  0.058500  1
  H  H3016  1  0.149200  0.356600  0.441500  1
  H  H3017  1  0.692100  0.330400  0.060300  1
  H  H3018  1  0.807900  0.830400  0.439700  1
  H  H3019  1  0.692100  0.169600  0.939700  1
  H  H3020  1  0.807900  0.669600  0.560300  1
  H  H3021  1  0.307900  0.669600  0.939700  1
  H  H3022  1  0.192100  0.169600  0.560300  1
  H  H3023  1  0.307900  0.830400  0.060300  1
  H  H3024  1  0.192100  0.330400  0.439700  1
  H  H3025  1  0.671400  0.311100  0.092400  1
  H  H3026  1  0.828600  0.811100  0.407600  1
  H  H3027  1  0.671400  0.188900  0.907600  1
  H  H3028  1  0.828600  0.688900  0.592400  1
  H  H3029  1  0.328600  0.688900  0.907600  1
  H  H3030  1  0.171400  0.188900  0.592400  1
  H  H3031  1  0.328600  0.811100  0.092400  1
  H  H3032  1  0.171400  0.311100  0.407600  1
  H  H3033  1  0.640600  0.294500  0.075100  1
  H  H3034  1  0.859400  0.794500  0.424900  1
  H  H3035  1  0.640600  0.205500  0.924900  1
  H  H3036  1  0.859400  0.705500  0.575100  1
  H  H3037  1  0.359400  0.705500  0.924900  1
  H  H3038  1  0.140600  0.205500  0.575100  1
  H  H3039  1  0.359400  0.794500  0.075100  1
  H  H3040  1  0.140600  0.294500  0.424900  1
  H  H3041  1  0.626800  0.333600  0.088400  1
  H  H3042  1  0.873200  0.833600  0.411600  1
  H  H3043  1  0.626800  0.166400  0.911600  1
  H  H3044  1  0.873200  0.666400  0.588400  1
  H  H3045  1  0.373200  0.666400  0.911600  1
  H  H3046  1  0.126800  0.166400  0.588400  1
  H  H3047  1  0.373200  0.833600  0.088400  1
  H  H3048  1  0.126800  0.333600  0.411600  1
  H  H3049  1  0.836300  0.333200  0.094000  1
  H  H3050  1  0.663700  0.833200  0.406000  1
  H  H3051  1  0.836300  0.166800  0.906000  1
  H  H3052  1  0.663700  0.666800  0.594000  1
  H  H3053  1  0.163700  0.666800  0.906000  1
  H  H3054  1  0.336300  0.166800  0.594000  1
  H  H3055  1  0.163700  0.833200  0.094000  1
  H  H3056  1  0.336300  0.333200  0.406000  1
  H  H3057  1  0.851600  0.371100  0.080400  1
  H  H3058  1  0.648400  0.871100  0.419600  1
  H  H3059  1  0.851600  0.128900  0.919600  1
  H  H3060  1  0.648400  0.628900  0.580400  1
  H  H3061  1  0.148400  0.628900  0.919600  1
  H  H3062  1  0.351600  0.128900  0.580400  1
  H  H3063  1  0.148400  0.871100  0.080400  1
  H  H3064  1  0.351600  0.371100  0.419600  1
  H  H3065  1  0.814300  0.323300  0.061300  1
  H  H3066  1  0.685700  0.823300  0.438700  1
  H  H3067  1  0.814300  0.176700  0.938700  1
  H  H3068  1  0.685700  0.676700  0.561300  1
  H  H3069  1  0.185700  0.676700  0.938700  1
  H  H3070  1  0.314300  0.176700  0.561300  1
  H  H3071  1  0.185700  0.823300  0.061300  1
  H  H3072  1  0.314300  0.323300  0.438700  1
  H  H3073  1  0.773400  0.328200  0.075300  1
  H  H3074  1  0.726600  0.828200  0.424700  1
  H  H3075  1  0.773400  0.171800  0.924700  1
  H  H3076  1  0.726600  0.671800  0.575300  1
  H  H3077  1  0.226600  0.671800  0.924700  1
  H  H3078  1  0.273400  0.171800  0.575300  1
  H  H3079  1  0.226600  0.828200  0.075300  1
  H  H3080  1  0.273400  0.328200  0.424700  1
  H  H3081  1  0.788700  0.366400  0.061700  1
  H  H3082  1  0.711300  0.866400  0.438300  1
  H  H3083  1  0.788700  0.133600  0.938300  1
  H  H3084  1  0.711300  0.633600  0.561700  1
  H  H3085  1  0.211300  0.633600  0.938300  1
  H  H3086  1  0.288700  0.133600  0.561700  1
  H  H3087  1  0.211300  0.866400  0.061700  1
  H  H3088  1  0.288700  0.366400  0.438300  1
  H  H3089  1  0.381800  0.264300  0.019300  1
  H  H3090  1  0.118200  0.764300  0.480700  1
  H  H3091  1  0.381800  0.235700  0.980700  1
  H  H3092  1  0.118200  0.735700  0.519300  1
  H  H3093  1  0.618200  0.735700  0.980700  1
  H  H3094  1  0.881800  0.235700  0.519300  1
  H  H3095  1  0.618200  0.764300  0.019300  1
  H  H3096  1  0.881800  0.264300  0.480700  1
  H  H3097  1  0.316400  0.247700  0.042800  1
  H  H3098  1  0.183600  0.747700  0.457200  1
  H  H3099  1  0.316400  0.252300  0.957200  1
  H  H3100  1  0.183600  0.752300  0.542800  1
  H  H3101  1  0.683600  0.752300  0.957200  1
  H  H3102  1  0.816400  0.252300  0.542800  1
  H  H3103  1  0.683600  0.747700  0.042800  1
  H  H3104  1  0.816400  0.247700  0.457200  1
  H  H3105  1  0.310400  0.280400  0.024900  1
  H  H3106  1  0.189600  0.780400  0.475100  1
  H  H3107  1  0.310400  0.219600  0.975100  1
  H  H3108  1  0.189600  0.719600  0.524900  1
  H  H3109  1  0.689600  0.719600  0.975100  1
  H  H3110  1  0.810400  0.219600  0.524900  1
  H  H3111  1  0.689600  0.780400  0.024900  1
  H  H3112  1  0.810400  0.280400  0.475100  1
  H  H3113  1  0.377000  0.292400  0.053500  1
  H  H3114  1  0.123000  0.792400  0.446500  1
  H  H3115  1  0.377000  0.207600  0.946500  1
  H  H3116  1  0.123000  0.707600  0.553500  1
  H  H3117  1  0.623000  0.707600  0.946500  1
  H  H3118  1  0.877000  0.207600  0.553500  1
  H  H3119  1  0.623000  0.792400  0.053500  1
  H  H3120  1  0.877000  0.292400  0.446500  1
  H  H3121  1  0.330400  0.310400  0.057800  1
  H  H3122  1  0.169600  0.810400  0.442200  1
  H  H3123  1  0.330400  0.189600  0.942200  1
  H  H3124  1  0.169600  0.689600  0.557800  1
  H  H3125  1  0.669600  0.689600  0.942200  1
  H  H3126  1  0.830400  0.189600  0.557800  1
  H  H3127  1  0.669600  0.810400  0.057800  1
  H  H3128  1  0.830400  0.310400  0.442200  1
  H  H3129  1  0.357000  0.327000  0.039000  1
  H  H3130  1  0.143000  0.827000  0.461000  1
  H  H3131  1  0.357000  0.173000  0.961000  1
  H  H3132  1  0.143000  0.673000  0.539000  1
  H  H3133  1  0.643000  0.673000  0.961000  1
  H  H3134  1  0.857000  0.173000  0.539000  1
  H  H3135  1  0.643000  0.827000  0.039000  1
  H  H3136  1  0.857000  0.327000  0.461000  1
  H  H3137  1  0.856700  0.234800  0.202800  1
  H  H3138  1  0.643300  0.734800  0.297200  1
  H  H3139  1  0.856700  0.265200  0.797200  1
  H  H3140  1  0.643300  0.765200  0.702800  1
  H  H3141  1  0.143300  0.765200  0.797200  1
  H  H3142  1  0.356700  0.265200  0.702800  1
  H  H3143  1  0.143300  0.734800  0.202800  1
  H  H3144  1  0.356700  0.234800  0.297200  1
  Ru  Ru3145  1  0.582060  0.310230  0.950040  1
  Ru  Ru3146  1  0.917940  0.810230  0.549960  1
  Ru  Ru3147  1  0.582060  0.189770  0.049960  1
  Ru  Ru3148  1  0.917940  0.689770  0.450040  1
  Ru  Ru3149  1  0.417940  0.689770  0.049960  1
  Ru  Ru3150  1  0.082060  0.189770  0.450040  1
  Ru  Ru3151  1  0.417940  0.810230  0.950040  1
  Ru  Ru3152  1  0.082060  0.310230  0.549960  1
  Ru  Ru3153  1  0.688390  0.310090  0.149850  1
  Ru  Ru3154  1  0.811610  0.810090  0.350150  1
  Ru  Ru3155  1  0.688390  0.189910  0.850150  1
  Ru  Ru3156  1  0.811610  0.689910  0.649850  1
  Ru  Ru3157  1  0.311610  0.689910  0.850150  1
  Ru  Ru3158  1  0.188390  0.189910  0.649850  1
  Ru  Ru3159  1  0.311610  0.810090  0.149850  1
  Ru  Ru3160  1  0.188390  0.310090  0.350150  1
  Ru  Ru3161  1  0.844730  0.135690  0.115130  1
  Ru  Ru3162  1  0.655270  0.635690  0.384870  1
  Ru  Ru3163  1  0.844730  0.364310  0.884870  1
  Ru  Ru3164  1  0.655270  0.864310  0.615130  1
  Ru  Ru3165  1  0.155270  0.864310  0.884870  1
  Ru  Ru3166  1  0.344730  0.364310  0.615130  1
  Ru  Ru3167  1  0.155270  0.635690  0.115130  1
  Ru  Ru3168  1  0.344730  0.135690  0.384870  1
  C  C3169  1  0.391930  0.075190  0.014950  1
  C  C3170  1  0.108070  0.575190  0.485050  1
  C  C3171  1  0.391930  0.424810  0.985050  1
  C  C3172  1  0.108070  0.924810  0.514950  1
  C  C3173  1  0.608070  0.924810  0.985050  1
  C  C3174  1  0.891930  0.424810  0.514950  1
  C  C3175  1  0.608070  0.575190  0.014950  1
  C  C3176  1  0.891930  0.075190  0.485050  1
  C  C3177  1  0.431340  0.084930  0.006760  1
  C  C3178  1  0.068660  0.584930  0.493240  1
  C  C3179  1  0.431340  0.415070  0.993240  1
  C  C3180  1  0.068660  0.915070  0.506760  1
  C  C3181  1  0.568660  0.915070  0.993240  1
  C  C3182  1  0.931340  0.415070  0.506760  1
  C  C3183  1  0.568660  0.584930  0.006760  1
  C  C3184  1  0.931340  0.084930  0.493240  1
  C  C3185  1  0.439270  0.124950  0.999830  1
  C  C3186  1  0.060730  0.624950  0.500170  1
  C  C3187  1  0.439270  0.375050  0.000170  1
  C  C3188  1  0.060730  0.875050  0.499830  1
  C  C3189  1  0.560730  0.875050  0.000170  1
  C  C3190  1  0.939270  0.375050  0.499830  1
  C  C3191  1  0.560730  0.624950  0.999830  1
  C  C3192  1  0.939270  0.124950  0.500170  1
  C  C3193  1  0.407790  0.155230  0.001100  1
  C  C3194  1  0.092210  0.655230  0.498900  1
  C  C3195  1  0.407790  0.344770  0.998900  1
  C  C3196  1  0.092210  0.844770  0.501100  1
  C  C3197  1  0.592210  0.844770  0.998900  1
  C  C3198  1  0.907790  0.344770  0.501100  1
  C  C3199  1  0.592210  0.655230  0.001100  1
  C  C3200  1  0.907790  0.155230  0.498900  1
  C  C3201  1  0.368380  0.145490  0.009290  1
  C  C3202  1  0.131620  0.645490  0.490710  1
  C  C3203  1  0.368380  0.354510  0.990710  1
  C  C3204  1  0.131620  0.854510  0.509290  1
  C  C3205  1  0.631620  0.854510  0.990710  1
  C  C3206  1  0.868380  0.354510  0.509290  1
  C  C3207  1  0.631620  0.645490  0.009290  1
  C  C3208  1  0.868380  0.145490  0.490710  1
  C  C3209  1  0.360450  0.105470  0.016220  1
  C  C3210  1  0.139550  0.605470  0.483780  1
  C  C3211  1  0.360450  0.394530  0.983780  1
  C  C3212  1  0.139550  0.894530  0.516220  1
  C  C3213  1  0.639550  0.894530  0.983780  1
  C  C3214  1  0.860450  0.394530  0.516220  1
  C  C3215  1  0.639550  0.605470  0.016220  1
  C  C3216  1  0.860450  0.105470  0.483780  1
  C  C3217  1  0.463200  0.183600  0.988980  1
  C  C3218  1  0.036800  0.683600  0.511020  1
  C  C3219  1  0.463200  0.316400  0.011020  1
  C  C3220  1  0.036800  0.816400  0.488980  1
  C  C3221  1  0.536800  0.816400  0.011020  1
  C  C3222  1  0.963200  0.316400  0.488980  1
  C  C3223  1  0.536800  0.683600  0.988980  1
  C  C3224  1  0.963200  0.183600  0.511020  1
  C  C3225  1  0.492600  0.214600  0.980750  1
  C  C3226  1  0.007400  0.714600  0.519250  1
  C  C3227  1  0.492600  0.285400  0.019250  1
  C  C3228  1  0.007400  0.785400  0.480750  1
  C  C3229  1  0.507400  0.785400  0.019250  1
  C  C3230  1  0.992600  0.285400  0.480750  1
  C  C3231  1  0.507400  0.714600  0.980750  1
  C  C3232  1  0.992600  0.214600  0.519250  1
  C  C3233  1  0.536300  0.209400  0.981810  1
  C  C3234  1  0.963700  0.709400  0.518190  1
  C  C3235  1  0.536300  0.290600  0.018190  1
  C  C3236  1  0.963700  0.790600  0.481810  1
  C  C3237  1  0.463700  0.790600  0.018190  1
  C  C3238  1  0.036300  0.290600  0.481810  1
  C  C3239  1  0.463700  0.709400  0.981810  1
  C  C3240  1  0.036300  0.209400  0.518190  1
  C  C3241  1  0.561800  0.238500  0.973780  1
  C  C3242  1  0.938200  0.738500  0.526220  1
  C  C3243  1  0.561800  0.261500  0.026220  1
  C  C3244  1  0.938200  0.761500  0.473780  1
  C  C3245  1  0.438200  0.761500  0.026220  1
  C  C3246  1  0.061800  0.261500  0.473780  1
  C  C3247  1  0.438200  0.738500  0.973780  1
  C  C3248  1  0.061800  0.238500  0.526220  1
  C  C3249  1  0.502400  0.279400  0.964400  1
  C  C3250  1  0.997600  0.779400  0.535600  1
  C  C3251  1  0.502400  0.220600  0.035600  1
  C  C3252  1  0.997600  0.720600  0.464400  1
  C  C3253  1  0.497600  0.720600  0.035600  1
  C  C3254  1  0.002400  0.220600  0.464400  1
  C  C3255  1  0.497600  0.779400  0.964400  1
  C  C3256  1  0.002400  0.279400  0.535600  1
  C  C3257  1  0.475500  0.250800  0.972360  1
  C  C3258  1  0.024500  0.750800  0.527640  1
  C  C3259  1  0.475500  0.249200  0.027640  1
  C  C3260  1  0.024500  0.749200  0.472360  1
  C  C3261  1  0.524500  0.749200  0.027640  1
  C  C3262  1  0.975500  0.249200  0.472360  1
  C  C3263  1  0.524500  0.750800  0.972360  1
  C  C3264  1  0.975500  0.250800  0.527640  1
  C  C3265  1  0.608400  0.237600  0.972290  1
  C  C3266  1  0.891600  0.737600  0.527710  1
  C  C3267  1  0.608400  0.262400  0.027710  1
  C  C3268  1  0.891600  0.762400  0.472290  1
  C  C3269  1  0.391600  0.762400  0.027710  1
  C  C3270  1  0.108400  0.262400  0.472290  1
  C  C3271  1  0.391600  0.737600  0.972290  1
  C  C3272  1  0.108400  0.237600  0.527710  1
  C  C3273  1  0.635200  0.208600  0.981670  1
  C  C3274  1  0.864800  0.708600  0.518330  1
  C  C3275  1  0.635200  0.291400  0.018330  1
  C  C3276  1  0.864800  0.791400  0.481670  1
  C  C3277  1  0.364800  0.791400  0.018330  1
  C  C3278  1  0.135200  0.291400  0.481670  1
  C  C3279  1  0.364800  0.708600  0.981670  1
  C  C3280  1  0.135200  0.208600  0.518330  1
  C  C3281  1  0.677900  0.210700  0.980270  1
  C  C3282  1  0.822100  0.710700  0.519730  1
  C  C3283  1  0.677900  0.289300  0.019730  1
  C  C3284  1  0.822100  0.789300  0.480270  1
  C  C3285  1  0.322100  0.789300  0.019730  1
  C  C3286  1  0.177900  0.289300  0.480270  1
  C  C3287  1  0.322100  0.710700  0.980270  1
  C  C3288  1  0.177900  0.210700  0.519730  1
  C  C3289  1  0.695700  0.244500  0.969520  1
  C  C3290  1  0.804300  0.744500  0.530480  1
  C  C3291  1  0.695700  0.255500  0.030480  1
  C  C3292  1  0.804300  0.755500  0.469520  1
  C  C3293  1  0.304300  0.755500  0.030480  1
  C  C3294  1  0.195700  0.255500  0.469520  1
  C  C3295  1  0.304300  0.744500  0.969520  1
  C  C3296  1  0.195700  0.244500  0.530480  1
  C  C3297  1  0.668600  0.271400  0.960210  1
  C  C3298  1  0.831400  0.771400  0.539790  1
  C  C3299  1  0.668600  0.228600  0.039790  1
  C  C3300  1  0.831400  0.728600  0.460210  1
  C  C3301  1  0.331400  0.728600  0.039790  1
  C  C3302  1  0.168600  0.228600  0.460210  1
  C  C3303  1  0.331400  0.771400  0.960210  1
  C  C3304  1  0.168600  0.271400  0.539790  1
  C  C3305  1  0.491600  0.319600  0.954380  1
  C  C3306  1  0.008400  0.819600  0.545620  1
  C  C3307  1  0.491600  0.180400  0.045620  1
  C  C3308  1  0.008400  0.680400  0.454380  1
  C  C3309  1  0.508400  0.680400  0.045620  1
  C  C3310  1  0.991600  0.180400  0.454380  1
  C  C3311  1  0.508400  0.819600  0.954380  1
  C  C3312  1  0.991600  0.319600  0.545620  1
  C  C3313  1  0.450000  0.334400  0.953470  1
  C  C3314  1  0.050000  0.834400  0.546530  1
  C  C3315  1  0.450000  0.165600  0.046530  1
  C  C3316  1  0.050000  0.665600  0.453470  1
  C  C3317  1  0.550000  0.665600  0.046530  1
  C  C3318  1  0.950000  0.165600  0.453470  1
  C  C3319  1  0.550000  0.834400  0.953470  1
  C  C3320  1  0.950000  0.334400  0.546530  1
  C  C3321  1  0.442700  0.372300  0.943970  1
  C  C3322  1  0.057300  0.872300  0.556030  1
  C  C3323  1  0.442700  0.127700  0.056030  1
  C  C3324  1  0.057300  0.627700  0.443970  1
  C  C3325  1  0.557300  0.627700  0.056030  1
  C  C3326  1  0.942700  0.127700  0.443970  1
  C  C3327  1  0.557300  0.872300  0.943970  1
  C  C3328  1  0.942700  0.372300  0.556030  1
  C  C3329  1  0.477800  0.394400  0.936160  1
  C  C3330  1  0.022200  0.894400  0.563840  1
  C  C3331  1  0.477800  0.105600  0.063840  1
  C  C3332  1  0.022200  0.605600  0.436160  1
  C  C3333  1  0.522200  0.605600  0.063840  1
  C  C3334  1  0.977800  0.105600  0.436160  1
  C  C3335  1  0.522200  0.894400  0.936160  1
  C  C3336  1  0.977800  0.394400  0.563840  1
  C  C3337  1  0.517700  0.377100  0.937240  1
  C  C3338  1  0.982300  0.877100  0.562760  1
  C  C3339  1  0.517700  0.122900  0.062760  1
  C  C3340  1  0.982300  0.622900  0.437240  1
  C  C3341  1  0.482300  0.622900  0.062760  1
  C  C3342  1  0.017700  0.122900  0.437240  1
  C  C3343  1  0.482300  0.877100  0.937240  1
  C  C3344  1  0.017700  0.377100  0.562760  1
  C  C3345  1  0.337300  0.033900  0.056620  1
  C  C3346  1  0.162700  0.533900  0.443380  1
  C  C3347  1  0.337300  0.466100  0.943380  1
  C  C3348  1  0.162700  0.966100  0.556620  1
  C  C3349  1  0.662700  0.966100  0.943380  1
  C  C3350  1  0.837300  0.466100  0.556620  1
  C  C3351  1  0.662700  0.533900  0.056620  1
  C  C3352  1  0.837300  0.033900  0.443380  1
  C  C3353  1  0.310700  0.007200  0.070750  1
  C  C3354  1  0.189300  0.507200  0.429250  1
  C  C3355  1  0.310700  0.492800  0.929250  1
  C  C3356  1  0.189300  0.992800  0.570750  1
  C  C3357  1  0.689300  0.992800  0.929250  1
  C  C3358  1  0.810700  0.492800  0.570750  1
  C  C3359  1  0.689300  0.507200  0.070750  1
  C  C3360  1  0.810700  0.007200  0.429250  1
  C  C3361  1  0.263300  0.017600  0.068060  1
  C  C3362  1  0.236700  0.517600  0.431940  1
  C  C3363  1  0.263300  0.482400  0.931940  1
  C  C3364  1  0.236700  0.982400  0.568060  1
  C  C3365  1  0.736700  0.982400  0.931940  1
  C  C3366  1  0.763300  0.482400  0.568060  1
  C  C3367  1  0.736700  0.517600  0.068060  1
  C  C3368  1  0.763300  0.017600  0.431940  1
  C  C3369  1  0.333333  0.080400  0.060810  1
  C  C3370  1  0.166667  0.580400  0.439190  1
  C  C3371  1  0.333333  0.419600  0.939190  1
  C  C3372  1  0.166667  0.919600  0.560810  1
  C  C3373  1  0.666667  0.919600  0.939190  1
  C  C3374  1  0.833333  0.419600  0.560810  1
  C  C3375  1  0.666667  0.580400  0.060810  1
  C  C3376  1  0.833333  0.080400  0.439190  1
  C  C3377  1  0.322700  0.108500  0.046060  1
  C  C3378  1  0.177300  0.608500  0.453940  1
  C  C3379  1  0.322700  0.391500  0.953940  1
  C  C3380  1  0.177300  0.891500  0.546060  1
  C  C3381  1  0.677300  0.891500  0.953940  1
  C  C3382  1  0.822700  0.391500  0.546060  1
  C  C3383  1  0.677300  0.608500  0.046060  1
  C  C3384  1  0.822700  0.108500  0.453940  1
  C  C3385  1  0.313000  0.149900  0.051010  1
  C  C3386  1  0.187000  0.649900  0.448990  1
  C  C3387  1  0.313000  0.350100  0.948990  1
  C  C3388  1  0.187000  0.850100  0.551010  1
  C  C3389  1  0.687000  0.850100  0.948990  1
  C  C3390  1  0.813000  0.350100  0.551010  1
  C  C3391  1  0.687000  0.649900  0.051010  1
  C  C3392  1  0.813000  0.149900  0.448990  1
  C  C3393  1  0.316100  0.162900  0.070080  1
  C  C3394  1  0.183900  0.662900  0.429920  1
  C  C3395  1  0.316100  0.337100  0.929920  1
  C  C3396  1  0.183900  0.837100  0.570080  1
  C  C3397  1  0.683900  0.837100  0.929920  1
  C  C3398  1  0.816100  0.337100  0.570080  1
  C  C3399  1  0.683900  0.662900  0.070080  1
  C  C3400  1  0.816100  0.162900  0.429920  1
  C  C3401  1  0.328900  0.136200  0.085400  1
  C  C3402  1  0.171100  0.636200  0.414600  1
  C  C3403  1  0.328900  0.363800  0.914600  1
  C  C3404  1  0.171100  0.863800  0.585400  1
  C  C3405  1  0.671100  0.863800  0.914600  1
  C  C3406  1  0.828900  0.363800  0.585400  1
  C  C3407  1  0.671100  0.636200  0.085400  1
  C  C3408  1  0.828900  0.136200  0.414600  1
  C  C3409  1  0.336500  0.095200  0.080410  1
  C  C3410  1  0.163500  0.595200  0.419590  1
  C  C3411  1  0.336500  0.404800  0.919590  1
  C  C3412  1  0.163500  0.904800  0.580410  1
  C  C3413  1  0.663500  0.904800  0.919590  1
  C  C3414  1  0.836500  0.404800  0.580410  1
  C  C3415  1  0.663500  0.595200  0.080410  1
  C  C3416  1  0.836500  0.095200  0.419590  1
  C  C3417  1  0.325700  0.233500  0.084500  1
  C  C3418  1  0.174300  0.733500  0.415500  1
  C  C3419  1  0.325700  0.266500  0.915500  1
  C  C3420  1  0.174300  0.766500  0.584500  1
  C  C3421  1  0.674300  0.766500  0.915500  1
  C  C3422  1  0.825700  0.266500  0.584500  1
  C  C3423  1  0.674300  0.733500  0.084500  1
  C  C3424  1  0.825700  0.233500  0.415500  1
  C  C3425  1  0.291500  0.266500  0.086200  1
  C  C3426  1  0.208500  0.766500  0.413800  1
  C  C3427  1  0.291500  0.233500  0.913800  1
  C  C3428  1  0.208500  0.733500  0.586200  1
  C  C3429  1  0.708500  0.733500  0.913800  1
  C  C3430  1  0.791500  0.233500  0.586200  1
  C  C3431  1  0.708500  0.766500  0.086200  1
  C  C3432  1  0.791500  0.266500  0.413800  1
  C  C3433  1  0.310300  0.303200  0.096800  1
  C  C3434  1  0.189700  0.803200  0.403200  1
  C  C3435  1  0.310300  0.196800  0.903200  1
  C  C3436  1  0.189700  0.696800  0.596800  1
  C  C3437  1  0.689700  0.696800  0.903200  1
  C  C3438  1  0.810300  0.196800  0.596800  1
  C  C3439  1  0.689700  0.803200  0.096800  1
  C  C3440  1  0.810300  0.303200  0.403200  1
  C  C3441  1  0.351300  0.305200  0.103200  1
  C  C3442  1  0.148700  0.805200  0.396800  1
  C  C3443  1  0.351300  0.194800  0.896800  1
  C  C3444  1  0.148700  0.694800  0.603200  1
  C  C3445  1  0.648700  0.694800  0.896800  1
  C  C3446  1  0.851300  0.194800  0.603200  1
  C  C3447  1  0.648700  0.805200  0.103200  1
  C  C3448  1  0.851300  0.305200  0.396800  1
  C  C3449  1  0.378900  0.268800  0.100800  1
  C  C3450  1  0.121100  0.768800  0.399200  1
  C  C3451  1  0.378900  0.231200  0.899200  1
  C  C3452  1  0.121100  0.731200  0.600800  1
  C  C3453  1  0.621100  0.731200  0.899200  1
  C  C3454  1  0.878900  0.231200  0.600800  1
  C  C3455  1  0.621100  0.768800  0.100800  1
  C  C3456  1  0.878900  0.268800  0.399200  1
  C  C3457  1  0.366600  0.236800  0.089700  1
  C  C3458  1  0.133400  0.736800  0.410300  1
  C  C3459  1  0.366600  0.263200  0.910300  1
  C  C3460  1  0.133400  0.763200  0.589700  1
  C  C3461  1  0.633400  0.763200  0.910300  1
  C  C3462  1  0.866600  0.263200  0.589700  1
  C  C3463  1  0.633400  0.736800  0.089700  1
  C  C3464  1  0.866600  0.236800  0.410300  1
  C  C3465  1  0.258700  0.356200  0.088700  1
  C  C3466  1  0.241300  0.856200  0.411300  1
  C  C3467  1  0.258700  0.143800  0.911300  1
  C  C3468  1  0.241300  0.643800  0.588700  1
  C  C3469  1  0.741300  0.643800  0.911300  1
  C  C3470  1  0.758700  0.143800  0.588700  1
  C  C3471  1  0.741300  0.856200  0.088700  1
  C  C3472  1  0.758700  0.356200  0.411300  1
  C  C3473  1  0.239900  0.397700  0.095000  1
  C  C3474  1  0.260100  0.897700  0.405000  1
  C  C3475  1  0.239900  0.102300  0.905000  1
  C  C3476  1  0.260100  0.602300  0.595000  1
  C  C3477  1  0.760100  0.602300  0.905000  1
  C  C3478  1  0.739900  0.102300  0.595000  1
  C  C3479  1  0.760100  0.897700  0.095000  1
  C  C3480  1  0.739900  0.397700  0.405000  1
  C  C3481  1  0.231200  0.426800  0.077200  1
  C  C3482  1  0.268800  0.926800  0.422800  1
  C  C3483  1  0.231200  0.073200  0.922800  1
  C  C3484  1  0.268800  0.573200  0.577200  1
  C  C3485  1  0.768800  0.573200  0.922800  1
  C  C3486  1  0.731200  0.073200  0.577200  1
  C  C3487  1  0.768800  0.926800  0.077200  1
  C  C3488  1  0.731200  0.426800  0.422800  1
  C  C3489  1  0.375500  0.380300  0.102300  1
  C  C3490  1  0.124500  0.880300  0.397700  1
  C  C3491  1  0.375500  0.119700  0.897700  1
  C  C3492  1  0.124500  0.619700  0.602300  1
  C  C3493  1  0.624500  0.619700  0.897700  1
  C  C3494  1  0.875500  0.119700  0.602300  1
  C  C3495  1  0.624500  0.880300  0.102300  1
  C  C3496  1  0.875500  0.380300  0.397700  1
  C  C3497  1  0.406000  0.408600  0.114300  1
  C  C3498  1  0.094000  0.908600  0.385700  1
  C  C3499  1  0.406000  0.091400  0.885700  1
  C  C3500  1  0.094000  0.591400  0.614300  1
  C  C3501  1  0.594000  0.591400  0.885700  1
  C  C3502  1  0.906000  0.091400  0.614300  1
  C  C3503  1  0.594000  0.908600  0.114300  1
  C  C3504  1  0.906000  0.408600  0.385700  1
  C  C3505  1  0.407900  0.394600  0.136230  1
  C  C3506  1  0.092100  0.894600  0.363770  1
  C  C3507  1  0.407900  0.105400  0.863770  1
  C  C3508  1  0.092100  0.605400  0.636230  1
  C  C3509  1  0.592100  0.605400  0.863770  1
  C  C3510  1  0.907900  0.105400  0.636230  1
  C  C3511  1  0.592100  0.894600  0.136230  1
  C  C3512  1  0.907900  0.394600  0.363770  1
  C  C3513  1  0.336700  0.151600  0.107200  1
  C  C3514  1  0.163300  0.651600  0.392800  1
  C  C3515  1  0.336700  0.348400  0.892800  1
  C  C3516  1  0.163300  0.848400  0.607200  1
  C  C3517  1  0.663300  0.848400  0.892800  1
  C  C3518  1  0.836700  0.348400  0.607200  1
  C  C3519  1  0.663300  0.651600  0.107200  1
  C  C3520  1  0.836700  0.151600  0.392800  1
  C  C3521  1  0.313300  0.124400  0.122570  1
  C  C3522  1  0.186700  0.624400  0.377430  1
  C  C3523  1  0.313300  0.375600  0.877430  1
  C  C3524  1  0.186700  0.875600  0.622570  1
  C  C3525  1  0.686700  0.875600  0.877430  1
  C  C3526  1  0.813300  0.375600  0.622570  1
  C  C3527  1  0.686700  0.624400  0.122570  1
  C  C3528  1  0.813300  0.124400  0.377430  1
  C  C3529  1  0.265100  0.127800  0.119440  1
  C  C3530  1  0.234900  0.627800  0.380560  1
  C  C3531  1  0.265100  0.372200  0.880560  1
  C  C3532  1  0.234900  0.872200  0.619440  1
  C  C3533  1  0.734900  0.872200  0.880560  1
  C  C3534  1  0.765100  0.372200  0.619440  1
  C  C3535  1  0.734900  0.627800  0.119440  1
  C  C3536  1  0.765100  0.127800  0.380560  1
  C  C3537  1  0.384900  0.152800  0.109720  1
  C  C3538  1  0.115100  0.652800  0.390280  1
  C  C3539  1  0.384900  0.347200  0.890280  1
  C  C3540  1  0.115100  0.847200  0.609720  1
  C  C3541  1  0.615100  0.847200  0.890280  1
  C  C3542  1  0.884900  0.347200  0.609720  1
  C  C3543  1  0.615100  0.652800  0.109720  1
  C  C3544  1  0.884900  0.152800  0.390280  1
  C  C3545  1  0.409600  0.178500  0.097290  1
  C  C3546  1  0.090400  0.678500  0.402710  1
  C  C3547  1  0.409600  0.321500  0.902710  1
  C  C3548  1  0.090400  0.821500  0.597290  1
  C  C3549  1  0.590400  0.821500  0.902710  1
  C  C3550  1  0.909600  0.321500  0.597290  1
  C  C3551  1  0.590400  0.678500  0.097290  1
  C  C3552  1  0.909600  0.178500  0.402710  1
  C  C3553  1  0.453300  0.177900  0.097590  1
  C  C3554  1  0.046700  0.677900  0.402410  1
  C  C3555  1  0.453300  0.322100  0.902410  1
  C  C3556  1  0.046700  0.822100  0.597590  1
  C  C3557  1  0.546700  0.822100  0.902410  1
  C  C3558  1  0.953300  0.322100  0.597590  1
  C  C3559  1  0.546700  0.677900  0.097590  1
  C  C3560  1  0.953300  0.177900  0.402410  1
  C  C3561  1  0.473500  0.151600  0.110330  1
  C  C3562  1  0.026500  0.651600  0.389670  1
  C  C3563  1  0.473500  0.348400  0.889670  1
  C  C3564  1  0.026500  0.848400  0.610330  1
  C  C3565  1  0.526500  0.848400  0.889670  1
  C  C3566  1  0.973500  0.348400  0.610330  1
  C  C3567  1  0.526500  0.651600  0.110330  1
  C  C3568  1  0.973500  0.151600  0.389670  1
  C  C3569  1  0.450900  0.125500  0.123840  1
  C  C3570  1  0.049100  0.625500  0.376160  1
  C  C3571  1  0.450900  0.374500  0.876160  1
  C  C3572  1  0.049100  0.874500  0.623840  1
  C  C3573  1  0.549100  0.874500  0.876160  1
  C  C3574  1  0.950900  0.374500  0.623840  1
  C  C3575  1  0.549100  0.625500  0.123840  1
  C  C3576  1  0.950900  0.125500  0.376160  1
  C  C3577  1  0.407200  0.127700  0.123100  1
  C  C3578  1  0.092800  0.627700  0.376900  1
  C  C3579  1  0.407200  0.372300  0.876900  1
  C  C3580  1  0.092800  0.872300  0.623100  1
  C  C3581  1  0.592800  0.872300  0.876900  1
  C  C3582  1  0.907200  0.372300  0.623100  1
  C  C3583  1  0.592800  0.627700  0.123100  1
  C  C3584  1  0.907200  0.127700  0.376900  1
  C  C3585  1  0.539900  0.162500  0.125580  1
  C  C3586  1  0.960100  0.662500  0.374420  1
  C  C3587  1  0.539900  0.337500  0.874420  1
  C  C3588  1  0.960100  0.837500  0.625580  1
  C  C3589  1  0.460100  0.837500  0.874420  1
  C  C3590  1  0.039900  0.337500  0.625580  1
  C  C3591  1  0.460100  0.662500  0.125580  1
  C  C3592  1  0.039900  0.162500  0.374420  1
  C  C3593  1  0.536200  0.202400  0.131320  1
  C  C3594  1  0.963800  0.702400  0.368680  1
  C  C3595  1  0.536200  0.297600  0.868680  1
  C  C3596  1  0.963800  0.797600  0.631320  1
  C  C3597  1  0.463800  0.797600  0.868680  1
  C  C3598  1  0.036200  0.297600  0.631320  1
  C  C3599  1  0.463800  0.702400  0.131320  1
  C  C3600  1  0.036200  0.202400  0.368680  1
  C  C3601  1  0.557400  0.216500  0.148340  1
  C  C3602  1  0.942600  0.716500  0.351660  1
  C  C3603  1  0.557400  0.283500  0.851660  1
  C  C3604  1  0.942600  0.783500  0.648340  1
  C  C3605  1  0.442600  0.783500  0.851660  1
  C  C3606  1  0.057400  0.283500  0.648340  1
  C  C3607  1  0.442600  0.716500  0.148340  1
  C  C3608  1  0.057400  0.216500  0.351660  1
  C  C3609  1  0.580500  0.187900  0.159550  1
  C  C3610  1  0.919500  0.687900  0.340450  1
  C  C3611  1  0.580500  0.312100  0.840450  1
  C  C3612  1  0.919500  0.812100  0.659550  1
  C  C3613  1  0.419500  0.812100  0.840450  1
  C  C3614  1  0.080500  0.312100  0.659550  1
  C  C3615  1  0.419500  0.687900  0.159550  1
  C  C3616  1  0.080500  0.187900  0.340450  1
  C  C3617  1  0.585300  0.147900  0.153180  1
  C  C3618  1  0.914700  0.647900  0.346820  1
  C  C3619  1  0.585300  0.352100  0.846820  1
  C  C3620  1  0.914700  0.852100  0.653180  1
  C  C3621  1  0.414700  0.852100  0.846820  1
  C  C3622  1  0.085300  0.352100  0.653180  1
  C  C3623  1  0.414700  0.647900  0.153180  1
  C  C3624  1  0.085300  0.147900  0.346820  1
  C  C3625  1  0.564800  0.134800  0.135950  1
  C  C3626  1  0.935200  0.634800  0.364050  1
  C  C3627  1  0.564800  0.365200  0.864050  1
  C  C3628  1  0.935200  0.865200  0.635950  1
  C  C3629  1  0.435200  0.865200  0.864050  1
  C  C3630  1  0.064800  0.365200  0.635950  1
  C  C3631  1  0.435200  0.634800  0.135950  1
  C  C3632  1  0.064800  0.134800  0.364050  1
  C  C3633  1  0.533100  0.289700  0.146370  1
  C  C3634  1  0.966900  0.789700  0.353630  1
  C  C3635  1  0.533100  0.210300  0.853630  1
  C  C3636  1  0.966900  0.710300  0.646370  1
  C  C3637  1  0.466900  0.710300  0.853630  1
  C  C3638  1  0.033100  0.210300  0.646370  1
  C  C3639  1  0.466900  0.789700  0.146370  1
  C  C3640  1  0.033100  0.289700  0.353630  1
  C  C3641  1  0.536000  0.331270  0.156570  1
  C  C3642  1  0.964000  0.831270  0.343430  1
  C  C3643  1  0.536000  0.168730  0.843430  1
  C  C3644  1  0.964000  0.668730  0.656570  1
  C  C3645  1  0.464000  0.668730  0.843430  1
  C  C3646  1  0.036000  0.168730  0.656570  1
  C  C3647  1  0.464000  0.831270  0.156570  1
  C  C3648  1  0.036000  0.331270  0.343430  1
  C  C3649  1  0.523900  0.367800  0.142950  1
  C  C3650  1  0.976100  0.867800  0.357050  1
  C  C3651  1  0.523900  0.132200  0.857050  1
  C  C3652  1  0.976100  0.632200  0.642950  1
  C  C3653  1  0.476100  0.632200  0.857050  1
  C  C3654  1  0.023900  0.132200  0.642950  1
  C  C3655  1  0.476100  0.867800  0.142950  1
  C  C3656  1  0.023900  0.367800  0.357050  1
  C  C3657  1  0.633900  0.190700  0.187020  1
  C  C3658  1  0.866100  0.690700  0.312980  1
  C  C3659  1  0.633900  0.309300  0.812980  1
  C  C3660  1  0.866100  0.809300  0.687020  1
  C  C3661  1  0.366100  0.809300  0.812980  1
  C  C3662  1  0.133900  0.309300  0.687020  1
  C  C3663  1  0.366100  0.690700  0.187020  1
  C  C3664  1  0.133900  0.190700  0.312980  1
  C  C3665  1  0.639500  0.205700  0.208210  1
  C  C3666  1  0.860500  0.705700  0.291790  1
  C  C3667  1  0.639500  0.294300  0.791790  1
  C  C3668  1  0.860500  0.794300  0.708210  1
  C  C3669  1  0.360500  0.794300  0.791790  1
  C  C3670  1  0.139500  0.294300  0.708210  1
  C  C3671  1  0.360500  0.705700  0.208210  1
  C  C3672  1  0.139500  0.205700  0.291790  1
  C  C3673  1  0.686300  0.213500  0.213750  1
  C  C3674  1  0.813700  0.713500  0.286250  1
  C  C3675  1  0.686300  0.286500  0.786250  1
  C  C3676  1  0.813700  0.786500  0.713750  1
  C  C3677  1  0.313700  0.786500  0.786250  1
  C  C3678  1  0.186300  0.286500  0.713750  1
  C  C3679  1  0.313700  0.713500  0.213750  1
  C  C3680  1  0.186300  0.213500  0.286250  1
  C  C3681  1  0.474900  0.095500  0.136740  1
  C  C3682  1  0.025100  0.595500  0.363260  1
  C  C3683  1  0.474900  0.404500  0.863260  1
  C  C3684  1  0.025100  0.904500  0.636740  1
  C  C3685  1  0.525100  0.904500  0.863260  1
  C  C3686  1  0.974900  0.404500  0.636740  1
  C  C3687  1  0.525100  0.595500  0.136740  1
  C  C3688  1  0.974900  0.095500  0.363260  1
  C  C3689  1  0.447500  0.071300  0.151870  1
  C  C3690  1  0.052500  0.571300  0.348130  1
  C  C3691  1  0.447500  0.428700  0.848130  1
  C  C3692  1  0.052500  0.928700  0.651870  1
  C  C3693  1  0.552500  0.928700  0.848130  1
  C  C3694  1  0.947500  0.428700  0.651870  1
  C  C3695  1  0.552500  0.571300  0.151870  1
  C  C3696  1  0.947500  0.071300  0.348130  1
  C  C3697  1  0.429700  0.093200  0.168530  1
  C  C3698  1  0.070300  0.593200  0.331470  1
  C  C3699  1  0.429700  0.406800  0.831470  1
  C  C3700  1  0.070300  0.906800  0.668530  1
  C  C3701  1  0.570300  0.906800  0.831470  1
  C  C3702  1  0.929700  0.406800  0.668530  1
  C  C3703  1  0.570300  0.593200  0.168530  1
  C  C3704  1  0.929700  0.093200  0.331470  1
  C  C3705  1  0.501100  0.067000  0.122950  1
  C  C3706  1  0.998900  0.567000  0.377050  1
  C  C3707  1  0.501100  0.433000  0.877050  1
  C  C3708  1  0.998900  0.933000  0.622950  1
  C  C3709  1  0.498900  0.933000  0.877050  1
  C  C3710  1  0.001100  0.433000  0.622950  1
  C  C3711  1  0.498900  0.567000  0.122950  1
  C  C3712  1  0.001100  0.067000  0.377050  1
  C  C3713  1  0.543700  0.069600  0.119690  1
  C  C3714  1  0.956300  0.569600  0.380310  1
  C  C3715  1  0.543700  0.430400  0.880310  1
  C  C3716  1  0.956300  0.930400  0.619690  1
  C  C3717  1  0.456300  0.930400  0.880310  1
  C  C3718  1  0.043700  0.430400  0.619690  1
  C  C3719  1  0.456300  0.569600  0.119690  1
  C  C3720  1  0.043700  0.069600  0.380310  1
  C  C3721  1  0.563400  0.044700  0.105060  1
  C  C3722  1  0.936600  0.544700  0.394940  1
  C  C3723  1  0.563400  0.455300  0.894940  1
  C  C3724  1  0.936600  0.955300  0.605060  1
  C  C3725  1  0.436600  0.955300  0.894940  1
  C  C3726  1  0.063400  0.455300  0.605060  1
  C  C3727  1  0.436600  0.544700  0.105060  1
  C  C3728  1  0.063400  0.044700  0.394940  1
  C  C3729  1  0.540500  0.015500  0.095120  1
  C  C3730  1  0.959500  0.515500  0.404880  1
  C  C3731  1  0.540500  0.484500  0.904880  1
  C  C3732  1  0.959500  0.984500  0.595120  1
  C  C3733  1  0.459500  0.984500  0.904880  1
  C  C3734  1  0.040500  0.484500  0.595120  1
  C  C3735  1  0.459500  0.515500  0.095120  1
  C  C3736  1  0.040500  0.015500  0.404880  1
  C  C3737  1  0.498300  0.009500  0.098420  1
  C  C3738  1  0.001700  0.509500  0.401580  1
  C  C3739  1  0.498300  0.490500  0.901580  1
  C  C3740  1  0.001700  0.990500  0.598420  1
  C  C3741  1  0.501700  0.990500  0.901580  1
  C  C3742  1  0.998300  0.490500  0.598420  1
  C  C3743  1  0.501700  0.509500  0.098420  1
  C  C3744  1  0.998300  0.009500  0.401580  1
  C  C3745  1  0.478900  0.035800  0.112230  1
  C  C3746  1  0.021100  0.535800  0.387770  1
  C  C3747  1  0.478900  0.464200  0.887770  1
  C  C3748  1  0.021100  0.964200  0.612230  1
  C  C3749  1  0.521100  0.964200  0.887770  1
  C  C3750  1  0.978900  0.464200  0.612230  1
  C  C3751  1  0.521100  0.535800  0.112230  1
  C  C3752  1  0.978900  0.035800  0.387770  1
  C  C3753  1  0.569900  0.007000  0.062220  1
  C  C3754  1  0.930100  0.507000  0.437780  1
  C  C3755  1  0.569900  0.493000  0.937780  1
  C  C3756  1  0.930100  0.993000  0.562220  1
  C  C3757  1  0.430100  0.993000  0.937780  1
  C  C3758  1  0.069900  0.493000  0.562220  1
  C  C3759  1  0.430100  0.507000  0.062220  1
  C  C3760  1  0.069900  0.007000  0.437780  1
  C  C3761  1  0.607000  0.029600  0.059210  1
  C  C3762  1  0.893000  0.529600  0.440790  1
  C  C3763  1  0.607000  0.470400  0.940790  1
  C  C3764  1  0.893000  0.970400  0.559210  1
  C  C3765  1  0.393000  0.970400  0.940790  1
  C  C3766  1  0.107000  0.470400  0.559210  1
  C  C3767  1  0.393000  0.529600  0.059210  1
  C  C3768  1  0.107000  0.029600  0.440790  1
  C  C3769  1  0.615400  0.045300  0.039940  1
  C  C3770  1  0.884600  0.545300  0.460060  1
  C  C3771  1  0.615400  0.454700  0.960060  1
  C  C3772  1  0.884600  0.954700  0.539940  1
  C  C3773  1  0.384600  0.954700  0.960060  1
  C  C3774  1  0.115400  0.454700  0.539940  1
  C  C3775  1  0.384600  0.545300  0.039940  1
  C  C3776  1  0.115400  0.045300  0.460060  1
  C  C3777  1  0.587900  0.037300  0.024530  1
  C  C3778  1  0.912100  0.537300  0.475470  1
  C  C3779  1  0.587900  0.462700  0.975470  1
  C  C3780  1  0.912100  0.962700  0.524530  1
  C  C3781  1  0.412100  0.962700  0.975470  1
  C  C3782  1  0.087900  0.462700  0.524530  1
  C  C3783  1  0.412100  0.537300  0.024530  1
  C  C3784  1  0.087900  0.037300  0.475470  1
  C  C3785  1  0.550700  0.013500  0.028290  1
  C  C3786  1  0.949300  0.513500  0.471710  1
  C  C3787  1  0.550700  0.486500  0.971710  1
  C  C3788  1  0.949300  0.986500  0.528290  1
  C  C3789  1  0.449300  0.986500  0.971710  1
  C  C3790  1  0.050700  0.486500  0.528290  1
  C  C3791  1  0.449300  0.513500  0.028290  1
  C  C3792  1  0.050700  0.013500  0.471710  1
  C  C3793  1  0.542500  0.998600  0.046900  1
  C  C3794  1  0.957500  0.498600  0.453100  1
  C  C3795  1  0.542500  0.501400  0.953100  1
  C  C3796  1  0.957500  0.001400  0.546900  1
  C  C3797  1  0.457500  0.001400  0.953100  1
  C  C3798  1  0.042500  0.501400  0.546900  1
  C  C3799  1  0.457500  0.498600  0.046900  1
  C  C3800  1  0.042500  0.998600  0.453100  1
  C  C3801  1  0.691800  0.059900  0.042260  1
  C  C3802  1  0.808200  0.559900  0.457740  1
  C  C3803  1  0.691800  0.440100  0.957740  1
  C  C3804  1  0.808200  0.940100  0.542260  1
  C  C3805  1  0.308200  0.940100  0.957740  1
  C  C3806  1  0.191800  0.440100  0.542260  1
  C  C3807  1  0.308200  0.559900  0.042260  1
  C  C3808  1  0.191800  0.059900  0.457740  1
  C  C3809  1  0.727600  0.090100  0.038860  1
  C  C3810  1  0.772400  0.590100  0.461140  1
  C  C3811  1  0.727600  0.409900  0.961140  1
  C  C3812  1  0.772400  0.909900  0.538860  1
  C  C3813  1  0.272400  0.909900  0.961140  1
  C  C3814  1  0.227600  0.409900  0.538860  1
  C  C3815  1  0.272400  0.590100  0.038860  1
  C  C3816  1  0.227600  0.090100  0.461140  1
  C  C3817  1  0.717700  0.128400  0.026480  1
  C  C3818  1  0.782300  0.628400  0.473520  1
  C  C3819  1  0.717700  0.371600  0.973520  1
  C  C3820  1  0.782300  0.871600  0.526480  1
  C  C3821  1  0.282300  0.871600  0.973520  1
  C  C3822  1  0.217700  0.371600  0.526480  1
  C  C3823  1  0.282300  0.628400  0.026480  1
  C  C3824  1  0.217700  0.128400  0.473520  1
  C  C3825  1  0.572600  0.072300  0.992460  1
  C  C3826  1  0.927400  0.572300  0.507540  1
  C  C3827  1  0.572600  0.427700  0.007540  1
  C  C3828  1  0.927400  0.927700  0.492460  1
  C  C3829  1  0.427400  0.927700  0.007540  1
  C  C3830  1  0.072600  0.427700  0.492460  1
  C  C3831  1  0.427400  0.572300  0.992460  1
  C  C3832  1  0.072600  0.072300  0.507540  1
  C  C3833  1  0.595000  0.087800  0.973590  1
  C  C3834  1  0.905000  0.587800  0.526410  1
  C  C3835  1  0.595000  0.412200  0.026410  1
  C  C3836  1  0.905000  0.912200  0.473590  1
  C  C3837  1  0.405000  0.912200  0.026410  1
  C  C3838  1  0.095000  0.412200  0.473590  1
  C  C3839  1  0.405000  0.587800  0.973590  1
  C  C3840  1  0.095000  0.087800  0.526410  1
  C  C3841  1  0.563700  0.108100  0.959080  1
  C  C3842  1  0.936300  0.608100  0.540920  1
  C  C3843  1  0.563700  0.391900  0.040920  1
  C  C3844  1  0.936300  0.891900  0.459080  1
  C  C3845  1  0.436300  0.891900  0.040920  1
  C  C3846  1  0.063700  0.391900  0.459080  1
  C  C3847  1  0.436300  0.608100  0.959080  1
  C  C3848  1  0.063700  0.108100  0.540920  1
  C  C3849  1  0.473100  0.974500  0.088740  1
  C  C3850  1  0.026900  0.474500  0.411260  1
  C  C3851  1  0.473100  0.525500  0.911260  1
  C  C3852  1  0.026900  0.025500  0.588740  1
  C  C3853  1  0.526900  0.025500  0.911260  1
  C  C3854  1  0.973100  0.525500  0.588740  1
  C  C3855  1  0.526900  0.474500  0.088740  1
  C  C3856  1  0.973100  0.974500  0.411260  1
  C  C3857  1  0.445900  0.949900  0.103970  1
  C  C3858  1  0.054100  0.449900  0.396030  1
  C  C3859  1  0.445900  0.550100  0.896030  1
  C  C3860  1  0.054100  0.050100  0.603970  1
  C  C3861  1  0.554100  0.050100  0.896030  1
  C  C3862  1  0.945900  0.550100  0.603970  1
  C  C3863  1  0.554100  0.449900  0.103970  1
  C  C3864  1  0.945900  0.949900  0.396030  1
  C  C3865  1  0.427300  0.912700  0.095870  1
  C  C3866  1  0.072700  0.412700  0.404130  1
  C  C3867  1  0.427300  0.587300  0.904130  1
  C  C3868  1  0.072700  0.087300  0.595870  1
  C  C3869  1  0.572700  0.087300  0.904130  1
  C  C3870  1  0.927300  0.587300  0.595870  1
  C  C3871  1  0.572700  0.412700  0.095870  1
  C  C3872  1  0.927300  0.912700  0.404130  1
  C  C3873  1  0.449000  0.990500  0.071180  1
  C  C3874  1  0.051000  0.490500  0.428820  1
  C  C3875  1  0.449000  0.509500  0.928820  1
  C  C3876  1  0.051000  0.009500  0.571180  1
  C  C3877  1  0.551000  0.009500  0.928820  1
  C  C3878  1  0.949000  0.509500  0.571180  1
  C  C3879  1  0.551000  0.490500  0.071180  1
  C  C3880  1  0.949000  0.990500  0.428820  1
  C  C3881  1  0.466900  0.991100  0.052580  1
  C  C3882  1  0.033100  0.491100  0.447420  1
  C  C3883  1  0.466900  0.508900  0.947420  1
  C  C3884  1  0.033100  0.008900  0.552580  1
  C  C3885  1  0.533100  0.008900  0.947420  1
  C  C3886  1  0.966900  0.508900  0.552580  1
  C  C3887  1  0.533100  0.491100  0.052580  1
  C  C3888  1  0.966900  0.991100  0.447420  1
  C  C3889  1  0.445700  0.006900  0.035530  1
  C  C3890  1  0.054300  0.506900  0.464470  1
  C  C3891  1  0.445700  0.493100  0.964470  1
  C  C3892  1  0.054300  0.993100  0.535530  1
  C  C3893  1  0.554300  0.993100  0.964470  1
  C  C3894  1  0.945700  0.493100  0.535530  1
  C  C3895  1  0.554300  0.506900  0.035530  1
  C  C3896  1  0.945700  0.006900  0.464470  1
  C  C3897  1  0.405200  0.021900  0.037740  1
  C  C3898  1  0.094800  0.521900  0.462260  1
  C  C3899  1  0.405200  0.478100  0.962260  1
  C  C3900  1  0.094800  0.978100  0.537740  1
  C  C3901  1  0.594800  0.978100  0.962260  1
  C  C3902  1  0.905200  0.478100  0.537740  1
  C  C3903  1  0.594800  0.521900  0.037740  1
  C  C3904  1  0.905200  0.021900  0.462260  1
  C  C3905  1  0.384200  0.020900  0.055960  1
  C  C3906  1  0.115800  0.520900  0.444040  1
  C  C3907  1  0.384200  0.479100  0.944040  1
  C  C3908  1  0.115800  0.979100  0.555960  1
  C  C3909  1  0.615800  0.979100  0.944040  1
  C  C3910  1  0.884200  0.479100  0.555960  1
  C  C3911  1  0.615800  0.520900  0.055960  1
  C  C3912  1  0.884200  0.020900  0.444040  1
  C  C3913  1  0.406300  0.005100  0.072260  1
  C  C3914  1  0.093700  0.505100  0.427740  1
  C  C3915  1  0.406300  0.494900  0.927740  1
  C  C3916  1  0.093700  0.994900  0.572260  1
  C  C3917  1  0.593700  0.994900  0.927740  1
  C  C3918  1  0.906300  0.494900  0.572260  1
  C  C3919  1  0.593700  0.505100  0.072260  1
  C  C3920  1  0.906300  0.005100  0.427740  1
  C  C3921  1  0.348200  0.420600  0.058900  1
  C  C3922  1  0.151800  0.920600  0.441100  1
  C  C3923  1  0.348200  0.079400  0.941100  1
  C  C3924  1  0.151800  0.579400  0.558900  1
  C  C3925  1  0.651800  0.579400  0.941100  1
  C  C3926  1  0.848200  0.079400  0.558900  1
  C  C3927  1  0.651800  0.920600  0.058900  1
  C  C3928  1  0.848200  0.420600  0.441100  1
  C  C3929  1  0.310700  0.450800  0.059200  1
  C  C3930  1  0.189300  0.950800  0.440800  1
  C  C3931  1  0.310700  0.049200  0.940800  1
  C  C3932  1  0.189300  0.549200  0.559200  1
  C  C3933  1  0.689300  0.549200  0.940800  1
  C  C3934  1  0.810700  0.049200  0.559200  1
  C  C3935  1  0.689300  0.950800  0.059200  1
  C  C3936  1  0.810700  0.450800  0.440800  1
  C  C3937  1  0.898400  0.095500  0.218590  1
  C  C3938  1  0.601600  0.595500  0.281410  1
  C  C3939  1  0.898400  0.404500  0.781410  1
  C  C3940  1  0.601600  0.904500  0.718590  1
  C  C3941  1  0.101600  0.904500  0.781410  1
  C  C3942  1  0.398400  0.404500  0.718590  1
  C  C3943  1  0.101600  0.595500  0.218590  1
  C  C3944  1  0.398400  0.095500  0.281410  1
  C  C3945  1  0.861200  0.098600  0.208000  1
  C  C3946  1  0.638800  0.598600  0.292000  1
  C  C3947  1  0.861200  0.401400  0.792000  1
  C  C3948  1  0.638800  0.901400  0.708000  1
  C  C3949  1  0.138800  0.901400  0.792000  1
  C  C3950  1  0.361200  0.401400  0.708000  1
  C  C3951  1  0.138800  0.598600  0.208000  1
  C  C3952  1  0.361200  0.098600  0.292000  1
  C  C3953  1  0.848000  0.138300  0.202250  1
  C  C3954  1  0.652000  0.638300  0.297750  1
  C  C3955  1  0.848000  0.361700  0.797750  1
  C  C3956  1  0.652000  0.861700  0.702250  1
  C  C3957  1  0.152000  0.861700  0.797750  1
  C  C3958  1  0.348000  0.361700  0.702250  1
  C  C3959  1  0.152000  0.638300  0.202250  1
  C  C3960  1  0.348000  0.138300  0.297750  1
  C  C3961  1  0.870200  0.174400  0.208150  1
  C  C3962  1  0.629800  0.674400  0.291850  1
  C  C3963  1  0.870200  0.325600  0.791850  1
  C  C3964  1  0.629800  0.825600  0.708150  1
  C  C3965  1  0.129800  0.825600  0.791850  1
  C  C3966  1  0.370200  0.325600  0.708150  1
  C  C3967  1  0.129800  0.674400  0.208150  1
  C  C3968  1  0.370200  0.174400  0.291850  1
  C  C3969  1  0.910200  0.171500  0.218240  1
  C  C3970  1  0.589800  0.671500  0.281760  1
  C  C3971  1  0.910200  0.328500  0.781760  1
  C  C3972  1  0.589800  0.828500  0.718240  1
  C  C3973  1  0.089800  0.828500  0.781760  1
  C  C3974  1  0.410200  0.328500  0.718240  1
  C  C3975  1  0.089800  0.671500  0.218240  1
  C  C3976  1  0.410200  0.171500  0.281760  1
  C  C3977  1  0.923900  0.132600  0.222620  1
  C  C3978  1  0.576100  0.632600  0.277380  1
  C  C3979  1  0.923900  0.367400  0.777380  1
  C  C3980  1  0.576100  0.867400  0.722620  1
  C  C3981  1  0.076100  0.867400  0.777380  1
  C  C3982  1  0.423900  0.367400  0.722620  1
  C  C3983  1  0.076100  0.632600  0.222620  1
  C  C3984  1  0.423900  0.132600  0.277380  1
  C  C3985  1  0.816500  0.194800  0.191300  1
  C  C3986  1  0.683500  0.694800  0.308700  1
  C  C3987  1  0.816500  0.305200  0.808700  1
  C  C3988  1  0.683500  0.805200  0.691300  1
  C  C3989  1  0.183500  0.805200  0.808700  1
  C  C3990  1  0.316500  0.305200  0.691300  1
  C  C3991  1  0.183500  0.694800  0.191300  1
  C  C3992  1  0.316500  0.194800  0.308700  1
  C  C3993  1  0.786500  0.221500  0.181150  1
  C  C3994  1  0.713500  0.721500  0.318850  1
  C  C3995  1  0.786500  0.278500  0.818850  1
  C  C3996  1  0.713500  0.778500  0.681150  1
  C  C3997  1  0.213500  0.778500  0.818850  1
  C  C3998  1  0.286500  0.278500  0.681150  1
  C  C3999  1  0.213500  0.721500  0.181150  1
  C  C4000  1  0.286500  0.221500  0.318850  1
  C  C4001  1  0.758400  0.205500  0.166450  1
  C  C4002  1  0.741600  0.705500  0.333550  1
  C  C4003  1  0.758400  0.294500  0.833550  1
  C  C4004  1  0.741600  0.794500  0.666450  1
  C  C4005  1  0.241600  0.794500  0.833550  1
  C  C4006  1  0.258400  0.294500  0.666450  1
  C  C4007  1  0.241600  0.705500  0.166450  1
  C  C4008  1  0.258400  0.205500  0.333550  1
  C  C4009  1  0.730500  0.233300  0.157490  1
  C  C4010  1  0.769500  0.733300  0.342510  1
  C  C4011  1  0.730500  0.266700  0.842510  1
  C  C4012  1  0.769500  0.766700  0.657490  1
  C  C4013  1  0.269500  0.766700  0.842510  1
  C  C4014  1  0.230500  0.266700  0.657490  1
  C  C4015  1  0.269500  0.733300  0.157490  1
  C  C4016  1  0.230500  0.233300  0.342510  1
  C  C4017  1  0.756640  0.289800  0.175970  1
  C  C4018  1  0.743360  0.789800  0.324030  1
  C  C4019  1  0.756640  0.210200  0.824030  1
  C  C4020  1  0.743360  0.710200  0.675970  1
  C  C4021  1  0.243360  0.710200  0.824030  1
  C  C4022  1  0.256640  0.210200  0.675970  1
  C  C4023  1  0.243360  0.789800  0.175970  1
  C  C4024  1  0.256640  0.289800  0.324030  1
  C  C4025  1  0.785300  0.264100  0.185390  1
  C  C4026  1  0.714700  0.764100  0.314610  1
  C  C4027  1  0.785300  0.235900  0.814610  1
  C  C4028  1  0.714700  0.735900  0.685390  1
  C  C4029  1  0.214700  0.735900  0.814610  1
  C  C4030  1  0.285300  0.235900  0.685390  1
  C  C4031  1  0.214700  0.764100  0.185390  1
  C  C4032  1  0.285300  0.264100  0.314610  1
  C  C4033  1  0.699000  0.222900  0.141820  1
  C  C4034  1  0.801000  0.722900  0.358180  1
  C  C4035  1  0.699000  0.277100  0.858180  1
  C  C4036  1  0.801000  0.777100  0.641820  1
  C  C4037  1  0.301000  0.777100  0.858180  1
  C  C4038  1  0.199000  0.277100  0.641820  1
  C  C4039  1  0.301000  0.722900  0.141820  1
  C  C4040  1  0.199000  0.222900  0.358180  1
  C  C4041  1  0.694800  0.182800  0.133550  1
  C  C4042  1  0.805200  0.682800  0.366450  1
  C  C4043  1  0.694800  0.317200  0.866450  1
  C  C4044  1  0.805200  0.817200  0.633550  1
  C  C4045  1  0.305200  0.817200  0.866450  1
  C  C4046  1  0.194800  0.317200  0.633550  1
  C  C4047  1  0.305200  0.682800  0.133550  1
  C  C4048  1  0.194800  0.182800  0.366450  1
  C  C4049  1  0.664400  0.177200  0.119080  1
  C  C4050  1  0.835600  0.677200  0.380920  1
  C  C4051  1  0.664400  0.322800  0.880920  1
  C  C4052  1  0.835600  0.822800  0.619080  1
  C  C4053  1  0.335600  0.822800  0.880920  1
  C  C4054  1  0.164400  0.322800  0.619080  1
  C  C4055  1  0.335600  0.677200  0.119080  1
  C  C4056  1  0.164400  0.177200  0.380920  1
  C  C4057  1  0.637800  0.209300  0.113260  1
  C  C4058  1  0.862200  0.709300  0.386740  1
  C  C4059  1  0.637800  0.290700  0.886740  1
  C  C4060  1  0.862200  0.790700  0.613260  1
  C  C4061  1  0.362200  0.790700  0.886740  1
  C  C4062  1  0.137800  0.290700  0.613260  1
  C  C4063  1  0.362200  0.709300  0.113260  1
  C  C4064  1  0.137800  0.209300  0.386740  1
  C  C4065  1  0.643400  0.247500  0.122420  1
  C  C4066  1  0.856600  0.747500  0.377580  1
  C  C4067  1  0.643400  0.252500  0.877580  1
  C  C4068  1  0.856600  0.752500  0.622420  1
  C  C4069  1  0.356600  0.752500  0.877580  1
  C  C4070  1  0.143400  0.252500  0.622420  1
  C  C4071  1  0.356600  0.747500  0.122420  1
  C  C4072  1  0.143400  0.247500  0.377580  1
  C  C4073  1  0.751610  0.335200  0.178670  1
  C  C4074  1  0.748390  0.835200  0.321330  1
  C  C4075  1  0.751610  0.164800  0.821330  1
  C  C4076  1  0.748390  0.664800  0.678670  1
  C  C4077  1  0.248390  0.664800  0.821330  1
  C  C4078  1  0.251610  0.164800  0.678670  1
  C  C4079  1  0.248390  0.835200  0.178670  1
  C  C4080  1  0.251610  0.335200  0.321330  1
  C  C4081  1  0.776800  0.358700  0.191660  1
  C  C4082  1  0.723200  0.858700  0.308340  1
  C  C4083  1  0.776800  0.141300  0.808340  1
  C  C4084  1  0.723200  0.641300  0.691660  1
  C  C4085  1  0.223200  0.641300  0.808340  1
  C  C4086  1  0.276800  0.141300  0.691660  1
  C  C4087  1  0.223200  0.858700  0.191660  1
  C  C4088  1  0.276800  0.358700  0.308340  1
  C  C4089  1  0.769300  0.401600  0.192460  1
  C  C4090  1  0.730700  0.901600  0.307540  1
  C  C4091  1  0.769300  0.098400  0.807540  1
  C  C4092  1  0.730700  0.598400  0.692460  1
  C  C4093  1  0.230700  0.598400  0.807540  1
  C  C4094  1  0.269300  0.098400  0.692460  1
  C  C4095  1  0.230700  0.901600  0.192460  1
  C  C4096  1  0.269300  0.401600  0.307540  1
  C  C4097  1  0.738300  0.419700  0.180430  1
  C  C4098  1  0.761700  0.919700  0.319570  1
  C  C4099  1  0.738300  0.080300  0.819570  1
  C  C4100  1  0.761700  0.580300  0.680430  1
  C  C4101  1  0.261700  0.580300  0.819570  1
  C  C4102  1  0.238300  0.080300  0.680430  1
  C  C4103  1  0.261700  0.919700  0.180430  1
  C  C4104  1  0.238300  0.419700  0.319570  1
  C  C4105  1  0.714500  0.394200  0.167870  1
  C  C4106  1  0.785500  0.894200  0.332130  1
  C  C4107  1  0.714500  0.105800  0.832130  1
  C  C4108  1  0.785500  0.605800  0.667870  1
  C  C4109  1  0.285500  0.605800  0.832130  1
  C  C4110  1  0.214500  0.105800  0.667870  1
  C  C4111  1  0.285500  0.894200  0.167870  1
  C  C4112  1  0.214500  0.394200  0.332130  1
  C  C4113  1  0.001100  0.046800  0.219980  1
  C  C4114  1  0.498900  0.546800  0.280020  1
  C  C4115  1  0.001100  0.453200  0.780020  1
  C  C4116  1  0.498900  0.953200  0.719980  1
  C  C4117  1  0.998900  0.953200  0.780020  1
  C  C4118  1  0.501100  0.453200  0.719980  1
  C  C4119  1  0.998900  0.546800  0.219980  1
  C  C4120  1  0.501100  0.046800  0.280020  1
  C  C4121  1  0.040600  0.020200  0.225110  1
  C  C4122  1  0.459400  0.520200  0.274890  1
  C  C4123  1  0.040600  0.479800  0.774890  1
  C  C4124  1  0.459400  0.979800  0.725110  1
  C  C4125  1  0.959400  0.979800  0.774890  1
  C  C4126  1  0.540600  0.479800  0.725110  1
  C  C4127  1  0.959400  0.520200  0.225110  1
  C  C4128  1  0.540600  0.020200  0.274890  1
  C  C4129  1  0.028000  0.980500  0.236990  1
  C  C4130  1  0.472000  0.480500  0.263010  1
  C  C4131  1  0.028000  0.519500  0.763010  1
  C  C4132  1  0.472000  0.019500  0.736990  1
  C  C4133  1  0.972000  0.019500  0.763010  1
  C  C4134  1  0.528000  0.519500  0.736990  1
  C  C4135  1  0.972000  0.480500  0.236990  1
  C  C4136  1  0.528000  0.980500  0.263010  1
  C  C4137  1  0.014200  0.089000  0.210350  1
  C  C4138  1  0.485800  0.589000  0.289650  1
  C  C4139  1  0.014200  0.411000  0.789650  1
  C  C4140  1  0.485800  0.911000  0.710350  1
  C  C4141  1  0.985800  0.911000  0.789650  1
  C  C4142  1  0.514200  0.411000  0.710350  1
  C  C4143  1  0.985800  0.589000  0.210350  1
  C  C4144  1  0.514200  0.089000  0.289650  1
  C  C4145  1  0.996500  0.127100  0.216940  1
  C  C4146  1  0.503500  0.627100  0.283060  1
  C  C4147  1  0.996500  0.372900  0.783060  1
  C  C4148  1  0.503500  0.872900  0.716940  1
  C  C4149  1  0.003500  0.872900  0.783060  1
  C  C4150  1  0.496500  0.372900  0.716940  1
  C  C4151  1  0.003500  0.627100  0.216940  1
  C  C4152  1  0.496500  0.127100  0.283060  1
  C  C4153  1  0.009500  0.163900  0.209510  1
  C  C4154  1  0.490500  0.663900  0.290490  1
  C  C4155  1  0.009500  0.336100  0.790490  1
  C  C4156  1  0.490500  0.836100  0.709510  1
  C  C4157  1  0.990500  0.836100  0.790490  1
  C  C4158  1  0.509500  0.336100  0.709510  1
  C  C4159  1  0.990500  0.663900  0.209510  1
  C  C4160  1  0.509500  0.163900  0.290490  1
  C  C4161  1  0.039400  0.165100  0.194760  1
  C  C4162  1  0.460600  0.665100  0.305240  1
  C  C4163  1  0.039400  0.334900  0.805240  1
  C  C4164  1  0.460600  0.834900  0.694760  1
  C  C4165  1  0.960600  0.834900  0.805240  1
  C  C4166  1  0.539400  0.334900  0.694760  1
  C  C4167  1  0.960600  0.665100  0.194760  1
  C  C4168  1  0.539400  0.165100  0.305240  1
  C  C4169  1  0.056500  0.128500  0.186250  1
  C  C4170  1  0.443500  0.628500  0.313750  1
  C  C4171  1  0.056500  0.371500  0.813750  1
  C  C4172  1  0.443500  0.871500  0.686250  1
  C  C4173  1  0.943500  0.871500  0.813750  1
  C  C4174  1  0.556500  0.371500  0.686250  1
  C  C4175  1  0.943500  0.628500  0.186250  1
  C  C4176  1  0.556500  0.128500  0.313750  1
  C  C4177  1  0.042500  0.091300  0.195120  1
  C  C4178  1  0.457500  0.591300  0.304880  1
  C  C4179  1  0.042500  0.408700  0.804880  1
  C  C4180  1  0.457500  0.908700  0.695120  1
  C  C4181  1  0.957500  0.908700  0.804880  1
  C  C4182  1  0.542500  0.408700  0.695120  1
  C  C4183  1  0.957500  0.591300  0.195120  1
  C  C4184  1  0.542500  0.091300  0.304880  1
  C  C4185  1  0.059400  0.222700  0.170910  1
  C  C4186  1  0.440600  0.722700  0.329090  1
  C  C4187  1  0.059400  0.277300  0.829090  1
  C  C4188  1  0.440600  0.777300  0.670910  1
  C  C4189  1  0.940600  0.777300  0.829090  1
  C  C4190  1  0.559400  0.277300  0.670910  1
  C  C4191  1  0.940600  0.722700  0.170910  1
  C  C4192  1  0.559400  0.222700  0.329090  1
  C  C4193  1  0.084100  0.257900  0.170810  1
  C  C4194  1  0.415900  0.757900  0.329190  1
  C  C4195  1  0.084100  0.242100  0.829190  1
  C  C4196  1  0.415900  0.742100  0.670810  1
  C  C4197  1  0.915900  0.742100  0.829190  1
  C  C4198  1  0.584100  0.242100  0.670810  1
  C  C4199  1  0.915900  0.757900  0.170810  1
  C  C4200  1  0.584100  0.257900  0.329190  1
  C  C4201  1  0.090900  0.278200  0.152970  1
  C  C4202  1  0.409100  0.778200  0.347030  1
  C  C4203  1  0.090900  0.221800  0.847030  1
  C  C4204  1  0.409100  0.721800  0.652970  1
  C  C4205  1  0.909100  0.721800  0.847030  1
  C  C4206  1  0.590900  0.221800  0.652970  1
  C  C4207  1  0.909100  0.778200  0.152970  1
  C  C4208  1  0.590900  0.278200  0.347030  1
  C  C4209  1  0.073400  0.263200  0.135390  1
  C  C4210  1  0.426600  0.763200  0.364610  1
  C  C4211  1  0.073400  0.236800  0.864610  1
  C  C4212  1  0.426600  0.736800  0.635390  1
  C  C4213  1  0.926600  0.736800  0.864610  1
  C  C4214  1  0.573400  0.236800  0.635390  1
  C  C4215  1  0.926600  0.763200  0.135390  1
  C  C4216  1  0.573400  0.263200  0.364610  1
  C  C4217  1  0.049100  0.228000  0.135410  1
  C  C4218  1  0.450900  0.728000  0.364590  1
  C  C4219  1  0.049100  0.272000  0.864590  1
  C  C4220  1  0.450900  0.772000  0.635410  1
  C  C4221  1  0.950900  0.772000  0.864590  1
  C  C4222  1  0.549100  0.272000  0.635410  1
  C  C4223  1  0.950900  0.728000  0.135410  1
  C  C4224  1  0.549100  0.228000  0.364590  1
  C  C4225  1  0.041200  0.207900  0.154300  1
  C  C4226  1  0.458800  0.707900  0.345700  1
  C  C4227  1  0.041200  0.292100  0.845700  1
  C  C4228  1  0.458800  0.792100  0.654300  1
  C  C4229  1  0.958800  0.792100  0.845700  1
  C  C4230  1  0.541200  0.292100  0.654300  1
  C  C4231  1  0.958800  0.707900  0.154300  1
  C  C4232  1  0.541200  0.207900  0.345700  1
  C  C4233  1  0.155900  0.317200  0.160270  1
  C  C4234  1  0.344100  0.817200  0.339730  1
  C  C4235  1  0.155900  0.182800  0.839730  1
  C  C4236  1  0.344100  0.682800  0.660270  1
  C  C4237  1  0.844100  0.682800  0.839730  1
  C  C4238  1  0.655900  0.182800  0.660270  1
  C  C4239  1  0.844100  0.817200  0.160270  1
  C  C4240  1  0.655900  0.317200  0.339730  1
  C  C4241  1  0.177100  0.358800  0.157430  1
  C  C4242  1  0.322900  0.858800  0.342570  1
  C  C4243  1  0.177100  0.141200  0.842570  1
  C  C4244  1  0.322900  0.641200  0.657430  1
  C  C4245  1  0.822900  0.641200  0.842570  1
  C  C4246  1  0.677100  0.141200  0.657430  1
  C  C4247  1  0.822900  0.858800  0.157430  1
  C  C4248  1  0.677100  0.358800  0.342570  1
  C  C4249  1  0.206600  0.373300  0.173850  1
  C  C4250  1  0.293400  0.873300  0.326150  1
  C  C4251  1  0.206600  0.126700  0.826150  1
  C  C4252  1  0.293400  0.626700  0.673850  1
  C  C4253  1  0.793400  0.626700  0.826150  1
  C  C4254  1  0.706600  0.126700  0.673850  1
  C  C4255  1  0.793400  0.873300  0.173850  1
  C  C4256  1  0.706600  0.373300  0.326150  1
  C  C4257  1  0.067540  0.323200  0.112600  1
  C  C4258  1  0.432460  0.823200  0.387400  1
  C  C4259  1  0.067540  0.176800  0.887400  1
  C  C4260  1  0.432460  0.676800  0.612600  1
  C  C4261  1  0.932460  0.676800  0.887400  1
  C  C4262  1  0.567540  0.176800  0.612600  1
  C  C4263  1  0.932460  0.823200  0.112600  1
  C  C4264  1  0.567540  0.323200  0.387400  1
  C  C4265  1  0.067200  0.334000  0.090530  1
  C  C4266  1  0.432800  0.834000  0.409470  1
  C  C4267  1  0.067200  0.166000  0.909470  1
  C  C4268  1  0.432800  0.666000  0.590530  1
  C  C4269  1  0.932800  0.666000  0.909470  1
  C  C4270  1  0.567200  0.166000  0.590530  1
  C  C4271  1  0.932800  0.834000  0.090530  1
  C  C4272  1  0.567200  0.334000  0.409470  1
  C  C4273  1  0.080800  0.378700  0.086000  1
  C  C4274  1  0.419200  0.878700  0.414000  1
  C  C4275  1  0.080800  0.121300  0.914000  1
  C  C4276  1  0.419200  0.621300  0.586000  1
  C  C4277  1  0.919200  0.621300  0.914000  1
  C  C4278  1  0.580800  0.121300  0.586000  1
  C  C4279  1  0.919200  0.878700  0.086000  1
  C  C4280  1  0.580800  0.378700  0.414000  1
  C  C4281  1  0.085800  0.128400  0.168780  1
  C  C4282  1  0.414200  0.628400  0.331220  1
  C  C4283  1  0.085800  0.371600  0.831220  1
  C  C4284  1  0.414200  0.871600  0.668780  1
  C  C4285  1  0.914200  0.871600  0.831220  1
  C  C4286  1  0.585800  0.371600  0.668780  1
  C  C4287  1  0.914200  0.628400  0.168780  1
  C  C4288  1  0.585800  0.128400  0.331220  1
  C  C4289  1  0.126600  0.102500  0.171860  1
  C  C4290  1  0.373400  0.602500  0.328140  1
  C  C4291  1  0.126600  0.397500  0.828140  1
  C  C4292  1  0.373400  0.897500  0.671860  1
  C  C4293  1  0.873400  0.897500  0.828140  1
  C  C4294  1  0.626600  0.397500  0.671860  1
  C  C4295  1  0.873400  0.602500  0.171860  1
  C  C4296  1  0.626600  0.102500  0.328140  1
  C  C4297  1  0.160800  0.112700  0.156550  1
  C  C4298  1  0.339200  0.612700  0.343450  1
  C  C4299  1  0.160800  0.387300  0.843450  1
  C  C4300  1  0.339200  0.887300  0.656550  1
  C  C4301  1  0.839200  0.887300  0.843450  1
  C  C4302  1  0.660800  0.387300  0.656550  1
  C  C4303  1  0.839200  0.612700  0.156550  1
  C  C4304  1  0.660800  0.112700  0.343450  1
  C  C4305  1  0.059800  0.114800  0.150300  1
  C  C4306  1  0.440200  0.614800  0.349700  1
  C  C4307  1  0.059800  0.385200  0.849700  1
  C  C4308  1  0.440200  0.885200  0.650300  1
  C  C4309  1  0.940200  0.885200  0.849700  1
  C  C4310  1  0.559800  0.385200  0.650300  1
  C  C4311  1  0.940200  0.614800  0.150300  1
  C  C4312  1  0.559800  0.114800  0.349700  1
  C  C4313  1  0.025700  0.139000  0.143800  1
  C  C4314  1  0.474300  0.639000  0.356200  1
  C  C4315  1  0.025700  0.361000  0.856200  1
  C  C4316  1  0.474300  0.861000  0.643800  1
  C  C4317  1  0.974300  0.861000  0.856200  1
  C  C4318  1  0.525700  0.361000  0.643800  1
  C  C4319  1  0.974300  0.639000  0.143800  1
  C  C4320  1  0.525700  0.139000  0.356200  1
  C  C4321  1  0.998800  0.126200  0.128980  1
  C  C4322  1  0.501200  0.626200  0.371020  1
  C  C4323  1  0.998800  0.373800  0.871020  1
  C  C4324  1  0.501200  0.873800  0.628980  1
  C  C4325  1  0.001200  0.873800  0.871020  1
  C  C4326  1  0.498800  0.373800  0.628980  1
  C  C4327  1  0.001200  0.626200  0.128980  1
  C  C4328  1  0.498800  0.126200  0.371020  1
  C  C4329  1  0.006300  0.088500  0.119450  1
  C  C4330  1  0.493700  0.588500  0.380550  1
  C  C4331  1  0.006300  0.411500  0.880550  1
  C  C4332  1  0.493700  0.911500  0.619450  1
  C  C4333  1  0.993700  0.911500  0.880550  1
  C  C4334  1  0.506300  0.411500  0.619450  1
  C  C4335  1  0.993700  0.588500  0.119450  1
  C  C4336  1  0.506300  0.088500  0.380550  1
  C  C4337  1  0.040100  0.062500  0.124940  1
  C  C4338  1  0.459900  0.562500  0.375060  1
  C  C4339  1  0.040100  0.437500  0.875060  1
  C  C4340  1  0.459900  0.937500  0.624940  1
  C  C4341  1  0.959900  0.937500  0.875060  1
  C  C4342  1  0.540100  0.437500  0.624940  1
  C  C4343  1  0.959900  0.562500  0.124940  1
  C  C4344  1  0.540100  0.062500  0.375060  1
  C  C4345  1  0.067100  0.077200  0.140260  1
  C  C4346  1  0.432900  0.577200  0.359740  1
  C  C4347  1  0.067100  0.422800  0.859740  1
  C  C4348  1  0.432900  0.922800  0.640260  1
  C  C4349  1  0.932900  0.922800  0.859740  1
  C  C4350  1  0.567100  0.422800  0.640260  1
  C  C4351  1  0.932900  0.577200  0.140260  1
  C  C4352  1  0.567100  0.077200  0.359740  1
  C  C4353  1  0.985300  0.072470  0.087230  1
  C  C4354  1  0.514700  0.572470  0.412770  1
  C  C4355  1  0.985300  0.427530  0.912770  1
  C  C4356  1  0.514700  0.927530  0.587230  1
  C  C4357  1  0.014700  0.927530  0.912770  1
  C  C4358  1  0.485300  0.427530  0.587230  1
  C  C4359  1  0.014700  0.572470  0.087230  1
  C  C4360  1  0.485300  0.072470  0.412770  1
  C  C4361  1  0.998300  0.108600  0.077510  1
  C  C4362  1  0.501700  0.608600  0.422490  1
  C  C4363  1  0.998300  0.391400  0.922490  1
  C  C4364  1  0.501700  0.891400  0.577510  1
  C  C4365  1  0.001700  0.891400  0.922490  1
  C  C4366  1  0.498300  0.391400  0.577510  1
  C  C4367  1  0.001700  0.608600  0.077510  1
  C  C4368  1  0.498300  0.108600  0.422490  1
  C  C4369  1  0.008200  0.105940  0.056580  1
  C  C4370  1  0.491800  0.605940  0.443420  1
  C  C4371  1  0.008200  0.394060  0.943420  1
  C  C4372  1  0.491800  0.894060  0.556580  1
  C  C4373  1  0.991800  0.894060  0.943420  1
  C  C4374  1  0.508200  0.394060  0.556580  1
  C  C4375  1  0.991800  0.605940  0.056580  1
  C  C4376  1  0.508200  0.105940  0.443420  1
  C  C4377  1  0.007000  0.067560  0.047020  1
  C  C4378  1  0.493000  0.567560  0.452980  1
  C  C4379  1  0.007000  0.432440  0.952980  1
  C  C4380  1  0.493000  0.932440  0.547020  1
  C  C4381  1  0.993000  0.932440  0.952980  1
  C  C4382  1  0.507000  0.432440  0.547020  1
  C  C4383  1  0.993000  0.567560  0.047020  1
  C  C4384  1  0.507000  0.067560  0.452980  1
  C  C4385  1  0.995300  0.031200  0.057790  1
  C  C4386  1  0.504700  0.531200  0.442210  1
  C  C4387  1  0.995300  0.468800  0.942210  1
  C  C4388  1  0.504700  0.968800  0.557790  1
  C  C4389  1  0.004700  0.968800  0.942210  1
  C  C4390  1  0.495300  0.468800  0.557790  1
  C  C4391  1  0.004700  0.531200  0.057790  1
  C  C4392  1  0.495300  0.031200  0.442210  1
  C  C4393  1  0.985600  0.036100  0.077940  1
  C  C4394  1  0.514400  0.536100  0.422060  1
  C  C4395  1  0.985600  0.463900  0.922060  1
  C  C4396  1  0.514400  0.963900  0.577940  1
  C  C4397  1  0.014400  0.963900  0.922060  1
  C  C4398  1  0.485600  0.463900  0.577940  1
  C  C4399  1  0.014400  0.536100  0.077940  1
  C  C4400  1  0.485600  0.036100  0.422060  1
  C  C4401  1  0.009000  0.182340  0.049360  1
  C  C4402  1  0.491000  0.682340  0.450640  1
  C  C4403  1  0.009000  0.317660  0.950640  1
  C  C4404  1  0.491000  0.817660  0.549360  1
  C  C4405  1  0.991000  0.817660  0.950640  1
  C  C4406  1  0.509000  0.317660  0.549360  1
  C  C4407  1  0.991000  0.682340  0.049360  1
  C  C4408  1  0.509000  0.182340  0.450640  1
  C  C4409  1  0.038100  0.214650  0.039900  1
  C  C4410  1  0.461900  0.714650  0.460100  1
  C  C4411  1  0.038100  0.285350  0.960100  1
  C  C4412  1  0.461900  0.785350  0.539900  1
  C  C4413  1  0.961900  0.785350  0.960100  1
  C  C4414  1  0.538100  0.285350  0.539900  1
  C  C4415  1  0.961900  0.714650  0.039900  1
  C  C4416  1  0.538100  0.214650  0.460100  1
  C  C4417  1  0.025500  0.259480  0.045700  1
  C  C4418  1  0.474500  0.759480  0.454300  1
  C  C4419  1  0.025500  0.240520  0.954300  1
  C  C4420  1  0.474500  0.740520  0.545700  1
  C  C4421  1  0.974500  0.740520  0.954300  1
  C  C4422  1  0.525500  0.240520  0.545700  1
  C  C4423  1  0.974500  0.759480  0.045700  1
  C  C4424  1  0.525500  0.259480  0.454300  1
  C  C4425  1  0.008300  0.099000  0.013700  1
  C  C4426  1  0.491700  0.599000  0.486300  1
  C  C4427  1  0.008300  0.401000  0.986300  1
  C  C4428  1  0.491700  0.901000  0.513700  1
  C  C4429  1  0.991700  0.901000  0.986300  1
  C  C4430  1  0.508300  0.401000  0.513700  1
  C  C4431  1  0.991700  0.599000  0.013700  1
  C  C4432  1  0.508300  0.099000  0.486300  1
  C  C4433  1  0.026200  0.089800  0.992740  1
  C  C4434  1  0.473800  0.589800  0.507260  1
  C  C4435  1  0.026200  0.410200  0.007260  1
  C  C4436  1  0.473800  0.910200  0.492740  1
  C  C4437  1  0.973800  0.910200  0.007260  1
  C  C4438  1  0.526200  0.410200  0.492740  1
  C  C4439  1  0.973800  0.589800  0.992740  1
  C  C4440  1  0.526200  0.089800  0.507260  1
  C  C4441  1  0.992500  0.069100  0.979300  1
  C  C4442  1  0.507500  0.569100  0.520700  1
  C  C4443  1  0.992500  0.430900  0.020700  1
  C  C4444  1  0.507500  0.930900  0.479300  1
  C  C4445  1  0.007500  0.930900  0.020700  1
  C  C4446  1  0.492500  0.430900  0.479300  1
  C  C4447  1  0.007500  0.569100  0.979300  1
  C  C4448  1  0.492500  0.069100  0.520700  1
  C  C4449  1  0.044600  0.019700  0.115280  1
  C  C4450  1  0.455400  0.519700  0.384720  1
  C  C4451  1  0.044600  0.480300  0.884720  1
  C  C4452  1  0.455400  0.980300  0.615280  1
  C  C4453  1  0.955400  0.980300  0.884720  1
  C  C4454  1  0.544600  0.480300  0.615280  1
  C  C4455  1  0.955400  0.519700  0.115280  1
  C  C4456  1  0.544600  0.019700  0.384720  1
  C  C4457  1  0.085600  0.996800  0.120730  1
  C  C4458  1  0.414400  0.496800  0.379270  1
  C  C4459  1  0.085600  0.503200  0.879270  1
  C  C4460  1  0.414400  0.003200  0.620730  1
  C  C4461  1  0.914400  0.003200  0.879270  1
  C  C4462  1  0.585600  0.503200  0.620730  1
  C  C4463  1  0.914400  0.496800  0.120730  1
  C  C4464  1  0.585600  0.996800  0.379270  1
  C  C4465  1  0.089400  0.955100  0.110100  1
  C  C4466  1  0.410600  0.455100  0.389900  1
  C  C4467  1  0.089400  0.544900  0.889900  1
  C  C4468  1  0.410600  0.044900  0.610100  1
  C  C4469  1  0.910600  0.044900  0.889900  1
  C  C4470  1  0.589400  0.544900  0.610100  1
  C  C4471  1  0.910600  0.455100  0.110100  1
  C  C4472  1  0.589400  0.955100  0.389900  1
  C  C4473  1  0.004400  0.995000  0.120790  1
  C  C4474  1  0.495600  0.495000  0.379210  1
  C  C4475  1  0.004400  0.505000  0.879210  1
  C  C4476  1  0.495600  0.005000  0.620790  1
  C  C4477  1  0.995600  0.005000  0.879210  1
  C  C4478  1  0.504400  0.505000  0.620790  1
  C  C4479  1  0.995600  0.495000  0.120790  1
  C  C4480  1  0.504400  0.995000  0.379210  1
  C  C4481  1  0.970100  0.988700  0.107850  1
  C  C4482  1  0.529900  0.488700  0.392150  1
  C  C4483  1  0.970100  0.511300  0.892150  1
  C  C4484  1  0.529900  0.011300  0.607850  1
  C  C4485  1  0.029900  0.011300  0.892150  1
  C  C4486  1  0.470100  0.511300  0.607850  1
  C  C4487  1  0.029900  0.488700  0.107850  1
  C  C4488  1  0.470100  0.988700  0.392150  1
  C  C4489  1  0.935000  0.969500  0.113870  1
  C  C4490  1  0.565000  0.469500  0.386130  1
  C  C4491  1  0.935000  0.530500  0.886130  1
  C  C4492  1  0.565000  0.030500  0.613870  1
  C  C4493  1  0.065000  0.030500  0.886130  1
  C  C4494  1  0.435000  0.530500  0.613870  1
  C  C4495  1  0.065000  0.469500  0.113870  1
  C  C4496  1  0.435000  0.969500  0.386130  1
  C  C4497  1  0.931400  0.955000  0.133480  1
  C  C4498  1  0.568600  0.455000  0.366520  1
  C  C4499  1  0.931400  0.545000  0.866520  1
  C  C4500  1  0.568600  0.045000  0.633480  1
  C  C4501  1  0.068600  0.045000  0.866520  1
  C  C4502  1  0.431400  0.545000  0.633480  1
  C  C4503  1  0.068600  0.455000  0.133480  1
  C  C4504  1  0.431400  0.955000  0.366520  1
  C  C4505  1  0.964300  0.959200  0.146640  1
  C  C4506  1  0.535700  0.459200  0.353360  1
  C  C4507  1  0.964300  0.540800  0.853360  1
  C  C4508  1  0.535700  0.040800  0.646640  1
  C  C4509  1  0.035700  0.040800  0.853360  1
  C  C4510  1  0.464300  0.540800  0.646640  1
  C  C4511  1  0.035700  0.459200  0.146640  1
  C  C4512  1  0.464300  0.959200  0.353360  1
  C  C4513  1  0.999600  0.979800  0.139980  1
  C  C4514  1  0.500400  0.479800  0.360020  1
  C  C4515  1  0.999600  0.520200  0.860020  1
  C  C4516  1  0.500400  0.020200  0.639980  1
  C  C4517  1  0.000400  0.020200  0.860020  1
  C  C4518  1  0.499600  0.520200  0.639980  1
  C  C4519  1  0.000400  0.479800  0.139980  1
  C  C4520  1  0.499600  0.979800  0.360020  1
  C  C4521  1  0.859840  0.960700  0.144680  1
  C  C4522  1  0.640160  0.460700  0.355320  1
  C  C4523  1  0.859840  0.539300  0.855320  1
  C  C4524  1  0.640160  0.039300  0.644680  1
  C  C4525  1  0.140160  0.039300  0.855320  1
  C  C4526  1  0.359840  0.539300  0.644680  1
  C  C4527  1  0.140160  0.460700  0.144680  1
  C  C4528  1  0.359840  0.960700  0.355320  1
  C  C4529  1  0.834080  0.975850  0.129440  1
  C  C4530  1  0.665920  0.475850  0.370560  1
  C  C4531  1  0.834080  0.524150  0.870560  1
  C  C4532  1  0.665920  0.024150  0.629440  1
  C  C4533  1  0.165920  0.024150  0.870560  1
  C  C4534  1  0.334080  0.524150  0.629440  1
  C  C4535  1  0.165920  0.475850  0.129440  1
  C  C4536  1  0.334080  0.975850  0.370560  1
  C  C4537  1  0.797300  0.999760  0.135260  1
  C  C4538  1  0.702700  0.499760  0.364740  1
  C  C4539  1  0.797300  0.500240  0.864740  1
  C  C4540  1  0.702700  0.000240  0.635260  1
  C  C4541  1  0.202700  0.000240  0.864740  1
  C  C4542  1  0.297300  0.500240  0.635260  1
  C  C4543  1  0.202700  0.499760  0.135260  1
  C  C4544  1  0.297300  0.999760  0.364740  1
  C  C4545  1  0.787730  0.006810  0.155200  1
  C  C4546  1  0.712270  0.506810  0.344800  1
  C  C4547  1  0.787730  0.493190  0.844800  1
  C  C4548  1  0.712270  0.993190  0.655200  1
  C  C4549  1  0.212270  0.993190  0.844800  1
  C  C4550  1  0.287730  0.493190  0.655200  1
  C  C4551  1  0.212270  0.506810  0.155200  1
  C  C4552  1  0.287730  0.006810  0.344800  1
  C  C4553  1  0.815590  0.991150  0.170180  1
  C  C4554  1  0.684410  0.491150  0.329820  1
  C  C4555  1  0.815590  0.508850  0.829820  1
  C  C4556  1  0.684410  0.008850  0.670180  1
  C  C4557  1  0.184410  0.008850  0.829820  1
  C  C4558  1  0.315590  0.508850  0.670180  1
  C  C4559  1  0.184410  0.491150  0.170180  1
  C  C4560  1  0.315590  0.991150  0.329820  1
  C  C4561  1  0.850970  0.968900  0.163550  1
  C  C4562  1  0.649030  0.468900  0.336450  1
  C  C4563  1  0.850970  0.531100  0.836450  1
  C  C4564  1  0.649030  0.031100  0.663550  1
  C  C4565  1  0.149030  0.031100  0.836450  1
  C  C4566  1  0.350970  0.531100  0.663550  1
  C  C4567  1  0.149030  0.468900  0.163550  1
  C  C4568  1  0.350970  0.968900  0.336450  1
  C  C4569  1  0.731910  0.008160  0.115570  1
  C  C4570  1  0.768090  0.508160  0.384430  1
  C  C4571  1  0.731910  0.491840  0.884430  1
  C  C4572  1  0.768090  0.991840  0.615570  1
  C  C4573  1  0.268090  0.991840  0.884430  1
  C  C4574  1  0.231910  0.491840  0.615570  1
  C  C4575  1  0.268090  0.508160  0.115570  1
  C  C4576  1  0.231910  0.008160  0.384430  1
  C  C4577  1  0.712770  0.031010  0.097890  1
  C  C4578  1  0.787230  0.531010  0.402110  1
  C  C4579  1  0.712770  0.468990  0.902110  1
  C  C4580  1  0.787230  0.968990  0.597890  1
  C  C4581  1  0.287230  0.968990  0.902110  1
  C  C4582  1  0.212770  0.468990  0.597890  1
  C  C4583  1  0.287230  0.531010  0.097890  1
  C  C4584  1  0.212770  0.031010  0.402110  1
  C  C4585  1  0.690190  0.071700  0.104100  1
  C  C4586  1  0.809810  0.571700  0.395900  1
  C  C4587  1  0.690190  0.428300  0.895900  1
  C  C4588  1  0.809810  0.928300  0.604100  1
  C  C4589  1  0.309810  0.928300  0.895900  1
  C  C4590  1  0.190190  0.428300  0.604100  1
  C  C4591  1  0.309810  0.571700  0.104100  1
  C  C4592  1  0.190190  0.071700  0.395900  1
  C  C4593  1  0.749140  0.061050  0.172840  1
  C  C4594  1  0.750860  0.561050  0.327160  1
  C  C4595  1  0.749140  0.438950  0.827160  1
  C  C4596  1  0.750860  0.938950  0.672840  1
  C  C4597  1  0.250860  0.938950  0.827160  1
  C  C4598  1  0.249140  0.438950  0.672840  1
  C  C4599  1  0.250860  0.561050  0.172840  1
  C  C4600  1  0.249140  0.061050  0.327160  1
  C  C4601  1  0.705200  0.081750  0.174290  1
  C  C4602  1  0.794800  0.581750  0.325710  1
  C  C4603  1  0.705200  0.418250  0.825710  1
  C  C4604  1  0.794800  0.918250  0.674290  1
  C  C4605  1  0.294800  0.918250  0.825710  1
  C  C4606  1  0.205200  0.418250  0.674290  1
  C  C4607  1  0.294800  0.581750  0.174290  1
  C  C4608  1  0.205200  0.081750  0.325710  1
  C  C4609  1  0.688170  0.082160  0.195870  1
  C  C4610  1  0.811830  0.582160  0.304130  1
  C  C4611  1  0.688170  0.417840  0.804130  1
  C  C4612  1  0.811830  0.917840  0.695870  1
  C  C4613  1  0.311830  0.917840  0.804130  1
  C  C4614  1  0.188170  0.417840  0.695870  1
  C  C4615  1  0.311830  0.582160  0.195870  1
  C  C4616  1  0.188170  0.082160  0.304130  1
  C  C4617  1  0.962300  0.938800  0.167050  1
  C  C4618  1  0.537700  0.438800  0.332950  1
  C  C4619  1  0.962300  0.561200  0.832950  1
  C  C4620  1  0.537700  0.061200  0.667050  1
  C  C4621  1  0.037700  0.061200  0.832950  1
  C  C4622  1  0.462300  0.561200  0.667050  1
  C  C4623  1  0.037700  0.438800  0.167050  1
  C  C4624  1  0.462300  0.938800  0.332950  1
  C  C4625  1  0.004600  0.914400  0.171600  1
  C  C4626  1  0.495400  0.414400  0.328400  1
  C  C4627  1  0.004600  0.585600  0.828400  1
  C  C4628  1  0.495400  0.085600  0.671600  1
  C  C4629  1  0.995400  0.085600  0.828400  1
  C  C4630  1  0.504600  0.585600  0.671600  1
  C  C4631  1  0.995400  0.414400  0.171600  1
  C  C4632  1  0.504600  0.914400  0.328400  1
  C  C4633  1  0.014000  0.879400  0.157240  1
  C  C4634  1  0.486000  0.379400  0.342760  1
  C  C4635  1  0.014000  0.620600  0.842760  1
  C  C4636  1  0.486000  0.120600  0.657240  1
  C  C4637  1  0.986000  0.120600  0.842760  1
  C  C4638  1  0.514000  0.620600  0.657240  1
  C  C4639  1  0.986000  0.379400  0.157240  1
  C  C4640  1  0.514000  0.879400  0.342760  1
  C  C4641  1  0.949900  0.969400  0.182910  1
  C  C4642  1  0.550100  0.469400  0.317090  1
  C  C4643  1  0.949900  0.530600  0.817090  1
  C  C4644  1  0.550100  0.030600  0.682910  1
  C  C4645  1  0.050100  0.030600  0.817090  1
  C  C4646  1  0.449900  0.530600  0.682910  1
  C  C4647  1  0.050100  0.469400  0.182910  1
  C  C4648  1  0.449900  0.969400  0.317090  1
  C  C4649  1  0.907400  0.976000  0.187850  1
  C  C4650  1  0.592600  0.476000  0.312150  1
  C  C4651  1  0.907400  0.524000  0.812150  1
  C  C4652  1  0.592600  0.024000  0.687850  1
  C  C4653  1  0.092600  0.024000  0.812150  1
  C  C4654  1  0.407400  0.524000  0.687850  1
  C  C4655  1  0.092600  0.476000  0.187850  1
  C  C4656  1  0.407400  0.976000  0.312150  1
  C  C4657  1  0.895400  0.005200  0.202220  1
  C  C4658  1  0.604600  0.505200  0.297780  1
  C  C4659  1  0.895400  0.494800  0.797780  1
  C  C4660  1  0.604600  0.994800  0.702220  1
  C  C4661  1  0.104600  0.994800  0.797780  1
  C  C4662  1  0.395400  0.494800  0.702220  1
  C  C4663  1  0.104600  0.505200  0.202220  1
  C  C4664  1  0.395400  0.005200  0.297780  1
  C  C4665  1  0.926100  0.028800  0.210800  1
  C  C4666  1  0.573900  0.528800  0.289200  1
  C  C4667  1  0.926100  0.471200  0.789200  1
  C  C4668  1  0.573900  0.971200  0.710800  1
  C  C4669  1  0.073900  0.971200  0.789200  1
  C  C4670  1  0.426100  0.471200  0.710800  1
  C  C4671  1  0.073900  0.528800  0.210800  1
  C  C4672  1  0.426100  0.028800  0.289200  1
  C  C4673  1  0.968100  0.023300  0.207570  1
  C  C4674  1  0.531900  0.523300  0.292430  1
  C  C4675  1  0.968100  0.476700  0.792430  1
  C  C4676  1  0.531900  0.976700  0.707570  1
  C  C4677  1  0.031900  0.976700  0.792430  1
  C  C4678  1  0.468100  0.476700  0.707570  1
  C  C4679  1  0.031900  0.523300  0.207570  1
  C  C4680  1  0.468100  0.023300  0.292430  1
  C  C4681  1  0.980600  0.994300  0.193380  1
  C  C4682  1  0.519400  0.494300  0.306620  1
  C  C4683  1  0.980600  0.505700  0.806620  1
  C  C4684  1  0.519400  0.005700  0.693380  1
  C  C4685  1  0.019400  0.005700  0.806620  1
  C  C4686  1  0.480600  0.505700  0.693380  1
  C  C4687  1  0.019400  0.494300  0.193380  1
  C  C4688  1  0.480600  0.994300  0.306620  1
  C  C4689  1  0.871400  0.437000  0.178700  1
  C  C4690  1  0.628600  0.937000  0.321300  1
  C  C4691  1  0.871400  0.063000  0.821300  1
  C  C4692  1  0.628600  0.563000  0.678700  1
  C  C4693  1  0.128600  0.563000  0.821300  1
  C  C4694  1  0.371400  0.063000  0.678700  1
  C  C4695  1  0.128600  0.937000  0.178700  1
  C  C4696  1  0.371400  0.437000  0.321300  1
  C  C4697  1  0.861300  0.416300  0.160750  1
  C  C4698  1  0.638700  0.916300  0.339250  1
  C  C4699  1  0.861300  0.083700  0.839250  1
  C  C4700  1  0.638700  0.583700  0.660750  1
  C  C4701  1  0.138700  0.583700  0.839250  1
  C  C4702  1  0.361300  0.083700  0.660750  1
  C  C4703  1  0.138700  0.916300  0.160750  1
  C  C4704  1  0.361300  0.416300  0.339250  1
  C  C4705  1  0.863700  0.372500  0.161660  1
  C  C4706  1  0.636300  0.872500  0.338340  1
  C  C4707  1  0.863700  0.127500  0.838340  1
  C  C4708  1  0.636300  0.627500  0.661660  1
  C  C4709  1  0.136300  0.627500  0.838340  1
  C  C4710  1  0.363700  0.127500  0.661660  1
  C  C4711  1  0.136300  0.872500  0.161660  1
  C  C4712  1  0.363700  0.372500  0.338340  1
  C  C4713  1  0.878100  0.352100  0.178480  1
  C  C4714  1  0.621900  0.852100  0.321520  1
  C  C4715  1  0.878100  0.147900  0.821520  1
  C  C4716  1  0.621900  0.647900  0.678480  1
  C  C4717  1  0.121900  0.647900  0.821520  1
  C  C4718  1  0.378100  0.147900  0.678480  1
  C  C4719  1  0.121900  0.852100  0.178480  1
  C  C4720  1  0.378100  0.352100  0.321520  1
  C  C4721  1  0.888600  0.374000  0.195680  1
  C  C4722  1  0.611400  0.874000  0.304320  1
  C  C4723  1  0.888600  0.126000  0.804320  1
  C  C4724  1  0.611400  0.626000  0.695680  1
  C  C4725  1  0.111400  0.626000  0.804320  1
  C  C4726  1  0.388600  0.126000  0.695680  1
  C  C4727  1  0.111400  0.874000  0.195680  1
  C  C4728  1  0.388600  0.374000  0.304320  1
  C  C4729  1  0.883500  0.417000  0.195230  1
  C  C4730  1  0.616500  0.917000  0.304770  1
  C  C4731  1  0.883500  0.083000  0.804770  1
  C  C4732  1  0.616500  0.583000  0.695230  1
  C  C4733  1  0.116500  0.583000  0.804770  1
  C  C4734  1  0.383500  0.083000  0.695230  1
  C  C4735  1  0.116500  0.917000  0.195230  1
  C  C4736  1  0.383500  0.417000  0.304770  1
  C  C4737  1  0.863000  0.305200  0.156890  1
  C  C4738  1  0.637000  0.805200  0.343110  1
  C  C4739  1  0.863000  0.194800  0.843110  1
  C  C4740  1  0.637000  0.694800  0.656890  1
  C  C4741  1  0.137000  0.694800  0.843110  1
  C  C4742  1  0.363000  0.194800  0.656890  1
  C  C4743  1  0.137000  0.805200  0.156890  1
  C  C4744  1  0.363000  0.305200  0.343110  1
  C  C4745  1  0.857300  0.264900  0.146780  1
  C  C4746  1  0.642700  0.764900  0.353220  1
  C  C4747  1  0.857300  0.235100  0.853220  1
  C  C4748  1  0.642700  0.735100  0.646780  1
  C  C4749  1  0.142700  0.735100  0.853220  1
  C  C4750  1  0.357300  0.235100  0.646780  1
  C  C4751  1  0.142700  0.764900  0.146780  1
  C  C4752  1  0.357300  0.264900  0.353220  1
  C  C4753  1  0.829100  0.260000  0.130980  1
  C  C4754  1  0.670900  0.760000  0.369020  1
  C  C4755  1  0.829100  0.240000  0.869020  1
  C  C4756  1  0.670900  0.740000  0.630980  1
  C  C4757  1  0.170900  0.740000  0.869020  1
  C  C4758  1  0.329100  0.240000  0.630980  1
  C  C4759  1  0.170900  0.760000  0.130980  1
  C  C4760  1  0.329100  0.260000  0.369020  1
  C  C4761  1  0.825000  0.221500  0.122070  1
  C  C4762  1  0.675000  0.721500  0.377930  1
  C  C4763  1  0.825000  0.278500  0.877930  1
  C  C4764  1  0.675000  0.778500  0.622070  1
  C  C4765  1  0.175000  0.778500  0.877930  1
  C  C4766  1  0.325000  0.278500  0.622070  1
  C  C4767  1  0.175000  0.721500  0.122070  1
  C  C4768  1  0.325000  0.221500  0.377930  1
  C  C4769  1  0.874700  0.191800  0.144750  1
  C  C4770  1  0.625300  0.691800  0.355250  1
  C  C4771  1  0.874700  0.308200  0.855250  1
  C  C4772  1  0.625300  0.808200  0.644750  1
  C  C4773  1  0.125300  0.808200  0.855250  1
  C  C4774  1  0.374700  0.308200  0.644750  1
  C  C4775  1  0.125300  0.691800  0.144750  1
  C  C4776  1  0.374700  0.191800  0.355250  1
  C  C4777  1  0.879000  0.230500  0.154120  1
  C  C4778  1  0.621000  0.730500  0.345880  1
  C  C4779  1  0.879000  0.269500  0.845880  1
  C  C4780  1  0.621000  0.769500  0.654120  1
  C  C4781  1  0.121000  0.769500  0.845880  1
  C  C4782  1  0.379000  0.269500  0.654120  1
  C  C4783  1  0.121000  0.730500  0.154120  1
  C  C4784  1  0.379000  0.230500  0.345880  1
  C  C4785  1  0.797200  0.209600  0.105060  1
  C  C4786  1  0.702800  0.709600  0.394940  1
  C  C4787  1  0.797200  0.290400  0.894940  1
  C  C4788  1  0.702800  0.790400  0.605060  1
  C  C4789  1  0.202800  0.790400  0.894940  1
  C  C4790  1  0.297200  0.290400  0.605060  1
  C  C4791  1  0.202800  0.709600  0.105060  1
  C  C4792  1  0.297200  0.209600  0.394940  1
  C  C4793  1  0.767200  0.235700  0.097340  1
  C  C4794  1  0.732800  0.735700  0.402660  1
  C  C4795  1  0.767200  0.264300  0.902660  1
  C  C4796  1  0.732800  0.764300  0.597340  1
  C  C4797  1  0.232800  0.764300  0.902660  1
  C  C4798  1  0.267200  0.264300  0.597340  1
  C  C4799  1  0.232800  0.735700  0.097340  1
  C  C4800  1  0.267200  0.235700  0.402660  1
  C  C4801  1  0.740100  0.220100  0.082880  1
  C  C4802  1  0.759900  0.720100  0.417120  1
  C  C4803  1  0.740100  0.279900  0.917120  1
  C  C4804  1  0.759900  0.779900  0.582880  1
  C  C4805  1  0.259900  0.779900  0.917120  1
  C  C4806  1  0.240100  0.279900  0.582880  1
  C  C4807  1  0.259900  0.720100  0.082880  1
  C  C4808  1  0.240100  0.220100  0.417120  1
  C  C4809  1  0.744600  0.179900  0.077010  1
  C  C4810  1  0.755400  0.679900  0.422990  1
  C  C4811  1  0.744600  0.320100  0.922990  1
  C  C4812  1  0.755400  0.820100  0.577010  1
  C  C4813  1  0.255400  0.820100  0.922990  1
  C  C4814  1  0.244600  0.320100  0.577010  1
  C  C4815  1  0.255400  0.679900  0.077010  1
  C  C4816  1  0.244600  0.179900  0.422990  1
  C  C4817  1  0.776500  0.155400  0.084470  1
  C  C4818  1  0.723500  0.655400  0.415530  1
  C  C4819  1  0.776500  0.344600  0.915530  1
  C  C4820  1  0.723500  0.844600  0.584470  1
  C  C4821  1  0.223500  0.844600  0.915530  1
  C  C4822  1  0.276500  0.344600  0.584470  1
  C  C4823  1  0.223500  0.655400  0.084470  1
  C  C4824  1  0.276500  0.155400  0.415530  1
  C  C4825  1  0.895200  0.152600  0.150310  1
  C  C4826  1  0.604800  0.652600  0.349690  1
  C  C4827  1  0.895200  0.347400  0.849690  1
  C  C4828  1  0.604800  0.847400  0.650310  1
  C  C4829  1  0.104800  0.847400  0.849690  1
  C  C4830  1  0.395200  0.347400  0.650310  1
  C  C4831  1  0.104800  0.652600  0.150310  1
  C  C4832  1  0.395200  0.152600  0.349690  1
  C  C4833  1  0.923000  0.147000  0.165650  1
  C  C4834  1  0.577000  0.647000  0.334350  1
  C  C4835  1  0.923000  0.353000  0.834350  1
  C  C4836  1  0.577000  0.853000  0.665650  1
  C  C4837  1  0.077000  0.853000  0.834350  1
  C  C4838  1  0.423000  0.353000  0.665650  1
  C  C4839  1  0.077000  0.647000  0.165650  1
  C  C4840  1  0.423000  0.147000  0.334350  1
  C  C4841  1  0.939000  0.108100  0.169840  1
  C  C4842  1  0.561000  0.608100  0.330160  1
  C  C4843  1  0.939000  0.391900  0.830160  1
  C  C4844  1  0.561000  0.891900  0.669840  1
  C  C4845  1  0.061000  0.891900  0.830160  1
  C  C4846  1  0.439000  0.391900  0.669840  1
  C  C4847  1  0.061000  0.608100  0.169840  1
  C  C4848  1  0.439000  0.108100  0.330160  1
  C  C4849  1  0.929000  0.075100  0.157650  1
  C  C4850  1  0.571000  0.575100  0.342350  1
  C  C4851  1  0.929000  0.424900  0.842350  1
  C  C4852  1  0.571000  0.924900  0.657650  1
  C  C4853  1  0.071000  0.924900  0.842350  1
  C  C4854  1  0.429000  0.424900  0.657650  1
  C  C4855  1  0.071000  0.575100  0.157650  1
  C  C4856  1  0.429000  0.075100  0.342350  1
  C  C4857  1  0.901400  0.082400  0.141740  1
  C  C4858  1  0.598600  0.582400  0.358260  1
  C  C4859  1  0.901400  0.417600  0.858260  1
  C  C4860  1  0.598600  0.917600  0.641740  1
  C  C4861  1  0.098600  0.917600  0.858260  1
  C  C4862  1  0.401400  0.417600  0.641740  1
  C  C4863  1  0.098600  0.582400  0.141740  1
  C  C4864  1  0.401400  0.082400  0.358260  1
  C  C4865  1  0.833900  0.513300  0.214270  1
  C  C4866  1  0.666100  0.013300  0.285730  1
  C  C4867  1  0.833900  0.986700  0.785730  1
  C  C4868  1  0.666100  0.486700  0.714270  1
  C  C4869  1  0.166100  0.486700  0.785730  1
  C  C4870  1  0.333900  0.986700  0.714270  1
  C  C4871  1  0.166100  0.013300  0.214270  1
  C  C4872  1  0.333900  0.513300  0.285730  1
  C  C4873  1  0.823200  0.550900  0.226750  1
  C  C4874  1  0.676800  0.050900  0.273250  1
  C  C4875  1  0.823200  0.949100  0.773250  1
  C  C4876  1  0.676800  0.449100  0.726750  1
  C  C4877  1  0.176800  0.449100  0.773250  1
  C  C4878  1  0.323200  0.949100  0.726750  1
  C  C4879  1  0.176800  0.050900  0.226750  1
  C  C4880  1  0.323200  0.550900  0.273250  1
  C  C4881  1  0.850400  0.555100  0.245660  1
  C  C4882  1  0.649600  0.055100  0.254340  1
  C  C4883  1  0.850400  0.944900  0.754340  1
  C  C4884  1  0.649600  0.444900  0.745660  1
  C  C4885  1  0.149600  0.444900  0.754340  1
  C  C4886  1  0.350400  0.944900  0.745660  1
  C  C4887  1  0.149600  0.055100  0.245660  1
  C  C4888  1  0.350400  0.555100  0.254340  1
  C  C4889  1  0.826200  0.472200  0.225880  1
  C  C4890  1  0.673800  0.972200  0.274120  1
  C  C4891  1  0.826200  0.027800  0.774120  1
  C  C4892  1  0.673800  0.527800  0.725880  1
  C  C4893  1  0.173800  0.527800  0.774120  1
  C  C4894  1  0.326200  0.027800  0.725880  1
  C  C4895  1  0.173800  0.972200  0.225880  1
  C  C4896  1  0.326200  0.472200  0.274120  1
  C  C4897  1  0.854800  0.439400  0.225600  1
  C  C4898  1  0.645200  0.939400  0.274400  1
  C  C4899  1  0.854800  0.060600  0.774400  1
  C  C4900  1  0.645200  0.560600  0.725600  1
  C  C4901  1  0.145200  0.560600  0.774400  1
  C  C4902  1  0.354800  0.060600  0.725600  1
  C  C4903  1  0.145200  0.939400  0.225600  1
  C  C4904  1  0.354800  0.439400  0.274400  1
  C  C4905  1  0.848200  0.404400  0.237750  1
  C  C4906  1  0.651800  0.904400  0.262250  1
  C  C4907  1  0.848200  0.095600  0.762250  1
  C  C4908  1  0.651800  0.595600  0.737750  1
  C  C4909  1  0.151800  0.595600  0.762250  1
  C  C4910  1  0.348200  0.095600  0.737750  1
  C  C4911  1  0.151800  0.904400  0.237750  1
  C  C4912  1  0.348200  0.404400  0.262250  1
  C  C4913  1  0.813100  0.402800  0.249640  1
  C  C4914  1  0.686900  0.902800  0.250360  1
  C  C4915  1  0.813100  0.097200  0.750360  1
  C  C4916  1  0.686900  0.597200  0.749640  1
  C  C4917  1  0.186900  0.597200  0.750360  1
  C  C4918  1  0.313100  0.097200  0.749640  1
  C  C4919  1  0.186900  0.902800  0.249640  1
  C  C4920  1  0.313100  0.402800  0.250360  1
  C  C4921  1  0.782290  0.433500  0.249680  1
  C  C4922  1  0.717710  0.933500  0.250320  1
  C  C4923  1  0.782290  0.066500  0.750320  1
  C  C4924  1  0.717710  0.566500  0.749680  1
  C  C4925  1  0.217710  0.566500  0.750320  1
  C  C4926  1  0.282290  0.066500  0.749680  1
  C  C4927  1  0.217710  0.933500  0.249680  1
  C  C4928  1  0.282290  0.433500  0.250320  1
  C  C4929  1  0.790170  0.467100  0.237410  1
  C  C4930  1  0.709830  0.967100  0.262590  1
  C  C4931  1  0.790170  0.032900  0.762590  1
  C  C4932  1  0.709830  0.532900  0.737410  1
  C  C4933  1  0.209830  0.532900  0.762590  1
  C  C4934  1  0.290170  0.032900  0.737410  1
  C  C4935  1  0.209830  0.967100  0.237410  1
  C  C4936  1  0.290170  0.467100  0.262590  1
  C  C4937  1  0.780000  0.342300  0.266950  1
  C  C4938  1  0.720000  0.842300  0.233050  1
  C  C4939  1  0.780000  0.157700  0.733050  1
  C  C4940  1  0.720000  0.657700  0.766950  1
  C  C4941  1  0.220000  0.657700  0.733050  1
  C  C4942  1  0.280000  0.157700  0.766950  1
  C  C4943  1  0.220000  0.842300  0.266950  1
  C  C4944  1  0.280000  0.342300  0.233050  1
  C  C4945  1  0.781500  0.320400  0.284840  1
  C  C4946  1  0.718500  0.820400  0.215160  1
  C  C4947  1  0.781500  0.179600  0.715160  1
  C  C4948  1  0.718500  0.679600  0.784840  1
  C  C4949  1  0.218500  0.679600  0.715160  1
  C  C4950  1  0.281500  0.179600  0.784840  1
  C  C4951  1  0.218500  0.820400  0.284840  1
  C  C4952  1  0.281500  0.320400  0.215160  1
  C  C4953  1  0.749800  0.294100  0.290180  1
  C  C4954  1  0.750200  0.794100  0.209820  1
  C  C4955  1  0.749800  0.205900  0.709820  1
  C  C4956  1  0.750200  0.705900  0.790180  1
  C  C4957  1  0.250200  0.705900  0.709820  1
  C  C4958  1  0.249800  0.205900  0.790180  1
  C  C4959  1  0.250200  0.794100  0.290180  1
  C  C4960  1  0.249800  0.294100  0.209820  1
  C  C4961  1  0.715800  0.288000  0.277930  1
  C  C4962  1  0.784200  0.788000  0.222070  1
  C  C4963  1  0.715800  0.212000  0.722070  1
  C  C4964  1  0.784200  0.712000  0.777930  1
  C  C4965  1  0.284200  0.712000  0.722070  1
  C  C4966  1  0.215800  0.212000  0.777930  1
  C  C4967  1  0.284200  0.788000  0.277930  1
  C  C4968  1  0.215800  0.288000  0.222070  1
  C  C4969  1  0.713800  0.309200  0.259570  1
  C  C4970  1  0.786200  0.809200  0.240430  1
  C  C4971  1  0.713800  0.190800  0.740430  1
  C  C4972  1  0.786200  0.690800  0.759570  1
  C  C4973  1  0.286200  0.690800  0.740430  1
  C  C4974  1  0.213800  0.190800  0.759570  1
  C  C4975  1  0.286200  0.809200  0.259570  1
  C  C4976  1  0.213800  0.309200  0.240430  1
  C  C4977  1  0.745400  0.335700  0.254420  1
  C  C4978  1  0.754600  0.835700  0.245580  1
  C  C4979  1  0.745400  0.164300  0.745580  1
  C  C4980  1  0.754600  0.664300  0.754420  1
  C  C4981  1  0.254600  0.664300  0.745580  1
  C  C4982  1  0.245400  0.164300  0.754420  1
  C  C4983  1  0.254600  0.835700  0.254420  1
  C  C4984  1  0.245400  0.335700  0.245580  1
  C  C4985  1  0.782600  0.259400  0.319390  1
  C  C4986  1  0.717400  0.759400  0.180610  1
  C  C4987  1  0.782600  0.240600  0.680610  1
  C  C4988  1  0.717400  0.740600  0.819390  1
  C  C4989  1  0.217400  0.740600  0.680610  1
  C  C4990  1  0.282600  0.240600  0.819390  1
  C  C4991  1  0.217400  0.759400  0.319390  1
  C  C4992  1  0.282600  0.259400  0.180610  1
  C  C4993  1  0.769800  0.242200  0.339640  1
  C  C4994  1  0.730200  0.742200  0.160360  1
  C  C4995  1  0.769800  0.257800  0.660360  1
  C  C4996  1  0.730200  0.757800  0.839640  1
  C  C4997  1  0.230200  0.757800  0.660360  1
  C  C4998  1  0.269800  0.257800  0.839640  1
  C  C4999  1  0.230200  0.742200  0.339640  1
  C  C5000  1  0.269800  0.242200  0.160360  1
  C  C5001  1  0.806200  0.236300  0.354190  1
  C  C5002  1  0.693800  0.736300  0.145810  1
  C  C5003  1  0.806200  0.263700  0.645810  1
  C  C5004  1  0.693800  0.763700  0.854190  1
  C  C5005  1  0.193800  0.763700  0.645810  1
  C  C5006  1  0.306200  0.263700  0.854190  1
  C  C5007  1  0.193800  0.736300  0.354190  1
  C  C5008  1  0.306200  0.236300  0.145810  1
  C  C5009  1  0.685000  0.219000  0.283610  1
  C  C5010  1  0.815000  0.719000  0.216390  1
  C  C5011  1  0.685000  0.281000  0.716390  1
  C  C5012  1  0.815000  0.781000  0.783610  1
  C  C5013  1  0.315000  0.781000  0.716390  1
  C  C5014  1  0.185000  0.281000  0.783610  1
  C  C5015  1  0.315000  0.719000  0.283610  1
  C  C5016  1  0.185000  0.219000  0.216390  1
  C  C5017  1  0.643400  0.195800  0.285750  1
  C  C5018  1  0.856600  0.695800  0.214250  1
  C  C5019  1  0.643400  0.304200  0.714250  1
  C  C5020  1  0.856600  0.804200  0.785750  1
  C  C5021  1  0.356600  0.804200  0.714250  1
  C  C5022  1  0.143400  0.304200  0.785750  1
  C  C5023  1  0.356600  0.695800  0.285750  1
  C  C5024  1  0.143400  0.195800  0.214250  1
  C  C5025  1  0.623500  0.180600  0.266500  1
  C  C5026  1  0.876500  0.680600  0.233500  1
  C  C5027  1  0.623500  0.319400  0.733500  1
  C  C5028  1  0.876500  0.819400  0.766500  1
  C  C5029  1  0.376500  0.819400  0.733500  1
  C  C5030  1  0.123500  0.319400  0.766500  1
  C  C5031  1  0.376500  0.680600  0.266500  1
  C  C5032  1  0.123500  0.180600  0.233500  1
  C  C5033  1  0.739600  0.430900  0.259960  1
  C  C5034  1  0.760400  0.930900  0.240040  1
  C  C5035  1  0.739600  0.069100  0.740040  1
  C  C5036  1  0.760400  0.569100  0.759960  1
  C  C5037  1  0.260400  0.569100  0.740040  1
  C  C5038  1  0.239600  0.069100  0.759960  1
  C  C5039  1  0.260400  0.930900  0.259960  1
  C  C5040  1  0.239600  0.430900  0.240040  1
  C  C5041  1  0.729000  0.469500  0.273150  1
  C  C5042  1  0.771000  0.969500  0.226850  1
  C  C5043  1  0.729000  0.030500  0.726850  1
  C  C5044  1  0.771000  0.530500  0.773150  1
  C  C5045  1  0.271000  0.530500  0.726850  1
  C  C5046  1  0.229000  0.030500  0.773150  1
  C  C5047  1  0.271000  0.969500  0.273150  1
  C  C5048  1  0.229000  0.469500  0.226850  1
  C  C5049  1  0.762800  0.475500  0.289320  1
  C  C5050  1  0.737200  0.975500  0.210680  1
  C  C5051  1  0.762800  0.024500  0.710680  1
  C  C5052  1  0.737200  0.524500  0.789320  1
  C  C5053  1  0.237200  0.524500  0.710680  1
  C  C5054  1  0.262800  0.024500  0.789320  1
  C  C5055  1  0.237200  0.975500  0.289320  1
  C  C5056  1  0.262800  0.475500  0.210680  1
  C  C5057  1  0.705900  0.420400  0.244810  1
  C  C5058  1  0.794100  0.920400  0.255190  1
  C  C5059  1  0.705900  0.079600  0.755190  1
  C  C5060  1  0.794100  0.579600  0.744810  1
  C  C5061  1  0.294100  0.579600  0.755190  1
  C  C5062  1  0.205900  0.079600  0.744810  1
  C  C5063  1  0.294100  0.920400  0.244810  1
  C  C5064  1  0.205900  0.420400  0.255190  1
  C  C5065  1  0.709900  0.384200  0.233270  1
  C  C5066  1  0.790100  0.884200  0.266730  1
  C  C5067  1  0.709900  0.115800  0.766730  1
  C  C5068  1  0.790100  0.615800  0.733270  1
  C  C5069  1  0.290100  0.615800  0.766730  1
  C  C5070  1  0.209900  0.115800  0.733270  1
  C  C5071  1  0.290100  0.884200  0.233270  1
  C  C5072  1  0.209900  0.384200  0.266730  1
  C  C5073  1  0.683520  0.376000  0.217480  1
  C  C5074  1  0.816480  0.876000  0.282520  1
  C  C5075  1  0.683520  0.124000  0.782520  1
  C  C5076  1  0.816480  0.624000  0.717480  1
  C  C5077  1  0.316480  0.624000  0.782520  1
  C  C5078  1  0.183520  0.124000  0.717480  1
  C  C5079  1  0.316480  0.876000  0.217480  1
  C  C5080  1  0.183520  0.376000  0.282520  1
  C  C5081  1  0.652600  0.404100  0.212690  1
  C  C5082  1  0.847400  0.904100  0.287310  1
  C  C5083  1  0.652600  0.095900  0.787310  1
  C  C5084  1  0.847400  0.595900  0.712690  1
  C  C5085  1  0.347400  0.595900  0.787310  1
  C  C5086  1  0.152600  0.095900  0.712690  1
  C  C5087  1  0.347400  0.904100  0.212690  1
  C  C5088  1  0.152600  0.404100  0.287310  1
  C  C5089  1  0.645700  0.440000  0.223940  1
  C  C5090  1  0.854300  0.940000  0.276060  1
  C  C5091  1  0.645700  0.060000  0.776060  1
  C  C5092  1  0.854300  0.560000  0.723940  1
  C  C5093  1  0.354300  0.560000  0.776060  1
  C  C5094  1  0.145700  0.060000  0.723940  1
  C  C5095  1  0.354300  0.940000  0.223940  1
  C  C5096  1  0.145700  0.440000  0.276060  1
  C  C5097  1  0.672700  0.447400  0.239620  1
  C  C5098  1  0.827300  0.947400  0.260380  1
  C  C5099  1  0.672700  0.052600  0.760380  1
  C  C5100  1  0.827300  0.552600  0.739620  1
  C  C5101  1  0.327300  0.552600  0.760380  1
  C  C5102  1  0.172700  0.052600  0.739620  1
  C  C5103  1  0.327300  0.947400  0.239620  1
  C  C5104  1  0.172700  0.447400  0.260380  1
  C  C5105  1  0.586600  0.387200  0.198320  1
  C  C5106  1  0.913400  0.887200  0.301680  1
  C  C5107  1  0.586600  0.112800  0.801680  1
  C  C5108  1  0.913400  0.612800  0.698320  1
  C  C5109  1  0.413400  0.612800  0.801680  1
  C  C5110  1  0.086600  0.112800  0.698320  1
  C  C5111  1  0.413400  0.887200  0.198320  1
  C  C5112  1  0.086600  0.387200  0.301680  1
  C  C5113  1  0.574200  0.352700  0.209270  1
  C  C5114  1  0.925800  0.852700  0.290730  1
  C  C5115  1  0.574200  0.147300  0.790730  1
  C  C5116  1  0.925800  0.647300  0.709270  1
  C  C5117  1  0.425800  0.647300  0.790730  1
  C  C5118  1  0.074200  0.147300  0.709270  1
  C  C5119  1  0.425800  0.852700  0.209270  1
  C  C5120  1  0.074200  0.352700  0.290730  1
  C  C5121  1  0.532600  0.342700  0.211130  1
  C  C5122  1  0.967400  0.842700  0.288870  1
  C  C5123  1  0.532600  0.157300  0.788870  1
  C  C5124  1  0.967400  0.657300  0.711130  1
  C  C5125  1  0.467400  0.657300  0.788870  1
  C  C5126  1  0.032600  0.157300  0.711130  1
  C  C5127  1  0.467400  0.842700  0.211130  1
  C  C5128  1  0.032600  0.342700  0.288870  1
  C  C5129  1  0.501300  0.368700  0.203640  1
  C  C5130  1  0.998700  0.868700  0.296360  1
  C  C5131  1  0.501300  0.131300  0.796360  1
  C  C5132  1  0.998700  0.631300  0.703640  1
  C  C5133  1  0.498700  0.631300  0.796360  1
  C  C5134  1  0.001300  0.131300  0.703640  1
  C  C5135  1  0.498700  0.868700  0.203640  1
  C  C5136  1  0.001300  0.368700  0.296360  1
  C  C5137  1  0.513000  0.405300  0.193700  1
  C  C5138  1  0.987000  0.905300  0.306300  1
  C  C5139  1  0.513000  0.094700  0.806300  1
  C  C5140  1  0.987000  0.594700  0.693700  1
  C  C5141  1  0.487000  0.594700  0.806300  1
  C  C5142  1  0.013000  0.094700  0.693700  1
  C  C5143  1  0.487000  0.905300  0.193700  1
  C  C5144  1  0.013000  0.405300  0.306300  1
  C  C5145  1  0.555400  0.414200  0.190530  1
  C  C5146  1  0.944600  0.914200  0.309470  1
  C  C5147  1  0.555400  0.085800  0.809470  1
  C  C5148  1  0.944600  0.585800  0.690530  1
  C  C5149  1  0.444600  0.585800  0.809470  1
  C  C5150  1  0.055400  0.085800  0.690530  1
  C  C5151  1  0.444600  0.914200  0.190530  1
  C  C5152  1  0.055400  0.414200  0.309470  1
  C  C5153  1  0.541900  0.287200  0.237760  1
  C  C5154  1  0.958100  0.787200  0.262240  1
  C  C5155  1  0.541900  0.212800  0.762240  1
  C  C5156  1  0.958100  0.712800  0.737760  1
  C  C5157  1  0.458100  0.712800  0.762240  1
  C  C5158  1  0.041900  0.212800  0.737760  1
  C  C5159  1  0.458100  0.787200  0.237760  1
  C  C5160  1  0.041900  0.287200  0.262240  1
  C  C5161  1  0.520300  0.247800  0.245500  1
  C  C5162  1  0.979700  0.747800  0.254500  1
  C  C5163  1  0.520300  0.252200  0.754500  1
  C  C5164  1  0.979700  0.752200  0.745500  1
  C  C5165  1  0.479700  0.752200  0.754500  1
  C  C5166  1  0.020300  0.252200  0.745500  1
  C  C5167  1  0.479700  0.747800  0.245500  1
  C  C5168  1  0.020300  0.247800  0.254500  1
  C  C5169  1  0.527300  0.209900  0.231300  1
  C  C5170  1  0.972700  0.709900  0.268700  1
  C  C5171  1  0.527300  0.290100  0.768700  1
  C  C5172  1  0.972700  0.790100  0.731300  1
  C  C5173  1  0.472700  0.790100  0.768700  1
  C  C5174  1  0.027300  0.290100  0.731300  1
  C  C5175  1  0.472700  0.709900  0.231300  1
  C  C5176  1  0.027300  0.209900  0.268700  1
  C  C5177  1  0.436900  0.323700  0.200000  1
  C  C5178  1  0.063100  0.823700  0.300000  1
  C  C5179  1  0.436900  0.176300  0.800000  1
  C  C5180  1  0.063100  0.676300  0.700000  1
  C  C5181  1  0.563100  0.676300  0.800000  1
  C  C5182  1  0.936900  0.176300  0.700000  1
  C  C5183  1  0.563100  0.823700  0.200000  1
  C  C5184  1  0.936900  0.323700  0.300000  1
  C  C5185  1  0.388400  0.331300  0.198800  1
  C  C5186  1  0.111600  0.831300  0.301200  1
  C  C5187  1  0.388400  0.168700  0.801200  1
  C  C5188  1  0.111600  0.668700  0.698800  1
  C  C5189  1  0.611600  0.668700  0.801200  1
  C  C5190  1  0.888400  0.168700  0.698800  1
  C  C5191  1  0.611600  0.831300  0.198800  1
  C  C5192  1  0.888400  0.331300  0.301200  1
  C  C5193  1  0.375400  0.338200  0.176600  1
  C  C5194  1  0.124600  0.838200  0.323400  1
  C  C5195  1  0.375400  0.161800  0.823400  1
  C  C5196  1  0.124600  0.661800  0.676600  1
  C  C5197  1  0.624600  0.661800  0.823400  1
  C  C5198  1  0.875400  0.161800  0.676600  1
  C  C5199  1  0.624600  0.838200  0.176600  1
  C  C5200  1  0.875400  0.338200  0.323400  1
  C  C5201  1  0.611200  0.471700  0.216840  1
  C  C5202  1  0.888800  0.971700  0.283160  1
  C  C5203  1  0.611200  0.028300  0.783160  1
  C  C5204  1  0.888800  0.528300  0.716840  1
  C  C5205  1  0.388800  0.528300  0.783160  1
  C  C5206  1  0.111200  0.028300  0.716840  1
  C  C5207  1  0.388800  0.971700  0.216840  1
  C  C5208  1  0.111200  0.471700  0.283160  1
  C  C5209  1  0.604600  0.508400  0.231370  1
  C  C5210  1  0.895400  0.008400  0.268630  1
  C  C5211  1  0.604600  0.991600  0.768630  1
  C  C5212  1  0.895400  0.491600  0.731370  1
  C  C5213  1  0.395400  0.491600  0.768630  1
  C  C5214  1  0.104600  0.991600  0.731370  1
  C  C5215  1  0.395400  0.008400  0.231370  1
  C  C5216  1  0.104600  0.508400  0.268630  1
  C  C5217  1  0.568000  0.535500  0.225010  1
  C  C5218  1  0.932000  0.035500  0.274990  1
  C  C5219  1  0.568000  0.964500  0.774990  1
  C  C5220  1  0.932000  0.464500  0.725010  1
  C  C5221  1  0.432000  0.464500  0.774990  1
  C  C5222  1  0.068000  0.964500  0.725010  1
  C  C5223  1  0.432000  0.035500  0.225010  1
  C  C5224  1  0.068000  0.535500  0.274990  1
  C  C5225  1  0.623500  0.485300  0.195780  1
  C  C5226  1  0.876500  0.985300  0.304220  1
  C  C5227  1  0.623500  0.014700  0.804220  1
  C  C5228  1  0.876500  0.514700  0.695780  1
  C  C5229  1  0.376500  0.514700  0.804220  1
  C  C5230  1  0.123500  0.014700  0.695780  1
  C  C5231  1  0.376500  0.985300  0.195780  1
  C  C5232  1  0.123500  0.485300  0.304220  1
  C  C5233  1  0.604100  0.469700  0.178750  1
  C  C5234  1  0.895900  0.969700  0.321250  1
  C  C5235  1  0.604100  0.030300  0.821250  1
  C  C5236  1  0.895900  0.530300  0.678750  1
  C  C5237  1  0.395900  0.530300  0.821250  1
  C  C5238  1  0.104100  0.030300  0.678750  1
  C  C5239  1  0.395900  0.969700  0.178750  1
  C  C5240  1  0.104100  0.469700  0.321250  1
  C  C5241  1  0.617900  0.478400  0.159960  1
  C  C5242  1  0.882100  0.978400  0.340040  1
  C  C5243  1  0.617900  0.021600  0.840040  1
  C  C5244  1  0.882100  0.521600  0.659960  1
  C  C5245  1  0.382100  0.521600  0.840040  1
  C  C5246  1  0.117900  0.021600  0.659960  1
  C  C5247  1  0.382100  0.978400  0.159960  1
  C  C5248  1  0.117900  0.478400  0.340040  1
  C  C5249  1  0.652800  0.504900  0.158200  1
  C  C5250  1  0.847200  0.004900  0.341800  1
  C  C5251  1  0.652800  0.995100  0.841800  1
  C  C5252  1  0.847200  0.495100  0.658200  1
  C  C5253  1  0.347200  0.495100  0.841800  1
  C  C5254  1  0.152800  0.995100  0.658200  1
  C  C5255  1  0.347200  0.004900  0.158200  1
  C  C5256  1  0.152800  0.504900  0.341800  1
  C  C5257  1  0.671500  0.524100  0.173940  1
  C  C5258  1  0.828500  0.024100  0.326060  1
  C  C5259  1  0.671500  0.975900  0.826060  1
  C  C5260  1  0.828500  0.475900  0.673940  1
  C  C5261  1  0.328500  0.475900  0.826060  1
  C  C5262  1  0.171500  0.975900  0.673940  1
  C  C5263  1  0.328500  0.024100  0.173940  1
  C  C5264  1  0.171500  0.524100  0.326060  1
  C  C5265  1  0.656900  0.512400  0.192760  1
  C  C5266  1  0.843100  0.012400  0.307240  1
  C  C5267  1  0.656900  0.987600  0.807240  1
  C  C5268  1  0.843100  0.487600  0.692760  1
  C  C5269  1  0.343100  0.487600  0.807240  1
  C  C5270  1  0.156900  0.987600  0.692760  1
  C  C5271  1  0.343100  0.012400  0.192760  1
  C  C5272  1  0.156900  0.512400  0.307240  1
  C  C5273  1  0.693400  0.486700  0.128830  1
  C  C5274  1  0.806600  0.986700  0.371170  1
  C  C5275  1  0.693400  0.013300  0.871170  1
  C  C5276  1  0.806600  0.513300  0.628830  1
  C  C5277  1  0.306600  0.513300  0.871170  1
  C  C5278  1  0.193400  0.013300  0.628830  1
  C  C5279  1  0.306600  0.986700  0.128830  1
  C  C5280  1  0.193400  0.486700  0.371170  1
  C  C5281  1  0.676000  0.453900  0.118570  1
  C  C5282  1  0.824000  0.953900  0.381430  1
  C  C5283  1  0.676000  0.046100  0.881430  1
  C  C5284  1  0.824000  0.546100  0.618570  1
  C  C5285  1  0.324000  0.546100  0.881430  1
  C  C5286  1  0.176000  0.046100  0.618570  1
  C  C5287  1  0.324000  0.953900  0.118570  1
  C  C5288  1  0.176000  0.453900  0.381430  1
  C  C5289  1  0.701800  0.427800  0.106790  1
  C  C5290  1  0.798200  0.927800  0.393210  1
  C  C5291  1  0.701800  0.072200  0.893210  1
  C  C5292  1  0.798200  0.572200  0.606790  1
  C  C5293  1  0.298200  0.572200  0.893210  1
  C  C5294  1  0.201800  0.072200  0.606790  1
  C  C5295  1  0.298200  0.927800  0.106790  1
  C  C5296  1  0.201800  0.427800  0.393210  1
  C  C5297  1  0.745100  0.433700  0.106670  1
  C  C5298  1  0.754900  0.933700  0.393330  1
  C  C5299  1  0.745100  0.066300  0.893330  1
  C  C5300  1  0.754900  0.566300  0.606670  1
  C  C5301  1  0.254900  0.566300  0.893330  1
  C  C5302  1  0.245100  0.066300  0.606670  1
  C  C5303  1  0.254900  0.933700  0.106670  1
  C  C5304  1  0.245100  0.433700  0.393330  1
  C  C5305  1  0.763100  0.467700  0.117650  1
  C  C5306  1  0.736900  0.967700  0.382350  1
  C  C5307  1  0.763100  0.032300  0.882350  1
  C  C5308  1  0.736900  0.532300  0.617650  1
  C  C5309  1  0.236900  0.532300  0.882350  1
  C  C5310  1  0.263100  0.032300  0.617650  1
  C  C5311  1  0.236900  0.967700  0.117650  1
  C  C5312  1  0.263100  0.467700  0.382350  1
  C  C5313  1  0.737500  0.493300  0.128680  1
  C  C5314  1  0.762500  0.993300  0.371320  1
  C  C5315  1  0.737500  0.006700  0.871320  1
  C  C5316  1  0.762500  0.506700  0.628680  1
  C  C5317  1  0.262500  0.506700  0.871320  1
  C  C5318  1  0.237500  0.006700  0.628680  1
  C  C5319  1  0.262500  0.993300  0.128680  1
  C  C5320  1  0.237500  0.493300  0.371320  1
  C  C5321  1  0.679200  0.381400  0.079880  1
  C  C5322  1  0.820800  0.881400  0.420120  1
  C  C5323  1  0.679200  0.118600  0.920120  1
  C  C5324  1  0.820800  0.618600  0.579880  1
  C  C5325  1  0.320800  0.618600  0.920120  1
  C  C5326  1  0.179200  0.118600  0.579880  1
  C  C5327  1  0.320800  0.881400  0.079880  1
  C  C5328  1  0.179200  0.381400  0.420120  1
  C  C5329  1  0.651400  0.343900  0.075200  1
  C  C5330  1  0.848600  0.843900  0.424800  1
  C  C5331  1  0.651400  0.156100  0.924800  1
  C  C5332  1  0.848600  0.656100  0.575200  1
  C  C5333  1  0.348600  0.656100  0.924800  1
  C  C5334  1  0.151400  0.156100  0.575200  1
  C  C5335  1  0.348600  0.843900  0.075200  1
  C  C5336  1  0.151400  0.343900  0.424800  1
  C  C5337  1  0.677000  0.303000  0.075900  1
  C  C5338  1  0.823000  0.803000  0.424100  1
  C  C5339  1  0.677000  0.197000  0.924100  1
  C  C5340  1  0.823000  0.697000  0.575900  1
  C  C5341  1  0.323000  0.697000  0.924100  1
  C  C5342  1  0.177000  0.197000  0.575900  1
  C  C5343  1  0.323000  0.803000  0.075900  1
  C  C5344  1  0.177000  0.303000  0.424100  1
  C  C5345  1  0.807300  0.387600  0.100990  1
  C  C5346  1  0.692700  0.887600  0.399010  1
  C  C5347  1  0.807300  0.112400  0.899010  1
  C  C5348  1  0.692700  0.612400  0.600990  1
  C  C5349  1  0.192700  0.612400  0.899010  1
  C  C5350  1  0.307300  0.112400  0.600990  1
  C  C5351  1  0.192700  0.887600  0.100990  1
  C  C5352  1  0.307300  0.387600  0.399010  1
  C  C5353  1  0.826200  0.357800  0.086440  1
  C  C5354  1  0.673800  0.857800  0.413560  1
  C  C5355  1  0.826200  0.142200  0.913560  1
  C  C5356  1  0.673800  0.642200  0.586440  1
  C  C5357  1  0.173800  0.642200  0.913560  1
  C  C5358  1  0.326200  0.142200  0.586440  1
  C  C5359  1  0.173800  0.857800  0.086440  1
  C  C5360  1  0.326200  0.357800  0.413560  1
  C  C5361  1  0.871500  0.343500  0.090400  1
  C  C5362  1  0.628500  0.843500  0.409600  1
  C  C5363  1  0.871500  0.156500  0.909600  1
  C  C5364  1  0.628500  0.656500  0.590400  1
  C  C5365  1  0.128500  0.656500  0.909600  1
  C  C5366  1  0.371500  0.156500  0.590400  1
  C  C5367  1  0.128500  0.843500  0.090400  1
  C  C5368  1  0.371500  0.343500  0.409600  1
  C  C5369  1  0.706700  0.556100  0.171190  1
  C  C5370  1  0.793300  0.056100  0.328810  1
  C  C5371  1  0.706700  0.943900  0.828810  1
  C  C5372  1  0.793300  0.443900  0.671190  1
  C  C5373  1  0.293300  0.443900  0.828810  1
  C  C5374  1  0.206700  0.943900  0.671190  1
  C  C5375  1  0.293300  0.056100  0.171190  1
  C  C5376  1  0.206700  0.556100  0.328810  1
  C  C5377  1  0.700400  0.595300  0.184380  1
  C  C5378  1  0.799600  0.095300  0.315620  1
  C  C5379  1  0.700400  0.904700  0.815620  1
  C  C5380  1  0.799600  0.404700  0.684380  1
  C  C5381  1  0.299600  0.404700  0.815620  1
  C  C5382  1  0.200400  0.904700  0.684380  1
  C  C5383  1  0.299600  0.095300  0.184380  1
  C  C5384  1  0.200400  0.595300  0.315620  1
  C  C5385  1  0.730800  0.629100  0.180250  1
  C  C5386  1  0.769200  0.129100  0.319750  1
  C  C5387  1  0.730800  0.870900  0.819750  1
  C  C5388  1  0.769200  0.370900  0.680250  1
  C  C5389  1  0.269200  0.370900  0.819750  1
  C  C5390  1  0.230800  0.870900  0.680250  1
  C  C5391  1  0.269200  0.129100  0.180250  1
  C  C5392  1  0.230800  0.629100  0.319750  1
  C  C5393  1  0.749900  0.535900  0.173950  1
  C  C5394  1  0.750100  0.035900  0.326050  1
  C  C5395  1  0.749900  0.964100  0.826050  1
  C  C5396  1  0.750100  0.464100  0.673950  1
  C  C5397  1  0.250100  0.464100  0.826050  1
  C  C5398  1  0.249900  0.964100  0.673950  1
  C  C5399  1  0.250100  0.035900  0.173950  1
  C  C5400  1  0.249900  0.535900  0.326050  1
  C  C5401  1  0.771900  0.521400  0.156550  1
  C  C5402  1  0.728100  0.021400  0.343450  1
  C  C5403  1  0.771900  0.978600  0.843450  1
  C  C5404  1  0.728100  0.478600  0.656550  1
  C  C5405  1  0.228100  0.478600  0.843450  1
  C  C5406  1  0.271900  0.978600  0.656550  1
  C  C5407  1  0.228100  0.021400  0.156550  1
  C  C5408  1  0.271900  0.521400  0.343450  1
  C  C5409  1  0.811100  0.502800  0.158510  1
  C  C5410  1  0.688900  0.002800  0.341490  1
  C  C5411  1  0.811100  0.997200  0.841490  1
  C  C5412  1  0.688900  0.497200  0.658510  1
  C  C5413  1  0.188900  0.497200  0.841490  1
  C  C5414  1  0.311100  0.997200  0.658510  1
  C  C5415  1  0.188900  0.002800  0.158510  1
  C  C5416  1  0.311100  0.502800  0.341490  1
  C  C5417  1  0.829500  0.498200  0.176690  1
  C  C5418  1  0.670500  0.998200  0.323310  1
  C  C5419  1  0.829500  0.001800  0.823310  1
  C  C5420  1  0.670500  0.501800  0.676690  1
  C  C5421  1  0.170500  0.501800  0.823310  1
  C  C5422  1  0.329500  0.001800  0.676690  1
  C  C5423  1  0.170500  0.998200  0.176690  1
  C  C5424  1  0.329500  0.498200  0.323310  1
  C  C5425  1  0.810000  0.513400  0.194250  1
  C  C5426  1  0.690000  0.013400  0.305750  1
  C  C5427  1  0.810000  0.986600  0.805750  1
  C  C5428  1  0.690000  0.486600  0.694250  1
  C  C5429  1  0.190000  0.486600  0.805750  1
  C  C5430  1  0.310000  0.986600  0.694250  1
  C  C5431  1  0.190000  0.013400  0.194250  1
  C  C5432  1  0.310000  0.513400  0.305750  1
  C  C5433  1  0.770100  0.532300  0.191660  1
  C  C5434  1  0.729900  0.032300  0.308340  1
  C  C5435  1  0.770100  0.967700  0.808340  1
  C  C5436  1  0.729900  0.467700  0.691660  1
  C  C5437  1  0.229900  0.467700  0.808340  1
  C  C5438  1  0.270100  0.967700  0.691660  1
  C  C5439  1  0.229900  0.032300  0.191660  1
  C  C5440  1  0.270100  0.532300  0.308340  1
  C  C5441  1  0.391100  0.502700  0.160900  1
  C  C5442  1  0.108900  0.002700  0.339100  1
  C  C5443  1  0.391100  0.997300  0.839100  1
  C  C5444  1  0.108900  0.497300  0.660900  1
  C  C5445  1  0.608900  0.497300  0.839100  1
  C  C5446  1  0.891100  0.997300  0.660900  1
  C  C5447  1  0.608900  0.002700  0.160900  1
  C  C5448  1  0.891100  0.502700  0.339100  1
  C  C5449  1  0.438000  0.490500  0.160500  1
  C  C5450  1  0.062000  0.990500  0.339500  1
  C  C5451  1  0.438000  0.009500  0.839500  1
  C  C5452  1  0.062000  0.509500  0.660500  1
  C  C5453  1  0.562000  0.509500  0.839500  1
  C  C5454  1  0.938000  0.009500  0.660500  1
  C  C5455  1  0.562000  0.990500  0.160500  1
  C  C5456  1  0.938000  0.490500  0.339500  1
  C  C5457  1  0.718700  0.483400  0.008400  1
  C  C5458  1  0.781300  0.983400  0.491600  1
  C  C5459  1  0.718700  0.016600  0.991600  1
  C  C5460  1  0.781300  0.516600  0.508400  1
  C  C5461  1  0.281300  0.516600  0.991600  1
  C  C5462  1  0.218700  0.016600  0.508400  1
  C  C5463  1  0.281300  0.983400  0.008400  1
  C  C5464  1  0.218700  0.483400  0.491600  1
  C  C5465  1  0.703000  0.522400  0.997900  1
  C  C5466  1  0.797000  0.022400  0.502100  1
  C  C5467  1  0.703000  0.977600  0.002100  1
  C  C5468  1  0.797000  0.477600  0.497900  1
  C  C5469  1  0.297000  0.477600  0.002100  1
  C  C5470  1  0.203000  0.977600  0.497900  1
  C  C5471  1  0.297000  0.022400  0.997900  1
  C  C5472  1  0.203000  0.522400  0.502100  1
  C  C5473  1  0.486800  0.319800  0.082390  1
  C  C5474  1  0.013200  0.819800  0.417610  1
  C  C5475  1  0.486800  0.180200  0.917610  1
  C  C5476  1  0.013200  0.680200  0.582390  1
  C  C5477  1  0.513200  0.680200  0.917610  1
  C  C5478  1  0.986800  0.180200  0.582390  1
  C  C5479  1  0.513200  0.819800  0.082390  1
  C  C5480  1  0.986800  0.319800  0.417610  1
  C  C5481  1  0.464500  0.348500  0.067780  1
  C  C5482  1  0.035500  0.848500  0.432220  1
  C  C5483  1  0.464500  0.151500  0.932220  1
  C  C5484  1  0.035500  0.651500  0.567780  1
  C  C5485  1  0.535500  0.651500  0.932220  1
  C  C5486  1  0.964500  0.151500  0.567780  1
  C  C5487  1  0.535500  0.848500  0.067780  1
  C  C5488  1  0.964500  0.348500  0.432220  1
  C  C5489  1  0.969100  0.269600  0.186430  1
  C  C5490  1  0.530900  0.769600  0.313570  1
  C  C5491  1  0.969100  0.230400  0.813570  1
  C  C5492  1  0.530900  0.730400  0.686430  1
  C  C5493  1  0.030900  0.730400  0.813570  1
  C  C5494  1  0.469100  0.230400  0.686430  1
  C  C5495  1  0.030900  0.769600  0.186430  1
  C  C5496  1  0.469100  0.269600  0.313570  1
  C  C5497  1  0.996500  0.302000  0.196300  1
  C  C5498  1  0.503500  0.802000  0.303700  1
  C  C5499  1  0.996500  0.198000  0.803700  1
  C  C5500  1  0.503500  0.698000  0.696300  1
  C  C5501  1  0.003500  0.698000  0.803700  1
  C  C5502  1  0.496500  0.198000  0.696300  1
  C  C5503  1  0.003500  0.802000  0.196300  1
  C  C5504  1  0.496500  0.302000  0.303700  1
  C  C5505  1  0.600700  0.350200  0.290800  1
  C  C5506  1  0.899300  0.850200  0.209200  1
  C  C5507  1  0.600700  0.149800  0.709200  1
  C  C5508  1  0.899300  0.649800  0.790800  1
  C  C5509  1  0.399300  0.649800  0.709200  1
  C  C5510  1  0.100700  0.149800  0.790800  1
  C  C5511  1  0.399300  0.850200  0.290800  1
  C  C5512  1  0.100700  0.350200  0.209200  1
  C  C5513  1  0.625200  0.379000  0.276800  1
  C  C5514  1  0.874800  0.879000  0.223200  1
  C  C5515  1  0.625200  0.121000  0.723200  1
  C  C5516  1  0.874800  0.621000  0.776800  1
  C  C5517  1  0.374800  0.621000  0.723200  1
  C  C5518  1  0.125200  0.121000  0.776800  1
  C  C5519  1  0.374800  0.879000  0.276800  1
  C  C5520  1  0.125200  0.379000  0.223200  1
  C  C5521  1  0.756800  0.127800  0.244520  1
  C  C5522  1  0.743200  0.627800  0.255480  1
  C  C5523  1  0.756800  0.372200  0.755480  1
  C  C5524  1  0.743200  0.872200  0.744520  1
  C  C5525  1  0.243200  0.872200  0.755480  1
  C  C5526  1  0.256800  0.372200  0.744520  1
  C  C5527  1  0.243200  0.627800  0.244520  1
  C  C5528  1  0.256800  0.127800  0.255480  1
  C  C5529  1  0.757800  0.125400  0.267140  1
  C  C5530  1  0.742200  0.625400  0.232860  1
  C  C5531  1  0.757800  0.374600  0.732860  1
  C  C5532  1  0.742200  0.874600  0.767140  1
  C  C5533  1  0.242200  0.874600  0.732860  1
  C  C5534  1  0.257800  0.374600  0.767140  1
  C  C5535  1  0.242200  0.625400  0.267140  1
  C  C5536  1  0.257800  0.125400  0.232860  1
  C  C5537  1  0.837200  0.264000  0.244120  1
  C  C5538  1  0.662800  0.764000  0.255880  1
  C  C5539  1  0.837200  0.236000  0.755880  1
  C  C5540  1  0.662800  0.736000  0.744120  1
  C  C5541  1  0.162800  0.736000  0.755880  1
  C  C5542  1  0.337200  0.236000  0.744120  1
  C  C5543  1  0.162800  0.764000  0.244120  1
  C  C5544  1  0.337200  0.264000  0.255880  1
  C  C5545  1  0.795900  0.239200  0.241500  1
  C  C5546  1  0.704100  0.739200  0.258500  1
  C  C5547  1  0.795900  0.260800  0.758500  1
  C  C5548  1  0.704100  0.760800  0.741500  1
  C  C5549  1  0.204100  0.760800  0.758500  1
  C  C5550  1  0.295900  0.260800  0.741500  1
  C  C5551  1  0.204100  0.739200  0.241500  1
  C  C5552  1  0.295900  0.239200  0.258500  1
  C  C5553  1  0.396500  0.470500  0.220100  1
  C  C5554  1  0.103500  0.970500  0.279900  1
  C  C5555  1  0.396500  0.029500  0.779900  1
  C  C5556  1  0.103500  0.529500  0.720100  1
  C  C5557  1  0.603500  0.529500  0.779900  1
  C  C5558  1  0.896500  0.029500  0.720100  1
  C  C5559  1  0.603500  0.970500  0.220100  1
  C  C5560  1  0.896500  0.470500  0.279900  1
  C  C5561  1  0.429800  0.503900  0.214700  1
  C  C5562  1  0.070200  0.003900  0.285300  1
  C  C5563  1  0.429800  0.996100  0.785300  1
  C  C5564  1  0.070200  0.496100  0.714700  1
  C  C5565  1  0.570200  0.496100  0.785300  1
  C  C5566  1  0.929800  0.996100  0.714700  1
  C  C5567  1  0.570200  0.003900  0.214700  1
  C  C5568  1  0.929800  0.503900  0.285300  1
  C  C5569  1  0.343700  0.249500  0.029500  1
  C  C5570  1  0.156300  0.749500  0.470500  1
  C  C5571  1  0.343700  0.250500  0.970500  1
  C  C5572  1  0.156300  0.750500  0.529500  1
  C  C5573  1  0.656300  0.750500  0.970500  1
  C  C5574  1  0.843700  0.250500  0.529500  1
  C  C5575  1  0.656300  0.749500  0.029500  1
  C  C5576  1  0.843700  0.249500  0.470500  1
  C  C5577  1  0.337500  0.292900  0.038400  1
  C  C5578  1  0.162500  0.792900  0.461600  1
  C  C5579  1  0.337500  0.207100  0.961600  1
  C  C5580  1  0.162500  0.707100  0.538400  1
  C  C5581  1  0.662500  0.707100  0.961600  1
  C  C5582  1  0.837500  0.207100  0.538400  1
  C  C5583  1  0.662500  0.792900  0.038400  1
  C  C5584  1  0.837500  0.292900  0.461600  1
  C  C5585  1  0.318700  0.234500  0.082300  1
  C  C5586  1  0.181300  0.734500  0.417700  1
  C  C5587  1  0.318700  0.265500  0.917700  1
  C  C5588  1  0.181300  0.765500  0.582300  1
  C  C5589  1  0.681300  0.765500  0.917700  1
  C  C5590  1  0.818700  0.265500  0.582300  1
  C  C5591  1  0.681300  0.734500  0.082300  1
  C  C5592  1  0.818700  0.234500  0.417700  1
  C  C5593  1  0.298900  0.271200  0.088600  1
  C  C5594  1  0.201100  0.771200  0.411400  1
  C  C5595  1  0.298900  0.228800  0.911400  1
  C  C5596  1  0.201100  0.728800  0.588600  1
  C  C5597  1  0.701100  0.728800  0.911400  1
  C  C5598  1  0.798900  0.228800  0.588600  1
  C  C5599  1  0.701100  0.771200  0.088600  1
  C  C5600  1  0.798900  0.271200  0.411400  1
  C  C5601  1  0.315900  0.303500  0.097400  1
  C  C5602  1  0.184100  0.803500  0.402600  1
  C  C5603  1  0.315900  0.196500  0.902600  1
  C  C5604  1  0.184100  0.696500  0.597400  1
  C  C5605  1  0.684100  0.696500  0.902600  1
  C  C5606  1  0.815900  0.196500  0.597400  1
  C  C5607  1  0.684100  0.803500  0.097400  1
  C  C5608  1  0.815900  0.303500  0.402600  1
  C  C5609  1  0.359600  0.302300  0.102400  1
  C  C5610  1  0.140400  0.802300  0.397600  1
  C  C5611  1  0.359600  0.197700  0.897600  1
  C  C5612  1  0.140400  0.697700  0.602400  1
  C  C5613  1  0.640400  0.697700  0.897600  1
  C  C5614  1  0.859600  0.197700  0.602400  1
  C  C5615  1  0.640400  0.802300  0.102400  1
  C  C5616  1  0.859600  0.302300  0.397600  1
  C  C5617  1  0.383900  0.268600  0.096600  1
  C  C5618  1  0.116100  0.768600  0.403400  1
  C  C5619  1  0.383900  0.231400  0.903400  1
  C  C5620  1  0.116100  0.731400  0.596600  1
  C  C5621  1  0.616100  0.731400  0.903400  1
  C  C5622  1  0.883900  0.231400  0.596600  1
  C  C5623  1  0.616100  0.768600  0.096600  1
  C  C5624  1  0.883900  0.268600  0.403400  1
  C  C5625  1  0.361100  0.233600  0.088000  1
  C  C5626  1  0.138900  0.733600  0.412000  1
  C  C5627  1  0.361100  0.266400  0.912000  1
  C  C5628  1  0.138900  0.766400  0.588000  1
  C  C5629  1  0.638900  0.766400  0.912000  1
  C  C5630  1  0.861100  0.266400  0.588000  1
  C  C5631  1  0.638900  0.733600  0.088000  1
  C  C5632  1  0.861100  0.233600  0.412000  1
  C  C5633  1  0.248300  0.341500  0.103300  1
  C  C5634  1  0.251700  0.841500  0.396700  1
  C  C5635  1  0.248300  0.158500  0.896700  1
  C  C5636  1  0.251700  0.658500  0.603300  1
  C  C5637  1  0.751700  0.658500  0.896700  1
  C  C5638  1  0.748300  0.158500  0.603300  1
  C  C5639  1  0.751700  0.841500  0.103300  1
  C  C5640  1  0.748300  0.341500  0.396700  1
  C  C5641  1  0.230800  0.385800  0.104100  1
  C  C5642  1  0.269200  0.885800  0.395900  1
  C  C5643  1  0.230800  0.114200  0.895900  1
  C  C5644  1  0.269200  0.614200  0.604100  1
  C  C5645  1  0.769200  0.614200  0.895900  1
  C  C5646  1  0.730800  0.114200  0.604100  1
  C  C5647  1  0.769200  0.885800  0.104100  1
  C  C5648  1  0.730800  0.385800  0.395900  1
  C  C5649  1  0.185000  0.377800  0.097600  1
  C  C5650  1  0.315000  0.877800  0.402400  1
  C  C5651  1  0.185000  0.122200  0.902400  1
  C  C5652  1  0.315000  0.622200  0.597600  1
  C  C5653  1  0.815000  0.622200  0.902400  1
  C  C5654  1  0.685000  0.122200  0.597600  1
  C  C5655  1  0.815000  0.877800  0.097600  1
  C  C5656  1  0.685000  0.377800  0.402400  1
  C  C5657  1  0.367200  0.361800  0.124970  1
  C  C5658  1  0.132800  0.861800  0.375030  1
  C  C5659  1  0.367200  0.138200  0.875030  1
  C  C5660  1  0.132800  0.638200  0.624970  1
  C  C5661  1  0.632800  0.638200  0.875030  1
  C  C5662  1  0.867200  0.138200  0.624970  1
  C  C5663  1  0.632800  0.861800  0.124970  1
  C  C5664  1  0.867200  0.361800  0.375030  1
  C  C5665  1  0.395200  0.399300  0.128730  1
  C  C5666  1  0.104800  0.899300  0.371270  1
  C  C5667  1  0.395200  0.100700  0.871270  1
  C  C5668  1  0.104800  0.600700  0.628730  1
  C  C5669  1  0.604800  0.600700  0.871270  1
  C  C5670  1  0.895200  0.100700  0.628730  1
  C  C5671  1  0.604800  0.899300  0.128730  1
  C  C5672  1  0.895200  0.399300  0.371270  1
  C  C5673  1  0.390000  0.438300  0.115800  1
  C  C5674  1  0.110000  0.938300  0.384200  1
  C  C5675  1  0.390000  0.061700  0.884200  1
  C  C5676  1  0.110000  0.561700  0.615800  1
  C  C5677  1  0.610000  0.561700  0.884200  1
  C  C5678  1  0.890000  0.061700  0.615800  1
  C  C5679  1  0.610000  0.938300  0.115800  1
  C  C5680  1  0.890000  0.438300  0.384200  1
  C  C5681  1  0.080560  0.320900  0.109470  1
  C  C5682  1  0.419440  0.820900  0.390530  1
  C  C5683  1  0.080560  0.179100  0.890530  1
  C  C5684  1  0.419440  0.679100  0.609470  1
  C  C5685  1  0.919440  0.679100  0.890530  1
  C  C5686  1  0.580560  0.179100  0.609470  1
  C  C5687  1  0.919440  0.820900  0.109470  1
  C  C5688  1  0.580560  0.320900  0.390530  1
  C  C5689  1  0.089700  0.325900  0.087240  1
  C  C5690  1  0.410300  0.825900  0.412760  1
  C  C5691  1  0.089700  0.174100  0.912760  1
  C  C5692  1  0.410300  0.674100  0.587240  1
  C  C5693  1  0.910300  0.674100  0.912760  1
  C  C5694  1  0.589700  0.174100  0.587240  1
  C  C5695  1  0.910300  0.825900  0.087240  1
  C  C5696  1  0.589700  0.325900  0.412760  1
  C  C5697  1  0.078600  0.285800  0.075500  1
  C  C5698  1  0.421400  0.785800  0.424500  1
  C  C5699  1  0.078600  0.214200  0.924500  1
  C  C5700  1  0.421400  0.714200  0.575500  1
  C  C5701  1  0.921400  0.714200  0.924500  1
  C  C5702  1  0.578600  0.214200  0.575500  1
  C  C5703  1  0.921400  0.785800  0.075500  1
  C  C5704  1  0.578600  0.285800  0.424500  1
  C  C5705  1  0.996130  0.065780  0.085890  1
  C  C5706  1  0.503870  0.565780  0.414110  1
  C  C5707  1  0.996130  0.434220  0.914110  1
  C  C5708  1  0.503870  0.934220  0.585890  1
  C  C5709  1  0.003870  0.934220  0.914110  1
  C  C5710  1  0.496130  0.434220  0.585890  1
  C  C5711  1  0.003870  0.565780  0.085890  1
  C  C5712  1  0.496130  0.065780  0.414110  1
  C  C5713  1  0.016570  0.098540  0.076250  1
  C  C5714  1  0.483430  0.598540  0.423750  1
  C  C5715  1  0.016570  0.401460  0.923750  1
  C  C5716  1  0.483430  0.901460  0.576250  1
  C  C5717  1  0.983430  0.901460  0.923750  1
  C  C5718  1  0.516570  0.401460  0.576250  1
  C  C5719  1  0.983430  0.598540  0.076250  1
  C  C5720  1  0.516570  0.098540  0.423750  1
  C  C5721  1  0.031800  0.091660  0.056240  1
  C  C5722  1  0.468200  0.591660  0.443760  1
  C  C5723  1  0.031800  0.408340  0.943760  1
  C  C5724  1  0.468200  0.908340  0.556240  1
  C  C5725  1  0.968200  0.908340  0.943760  1
  C  C5726  1  0.531800  0.408340  0.556240  1
  C  C5727  1  0.968200  0.591660  0.056240  1
  C  C5728  1  0.531800  0.091660  0.443760  1
  C  C5729  1  0.026000  0.053320  0.047140  1
  C  C5730  1  0.474000  0.553320  0.452860  1
  C  C5731  1  0.026000  0.446680  0.952860  1
  C  C5732  1  0.474000  0.946680  0.547140  1
  C  C5733  1  0.974000  0.946680  0.952860  1
  C  C5734  1  0.526000  0.446680  0.547140  1
  C  C5735  1  0.974000  0.553320  0.047140  1
  C  C5736  1  0.526000  0.053320  0.452860  1
  C  C5737  1  0.005000  0.020780  0.057570  1
  C  C5738  1  0.495000  0.520780  0.442430  1
  C  C5739  1  0.005000  0.479220  0.942430  1
  C  C5740  1  0.495000  0.979220  0.557570  1
  C  C5741  1  0.995000  0.979220  0.942430  1
  C  C5742  1  0.505000  0.479220  0.557570  1
  C  C5743  1  0.995000  0.520780  0.057570  1
  C  C5744  1  0.505000  0.020780  0.442430  1
  C  C5745  1  0.990900  0.029510  0.076840  1
  C  C5746  1  0.509100  0.529510  0.423160  1
  C  C5747  1  0.990900  0.470490  0.923160  1
  C  C5748  1  0.509100  0.970490  0.576840  1
  C  C5749  1  0.009100  0.970490  0.923160  1
  C  C5750  1  0.490900  0.470490  0.576840  1
  C  C5751  1  0.009100  0.529510  0.076840  1
  C  C5752  1  0.490900  0.029510  0.423160  1
  C  C5753  1  0.051830  0.137620  0.027820  1
  C  C5754  1  0.448170  0.637620  0.472180  1
  C  C5755  1  0.051830  0.362380  0.972180  1
  C  C5756  1  0.448170  0.862380  0.527820  1
  C  C5757  1  0.948170  0.862380  0.972180  1
  C  C5758  1  0.551830  0.362380  0.527820  1
  C  C5759  1  0.948170  0.637620  0.027820  1
  C  C5760  1  0.551830  0.137620  0.472180  1
  C  C5761  1  0.088300  0.166000  0.021730  1
  C  C5762  1  0.411700  0.666000  0.478270  1
  C  C5763  1  0.088300  0.334000  0.978270  1
  C  C5764  1  0.411700  0.834000  0.521730  1
  C  C5765  1  0.911700  0.834000  0.978270  1
  C  C5766  1  0.588300  0.334000  0.521730  1
  C  C5767  1  0.911700  0.666000  0.021730  1
  C  C5768  1  0.588300  0.166000  0.478270  1
  C  C5769  1  0.089600  0.173600  0.999000  1
  C  C5770  1  0.410400  0.673600  0.501000  1
  C  C5771  1  0.089600  0.326400  0.001000  1
  C  C5772  1  0.410400  0.826400  0.499000  1
  C  C5773  1  0.910400  0.826400  0.001000  1
  C  C5774  1  0.589600  0.326400  0.499000  1
  C  C5775  1  0.910400  0.673600  0.999000  1
  C  C5776  1  0.589600  0.173600  0.501000  1
  C  C5777  1  0.056500  0.010170  0.021240  1
  C  C5778  1  0.443500  0.510170  0.478760  1
  C  C5779  1  0.056500  0.489830  0.978760  1
  C  C5780  1  0.443500  0.989830  0.521240  1
  C  C5781  1  0.943500  0.989830  0.978760  1
  C  C5782  1  0.556500  0.489830  0.521240  1
  C  C5783  1  0.943500  0.510170  0.021240  1
  C  C5784  1  0.556500  0.010170  0.478760  1
  C  C5785  1  0.068300  0.009600  0.998950  1
  C  C5786  1  0.431700  0.509600  0.501050  1
  C  C5787  1  0.068300  0.490400  0.001050  1
  C  C5788  1  0.431700  0.990400  0.498950  1
  C  C5789  1  0.931700  0.990400  0.001050  1
  C  C5790  1  0.568300  0.490400  0.498950  1
  C  C5791  1  0.931700  0.509600  0.998950  1
  C  C5792  1  0.568300  0.009600  0.501050  1
  C  C5793  1  0.048000  0.046200  0.987580  1
  C  C5794  1  0.452000  0.546200  0.512420  1
  C  C5795  1  0.048000  0.453800  0.012420  1
  C  C5796  1  0.452000  0.953800  0.487580  1
  C  C5797  1  0.952000  0.953800  0.012420  1
  C  C5798  1  0.548000  0.453800  0.487580  1
  C  C5799  1  0.952000  0.546200  0.987580  1
  C  C5800  1  0.548000  0.046200  0.512420  1
  C  C5801  1  0.859900  0.582200  0.227510  1
  C  C5802  1  0.640100  0.082200  0.272490  1
  C  C5803  1  0.859900  0.917800  0.772490  1
  C  C5804  1  0.640100  0.417800  0.727510  1
  C  C5805  1  0.140100  0.417800  0.772490  1
  C  C5806  1  0.359900  0.917800  0.727510  1
  C  C5807  1  0.140100  0.082200  0.227510  1
  C  C5808  1  0.359900  0.582200  0.272490  1
  C  C5809  1  0.650500  0.196500  0.289400  1
  C  C5810  1  0.849500  0.696500  0.210600  1
  C  C5811  1  0.650500  0.303500  0.710600  1
  C  C5812  1  0.849500  0.803500  0.789400  1
  C  C5813  1  0.349500  0.803500  0.710600  1
  C  C5814  1  0.150500  0.303500  0.789400  1
  C  C5815  1  0.349500  0.696500  0.289400  1
  C  C5816  1  0.150500  0.196500  0.210600  1
  C  C5817  1  0.640900  0.163100  0.274300  1
  C  C5818  1  0.859100  0.663100  0.225700  1
  C  C5819  1  0.640900  0.336900  0.725700  1
  C  C5820  1  0.859100  0.836900  0.774300  1
  C  C5821  1  0.359100  0.836900  0.725700  1
  C  C5822  1  0.140900  0.336900  0.774300  1
  C  C5823  1  0.359100  0.663100  0.274300  1
  C  C5824  1  0.140900  0.163100  0.225700  1
  C  C5825  1  0.526900  0.265300  0.216590  1
  C  C5826  1  0.973100  0.765300  0.283410  1
  C  C5827  1  0.526900  0.234700  0.783410  1
  C  C5828  1  0.973100  0.734700  0.716590  1
  C  C5829  1  0.473100  0.734700  0.783410  1
  C  C5830  1  0.026900  0.234700  0.716590  1
  C  C5831  1  0.473100  0.765300  0.216590  1
  C  C5832  1  0.026900  0.265300  0.283410  1
  C  C5833  1  0.512400  0.234000  0.232200  1
  C  C5834  1  0.987600  0.734000  0.267800  1
  C  C5835  1  0.512400  0.266000  0.767800  1
  C  C5836  1  0.987600  0.766000  0.732200  1
  C  C5837  1  0.487600  0.766000  0.767800  1
  C  C5838  1  0.012400  0.266000  0.732200  1
  C  C5839  1  0.487600  0.734000  0.232200  1
  C  C5840  1  0.012400  0.234000  0.267800  1
  C  C5841  1  0.547000  0.225600  0.248400  1
  C  C5842  1  0.953000  0.725600  0.251600  1
  C  C5843  1  0.547000  0.274400  0.751600  1
  C  C5844  1  0.953000  0.774400  0.748400  1
  C  C5845  1  0.453000  0.774400  0.751600  1
  C  C5846  1  0.047000  0.274400  0.748400  1
  C  C5847  1  0.453000  0.725600  0.248400  1
  C  C5848  1  0.047000  0.225600  0.251600  1
  C  C5849  1  0.442300  0.347400  0.224390  1
  C  C5850  1  0.057700  0.847400  0.275610  1
  C  C5851  1  0.442300  0.152600  0.775610  1
  C  C5852  1  0.057700  0.652600  0.724390  1
  C  C5853  1  0.557700  0.652600  0.775610  1
  C  C5854  1  0.942300  0.152600  0.724390  1
  C  C5855  1  0.557700  0.847400  0.224390  1
  C  C5856  1  0.942300  0.347400  0.275610  1
  C  C5857  1  0.398400  0.331000  0.218200  1
  C  C5858  1  0.101600  0.831000  0.281800  1
  C  C5859  1  0.398400  0.169000  0.781800  1
  C  C5860  1  0.101600  0.669000  0.718200  1
  C  C5861  1  0.601600  0.669000  0.781800  1
  C  C5862  1  0.898400  0.169000  0.718200  1
  C  C5863  1  0.601600  0.831000  0.218200  1
  C  C5864  1  0.898400  0.331000  0.281800  1
  C  C5865  1  0.396600  0.283200  0.217800  1
  C  C5866  1  0.103400  0.783200  0.282200  1
  C  C5867  1  0.396600  0.216800  0.782200  1
  C  C5868  1  0.103400  0.716800  0.717800  1
  C  C5869  1  0.603400  0.716800  0.782200  1
  C  C5870  1  0.896600  0.216800  0.717800  1
  C  C5871  1  0.603400  0.783200  0.217800  1
  C  C5872  1  0.896600  0.283200  0.282200  1
  C  C5873  1  0.694000  0.385100  0.075900  1
  C  C5874  1  0.806000  0.885100  0.424100  1
  C  C5875  1  0.694000  0.114900  0.924100  1
  C  C5876  1  0.806000  0.614900  0.575900  1
  C  C5877  1  0.306000  0.614900  0.924100  1
  C  C5878  1  0.194000  0.114900  0.575900  1
  C  C5879  1  0.306000  0.885100  0.075900  1
  C  C5880  1  0.194000  0.385100  0.424100  1
  C  C5881  1  0.671200  0.347000  0.068100  1
  C  C5882  1  0.828800  0.847000  0.431900  1
  C  C5883  1  0.671200  0.153000  0.931900  1
  C  C5884  1  0.828800  0.653000  0.568100  1
  C  C5885  1  0.328800  0.653000  0.931900  1
  C  C5886  1  0.171200  0.153000  0.568100  1
  C  C5887  1  0.328800  0.847000  0.068100  1
  C  C5888  1  0.171200  0.347000  0.431900  1
  C  C5889  1  0.650900  0.319300  0.082100  1
  C  C5890  1  0.849100  0.819300  0.417900  1
  C  C5891  1  0.650900  0.180700  0.917900  1
  C  C5892  1  0.849100  0.680700  0.582100  1
  C  C5893  1  0.349100  0.680700  0.917900  1
  C  C5894  1  0.150900  0.180700  0.582100  1
  C  C5895  1  0.349100  0.819300  0.082100  1
  C  C5896  1  0.150900  0.319300  0.417900  1
  C  C5897  1  0.798200  0.342600  0.069700  1
  C  C5898  1  0.701800  0.842600  0.430300  1
  C  C5899  1  0.798200  0.157400  0.930300  1
  C  C5900  1  0.701800  0.657400  0.569700  1
  C  C5901  1  0.201800  0.657400  0.930300  1
  C  C5902  1  0.298200  0.157400  0.569700  1
  C  C5903  1  0.201800  0.842600  0.069700  1
  C  C5904  1  0.298200  0.342600  0.430300  1
  C  C5905  1  0.800900  0.079400  0.245270  1
  C  C5906  1  0.699100  0.579400  0.254730  1
  C  C5907  1  0.800900  0.420600  0.754730  1
  C  C5908  1  0.699100  0.920600  0.745270  1
  C  C5909  1  0.199100  0.920600  0.754730  1
  C  C5910  1  0.300900  0.420600  0.745270  1
  C  C5911  1  0.199100  0.579400  0.245270  1
  C  C5912  1  0.300900  0.079400  0.254730  1
  C  C5913  1  0.791600  0.072500  0.267210  1
  C  C5914  1  0.708400  0.572500  0.232790  1
  C  C5915  1  0.791600  0.427500  0.732790  1
  C  C5916  1  0.708400  0.927500  0.767210  1
  C  C5917  1  0.208400  0.927500  0.732790  1
  C  C5918  1  0.291600  0.427500  0.767210  1
  C  C5919  1  0.208400  0.572500  0.267210  1
  C  C5920  1  0.291600  0.072500  0.232790  1
  C  C5921  1  0.331300  0.268200  0.034300  1
  C  C5922  1  0.168700  0.768200  0.465700  1
  C  C5923  1  0.331300  0.231800  0.965700  1
  C  C5924  1  0.168700  0.731800  0.534300  1
  C  C5925  1  0.668700  0.731800  0.965700  1
  C  C5926  1  0.831300  0.231800  0.534300  1
  C  C5927  1  0.668700  0.768200  0.034300  1
  C  C5928  1  0.831300  0.268200  0.465700  1
  C  C5929  1  0.350700  0.302600  0.047300  1
  C  C5930  1  0.149300  0.802600  0.452700  1
  C  C5931  1  0.350700  0.197400  0.952700  1
  C  C5932  1  0.149300  0.697400  0.547300  1
  C  C5933  1  0.649300  0.697400  0.952700  1
  C  C5934  1  0.850700  0.197400  0.547300  1
  C  C5935  1  0.649300  0.802600  0.047300  1
  C  C5936  1  0.850700  0.302600  0.452700  1
  N  N5937  1  0.286000  0.338700  0.101800  1
  N  N5938  1  0.214000  0.838700  0.398200  1
  N  N5939  1  0.286000  0.161300  0.898200  1
  N  N5940  1  0.214000  0.661300  0.601800  1
  N  N5941  1  0.714000  0.661300  0.898200  1
  N  N5942  1  0.786000  0.161300  0.601800  1
  N  N5943  1  0.714000  0.838700  0.101800  1
  N  N5944  1  0.786000  0.338700  0.398200  1
  N  N5945  1  0.373400  0.341000  0.109900  1
  N  N5946  1  0.126600  0.841000  0.390100  1
  N  N5947  1  0.373400  0.159000  0.890100  1
  N  N5948  1  0.126600  0.659000  0.609900  1
  N  N5949  1  0.626600  0.659000  0.890100  1
  N  N5950  1  0.873400  0.159000  0.609900  1
  N  N5951  1  0.626600  0.841000  0.109900  1
  N  N5952  1  0.873400  0.341000  0.390100  1
  N  N5953  1  0.474140  0.143040  0.992610  1
  N  N5954  1  0.025860  0.643040  0.507390  1
  N  N5955  1  0.474140  0.356960  0.007390  1
  N  N5956  1  0.025860  0.856960  0.492610  1
  N  N5957  1  0.525860  0.856960  0.007390  1
  N  N5958  1  0.974140  0.356960  0.492610  1
  N  N5959  1  0.525860  0.643040  0.992610  1
  N  N5960  1  0.974140  0.143040  0.507390  1
  N  N5961  1  0.422120  0.192250  0.994040  1
  N  N5962  1  0.077880  0.692250  0.505960  1
  N  N5963  1  0.422120  0.307750  0.005960  1
  N  N5964  1  0.077880  0.807750  0.494040  1
  N  N5965  1  0.577880  0.807750  0.005960  1
  N  N5966  1  0.922120  0.307750  0.494040  1
  N  N5967  1  0.577880  0.692250  0.994040  1
  N  N5968  1  0.922120  0.192250  0.505960  1
  N  N5969  1  0.627300  0.269080  0.961220  1
  N  N5970  1  0.872700  0.769080  0.538780  1
  N  N5971  1  0.627300  0.230920  0.038780  1
  N  N5972  1  0.872700  0.730920  0.461220  1
  N  N5973  1  0.372700  0.730920  0.038780  1
  N  N5974  1  0.127300  0.230920  0.461220  1
  N  N5975  1  0.372700  0.769080  0.961220  1
  N  N5976  1  0.127300  0.269080  0.538780  1
  N  N5977  1  0.544100  0.273360  0.965530  1
  N  N5978  1  0.955900  0.773360  0.534470  1
  N  N5979  1  0.544100  0.226640  0.034470  1
  N  N5980  1  0.955900  0.726640  0.465530  1
  N  N5981  1  0.455900  0.726640  0.034470  1
  N  N5982  1  0.044100  0.226640  0.465530  1
  N  N5983  1  0.455900  0.773360  0.965530  1
  N  N5984  1  0.044100  0.273360  0.534470  1
  N  N5985  1  0.524900  0.339520  0.946080  1
  N  N5986  1  0.975100  0.839520  0.553920  1
  N  N5987  1  0.524900  0.160480  0.053920  1
  N  N5988  1  0.975100  0.660480  0.446080  1
  N  N5989  1  0.475100  0.660480  0.053920  1
  N  N5990  1  0.024900  0.160480  0.446080  1
  N  N5991  1  0.475100  0.839520  0.946080  1
  N  N5992  1  0.024900  0.339520  0.553920  1
  N  N5993  1  0.554980  0.258170  0.155000  1
  N  N5994  1  0.945020  0.758170  0.345000  1
  N  N5995  1  0.554980  0.241830  0.845000  1
  N  N5996  1  0.945020  0.741830  0.655000  1
  N  N5997  1  0.445020  0.741830  0.845000  1
  N  N5998  1  0.054980  0.241830  0.655000  1
  N  N5999  1  0.445020  0.758170  0.155000  1
  N  N6000  1  0.054980  0.258170  0.345000  1
  N  N6001  1  0.595300  0.200700  0.178920  1
  N  N6002  1  0.904700  0.700700  0.321080  1
  N  N6003  1  0.595300  0.299300  0.821080  1
  N  N6004  1  0.904700  0.799300  0.678920  1
  N  N6005  1  0.404700  0.799300  0.821080  1
  N  N6006  1  0.095300  0.299300  0.678920  1
  N  N6007  1  0.404700  0.700700  0.178920  1
  N  N6008  1  0.095300  0.200700  0.321080  1
  N  N6009  1  0.651950  0.071000  0.036950  1
  N  N6010  1  0.848050  0.571000  0.463050  1
  N  N6011  1  0.651950  0.429000  0.963050  1
  N  N6012  1  0.848050  0.929000  0.536950  1
  N  N6013  1  0.348050  0.929000  0.963050  1
  N  N6014  1  0.151950  0.429000  0.536950  1
  N  N6015  1  0.348050  0.571000  0.036950  1
  N  N6016  1  0.151950  0.071000  0.463050  1
  N  N6017  1  0.598740  0.051790  0.005120  1
  N  N6018  1  0.901260  0.551790  0.494880  1
  N  N6019  1  0.598740  0.448210  0.994880  1
  N  N6020  1  0.901260  0.948210  0.505120  1
  N  N6021  1  0.401260  0.948210  0.994880  1
  N  N6022  1  0.098740  0.448210  0.505120  1
  N  N6023  1  0.401260  0.551790  0.005120  1
  N  N6024  1  0.098740  0.051790  0.494880  1
  N  N6025  1  0.116600  0.314400  0.152170  1
  N  N6026  1  0.383400  0.814400  0.347830  1
  N  N6027  1  0.116600  0.185600  0.847830  1
  N  N6028  1  0.383400  0.685600  0.652170  1
  N  N6029  1  0.883400  0.685600  0.847830  1
  N  N6030  1  0.616600  0.185600  0.652170  1
  N  N6031  1  0.883400  0.814400  0.152170  1
  N  N6032  1  0.616600  0.314400  0.347830  1
  N  N6033  1  0.075200  0.282400  0.116460  1
  N  N6034  1  0.424800  0.782400  0.383540  1
  N  N6035  1  0.075200  0.217600  0.883540  1
  N  N6036  1  0.424800  0.717600  0.616460  1
  N  N6037  1  0.924800  0.717600  0.883540  1
  N  N6038  1  0.575200  0.217600  0.616460  1
  N  N6039  1  0.924800  0.782400  0.116460  1
  N  N6040  1  0.575200  0.282400  0.383540  1
  N  N6041  1  0.022300  0.142600  0.047180  1
  N  N6042  1  0.477700  0.642600  0.452820  1
  N  N6043  1  0.022300  0.357400  0.952820  1
  N  N6044  1  0.477700  0.857400  0.547180  1
  N  N6045  1  0.977700  0.857400  0.952820  1
  N  N6046  1  0.522300  0.357400  0.547180  1
  N  N6047  1  0.977700  0.642600  0.047180  1
  N  N6048  1  0.522300  0.142600  0.452820  1
  N  N6049  1  0.013500  0.066200  0.026330  1
  N  N6050  1  0.486500  0.566200  0.473670  1
  N  N6051  1  0.013500  0.433800  0.973670  1
  N  N6052  1  0.486500  0.933800  0.526330  1
  N  N6053  1  0.986500  0.933800  0.973670  1
  N  N6054  1  0.513500  0.433800  0.526330  1
  N  N6055  1  0.986500  0.566200  0.026330  1
  N  N6056  1  0.513500  0.066200  0.473670  1
  N  N6057  1  0.773380  0.016140  0.118900  1
  N  N6058  1  0.726620  0.516140  0.381100  1
  N  N6059  1  0.773380  0.483860  0.881100  1
  N  N6060  1  0.726620  0.983860  0.618900  1
  N  N6061  1  0.226620  0.983860  0.881100  1
  N  N6062  1  0.273380  0.483860  0.618900  1
  N  N6063  1  0.226620  0.516140  0.118900  1
  N  N6064  1  0.273380  0.016140  0.381100  1
  N  N6065  1  0.750500  0.028630  0.160020  1
  N  N6066  1  0.749500  0.528630  0.339980  1
  N  N6067  1  0.750500  0.471370  0.839980  1
  N  N6068  1  0.749500  0.971370  0.660020  1
  N  N6069  1  0.249500  0.971370  0.839980  1
  N  N6070  1  0.250500  0.471370  0.660020  1
  N  N6071  1  0.249500  0.528630  0.160020  1
  N  N6072  1  0.250500  0.028630  0.339980  1
  N  N6073  1  0.814410  0.151900  0.191620  1
  N  N6074  1  0.685590  0.651900  0.308380  1
  N  N6075  1  0.814410  0.348100  0.808380  1
  N  N6076  1  0.685590  0.848100  0.691620  1
  N  N6077  1  0.185590  0.848100  0.808380  1
  N  N6078  1  0.314410  0.348100  0.691620  1
  N  N6079  1  0.185590  0.651900  0.191620  1
  N  N6080  1  0.314410  0.151900  0.308380  1
  N  N6081  1  0.849410  0.208600  0.201070  1
  N  N6082  1  0.650590  0.708600  0.298930  1
  N  N6083  1  0.849410  0.291400  0.798930  1
  N  N6084  1  0.650590  0.791400  0.701070  1
  N  N6085  1  0.150590  0.791400  0.798930  1
  N  N6086  1  0.349410  0.291400  0.701070  1
  N  N6087  1  0.150590  0.708600  0.201070  1
  N  N6088  1  0.349410  0.208600  0.298930  1
  N  N6089  1  0.672960  0.254140  0.136140  1
  N  N6090  1  0.827040  0.754140  0.363860  1
  N  N6091  1  0.672960  0.245860  0.863860  1
  N  N6092  1  0.827040  0.745860  0.636140  1
  N  N6093  1  0.327040  0.745860  0.863860  1
  N  N6094  1  0.172960  0.245860  0.636140  1
  N  N6095  1  0.327040  0.754140  0.136140  1
  N  N6096  1  0.172960  0.254140  0.363860  1
  N  N6097  1  0.730780  0.273390  0.162160  1
  N  N6098  1  0.769220  0.773390  0.337840  1
  N  N6099  1  0.730780  0.226610  0.837840  1
  N  N6100  1  0.769220  0.726610  0.662160  1
  N  N6101  1  0.269220  0.726610  0.837840  1
  N  N6102  1  0.230780  0.226610  0.662160  1
  N  N6103  1  0.269220  0.773390  0.162160  1
  N  N6104  1  0.230780  0.273390  0.337840  1
  N  N6105  1  0.720330  0.352740  0.167170  1
  N  N6106  1  0.779670  0.852740  0.332830  1
  N  N6107  1  0.720330  0.147260  0.832830  1
  N  N6108  1  0.779670  0.647260  0.667170  1
  N  N6109  1  0.279670  0.647260  0.832830  1
  N  N6110  1  0.220330  0.147260  0.667170  1
  N  N6111  1  0.279670  0.852740  0.167170  1
  N  N6112  1  0.220330  0.352740  0.332830  1
  N  N6113  1  0.519800  0.305700  0.222310  1
  N  N6114  1  0.980200  0.805700  0.277690  1
  N  N6115  1  0.519800  0.194300  0.777690  1
  N  N6116  1  0.980200  0.694300  0.722310  1
  N  N6117  1  0.480200  0.694300  0.777690  1
  N  N6118  1  0.019800  0.194300  0.722310  1
  N  N6119  1  0.480200  0.805700  0.222310  1
  N  N6120  1  0.019800  0.305700  0.277690  1
  N  N6121  1  0.458300  0.359400  0.205450  1
  N  N6122  1  0.041700  0.859400  0.294550  1
  N  N6123  1  0.458300  0.140600  0.794550  1
  N  N6124  1  0.041700  0.640600  0.705450  1
  N  N6125  1  0.541700  0.640600  0.794550  1
  N  N6126  1  0.958300  0.140600  0.705450  1
  N  N6127  1  0.541700  0.859400  0.205450  1
  N  N6128  1  0.958300  0.359400  0.294550  1
  N  N6129  1  0.676800  0.394800  0.098860  1
  N  N6130  1  0.823200  0.894800  0.401140  1
  N  N6131  1  0.676800  0.105200  0.901140  1
  N  N6132  1  0.823200  0.605200  0.598860  1
  N  N6133  1  0.323200  0.605200  0.901140  1
  N  N6134  1  0.176800  0.105200  0.598860  1
  N  N6135  1  0.323200  0.894800  0.098860  1
  N  N6136  1  0.176800  0.394800  0.401140  1
  N  N6137  1  0.853590  0.342630  0.147680  1
  N  N6138  1  0.646410  0.842630  0.352320  1
  N  N6139  1  0.853590  0.157370  0.852320  1
  N  N6140  1  0.646410  0.657370  0.647680  1
  N  N6141  1  0.146410  0.657370  0.852320  1
  N  N6142  1  0.353590  0.157370  0.647680  1
  N  N6143  1  0.146410  0.842630  0.147680  1
  N  N6144  1  0.353590  0.342630  0.352320  1
  N  N6145  1  0.877580  0.309070  0.175060  1
  N  N6146  1  0.622420  0.809070  0.324940  1
  N  N6147  1  0.877580  0.190930  0.824940  1
  N  N6148  1  0.622420  0.690930  0.675060  1
  N  N6149  1  0.122420  0.690930  0.824940  1
  N  N6150  1  0.377580  0.190930  0.675060  1
  N  N6151  1  0.122420  0.809070  0.175060  1
  N  N6152  1  0.377580  0.309070  0.324940  1
  N  N6153  1  0.801600  0.170200  0.098790  1
  N  N6154  1  0.698400  0.670200  0.401210  1
  N  N6155  1  0.801600  0.329800  0.901210  1
  N  N6156  1  0.698400  0.829800  0.598790  1
  N  N6157  1  0.198400  0.829800  0.901210  1
  N  N6158  1  0.301600  0.329800  0.598790  1
  N  N6159  1  0.198400  0.670200  0.098790  1
  N  N6160  1  0.301600  0.170200  0.401210  1
  N  N6161  1  0.847670  0.189250  0.129300  1
  N  N6162  1  0.652330  0.689250  0.370700  1
  N  N6163  1  0.847670  0.310750  0.870700  1
  N  N6164  1  0.652330  0.810750  0.629300  1
  N  N6165  1  0.152330  0.810750  0.870700  1
  N  N6166  1  0.347670  0.310750  0.629300  1
  N  N6167  1  0.152330  0.689250  0.129300  1
  N  N6168  1  0.347670  0.189250  0.370700  1
  N  N6169  1  0.885950  0.119790  0.137760  1
  N  N6170  1  0.614050  0.619790  0.362240  1
  N  N6171  1  0.885950  0.380210  0.862240  1
  N  N6172  1  0.614050  0.880210  0.637760  1
  N  N6173  1  0.114050  0.880210  0.862240  1
  N  N6174  1  0.385950  0.380210  0.637760  1
  N  N6175  1  0.114050  0.619790  0.137760  1
  N  N6176  1  0.385950  0.119790  0.362240  1
  N  N6177  1  0.749700  0.274700  0.308970  1
  N  N6178  1  0.750300  0.774700  0.191030  1
  N  N6179  1  0.749700  0.225300  0.691030  1
  N  N6180  1  0.750300  0.725300  0.808970  1
  N  N6181  1  0.250300  0.725300  0.691030  1
  N  N6182  1  0.249700  0.225300  0.808970  1
  N  N6183  1  0.250300  0.774700  0.308970  1
  N  N6184  1  0.249700  0.274700  0.191030  1
  N  N6185  1  0.681540  0.261130  0.283040  1
  N  N6186  1  0.818460  0.761130  0.216960  1
  N  N6187  1  0.681540  0.238870  0.716960  1
  N  N6188  1  0.818460  0.738870  0.783040  1
  N  N6189  1  0.318460  0.738870  0.716960  1
  N  N6190  1  0.181540  0.238870  0.783040  1
  N  N6191  1  0.318460  0.761130  0.283040  1
  N  N6192  1  0.181540  0.261130  0.216960  1
  N  N6193  1  0.772720  0.408690  0.094700  1
  N  N6194  1  0.727280  0.908690  0.405300  1
  N  N6195  1  0.772720  0.091310  0.905300  1
  N  N6196  1  0.727280  0.591310  0.594700  1
  N  N6197  1  0.227280  0.591310  0.905300  1
  N  N6198  1  0.272720  0.091310  0.594700  1
  N  N6199  1  0.227280  0.908690  0.094700  1
  N  N6200  1  0.272720  0.408690  0.405300  1
  N  N6201  1  0.290800  0.339500  0.100000  1
  N  N6202  1  0.209200  0.839500  0.400000  1
  N  N6203  1  0.290800  0.160500  0.900000  1
  N  N6204  1  0.209200  0.660500  0.600000  1
  N  N6205  1  0.709200  0.660500  0.900000  1
  N  N6206  1  0.790800  0.160500  0.600000  1
  N  N6207  1  0.709200  0.839500  0.100000  1
  N  N6208  1  0.790800  0.339500  0.400000  1
  N  N6209  1  0.382900  0.335000  0.111350  1
  N  N6210  1  0.117100  0.835000  0.388650  1
  N  N6211  1  0.382900  0.165000  0.888650  1
  N  N6212  1  0.117100  0.665000  0.611350  1
  N  N6213  1  0.617100  0.665000  0.888650  1
  N  N6214  1  0.882900  0.165000  0.611350  1
  N  N6215  1  0.617100  0.835000  0.111350  1
  N  N6216  1  0.882900  0.335000  0.388650  1
  N  N6217  1  0.084400  0.281000  0.115900  1
  N  N6218  1  0.415600  0.781000  0.384100  1
  N  N6219  1  0.084400  0.219000  0.884100  1
  N  N6220  1  0.415600  0.719000  0.615900  1
  N  N6221  1  0.915600  0.719000  0.884100  1
  N  N6222  1  0.584400  0.219000  0.615900  1
  N  N6223  1  0.915600  0.781000  0.115900  1
  N  N6224  1  0.584400  0.281000  0.384100  1
  N  N6225  1  0.052300  0.125760  0.047180  1
  N  N6226  1  0.447700  0.625760  0.452820  1
  N  N6227  1  0.052300  0.374240  0.952820  1
  N  N6228  1  0.447700  0.874240  0.547180  1
  N  N6229  1  0.947700  0.874240  0.952820  1
  N  N6230  1  0.552300  0.374240  0.547180  1
  N  N6231  1  0.947700  0.625760  0.047180  1
  N  N6232  1  0.552300  0.125760  0.452820  1
  N  N6233  1  0.041000  0.047400  0.027560  1
  N  N6234  1  0.459000  0.547400  0.472440  1
  N  N6235  1  0.041000  0.452600  0.972440  1
  N  N6236  1  0.459000  0.952600  0.527560  1
  N  N6237  1  0.959000  0.952600  0.972440  1
  N  N6238  1  0.541000  0.452600  0.527560  1
  N  N6239  1  0.959000  0.547400  0.027560  1
  N  N6240  1  0.541000  0.047400  0.472440  1
  N  N6241  1  0.688200  0.392600  0.095490  1
  N  N6242  1  0.811800  0.892600  0.404510  1
  N  N6243  1  0.688200  0.107400  0.904510  1
  N  N6244  1  0.811800  0.607400  0.595490  1
  N  N6245  1  0.311800  0.607400  0.904510  1
  N  N6246  1  0.188200  0.107400  0.595490  1
  N  N6247  1  0.311800  0.892600  0.095490  1
  N  N6248  1  0.188200  0.392600  0.404510  1
  Cl  Cl6249  1  0.593310  0.351120  0.978600  1
  Cl  Cl6250  1  0.906690  0.851120  0.521400  1
  Cl  Cl6251  1  0.593310  0.148880  0.021400  1
  Cl  Cl6252  1  0.906690  0.648880  0.478600  1
  Cl  Cl6253  1  0.406690  0.648880  0.021400  1
  Cl  Cl6254  1  0.093310  0.148880  0.478600  1
  Cl  Cl6255  1  0.406690  0.851120  0.978600  1
  Cl  Cl6256  1  0.093310  0.351120  0.521400  1
  Cl  Cl6257  1  0.627420  0.352960  0.930590  1
  Cl  Cl6258  1  0.872580  0.852960  0.569410  1
  Cl  Cl6259  1  0.627420  0.147040  0.069410  1
  Cl  Cl6260  1  0.872580  0.647040  0.430590  1
  Cl  Cl6261  1  0.372580  0.647040  0.069410  1
  Cl  Cl6262  1  0.127420  0.147040  0.430590  1
  Cl  Cl6263  1  0.372580  0.852960  0.930590  1
  Cl  Cl6264  1  0.127420  0.352960  0.569410  1
  Cl  Cl6265  1  0.566230  0.266030  0.923370  1
  Cl  Cl6266  1  0.933770  0.766030  0.576630  1
  Cl  Cl6267  1  0.566230  0.233970  0.076630  1
  Cl  Cl6268  1  0.933770  0.733970  0.423370  1
  Cl  Cl6269  1  0.433770  0.733970  0.076630  1
  Cl  Cl6270  1  0.066230  0.233970  0.423370  1
  Cl  Cl6271  1  0.433770  0.766030  0.923370  1
  Cl  Cl6272  1  0.066230  0.266030  0.576630  1
  Cl  Cl6273  1  0.736650  0.324670  0.124080  1
  Cl  Cl6274  1  0.763350  0.824670  0.375920  1
  Cl  Cl6275  1  0.736650  0.175330  0.875920  1
  Cl  Cl6276  1  0.763350  0.675330  0.624080  1
  Cl  Cl6277  1  0.263350  0.675330  0.875920  1
  Cl  Cl6278  1  0.236650  0.175330  0.624080  1
  Cl  Cl6279  1  0.263350  0.824670  0.124080  1
  Cl  Cl6280  1  0.236650  0.324670  0.375920  1
  Cl  Cl6281  1  0.635450  0.353650  0.135150  1
  Cl  Cl6282  1  0.864550  0.853650  0.364850  1
  Cl  Cl6283  1  0.635450  0.146350  0.864850  1
  Cl  Cl6284  1  0.864550  0.646350  0.635150  1
  Cl  Cl6285  1  0.364550  0.646350  0.864850  1
  Cl  Cl6286  1  0.135450  0.146350  0.635150  1
  Cl  Cl6287  1  0.364550  0.853650  0.135150  1
  Cl  Cl6288  1  0.135450  0.353650  0.364850  1
  Cl  Cl6289  1  0.644080  0.296270  0.176940  1
  Cl  Cl6290  1  0.855920  0.796270  0.323060  1
  Cl  Cl6291  1  0.644080  0.203730  0.823060  1
  Cl  Cl6292  1  0.855920  0.703730  0.676940  1
  Cl  Cl6293  1  0.355920  0.703730  0.823060  1
  Cl  Cl6294  1  0.144080  0.203730  0.676940  1
  Cl  Cl6295  1  0.355920  0.796270  0.176940  1
  Cl  Cl6296  1  0.144080  0.296270  0.323060  1
  Cl  Cl6297  1  0.788100  0.115600  0.135960  1
  Cl  Cl6298  1  0.711900  0.615600  0.364040  1
  Cl  Cl6299  1  0.788100  0.384400  0.864040  1
  Cl  Cl6300  1  0.711900  0.884400  0.635960  1
  Cl  Cl6301  1  0.211900  0.884400  0.864040  1
  Cl  Cl6302  1  0.288100  0.384400  0.635960  1
  Cl  Cl6303  1  0.211900  0.615600  0.135960  1
  Cl  Cl6304  1  0.288100  0.115600  0.364040  1
  Cl  Cl6305  1  0.842220  0.072110  0.096830  1
  Cl  Cl6306  1  0.657780  0.572110  0.403170  1
  Cl  Cl6307  1  0.842220  0.427890  0.903170  1
  Cl  Cl6308  1  0.657780  0.927890  0.596830  1
  Cl  Cl6309  1  0.157780  0.927890  0.903170  1
  Cl  Cl6310  1  0.342220  0.427890  0.596830  1
  Cl  Cl6311  1  0.157780  0.572110  0.096830  1
  Cl  Cl6312  1  0.342220  0.072110  0.403170  1
  Cl  Cl6313  1  0.901630  0.159210  0.095850  1
  Cl  Cl6314  1  0.598370  0.659210  0.404150  1
  Cl  Cl6315  1  0.901630  0.340790  0.904150  1
  Cl  Cl6316  1  0.598370  0.840790  0.595850  1
  Cl  Cl6317  1  0.098370  0.840790  0.904150  1
  Cl  Cl6318  1  0.401630  0.340790  0.595850  1
  Cl  Cl6319  1  0.098370  0.659210  0.095850  1
  Cl  Cl6320  1  0.401630  0.159210  0.404150  1
  O  O6321  1  0.295600  0.201700  0.073300  1
  O  O6322  1  0.204400  0.701700  0.426700  1
  O  O6323  1  0.295600  0.298300  0.926700  1
  O  O6324  1  0.204400  0.798300  0.573300  1
  O  O6325  1  0.704400  0.798300  0.926700  1
  O  O6326  1  0.795600  0.298300  0.573300  1
  O  O6327  1  0.704400  0.701700  0.073300  1
  O  O6328  1  0.795600  0.201700  0.426700  1
  O  O6329  1  0.395300  0.202600  0.081200  1
  O  O6330  1  0.104700  0.702600  0.418800  1
  O  O6331  1  0.395300  0.297400  0.918800  1
  O  O6332  1  0.104700  0.797400  0.581200  1
  O  O6333  1  0.604700  0.797400  0.918800  1
  O  O6334  1  0.895300  0.297400  0.581200  1
  O  O6335  1  0.604700  0.702600  0.081200  1
  O  O6336  1  0.895300  0.202600  0.418800  1
  O  O6337  1  0.248900  0.339200  0.073480  1
  O  O6338  1  0.251100  0.839200  0.426520  1
  O  O6339  1  0.248900  0.160800  0.926520  1
  O  O6340  1  0.251100  0.660800  0.573480  1
  O  O6341  1  0.751100  0.660800  0.926520  1
  O  O6342  1  0.748900  0.160800  0.573480  1
  O  O6343  1  0.751100  0.839200  0.073480  1
  O  O6344  1  0.748900  0.339200  0.426520  1
  O  O6345  1  0.350300  0.389500  0.089300  1
  O  O6346  1  0.149700  0.889500  0.410700  1
  O  O6347  1  0.350300  0.110500  0.910700  1
  O  O6348  1  0.149700  0.610500  0.589300  1
  O  O6349  1  0.649700  0.610500  0.910700  1
  O  O6350  1  0.850300  0.110500  0.589300  1
  O  O6351  1  0.649700  0.889500  0.089300  1
  O  O6352  1  0.850300  0.389500  0.410700  1
  O  O6353  1  0.322800  0.096010  0.026400  1
  O  O6354  1  0.177200  0.596010  0.473600  1
  O  O6355  1  0.322800  0.403990  0.973600  1
  O  O6356  1  0.177200  0.903990  0.526400  1
  O  O6357  1  0.677200  0.903990  0.973600  1
  O  O6358  1  0.822800  0.403990  0.526400  1
  O  O6359  1  0.677200  0.596010  0.026400  1
  O  O6360  1  0.822800  0.096010  0.473600  1
  O  O6361  1  0.518590  0.148350  0.108670  1
  O  O6362  1  0.981410  0.648350  0.391330  1
  O  O6363  1  0.518590  0.351650  0.891330  1
  O  O6364  1  0.981410  0.851650  0.608670  1
  O  O6365  1  0.481410  0.851650  0.891330  1
  O  O6366  1  0.018590  0.351650  0.608670  1
  O  O6367  1  0.481410  0.648350  0.108670  1
  O  O6368  1  0.018590  0.148350  0.391330  1
  O  O6369  1  0.572240  0.093450  0.131030  1
  O  O6370  1  0.927760  0.593450  0.368970  1
  O  O6371  1  0.572240  0.406550  0.868970  1
  O  O6372  1  0.927760  0.906550  0.631030  1
  O  O6373  1  0.427760  0.906550  0.868970  1
  O  O6374  1  0.072240  0.406550  0.631030  1
  O  O6375  1  0.427760  0.593450  0.131030  1
  O  O6376  1  0.072240  0.093450  0.368970  1
  O  O6377  1  0.562230  0.989720  0.081310  1
  O  O6378  1  0.937770  0.489720  0.418690  1
  O  O6379  1  0.562230  0.510280  0.918690  1
  O  O6380  1  0.937770  0.010280  0.581310  1
  O  O6381  1  0.437770  0.010280  0.918690  1
  O  O6382  1  0.062230  0.510280  0.581310  1
  O  O6383  1  0.437770  0.489720  0.081310  1
  O  O6384  1  0.062230  0.989720  0.418690  1
  O  O6385  1  0.507320  0.972500  0.050070  1
  O  O6386  1  0.992680  0.472500  0.449930  1
  O  O6387  1  0.507320  0.527500  0.949930  1
  O  O6388  1  0.992680  0.027500  0.550070  1
  O  O6389  1  0.492680  0.027500  0.949930  1
  O  O6390  1  0.007320  0.527500  0.550070  1
  O  O6391  1  0.492680  0.472500  0.050070  1
  O  O6392  1  0.007320  0.972500  0.449930  1
  O  O6393  1  0.382720  0.035410  0.021390  1
  O  O6394  1  0.117280  0.535410  0.478610  1
  O  O6395  1  0.382720  0.464590  0.978610  1
  O  O6396  1  0.117280  0.964590  0.521390  1
  O  O6397  1  0.617280  0.964590  0.978610  1
  O  O6398  1  0.882720  0.464590  0.521390  1
  O  O6399  1  0.617280  0.535410  0.021390  1
  O  O6400  1  0.882720  0.035410  0.478610  1
  O  O6401  1  0.513000  0.285600  0.131210  1
  O  O6402  1  0.987000  0.785600  0.368790  1
  O  O6403  1  0.513000  0.214400  0.868790  1
  O  O6404  1  0.987000  0.714400  0.631210  1
  O  O6405  1  0.487000  0.714400  0.868790  1
  O  O6406  1  0.013000  0.214400  0.631210  1
  O  O6407  1  0.487000  0.785600  0.131210  1
  O  O6408  1  0.013000  0.285600  0.368790  1
  O  O6409  1  0.662680  0.174300  0.177440  1
  O  O6410  1  0.837320  0.674300  0.322560  1
  O  O6411  1  0.662680  0.325700  0.822560  1
  O  O6412  1  0.837320  0.825700  0.677440  1
  O  O6413  1  0.337320  0.825700  0.822560  1
  O  O6414  1  0.162680  0.325700  0.677440  1
  O  O6415  1  0.337320  0.674300  0.177440  1
  O  O6416  1  0.162680  0.174300  0.322560  1
  O  O6417  1  0.700200  0.025600  0.049560  1
  O  O6418  1  0.799800  0.525600  0.450440  1
  O  O6419  1  0.700200  0.474400  0.950440  1
  O  O6420  1  0.799800  0.974400  0.549560  1
  O  O6421  1  0.299800  0.974400  0.950440  1
  O  O6422  1  0.200200  0.474400  0.549560  1
  O  O6423  1  0.299800  0.525600  0.049560  1
  O  O6424  1  0.200200  0.025600  0.450440  1
  O  O6425  1  0.534720  0.077280  0.995340  1
  O  O6426  1  0.965280  0.577280  0.504660  1
  O  O6427  1  0.534720  0.422720  0.004660  1
  O  O6428  1  0.965280  0.922720  0.495340  1
  O  O6429  1  0.465280  0.922720  0.004660  1
  O  O6430  1  0.034720  0.422720  0.495340  1
  O  O6431  1  0.465280  0.577280  0.995340  1
  O  O6432  1  0.034720  0.077280  0.504660  1
  O  O6433  1  0.367100  0.421700  0.039620  1
  O  O6434  1  0.132900  0.921700  0.460380  1
  O  O6435  1  0.367100  0.078300  0.960380  1
  O  O6436  1  0.132900  0.578300  0.539620  1
  O  O6437  1  0.632900  0.578300  0.960380  1
  O  O6438  1  0.867100  0.078300  0.539620  1
  O  O6439  1  0.632900  0.921700  0.039620  1
  O  O6440  1  0.867100  0.421700  0.460380  1
  O  O6441  1  0.061600  0.347900  0.125830  1
  O  O6442  1  0.438400  0.847900  0.374170  1
  O  O6443  1  0.061600  0.152100  0.874170  1
  O  O6444  1  0.438400  0.652100  0.625830  1
  O  O6445  1  0.938400  0.652100  0.874170  1
  O  O6446  1  0.561600  0.152100  0.625830  1
  O  O6447  1  0.938400  0.847900  0.125830  1
  O  O6448  1  0.561600  0.347900  0.374170  1
  O  O6449  1  0.974100  0.075900  0.107430  1
  O  O6450  1  0.525900  0.575900  0.392570  1
  O  O6451  1  0.974100  0.424100  0.892570  1
  O  O6452  1  0.525900  0.924100  0.607430  1
  O  O6453  1  0.025900  0.924100  0.892570  1
  O  O6454  1  0.474100  0.424100  0.607430  1
  O  O6455  1  0.025900  0.575900  0.107430  1
  O  O6456  1  0.474100  0.075900  0.392570  1
  O  O6457  1  0.968800  0.999300  0.086940  1
  O  O6458  1  0.531200  0.499300  0.413060  1
  O  O6459  1  0.968800  0.500700  0.913060  1
  O  O6460  1  0.531200  0.000700  0.586940  1
  O  O6461  1  0.031200  0.000700  0.913060  1
  O  O6462  1  0.468800  0.500700  0.586940  1
  O  O6463  1  0.031200  0.499300  0.086940  1
  O  O6464  1  0.468800  0.999300  0.413060  1
  O  O6465  1  0.979400  0.193900  0.059580  1
  O  O6466  1  0.520600  0.693900  0.440420  1
  O  O6467  1  0.979400  0.306100  0.940420  1
  O  O6468  1  0.520600  0.806100  0.559580  1
  O  O6469  1  0.020600  0.806100  0.940420  1
  O  O6470  1  0.479400  0.306100  0.559580  1
  O  O6471  1  0.020600  0.693900  0.059580  1
  O  O6472  1  0.479400  0.193900  0.440420  1
  O  O6473  1  0.980300  0.124900  0.014200  1
  O  O6474  1  0.519700  0.624900  0.485800  1
  O  O6475  1  0.980300  0.375100  0.985800  1
  O  O6476  1  0.519700  0.875100  0.514200  1
  O  O6477  1  0.019700  0.875100  0.985800  1
  O  O6478  1  0.480300  0.375100  0.514200  1
  O  O6479  1  0.019700  0.624900  0.014200  1
  O  O6480  1  0.480300  0.124900  0.485800  1
  O  O6481  1  0.893740  0.934810  0.139070  1
  O  O6482  1  0.606260  0.434810  0.360930  1
  O  O6483  1  0.893740  0.565190  0.860930  1
  O  O6484  1  0.606260  0.065190  0.639070  1
  O  O6485  1  0.106260  0.065190  0.860930  1
  O  O6486  1  0.393740  0.565190  0.639070  1
  O  O6487  1  0.106260  0.434810  0.139070  1
  O  O6488  1  0.393740  0.934810  0.360930  1
  O  O6489  1  0.876790  0.950950  0.178900  1
  O  O6490  1  0.623210  0.450950  0.321100  1
  O  O6491  1  0.876790  0.549050  0.821100  1
  O  O6492  1  0.623210  0.049050  0.678900  1
  O  O6493  1  0.123210  0.049050  0.821100  1
  O  O6494  1  0.376790  0.549050  0.678900  1
  O  O6495  1  0.123210  0.450950  0.178900  1
  O  O6496  1  0.376790  0.950950  0.321100  1
  O  O6497  1  0.708510  0.991300  0.127620  1
  O  O6498  1  0.791490  0.491300  0.372380  1
  O  O6499  1  0.708510  0.508700  0.872380  1
  O  O6500  1  0.791490  0.008700  0.627620  1
  O  O6501  1  0.291490  0.008700  0.872380  1
  O  O6502  1  0.208510  0.508700  0.627620  1
  O  O6503  1  0.291490  0.491300  0.127620  1
  O  O6504  1  0.208510  0.991300  0.372380  1
  O  O6505  1  0.777930  0.074410  0.182900  1
  O  O6506  1  0.722070  0.574410  0.317100  1
  O  O6507  1  0.777930  0.425590  0.817100  1
  O  O6508  1  0.722070  0.925590  0.682900  1
  O  O6509  1  0.222070  0.925590  0.817100  1
  O  O6510  1  0.277930  0.425590  0.682900  1
  O  O6511  1  0.222070  0.574410  0.182900  1
  O  O6512  1  0.277930  0.074410  0.317100  1
  O  O6513  1  0.913770  0.058200  0.225470  1
  O  O6514  1  0.586230  0.558200  0.274530  1
  O  O6515  1  0.913770  0.441800  0.774530  1
  O  O6516  1  0.586230  0.941800  0.725470  1
  O  O6517  1  0.086230  0.941800  0.774530  1
  O  O6518  1  0.413770  0.441800  0.725470  1
  O  O6519  1  0.086230  0.558200  0.225470  1
  O  O6520  1  0.413770  0.058200  0.274530  1
  O  O6521  1  0.963210  0.126150  0.231860  1
  O  O6522  1  0.536790  0.626150  0.268140  1
  O  O6523  1  0.963210  0.373850  0.768140  1
  O  O6524  1  0.536790  0.873850  0.731860  1
  O  O6525  1  0.036790  0.873850  0.768140  1
  O  O6526  1  0.463210  0.373850  0.731860  1
  O  O6527  1  0.036790  0.626150  0.231860  1
  O  O6528  1  0.463210  0.126150  0.268140  1
  O  O6529  1  0.054430  0.205230  0.190090  1
  O  O6530  1  0.445570  0.705230  0.309910  1
  O  O6531  1  0.054430  0.294770  0.809910  1
  O  O6532  1  0.445570  0.794770  0.690090  1
  O  O6533  1  0.945570  0.794770  0.809910  1
  O  O6534  1  0.554430  0.294770  0.690090  1
  O  O6535  1  0.945570  0.705230  0.190090  1
  O  O6536  1  0.554430  0.205230  0.309910  1
  O  O6537  1  0.013910  0.174320  0.154360  1
  O  O6538  1  0.486090  0.674320  0.345640  1
  O  O6539  1  0.013910  0.325680  0.845640  1
  O  O6540  1  0.486090  0.825680  0.654360  1
  O  O6541  1  0.986090  0.825680  0.845640  1
  O  O6542  1  0.513910  0.325680  0.654360  1
  O  O6543  1  0.986090  0.674320  0.154360  1
  O  O6544  1  0.513910  0.174320  0.345640  1
  O  O6545  1  0.171700  0.288540  0.169830  1
  O  O6546  1  0.328300  0.788540  0.330170  1
  O  O6547  1  0.171700  0.211460  0.830170  1
  O  O6548  1  0.328300  0.711460  0.669830  1
  O  O6549  1  0.828300  0.711460  0.830170  1
  O  O6550  1  0.671700  0.211460  0.669830  1
  O  O6551  1  0.828300  0.788540  0.169830  1
  O  O6552  1  0.671700  0.288540  0.330170  1
  O  O6553  1  0.568800  0.306900  0.246890  1
  O  O6554  1  0.931200  0.806900  0.253110  1
  O  O6555  1  0.568800  0.193100  0.753110  1
  O  O6556  1  0.931200  0.693100  0.746890  1
  O  O6557  1  0.431200  0.693100  0.753110  1
  O  O6558  1  0.068800  0.193100  0.746890  1
  O  O6559  1  0.431200  0.806900  0.246890  1
  O  O6560  1  0.068800  0.306900  0.253110  1
  O  O6561  1  0.457800  0.292900  0.195700  1
  O  O6562  1  0.042200  0.792900  0.304300  1
  O  O6563  1  0.457800  0.207100  0.804300  1
  O  O6564  1  0.042200  0.707100  0.695700  1
  O  O6565  1  0.542200  0.707100  0.804300  1
  O  O6566  1  0.957800  0.207100  0.695700  1
  O  O6567  1  0.542200  0.792900  0.195700  1
  O  O6568  1  0.957800  0.292900  0.304300  1
  O  O6569  1  0.701000  0.398600  0.067410  1
  O  O6570  1  0.799000  0.898600  0.432590  1
  O  O6571  1  0.701000  0.101400  0.932590  1
  O  O6572  1  0.799000  0.601400  0.567410  1
  O  O6573  1  0.299000  0.601400  0.932590  1
  O  O6574  1  0.201000  0.101400  0.567410  1
  O  O6575  1  0.299000  0.898600  0.067410  1
  O  O6576  1  0.201000  0.398600  0.432590  1
  O  O6577  1  0.870640  0.480960  0.178210  1
  O  O6578  1  0.629360  0.980960  0.321790  1
  O  O6579  1  0.870640  0.019040  0.821790  1
  O  O6580  1  0.629360  0.519040  0.678210  1
  O  O6581  1  0.129360  0.519040  0.821790  1
  O  O6582  1  0.370640  0.019040  0.678210  1
  O  O6583  1  0.129360  0.980960  0.178210  1
  O  O6584  1  0.370640  0.480960  0.321790  1
  O  O6585  1  0.890200  0.440190  0.212930  1
  O  O6586  1  0.609800  0.940190  0.287070  1
  O  O6587  1  0.890200  0.059810  0.787070  1
  O  O6588  1  0.609800  0.559810  0.712930  1
  O  O6589  1  0.109800  0.559810  0.787070  1
  O  O6590  1  0.390200  0.059810  0.712930  1
  O  O6591  1  0.109800  0.940190  0.212930  1
  O  O6592  1  0.390200  0.440190  0.287070  1
  O  O6593  1  0.813140  0.368310  0.263030  1
  O  O6594  1  0.686860  0.868310  0.236970  1
  O  O6595  1  0.813140  0.131690  0.736970  1
  O  O6596  1  0.686860  0.631690  0.763030  1
  O  O6597  1  0.186860  0.631690  0.736970  1
  O  O6598  1  0.313140  0.131690  0.763030  1
  O  O6599  1  0.186860  0.868310  0.263030  1
  O  O6600  1  0.313140  0.368310  0.236970  1
  O  O6601  1  0.744320  0.356550  0.236080  1
  O  O6602  1  0.755680  0.856550  0.263920  1
  O  O6603  1  0.744320  0.143450  0.763920  1
  O  O6604  1  0.755680  0.643450  0.736080  1
  O  O6605  1  0.255680  0.643450  0.763920  1
  O  O6606  1  0.244320  0.143450  0.736080  1
  O  O6607  1  0.255680  0.856550  0.236080  1
  O  O6608  1  0.244320  0.356550  0.263920  1
  O  O6609  1  0.628730  0.396260  0.195320  1
  O  O6610  1  0.871270  0.896260  0.304680  1
  O  O6611  1  0.628730  0.103740  0.804680  1
  O  O6612  1  0.871270  0.603740  0.695320  1
  O  O6613  1  0.371270  0.603740  0.804680  1
  O  O6614  1  0.128730  0.103740  0.695320  1
  O  O6615  1  0.371270  0.896260  0.195320  1
  O  O6616  1  0.128730  0.396260  0.304680  1
  O  O6617  1  0.563790  0.448620  0.179330  1
  O  O6618  1  0.936210  0.948620  0.320670  1
  O  O6619  1  0.563790  0.051380  0.820670  1
  O  O6620  1  0.936210  0.551380  0.679330  1
  O  O6621  1  0.436210  0.551380  0.820670  1
  O  O6622  1  0.063790  0.051380  0.679330  1
  O  O6623  1  0.436210  0.948620  0.179330  1
  O  O6624  1  0.063790  0.448620  0.320670  1
  O  O6625  1  0.665540  0.515160  0.138350  1
  O  O6626  1  0.834460  0.015160  0.361650  1
  O  O6627  1  0.665540  0.984840  0.861650  1
  O  O6628  1  0.834460  0.484840  0.638350  1
  O  O6629  1  0.334460  0.484840  0.861650  1
  O  O6630  1  0.165540  0.984840  0.638350  1
  O  O6631  1  0.334460  0.015160  0.138350  1
  O  O6632  1  0.165540  0.515160  0.361650  1
  O  O6633  1  0.753890  0.527710  0.137930  1
  O  O6634  1  0.746110  0.027710  0.362070  1
  O  O6635  1  0.753890  0.972290  0.862070  1
  O  O6636  1  0.746110  0.472290  0.637930  1
  O  O6637  1  0.246110  0.472290  0.862070  1
  O  O6638  1  0.253890  0.972290  0.637930  1
  O  O6639  1  0.246110  0.027710  0.137930  1
  O  O6640  1  0.253890  0.527710  0.362070  1
  O  O6641  1  0.818100  0.257600  0.311950  1
  O  O6642  1  0.681900  0.757600  0.188050  1
  O  O6643  1  0.818100  0.242400  0.688050  1
  O  O6644  1  0.681900  0.742400  0.811950  1
  O  O6645  1  0.181900  0.742400  0.688050  1
  O  O6646  1  0.318100  0.242400  0.811950  1
  O  O6647  1  0.181900  0.757600  0.311950  1
  O  O6648  1  0.318100  0.257600  0.188050  1
  O  O6649  1  0.720200  0.203400  0.282100  1
  O  O6650  1  0.779800  0.703400  0.217900  1
  O  O6651  1  0.720200  0.296600  0.717900  1
  O  O6652  1  0.779800  0.796600  0.782100  1
  O  O6653  1  0.279800  0.796600  0.717900  1
  O  O6654  1  0.220200  0.296600  0.782100  1
  O  O6655  1  0.279800  0.703400  0.282100  1
  O  O6656  1  0.220200  0.203400  0.217900  1
  O  O6657  1  0.821670  0.391200  0.117930  1
  O  O6658  1  0.678330  0.891200  0.382070  1
  O  O6659  1  0.821670  0.108800  0.882070  1
  O  O6660  1  0.678330  0.608800  0.617930  1
  O  O6661  1  0.178330  0.608800  0.882070  1
  O  O6662  1  0.321670  0.108800  0.617930  1
  O  O6663  1  0.178330  0.891200  0.117930  1
  O  O6664  1  0.321670  0.391200  0.382070  1
  O  O6665  1  0.717100  0.386400  0.026630  1
  O  O6666  1  0.782900  0.886400  0.473370  1
  O  O6667  1  0.717100  0.113600  0.973370  1
  O  O6668  1  0.782900  0.613600  0.526630  1
  O  O6669  1  0.282900  0.613600  0.973370  1
  O  O6670  1  0.217100  0.113600  0.526630  1
  O  O6671  1  0.282900  0.886400  0.026630  1
  O  O6672  1  0.217100  0.386400  0.473370  1
  O  O6673  1  0.696600  0.927400  0.156100  1
  O  O6674  1  0.803400  0.427400  0.343900  1
  O  O6675  1  0.696600  0.572600  0.843900  1
  O  O6676  1  0.803400  0.072600  0.656100  1
  O  O6677  1  0.303400  0.072600  0.843900  1
  O  O6678  1  0.196600  0.572600  0.656100  1
  O  O6679  1  0.303400  0.427400  0.156100  1
  O  O6680  1  0.196600  0.927400  0.343900  1
  O  O6681  1  0.917500  0.312500  0.233400  1
  O  O6682  1  0.582500  0.812500  0.266600  1
  O  O6683  1  0.917500  0.187500  0.766600  1
  O  O6684  1  0.582500  0.687500  0.733400  1
  O  O6685  1  0.082500  0.687500  0.766600  1
  O  O6686  1  0.417500  0.187500  0.733400  1
  O  O6687  1  0.082500  0.812500  0.233400  1
  O  O6688  1  0.417500  0.312500  0.266600  1
  O  O6689  1  0.955500  0.289400  0.118100  1
  O  O6690  1  0.544500  0.789400  0.381900  1
  O  O6691  1  0.955500  0.210600  0.881900  1
  O  O6692  1  0.544500  0.710600  0.618100  1
  O  O6693  1  0.044500  0.710600  0.881900  1
  O  O6694  1  0.455500  0.210600  0.618100  1
  O  O6695  1  0.044500  0.789400  0.118100  1
  O  O6696  1  0.455500  0.289400  0.381900  1
  O  O6697  1  0.368100  0.473300  0.172800  1
  O  O6698  1  0.131900  0.973300  0.327200  1
  O  O6699  1  0.368100  0.026700  0.827200  1
  O  O6700  1  0.131900  0.526700  0.672800  1
  O  O6701  1  0.631900  0.526700  0.827200  1
  O  O6702  1  0.868100  0.026700  0.672800  1
  O  O6703  1  0.631900  0.973300  0.172800  1
  O  O6704  1  0.868100  0.473300  0.327200  1
  O  O6705  1  0.687400  0.451600  0.007060  1
  O  O6706  1  0.812600  0.951600  0.492940  1
  O  O6707  1  0.687400  0.048400  0.992940  1
  O  O6708  1  0.812600  0.548400  0.507060  1
  O  O6709  1  0.312600  0.548400  0.992940  1
  O  O6710  1  0.187400  0.048400  0.507060  1
  O  O6711  1  0.312600  0.951600  0.007060  1
  O  O6712  1  0.187400  0.451600  0.492940  1
  O  O6713  1  0.470700  0.327400  0.102130  1
  O  O6714  1  0.029300  0.827400  0.397870  1
  O  O6715  1  0.470700  0.172600  0.897870  1
  O  O6716  1  0.029300  0.672600  0.602130  1
  O  O6717  1  0.529300  0.672600  0.897870  1
  O  O6718  1  0.970700  0.172600  0.602130  1
  O  O6719  1  0.529300  0.827400  0.102130  1
  O  O6720  1  0.970700  0.327400  0.397870  1
  O  O6721  1  0.934300  0.258800  0.198720  1
  O  O6722  1  0.565700  0.758800  0.301280  1
  O  O6723  1  0.934300  0.241200  0.801280  1
  O  O6724  1  0.565700  0.741200  0.698720  1
  O  O6725  1  0.065700  0.741200  0.801280  1
  O  O6726  1  0.434300  0.241200  0.698720  1
  O  O6727  1  0.065700  0.758800  0.198720  1
  O  O6728  1  0.434300  0.258800  0.301280  1
  O  O6729  1  0.603900  0.308200  0.284090  1
  O  O6730  1  0.896100  0.808200  0.215910  1
  O  O6731  1  0.603900  0.191800  0.715910  1
  O  O6732  1  0.896100  0.691800  0.784090  1
  O  O6733  1  0.396100  0.691800  0.715910  1
  O  O6734  1  0.103900  0.191800  0.784090  1
  O  O6735  1  0.396100  0.808200  0.284090  1
  O  O6736  1  0.103900  0.308200  0.215910  1
  O  O6737  1  0.763100  0.088600  0.235350  1
  O  O6738  1  0.736900  0.588600  0.264650  1
  O  O6739  1  0.763100  0.411400  0.764650  1
  O  O6740  1  0.736900  0.911400  0.735350  1
  O  O6741  1  0.236900  0.911400  0.764650  1
  O  O6742  1  0.263100  0.411400  0.735350  1
  O  O6743  1  0.236900  0.588600  0.235350  1
  O  O6744  1  0.263100  0.088600  0.264650  1
  O  O6745  1  0.849500  0.281600  0.225730  1
  O  O6746  1  0.650500  0.781600  0.274270  1
  O  O6747  1  0.849500  0.218400  0.774270  1
  O  O6748  1  0.650500  0.718400  0.725730  1
  O  O6749  1  0.150500  0.718400  0.774270  1
  O  O6750  1  0.349500  0.218400  0.725730  1
  O  O6751  1  0.150500  0.781600  0.225730  1
  O  O6752  1  0.349500  0.281600  0.274270  1
  O  O6753  1  0.404500  0.434700  0.208300  1
  O  O6754  1  0.095500  0.934700  0.291700  1
  O  O6755  1  0.404500  0.065300  0.791700  1
  O  O6756  1  0.095500  0.565300  0.708300  1
  O  O6757  1  0.595500  0.565300  0.791700  1
  O  O6758  1  0.904500  0.065300  0.708300  1
  O  O6759  1  0.595500  0.934700  0.208300  1
  O  O6760  1  0.904500  0.434700  0.291700  1
  O  O6761  1  0.304300  0.237200  0.019920  1
  O  O6762  1  0.195700  0.737200  0.480080  1
  O  O6763  1  0.304300  0.262800  0.980080  1
  O  O6764  1  0.195700  0.762800  0.519920  1
  O  O6765  1  0.695700  0.762800  0.980080  1
  O  O6766  1  0.804300  0.262800  0.519920  1
  O  O6767  1  0.695700  0.737200  0.019920  1
  O  O6768  1  0.804300  0.237200  0.480080  1
  O  O6769  1  0.302700  0.204300  0.073600  1
  O  O6770  1  0.197300  0.704300  0.426400  1
  O  O6771  1  0.302700  0.295700  0.926400  1
  O  O6772  1  0.197300  0.795700  0.573600  1
  O  O6773  1  0.697300  0.795700  0.926400  1
  O  O6774  1  0.802700  0.295700  0.573600  1
  O  O6775  1  0.697300  0.704300  0.073600  1
  O  O6776  1  0.802700  0.204300  0.426400  1
  O  O6777  1  0.387600  0.202100  0.082800  1
  O  O6778  1  0.112400  0.702100  0.417200  1
  O  O6779  1  0.387600  0.297900  0.917200  1
  O  O6780  1  0.112400  0.797900  0.582800  1
  O  O6781  1  0.612400  0.797900  0.917200  1
  O  O6782  1  0.887600  0.297900  0.582800  1
  O  O6783  1  0.612400  0.702100  0.082800  1
  O  O6784  1  0.887600  0.202100  0.417200  1
  O  O6785  1  0.228700  0.312100  0.110500  1
  O  O6786  1  0.271300  0.812100  0.389500  1
  O  O6787  1  0.228700  0.187900  0.889500  1
  O  O6788  1  0.271300  0.687900  0.610500  1
  O  O6789  1  0.771300  0.687900  0.889500  1
  O  O6790  1  0.728700  0.187900  0.610500  1
  O  O6791  1  0.771300  0.812100  0.110500  1
  O  O6792  1  0.728700  0.312100  0.389500  1
  O  O6793  1  0.333000  0.359400  0.133270  1
  O  O6794  1  0.167000  0.859400  0.366730  1
  O  O6795  1  0.333000  0.140600  0.866730  1
  O  O6796  1  0.167000  0.640600  0.633270  1
  O  O6797  1  0.667000  0.640600  0.866730  1
  O  O6798  1  0.833000  0.140600  0.633270  1
  O  O6799  1  0.667000  0.859400  0.133270  1
  O  O6800  1  0.833000  0.359400  0.366730  1
  O  O6801  1  0.071000  0.350700  0.119500  1
  O  O6802  1  0.429000  0.850700  0.380500  1
  O  O6803  1  0.071000  0.149300  0.880500  1
  O  O6804  1  0.429000  0.649300  0.619500  1
  O  O6805  1  0.929000  0.649300  0.880500  1
  O  O6806  1  0.571000  0.149300  0.619500  1
  O  O6807  1  0.929000  0.850700  0.119500  1
  O  O6808  1  0.571000  0.350700  0.380500  1
  O  O6809  1  0.978400  0.074100  0.104700  1
  O  O6810  1  0.521600  0.574100  0.395300  1
  O  O6811  1  0.978400  0.425900  0.895300  1
  O  O6812  1  0.521600  0.925900  0.604700  1
  O  O6813  1  0.021600  0.925900  0.895300  1
  O  O6814  1  0.478400  0.425900  0.604700  1
  O  O6815  1  0.021600  0.574100  0.104700  1
  O  O6816  1  0.478400  0.074100  0.395300  1
  O  O6817  1  0.973700  0.994100  0.086910  1
  O  O6818  1  0.526300  0.494100  0.413090  1
  O  O6819  1  0.973700  0.505900  0.913090  1
  O  O6820  1  0.526300  0.005900  0.586910  1
  O  O6821  1  0.026300  0.005900  0.913090  1
  O  O6822  1  0.473700  0.505900  0.586910  1
  O  O6823  1  0.026300  0.494100  0.086910  1
  O  O6824  1  0.473700  0.994100  0.413090  1
  O  O6825  1  0.025300  0.127400  0.015660  1
  O  O6826  1  0.474700  0.627400  0.484340  1
  O  O6827  1  0.025300  0.372600  0.984340  1
  O  O6828  1  0.474700  0.872600  0.515660  1
  O  O6829  1  0.974700  0.872600  0.984340  1
  O  O6830  1  0.525300  0.372600  0.515660  1
  O  O6831  1  0.974700  0.627400  0.015660  1
  O  O6832  1  0.525300  0.127400  0.484340  1
  O  O6833  1  0.051700  0.977000  0.029310  1
  O  O6834  1  0.448300  0.477000  0.470690  1
  O  O6835  1  0.051700  0.523000  0.970690  1
  O  O6836  1  0.448300  0.023000  0.529310  1
  O  O6837  1  0.948300  0.023000  0.970690  1
  O  O6838  1  0.551700  0.523000  0.529310  1
  O  O6839  1  0.948300  0.477000  0.029310  1
  O  O6840  1  0.551700  0.977000  0.470690  1
  O  O6841  1  0.548800  0.261800  0.201900  1
  O  O6842  1  0.951200  0.761800  0.298100  1
  O  O6843  1  0.548800  0.238200  0.798100  1
  O  O6844  1  0.951200  0.738200  0.701900  1
  O  O6845  1  0.451200  0.738200  0.798100  1
  O  O6846  1  0.048800  0.238200  0.701900  1
  O  O6847  1  0.451200  0.761800  0.201900  1
  O  O6848  1  0.048800  0.261800  0.298100  1
  O  O6849  1  0.454400  0.351200  0.241540  1
  O  O6850  1  0.045600  0.851200  0.258460  1
  O  O6851  1  0.454400  0.148800  0.758460  1
  O  O6852  1  0.045600  0.648800  0.741540  1
  O  O6853  1  0.545600  0.648800  0.758460  1
  O  O6854  1  0.954400  0.148800  0.741540  1
  O  O6855  1  0.545600  0.851200  0.241540  1
  O  O6856  1  0.954400  0.351200  0.258460  1
  O  O6857  1  0.717700  0.404200  0.065270  1
  O  O6858  1  0.782300  0.904200  0.434730  1
  O  O6859  1  0.717700  0.095800  0.934730  1
  O  O6860  1  0.782300  0.595800  0.565270  1
  O  O6861  1  0.282300  0.595800  0.934730  1
  O  O6862  1  0.217700  0.095800  0.565270  1
  O  O6863  1  0.282300  0.904200  0.065270  1
  O  O6864  1  0.217700  0.404200  0.434730  1
  O  O6865  1  0.364300  0.248300  0.023500  1
  O  O6866  1  0.135700  0.748300  0.476500  1
  O  O6867  1  0.364300  0.251700  0.976500  1
  O  O6868  1  0.135700  0.751700  0.523500  1
  O  O6869  1  0.635700  0.751700  0.976500  1
  O  O6870  1  0.864300  0.251700  0.523500  1
  O  O6871  1  0.635700  0.748300  0.023500  1
  O  O6872  1  0.864300  0.248300  0.476500  1
