
#######################################################################
#
#                 Cambridge Crystallographic Data Centre
#                                CCDC 
#
#######################################################################
#
# If this CIF has been generated from an entry in the Cambridge 
# Structural Database, then it will include bibliographic, chemical, 
# crystal, experimental, refinement or atomic coordinate data resulting 
# from the CCDC's data processing and validation procedures.
#
#######################################################################

data_RIDWAE
_chemical_formula_moiety         
'C92 H80 N8 O16 Ru4 4+,4(C1 F3 O3 S1 1-),4(C1 H4 O1)'
_chemical_name_systematic        
'bis(\m~2~-oxalato)-bis(\m~2~-2,7-bis(pyridin-4-yl)benzo[lmn][3,8]phenanthroline-1,3,6,8(2H,7H)-tetrone)-tetrakis(\h^6^-1-methyl-4-isopropylbenzene)-tetra-ruthenium tetrakis(trifluoromethanesulfonate) methanol solvate'
_symmetry_cell_setting           monoclinic
_symmetry_space_group_name_H-M   'C 2/c'
_symmetry_Int_Tables_number      15
_space_group_name_Hall           '-C 2yn'
loop_
_symmetry_equiv_pos_site_id
_symmetry_equiv_pos_as_xyz
1 x,y,z
2 -x,y,1/2-z
3 1/2+x,1/2+y,z
4 1/2-x,1/2+y,1/2-z
5 -x,-y,-z
6 x,-y,1/2+z
7 1/2-x,1/2-y,-z
8 1/2+x,1/2-y,1/2+z
_cell_length_a                   48.794(10)
_cell_length_b                   16.649(3)
_cell_length_c                   14.416(3)
_cell_angle_alpha                90
_cell_angle_beta                 90.14(3)
_cell_angle_gamma                90
_cell_volume                     11711.1
_cell_formula_units_Z            4
loop_
_atom_site_label
_atom_site_type_symbol
_atom_site_fract_x
_atom_site_fract_y
_atom_site_fract_z
Ru1 Ru -0.184535(11) -0.04768(3) 1.25783(5)
Ru2 Ru -0.170024(12) 0.27586(3) 1.31478(5)
O1 O -0.04486(11) 0.0098(4) 1.1916(5)
O2 O -0.08658(12) -0.1654(5) 0.9932(6)
O3 O 0.08407(12) -0.1031(4) 1.0058(5)
O4 O 0.04133(15) -0.2733(5) 0.8069(6)
O5 O -0.17052(11) 0.0325(3) 1.3627(4)
O6 O -0.18829(11) 0.0627(3) 1.1891(4)
O7 O -0.16550(12) 0.1649(3) 1.3857(4)
O8 O -0.18509(11) 0.1937(3) 1.2154(4)
N1 N -0.14402(12) -0.0460(4) 1.2083(6)
N2 N -0.06542(13) -0.0807(5) 1.0958(6)
N3 N 0.06211(13) -0.1827(5) 0.9007(6)
N4 N 0.13275(12) -0.2446(4) 0.7529(5)
C1 C -0.12291(15) -0.0716(6) 1.2632(6)
H1 H -0.1264 -0.0835 1.3265
C2 C -0.13891(15) -0.0294(5) 1.1203(6)
H2 H -0.1536 -0.0117 1.0823
C3 C -0.09627(15) -0.0808(6) 1.2290(7)
H3 H -0.0817 -0.0977 1.2684
C4 C -0.11323(15) -0.0365(5) 1.0806(6)
H4 H -0.1103 -0.0228 1.0175
C5 C -0.09173(16) -0.0648(6) 1.1365(6)
C6 C -0.04240(18) -0.0429(5) 1.1326(7)
C7 C -0.06510(16) -0.1374(6) 1.0236(7)
C8 C -0.01511(15) -0.0659(6) 1.0923(6)
C9 C -0.03832(18) -0.1608(6) 0.9857(7)
C10 C 0.00847(16) -0.0308(6) 1.1245(7)
H5 H 0.0074 0.0088 1.1719
C11 C -0.01396(16) -0.1255(6) 1.0215(7)
C12 C -0.03660(19) -0.2195(6) 0.9168(8)
H6 H -0.0528 -0.2446 0.8941
C13 C 0.03422(15) -0.0527(5) 1.0885(7)
H7 H 0.0505 -0.0287 1.1116
C14 C 0.01161(16) -0.1462(5) 0.9853(6)
C15 C -0.0114(2) -0.2409(7) 0.8819(9)
H8 H -0.0103 -0.2814 0.8355
C16 C 0.03532(15) -0.1103(5) 1.0179(6)
C17 C 0.01248(17) -0.2045(6) 0.9132(7)
C18 C 0.06287(15) -0.1303(5) 0.9783(7)
C19 C 0.03849(19) -0.2235(5) 0.8712(7)
C20 C 0.08723(16) -0.2006(6) 0.8536(7)
C21 C 0.10778(18) -0.2439(6) 0.8957(7)
H9 H 0.1064 -0.2590 0.9591
C22 C 0.08997(16) -0.1762(6) 0.7621(8)
H10 H 0.0764 -0.1434 0.7337
C23 C 0.11278(17) -0.2006(6) 0.7132(7)
H11 H 0.1144 -0.1859 0.6497
C24 C -0.17251(14) 0.1052(4) 1.3383(6)
C25 C -0.18316(13) 0.1229(4) 1.2410(6)
C26 C -0.22265(14) -0.0798(5) 1.3264(6)
H12 H -0.2314 -0.0399 1.3690
C27 C -0.17198(19) 0.3513(5) 1.4396(7)
C28 C -0.19906(18) 0.3278(5) 1.4144(7)
H13 H -0.2086 0.2896 1.4569
C29 C -0.20948(17) 0.3362(5) 1.3287(7)
H14 H -0.2267 0.3071 1.3115
C30 C -0.19302(19) 0.3746(5) 1.2562(8)
C31 C -0.16667(19) 0.4016(5) 1.2798(7)
H15 H -0.1539 0.4177 1.2289
C32 C -0.15579(19) 0.3887(5) 1.3694(7)
H16 H -0.1357 0.3968 1.3803
C33 C -0.2038(2) 0.3813(7) 1.1595(8)
H17 H -0.2135 0.4324 1.1522
H18 H -0.2164 0.3367 1.1471
H19 H -0.1885 0.3790 1.1156
C34 C -0.1604(3) 0.3394(7) 1.5390(9)
H20 H -0.1746 0.3079 1.5731
C35 C -0.1353(3) 0.2886(10) 1.5399(12)
H21 H -0.1291 0.2812 1.6040
H22 H -0.1208 0.3151 1.5040
H23 H -0.1394 0.2362 1.5122
C36 C -0.1585(2) 0.4180(7) 1.5881(9)
H24 H -0.1517 0.4094 1.6514
H25 H -0.1766 0.4431 1.5904
H26 H -0.1458 0.4534 1.5548
C37 C -0.20108(16) -0.1307(5) 1.3620(6)
C38 C -0.18510(17) -0.1736(4) 1.2972(6)
H27 H -0.1677 -0.2001 1.3181
C39 C -0.19079(16) -0.1662(5) 1.1992(6)
H28 H -0.1769 -0.1871 1.1544
C40 C -0.21150(16) -0.1161(5) 1.1656(6)
C41 C -0.22746(13) -0.0733(5) 1.2315(6)
H29 H -0.2395 -0.0287 1.2088
C42 C -0.21622(19) -0.1056(6) 1.0635(7)
H30 H -0.2297 -0.1452 1.0420
H31 H -0.1989 -0.1134 1.0303
H32 H -0.2232 -0.0514 1.0514
C43 C -0.19501(17) -0.1317(5) 1.4626(7)
H33 H -0.1990 -0.0767 1.4871
C44 C -0.2161(3) -0.1891(12) 1.5051(8)
H34 H -0.2345 -0.1746 1.4832
H35 H -0.2154 -0.1850 1.5728
H36 H -0.2119 -0.2443 1.4863
C45 C -0.16588(19) -0.1522(7) 1.4898(8)
H37 H -0.1532 -0.1174 1.4560
H38 H -0.1621 -0.2084 1.4744
H39 H -0.1635 -0.1440 1.5567
C46 C 0.13058(16) -0.2651(6) 0.8433(7)
H40 H 0.1450 -0.2947 0.8718
Ru1D Ru 0.184535(11) 0.04768(3) 0.74217(5)
Ru2D Ru 0.170024(12) -0.27586(3) 0.68522(5)
O1D O 0.04486(11) -0.0098(4) 0.8084(5)
O2D O 0.08658(12) 0.1654(5) 1.0068(6)
O3D O -0.08407(12) 0.1031(4) 0.9942(5)
O4D O -0.04133(15) 0.2733(5) 1.1931(6)
O5D O 0.17052(11) -0.0325(3) 0.6373(4)
O6D O 0.18829(11) -0.0627(3) 0.8109(4)
O7D O 0.16550(12) -0.1649(3) 0.6143(4)
O8D O 0.18509(11) -0.1937(3) 0.7846(4)
N1D N 0.14402(12) 0.0460(4) 0.7917(6)
N2D N 0.06542(13) 0.0807(5) 0.9042(6)
N3D N -0.06211(13) 0.1827(5) 1.0993(6)
N4D N -0.13275(12) 0.2446(4) 1.2471(5)
C1D C 0.12291(15) 0.0716(6) 0.7368(6)
H1D H 0.1264 0.0835 0.6735
C2D C 0.13891(15) 0.0294(5) 0.8797(6)
H2D H 0.1536 0.0117 0.9177
C3D C 0.09627(15) 0.0808(6) 0.7710(7)
H3D H 0.0817 0.0977 0.7316
C4D C 0.11323(15) 0.0365(5) 0.9194(6)
H4D H 0.1103 0.0228 0.9825
C5D C 0.09173(16) 0.0648(6) 0.8635(6)
C6D C 0.04240(18) 0.0429(5) 0.8674(7)
C7D C 0.06510(16) 0.1374(6) 0.9764(7)
C8D C 0.01511(15) 0.0659(6) 0.9077(6)
C9D C 0.03832(18) 0.1608(6) 1.0143(7)
C10D C -0.00847(16) 0.0308(6) 0.8755(7)
H5D H -0.0074 -0.0088 0.8281
C11D C 0.01396(16) 0.1255(6) 0.9785(7)
C12D C 0.03660(19) 0.2195(6) 1.0832(8)
H6D H 0.0528 0.2446 1.1059
C13D C -0.03422(15) 0.0527(5) 0.9115(7)
H7D H -0.0505 0.0287 0.8884
C14D C -0.01161(16) 0.1462(5) 1.0147(6)
C15D C 0.0114(2) 0.2409(7) 1.1181(9)
H8D H 0.0103 0.2814 1.1645
C16D C -0.03532(15) 0.1103(5) 0.9821(6)
C17D C -0.01248(17) 0.2045(6) 1.0868(7)
C18D C -0.06287(15) 0.1303(5) 1.0217(7)
C19D C -0.03849(19) 0.2235(5) 1.1288(7)
C20D C -0.08723(16) 0.2006(6) 1.1464(7)
C21D C -0.10778(18) 0.2439(6) 1.1043(7)
H9D H -0.1064 0.2590 1.0409
C22D C -0.08997(16) 0.1762(6) 1.2379(8)
H10D H -0.0764 0.1434 1.2663
C23D C -0.11278(17) 0.2006(6) 1.2868(7)
H11D H -0.1144 0.1859 1.3503
C24D C 0.17251(14) -0.1052(4) 0.6617(6)
C25D C 0.18316(13) -0.1229(4) 0.7590(6)
C26D C 0.22265(14) 0.0798(5) 0.6736(6)
H12D H 0.2314 0.0399 0.6310
C27D C 0.17198(19) -0.3513(5) 0.5604(7)
C28D C 0.19906(18) -0.3278(5) 0.5856(7)
H13D H 0.2086 -0.2896 0.5431
C29D C 0.20948(17) -0.3362(5) 0.6713(7)
H14D H 0.2267 -0.3071 0.6885
C30D C 0.19302(19) -0.3746(5) 0.7438(8)
C31D C 0.16667(19) -0.4016(5) 0.7202(7)
H15D H 0.1539 -0.4177 0.7711
C32D C 0.15579(19) -0.3887(5) 0.6306(7)
H16D H 0.1357 -0.3968 0.6197
C33D C 0.2038(2) -0.3813(7) 0.8405(8)
H17D H 0.2135 -0.4324 0.8478
H18D H 0.2164 -0.3367 0.8529
H19D H 0.1885 -0.3790 0.8844
C34D C 0.1604(3) -0.3394(7) 0.4610(9)
H20D H 0.1746 -0.3079 0.4269
C35D C 0.1353(3) -0.2886(10) 0.4601(12)
H21D H 0.1291 -0.2812 0.3960
H22D H 0.1208 -0.3151 0.4960
H23D H 0.1394 -0.2362 0.4878
C36D C 0.1585(2) -0.4180(7) 0.4119(9)
H24D H 0.1517 -0.4094 0.3486
H25D H 0.1766 -0.4431 0.4096
H26D H 0.1458 -0.4534 0.4452
C37D C 0.20108(16) 0.1307(5) 0.6380(6)
C38D C 0.18510(17) 0.1736(4) 0.7028(6)
H27D H 0.1677 0.2001 0.6819
C39D C 0.19079(16) 0.1662(5) 0.8008(6)
H28D H 0.1769 0.1871 0.8456
C40D C 0.21150(16) 0.1161(5) 0.8344(6)
C41D C 0.22746(13) 0.0733(5) 0.7685(6)
H29D H 0.2395 0.0287 0.7912
C42D C 0.21622(19) 0.1056(6) 0.9365(7)
H30D H 0.2297 0.1452 0.9580
H31D H 0.1989 0.1134 0.9697
H32D H 0.2232 0.0514 0.9486
C43D C 0.19501(17) 0.1317(5) 0.5374(7)
H33D H 0.1990 0.0767 0.5129
C44D C 0.2161(3) 0.1891(12) 0.4949(8)
H34D H 0.2345 0.1746 0.5168
H35D H 0.2154 0.1850 0.4272
H36D H 0.2119 0.2443 0.5137
C45D C 0.16588(19) 0.1522(7) 0.5102(8)
H37D H 0.1532 0.1174 0.5440
H38D H 0.1621 0.2084 0.5256
H39D H 0.1635 0.1440 0.4433
C46D C -0.13058(16) 0.2651(6) 1.1567(7)
H40D H -0.1450 0.2947 1.1282
S1 S -0.25736(4) 0.13480(13) 1.35135(17)
F1 F -0.2612(2) 0.2096(9) 1.1935(6)
F2 F -0.2688(3) 0.0758(8) 1.1894(9)
F3 F -0.2984(2) 0.1543(5) 1.2384(11)
O9 O -0.26480(19) 0.2100(5) 1.3921(6)
O10 O -0.27116(19) 0.0666(6) 1.3907(11)
O11 O -0.22894(14) 0.1238(6) 1.3375(6)
C47 C -0.2710(4) 0.1458(9) 1.2353(12)
S2 S 0.11433(17) -0.3234(4) 1.1779(5)
F4 F 0.1190(5) -0.4357(17) 1.0673(18)
F5 F 0.1488(5) -0.3496(9) 1.0445(13)
F6 F 0.1527(5) -0.4295(12) 1.1532(16)
O12 O 0.1002(6) -0.3761(10) 1.2376(19)
O13 O 0.0998(6) -0.2765(17) 1.124(2)
O14 O 0.1309(5) -0.2738(14) 1.214(2)
C48 C 0.1312(7) -0.374(2) 1.1196(16)
O15 O 0.0410(2) -0.2523(6) 1.2109(8)
C49 C 0.0317(4) -0.1886(8) 1.2611(14)
H41 H 0.0465 -0.1677 1.3003
H42 H 0.0164 -0.2059 1.3002
H43 H 0.0254 -0.1463 1.2188
O16 O -0.1030(5) 0.4581(13) 1.2145(19)
C50 C -0.0876(7) 0.443(2) 1.149(3)
H44 H -0.0823 0.4934 1.1183
H45 H -0.0971 0.4085 1.1041
H46 H -0.0711 0.4157 1.1717
loop_
_geom_bond_atom_site_label_1
_geom_bond_atom_site_label_2
_geom_bond_site_symmetry_1
_geom_bond_site_symmetry_2
Ru1 O5 1_555 1_555
Ru2 O7 1_555 1_555
O1 C6 1_555 1_555
O2 C7 1_555 1_555
O3 C18 1_555 1_555
O4 C19 1_555 1_555
O5 C24 1_555 1_555
O6 Ru1 1_555 1_555
O7 C24 1_555 1_555
O8 Ru2 1_555 1_555
N1 Ru1 1_555 1_555
N2 C5 1_555 1_555
N3 C18 1_555 1_555
N4 C23 1_555 1_555
C1 N1 1_555 1_555
H1 C1 1_555 1_555
C2 N1 1_555 1_555
H2 C2 1_555 1_555
C3 C1 1_555 1_555
H3 C3 1_555 1_555
C4 C2 1_555 1_555
H4 C4 1_555 1_555
C5 C3 1_555 1_555
C6 N2 1_555 1_555
C7 N2 1_555 1_555
C8 C6 1_555 1_555
C9 C7 1_555 1_555
C10 C8 1_555 1_555
H5 C10 1_555 1_555
C11 C8 1_555 1_555
C12 C9 1_555 1_555
H6 C12 1_555 1_555
C13 C10 1_555 1_555
H7 C13 1_555 1_555
C14 C11 1_555 1_555
C15 C12 1_555 1_555
H8 C15 1_555 1_555
C16 C13 1_555 1_555
C17 C14 1_555 1_555
C18 C16 1_555 1_555
C19 N3 1_555 1_555
C20 N3 1_555 1_555
C21 C20 1_555 1_555
H9 C21 1_555 1_555
C22 C20 1_555 1_555
H10 C22 1_555 1_555
C23 C22 1_555 1_555
H11 C23 1_555 1_555
C24 C25 1_555 1_555
C25 O6 1_555 1_555
C26 Ru1 1_555 1_555
H12 C26 1_555 1_555
C27 Ru2 1_555 1_555
C28 Ru2 1_555 1_555
H13 C28 1_555 1_555
C29 Ru2 1_555 1_555
H14 C29 1_555 1_555
C30 Ru2 1_555 1_555
C31 Ru2 1_555 1_555
H15 C31 1_555 1_555
C32 Ru2 1_555 1_555
H16 C32 1_555 1_555
C33 C30 1_555 1_555
H17 C33 1_555 1_555
H18 C33 1_555 1_555
H19 C33 1_555 1_555
C34 C27 1_555 1_555
H20 C34 1_555 1_555
C35 C34 1_555 1_555
H21 C35 1_555 1_555
H22 C35 1_555 1_555
H23 C35 1_555 1_555
C36 C34 1_555 1_555
H24 C36 1_555 1_555
H25 C36 1_555 1_555
H26 C36 1_555 1_555
C37 Ru1 1_555 1_555
C38 Ru1 1_555 1_555
H27 C38 1_555 1_555
C39 Ru1 1_555 1_555
H28 C39 1_555 1_555
C40 Ru1 1_555 1_555
C41 Ru1 1_555 1_555
H29 C41 1_555 1_555
C42 C40 1_555 1_555
H30 C42 1_555 1_555
H31 C42 1_555 1_555
H32 C42 1_555 1_555
C43 C37 1_555 1_555
H33 C43 1_555 1_555
C44 C43 1_555 1_555
H34 C44 1_555 1_555
H35 C44 1_555 1_555
H36 C44 1_555 1_555
C45 C43 1_555 1_555
H37 C45 1_555 1_555
H38 C45 1_555 1_555
H39 C45 1_555 1_555
C46 N4 1_555 1_555
H40 C46 1_555 1_555
S1 O9 1_555 1_555
F1 C47 1_555 1_555
F2 C47 1_555 1_555
F3 C47 1_555 1_555
O10 S1 1_555 1_555
O11 S1 1_555 1_555
C47 S1 1_555 1_555
S2 O12 1_555 1_555
F4 C48 1_555 1_555
F5 C48 1_555 1_555
F6 C48 1_555 1_555
O13 S2 1_555 1_555
O14 S2 1_555 1_555
C48 S2 1_555 1_555
O15 C49 1_555 1_555
C49 H41 1_555 1_555
H42 C49 1_555 1_555
H43 C49 1_555 1_555
O16 C50 1_555 1_555
C50 H44 1_555 1_555
H45 C50 1_555 1_555
H46 C50 1_555 1_555
Ru1D O5D 1_555 1_555
Ru2D N4 1_555 1_555
O1D C6D 1_555 1_555
O2D C7D 1_555 1_555
O3D C18D 1_555 1_555
O4D C19D 1_555 1_555
O5D C24D 1_555 1_555
O6D Ru1D 1_555 1_555
O7D Ru2D 1_555 1_555
O8D Ru2D 1_555 1_555
N1D Ru1D 1_555 1_555
N2D C5D 1_555 1_555
N3D C18D 1_555 1_555
N4D Ru2 1_555 1_555
C1D N1D 1_555 1_555
H1D C1D 1_555 1_555
C2D N1D 1_555 1_555
H2D C2D 1_555 1_555
C3D C1D 1_555 1_555
H3D C3D 1_555 1_555
C4D C2D 1_555 1_555
H4D C4D 1_555 1_555
C5D C3D 1_555 1_555
C6D N2D 1_555 1_555
C7D N2D 1_555 1_555
C8D C6D 1_555 1_555
C9D C7D 1_555 1_555
C10D C8D 1_555 1_555
H5D C10D 1_555 1_555
C11D C8D 1_555 1_555
C12D C9D 1_555 1_555
H6D C12D 1_555 1_555
C13D C10D 1_555 1_555
H7D C13D 1_555 1_555
C14D C11D 1_555 1_555
C15D C12D 1_555 1_555
H8D C15D 1_555 1_555
C16D C13D 1_555 1_555
C17D C14D 1_555 1_555
C18D C16D 1_555 1_555
C19D N3D 1_555 1_555
C20D N3D 1_555 1_555
C21D C20D 1_555 1_555
H9D C21D 1_555 1_555
C22D C20D 1_555 1_555
H10D C22D 1_555 1_555
C23D N4D 1_555 1_555
H11D C23D 1_555 1_555
C24D O7D 1_555 1_555
C25D O6D 1_555 1_555
C26D Ru1D 1_555 1_555
H12D C26D 1_555 1_555
C27D Ru2D 1_555 1_555
C28D Ru2D 1_555 1_555
H13D C28D 1_555 1_555
C29D Ru2D 1_555 1_555
H14D C29D 1_555 1_555
C30D Ru2D 1_555 1_555
C31D Ru2D 1_555 1_555
H15D C31D 1_555 1_555
C32D Ru2D 1_555 1_555
H16D C32D 1_555 1_555
C33D C30D 1_555 1_555
H17D C33D 1_555 1_555
H18D C33D 1_555 1_555
H19D C33D 1_555 1_555
C34D C27D 1_555 1_555
H20D C34D 1_555 1_555
C35D C34D 1_555 1_555
H21D C35D 1_555 1_555
H22D C35D 1_555 1_555
H23D C35D 1_555 1_555
C36D C34D 1_555 1_555
H24D C36D 1_555 1_555
H25D C36D 1_555 1_555
H26D C36D 1_555 1_555
C37D Ru1D 1_555 1_555
C38D Ru1D 1_555 1_555
H27D C38D 1_555 1_555
C39D Ru1D 1_555 1_555
H28D C39D 1_555 1_555
C40D Ru1D 1_555 1_555
C41D Ru1D 1_555 1_555
H29D C41D 1_555 1_555
C42D C40D 1_555 1_555
H30D C42D 1_555 1_555
H31D C42D 1_555 1_555
H32D C42D 1_555 1_555
C43D C37D 1_555 1_555
H33D C43D 1_555 1_555
C44D C43D 1_555 1_555
H34D C44D 1_555 1_555
H35D C44D 1_555 1_555
H36D C44D 1_555 1_555
C45D C43D 1_555 1_555
H37D C45D 1_555 1_555
H38D C45D 1_555 1_555
H39D C45D 1_555 1_555
C46D N4D 1_555 1_555
H40D C46D 1_555 1_555
O8 C25 1_555 1_555
C4 C5 1_555 1_555
C9 C11 1_555 1_555
C14 C16 1_555 1_555
C15 C17 1_555 1_555
C17 C19 1_555 1_555
C21 C46 1_555 1_555
C26 C37 1_555 1_555
C26 C41 1_555 1_555
C27 C28 1_555 1_555
C27 C32 1_555 1_555
C28 C29 1_555 1_555
C29 C30 1_555 1_555
C30 C31 1_555 1_555
C31 C32 1_555 1_555
C37 C38 1_555 1_555
C38 C39 1_555 1_555
C39 C40 1_555 1_555
C40 C41 1_555 1_555
O8D C25D 1_555 1_555
C4D C5D 1_555 1_555
C9D C11D 1_555 1_555
C14D C16D 1_555 1_555
C15D C17D 1_555 1_555
C17D C19D 1_555 1_555
C21D C46D 1_555 1_555
C22D C23D 1_555 1_555
C24D C25D 1_555 1_555
C26D C37D 1_555 1_555
C26D C41D 1_555 1_555
C27D C28D 1_555 1_555
C27D C32D 1_555 1_555
C28D C29D 1_555 1_555
C29D C30D 1_555 1_555
C30D C31D 1_555 1_555
C31D C32D 1_555 1_555
C37D C38D 1_555 1_555
C38D C39D 1_555 1_555
C39D C40D 1_555 1_555
C40D C41D 1_555 1_555

#END
