
#######################################################################
#
#                 Cambridge Crystallographic Data Centre
#                                CCDC 
#
#######################################################################
#
# If this CIF has been generated from an entry in the Cambridge 
# Structural Database, then it will include bibliographic, chemical, 
# crystal, experimental, refinement or atomic coordinate data resulting 
# from the CCDC's data processing and validation procedures.
#
#######################################################################

data_RIFNUS
_chemical_name_common            'PCC-2b, CIAC-106'
_chemical_formula_moiety         'C456 H390 Co24 O126 S24 6-,6(C6 H16 N1 1+)'
_chemical_name_systematic        
"hexakis(triethylammonium) octakis(\m-4,4',4''-(benzene-1,3,5-triyl)tribenzoato)-hexakis(\m-5,11,17,23-tetra-t-butyl-2,8,14,20-tetrasulfonyl-25,26,27,28-tetraoxidocalix[4]arene)-hexakis(\m-hydroxo)-tetracosa-cobalt(ii) unknown solvate"
_symmetry_cell_setting           tetragonal
_symmetry_space_group_name_H-M   'I 4/m'
_symmetry_Int_Tables_number      87
_space_group_name_Hall           '-I 4'
loop_
_symmetry_equiv_pos_site_id
_symmetry_equiv_pos_as_xyz
1 x,y,z
2 -x,-y,z
3 -y,x,z
4 y,-x,z
5 1/2+x,1/2+y,1/2+z
6 1/2-x,1/2-y,1/2+z
7 1/2-y,1/2+x,1/2+z
8 1/2+y,1/2-x,1/2+z
9 -x,-y,-z
10 x,y,-z
11 y,-x,-z
12 -y,x,-z
13 1/2-x,1/2-y,1/2-z
14 1/2+x,1/2+y,1/2-z
15 1/2+y,1/2-x,1/2-z
16 1/2-y,1/2+x,1/2-z
_cell_length_a                   33.51(2)
_cell_length_b                   33.51(2)
_cell_length_c                   54.78(4)
_cell_angle_alpha                90
_cell_angle_beta                 90
_cell_angle_gamma                90
_cell_volume                     61513.6
_exptl_crystal_colour            violet
_exptl_crystal_description       block
_chemical_melting_point          '513 K'
_cell_formula_units_Z            2
loop_
_atom_site_label
_atom_site_type_symbol
_atom_site_fract_x
_atom_site_fract_y
_atom_site_fract_z
Co1 Co 0.44851(5) 0.46259(5) 0.23665(3)
Co2 Co 0.28378(4) 0.82029(4) 0.03997(3)
Co3 Co 0.33519(6) 0.85562(6) 0.000000
Co4 Co 0.23438(6) 0.78426(6) 0.000000
S1 S 0.40452(12) 0.43058(11) 0.28201(6)
S2 S 0.24079(9) 0.88180(9) 0.07236(5)
S3 S 0.14618(10) 0.81055(12) 0.000000
S4 S 0.33822(11) 0.94799(10) 0.000000
O1 O 0.2713(2) 0.7666(3) 0.05526(15)
O2 O 0.2377(2) 0.73842(19) 0.02365(13)
O3 O 0.4070(2) 0.4820(3) 0.21231(13)
O4 O 0.4155(3) 0.5482(3) 0.21388(14)
O5 O 0.1871(3) 0.3388(2) 0.05390(15)
O6 O 0.1653(2) 0.3760(2) 0.02432(16)
O7 O 0.2658(2) 0.8471(2) 0.07412(13)
O8 O 0.29685(19) 0.8771(2) 0.02661(12)
O9 O 0.3619(3) 0.9127(3) 0.000000
O10 O 0.4909(2) 0.4371(2) 0.26060(12)
O11 O 0.4041(3) 0.4305(3) 0.25584(14)
O12 O 0.1720(3) 0.7761(3) 0.000000
O13 O 0.22613(18) 0.8276(2) 0.02669(11)
O14 O 0.500000 0.500000 0.2228(3)
O15 O 0.3737(3) 0.4072(3) 0.29256(16)
O16 O 0.2957(3) 0.8047(3) 0.000000
C1 C 0.2701(3) 0.58032(17) 0.08924(14)
C2 C 0.2927(3) 0.57572(18) 0.11032(15)
H1 H 0.305641 0.597614 0.117123
C3 C 0.2960(2) 0.5384(2) 0.12122(13)
C4 C 0.2767(3) 0.50569(17) 0.11104(14)
H2 H 0.278892 0.480731 0.118338
C5 C 0.2540(3) 0.51029(19) 0.08997(14)
C6 C 0.2507(2) 0.5476(2) 0.07906(12)
H3 H 0.235598 0.550673 0.064959
C7 C 0.2651(3) 0.62206(17) 0.07732(14)
C8 C 0.2584(3) 0.62495(17) 0.05234(14)
H4 H 0.255745 0.601937 0.042986
C9 C 0.2556(2) 0.6622(2) 0.04135(11)
H5 H 0.251050 0.664162 0.024637
C10 C 0.2595(2) 0.69662(16) 0.05533(13)
C11 C 0.2663(3) 0.69374(18) 0.08030(13)
H6 H 0.268886 0.716748 0.089656
C12 C 0.2691(3) 0.6565(2) 0.09130(11)
H7 H 0.273581 0.654524 0.108006
C13 C 0.2574(3) 0.7359(3) 0.0439(2)
C14 C 0.3332(3) 0.5652(2) 0.1578(2)
H8 H 0.323315 0.590420 0.154264
C15 C 0.3589(3) 0.5598(2) 0.17745(18)
H9 H 0.366217 0.581517 0.187057
C16 C 0.3738(3) 0.5221(3) 0.18273(15)
C17 C 0.3629(3) 0.4896(2) 0.16837(19)
H10 H 0.372860 0.464370 0.171905
C18 C 0.3372(4) 0.4950(2) 0.14872(19)
H11 H 0.329959 0.473272 0.139112
C19 C 0.3224(3) 0.5327(3) 0.14344(17)
C20 C 0.4002(3) 0.5151(4) 0.2047(2)
C21 C 0.2323(4) 0.4753(4) 0.0787(2)
C22 C 0.2274(5) 0.4747(5) 0.0524(3)
H12 H 0.237725 0.494624 0.042429
C23 C 0.2065(6) 0.4426(4) 0.0433(3)
H13 H 0.196887 0.444573 0.027389
C24 C 0.1985(5) 0.4067(3) 0.0562(3)
C25 C 0.2104(5) 0.4073(4) 0.0793(3)
H14 H 0.209488 0.383513 0.088031
C26 C 0.2235(5) 0.4395(3) 0.0907(3)
H15 H 0.227118 0.438296 0.107537
C27 C 0.1824(3) 0.3719(3) 0.0432(2)
C28 C 0.1932(3) 0.8436(3) 0.03694(15)
C29 C 0.1954(4) 0.8727(3) 0.0556(2)
C30 C 0.1620(3) 0.8905(5) 0.0649(3)
H16 H 0.163774 0.904554 0.079567
C31 C 0.2635(3) 0.9201(3) 0.05698(19)
C32 C 0.2907(3) 0.9124(3) 0.03623(17)
C33 C 0.2606(4) 0.9580(4) 0.0646(3)
H17 H 0.245982 0.960821 0.078967
C34 C 0.2753(4) 0.9950(4) 0.0552(2)
C35 C 0.2728(9) 1.0315(6) 0.0672(4)
C36 C 0.3110(8) 1.0475(5) 0.0684(4)
H18 H 0.310028 1.072798 0.076584
H19 H 0.328104 1.029658 0.077204
H20 H 0.321133 1.051142 0.052141
C37 C 0.2448(7) 1.0333(6) 0.0909(5)
H21 H 0.219554 1.021114 0.087260
H22 H 0.257379 1.019234 0.104063
H23 H 0.240690 1.060629 0.095482
C38 C 0.2444(10) 1.0532(6) 0.0542(5)
H24 H 0.219311 1.039335 0.054674
H25 H 0.241311 1.079073 0.061532
H26 H 0.252908 1.056143 0.037617
C39 C 0.3088(3) 0.9486(3) 0.02553(19)
C40 C 0.2981(4) 0.9887(3) 0.0367(2)
H27 H 0.309224 1.011100 0.029386
C41 C 0.1566(4) 0.8432(4) 0.0272(2)
C42 C 0.1222(4) 0.8583(5) 0.0343(3)
H28 H 0.097792 0.850513 0.027762
C43 C 0.1262(5) 0.8882(6) 0.0532(3)
C44 C 0.0861(6) 0.9161(6) 0.0598(4)
C45 C 0.0533(4) 0.8836(4) 0.0659(3)
H29 H 0.047263 0.868602 0.051378
H30 H 0.029559 0.896501 0.071639
H31 H 0.063240 0.865866 0.078224
C46 C 0.0660(8) 0.9466(7) 0.0414(5)
H32 H 0.060464 0.933298 0.026236
H33 H 0.083891 0.968504 0.038478
H34 H 0.041605 0.956465 0.048261
C47 C 0.0945(5) 0.9394(5) 0.0841(4)
H35 H 0.114348 0.959508 0.081230
H36 H 0.104029 0.921094 0.096298
H37 H 0.070347 0.951729 0.089713
C48 C 0.4868(5) 0.4172(3) 0.2816(2)
C49 C 0.4509(4) 0.4095(4) 0.2930(3)
C50 C 0.4449(5) 0.3898(4) 0.3130(3)
H38 H 0.419881 0.388247 0.320252
C51 C 0.4013(5) 0.4821(4) 0.2921(2)
C52 C 0.3745(4) 0.4831(5) 0.3130(3)
H39 H 0.361537 0.460224 0.318501
C53 C 0.3693(5) 0.5183(6) 0.3241(3)
C54 C 0.3463(10) 0.5258(10) 0.3499(5)
C55 C 0.3583(9) 0.5074(8) 0.3624(4)
H40 H 0.361837 0.481395 0.355357
H41 H 0.383624 0.517714 0.367515
H42 H 0.340742 0.505535 0.376200
C56 C 0.3381(7) 0.5665(7) 0.3562(4)
H43 H 0.326809 0.579962 0.342359
H44 H 0.319612 0.567259 0.369548
H45 H 0.362495 0.579437 0.360863
C57 C 0.3006(7) 0.5032(7) 0.3378(4)
H46 H 0.289044 0.520638 0.325852
H47 H 0.306920 0.478040 0.330374
H48 H 0.282013 0.499099 0.350891
S1B S 0.56942(11) 0.40452(12) 0.28201(6)
O10B O 0.5629(2) 0.4909(2) 0.26060(12)
O11B O 0.5695(3) 0.4041(3) 0.25584(14)
O15B O 0.5928(3) 0.3737(3) 0.29256(16)
C48B C 0.5828(3) 0.4868(5) 0.2816(2)
C49B C 0.5905(4) 0.4509(4) 0.2930(3)
C50B C 0.6102(4) 0.4449(5) 0.3130(3)
H38B H 0.611753 0.419881 0.320252
C51B C 0.5179(4) 0.4013(5) 0.2921(2)
C52B C 0.5169(5) 0.3745(4) 0.3130(3)
H39B H 0.539776 0.361537 0.318501
C53B C 0.4817(6) 0.3693(5) 0.3241(3)
C54B C 0.4742(10) 0.3463(10) 0.3499(5)
C55B C 0.4926(8) 0.3583(9) 0.3624(4)
H40B H 0.518605 0.361837 0.355357
H41B H 0.482286 0.383624 0.367515
H42B H 0.494465 0.340742 0.376200
C56B C 0.4335(7) 0.3381(7) 0.3562(4)
H43B H 0.420038 0.326809 0.342359
H44B H 0.432741 0.319612 0.369548
H45B H 0.420563 0.362495 0.360863
C57B C 0.4968(7) 0.3006(7) 0.3378(4)
H46B H 0.479362 0.289044 0.325852
H47B H 0.521960 0.306920 0.330374
H48B H 0.500901 0.282013 0.350891
S1C S 0.43058(11) 0.59548(12) 0.28201(6)
O10C O 0.4371(2) 0.5091(2) 0.26060(12)
O11C O 0.4305(3) 0.5959(3) 0.25584(14)
O15C O 0.4072(3) 0.6263(3) 0.29256(16)
C48C C 0.4172(3) 0.5132(5) 0.2816(2)
C49C C 0.4095(4) 0.5491(4) 0.2930(3)
C50C C 0.3898(4) 0.5551(5) 0.3130(3)
H38C H 0.388247 0.580119 0.320252
C51C C 0.4821(4) 0.5987(5) 0.2921(2)
C52C C 0.4831(5) 0.6255(4) 0.3130(3)
H39C H 0.460224 0.638463 0.318501
C53C C 0.5183(6) 0.6307(5) 0.3241(3)
C54C C 0.5258(10) 0.6537(10) 0.3499(5)
C55C C 0.5074(8) 0.6417(9) 0.3624(4)
H40C H 0.481395 0.638163 0.355357
H41C H 0.517714 0.616376 0.367515
H42C H 0.505535 0.659258 0.376200
C56C C 0.5665(7) 0.6619(7) 0.3562(4)
H43C H 0.579962 0.673191 0.342359
H44C H 0.567259 0.680388 0.369548
H45C H 0.579437 0.637505 0.360863
C57C C 0.5032(7) 0.6994(7) 0.3378(4)
H46C H 0.520638 0.710956 0.325852
H47C H 0.478040 0.693080 0.330374
H48C H 0.499099 0.717987 0.350891
S1A S 0.59548(12) 0.56942(11) 0.28201(6)
O10A O 0.5091(2) 0.5629(2) 0.26060(12)
O11A O 0.5959(3) 0.5695(3) 0.25584(14)
O15A O 0.6263(3) 0.5928(3) 0.29256(16)
C48A C 0.5132(5) 0.5828(3) 0.2816(2)
C49A C 0.5491(4) 0.5905(4) 0.2930(3)
C50A C 0.5551(5) 0.6102(4) 0.3130(3)
H38A H 0.580119 0.611753 0.320252
C51A C 0.5987(5) 0.5179(4) 0.2921(2)
C52A C 0.6255(4) 0.5169(5) 0.3130(3)
H39A H 0.638463 0.539776 0.318501
C53A C 0.6307(5) 0.4817(6) 0.3241(3)
C54A C 0.6537(10) 0.4742(10) 0.3499(5)
C55A C 0.6417(9) 0.4926(8) 0.3624(4)
H40A H 0.638163 0.518605 0.355357
H41A H 0.616376 0.482286 0.367515
H42A H 0.659258 0.494465 0.376200
C56A C 0.6619(7) 0.4335(7) 0.3562(4)
H43A H 0.673191 0.420038 0.342359
H44A H 0.680388 0.432741 0.369548
H45A H 0.637505 0.420563 0.360863
C57A C 0.6994(7) 0.4968(7) 0.3378(4)
H46A H 0.710956 0.479362 0.325852
H47A H 0.693080 0.521960 0.330374
H48A H 0.717987 0.500901 0.350891
S2I S 0.24079(9) 0.88180(9) -0.07236(5)
O7I O 0.2658(2) 0.8471(2) -0.07412(13)
O8I O 0.29685(19) 0.8771(2) -0.02661(12)
O13I O 0.22613(18) 0.8276(2) -0.02669(11)
C28I C 0.1932(3) 0.8436(3) -0.03694(15)
C29I C 0.1954(4) 0.8727(3) -0.0556(2)
C30I C 0.1620(3) 0.8905(5) -0.0649(3)
H16I H 0.163774 0.904554 -0.079567
C31I C 0.2635(3) 0.9201(3) -0.05698(19)
C32I C 0.2907(3) 0.9124(3) -0.03623(17)
C33I C 0.2606(4) 0.9580(4) -0.0646(3)
H17I H 0.245982 0.960821 -0.078967
C34I C 0.2753(4) 0.9950(4) -0.0552(2)
C35I C 0.2728(9) 1.0315(6) -0.0672(4)
C36I C 0.3110(8) 1.0475(5) -0.0684(4)
H18I H 0.310028 1.072798 -0.076584
H19I H 0.328104 1.029658 -0.077204
H20I H 0.321133 1.051142 -0.052141
C37I C 0.2448(7) 1.0333(6) -0.0909(5)
H21I H 0.219554 1.021114 -0.087260
H22I H 0.257379 1.019234 -0.104063
H23I H 0.240690 1.060629 -0.095482
C38I C 0.2444(10) 1.0532(6) -0.0542(5)
H24I H 0.219311 1.039335 -0.054674
H25I H 0.241311 1.079073 -0.061532
H26I H 0.252908 1.056143 -0.037617
C39I C 0.3088(3) 0.9486(3) -0.02553(19)
C40I C 0.2981(4) 0.9887(3) -0.0367(2)
H27I H 0.309224 1.011100 -0.029386
C41I C 0.1566(4) 0.8432(4) -0.0272(2)
C42I C 0.1222(4) 0.8583(5) -0.0343(3)
H28I H 0.097792 0.850513 -0.027762
C43I C 0.1262(5) 0.8882(6) -0.0532(3)
C44I C 0.0861(6) 0.9161(6) -0.0598(4)
C45I C 0.0533(4) 0.8836(4) -0.0659(3)
H29I H 0.047263 0.868602 -0.051378
H30I H 0.029559 0.896501 -0.071639
H31I H 0.063240 0.865866 -0.078224
C46I C 0.0660(8) 0.9466(7) -0.0414(5)
H32I H 0.060464 0.933298 -0.026236
H33I H 0.083891 0.968504 -0.038478
H34I H 0.041605 0.956465 -0.048261
C47I C 0.0945(5) 0.9394(5) -0.0841(4)
H35I H 0.114348 0.959508 -0.081230
H36I H 0.104029 0.921094 -0.096298
H37I H 0.070347 0.951729 -0.089713
Co1A Co 0.55149(5) 0.53741(5) 0.23665(3)
Co2A Co 0.71622(4) 0.17971(4) 0.03997(3)
Co3A Co 0.66481(6) 0.14438(6) 0.000000
Co4A Co 0.76562(6) 0.21574(6) 0.000000
S2A S 0.75921(9) 0.11820(9) 0.07236(5)
S3A S 0.85382(10) 0.18945(12) 0.000000
S4A S 0.66178(11) 0.05201(10) 0.000000
O1A O 0.7287(2) 0.2334(3) 0.05526(15)
O2A O 0.7623(2) 0.26158(19) 0.02365(13)
O3A O 0.5930(2) 0.5180(3) 0.21231(13)
O4A O 0.5845(3) 0.4518(3) 0.21388(14)
O5A O 0.8129(3) 0.6612(2) 0.05390(15)
O6A O 0.8347(2) 0.6240(2) 0.02432(16)
O7A O 0.7342(2) 0.1529(2) 0.07412(13)
O8A O 0.70315(19) 0.1229(2) 0.02661(12)
O9A O 0.6381(3) 0.0873(3) 0.000000
O12A O 0.8280(3) 0.2239(3) 0.000000
O13A O 0.77387(18) 0.1724(2) 0.02669(11)
O16A O 0.7043(3) 0.1953(3) 0.000000
C1A C 0.7299(3) 0.41968(17) 0.08924(14)
C2A C 0.7073(3) 0.42428(18) 0.11032(15)
H1A H 0.694359 0.402386 0.117123
C3A C 0.7040(2) 0.4616(2) 0.12122(13)
C4A C 0.7233(3) 0.49431(17) 0.11104(14)
H2A H 0.721108 0.519269 0.118338
C5A C 0.7460(3) 0.48971(19) 0.08997(14)
C6A C 0.7493(2) 0.4524(2) 0.07906(12)
H3A H 0.764402 0.449327 0.064959
C7A C 0.7349(3) 0.37794(17) 0.07732(14)
C8A C 0.7416(3) 0.37505(17) 0.05234(14)
H4A H 0.744255 0.398063 0.042986
C9A C 0.7444(2) 0.3378(2) 0.04135(11)
H5A H 0.748950 0.335838 0.024637
C10A C 0.7405(2) 0.30338(16) 0.05533(13)
C11A C 0.7337(3) 0.30626(18) 0.08030(13)
H6A H 0.731114 0.283252 0.089656
C12A C 0.7309(3) 0.3435(2) 0.09130(11)
H7A H 0.726419 0.345476 0.108006
C13A C 0.7426(3) 0.2641(3) 0.0439(2)
C14A C 0.6668(3) 0.4348(2) 0.1578(2)
H8A H 0.676685 0.409580 0.154264
C15A C 0.6411(3) 0.4402(2) 0.17745(18)
H9A H 0.633783 0.418483 0.187057
C16A C 0.6262(3) 0.4779(3) 0.18273(15)
C17A C 0.6371(3) 0.5104(2) 0.16837(19)
H10A H 0.627140 0.535630 0.171905
C18A C 0.6628(4) 0.5050(2) 0.14872(19)
H11A H 0.670041 0.526728 0.139112
C19A C 0.6776(3) 0.4673(3) 0.14344(17)
C20A C 0.5998(3) 0.4849(4) 0.2047(2)
C21A C 0.7677(4) 0.5247(4) 0.0787(2)
C22A C 0.7726(5) 0.5253(5) 0.0524(3)
H12A H 0.762275 0.505376 0.042429
C23A C 0.7935(6) 0.5574(4) 0.0433(3)
H13A H 0.803113 0.555427 0.027389
C24A C 0.8015(5) 0.5933(3) 0.0562(3)
C25A C 0.7896(5) 0.5927(4) 0.0793(3)
H14A H 0.790512 0.616487 0.088031
C26A C 0.7765(5) 0.5605(3) 0.0907(3)
H15A H 0.772882 0.561704 0.107537
C27A C 0.8176(3) 0.6281(3) 0.0432(2)
C28A C 0.8068(3) 0.1564(3) 0.03694(15)
C29A C 0.8046(4) 0.1273(3) 0.0556(2)
C30A C 0.8380(3) 0.1095(5) 0.0649(3)
H16A H 0.836226 0.095446 0.079567
C31A C 0.7365(3) 0.0799(3) 0.05698(19)
C32A C 0.7093(3) 0.0876(3) 0.03623(17)
C33A C 0.7394(4) 0.0420(4) 0.0646(3)
H17A H 0.754018 0.039179 0.078967
C34A C 0.7247(4) 0.0050(4) 0.0552(2)
C35A C 0.7272(9) -0.0315(6) 0.0672(4)
C36A C 0.6890(8) -0.0475(5) 0.0684(4)
H18A H 0.689972 -0.072798 0.076584
H19A H 0.671896 -0.029658 0.077204
H20A H 0.678867 -0.051142 0.052141
C37A C 0.7552(7) -0.0333(6) 0.0909(5)
H21A H 0.780446 -0.021114 0.087260
H22A H 0.742621 -0.019234 0.104063
H23A H 0.759310 -0.060629 0.095482
C38A C 0.7556(10) -0.0532(6) 0.0542(5)
H24A H 0.780689 -0.039335 0.054674
H25A H 0.758689 -0.079073 0.061532
H26A H 0.747092 -0.056143 0.037617
C39A C 0.6912(3) 0.0514(3) 0.02553(19)
C40A C 0.7019(4) 0.0113(3) 0.0367(2)
H27A H 0.690776 -0.011100 0.029386
C41A C 0.8434(4) 0.1568(4) 0.0272(2)
C42A C 0.8778(4) 0.1417(5) 0.0343(3)
H28A H 0.902208 0.149487 0.027762
C43A C 0.8738(5) 0.1118(6) 0.0532(3)
C44A C 0.9139(6) 0.0839(6) 0.0598(4)
C45A C 0.9467(4) 0.1164(4) 0.0659(3)
H29A H 0.952737 0.131398 0.051378
H30A H 0.970441 0.103499 0.071639
H31A H 0.936760 0.134134 0.078224
C46A C 0.9340(8) 0.0534(7) 0.0414(5)
H32A H 0.939536 0.066702 0.026236
H33A H 0.916109 0.031496 0.038478
H34A H 0.958395 0.043535 0.048261
C47A C 0.9055(5) 0.0606(5) 0.0841(4)
H35A H 0.885652 0.040492 0.081230
H36A H 0.895971 0.078906 0.096298
H37A H 0.929653 0.048271 0.089713
S2H S 0.75921(9) 0.11820(9) -0.07236(5)
O7H O 0.7342(2) 0.1529(2) -0.07412(13)
O8H O 0.70315(19) 0.1229(2) -0.02661(12)
O13H O 0.77387(18) 0.1724(2) -0.02669(11)
C28H C 0.8068(3) 0.1564(3) -0.03694(15)
C29H C 0.8046(4) 0.1273(3) -0.0556(2)
C30H C 0.8380(3) 0.1095(5) -0.0649(3)
H16H H 0.836226 0.095446 -0.079567
C31H C 0.7365(3) 0.0799(3) -0.05698(19)
C32H C 0.7093(3) 0.0876(3) -0.03623(17)
C33H C 0.7394(4) 0.0420(4) -0.0646(3)
H17H H 0.754018 0.039179 -0.078967
C34H C 0.7247(4) 0.0050(4) -0.0552(2)
C35H C 0.7272(9) -0.0315(6) -0.0672(4)
C36H C 0.6890(8) -0.0475(5) -0.0684(4)
H18H H 0.689972 -0.072798 -0.076584
H19H H 0.671896 -0.029658 -0.077204
H20H H 0.678867 -0.051142 -0.052141
C37H C 0.7552(7) -0.0333(6) -0.0909(5)
H21H H 0.780446 -0.021114 -0.087260
H22H H 0.742621 -0.019234 -0.104063
H23H H 0.759310 -0.060629 -0.095482
C38H C 0.7556(10) -0.0532(6) -0.0542(5)
H24H H 0.780689 -0.039335 -0.054674
H25H H 0.758689 -0.079073 -0.061532
H26H H 0.747092 -0.056143 -0.037617
C39H C 0.6912(3) 0.0514(3) -0.02553(19)
C40H C 0.7019(4) 0.0113(3) -0.0367(2)
H27H H 0.690776 -0.011100 -0.029386
C41H C 0.8434(4) 0.1568(4) -0.0272(2)
C42H C 0.8778(4) 0.1417(5) -0.0343(3)
H28H H 0.902208 0.149487 -0.027762
C43H C 0.8738(5) 0.1118(6) -0.0532(3)
C44H C 0.9139(6) 0.0839(6) -0.0598(4)
C45H C 0.9467(4) 0.1164(4) -0.0659(3)
H29H H 0.952737 0.131398 -0.051378
H30H H 0.970441 0.103499 -0.071639
H31H H 0.936760 0.134134 -0.078224
C46H C 0.9340(8) 0.0534(7) -0.0414(5)
H32H H 0.939536 0.066702 -0.026236
H33H H 0.916109 0.031496 -0.038478
H34H H 0.958395 0.043535 -0.048261
C47H C 0.9055(5) 0.0606(5) -0.0841(4)
H35H H 0.885652 0.040492 -0.081230
H36H H 0.895971 0.078906 -0.096298
H37H H 0.929653 0.048271 -0.089713
Co1B Co 0.53741(5) 0.44851(5) 0.23665(3)
Co2B Co 0.17971(4) 0.28378(4) 0.03997(3)
Co3B Co 0.14438(6) 0.33519(6) 0.000000
Co4B Co 0.21574(6) 0.23438(6) 0.000000
S2B S 0.11820(9) 0.24079(9) 0.07236(5)
S3B S 0.18945(12) 0.14618(10) 0.000000
S4B S 0.05201(10) 0.33822(11) 0.000000
O1B O 0.2334(3) 0.2713(2) 0.05526(15)
O2B O 0.26158(19) 0.2377(2) 0.02365(13)
O3B O 0.5180(3) 0.4070(2) 0.21231(13)
O4B O 0.4518(3) 0.4155(3) 0.21388(14)
O5B O 0.6612(2) 0.1871(3) 0.05390(15)
O6B O 0.6240(2) 0.1653(2) 0.02432(16)
O7B O 0.1529(2) 0.2658(2) 0.07412(13)
O8B O 0.1229(2) 0.29685(19) 0.02661(12)
O9B O 0.0873(3) 0.3619(3) 0.000000
O12B O 0.2239(3) 0.1720(3) 0.000000
O13B O 0.1724(2) 0.22613(18) 0.02669(11)
O16B O 0.1953(3) 0.2957(3) 0.000000
C1B C 0.41968(17) 0.2701(3) 0.08924(14)
C2B C 0.42428(18) 0.2927(3) 0.11032(15)
H1B H 0.402386 0.305641 0.117123
C3B C 0.4616(2) 0.2960(2) 0.12122(13)
C4B C 0.49431(17) 0.2767(3) 0.11104(14)
H2B H 0.519269 0.278892 0.118338
C5B C 0.48971(19) 0.2540(3) 0.08997(14)
C6B C 0.4524(2) 0.2507(2) 0.07906(12)
H3B H 0.449327 0.235598 0.064959
C7B C 0.37794(17) 0.2651(3) 0.07732(14)
C8B C 0.37505(17) 0.2584(3) 0.05234(14)
H4B H 0.398063 0.255745 0.042986
C9B C 0.3378(2) 0.2556(2) 0.04135(11)
H5B H 0.335838 0.251050 0.024637
C10B C 0.30338(16) 0.2595(2) 0.05533(13)
C11B C 0.30626(18) 0.2663(3) 0.08030(13)
H6B H 0.283252 0.268886 0.089656
C12B C 0.3435(2) 0.2691(3) 0.09130(11)
H7B H 0.345476 0.273581 0.108006
C13B C 0.2641(3) 0.2574(3) 0.0439(2)
C14B C 0.4348(2) 0.3332(3) 0.1578(2)
H8B H 0.409580 0.323315 0.154264
C15B C 0.4402(2) 0.3589(3) 0.17745(18)
H9B H 0.418483 0.366217 0.187057
C16B C 0.4779(3) 0.3738(3) 0.18273(15)
C17B C 0.5104(2) 0.3629(3) 0.16837(19)
H10B H 0.535630 0.372860 0.171905
C18B C 0.5050(2) 0.3372(4) 0.14872(19)
H11B H 0.526728 0.329959 0.139112
C19B C 0.4673(3) 0.3224(3) 0.14344(17)
C20B C 0.4849(4) 0.4002(3) 0.2047(2)
C21B C 0.5247(4) 0.2323(4) 0.0787(2)
C22B C 0.5253(5) 0.2274(5) 0.0524(3)
H12B H 0.505376 0.237725 0.042429
C23B C 0.5574(4) 0.2065(6) 0.0433(3)
H13B H 0.555427 0.196887 0.027389
C24B C 0.5933(3) 0.1985(5) 0.0562(3)
C25B C 0.5927(4) 0.2104(5) 0.0793(3)
H14B H 0.616487 0.209488 0.088031
C26B C 0.5605(3) 0.2235(5) 0.0907(3)
H15B H 0.561704 0.227118 0.107537
C27B C 0.6281(3) 0.1824(3) 0.0432(2)
C28B C 0.1564(3) 0.1932(3) 0.03694(15)
C29B C 0.1273(3) 0.1954(4) 0.0556(2)
C30B C 0.1095(5) 0.1620(3) 0.0649(3)
H16B H 0.095446 0.163774 0.079567
C31B C 0.0799(3) 0.2635(3) 0.05698(19)
C32B C 0.0876(3) 0.2907(3) 0.03623(17)
C33B C 0.0420(4) 0.2606(4) 0.0646(3)
H17B H 0.039179 0.245982 0.078967
C34B C 0.0050(4) 0.2753(4) 0.0552(2)
C35B C -0.0315(6) 0.2728(9) 0.0672(4)
C36B C -0.0475(5) 0.3110(8) 0.0684(4)
H18B H -0.072798 0.310028 0.076584
H19B H -0.029658 0.328104 0.077204
H20B H -0.051142 0.321133 0.052141
C37B C -0.0333(6) 0.2448(7) 0.0909(5)
H21B H -0.021114 0.219554 0.087260
H22B H -0.019234 0.257379 0.104063
H23B H -0.060629 0.240690 0.095482
C38B C -0.0532(6) 0.2444(10) 0.0542(5)
H24B H -0.039335 0.219311 0.054674
H25B H -0.079073 0.241311 0.061532
H26B H -0.056143 0.252908 0.037617
C39B C 0.0514(3) 0.3088(3) 0.02553(19)
C40B C 0.0113(3) 0.2981(4) 0.0367(2)
H27B H -0.011100 0.309224 0.029386
C41B C 0.1568(4) 0.1566(4) 0.0272(2)
C42B C 0.1417(5) 0.1222(4) 0.0343(3)
H28B H 0.149487 0.097792 0.027762
C43B C 0.1118(6) 0.1262(5) 0.0532(3)
C44B C 0.0839(6) 0.0861(6) 0.0598(4)
C45B C 0.1164(4) 0.0533(4) 0.0659(3)
H29B H 0.131398 0.047263 0.051378
H30B H 0.103499 0.029559 0.071639
H31B H 0.134134 0.063240 0.078224
C46B C 0.0534(7) 0.0660(8) 0.0414(5)
H32B H 0.066702 0.060464 0.026236
H33B H 0.031496 0.083891 0.038478
H34B H 0.043535 0.041605 0.048261
C47B C 0.0606(5) 0.0945(5) 0.0841(4)
H35B H 0.040492 0.114348 0.081230
H36B H 0.078906 0.104029 0.096298
H37B H 0.048271 0.070347 0.089713
S2K S 0.11820(9) 0.24079(9) -0.07236(5)
O7K O 0.1529(2) 0.2658(2) -0.07412(13)
O8K O 0.1229(2) 0.29685(19) -0.02661(12)
O13K O 0.1724(2) 0.22613(18) -0.02669(11)
C28K C 0.1564(3) 0.1932(3) -0.03694(15)
C29K C 0.1273(3) 0.1954(4) -0.0556(2)
C30K C 0.1095(5) 0.1620(3) -0.0649(3)
H16K H 0.095446 0.163774 -0.079567
C31K C 0.0799(3) 0.2635(3) -0.05698(19)
C32K C 0.0876(3) 0.2907(3) -0.03623(17)
C33K C 0.0420(4) 0.2606(4) -0.0646(3)
H17K H 0.039179 0.245982 -0.078967
C34K C 0.0050(4) 0.2753(4) -0.0552(2)
C35K C -0.0315(6) 0.2728(9) -0.0672(4)
C36K C -0.0475(5) 0.3110(8) -0.0684(4)
H18K H -0.072798 0.310028 -0.076584
H19K H -0.029658 0.328104 -0.077204
H20K H -0.051142 0.321133 -0.052141
C37K C -0.0333(6) 0.2448(7) -0.0909(5)
H21K H -0.021114 0.219554 -0.087260
H22K H -0.019234 0.257379 -0.104063
H23K H -0.060629 0.240690 -0.095482
C38K C -0.0532(6) 0.2444(10) -0.0542(5)
H24K H -0.039335 0.219311 -0.054674
H25K H -0.079073 0.241311 -0.061532
H26K H -0.056143 0.252908 -0.037617
C39K C 0.0514(3) 0.3088(3) -0.02553(19)
C40K C 0.0113(3) 0.2981(4) -0.0367(2)
H27K H -0.011100 0.309224 -0.029386
C41K C 0.1568(4) 0.1566(4) -0.0272(2)
C42K C 0.1417(5) 0.1222(4) -0.0343(3)
H28K H 0.149487 0.097792 -0.027762
C43K C 0.1118(6) 0.1262(5) -0.0532(3)
C44K C 0.0839(6) 0.0861(6) -0.0598(4)
C45K C 0.1164(4) 0.0533(4) -0.0659(3)
H29K H 0.131398 0.047263 -0.051378
H30K H 0.103499 0.029559 -0.071639
H31K H 0.134134 0.063240 -0.078224
C46K C 0.0534(7) 0.0660(8) -0.0414(5)
H32K H 0.066702 0.060464 -0.026236
H33K H 0.031496 0.083891 -0.038478
H34K H 0.043535 0.041605 -0.048261
C47K C 0.0606(5) 0.0945(5) -0.0841(4)
H35K H 0.040492 0.114348 -0.081230
H36K H 0.078906 0.104029 -0.096298
H37K H 0.048271 0.070347 -0.089713
Co1C Co 0.46259(5) 0.55149(5) 0.23665(3)
Co2C Co 0.82029(4) 0.71622(4) 0.03997(3)
Co3C Co 0.85562(6) 0.66481(6) 0.000000
Co4C Co 0.78426(6) 0.76562(6) 0.000000
S2C S 0.88180(9) 0.75921(9) 0.07236(5)
S3C S 0.81055(12) 0.85382(10) 0.000000
S4C S 0.94799(10) 0.66178(11) 0.000000
O1C O 0.7666(3) 0.7287(2) 0.05526(15)
O2C O 0.73842(19) 0.7623(2) 0.02365(13)
O3C O 0.4820(3) 0.5930(2) 0.21231(13)
O4C O 0.5482(3) 0.5845(3) 0.21388(14)
O5C O 0.3388(2) 0.8129(3) 0.05390(15)
O6C O 0.3760(2) 0.8347(2) 0.02432(16)
O7C O 0.8471(2) 0.7342(2) 0.07412(13)
O8C O 0.8771(2) 0.70315(19) 0.02661(12)
O9C O 0.9127(3) 0.6381(3) 0.000000
O12C O 0.7761(3) 0.8280(3) 0.000000
O13C O 0.8276(2) 0.77387(18) 0.02669(11)
O16C O 0.8047(3) 0.7043(3) 0.000000
C1C C 0.58032(17) 0.7299(3) 0.08924(14)
C2C C 0.57572(18) 0.7073(3) 0.11032(15)
H1C H 0.597614 0.694359 0.117123
C3C C 0.5384(2) 0.7040(2) 0.12122(13)
C4C C 0.50569(17) 0.7233(3) 0.11104(14)
H2C H 0.480731 0.721108 0.118338
C5C C 0.51029(19) 0.7460(3) 0.08997(14)
C6C C 0.5476(2) 0.7493(2) 0.07906(12)
H3C H 0.550673 0.764402 0.064959
C7C C 0.62206(17) 0.7349(3) 0.07732(14)
C8C C 0.62495(17) 0.7416(3) 0.05234(14)
H4C H 0.601937 0.744255 0.042986
C9C C 0.6622(2) 0.7444(2) 0.04135(11)
H5C H 0.664162 0.748950 0.024637
C10C C 0.69662(16) 0.7405(2) 0.05533(13)
C11C C 0.69374(18) 0.7337(3) 0.08030(13)
H6C H 0.716748 0.731114 0.089656
C12C C 0.6565(2) 0.7309(3) 0.09130(11)
H7C H 0.654524 0.726419 0.108006
C13C C 0.7359(3) 0.7426(3) 0.0439(2)
C14C C 0.5652(2) 0.6668(3) 0.1578(2)
H8C H 0.590420 0.676685 0.154264
C15C C 0.5598(2) 0.6411(3) 0.17745(18)
H9C H 0.581517 0.633783 0.187057
C16C C 0.5221(3) 0.6262(3) 0.18273(15)
C17C C 0.4896(2) 0.6371(3) 0.16837(19)
H10C H 0.464370 0.627140 0.171905
C18C C 0.4950(2) 0.6628(4) 0.14872(19)
H11C H 0.473272 0.670041 0.139112
C19C C 0.5327(3) 0.6776(3) 0.14344(17)
C20C C 0.5151(4) 0.5998(3) 0.2047(2)
C21C C 0.4753(4) 0.7677(4) 0.0787(2)
C22C C 0.4747(5) 0.7726(5) 0.0524(3)
H12C H 0.494624 0.762275 0.042429
C23C C 0.4426(4) 0.7935(6) 0.0433(3)
H13C H 0.444573 0.803113 0.027389
C24C C 0.4067(3) 0.8015(5) 0.0562(3)
C25C C 0.4073(4) 0.7896(5) 0.0793(3)
H14C H 0.383513 0.790512 0.088031
C26C C 0.4395(3) 0.7765(5) 0.0907(3)
H15C H 0.438296 0.772882 0.107537
C27C C 0.3719(3) 0.8176(3) 0.0432(2)
C28C C 0.8436(3) 0.8068(3) 0.03694(15)
C29C C 0.8727(3) 0.8046(4) 0.0556(2)
C30C C 0.8905(5) 0.8380(3) 0.0649(3)
H16C H 0.904554 0.836226 0.079567
C31C C 0.9201(3) 0.7365(3) 0.05698(19)
C32C C 0.9124(3) 0.7093(3) 0.03623(17)
C33C C 0.9580(4) 0.7394(4) 0.0646(3)
H17C H 0.960821 0.754018 0.078967
C34C C 0.9950(4) 0.7247(4) 0.0552(2)
C35C C 1.0315(6) 0.7272(9) 0.0672(4)
C36C C 1.0475(5) 0.6890(8) 0.0684(4)
H18C H 1.072798 0.689972 0.076584
H19C H 1.029658 0.671896 0.077204
H20C H 1.051142 0.678867 0.052141
C37C C 1.0333(6) 0.7552(7) 0.0909(5)
H21C H 1.021114 0.780446 0.087260
H22C H 1.019234 0.742621 0.104063
H23C H 1.060629 0.759310 0.095482
C38C C 1.0532(6) 0.7556(10) 0.0542(5)
H24C H 1.039335 0.780689 0.054674
H25C H 1.079073 0.758689 0.061532
H26C H 1.056143 0.747092 0.037617
C39C C 0.9486(3) 0.6912(3) 0.02553(19)
C40C C 0.9887(3) 0.7019(4) 0.0367(2)
H27C H 1.011100 0.690776 0.029386
C41C C 0.8432(4) 0.8434(4) 0.0272(2)
C42C C 0.8583(5) 0.8778(4) 0.0343(3)
H28C H 0.850513 0.902208 0.027762
C43C C 0.8882(6) 0.8738(5) 0.0532(3)
C44C C 0.9161(6) 0.9139(6) 0.0598(4)
C45C C 0.8836(4) 0.9467(4) 0.0659(3)
H29C H 0.868602 0.952737 0.051378
H30C H 0.896501 0.970441 0.071639
H31C H 0.865866 0.936760 0.078224
C46C C 0.9466(7) 0.9340(8) 0.0414(5)
H32C H 0.933298 0.939536 0.026236
H33C H 0.968504 0.916109 0.038478
H34C H 0.956465 0.958395 0.048261
C47C C 0.9394(5) 0.9055(5) 0.0841(4)
H35C H 0.959508 0.885652 0.081230
H36C H 0.921094 0.895971 0.096298
H37C H 0.951729 0.929653 0.089713
S2J S 0.88180(9) 0.75921(9) -0.07236(5)
O7J O 0.8471(2) 0.7342(2) -0.07412(13)
O8J O 0.8771(2) 0.70315(19) -0.02661(12)
O13J O 0.8276(2) 0.77387(18) -0.02669(11)
C28J C 0.8436(3) 0.8068(3) -0.03694(15)
C29J C 0.8727(3) 0.8046(4) -0.0556(2)
C30J C 0.8905(5) 0.8380(3) -0.0649(3)
H16J H 0.904554 0.836226 -0.079567
C31J C 0.9201(3) 0.7365(3) -0.05698(19)
C32J C 0.9124(3) 0.7093(3) -0.03623(17)
C33J C 0.9580(4) 0.7394(4) -0.0646(3)
H17J H 0.960821 0.754018 -0.078967
C34J C 0.9950(4) 0.7247(4) -0.0552(2)
C35J C 1.0315(6) 0.7272(9) -0.0672(4)
C36J C 1.0475(5) 0.6890(8) -0.0684(4)
H18J H 1.072798 0.689972 -0.076584
H19J H 1.029658 0.671896 -0.077204
H20J H 1.051142 0.678867 -0.052141
C37J C 1.0333(6) 0.7552(7) -0.0909(5)
H21J H 1.021114 0.780446 -0.087260
H22J H 1.019234 0.742621 -0.104063
H23J H 1.060629 0.759310 -0.095482
C38J C 1.0532(6) 0.7556(10) -0.0542(5)
H24J H 1.039335 0.780689 -0.054674
H25J H 1.079073 0.758689 -0.061532
H26J H 1.056143 0.747092 -0.037617
C39J C 0.9486(3) 0.6912(3) -0.02553(19)
C40J C 0.9887(3) 0.7019(4) -0.0367(2)
H27J H 1.011100 0.690776 -0.029386
C41J C 0.8432(4) 0.8434(4) -0.0272(2)
C42J C 0.8583(5) 0.8778(4) -0.0343(3)
H28J H 0.850513 0.902208 -0.027762
C43J C 0.8882(6) 0.8738(5) -0.0532(3)
C44J C 0.9161(6) 0.9139(6) -0.0598(4)
C45J C 0.8836(4) 0.9467(4) -0.0659(3)
H29J H 0.868602 0.952737 -0.051378
H30J H 0.896501 0.970441 -0.071639
H31J H 0.865866 0.936760 -0.078224
C46J C 0.9466(7) 0.9340(8) -0.0414(5)
H32J H 0.933298 0.939536 -0.026236
H33J H 0.968504 0.916109 -0.038478
H34J H 0.956465 0.958395 -0.048261
C47J C 0.9394(5) 0.9055(5) -0.0841(4)
H35J H 0.959508 0.885652 -0.081230
H36J H 0.921094 0.895971 -0.096298
H37J H 0.951729 0.929653 -0.089713
Co1H Co 0.55149(5) 0.53741(5) -0.23665(3)
Co2H Co 0.71622(4) 0.17971(4) -0.03997(3)
S1H S 0.59548(12) 0.56942(11) -0.28201(6)
O1H O 0.7287(2) 0.2334(3) -0.05526(15)
O2H O 0.7623(2) 0.26158(19) -0.02365(13)
O3H O 0.5930(2) 0.5180(3) -0.21231(13)
O4H O 0.5845(3) 0.4518(3) -0.21388(14)
O5H O 0.8129(3) 0.6612(2) -0.05390(15)
O6H O 0.8347(2) 0.6240(2) -0.02432(16)
O10H O 0.5091(2) 0.5629(2) -0.26060(12)
O11H O 0.5959(3) 0.5695(3) -0.25584(14)
O14H O 0.500000 0.500000 -0.2228(3)
O15H O 0.6263(3) 0.5928(3) -0.29256(16)
C1H C 0.7299(3) 0.41968(17) -0.08924(14)
C2H C 0.7073(3) 0.42428(18) -0.11032(15)
H1H H 0.694359 0.402386 -0.117123
C3H C 0.7040(2) 0.4616(2) -0.12122(13)
C4H C 0.7233(3) 0.49431(17) -0.11104(14)
H2H H 0.721108 0.519269 -0.118338
C5H C 0.7460(3) 0.48971(19) -0.08997(14)
C6H C 0.7493(2) 0.4524(2) -0.07906(12)
H3H H 0.764402 0.449327 -0.064959
C7H C 0.7349(3) 0.37794(17) -0.07732(14)
C8H C 0.7416(3) 0.37505(17) -0.05234(14)
H4H H 0.744255 0.398063 -0.042986
C9H C 0.7444(2) 0.3378(2) -0.04135(11)
H5H H 0.748950 0.335838 -0.024637
C10H C 0.7405(2) 0.30338(16) -0.05533(13)
C11H C 0.7337(3) 0.30626(18) -0.08030(13)
H6H H 0.731114 0.283252 -0.089656
C12H C 0.7309(3) 0.3435(2) -0.09130(11)
H7H H 0.726419 0.345476 -0.108006
C13H C 0.7426(3) 0.2641(3) -0.0439(2)
C14H C 0.6668(3) 0.4348(2) -0.1578(2)
H8H H 0.676685 0.409580 -0.154264
C15H C 0.6411(3) 0.4402(2) -0.17745(18)
H9H H 0.633783 0.418483 -0.187057
C16H C 0.6262(3) 0.4779(3) -0.18273(15)
C17H C 0.6371(3) 0.5104(2) -0.16837(19)
H10H H 0.627140 0.535630 -0.171905
C18H C 0.6628(4) 0.5050(2) -0.14872(19)
H11H H 0.670041 0.526728 -0.139112
C19H C 0.6776(3) 0.4673(3) -0.14344(17)
C20H C 0.5998(3) 0.4849(4) -0.2047(2)
C21H C 0.7677(4) 0.5247(4) -0.0787(2)
C22H C 0.7726(5) 0.5253(5) -0.0524(3)
H12H H 0.762275 0.505376 -0.042429
C23H C 0.7935(6) 0.5574(4) -0.0433(3)
H13H H 0.803113 0.555427 -0.027389
C24H C 0.8015(5) 0.5933(3) -0.0562(3)
C25H C 0.7896(5) 0.5927(4) -0.0793(3)
H14H H 0.790512 0.616487 -0.088031
C26H C 0.7765(5) 0.5605(3) -0.0907(3)
H15H H 0.772882 0.561704 -0.107537
C27H C 0.8176(3) 0.6281(3) -0.0432(2)
C48H C 0.5132(5) 0.5828(3) -0.2816(2)
C49H C 0.5491(4) 0.5905(4) -0.2930(3)
C50H C 0.5551(5) 0.6102(4) -0.3130(3)
H38H H 0.580119 0.611753 -0.320252
C51H C 0.5987(5) 0.5179(4) -0.2921(2)
C52H C 0.6255(4) 0.5169(5) -0.3130(3)
H39H H 0.638463 0.539776 -0.318501
C53H C 0.6307(5) 0.4817(6) -0.3241(3)
C54H C 0.6537(10) 0.4742(10) -0.3499(5)
C55H C 0.6417(9) 0.4926(8) -0.3624(4)
H40H H 0.638163 0.518605 -0.355357
H41H H 0.616376 0.482286 -0.367515
H42H H 0.659258 0.494465 -0.376200
C56H C 0.6619(7) 0.4335(7) -0.3562(4)
H43H H 0.673191 0.420038 -0.342359
H44H H 0.680388 0.432741 -0.369548
H45H H 0.637505 0.420563 -0.360863
C57H C 0.6994(7) 0.4968(7) -0.3378(4)
H46H H 0.710956 0.479362 -0.325852
H47H H 0.693080 0.521960 -0.330374
H48H H 0.717987 0.500901 -0.350891
S1J S 0.43058(11) 0.59548(12) -0.28201(6)
O10J O 0.4371(2) 0.5091(2) -0.26060(12)
O11J O 0.4305(3) 0.5959(3) -0.25584(14)
O15J O 0.4072(3) 0.6263(3) -0.29256(16)
C48J C 0.4172(3) 0.5132(5) -0.2816(2)
C49J C 0.4095(4) 0.5491(4) -0.2930(3)
C50J C 0.3898(4) 0.5551(5) -0.3130(3)
H38J H 0.388247 0.580119 -0.320252
C51J C 0.4821(4) 0.5987(5) -0.2921(2)
C52J C 0.4831(5) 0.6255(4) -0.3130(3)
H39J H 0.460224 0.638463 -0.318501
C53J C 0.5183(6) 0.6307(5) -0.3241(3)
C54J C 0.5258(10) 0.6537(10) -0.3499(5)
C55J C 0.5074(8) 0.6417(9) -0.3624(4)
H40J H 0.481395 0.638163 -0.355357
H41J H 0.517714 0.616376 -0.367515
H42J H 0.505535 0.659258 -0.376200
C56J C 0.5665(7) 0.6619(7) -0.3562(4)
H43J H 0.579962 0.673191 -0.342359
H44J H 0.567259 0.680388 -0.369548
H45J H 0.579437 0.637505 -0.360863
C57J C 0.5032(7) 0.6994(7) -0.3378(4)
H46J H 0.520638 0.710956 -0.325852
H47J H 0.478040 0.693080 -0.330374
H48J H 0.499099 0.717987 -0.350891
S1K S 0.56942(11) 0.40452(12) -0.28201(6)
O10K O 0.5629(2) 0.4909(2) -0.26060(12)
O11K O 0.5695(3) 0.4041(3) -0.25584(14)
O15K O 0.5928(3) 0.3737(3) -0.29256(16)
C48K C 0.5828(3) 0.4868(5) -0.2816(2)
C49K C 0.5905(4) 0.4509(4) -0.2930(3)
C50K C 0.6102(4) 0.4449(5) -0.3130(3)
H38K H 0.611753 0.419881 -0.320252
C51K C 0.5179(4) 0.4013(5) -0.2921(2)
C52K C 0.5169(5) 0.3745(4) -0.3130(3)
H39K H 0.539776 0.361537 -0.318501
C53K C 0.4817(6) 0.3693(5) -0.3241(3)
C54K C 0.4742(10) 0.3463(10) -0.3499(5)
C55K C 0.4926(8) 0.3583(9) -0.3624(4)
H40K H 0.518605 0.361837 -0.355357
H41K H 0.482286 0.383624 -0.367515
H42K H 0.494465 0.340742 -0.376200
C56K C 0.4335(7) 0.3381(7) -0.3562(4)
H43K H 0.420038 0.326809 -0.342359
H44K H 0.432741 0.319612 -0.369548
H45K H 0.420563 0.362495 -0.360863
C57K C 0.4968(7) 0.3006(7) -0.3378(4)
H46K H 0.479362 0.289044 -0.325852
H47K H 0.521960 0.306920 -0.330374
H48K H 0.500901 0.282013 -0.350891
S1I S 0.40452(12) 0.43058(11) -0.28201(6)
O10I O 0.4909(2) 0.4371(2) -0.26060(12)
O11I O 0.4041(3) 0.4305(3) -0.25584(14)
O15I O 0.3737(3) 0.4072(3) -0.29256(16)
C48I C 0.4868(5) 0.4172(3) -0.2816(2)
C49I C 0.4509(4) 0.4095(4) -0.2930(3)
C50I C 0.4449(5) 0.3898(4) -0.3130(3)
H38I H 0.419881 0.388247 -0.320252
C51I C 0.4013(5) 0.4821(4) -0.2921(2)
C52I C 0.3745(4) 0.4831(5) -0.3130(3)
H39I H 0.361537 0.460224 -0.318501
C53I C 0.3693(5) 0.5183(6) -0.3241(3)
C54I C 0.3463(10) 0.5258(10) -0.3499(5)
C55I C 0.3583(9) 0.5074(8) -0.3624(4)
H40I H 0.361837 0.481395 -0.355357
H41I H 0.383624 0.517714 -0.367515
H42I H 0.340742 0.505535 -0.376200
C56I C 0.3381(7) 0.5665(7) -0.3562(4)
H43I H 0.326809 0.579962 -0.342359
H44I H 0.319612 0.567259 -0.369548
H45I H 0.362495 0.579437 -0.360863
C57I C 0.3006(7) 0.5032(7) -0.3378(4)
H46I H 0.289044 0.520638 -0.325852
H47I H 0.306920 0.478040 -0.330374
H48I H 0.282013 0.499099 -0.350891
Co1I Co 0.44851(5) 0.46259(5) -0.23665(3)
Co2I Co 0.28378(4) 0.82029(4) -0.03997(3)
O1I O 0.2713(2) 0.7666(3) -0.05526(15)
O2I O 0.2377(2) 0.73842(19) -0.02365(13)
O3I O 0.4070(2) 0.4820(3) -0.21231(13)
O4I O 0.4155(3) 0.5482(3) -0.21388(14)
O5I O 0.1871(3) 0.3388(2) -0.05390(15)
O6I O 0.1653(2) 0.3760(2) -0.02432(16)
C1I C 0.2701(3) 0.58032(17) -0.08924(14)
C2I C 0.2927(3) 0.57572(18) -0.11032(15)
H1I H 0.305641 0.597614 -0.117123
C3I C 0.2960(2) 0.5384(2) -0.12122(13)
C4I C 0.2767(3) 0.50569(17) -0.11104(14)
H2I H 0.278892 0.480731 -0.118338
C5I C 0.2540(3) 0.51029(19) -0.08997(14)
C6I C 0.2507(2) 0.5476(2) -0.07906(12)
H3I H 0.235598 0.550673 -0.064959
C7I C 0.2651(3) 0.62206(17) -0.07732(14)
C8I C 0.2584(3) 0.62495(17) -0.05234(14)
H4I H 0.255745 0.601937 -0.042986
C9I C 0.2556(2) 0.6622(2) -0.04135(11)
H5I H 0.251050 0.664162 -0.024637
C10I C 0.2595(2) 0.69662(16) -0.05533(13)
C11I C 0.2663(3) 0.69374(18) -0.08030(13)
H6I H 0.268886 0.716748 -0.089656
C12I C 0.2691(3) 0.6565(2) -0.09130(11)
H7I H 0.273581 0.654524 -0.108006
C13I C 0.2574(3) 0.7359(3) -0.0439(2)
C14I C 0.3332(3) 0.5652(2) -0.1578(2)
H8I H 0.323315 0.590420 -0.154264
C15I C 0.3589(3) 0.5598(2) -0.17745(18)
H9I H 0.366217 0.581517 -0.187057
C16I C 0.3738(3) 0.5221(3) -0.18273(15)
C17I C 0.3629(3) 0.4896(2) -0.16837(19)
H10I H 0.372860 0.464370 -0.171905
C18I C 0.3372(4) 0.4950(2) -0.14872(19)
H11I H 0.329959 0.473272 -0.139112
C19I C 0.3224(3) 0.5327(3) -0.14344(17)
C20I C 0.4002(3) 0.5151(4) -0.2047(2)
C21I C 0.2323(4) 0.4753(4) -0.0787(2)
C22I C 0.2274(5) 0.4747(5) -0.0524(3)
H12I H 0.237725 0.494624 -0.042429
C23I C 0.2065(6) 0.4426(4) -0.0433(3)
H13I H 0.196887 0.444573 -0.027389
C24I C 0.1985(5) 0.4067(3) -0.0562(3)
C25I C 0.2104(5) 0.4073(4) -0.0793(3)
H14I H 0.209488 0.383513 -0.088031
C26I C 0.2235(5) 0.4395(3) -0.0907(3)
H15I H 0.227118 0.438296 -0.107537
C27I C 0.1824(3) 0.3719(3) -0.0432(2)
Co1J Co 0.46259(5) 0.55149(5) -0.23665(3)
Co2J Co 0.82029(4) 0.71622(4) -0.03997(3)
O1J O 0.7666(3) 0.7287(2) -0.05526(15)
O2J O 0.73842(19) 0.7623(2) -0.02365(13)
O3J O 0.4820(3) 0.5930(2) -0.21231(13)
O4J O 0.5482(3) 0.5845(3) -0.21388(14)
O5J O 0.3388(2) 0.8129(3) -0.05390(15)
O6J O 0.3760(2) 0.8347(2) -0.02432(16)
C1J C 0.58032(17) 0.7299(3) -0.08924(14)
C2J C 0.57572(18) 0.7073(3) -0.11032(15)
H1J H 0.597614 0.694359 -0.117123
C3J C 0.5384(2) 0.7040(2) -0.12122(13)
C4J C 0.50569(17) 0.7233(3) -0.11104(14)
H2J H 0.480731 0.721108 -0.118338
C5J C 0.51029(19) 0.7460(3) -0.08997(14)
C6J C 0.5476(2) 0.7493(2) -0.07906(12)
H3J H 0.550673 0.764402 -0.064959
C7J C 0.62206(17) 0.7349(3) -0.07732(14)
C8J C 0.62495(17) 0.7416(3) -0.05234(14)
H4J H 0.601937 0.744255 -0.042986
C9J C 0.6622(2) 0.7444(2) -0.04135(11)
H5J H 0.664162 0.748950 -0.024637
C10J C 0.69662(16) 0.7405(2) -0.05533(13)
C11J C 0.69374(18) 0.7337(3) -0.08030(13)
H6J H 0.716748 0.731114 -0.089656
C12J C 0.6565(2) 0.7309(3) -0.09130(11)
H7J H 0.654524 0.726419 -0.108006
C13J C 0.7359(3) 0.7426(3) -0.0439(2)
C14J C 0.5652(2) 0.6668(3) -0.1578(2)
H8J H 0.590420 0.676685 -0.154264
C15J C 0.5598(2) 0.6411(3) -0.17745(18)
H9J H 0.581517 0.633783 -0.187057
C16J C 0.5221(3) 0.6262(3) -0.18273(15)
C17J C 0.4896(2) 0.6371(3) -0.16837(19)
H10J H 0.464370 0.627140 -0.171905
C18J C 0.4950(2) 0.6628(4) -0.14872(19)
H11J H 0.473272 0.670041 -0.139112
C19J C 0.5327(3) 0.6776(3) -0.14344(17)
C20J C 0.5151(4) 0.5998(3) -0.2047(2)
C21J C 0.4753(4) 0.7677(4) -0.0787(2)
C22J C 0.4747(5) 0.7726(5) -0.0524(3)
H12J H 0.494624 0.762275 -0.042429
C23J C 0.4426(4) 0.7935(6) -0.0433(3)
H13J H 0.444573 0.803113 -0.027389
C24J C 0.4067(3) 0.8015(5) -0.0562(3)
C25J C 0.4073(4) 0.7896(5) -0.0793(3)
H14J H 0.383513 0.790512 -0.088031
C26J C 0.4395(3) 0.7765(5) -0.0907(3)
H15J H 0.438296 0.772882 -0.107537
C27J C 0.3719(3) 0.8176(3) -0.0432(2)
Co1K Co 0.53741(5) 0.44851(5) -0.23665(3)
Co2K Co 0.17971(4) 0.28378(4) -0.03997(3)
O1K O 0.2334(3) 0.2713(2) -0.05526(15)
O2K O 0.26158(19) 0.2377(2) -0.02365(13)
O3K O 0.5180(3) 0.4070(2) -0.21231(13)
O4K O 0.4518(3) 0.4155(3) -0.21388(14)
O5K O 0.6612(2) 0.1871(3) -0.05390(15)
O6K O 0.6240(2) 0.1653(2) -0.02432(16)
C1K C 0.41968(17) 0.2701(3) -0.08924(14)
C2K C 0.42428(18) 0.2927(3) -0.11032(15)
H1K H 0.402386 0.305641 -0.117123
C3K C 0.4616(2) 0.2960(2) -0.12122(13)
C4K C 0.49431(17) 0.2767(3) -0.11104(14)
H2K H 0.519269 0.278892 -0.118338
C5K C 0.48971(19) 0.2540(3) -0.08997(14)
C6K C 0.4524(2) 0.2507(2) -0.07906(12)
H3K H 0.449327 0.235598 -0.064959
C7K C 0.37794(17) 0.2651(3) -0.07732(14)
C8K C 0.37505(17) 0.2584(3) -0.05234(14)
H4K H 0.398063 0.255745 -0.042986
C9K C 0.3378(2) 0.2556(2) -0.04135(11)
H5K H 0.335838 0.251050 -0.024637
C10K C 0.30338(16) 0.2595(2) -0.05533(13)
C11K C 0.30626(18) 0.2663(3) -0.08030(13)
H6K H 0.283252 0.268886 -0.089656
C12K C 0.3435(2) 0.2691(3) -0.09130(11)
H7K H 0.345476 0.273581 -0.108006
C13K C 0.2641(3) 0.2574(3) -0.0439(2)
C14K C 0.4348(2) 0.3332(3) -0.1578(2)
H8K H 0.409580 0.323315 -0.154264
C15K C 0.4402(2) 0.3589(3) -0.17745(18)
H9K H 0.418483 0.366217 -0.187057
C16K C 0.4779(3) 0.3738(3) -0.18273(15)
C17K C 0.5104(2) 0.3629(3) -0.16837(19)
H10K H 0.535630 0.372860 -0.171905
C18K C 0.5050(2) 0.3372(4) -0.14872(19)
H11K H 0.526728 0.329959 -0.139112
C19K C 0.4673(3) 0.3224(3) -0.14344(17)
C20K C 0.4849(4) 0.4002(3) -0.2047(2)
C21K C 0.5247(4) 0.2323(4) -0.0787(2)
C22K C 0.5253(5) 0.2274(5) -0.0524(3)
H12K H 0.505376 0.237725 -0.042429
C23K C 0.5574(4) 0.2065(6) -0.0433(3)
H13K H 0.555427 0.196887 -0.027389
C24K C 0.5933(3) 0.1985(5) -0.0562(3)
C25K C 0.5927(4) 0.2104(5) -0.0793(3)
H14K H 0.616487 0.209488 -0.088031
C26K C 0.5605(3) 0.2235(5) -0.0907(3)
H15K H 0.561704 0.227118 -0.107537
C27K C 0.6281(3) 0.1824(3) -0.0432(2)
loop_
_geom_bond_atom_site_label_1
_geom_bond_atom_site_label_2
_geom_bond_site_symmetry_1
_geom_bond_site_symmetry_2
Co1 O3 1_555 1_555
Co2 O1 1_555 1_555
Co3 O8 1_555 1_555
Co4 O2 1_555 1_555
S1 O11 1_555 1_555
S2 O7 1_555 1_555
S3 O12 1_555 1_555
S4 O9 1_555 1_555
O1 C13 1_555 1_555
O2 C13 1_555 1_555
O3 C20 1_555 1_555
O4 C20 1_555 1_555
O5 C27 1_555 1_555
O6 C27 1_555 1_555
O7 Co2 1_555 1_555
O8 Co2 1_555 1_555
O9 Co3 1_555 1_555
O10 Co1 1_555 1_555
O11 Co1 1_555 1_555
O12 Co4 1_555 1_555
O13 Co2 1_555 1_555
O14 Co1 1_555 1_555
O15 S1 1_555 1_555
O16 Co2 1_555 1_555
C1 C2 1_555 1_555
C2 H1 1_555 1_555
C3 C2 1_555 1_555
C4 C3 1_555 1_555
H2 C4 1_555 1_555
C5 C4 1_555 1_555
C6 C1 1_555 1_555
H3 C6 1_555 1_555
C7 C1 1_555 1_555
C8 C7 1_555 1_555
H4 C8 1_555 1_555
C9 C8 1_555 1_555
H5 C9 1_555 1_555
C10 C9 1_555 1_555
C11 C10 1_555 1_555
H6 C11 1_555 1_555
C12 C7 1_555 1_555
H7 C12 1_555 1_555
C13 C10 1_555 1_555
C14 H8 1_555 1_555
C15 C14 1_555 1_555
H9 C15 1_555 1_555
C16 C15 1_555 1_555
C17 C16 1_555 1_555
H10 C17 1_555 1_555
C18 C17 1_555 1_555
H11 C18 1_555 1_555
C19 C3 1_555 1_555
C20 C16 1_555 1_555
C21 C5 1_555 1_555
C22 C21 1_555 1_555
H12 C22 1_555 1_555
C23 C22 1_555 1_555
H13 C23 1_555 1_555
C24 C23 1_555 1_555
C25 C24 1_555 1_555
H14 C25 1_555 1_555
C26 C21 1_555 1_555
H15 C26 1_555 1_555
C27 C24 1_555 1_555
C28 O13 1_555 1_555
C29 S2 1_555 1_555
C30 C29 1_555 1_555
H16 C30 1_555 1_555
C31 S2 1_555 1_555
C32 O8 1_555 1_555
C33 C31 1_555 1_555
H17 C33 1_555 1_555
C34 C33 1_555 1_555
C35 C34 1_555 1_555
C36 C35 1_555 1_555
H18 C36 1_555 1_555
H19 C36 1_555 1_555
H20 C36 1_555 1_555
C37 C35 1_555 1_555
H21 C37 1_555 1_555
H22 C37 1_555 1_555
H23 C37 1_555 1_555
C38 C35 1_555 1_555
H24 C38 1_555 1_555
H25 C38 1_555 1_555
H26 C38 1_555 1_555
C39 S4 1_555 1_555
C40 C34 1_555 1_555
H27 C40 1_555 1_555
C41 S3 1_555 1_555
C42 C41 1_555 1_555
H28 C42 1_555 1_555
C43 C30 1_555 1_555
C44 C43 1_555 1_555
C45 C44 1_555 1_555
H29 C45 1_555 1_555
H30 C45 1_555 1_555
H31 C45 1_555 1_555
C46 C44 1_555 1_555
H32 C46 1_555 1_555
H33 C46 1_555 1_555
H34 C46 1_555 1_555
C47 C44 1_555 1_555
H35 C47 1_555 1_555
H36 C47 1_555 1_555
H37 C47 1_555 1_555
C48 O10 1_555 1_555
C49 S1 1_555 1_555
C50 C49 1_555 1_555
H38 C50 1_555 1_555
C51 S1 1_555 1_555
C52 C51 1_555 1_555
H39 C52 1_555 1_555
C53 C52 1_555 1_555
C54 C53 1_555 1_555
C55 C54 1_555 1_555
H40 C55 1_555 1_555
H41 C55 1_555 1_555
H42 C55 1_555 1_555
C56 C54 1_555 1_555
H43 C56 1_555 1_555
H44 C56 1_555 1_555
H45 C56 1_555 1_555
C57 C54 1_555 1_555
H46 C57 1_555 1_555
H47 C57 1_555 1_555
H48 C57 1_555 1_555
S1B O11B 1_555 1_555
O10B C48B 1_555 1_555
O11B Co1B 1_555 1_555
O15B S1B 1_555 1_555
C48B C49B 1_555 1_555
C49B S1B 1_555 1_555
C50B C49B 1_555 1_555
H38B C50B 1_555 1_555
C51B C48 1_555 1_555
C52B C51B 1_555 1_555
H39B C52B 1_555 1_555
C53B C50 1_555 1_555
C54B C53B 1_555 1_555
C55B C54B 1_555 1_555
H40B C55B 1_555 1_555
H41B C55B 1_555 1_555
H42B C55B 1_555 1_555
C56B C54B 1_555 1_555
H43B C56B 1_555 1_555
H44B C56B 1_555 1_555
H45B C56B 1_555 1_555
C57B C54B 1_555 1_555
H46B C57B 1_555 1_555
H47B C57B 1_555 1_555
H48B C57B 1_555 1_555
S1C O11C 1_555 1_555
O10C Co1 1_555 1_555
O11C Co1C 1_555 1_555
O15C S1C 1_555 1_555
C48C C51 1_555 1_555
C49C S1C 1_555 1_555
C50C C53 1_555 1_555
H38C C50C 1_555 1_555
C51C S1C 1_555 1_555
C52C C51C 1_555 1_555
H39C C52C 1_555 1_555
C53C C52C 1_555 1_555
C54C C53C 1_555 1_555
C55C C54C 1_555 1_555
H40C C55C 1_555 1_555
H41C C55C 1_555 1_555
H42C C55C 1_555 1_555
C56C C54C 1_555 1_555
H43C C56C 1_555 1_555
H44C C56C 1_555 1_555
H45C C56C 1_555 1_555
C57C C54C 1_555 1_555
H46C C57C 1_555 1_555
H47C C57C 1_555 1_555
H48C C57C 1_555 1_555
S1A O11A 1_555 1_555
O10A C48A 1_555 1_555
O11A Co1A 1_555 1_555
O15A S1A 1_555 1_555
C48A C51C 1_555 1_555
C49A S1A 1_555 1_555
C50A C53C 1_555 1_555
H38A C50A 1_555 1_555
C51A C48B 1_555 1_555
C52A C51A 1_555 1_555
H39A C52A 1_555 1_555
C53A C50B 1_555 1_555
C54A C53A 1_555 1_555
C55A C54A 1_555 1_555
H40A C55A 1_555 1_555
H41A C55A 1_555 1_555
H42A C55A 1_555 1_555
C56A C54A 1_555 1_555
H43A C56A 1_555 1_555
H44A C56A 1_555 1_555
H45A C56A 1_555 1_555
C57A C54A 1_555 1_555
H46A C57A 1_555 1_555
H47A C57A 1_555 1_555
H48A C57A 1_555 1_555
S2I O7I 1_555 1_555
O7I Co2I 1_555 1_555
O8I Co3 1_555 1_555
O13I Co4 1_555 1_555
C28I O13I 1_555 1_555
C29I S2I 1_555 1_555
C30I C29I 1_555 1_555
H16I C30I 1_555 1_555
C31I S2I 1_555 1_555
C32I O8I 1_555 1_555
C33I C31I 1_555 1_555
H17I C33I 1_555 1_555
C34I C33I 1_555 1_555
C35I C34I 1_555 1_555
C36I C35I 1_555 1_555
H18I C36I 1_555 1_555
H19I C36I 1_555 1_555
H20I C36I 1_555 1_555
C37I C35I 1_555 1_555
H21I C37I 1_555 1_555
H22I C37I 1_555 1_555
H23I C37I 1_555 1_555
C38I C35I 1_555 1_555
H24I C38I 1_555 1_555
H25I C38I 1_555 1_555
H26I C38I 1_555 1_555
C39I S4 1_555 1_555
C40I C34I 1_555 1_555
H27I C40I 1_555 1_555
C41I S3 1_555 1_555
C42I C41I 1_555 1_555
H28I C42I 1_555 1_555
C43I C30I 1_555 1_555
C44I C43I 1_555 1_555
C45I C44I 1_555 1_555
H29I C45I 1_555 1_555
H30I C45I 1_555 1_555
H31I C45I 1_555 1_555
C46I C44I 1_555 1_555
H32I C46I 1_555 1_555
H33I C46I 1_555 1_555
H34I C46I 1_555 1_555
C47I C44I 1_555 1_555
H35I C47I 1_555 1_555
H36I C47I 1_555 1_555
H37I C47I 1_555 1_555
Co1A O14 1_555 1_555
Co2A O1A 1_555 1_555
Co3A O8A 1_555 1_555
Co4A O2A 1_555 1_555
S2A O7A 1_555 1_555
S3A O12A 1_555 1_555
S4A O9A 1_555 1_555
O1A C13A 1_555 1_555
O2A C13A 1_555 1_555
O3A Co1A 1_555 1_555
O4A C20A 1_555 1_555
O5A C27A 1_555 1_555
O6A C27A 1_555 1_555
O7A Co2A 1_555 1_555
O8A Co2A 1_555 1_555
O9A Co3A 1_555 1_555
O12A Co4A 1_555 1_555
O13A Co2A 1_555 1_555
O16A Co2A 1_555 1_555
C1A C2A 1_555 1_555
C2A H1A 1_555 1_555
C3A C2A 1_555 1_555
C4A C3A 1_555 1_555
H2A C4A 1_555 1_555
C5A C4A 1_555 1_555
C6A C1A 1_555 1_555
H3A C6A 1_555 1_555
C7A C1A 1_555 1_555
C8A C7A 1_555 1_555
H4A C8A 1_555 1_555
C9A C8A 1_555 1_555
H5A C9A 1_555 1_555
C10A C9A 1_555 1_555
C11A C10A 1_555 1_555
H6A C11A 1_555 1_555
C12A C7A 1_555 1_555
H7A C12A 1_555 1_555
C13A C10A 1_555 1_555
C14A H8A 1_555 1_555
C15A C14A 1_555 1_555
H9A C15A 1_555 1_555
C16A C15A 1_555 1_555
C17A C16A 1_555 1_555
H10A C17A 1_555 1_555
C18A C17A 1_555 1_555
H11A C18A 1_555 1_555
C19A C3A 1_555 1_555
C20A O3A 1_555 1_555
C21A C5A 1_555 1_555
C22A C21A 1_555 1_555
H12A C22A 1_555 1_555
C23A C22A 1_555 1_555
H13A C23A 1_555 1_555
C24A C23A 1_555 1_555
C25A C24A 1_555 1_555
H14A C25A 1_555 1_555
C26A C21A 1_555 1_555
H15A C26A 1_555 1_555
C27A C24A 1_555 1_555
C28A O13A 1_555 1_555
C29A S2A 1_555 1_555
C30A C29A 1_555 1_555
H16A C30A 1_555 1_555
C31A S2A 1_555 1_555
C32A O8A 1_555 1_555
C33A C31A 1_555 1_555
H17A C33A 1_555 1_555
C34A C33A 1_555 1_555
C35A C34A 1_555 1_555
C36A C35A 1_555 1_555
H18A C36A 1_555 1_555
H19A C36A 1_555 1_555
H20A C36A 1_555 1_555
C37A C35A 1_555 1_555
H21A C37A 1_555 1_555
H22A C37A 1_555 1_555
H23A C37A 1_555 1_555
C38A C35A 1_555 1_555
H24A C38A 1_555 1_555
H25A C38A 1_555 1_555
H26A C38A 1_555 1_555
C39A S4A 1_555 1_555
C40A C34A 1_555 1_555
H27A C40A 1_555 1_555
C41A S3A 1_555 1_555
C42A C41A 1_555 1_555
H28A C42A 1_555 1_555
C43A C30A 1_555 1_555
C44A C43A 1_555 1_555
C45A C44A 1_555 1_555
H29A C45A 1_555 1_555
H30A C45A 1_555 1_555
H31A C45A 1_555 1_555
C46A C44A 1_555 1_555
H32A C46A 1_555 1_555
H33A C46A 1_555 1_555
H34A C46A 1_555 1_555
C47A C44A 1_555 1_555
H35A C47A 1_555 1_555
H36A C47A 1_555 1_555
H37A C47A 1_555 1_555
S2H O7H 1_555 1_555
O7H Co2H 1_555 1_555
O8H Co3A 1_555 1_555
O13H Co4A 1_555 1_555
C28H O13H 1_555 1_555
C29H S2H 1_555 1_555
C30H C29H 1_555 1_555
H16H C30H 1_555 1_555
C31H S2H 1_555 1_555
C32H O8H 1_555 1_555
C33H C31H 1_555 1_555
H17H C33H 1_555 1_555
C34H C33H 1_555 1_555
C35H C34H 1_555 1_555
C36H C35H 1_555 1_555
H18H C36H 1_555 1_555
H19H C36H 1_555 1_555
H20H C36H 1_555 1_555
C37H C35H 1_555 1_555
H21H C37H 1_555 1_555
H22H C37H 1_555 1_555
H23H C37H 1_555 1_555
C38H C35H 1_555 1_555
H24H C38H 1_555 1_555
H25H C38H 1_555 1_555
H26H C38H 1_555 1_555
C39H S4A 1_555 1_555
C40H C34H 1_555 1_555
H27H C40H 1_555 1_555
C41H S3A 1_555 1_555
C42H C41H 1_555 1_555
H28H C42H 1_555 1_555
C43H C30H 1_555 1_555
C44H C43H 1_555 1_555
C45H C44H 1_555 1_555
H29H C45H 1_555 1_555
H30H C45H 1_555 1_555
H31H C45H 1_555 1_555
C46H C44H 1_555 1_555
H32H C46H 1_555 1_555
H33H C46H 1_555 1_555
H34H C46H 1_555 1_555
C47H C44H 1_555 1_555
H35H C47H 1_555 1_555
H36H C47H 1_555 1_555
H37H C47H 1_555 1_555
Co1B O10 1_555 1_555
Co2B O5 1_555 1_555
Co3B O6 1_555 1_555
Co4B O2B 1_555 1_555
S2B O7B 1_555 1_555
S3B O12B 1_555 1_555
S4B O9B 1_555 1_555
O1B Co2B 1_555 1_555
O2B C13B 1_555 1_555
O3B Co1B 1_555 1_555
O4B Co1 1_555 1_555
O5B Co2A 1_555 1_555
O6B Co3A 1_555 1_555
O7B Co2B 1_555 1_555
O8B Co2B 1_555 1_555
O9B Co3B 1_555 1_555
O12B Co4B 1_555 1_555
O13B Co2B 1_555 1_555
O16B Co2B 1_555 1_555
C1B C2B 1_555 1_555
C2B H1B 1_555 1_555
C3B C2B 1_555 1_555
C4B C3B 1_555 1_555
H2B C4B 1_555 1_555
C5B C4B 1_555 1_555
C6B C1B 1_555 1_555
H3B C6B 1_555 1_555
C7B C1B 1_555 1_555
C8B C7B 1_555 1_555
H4B C8B 1_555 1_555
C9B C8B 1_555 1_555
H5B C9B 1_555 1_555
C10B C9B 1_555 1_555
C11B C10B 1_555 1_555
H6B C11B 1_555 1_555
C12B C7B 1_555 1_555
H7B C12B 1_555 1_555
C13B O1B 1_555 1_555
C14B H8B 1_555 1_555
C15B C14B 1_555 1_555
H9B C15B 1_555 1_555
C16B C15B 1_555 1_555
C17B C16B 1_555 1_555
H10B C17B 1_555 1_555
C18B C17B 1_555 1_555
H11B C18B 1_555 1_555
C19B C3B 1_555 1_555
C20B O3B 1_555 1_555
C21B C5B 1_555 1_555
C22B C21B 1_555 1_555
H12B C22B 1_555 1_555
C23B C22B 1_555 1_555
H13B C23B 1_555 1_555
C24B C23B 1_555 1_555
C25B C24B 1_555 1_555
H14B C25B 1_555 1_555
C26B C21B 1_555 1_555
H15B C26B 1_555 1_555
C27B O5B 1_555 1_555
C28B O13B 1_555 1_555
C29B S2B 1_555 1_555
C30B C29B 1_555 1_555
H16B C30B 1_555 1_555
C31B S2B 1_555 1_555
C32B O8B 1_555 1_555
C33B C31B 1_555 1_555
H17B C33B 1_555 1_555
C34B C33B 1_555 1_555
C35B C34B 1_555 1_555
C36B C35B 1_555 1_555
H18B C36B 1_555 1_555
H19B C36B 1_555 1_555
H20B C36B 1_555 1_555
C37B C35B 1_555 1_555
H21B C37B 1_555 1_555
H22B C37B 1_555 1_555
H23B C37B 1_555 1_555
C38B C35B 1_555 1_555
H24B C38B 1_555 1_555
H25B C38B 1_555 1_555
H26B C38B 1_555 1_555
C39B S4B 1_555 1_555
C40B C34B 1_555 1_555
H27B C40B 1_555 1_555
C41B S3B 1_555 1_555
C42B C41B 1_555 1_555
H28B C42B 1_555 1_555
C43B C30B 1_555 1_555
C44B C43B 1_555 1_555
C45B C44B 1_555 1_555
H29B C45B 1_555 1_555
H30B C45B 1_555 1_555
H31B C45B 1_555 1_555
C46B C44B 1_555 1_555
H32B C46B 1_555 1_555
H33B C46B 1_555 1_555
H34B C46B 1_555 1_555
C47B C44B 1_555 1_555
H35B C47B 1_555 1_555
H36B C47B 1_555 1_555
H37B C47B 1_555 1_555
S2K O7K 1_555 1_555
O7K Co2K 1_555 1_555
O8K Co3B 1_555 1_555
O13K Co4B 1_555 1_555
C28K O13K 1_555 1_555
C29K S2K 1_555 1_555
C30K C29K 1_555 1_555
H16K C30K 1_555 1_555
C31K S2K 1_555 1_555
C32K O8K 1_555 1_555
C33K C31K 1_555 1_555
H17K C33K 1_555 1_555
C34K C33K 1_555 1_555
C35K C34K 1_555 1_555
C36K C35K 1_555 1_555
H18K C36K 1_555 1_555
H19K C36K 1_555 1_555
H20K C36K 1_555 1_555
C37K C35K 1_555 1_555
H21K C37K 1_555 1_555
H22K C37K 1_555 1_555
H23K C37K 1_555 1_555
C38K C35K 1_555 1_555
H24K C38K 1_555 1_555
H25K C38K 1_555 1_555
H26K C38K 1_555 1_555
C39K S4B 1_555 1_555
C40K C34K 1_555 1_555
H27K C40K 1_555 1_555
C41K S3B 1_555 1_555
C42K C41K 1_555 1_555
H28K C42K 1_555 1_555
C43K C30K 1_555 1_555
C44K C43K 1_555 1_555
C45K C44K 1_555 1_555
H29K C45K 1_555 1_555
H30K C45K 1_555 1_555
H31K C45K 1_555 1_555
C46K C44K 1_555 1_555
H32K C46K 1_555 1_555
H33K C46K 1_555 1_555
H34K C46K 1_555 1_555
C47K C44K 1_555 1_555
H35K C47K 1_555 1_555
H36K C47K 1_555 1_555
H37K C47K 1_555 1_555
Co1C O4 1_555 1_555
Co2C O5A 1_555 1_555
Co3C O6A 1_555 1_555
Co4C O2C 1_555 1_555
S2C O7C 1_555 1_555
S3C O12C 1_555 1_555
S4C O9C 1_555 1_555
O1C Co2C 1_555 1_555
O2C C13C 1_555 1_555
O3C Co1C 1_555 1_555
O4C Co1A 1_555 1_555
O5C Co2 1_555 1_555
O6C Co3 1_555 1_555
O7C Co2C 1_555 1_555
O8C Co2C 1_555 1_555
O9C Co3C 1_555 1_555
O12C Co4C 1_555 1_555
O13C Co2C 1_555 1_555
O16C Co2C 1_555 1_555
C1C C2C 1_555 1_555
C2C H1C 1_555 1_555
C3C C2C 1_555 1_555
C4C C3C 1_555 1_555
H2C C4C 1_555 1_555
C5C C4C 1_555 1_555
C6C C1C 1_555 1_555
H3C C6C 1_555 1_555
C7C C1C 1_555 1_555
C8C C7C 1_555 1_555
H4C C8C 1_555 1_555
C9C C8C 1_555 1_555
H5C C9C 1_555 1_555
C10C C9C 1_555 1_555
C11C C10C 1_555 1_555
H6C C11C 1_555 1_555
C12C C7C 1_555 1_555
H7C C12C 1_555 1_555
C13C O1C 1_555 1_555
C14C H8C 1_555 1_555
C15C C14C 1_555 1_555
H9C C15C 1_555 1_555
C16C C15C 1_555 1_555
C17C C16C 1_555 1_555
H10C C17C 1_555 1_555
C18C C17C 1_555 1_555
H11C C18C 1_555 1_555
C19C C3C 1_555 1_555
C20C O3C 1_555 1_555
C21C C5C 1_555 1_555
C22C C21C 1_555 1_555
H12C C22C 1_555 1_555
C23C C22C 1_555 1_555
H13C C23C 1_555 1_555
C24C C23C 1_555 1_555
C25C C24C 1_555 1_555
H14C C25C 1_555 1_555
C26C C21C 1_555 1_555
H15C C26C 1_555 1_555
C27C O5C 1_555 1_555
C28C O13C 1_555 1_555
C29C S2C 1_555 1_555
C30C C29C 1_555 1_555
H16C C30C 1_555 1_555
C31C S2C 1_555 1_555
C32C O8C 1_555 1_555
C33C C31C 1_555 1_555
H17C C33C 1_555 1_555
C34C C33C 1_555 1_555
C35C C34C 1_555 1_555
C36C C35C 1_555 1_555
H18C C36C 1_555 1_555
H19C C36C 1_555 1_555
H20C C36C 1_555 1_555
C37C C35C 1_555 1_555
H21C C37C 1_555 1_555
H22C C37C 1_555 1_555
H23C C37C 1_555 1_555
C38C C35C 1_555 1_555
H24C C38C 1_555 1_555
H25C C38C 1_555 1_555
H26C C38C 1_555 1_555
C39C S4C 1_555 1_555
C40C C34C 1_555 1_555
H27C C40C 1_555 1_555
C41C S3C 1_555 1_555
C42C C41C 1_555 1_555
H28C C42C 1_555 1_555
C43C C30C 1_555 1_555
C44C C43C 1_555 1_555
C45C C44C 1_555 1_555
H29C C45C 1_555 1_555
H30C C45C 1_555 1_555
H31C C45C 1_555 1_555
C46C C44C 1_555 1_555
H32C C46C 1_555 1_555
H33C C46C 1_555 1_555
H34C C46C 1_555 1_555
C47C C44C 1_555 1_555
H35C C47C 1_555 1_555
H36C C47C 1_555 1_555
H37C C47C 1_555 1_555
S2J O7J 1_555 1_555
O7J Co2J 1_555 1_555
O8J Co3C 1_555 1_555
O13J Co4C 1_555 1_555
C28J O13J 1_555 1_555
C29J S2J 1_555 1_555
C30J C29J 1_555 1_555
H16J C30J 1_555 1_555
C31J S2J 1_555 1_555
C32J O8J 1_555 1_555
C33J C31J 1_555 1_555
H17J C33J 1_555 1_555
C34J C33J 1_555 1_555
C35J C34J 1_555 1_555
C36J C35J 1_555 1_555
H18J C36J 1_555 1_555
H19J C36J 1_555 1_555
H20J C36J 1_555 1_555
C37J C35J 1_555 1_555
H21J C37J 1_555 1_555
H22J C37J 1_555 1_555
H23J C37J 1_555 1_555
C38J C35J 1_555 1_555
H24J C38J 1_555 1_555
H25J C38J 1_555 1_555
H26J C38J 1_555 1_555
C39J S4C 1_555 1_555
C40J C34J 1_555 1_555
H27J C40J 1_555 1_555
C41J S3C 1_555 1_555
C42J C41J 1_555 1_555
H28J C42J 1_555 1_555
C43J C30J 1_555 1_555
C44J C43J 1_555 1_555
C45J C44J 1_555 1_555
H29J C45J 1_555 1_555
H30J C45J 1_555 1_555
H31J C45J 1_555 1_555
C46J C44J 1_555 1_555
H32J C46J 1_555 1_555
H33J C46J 1_555 1_555
H34J C46J 1_555 1_555
C47J C44J 1_555 1_555
H35J C47J 1_555 1_555
H36J C47J 1_555 1_555
H37J C47J 1_555 1_555
Co1H O3H 1_555 1_555
Co2H O16A 1_555 1_555
S1H O11H 1_555 1_555
O1H Co2H 1_555 1_555
O2H Co4A 1_555 1_555
O3H C20H 1_555 1_555
O4H C20H 1_555 1_555
O5H C27H 1_555 1_555
O6H Co3C 1_555 1_555
O10H Co1H 1_555 1_555
O11H Co1H 1_555 1_555
O14H Co1H 1_555 1_555
O15H S1H 1_555 1_555
C1H C2H 1_555 1_555
C2H H1H 1_555 1_555
C3H C2H 1_555 1_555
C4H C3H 1_555 1_555
H2H C4H 1_555 1_555
C5H C4H 1_555 1_555
C6H C1H 1_555 1_555
H3H C6H 1_555 1_555
C7H C1H 1_555 1_555
C8H C7H 1_555 1_555
H4H C8H 1_555 1_555
C9H C8H 1_555 1_555
H5H C9H 1_555 1_555
C10H C9H 1_555 1_555
C11H C10H 1_555 1_555
H6H C11H 1_555 1_555
C12H C7H 1_555 1_555
H7H C12H 1_555 1_555
C13H O1H 1_555 1_555
C14H H8H 1_555 1_555
C15H C14H 1_555 1_555
H9H C15H 1_555 1_555
C16H C15H 1_555 1_555
C17H C16H 1_555 1_555
H10H C17H 1_555 1_555
C18H C17H 1_555 1_555
H11H C18H 1_555 1_555
C19H C3H 1_555 1_555
C20H C16H 1_555 1_555
C21H C5H 1_555 1_555
C22H C21H 1_555 1_555
H12H C22H 1_555 1_555
C23H C22H 1_555 1_555
H13H C23H 1_555 1_555
C24H C23H 1_555 1_555
C25H C24H 1_555 1_555
H14H C25H 1_555 1_555
C26H C21H 1_555 1_555
H15H C26H 1_555 1_555
C27H O6H 1_555 1_555
C48H O10H 1_555 1_555
C49H S1H 1_555 1_555
C50H C49H 1_555 1_555
H38H C50H 1_555 1_555
C51H S1H 1_555 1_555
C52H C51H 1_555 1_555
H39H C52H 1_555 1_555
C53H C52H 1_555 1_555
C54H C53H 1_555 1_555
C55H C54H 1_555 1_555
H40H C55H 1_555 1_555
H41H C55H 1_555 1_555
H42H C55H 1_555 1_555
C56H C54H 1_555 1_555
H43H C56H 1_555 1_555
H44H C56H 1_555 1_555
H45H C56H 1_555 1_555
C57H C54H 1_555 1_555
H46H C57H 1_555 1_555
H47H C57H 1_555 1_555
H48H C57H 1_555 1_555
S1J O11J 1_555 1_555
O10J C48J 1_555 1_555
O11J Co1J 1_555 1_555
O15J S1J 1_555 1_555
C48J C49J 1_555 1_555
C49J S1J 1_555 1_555
C50J C49J 1_555 1_555
H38J C50J 1_555 1_555
C51J C48H 1_555 1_555
C52J C51J 1_555 1_555
H39J C52J 1_555 1_555
C53J C50H 1_555 1_555
C54J C53J 1_555 1_555
C55J C54J 1_555 1_555
H40J C55J 1_555 1_555
H41J C55J 1_555 1_555
H42J C55J 1_555 1_555
C56J C54J 1_555 1_555
H43J C56J 1_555 1_555
H44J C56J 1_555 1_555
H45J C56J 1_555 1_555
C57J C54J 1_555 1_555
H46J C57J 1_555 1_555
H47J C57J 1_555 1_555
H48J C57J 1_555 1_555
S1K O11K 1_555 1_555
O10K Co1H 1_555 1_555
O11K Co1K 1_555 1_555
O15K S1K 1_555 1_555
C48K C51H 1_555 1_555
C49K S1K 1_555 1_555
C50K C53H 1_555 1_555
H38K C50K 1_555 1_555
C51K S1K 1_555 1_555
C52K C51K 1_555 1_555
H39K C52K 1_555 1_555
C53K C52K 1_555 1_555
C54K C53K 1_555 1_555
C55K C54K 1_555 1_555
H40K C55K 1_555 1_555
H41K C55K 1_555 1_555
H42K C55K 1_555 1_555
C56K C54K 1_555 1_555
H43K C56K 1_555 1_555
H44K C56K 1_555 1_555
H45K C56K 1_555 1_555
C57K C54K 1_555 1_555
H46K C57K 1_555 1_555
H47K C57K 1_555 1_555
H48K C57K 1_555 1_555
S1I O11I 1_555 1_555
O10I C48I 1_555 1_555
O11I Co1I 1_555 1_555
O15I S1I 1_555 1_555
C48I C51K 1_555 1_555
C49I S1I 1_555 1_555
C50I C53K 1_555 1_555
H38I C50I 1_555 1_555
C51I C48J 1_555 1_555
C52I C51I 1_555 1_555
H39I C52I 1_555 1_555
C53I C50J 1_555 1_555
C54I C53I 1_555 1_555
C55I C54I 1_555 1_555
H40I C55I 1_555 1_555
H41I C55I 1_555 1_555
H42I C55I 1_555 1_555
C56I C54I 1_555 1_555
H43I C56I 1_555 1_555
H44I C56I 1_555 1_555
H45I C56I 1_555 1_555
C57I C54I 1_555 1_555
H46I C57I 1_555 1_555
H47I C57I 1_555 1_555
H48I C57I 1_555 1_555
Co1I O14H 1_555 1_555
Co2I O16 1_555 1_555
O1I Co2I 1_555 1_555
O2I Co4 1_555 1_555
O3I Co1I 1_555 1_555
O4I C20I 1_555 1_555
O5I C27I 1_555 1_555
O6I Co3B 1_555 1_555
C1I C2I 1_555 1_555
C2I H1I 1_555 1_555
C3I C2I 1_555 1_555
C4I C3I 1_555 1_555
H2I C4I 1_555 1_555
C5I C4I 1_555 1_555
C6I C1I 1_555 1_555
H3I C6I 1_555 1_555
C7I C1I 1_555 1_555
C8I C7I 1_555 1_555
H4I C8I 1_555 1_555
C9I C8I 1_555 1_555
H5I C9I 1_555 1_555
C10I C9I 1_555 1_555
C11I C10I 1_555 1_555
H6I C11I 1_555 1_555
C12I C7I 1_555 1_555
H7I C12I 1_555 1_555
C13I O1I 1_555 1_555
C14I H8I 1_555 1_555
C15I C14I 1_555 1_555
H9I C15I 1_555 1_555
C16I C15I 1_555 1_555
C17I C16I 1_555 1_555
H10I C17I 1_555 1_555
C18I C17I 1_555 1_555
H11I C18I 1_555 1_555
C19I C3I 1_555 1_555
C20I O3I 1_555 1_555
C21I C5I 1_555 1_555
C22I C21I 1_555 1_555
H12I C22I 1_555 1_555
C23I C22I 1_555 1_555
H13I C23I 1_555 1_555
C24I C23I 1_555 1_555
C25I C24I 1_555 1_555
H14I C25I 1_555 1_555
C26I C21I 1_555 1_555
H15I C26I 1_555 1_555
C27I O6I 1_555 1_555
Co1J O10H 1_555 1_555
Co2J O16C 1_555 1_555
O1J Co2J 1_555 1_555
O2J Co4C 1_555 1_555
O3J Co1J 1_555 1_555
O4J Co1H 1_555 1_555
O5J Co2I 1_555 1_555
O6J Co3 1_555 1_555
C1J C2J 1_555 1_555
C2J H1J 1_555 1_555
C3J C2J 1_555 1_555
C4J C3J 1_555 1_555
H2J C4J 1_555 1_555
C5J C4J 1_555 1_555
C6J C1J 1_555 1_555
H3J C6J 1_555 1_555
C7J C1J 1_555 1_555
C8J C7J 1_555 1_555
H4J C8J 1_555 1_555
C9J C8J 1_555 1_555
H5J C9J 1_555 1_555
C10J C9J 1_555 1_555
C11J C10J 1_555 1_555
H6J C11J 1_555 1_555
C12J C7J 1_555 1_555
H7J C12J 1_555 1_555
C13J O1J 1_555 1_555
C14J H8J 1_555 1_555
C15J C14J 1_555 1_555
H9J C15J 1_555 1_555
C16J C15J 1_555 1_555
C17J C16J 1_555 1_555
H10J C17J 1_555 1_555
C18J C17J 1_555 1_555
H11J C18J 1_555 1_555
C19J C3J 1_555 1_555
C20J O3J 1_555 1_555
C21J C5J 1_555 1_555
C22J C21J 1_555 1_555
H12J C22J 1_555 1_555
C23J C22J 1_555 1_555
H13J C23J 1_555 1_555
C24J C23J 1_555 1_555
C25J C24J 1_555 1_555
H14J C25J 1_555 1_555
C26J C21J 1_555 1_555
H15J C26J 1_555 1_555
C27J O5J 1_555 1_555
Co1K O4H 1_555 1_555
Co2K O16B 1_555 1_555
O1K Co2K 1_555 1_555
O2K Co4B 1_555 1_555
O3K Co1K 1_555 1_555
O4K Co1I 1_555 1_555
O5K Co2H 1_555 1_555
O6K Co3A 1_555 1_555
C1K C2K 1_555 1_555
C2K H1K 1_555 1_555
C3K C2K 1_555 1_555
C4K C3K 1_555 1_555
H2K C4K 1_555 1_555
C5K C4K 1_555 1_555
C6K C1K 1_555 1_555
H3K C6K 1_555 1_555
C7K C1K 1_555 1_555
C8K C7K 1_555 1_555
H4K C8K 1_555 1_555
C9K C8K 1_555 1_555
H5K C9K 1_555 1_555
C10K C9K 1_555 1_555
C11K C10K 1_555 1_555
H6K C11K 1_555 1_555
C12K C7K 1_555 1_555
H7K C12K 1_555 1_555
C13K O1K 1_555 1_555
C14K H8K 1_555 1_555
C15K C14K 1_555 1_555
H9K C15K 1_555 1_555
C16K C15K 1_555 1_555
C17K C16K 1_555 1_555
H10K C17K 1_555 1_555
C18K C17K 1_555 1_555
H11K C18K 1_555 1_555
C19K C3K 1_555 1_555
C20K O3K 1_555 1_555
C21K C5K 1_555 1_555
C22K C21K 1_555 1_555
H12K C22K 1_555 1_555
C23K C22K 1_555 1_555
H13K C23K 1_555 1_555
C24K C23K 1_555 1_555
C25K C24K 1_555 1_555
H14K C25K 1_555 1_555
C26K C21K 1_555 1_555
H15K C26K 1_555 1_555
C27K O5K 1_555 1_555
Co3 O16 1_555 1_555
Co4 O13 1_555 1_555
Co4 O16 1_555 1_555
O14 Co1B 1_555 1_555
O14 Co1C 1_555 1_555
C5 C6 1_555 1_555
C11 C12 1_555 1_555
C14 C19 1_555 1_555
C18 C19 1_555 1_555
C25 C26 1_555 1_555
C28 C29 1_555 1_555
C28 C41 1_555 1_555
C31 C32 1_555 1_555
C32 C39 1_555 1_555
C39 C40 1_555 1_555
C42 C43 1_555 1_555
C48 C49 1_555 1_555
S1B C51B 1_555 1_555
O10B Co1A 1_555 1_555
O10B Co1B 1_555 1_555
C52B C53B 1_555 1_555
O10C C48C 1_555 1_555
O10C Co1C 1_555 1_555
C48C C49C 1_555 1_555
C49C C50C 1_555 1_555
S1A C51A 1_555 1_555
O10A Co1A 1_555 1_555
O10A Co1C 1_555 1_555
C48A C49A 1_555 1_555
C49A C50A 1_555 1_555
C52A C53A 1_555 1_555
O8I Co2I 1_555 1_555
O13I Co2I 1_555 1_555
C28I C29I 1_555 1_555
C28I C41I 1_555 1_555
C31I C32I 1_555 1_555
C32I C39I 1_555 1_555
C39I C40I 1_555 1_555
C42I C43I 1_555 1_555
Co3A O16A 1_555 1_555
Co4A O13A 1_555 1_555
Co4A O16A 1_555 1_555
O4A Co1B 1_555 1_555
C5A C6A 1_555 1_555
C11A C12A 1_555 1_555
C14A C19A 1_555 1_555
C16A C20A 1_555 1_555
C18A C19A 1_555 1_555
C25A C26A 1_555 1_555
C28A C29A 1_555 1_555
C28A C41A 1_555 1_555
C31A C32A 1_555 1_555
C32A C39A 1_555 1_555
C39A C40A 1_555 1_555
C42A C43A 1_555 1_555
O8H Co2H 1_555 1_555
O13H Co2H 1_555 1_555
C28H C29H 1_555 1_555
C28H C41H 1_555 1_555
C31H C32H 1_555 1_555
C32H C39H 1_555 1_555
C39H C40H 1_555 1_555
C42H C43H 1_555 1_555
Co3B O8B 1_555 1_555
Co3B O16B 1_555 1_555
Co4B O13B 1_555 1_555
Co4B O16B 1_555 1_555
O4B C20B 1_555 1_555
O6B C27B 1_555 1_555
C5B C6B 1_555 1_555
C10B C13B 1_555 1_555
C11B C12B 1_555 1_555
C14B C19B 1_555 1_555
C16B C20B 1_555 1_555
C18B C19B 1_555 1_555
C24B C27B 1_555 1_555
C25B C26B 1_555 1_555
C28B C29B 1_555 1_555
C28B C41B 1_555 1_555
C31B C32B 1_555 1_555
C32B C39B 1_555 1_555
C39B C40B 1_555 1_555
C42B C43B 1_555 1_555
O8K Co2K 1_555 1_555
O13K Co2K 1_555 1_555
C28K C29K 1_555 1_555
C28K C41K 1_555 1_555
C31K C32K 1_555 1_555
C32K C39K 1_555 1_555
C39K C40K 1_555 1_555
C42K C43K 1_555 1_555
Co3C O8C 1_555 1_555
Co3C O16C 1_555 1_555
Co4C O13C 1_555 1_555
Co4C O16C 1_555 1_555
O4C C20C 1_555 1_555
O6C C27C 1_555 1_555
C5C C6C 1_555 1_555
C10C C13C 1_555 1_555
C11C C12C 1_555 1_555
C14C C19C 1_555 1_555
C16C C20C 1_555 1_555
C18C C19C 1_555 1_555
C24C C27C 1_555 1_555
C25C C26C 1_555 1_555
C28C C29C 1_555 1_555
C28C C41C 1_555 1_555
C31C C32C 1_555 1_555
C32C C39C 1_555 1_555
C39C C40C 1_555 1_555
C42C C43C 1_555 1_555
O8J Co2J 1_555 1_555
O13J Co2J 1_555 1_555
C28J C29J 1_555 1_555
C28J C41J 1_555 1_555
C31J C32J 1_555 1_555
C32J C39J 1_555 1_555
C39J C40J 1_555 1_555
C42J C43J 1_555 1_555
O2H C13H 1_555 1_555
O5H Co2J 1_555 1_555
O14H Co1J 1_555 1_555
O14H Co1K 1_555 1_555
C5H C6H 1_555 1_555
C10H C13H 1_555 1_555
C11H C12H 1_555 1_555
C14H C19H 1_555 1_555
C18H C19H 1_555 1_555
C24H C27H 1_555 1_555
C25H C26H 1_555 1_555
C48H C49H 1_555 1_555
S1J C51J 1_555 1_555
O10J Co1I 1_555 1_555
O10J Co1J 1_555 1_555
C52J C53J 1_555 1_555
O10K C48K 1_555 1_555
O10K Co1K 1_555 1_555
C48K C49K 1_555 1_555
C49K C50K 1_555 1_555
S1I C51I 1_555 1_555
O10I Co1I 1_555 1_555
O10I Co1K 1_555 1_555
C48I C49I 1_555 1_555
C49I C50I 1_555 1_555
C52I C53I 1_555 1_555
O2I C13I 1_555 1_555
O4I Co1J 1_555 1_555
O5I Co2K 1_555 1_555
C5I C6I 1_555 1_555
C10I C13I 1_555 1_555
C11I C12I 1_555 1_555
C14I C19I 1_555 1_555
C16I C20I 1_555 1_555
C18I C19I 1_555 1_555
C24I C27I 1_555 1_555
C25I C26I 1_555 1_555
O2J C13J 1_555 1_555
O4J C20J 1_555 1_555
O6J C27J 1_555 1_555
C5J C6J 1_555 1_555
C10J C13J 1_555 1_555
C11J C12J 1_555 1_555
C14J C19J 1_555 1_555
C16J C20J 1_555 1_555
C18J C19J 1_555 1_555
C24J C27J 1_555 1_555
C25J C26J 1_555 1_555
O2K C13K 1_555 1_555
O4K C20K 1_555 1_555
O6K C27K 1_555 1_555
C5K C6K 1_555 1_555
C10K C13K 1_555 1_555
C11K C12K 1_555 1_555
C14K C19K 1_555 1_555
C16K C20K 1_555 1_555
C18K C19K 1_555 1_555
C24K C27K 1_555 1_555
C25K C26K 1_555 1_555

#END
