# generated using pymatgen
data_Co12H192C228S12O55
_symmetry_space_group_name_H-M   'P 1'
_cell_length_a   33.51000000
_cell_length_b   33.51000000
_cell_length_c   36.21701465
_cell_angle_alpha   117.55680897
_cell_angle_beta   117.55680897
_cell_angle_gamma   90.00000000
_symmetry_Int_Tables_number   1
_chemical_formula_structural   Co12H192C228S12O55
_chemical_formula_sum   'Co24 H384 C456 S24 O110'
_cell_volume   30756.78153900
_cell_formula_units_Z   2
loop_
 _symmetry_equiv_pos_site_id
 _symmetry_equiv_pos_as_xyz
  1  'x, y, z'
loop_
 _atom_site_type_symbol
 _atom_site_label
 _atom_site_symmetry_multiplicity
 _atom_site_fract_x
 _atom_site_fract_y
 _atom_site_fract_z
 _atom_site_occupancy
  C  C1  1  0.640660  0.491080  0.821520  1.0
  C  C2  1  0.180860  0.330440  0.821520  1.0
  C  C3  1  0.491080  0.180860  0.821520  1.0
  C  C4  1  0.330440  0.640660  0.821520  1.0
  C  C5  1  0.359340  0.508920  0.178480  1.0
  C  C6  1  0.819140  0.669560  0.178480  1.0
  C  C7  1  0.508920  0.819140  0.178480  1.0
  C  C8  1  0.669560  0.359340  0.178480  1.0
  C  C9  1  0.596980  0.465400  0.779360  1.0
  C  C10  1  0.182380  0.313960  0.779360  1.0
  C  C11  1  0.465400  0.182380  0.779360  1.0
  C  C12  1  0.313960  0.596980  0.779360  1.0
  C  C13  1  0.403020  0.534600  0.220640  1.0
  C  C14  1  0.817620  0.686040  0.220640  1.0
  C  C15  1  0.534600  0.817620  0.220640  1.0
  C  C16  1  0.686040  0.403020  0.220640  1.0
  C  C17  1  0.582780  0.417180  0.757560  1.0
  C  C18  1  0.174780  0.340380  0.757560  1.0
  C  C19  1  0.417180  0.174780  0.757560  1.0
  C  C20  1  0.340380  0.582780  0.757560  1.0
  C  C21  1  0.417220  0.582820  0.242440  1.0
  C  C22  1  0.825220  0.659620  0.242440  1.0
  C  C23  1  0.582820  0.825220  0.242440  1.0
  C  C24  1  0.659620  0.417220  0.242440  1.0
  C  C25  1  0.612260  0.394650  0.777920  1.0
  C  C26  1  0.165660  0.383270  0.777920  1.0
  C  C27  1  0.394650  0.165660  0.777920  1.0
  C  C28  1  0.383270  0.612260  0.777920  1.0
  C  C29  1  0.387740  0.605350  0.222080  1.0
  C  C30  1  0.834340  0.616730  0.222080  1.0
  C  C31  1  0.605350  0.834340  0.222080  1.0
  C  C32  1  0.616730  0.387740  0.222080  1.0
  C  C33  1  0.656030  0.420320  0.820060  1.0
  C  C34  1  0.164030  0.399740  0.820060  1.0
  C  C35  1  0.420320  0.164030  0.820060  1.0
  C  C36  1  0.399740  0.656030  0.820060  1.0
  C  C37  1  0.343970  0.579680  0.179940  1.0
  C  C38  1  0.835970  0.600260  0.179940  1.0
  C  C39  1  0.579680  0.835970  0.179940  1.0
  C  C40  1  0.600260  0.343970  0.179940  1.0
  C  C41  1  0.670240  0.468540  0.841880  1.0
  C  C42  1  0.171640  0.373340  0.841880  1.0
  C  C43  1  0.468540  0.171640  0.841880  1.0
  C  C44  1  0.373340  0.670240  0.841880  1.0
  C  C45  1  0.329760  0.531460  0.158120  1.0
  C  C46  1  0.828360  0.626660  0.158120  1.0
  C  C47  1  0.531460  0.828360  0.158120  1.0
  C  C48  1  0.626660  0.329760  0.158120  1.0
  C  C49  1  0.657580  0.544740  0.845360  1.0
  C  C50  1  0.187780  0.300620  0.845360  1.0
  C  C51  1  0.544740  0.187780  0.845360  1.0
  C  C52  1  0.300620  0.657580  0.845360  1.0
  C  C53  1  0.342420  0.455260  0.154640  1.0
  C  C54  1  0.812220  0.699380  0.154640  1.0
  C  C55  1  0.455260  0.812220  0.154640  1.0
  C  C56  1  0.699380  0.342420  0.154640  1.0
  C  C57  1  0.689260  0.572610  0.895320  1.0
  C  C58  1  0.206060  0.322710  0.895320  1.0
  C  C59  1  0.572610  0.206060  0.895320  1.0
  C  C60  1  0.322710  0.689260  0.895320  1.0
  C  C61  1  0.310740  0.427390  0.104680  1.0
  C  C62  1  0.793940  0.677290  0.104680  1.0
  C  C63  1  0.427390  0.793940  0.104680  1.0
  C  C64  1  0.677290  0.310740  0.104680  1.0
  C  C65  1  0.703050  0.620850  0.917300  1.0
  C  C66  1  0.214250  0.296450  0.917300  1.0
  C  C67  1  0.620850  0.214250  0.917300  1.0
  C  C68  1  0.296450  0.703050  0.917300  1.0
  C  C69  1  0.296950  0.379150  0.082700  1.0
  C  C70  1  0.785750  0.703550  0.082700  1.0
  C  C71  1  0.379150  0.785750  0.082700  1.0
  C  C72  1  0.703550  0.296950  0.082700  1.0
  C  C73  1  0.685170  0.641290  0.889340  1.0
  C  C74  1  0.204170  0.248050  0.889340  1.0
  C  C75  1  0.641290  0.204170  0.889340  1.0
  C  C76  1  0.248050  0.685170  0.889340  1.0
  C  C77  1  0.314830  0.358710  0.110660  1.0
  C  C78  1  0.795830  0.751950  0.110660  1.0
  C  C79  1  0.358710  0.795830  0.110660  1.0
  C  C80  1  0.751950  0.314830  0.110660  1.0
  C  C81  1  0.653400  0.613440  0.839400  1.0
  C  C82  1  0.186000  0.225960  0.839400  1.0
  C  C83  1  0.613440  0.186000  0.839400  1.0
  C  C84  1  0.225960  0.653400  0.839400  1.0
  C  C85  1  0.346600  0.386560  0.160600  1.0
  C  C86  1  0.814000  0.774040  0.160600  1.0
  C  C87  1  0.386560  0.814000  0.160600  1.0
  C  C88  1  0.774040  0.346600  0.160600  1.0
  C  C89  1  0.639600  0.565200  0.817400  1.0
  C  C90  1  0.177800  0.252200  0.817400  1.0
  C  C91  1  0.565200  0.177800  0.817400  1.0
  C  C92  1  0.252200  0.639600  0.817400  1.0
  C  C93  1  0.360400  0.434800  0.182600  1.0
  C  C94  1  0.822200  0.747800  0.182600  1.0
  C  C95  1  0.434800  0.822200  0.182600  1.0
  C  C96  1  0.747800  0.360400  0.182600  1.0
  C  C97  1  0.698700  0.692000  0.912200  1.0
  C  C98  1  0.213500  0.220200  0.912200  1.0
  C  C99  1  0.692000  0.213500  0.912200  1.0
  C  C100  1  0.220200  0.698700  0.912200  1.0
  C  C101  1  0.301300  0.308000  0.087800  1.0
  C  C102  1  0.786500  0.779800  0.087800  1.0
  C  C103  1  0.308000  0.786500  0.087800  1.0
  C  C104  1  0.779800  0.301300  0.087800  1.0
  C  C105  1  0.509000  0.407400  0.684400  1.0
  C  C106  1  0.175400  0.277000  0.684400  1.0
  C  C107  1  0.407400  0.175400  0.684400  1.0
  C  C108  1  0.277000  0.509000  0.684400  1.0
  C  C109  1  0.491000  0.592600  0.315600  1.0
  C  C110  1  0.824600  0.723000  0.315600  1.0
  C  C111  1  0.592600  0.824600  0.315600  1.0
  C  C112  1  0.723000  0.491000  0.315600  1.0
  C  C113  1  0.463650  0.382350  0.645100  1.0
  C  C114  1  0.181450  0.262750  0.645100  1.0
  C  C115  1  0.382350  0.181450  0.645100  1.0
  C  C116  1  0.262750  0.463650  0.645100  1.0
  C  C117  1  0.536350  0.617650  0.354900  1.0
  C  C118  1  0.818550  0.737250  0.354900  1.0
  C  C119  1  0.617650  0.818550  0.354900  1.0
  C  C120  1  0.737250  0.536350  0.354900  1.0
  C  C121  1  0.443470  0.339370  0.634540  1.0
  C  C122  1  0.191070  0.295170  0.634540  1.0
  C  C123  1  0.339370  0.191070  0.634540  1.0
  C  C124  1  0.295170  0.443470  0.634540  1.0
  C  C125  1  0.556530  0.660630  0.365460  1.0
  C  C126  1  0.808930  0.704830  0.365460  1.0
  C  C127  1  0.660630  0.808930  0.365460  1.0
  C  C128  1  0.704830  0.556530  0.365460  1.0
  C  C129  1  0.468730  0.321230  0.663260  1.0
  C  C130  1  0.194530  0.342030  0.663260  1.0
  C  C131  1  0.321230  0.194530  0.663260  1.0
  C  C132  1  0.342030  0.468730  0.663260  1.0
  C  C133  1  0.531270  0.678770  0.336740  1.0
  C  C134  1  0.805470  0.657970  0.336740  1.0
  C  C135  1  0.678770  0.805470  0.336740  1.0
  C  C136  1  0.657970  0.531270  0.336740  1.0
  C  C137  1  0.514080  0.346280  0.702560  1.0
  C  C138  1  0.188480  0.356280  0.702560  1.0
  C  C139  1  0.346280  0.188480  0.702560  1.0
  C  C140  1  0.356280  0.514080  0.702560  1.0
  C  C141  1  0.485920  0.653720  0.297440  1.0
  C  C142  1  0.811520  0.643720  0.297440  1.0
  C  C143  1  0.653720  0.811520  0.297440  1.0
  C  C144  1  0.643720  0.485920  0.297440  1.0
  C  C145  1  0.534160  0.389260  0.713120  1.0
  C  C146  1  0.178960  0.323860  0.713120  1.0
  C  C147  1  0.389260  0.178960  0.713120  1.0
  C  C148  1  0.323860  0.534160  0.713120  1.0
  C  C149  1  0.465840  0.610740  0.286880  1.0
  C  C150  1  0.821040  0.676140  0.286880  1.0
  C  C151  1  0.610740  0.821040  0.286880  1.0
  C  C152  1  0.676140  0.465840  0.286880  1.0
  C  C153  1  0.395100  0.310400  0.590600  1.0
  C  C154  1  0.195500  0.280200  0.590600  1.0
  C  C155  1  0.310400  0.195500  0.590600  1.0
  C  C156  1  0.280200  0.395100  0.590600  1.0
  C  C157  1  0.604900  0.689600  0.409400  1.0
  C  C158  1  0.804500  0.719800  0.409400  1.0
  C  C159  1  0.689600  0.804500  0.409400  1.0
  C  C160  1  0.719800  0.604900  0.409400  1.0
  C  C161  1  0.689000  0.396600  0.842600  1.0
  C  C162  1  0.153600  0.446000  0.842600  1.0
  C  C163  1  0.396600  0.153600  0.842600  1.0
  C  C164  1  0.446000  0.689000  0.842600  1.0
  C  C165  1  0.311000  0.603400  0.157400  1.0
  C  C166  1  0.846400  0.554000  0.157400  1.0
  C  C167  1  0.603400  0.846400  0.157400  1.0
  C  C168  1  0.554000  0.311000  0.157400  1.0
  C  C169  1  0.720200  0.422300  0.895200  1.0
  C  C170  1  0.175000  0.472900  0.895200  1.0
  C  C171  1  0.422300  0.175000  0.895200  1.0
  C  C172  1  0.472900  0.720200  0.895200  1.0
  C  C173  1  0.279800  0.577700  0.104800  1.0
  C  C174  1  0.825000  0.527100  0.104800  1.0
  C  C175  1  0.577700  0.825000  0.104800  1.0
  C  C176  1  0.527100  0.279800  0.104800  1.0
  C  C177  1  0.750200  0.399300  0.913400  1.0
  C  C178  1  0.163200  0.514100  0.913400  1.0
  C  C179  1  0.399300  0.163200  0.913400  1.0
  C  C180  1  0.514100  0.750200  0.913400  1.0
  C  C181  1  0.249800  0.600700  0.086600  1.0
  C  C182  1  0.836800  0.485900  0.086600  1.0
  C  C183  1  0.600700  0.836800  0.086600  1.0
  C  C184  1  0.485900  0.249800  0.086600  1.0
  C  C185  1  0.745300  0.350500  0.887600  1.0
  C  C186  1  0.142300  0.537100  0.887600  1.0
  C  C187  1  0.350500  0.142300  0.887600  1.0
  C  C188  1  0.537100  0.745300  0.887600  1.0
  C  C189  1  0.254700  0.649500  0.112400  1.0
  C  C190  1  0.857700  0.462900  0.112400  1.0
  C  C191  1  0.649500  0.857700  0.112400  1.0
  C  C192  1  0.462900  0.254700  0.112400  1.0
  C  C193  1  0.710300  0.328000  0.841400  1.0
  C  C194  1  0.131100  0.513400  0.841400  1.0
  C  C195  1  0.328000  0.131100  0.841400  1.0
  C  C196  1  0.513400  0.710300  0.841400  1.0
  C  C197  1  0.289700  0.672000  0.158600  1.0
  C  C198  1  0.868900  0.486600  0.158600  1.0
  C  C199  1  0.672000  0.868900  0.158600  1.0
  C  C200  1  0.486600  0.289700  0.158600  1.0
  C  C201  1  0.685800  0.348800  0.818600  1.0
  C  C202  1  0.132800  0.469800  0.818600  1.0
  C  C203  1  0.348800  0.132800  0.818600  1.0
  C  C204  1  0.469800  0.685800  0.818600  1.0
  C  C205  1  0.314200  0.651200  0.181400  1.0
  C  C206  1  0.867200  0.530200  0.181400  1.0
  C  C207  1  0.651200  0.867200  0.181400  1.0
  C  C208  1  0.530200  0.314200  0.181400  1.0
  C  C209  1  0.774400  0.328700  0.913600  1.0
  C  C210  1  0.139200  0.584900  0.913600  1.0
  C  C211  1  0.328700  0.139200  0.913600  1.0
  C  C212  1  0.584900  0.774400  0.913600  1.0
  C  C213  1  0.225600  0.671300  0.086400  1.0
  C  C214  1  0.860800  0.415100  0.086400  1.0
  C  C215  1  0.671300  0.860800  0.086400  1.0
  C  C216  1  0.415100  0.225600  0.086400  1.0
  C  C217  1  0.769860  0.806660  0.926120  1.0
  C  C218  1  0.156260  0.119460  0.926120  1.0
  C  C219  1  0.806660  0.156260  0.926120  1.0
  C  C220  1  0.119460  0.769860  0.926120  1.0
  C  C221  1  0.230140  0.193340  0.073880  1.0
  C  C222  1  0.843740  0.880540  0.073880  1.0
  C  C223  1  0.193340  0.843740  0.073880  1.0
  C  C224  1  0.880540  0.230140  0.073880  1.0
  C  C225  1  0.749000  0.817100  0.888800  1.0
  C  C226  1  0.139800  0.071700  0.888800  1.0
  C  C227  1  0.817100  0.139800  0.888800  1.0
  C  C228  1  0.071700  0.749000  0.888800  1.0
  C  C229  1  0.251000  0.182900  0.111200  1.0
  C  C230  1  0.860200  0.928300  0.111200  1.0
  C  C231  1  0.182900  0.860200  0.111200  1.0
  C  C232  1  0.928300  0.251000  0.111200  1.0
  C  C233  1  0.773100  0.825600  0.870200  1.0
  C  C234  1  0.097100  0.044600  0.870200  1.0
  C  C235  1  0.825600  0.097100  0.870200  1.0
  C  C236  1  0.044600  0.773100  0.870200  1.0
  C  C237  1  0.226900  0.174400  0.129800  1.0
  C  C238  1  0.902900  0.955400  0.129800  1.0
  C  C239  1  0.174400  0.902900  0.129800  1.0
  C  C240  1  0.955400  0.226900  0.129800  1.0
  C  C241  1  0.679520  0.863120  0.886040  1.0
  C  C242  1  0.206520  0.022920  0.886040  1.0
  C  C243  1  0.863120  0.206520  0.886040  1.0
  C  C244  1  0.022920  0.679520  0.886040  1.0
  C  C245  1  0.320480  0.136880  0.113960  1.0
  C  C246  1  0.793480  0.977080  0.113960  1.0
  C  C247  1  0.136880  0.793480  0.113960  1.0
  C  C248  1  0.977080  0.320480  0.113960  1.0
  C  C249  1  0.673070  0.876170  0.927540  1.0
  C  C250  1  0.254470  0.051370  0.927540  1.0
  C  C251  1  0.876170  0.254470  0.927540  1.0
  C  C252  1  0.051370  0.673070  0.927540  1.0
  C  C253  1  0.326930  0.123830  0.072460  1.0
  C  C254  1  0.745530  0.948630  0.072460  1.0
  C  C255  1  0.123830  0.745530  0.072460  1.0
  C  C256  1  0.948630  0.326930  0.072460  1.0
  C  C257  1  0.674800  0.893400  0.870800  1.0
  C  C258  1  0.196000  0.977400  0.870800  1.0
  C  C259  1  0.893400  0.196000  0.870800  1.0
  C  C260  1  0.977400  0.674800  0.870800  1.0
  C  C261  1  0.325200  0.106600  0.129200  1.0
  C  C262  1  0.804000  0.022600  0.129200  1.0
  C  C263  1  0.106600  0.804000  0.129200  1.0
  C  C264  1  0.022600  0.325200  0.129200  1.0
  C  C265  1  0.669500  0.939800  0.889600  1.0
  C  C266  1  0.220100  0.949800  0.889600  1.0
  C  C267  1  0.939800  0.220100  0.889600  1.0
  C  C268  1  0.949800  0.669500  0.889600  1.0
  C  C269  1  0.330500  0.060200  0.110400  1.0
  C  C270  1  0.779900  0.050200  0.110400  1.0
  C  C271  1  0.060200  0.779900  0.110400  1.0
  C  C272  1  0.050200  0.330500  0.110400  1.0
  C  C273  1  0.660000  0.964300  0.865600  1.0
  C  C274  1  0.205600  0.901300  0.865600  1.0
  C  C275  1  0.964300  0.205600  0.865600  1.0
  C  C276  1  0.901300  0.660000  0.865600  1.0
  C  C277  1  0.340000  0.035700  0.134400  1.0
  C  C278  1  0.794400  0.098700  0.134400  1.0
  C  C279  1  0.035700  0.794400  0.134400  1.0
  C  C280  1  0.098700  0.340000  0.134400  1.0
  C  C281  1  0.620600  0.979100  0.863200  1.0
  C  C282  1  0.242600  0.884100  0.863200  1.0
  C  C283  1  0.979100  0.242600  0.863200  1.0
  C  C284  1  0.884100  0.620600  0.863200  1.0
  C  C285  1  0.379400  0.020900  0.136800  1.0
  C  C286  1  0.757400  0.115900  0.136800  1.0
  C  C287  1  0.020900  0.757400  0.136800  1.0
  C  C288  1  0.115900  0.379400  0.136800  1.0
  C  C289  1  0.664300  0.942400  0.818200  1.0
  C  C290  1  0.153900  0.875800  0.818200  1.0
  C  C291  1  0.942400  0.153900  0.818200  1.0
  C  C292  1  0.875800  0.664300  0.818200  1.0
  C  C293  1  0.335700  0.057600  0.181800  1.0
  C  C294  1  0.846100  0.124200  0.181800  1.0
  C  C295  1  0.057600  0.846100  0.181800  1.0
  C  C296  1  0.124200  0.335700  0.181800  1.0
  C  C297  1  0.701400  0.999000  0.891600  1.0
  C  C298  1  0.190200  0.892600  0.891600  1.0
  C  C299  1  0.999000  0.190200  0.891600  1.0
  C  C300  1  0.892600  0.701400  0.891600  1.0
  C  C301  1  0.298600  0.001000  0.108400  1.0
  C  C302  1  0.809800  0.107400  0.108400  1.0
  C  C303  1  0.001000  0.809800  0.108400  1.0
  C  C304  1  0.107400  0.298600  0.108400  1.0
  C  C305  1  0.665670  0.923070  0.948940  1.0
  C  C306  1  0.283270  0.025870  0.948940  1.0
  C  C307  1  0.923070  0.283270  0.948940  1.0
  C  C308  1  0.025870  0.665670  0.948940  1.0
  C  C309  1  0.334330  0.076930  0.051060  1.0
  C  C310  1  0.716730  0.974130  0.051060  1.0
  C  C311  1  0.076930  0.716730  0.051060  1.0
  C  C312  1  0.974130  0.334330  0.051060  1.0
  C  C313  1  0.665200  0.952000  0.926600  1.0
  C  C314  1  0.261400  0.974600  0.926600  1.0
  C  C315  1  0.952000  0.261400  0.926600  1.0
  C  C316  1  0.974600  0.665200  0.926600  1.0
  C  C317  1  0.334800  0.048000  0.073400  1.0
  C  C318  1  0.738600  0.025400  0.073400  1.0
  C  C319  1  0.048000  0.738600  0.073400  1.0
  C  C320  1  0.025400  0.334800  0.073400  1.0
  C  C321  1  0.816200  0.816000  0.945600  1.0
  C  C322  1  0.129400  0.129600  0.945600  1.0
  C  C323  1  0.816000  0.129400  0.945600  1.0
  C  C324  1  0.129600  0.816200  0.945600  1.0
  C  C325  1  0.183800  0.184000  0.054400  1.0
  C  C326  1  0.870600  0.870400  0.054400  1.0
  C  C327  1  0.184000  0.870600  0.054400  1.0
  C  C328  1  0.870400  0.183800  0.054400  1.0
  C  C329  1  0.843500  0.824000  0.931400  1.0
  C  C330  1  0.087900  0.107400  0.931400  1.0
  C  C331  1  0.824000  0.087900  0.931400  1.0
  C  C332  1  0.107400  0.843500  0.931400  1.0
  C  C333  1  0.156500  0.176000  0.068600  1.0
  C  C334  1  0.912100  0.892600  0.068600  1.0
  C  C335  1  0.176000  0.912100  0.068600  1.0
  C  C336  1  0.892600  0.156500  0.068600  1.0
  C  C337  1  0.820600  0.835000  0.893600  1.0
  C  C338  1  0.073000  0.058600  0.893600  1.0
  C  C339  1  0.835000  0.073000  0.893600  1.0
  C  C340  1  0.058600  0.820600  0.893600  1.0
  C  C341  1  0.179400  0.165000  0.106400  1.0
  C  C342  1  0.927000  0.941400  0.106400  1.0
  C  C343  1  0.165000  0.927000  0.106400  1.0
  C  C344  1  0.941400  0.179400  0.106400  1.0
  C  C345  1  0.854100  0.856300  0.880400  1.0
  C  C346  1  0.026300  0.024100  0.880400  1.0
  C  C347  1  0.856300  0.026300  0.880400  1.0
  C  C348  1  0.024100  0.854100  0.880400  1.0
  C  C349  1  0.145900  0.143700  0.119600  1.0
  C  C350  1  0.973700  0.975900  0.119600  1.0
  C  C351  1  0.143700  0.973700  0.119600  1.0
  C  C352  1  0.975900  0.145900  0.119600  1.0
  C  C353  1  0.880800  0.817700  0.868200  1.0
  C  C354  1  0.987400  0.050500  0.868200  1.0
  C  C355  1  0.817700  0.987400  0.868200  1.0
  C  C356  1  0.050500  0.880800  0.868200  1.0
  C  C357  1  0.119200  0.182300  0.131800  1.0
  C  C358  1  0.012600  0.949500  0.131800  1.0
  C  C359  1  0.182300  0.012600  0.131800  1.0
  C  C360  1  0.949500  0.119200  0.131800  1.0
  C  C361  1  0.892600  0.905200  0.917200  1.0
  C  C362  1  0.024600  0.012000  0.917200  1.0
  C  C363  1  0.905200  0.024600  0.917200  1.0
  C  C364  1  0.012000  0.892600  0.917200  1.0
  C  C365  1  0.107400  0.094800  0.082800  1.0
  C  C366  1  0.975400  0.988000  0.082800  1.0
  C  C367  1  0.094800  0.975400  0.082800  1.0
  C  C368  1  0.988000  0.107400  0.082800  1.0
  C  C369  1  0.821400  0.855300  0.831800  1.0
  C  C370  1  0.010400  0.976500  0.831800  1.0
  C  C371  1  0.855300  0.010400  0.831800  1.0
  C  C372  1  0.976500  0.821400  0.831800  1.0
  C  C373  1  0.178600  0.144700  0.168200  1.0
  C  C374  1  0.989600  0.023500  0.168200  1.0
  C  C375  1  0.144700  0.989600  0.168200  1.0
  C  C376  1  0.023500  0.178600  0.168200  1.0
  C  C377  1  0.231600  0.135600  0.436800  1.0
  C  C378  1  0.205200  0.301200  0.436800  1.0
  C  C379  1  0.135600  0.205200  0.436800  1.0
  C  C380  1  0.301200  0.231600  0.436800  1.0
  C  C381  1  0.768400  0.864400  0.563200  1.0
  C  C382  1  0.794800  0.698800  0.563200  1.0
  C  C383  1  0.864400  0.794800  0.563200  1.0
  C  C384  1  0.698800  0.768400  0.563200  1.0
  C  C385  1  0.256100  0.116500  0.414000  1.0
  C  C386  1  0.157900  0.297500  0.414000  1.0
  C  C387  1  0.116500  0.157900  0.414000  1.0
  C  C388  1  0.297500  0.256100  0.414000  1.0
  C  C389  1  0.743900  0.883500  0.586000  1.0
  C  C390  1  0.842100  0.702500  0.586000  1.0
  C  C391  1  0.883500  0.842100  0.586000  1.0
  C  C392  1  0.702500  0.743900  0.586000  1.0
  C  C393  1  0.242100  0.076800  0.374000  1.0
  C  C394  1  0.131900  0.297200  0.374000  1.0
  C  C395  1  0.076800  0.131900  0.374000  1.0
  C  C396  1  0.297200  0.242100  0.374000  1.0
  C  C397  1  0.757900  0.923200  0.626000  1.0
  C  C398  1  0.868100  0.702800  0.626000  1.0
  C  C399  1  0.923200  0.868100  0.626000  1.0
  C  C400  1  0.702800  0.757900  0.626000  1.0
  C  C401  1  0.306600  0.190000  0.415800  1.0
  C  C402  1  0.109200  0.225800  0.415800  1.0
  C  C403  1  0.190000  0.109200  0.415800  1.0
  C  C404  1  0.225800  0.306600  0.415800  1.0
  C  C405  1  0.693400  0.810000  0.584200  1.0
  C  C406  1  0.890800  0.774200  0.584200  1.0
  C  C407  1  0.810000  0.890800  0.584200  1.0
  C  C408  1  0.774200  0.693400  0.584200  1.0
  C  C409  1  0.312500  0.170100  0.374000  1.0
  C  C410  1  0.061500  0.203900  0.374000  1.0
  C  C411  1  0.170100  0.061500  0.374000  1.0
  C  C412  1  0.203900  0.312500  0.374000  1.0
  C  C413  1  0.687500  0.829900  0.626000  1.0
  C  C414  1  0.938500  0.796100  0.626000  1.0
  C  C415  1  0.829900  0.938500  0.626000  1.0
  C  C416  1  0.796100  0.687500  0.626000  1.0
  C  C417  1  0.306600  0.194200  0.351800  1.0
  C  C418  1  0.045200  0.157600  0.351800  1.0
  C  C419  1  0.194200  0.045200  0.351800  1.0
  C  C420  1  0.157600  0.306600  0.351800  1.0
  C  C421  1  0.693400  0.805800  0.648200  1.0
  C  C422  1  0.954800  0.842400  0.648200  1.0
  C  C423  1  0.805800  0.954800  0.648200  1.0
  C  C424  1  0.842400  0.693400  0.648200  1.0
  C  C425  1  0.303800  0.175900  0.300200  1.0
  C  C426  1  0.996400  0.124300  0.300200  1.0
  C  C427  1  0.175900  0.996400  0.300200  1.0
  C  C428  1  0.124300  0.303800  0.300200  1.0
  C  C429  1  0.696200  0.824100  0.699800  1.0
  C  C430  1  0.003600  0.875700  0.699800  1.0
  C  C431  1  0.824100  0.003600  0.699800  1.0
  C  C432  1  0.875700  0.696200  0.699800  1.0
  C  C433  1  0.279300  0.145000  0.275200  1.0
  C  C434  1  0.995900  0.130200  0.275200  1.0
  C  C435  1  0.145000  0.995900  0.275200  1.0
  C  C436  1  0.130200  0.279300  0.275200  1.0
  C  C437  1  0.720700  0.855000  0.724800  1.0
  C  C438  1  0.004100  0.869800  0.724800  1.0
  C  C439  1  0.855000  0.004100  0.724800  1.0
  C  C440  1  0.869800  0.720700  0.724800  1.0
  C  C441  1  0.305700  0.210300  0.287600  1.0
  C  C442  1  0.981900  0.077300  0.287600  1.0
  C  C443  1  0.210300  0.981900  0.287600  1.0
  C  C444  1  0.077300  0.305700  0.287600  1.0
  C  C445  1  0.694300  0.789700  0.712400  1.0
  C  C446  1  0.018100  0.922700  0.712400  1.0
  C  C447  1  0.789700  0.018100  0.712400  1.0
  C  C448  1  0.922700  0.694300  0.712400  1.0
  C  C449  1  0.361600  0.165400  0.324400  1.0
  C  C450  1  0.962800  0.159000  0.324400  1.0
  C  C451  1  0.165400  0.962800  0.324400  1.0
  C  C452  1  0.159000  0.361600  0.324400  1.0
  C  C453  1  0.638400  0.834600  0.675600  1.0
  C  C454  1  0.037200  0.841000  0.675600  1.0
  C  C455  1  0.834600  0.037200  0.675600  1.0
  C  C456  1  0.841000  0.638400  0.675600  1.0
  Co  Co457  1  0.664810  0.855620  0.000000  1.0
  Co  Co458  1  0.335190  0.144380  0.000000  1.0
  Co  Co459  1  0.855620  0.335190  1.000000  1.0
  Co  Co460  1  0.144380  0.664810  1.000000  1.0
  Co  Co461  1  0.765620  0.784260  1.000000  1.0
  Co  Co462  1  0.234380  0.215740  1.000000  1.0
  Co  Co463  1  0.784260  0.234380  1.000000  1.0
  Co  Co464  1  0.215740  0.765620  1.000000  1.0
  Co  Co465  1  0.314840  0.225940  0.526700  1.0
  Co  Co466  1  0.211860  0.300760  0.526700  1.0
  Co  Co467  1  0.225940  0.211860  0.526700  1.0
  Co  Co468  1  0.300760  0.314840  0.526700  1.0
  Co  Co469  1  0.685160  0.774060  0.473300  1.0
  Co  Co470  1  0.788140  0.699240  0.473300  1.0
  Co  Co471  1  0.774060  0.788140  0.473300  1.0
  Co  Co472  1  0.699240  0.685160  0.473300  1.0
  Co  Co473  1  0.676250  0.780320  0.920060  1.0
  Co  Co474  1  0.243810  0.139740  0.920060  1.0
  Co  Co475  1  0.780320  0.243810  0.920060  1.0
  Co  Co476  1  0.139740  0.676250  0.920060  1.0
  Co  Co477  1  0.323750  0.219680  0.079940  1.0
  Co  Co478  1  0.756190  0.860260  0.079940  1.0
  Co  Co479  1  0.219680  0.756190  0.079940  1.0
  Co  Co480  1  0.860260  0.323750  0.079940  1.0
  H  H481  1  0.577236  0.480491  0.765754  1.0
  H  H482  1  0.188518  0.285263  0.765754  1.0
  H  H483  1  0.480491  0.188518  0.765754  1.0
  H  H484  1  0.285263  0.577236  0.765754  1.0
  H  H485  1  0.422764  0.519509  0.234246  1.0
  H  H486  1  0.811482  0.714737  0.234246  1.0
  H  H487  1  0.519509  0.811482  0.234246  1.0
  H  H488  1  0.714737  0.422764  0.234246  1.0
  H  H489  1  0.602770  0.362393  0.763324  1.0
  H  H490  1  0.160554  0.400931  0.763324  1.0
  H  H491  1  0.362393  0.160554  0.763324  1.0
  H  H492  1  0.400931  0.602770  0.763324  1.0
  H  H493  1  0.397230  0.637607  0.236676  1.0
  H  H494  1  0.839446  0.599069  0.236676  1.0
  H  H495  1  0.637607  0.839446  0.236676  1.0
  H  H496  1  0.599069  0.397230  0.236676  1.0
  H  H497  1  0.699443  0.485714  0.870082  1.0
  H  H498  1  0.170639  0.384368  0.870082  1.0
  H  H499  1  0.485714  0.170639  0.870082  1.0
  H  H500  1  0.384368  0.699443  0.870082  1.0
  H  H501  1  0.300557  0.514286  0.129918  1.0
  H  H502  1  0.829361  0.615632  0.129918  1.0
  H  H503  1  0.514286  0.829361  0.129918  1.0
  H  H504  1  0.615632  0.300557  0.129918  1.0
  H  H505  1  0.701269  0.558951  0.914028  1.0
  H  H506  1  0.212759  0.355077  0.914028  1.0
  H  H507  1  0.558951  0.212759  0.914028  1.0
  H  H508  1  0.355077  0.701269  0.914028  1.0
  H  H509  1  0.298731  0.441049  0.085972  1.0
  H  H510  1  0.787241  0.644923  0.085972  1.0
  H  H511  1  0.441049  0.787241  0.085972  1.0
  H  H512  1  0.644923  0.298731  0.085972  1.0
  H  H513  1  0.724313  0.639525  0.950726  1.0
  H  H514  1  0.226413  0.311201  0.950726  1.0
  H  H515  1  0.639525  0.226413  0.950726  1.0
  H  H516  1  0.311201  0.724313  0.950726  1.0
  H  H517  1  0.275687  0.360475  0.049274  1.0
  H  H518  1  0.773587  0.688799  0.049274  1.0
  H  H519  1  0.360475  0.773587  0.049274  1.0
  H  H520  1  0.688799  0.275687  0.049274  1.0
  H  H521  1  0.641458  0.627092  0.820688  1.0
  H  H522  1  0.179230  0.193596  0.820688  1.0
  H  H523  1  0.627092  0.179230  0.820688  1.0
  H  H524  1  0.193596  0.641458  0.820688  1.0
  H  H525  1  0.358542  0.372908  0.179312  1.0
  H  H526  1  0.820770  0.806404  0.179312  1.0
  H  H527  1  0.372908  0.820770  0.179312  1.0
  H  H528  1  0.806404  0.358542  0.179312  1.0
  H  H529  1  0.618413  0.546518  0.783988  1.0
  H  H530  1  0.165575  0.237470  0.783988  1.0
  H  H531  1  0.546518  0.165575  0.783988  1.0
  H  H532  1  0.237470  0.618413  0.783988  1.0
  H  H533  1  0.381587  0.453482  0.216012  1.0
  H  H534  1  0.834425  0.762530  0.216012  1.0
  H  H535  1  0.453482  0.834425  0.216012  1.0
  H  H536  1  0.762530  0.381587  0.216012  1.0
  H  H537  1  0.522421  0.436156  0.691472  1.0
  H  H538  1  0.169051  0.255316  0.691472  1.0
  H  H539  1  0.436156  0.169051  0.691472  1.0
  H  H540  1  0.255316  0.522421  0.691472  1.0
  H  H541  1  0.477579  0.563844  0.308528  1.0
  H  H542  1  0.830949  0.744684  0.308528  1.0
  H  H543  1  0.563844  0.830949  0.308528  1.0
  H  H544  1  0.744684  0.477579  0.308528  1.0
  H  H545  1  0.446726  0.394460  0.625886  1.0
  H  H546  1  0.179160  0.231426  0.625886  1.0
  H  H547  1  0.394460  0.179160  0.625886  1.0
  H  H548  1  0.231426  0.446726  0.625886  1.0
  H  H549  1  0.553274  0.605540  0.374114  1.0
  H  H550  1  0.820840  0.768574  0.374114  1.0
  H  H551  1  0.605540  0.820840  0.374114  1.0
  H  H552  1  0.768574  0.553274  0.374114  1.0
  H  H553  1  0.455235  0.292465  0.656190  1.0
  H  H554  1  0.200955  0.363725  0.656190  1.0
  H  H555  1  0.292465  0.200955  0.656190  1.0
  H  H556  1  0.363725  0.455235  0.656190  1.0
  H  H557  1  0.544765  0.707535  0.343810  1.0
  H  H558  1  0.799045  0.636275  0.343810  1.0
  H  H559  1  0.707535  0.799045  0.343810  1.0
  H  H560  1  0.636275  0.544765  0.343810  1.0
  H  H561  1  0.530929  0.334160  0.721776  1.0
  H  H562  1  0.190847  0.387616  0.721776  1.0
  H  H563  1  0.334160  0.190847  0.721776  1.0
  H  H564  1  0.387616  0.530929  0.721776  1.0
  H  H565  1  0.469071  0.665840  0.278224  1.0
  H  H566  1  0.809153  0.612384  0.278224  1.0
  H  H567  1  0.665840  0.809153  0.278224  1.0
  H  H568  1  0.612384  0.469071  0.278224  1.0
  H  H569  1  0.719846  0.452195  0.915142  1.0
  H  H570  1  0.195296  0.462947  0.915142  1.0
  H  H571  1  0.452195  0.195296  0.915142  1.0
  H  H572  1  0.462947  0.719846  0.915142  1.0
  H  H573  1  0.280154  0.547805  0.084858  1.0
  H  H574  1  0.804704  0.537053  0.084858  1.0
  H  H575  1  0.547805  0.804704  0.084858  1.0
  H  H576  1  0.537053  0.280154  0.084858  1.0
  H  H577  1  0.775724  0.417184  0.945222  1.0
  H  H578  1  0.169498  0.528038  0.945222  1.0
  H  H579  1  0.417184  0.169498  0.945222  1.0
  H  H580  1  0.528038  0.775724  0.945222  1.0
  H  H581  1  0.224276  0.582816  0.054778  1.0
  H  H582  1  0.830502  0.471962  0.054778  1.0
  H  H583  1  0.582816  0.830502  0.054778  1.0
  H  H584  1  0.471962  0.224276  0.054778  1.0
  H  H585  1  0.702481  0.295482  0.823938  1.0
  H  H586  1  0.121457  0.528456  0.823938  1.0
  H  H587  1  0.295482  0.121457  0.823938  1.0
  H  H588  1  0.528456  0.702481  0.823938  1.0
  H  H589  1  0.297519  0.704518  0.176062  1.0
  H  H590  1  0.878543  0.471544  0.176062  1.0
  H  H591  1  0.704518  0.878543  0.176062  1.0
  H  H592  1  0.471544  0.297519  0.176062  1.0
  H  H593  1  0.665345  0.330759  0.784926  1.0
  H  H594  1  0.119581  0.454167  0.784926  1.0
  H  H595  1  0.330759  0.119581  0.784926  1.0
  H  H596  1  0.454167  0.665345  0.784926  1.0
  H  H597  1  0.334655  0.669241  0.215074  1.0
  H  H598  1  0.880419  0.545833  0.215074  1.0
  H  H599  1  0.669241  0.880419  0.215074  1.0
  H  H600  1  0.545833  0.334655  0.215074  1.0
  H  H601  1  0.756659  0.824987  0.840866  1.0
  H  H602  1  0.084207  0.015879  0.840866  1.0
  H  H603  1  0.824987  0.084207  0.840866  1.0
  H  H604  1  0.015879  0.756659  0.840866  1.0
  H  H605  1  0.243341  0.175013  0.159134  1.0
  H  H606  1  0.915793  0.984121  0.159134  1.0
  H  H607  1  0.175013  0.915793  0.159134  1.0
  H  H608  1  0.984121  0.243341  0.159134  1.0
  H  H609  1  0.675051  0.881854  0.842066  1.0
  H  H610  1  0.167015  0.960212  0.842066  1.0
  H  H611  1  0.881854  0.167015  0.842066  1.0
  H  H612  1  0.960212  0.675051  0.842066  1.0
  H  H613  1  0.324949  0.118146  0.157934  1.0
  H  H614  1  0.832985  0.039788  0.157934  1.0
  H  H615  1  0.118146  0.832985  0.157934  1.0
  H  H616  1  0.039788  0.324949  0.157934  1.0
  H  H617  1  0.613388  0.996214  0.846832  1.0
  H  H618  1  0.233444  0.850618  0.846832  1.0
  H  H619  1  0.996214  0.233444  0.846832  1.0
  H  H620  1  0.850618  0.613388  0.846832  1.0
  H  H621  1  0.386612  0.003786  0.153168  1.0
  H  H622  1  0.766556  0.149382  0.153168  1.0
  H  H623  1  0.003786  0.766556  0.153168  1.0
  H  H624  1  0.149382  0.386612  0.153168  1.0
  H  H625  1  0.594692  0.952454  0.845592  1.0
  H  H626  1  0.250900  0.893138  0.845592  1.0
  H  H627  1  0.952454  0.250900  0.845592  1.0
  H  H628  1  0.893138  0.594692  0.845592  1.0
  H  H629  1  0.405308  0.047546  0.154408  1.0
  H  H630  1  0.749100  0.106862  0.154408  1.0
  H  H631  1  0.047546  0.749100  0.154408  1.0
  H  H632  1  0.106862  0.405308  0.154408  1.0
  H  H633  1  0.626726  0.999001  0.895718  1.0
  H  H634  1  0.268992  0.896717  0.895718  1.0
  H  H635  1  0.999001  0.268992  0.895718  1.0
  H  H636  1  0.896717  0.626726  0.895718  1.0
  H  H637  1  0.373274  0.000999  0.104282  1.0
  H  H638  1  0.731008  0.103283  0.104282  1.0
  H  H639  1  0.000999  0.731008  0.104282  1.0
  H  H640  1  0.103283  0.373274  0.104282  1.0
  H  H641  1  0.693186  0.933854  0.825480  1.0
  H  H642  1  0.132294  0.891626  0.825480  1.0
  H  H643  1  0.933854  0.132294  0.825480  1.0
  H  H644  1  0.891626  0.693186  0.825480  1.0
  H  H645  1  0.306814  0.066146  0.174520  1.0
  H  H646  1  0.867706  0.108374  0.174520  1.0
  H  H647  1  0.066146  0.867706  0.174520  1.0
  H  H648  1  0.108374  0.306814  0.174520  1.0
  H  H649  1  0.638558  0.915171  0.791874  1.0
  H  H650  1  0.153316  0.876703  0.791874  1.0
  H  H651  1  0.915171  0.153316  0.791874  1.0
  H  H652  1  0.876703  0.638558  0.791874  1.0
  H  H653  1  0.361442  0.084829  0.208126  1.0
  H  H654  1  0.846684  0.123297  0.208126  1.0
  H  H655  1  0.084829  0.846684  0.208126  1.0
  H  H656  1  0.123297  0.361442  0.208126  1.0
  H  H657  1  0.663828  0.965147  0.809036  1.0
  H  H658  1  0.145208  0.843889  0.809036  1.0
  H  H659  1  0.965147  0.145208  0.809036  1.0
  H  H660  1  0.843889  0.663828  0.809036  1.0
  H  H661  1  0.336172  0.034853  0.190964  1.0
  H  H662  1  0.854792  0.156111  0.190964  1.0
  H  H663  1  0.034853  0.854792  0.190964  1.0
  H  H664  1  0.156111  0.336172  0.190964  1.0
  H  H665  1  0.726015  0.984661  0.890652  1.0
  H  H666  1  0.164637  0.905991  0.890652  1.0
  H  H667  1  0.984661  0.164637  0.890652  1.0
  H  H668  1  0.905991  0.726015  0.890652  1.0
  H  H669  1  0.273985  0.015339  0.109348  1.0
  H  H670  1  0.835363  0.094009  0.109348  1.0
  H  H671  1  0.015339  0.835363  0.109348  1.0
  H  H672  1  0.094009  0.273985  0.109348  1.0
  H  H673  1  0.697157  0.017541  0.876936  1.0
  H  H674  1  0.179779  0.859395  0.876936  1.0
  H  H675  1  0.017541  0.179779  0.876936  1.0
  H  H676  1  0.859395  0.697157  0.876936  1.0
  H  H677  1  0.302843  0.982459  0.123064  1.0
  H  H678  1  0.820221  0.140605  0.123064  1.0
  H  H679  1  0.982459  0.820221  0.123064  1.0
  H  H680  1  0.140605  0.302843  0.123064  1.0
  H  H681  1  0.709475  0.018526  0.924766  1.0
  H  H682  1  0.215291  0.906240  0.924766  1.0
  H  H683  1  0.018526  0.215291  0.924766  1.0
  H  H684  1  0.906240  0.709475  0.924766  1.0
  H  H685  1  0.290525  0.981474  0.075234  1.0
  H  H686  1  0.784709  0.093760  0.075234  1.0
  H  H687  1  0.981474  0.784709  0.075234  1.0
  H  H688  1  0.093760  0.290525  0.075234  1.0
  H  H689  1  0.661390  0.981714  0.941228  1.0
  H  H690  1  0.279838  0.959514  0.941228  1.0
  H  H691  1  0.981714  0.279838  0.941228  1.0
  H  H692  1  0.959514  0.661390  0.941228  1.0
  H  H693  1  0.338610  0.018286  0.058772  1.0
  H  H694  1  0.720162  0.040486  0.058772  1.0
  H  H695  1  0.018286  0.720162  0.058772  1.0
  H  H696  1  0.040486  0.338610  0.058772  1.0
  H  H697  1  0.874446  0.822751  0.944476  1.0
  H  H698  1  0.070030  0.121725  0.944476  1.0
  H  H699  1  0.822751  0.070030  0.944476  1.0
  H  H700  1  0.121725  0.874446  0.944476  1.0
  H  H701  1  0.125554  0.177249  0.055524  1.0
  H  H702  1  0.929970  0.878275  0.055524  1.0
  H  H703  1  0.177249  0.929970  0.055524  1.0
  H  H704  1  0.878275  0.125554  0.055524  1.0
  H  H705  1  0.901359  0.817224  0.897244  1.0
  H  H706  1  0.995885  0.080020  0.897244  1.0
  H  H707  1  0.817224  0.995885  0.897244  1.0
  H  H708  1  0.080020  0.901359  0.897244  1.0
  H  H709  1  0.098641  0.182776  0.102756  1.0
  H  H710  1  0.004115  0.919980  0.102756  1.0
  H  H711  1  0.182776  0.004115  0.102756  1.0
  H  H712  1  0.919980  0.098641  0.102756  1.0
  H  H713  1  0.898802  0.824862  0.856722  1.0
  H  H714  1  0.957920  0.031860  0.856722  1.0
  H  H715  1  0.824862  0.957920  0.856722  1.0
  H  H716  1  0.031860  0.898802  0.856722  1.0
  H  H717  1  0.101198  0.175138  0.143278  1.0
  H  H718  1  0.042080  0.968140  0.143278  1.0
  H  H719  1  0.175138  0.042080  0.143278  1.0
  H  H720  1  0.968140  0.101198  0.143278  1.0
  H  H721  1  0.858536  0.787642  0.843552  1.0
  H  H722  1  0.985016  0.055910  0.843552  1.0
  H  H723  1  0.787642  0.985016  0.843552  1.0
  H  H724  1  0.055910  0.858536  0.843552  1.0
  H  H725  1  0.141464  0.212358  0.156448  1.0
  H  H726  1  0.014984  0.944090  0.156448  1.0
  H  H727  1  0.212358  0.014984  0.156448  1.0
  H  H728  1  0.944090  0.141464  0.156448  1.0
  H  H729  1  0.913300  0.907062  0.947528  1.0
  H  H730  1  0.034228  0.040466  0.947528  1.0
  H  H731  1  0.907062  0.034228  0.947528  1.0
  H  H732  1  0.040466  0.913300  0.947528  1.0
  H  H733  1  0.086700  0.092938  0.052472  1.0
  H  H734  1  0.965772  0.959534  0.052472  1.0
  H  H735  1  0.092938  0.965772  0.052472  1.0
  H  H736  1  0.959534  0.086700  0.052472  1.0
  H  H737  1  0.877631  0.930026  0.923044  1.0
  H  H738  1  0.045413  0.993018  0.923044  1.0
  H  H739  1  0.930026  0.045413  0.923044  1.0
  H  H740  1  0.993018  0.877631  0.923044  1.0
  H  H741  1  0.122369  0.069974  0.076956  1.0
  H  H742  1  0.954587  0.006982  0.076956  1.0
  H  H743  1  0.069974  0.954587  0.076956  1.0
  H  H744  1  0.006982  0.122369  0.076956  1.0
  H  H745  1  0.910134  0.908204  0.903478  1.0
  H  H746  1  0.993344  0.995274  0.903478  1.0
  H  H747  1  0.908204  0.993344  0.903478  1.0
  H  H748  1  0.995274  0.910134  0.903478  1.0
  H  H749  1  0.089866  0.091796  0.096522  1.0
  H  H750  1  0.006656  0.004726  0.096522  1.0
  H  H751  1  0.091796  0.006656  0.096522  1.0
  H  H752  1  0.004726  0.089866  0.096522  1.0
  H  H753  1  0.804422  0.878278  0.837540  1.0
  H  H754  1  0.033118  0.959262  0.837540  1.0
  H  H755  1  0.878278  0.033118  0.837540  1.0
  H  H756  1  0.959262  0.804422  0.837540  1.0
  H  H757  1  0.195578  0.121722  0.162460  1.0
  H  H758  1  0.966882  0.040738  0.162460  1.0
  H  H759  1  0.121722  0.966882  0.162460  1.0
  H  H760  1  0.040738  0.195578  0.162460  1.0
  H  H761  1  0.799673  0.824796  0.807404  1.0
  H  H762  1  0.007731  0.982608  0.807404  1.0
  H  H763  1  0.824796  0.007731  0.807404  1.0
  H  H764  1  0.982608  0.799673  0.807404  1.0
  H  H765  1  0.200327  0.175204  0.192596  1.0
  H  H766  1  0.992269  0.017392  0.192596  1.0
  H  H767  1  0.175204  0.992269  0.192596  1.0
  H  H768  1  0.017392  0.200327  0.192596  1.0
  H  H769  1  0.839940  0.862016  0.820574  1.0
  H  H770  1  0.980634  0.958558  0.820574  1.0
  H  H771  1  0.862016  0.980634  0.820574  1.0
  H  H772  1  0.958558  0.839940  0.820574  1.0
  H  H773  1  0.160060  0.137984  0.179426  1.0
  H  H774  1  0.019366  0.041442  0.179426  1.0
  H  H775  1  0.137984  0.019366  0.179426  1.0
  H  H776  1  0.041442  0.160060  0.179426  1.0
  H  H777  1  0.259867  0.067995  0.359496  1.0
  H  H778  1  0.099629  0.291501  0.359496  1.0
  H  H779  1  0.067995  0.099629  0.359496  1.0
  H  H780  1  0.291501  0.259867  0.359496  1.0
  H  H781  1  0.740133  0.932005  0.640504  1.0
  H  H782  1  0.900371  0.708499  0.640504  1.0
  H  H783  1  0.932005  0.900371  0.640504  1.0
  H  H784  1  0.708499  0.740133  0.640504  1.0
  H  H785  1  0.319962  0.141723  0.362998  1.0
  H  H786  1  0.043036  0.221275  0.362998  1.0
  H  H787  1  0.141723  0.043036  0.362998  1.0
  H  H788  1  0.221275  0.319962  0.362998  1.0
  H  H789  1  0.680038  0.858277  0.637002  1.0
  H  H790  1  0.956964  0.778725  0.637002  1.0
  H  H791  1  0.858277  0.956964  0.637002  1.0
  H  H792  1  0.778725  0.680038  0.637002  1.0
  H  H793  1  0.282806  0.126038  0.289286  1.0
  H  H794  1  0.006480  0.163248  0.289286  1.0
  H  H795  1  0.126038  0.006480  0.289286  1.0
  H  H796  1  0.163248  0.282806  0.289286  1.0
  H  H797  1  0.717194  0.873962  0.710714  1.0
  H  H798  1  0.993520  0.836752  0.710714  1.0
  H  H799  1  0.873962  0.993520  0.710714  1.0
  H  H800  1  0.836752  0.717194  0.710714  1.0
  H  H801  1  0.248861  0.150199  0.264970  1.0
  H  H802  1  0.016109  0.114771  0.264970  1.0
  H  H803  1  0.150199  0.016109  0.264970  1.0
  H  H804  1  0.114771  0.248861  0.264970  1.0
  H  H805  1  0.751139  0.849801  0.735030  1.0
  H  H806  1  0.983891  0.885229  0.735030  1.0
  H  H807  1  0.849801  0.983891  0.735030  1.0
  H  H808  1  0.885229  0.751139  0.735030  1.0
  H  H809  1  0.283058  0.129335  0.247600  1.0
  H  H810  1  0.964542  0.118265  0.247600  1.0
  H  H811  1  0.129335  0.964542  0.247600  1.0
  H  H812  1  0.118265  0.283058  0.247600  1.0
  H  H813  1  0.716942  0.870665  0.752400  1.0
  H  H814  1  0.035458  0.881735  0.752400  1.0
  H  H815  1  0.870665  0.035458  0.752400  1.0
  H  H816  1  0.881735  0.716942  0.752400  1.0
  H  H817  1  0.330832  0.237603  0.315282  1.0
  H  H818  1  0.984450  0.077679  0.315282  1.0
  H  H819  1  0.237603  0.984450  0.315282  1.0
  H  H820  1  0.077679  0.330832  0.315282  1.0
  H  H821  1  0.669168  0.762397  0.684718  1.0
  H  H822  1  0.015550  0.922321  0.684718  1.0
  H  H823  1  0.762397  0.015550  0.684718  1.0
  H  H824  1  0.922321  0.669168  0.684718  1.0
  H  H825  1  0.310840  0.197711  0.260904  1.0
  H  H826  1  0.950064  0.063193  0.260904  1.0
  H  H827  1  0.197711  0.950064  0.260904  1.0
  H  H828  1  0.063193  0.310840  0.260904  1.0
  H  H829  1  0.689160  0.802289  0.739096  1.0
  H  H830  1  0.049936  0.936807  0.739096  1.0
  H  H831  1  0.802289  0.049936  0.739096  1.0
  H  H832  1  0.936807  0.689160  0.739096  1.0
  H  H833  1  0.276642  0.218574  0.278274  1.0
  H  H834  1  0.001632  0.059700  0.278274  1.0
  H  H835  1  0.218574  0.001632  0.278274  1.0
  H  H836  1  0.059700  0.276642  0.278274  1.0
  H  H837  1  0.723358  0.781426  0.721726  1.0
  H  H838  1  0.998368  0.940300  0.721726  1.0
  H  H839  1  0.781426  0.998368  0.721726  1.0
  H  H840  1  0.940300  0.723358  0.721726  1.0
  H  H841  1  0.385104  0.194786  0.348296  1.0
  H  H842  1  0.963192  0.153510  0.348296  1.0
  H  H843  1  0.194786  0.963192  0.348296  1.0
  H  H844  1  0.153510  0.385104  0.348296  1.0
  H  H845  1  0.614896  0.805214  0.651704  1.0
  H  H846  1  0.036808  0.846490  0.651704  1.0
  H  H847  1  0.805214  0.036808  0.651704  1.0
  H  H848  1  0.846490  0.614896  0.651704  1.0
  H  H849  1  0.362706  0.147666  0.339252  1.0
  H  H850  1  0.976546  0.191586  0.339252  1.0
  H  H851  1  0.147666  0.976546  0.339252  1.0
  H  H852  1  0.191586  0.362706  0.339252  1.0
  H  H853  1  0.637294  0.852334  0.660748  1.0
  H  H854  1  0.023454  0.808414  0.660748  1.0
  H  H855  1  0.852334  0.023454  0.660748  1.0
  H  H856  1  0.808414  0.637294  0.660748  1.0
  H  H857  1  0.367096  0.148208  0.298218  1.0
  H  H858  1  0.931122  0.150010  0.298218  1.0
  H  H859  1  0.148208  0.931122  0.298218  1.0
  H  H860  1  0.150010  0.367096  0.298218  1.0
  H  H861  1  0.632904  0.851792  0.701782  1.0
  H  H862  1  0.068878  0.849990  0.701782  1.0
  H  H863  1  0.851792  0.068878  0.701782  1.0
  H  H864  1  0.849990  0.632904  0.701782  1.0
  O  O865  1  0.277200  0.277200  0.554400  1.0
  O  O866  1  0.722800  0.722800  0.445600  1.0
  O  O867  1  0.638100  0.912700  1.000000  1.0
  O  O868  1  0.361900  0.087300  0.000000  1.0
  O  O869  1  0.912700  0.361900  0.000000  1.0
  O  O870  1  0.087300  0.638100  1.000000  1.0
  O  O871  1  0.828000  0.776100  1.000000  1.0
  O  O872  1  0.172000  0.223900  0.000000  1.0
  O  O873  1  0.776100  0.172000  0.000000  1.0
  O  O874  1  0.223900  0.828000  0.000000  1.0
  O  O875  1  0.704300  0.804700  1.000000  1.0
  O  O876  1  0.295700  0.195300  0.000000  1.0
  O  O877  1  0.804700  0.295700  1.000000  1.0
  O  O878  1  0.195300  0.704300  0.000000  1.0
  O  O879  1  0.673440  0.711340  0.889480  1.0
  O  O880  1  0.216040  0.178140  0.889480  1.0
  O  O881  1  0.711340  0.216040  0.889480  1.0
  O  O882  1  0.178140  0.673440  0.889480  1.0
  O  O883  1  0.326560  0.288660  0.110520  1.0
  O  O884  1  0.783960  0.821860  0.110520  1.0
  O  O885  1  0.288660  0.783960  0.110520  1.0
  O  O886  1  0.821860  0.326560  0.110520  1.0
  O  O887  1  0.738650  0.714770  0.952700  1.0
  O  O888  1  0.214050  0.237930  0.952700  1.0
  O  O889  1  0.714770  0.214050  0.952700  1.0
  O  O890  1  0.237930  0.738650  0.952700  1.0
  O  O891  1  0.261350  0.285230  0.047300  1.0
  O  O892  1  0.785950  0.762070  0.047300  1.0
  O  O893  1  0.285230  0.785950  0.047300  1.0
  O  O894  1  0.762070  0.261350  0.047300  1.0
  O  O895  1  0.380690  0.269690  0.575380  1.0
  O  O896  1  0.194690  0.305690  0.575380  1.0
  O  O897  1  0.269690  0.194690  0.575380  1.0
  O  O898  1  0.305690  0.380690  0.575380  1.0
  O  O899  1  0.619310  0.730310  0.424620  1.0
  O  O900  1  0.805310  0.694310  0.424620  1.0
  O  O901  1  0.730310  0.805310  0.424620  1.0
  O  O902  1  0.694310  0.619310  0.424620  1.0
  O  O903  1  0.370620  0.334320  0.572240  1.0
  O  O904  1  0.201620  0.237920  0.572240  1.0
  O  O905  1  0.334320  0.201620  0.572240  1.0
  O  O906  1  0.237920  0.370620  0.572240  1.0
  O  O907  1  0.629380  0.665680  0.427760  1.0
  O  O908  1  0.798380  0.762080  0.427760  1.0
  O  O909  1  0.665680  0.798380  0.427760  1.0
  O  O910  1  0.762080  0.629380  0.427760  1.0
  O  O911  1  0.759000  0.284900  0.892200  1.0
  O  O912  1  0.133200  0.607300  0.892200  1.0
  O  O913  1  0.284900  0.133200  0.892200  1.0
  O  O914  1  0.607300  0.759000  0.892200  1.0
  O  O915  1  0.241000  0.715100  0.107800  1.0
  O  O916  1  0.866800  0.392700  0.107800  1.0
  O  O917  1  0.715100  0.866800  0.107800  1.0
  O  O918  1  0.392700  0.241000  0.107800  1.0
  O  O919  1  0.810380  0.351680  0.951360  1.0
  O  O920  1  0.140980  0.599680  0.951360  1.0
  O  O921  1  0.351680  0.140980  0.951360  1.0
  O  O922  1  0.599680  0.810380  0.951360  1.0
  O  O923  1  0.189620  0.648320  0.048640  1.0
  O  O924  1  0.859020  0.400320  0.048640  1.0
  O  O925  1  0.648320  0.859020  0.048640  1.0
  O  O926  1  0.400320  0.189620  0.048640  1.0
  O  O927  1  0.660080  0.772980  0.851760  1.0
  O  O928  1  0.191680  0.078780  0.851760  1.0
  O  O929  1  0.772980  0.191680  0.851760  1.0
  O  O930  1  0.078780  0.660080  0.851760  1.0
  O  O931  1  0.339920  0.227020  0.148240  1.0
  O  O932  1  0.808320  0.921220  0.148240  1.0
  O  O933  1  0.227020  0.808320  0.148240  1.0
  O  O934  1  0.921220  0.339920  0.148240  1.0
  O  O935  1  0.676540  0.850490  0.946780  1.0
  O  O936  1  0.270240  0.096290  0.946780  1.0
  O  O937  1  0.850490  0.270240  0.946780  1.0
  O  O938  1  0.096290  0.676540  0.946780  1.0
  O  O939  1  0.323460  0.149510  0.053220  1.0
  O  O940  1  0.729760  0.903710  0.053220  1.0
  O  O941  1  0.149510  0.729760  0.053220  1.0
  O  O942  1  0.903710  0.323460  0.053220  1.0
  O  O943  1  0.248500  0.176500  0.478800  1.0
  O  O944  1  0.230300  0.302300  0.478800  1.0
  O  O945  1  0.176500  0.230300  0.478800  1.0
  O  O946  1  0.302300  0.248500  0.478800  1.0
  O  O947  1  0.751500  0.823500  0.521200  1.0
  O  O948  1  0.769700  0.697700  0.521200  1.0
  O  O949  1  0.823500  0.769700  0.521200  1.0
  O  O950  1  0.697700  0.751500  0.521200  1.0
  O  O951  1  0.340060  0.174660  0.488320  1.0
  O  O952  1  0.148260  0.313660  0.488320  1.0
  O  O953  1  0.174660  0.148260  0.488320  1.0
  O  O954  1  0.313660  0.340060  0.488320  1.0
  O  O955  1  0.659940  0.825340  0.511680  1.0
  O  O956  1  0.851740  0.686340  0.511680  1.0
  O  O957  1  0.825340  0.851740  0.511680  1.0
  O  O958  1  0.686340  0.659940  0.511680  1.0
  O  O959  1  0.747180  0.800910  0.946620  1.0
  O  O960  1  0.199440  0.145710  0.946620  1.0
  O  O961  1  0.800910  0.199440  0.946620  1.0
  O  O962  1  0.145710  0.747180  0.946620  1.0
  O  O963  1  0.252820  0.199090  0.053380  1.0
  O  O964  1  0.800560  0.854290  0.053380  1.0
  O  O965  1  0.199090  0.800560  0.053380  1.0
  O  O966  1  0.854290  0.252820  0.053380  1.0
  O  O967  1  0.333740  0.114640  0.414880  1.0
  O  O968  1  0.081140  0.300240  0.414880  1.0
  O  O969  1  0.114640  0.081140  0.414880  1.0
  O  O970  1  0.300240  0.333740  0.414880  1.0
  O  O971  1  0.666260  0.885360  0.585120  1.0
  O  O972  1  0.918860  0.699760  0.585120  1.0
  O  O973  1  0.885360  0.918860  0.585120  1.0
  O  O974  1  0.699760  0.666260  0.585120  1.0
  S  S975  1  0.853820  0.810550  1.000000  1.0
  S  S976  1  0.146180  0.189450  1.000000  1.0
  S  S977  1  0.810550  0.146180  0.000000  1.0
  S  S978  1  0.189450  0.853820  1.000000  1.0
  S  S979  1  0.661780  0.947990  1.000000  1.0
  S  S980  1  0.338220  0.052010  1.000000  1.0
  S  S981  1  0.947990  0.338220  1.000000  1.0
  S  S982  1  0.052010  0.661780  0.000000  1.0
  S  S983  1  0.313470  0.148570  0.435980  1.0
  S  S984  1  0.122510  0.287410  0.435980  1.0
  S  S985  1  0.148570  0.122510  0.435980  1.0
  S  S986  1  0.287410  0.313470  0.435980  1.0
  S  S987  1  0.686530  0.851430  0.564020  1.0
  S  S988  1  0.877490  0.712590  0.564020  1.0
  S  S989  1  0.851430  0.877490  0.564020  1.0
  S  S990  1  0.712590  0.686530  0.564020  1.0
  S  S991  1  0.686850  0.809440  0.855280  1.0
  S  S992  1  0.168430  0.045840  0.855280  1.0
  S  S993  1  0.809440  0.168430  0.855280  1.0
  S  S994  1  0.045840  0.686850  0.855280  1.0
  S  S995  1  0.313150  0.190560  0.144720  1.0
  S  S996  1  0.831570  0.954160  0.144720  1.0
  S  S997  1  0.190560  0.831570  0.144720  1.0
  S  S998  1  0.954160  0.313150  0.144720  1.0
