# generated using pymatgen
data_H328Ru12C248N96Cl15O2
_symmetry_space_group_name_H-M   'P 1'
_cell_length_a   27.28803971
_cell_length_b   27.28803971
_cell_length_c   40.66300000
_cell_angle_alpha   72.50385001
_cell_angle_beta   72.50385001
_cell_angle_gamma   60.31533779
_symmetry_Int_Tables_number   1
_chemical_formula_structural   H328Ru12C248N96Cl15O2
_chemical_formula_sum   'H656 Ru24 C496 N192 Cl30 O4'
_cell_volume   24664.10897683
_cell_formula_units_Z   2
loop_
 _symmetry_equiv_pos_site_id
 _symmetry_equiv_pos_as_xyz
  1  'x, y, z'
loop_
 _atom_site_type_symbol
 _atom_site_label
 _atom_site_symmetry_multiplicity
 _atom_site_fract_x
 _atom_site_fract_y
 _atom_site_fract_z
 _atom_site_occupancy
  C  C1  1  0.054710  0.828570  0.718230  1
  C  C2  1  0.171430  0.945290  0.781770  1
  C  C3  1  0.945290  0.171430  0.281770  1
  C  C4  1  0.828570  0.054710  0.218230  1
  C  C5  1  0.004140  0.877540  0.724800  1
  C  C6  1  0.122460  0.995860  0.775200  1
  C  C7  1  0.995860  0.122460  0.275200  1
  C  C8  1  0.877540  0.004140  0.224800  1
  C  C9  1  0.953070  0.881070  0.723070  1
  C  C10  1  0.118930  0.046930  0.776930  1
  C  C11  1  0.046930  0.118930  0.276930  1
  C  C12  1  0.881070  0.953070  0.223070  1
  C  C13  1  0.953250  0.834830  0.715130  1
  C  C14  1  0.165170  0.046750  0.784870  1
  C  C15  1  0.046750  0.165170  0.284870  1
  C  C16  1  0.834830  0.953250  0.215130  1
  C  C17  1  0.005310  0.787330  0.708960  1
  C  C18  1  0.212670  0.994690  0.791040  1
  C  C19  1  0.994690  0.212670  0.291040  1
  C  C20  1  0.787330  0.005310  0.208960  1
  C  C21  1  0.899600  0.834760  0.714310  1
  C  C22  1  0.165240  0.100400  0.785690  1
  C  C23  1  0.100400  0.165240  0.285690  1
  C  C24  1  0.834760  0.899600  0.214310  1
  C  C25  1  0.804070  0.882250  0.714810  1
  C  C26  1  0.117750  0.195930  0.785190  1
  C  C27  1  0.195930  0.117750  0.285190  1
  C  C28  1  0.882250  0.804070  0.214810  1
  C  C29  1  0.852650  0.787450  0.712570  1
  C  C30  1  0.212550  0.147350  0.787430  1
  C  C31  1  0.147350  0.212550  0.287430  1
  C  C32  1  0.787450  0.852650  0.212570  1
  C  C33  1  0.846960  0.636160  0.713210  1
  C  C34  1  0.363840  0.153040  0.786790  1
  C  C35  1  0.153040  0.363840  0.286790  1
  C  C36  1  0.636160  0.846960  0.213210  1
  C  C37  1  0.895480  0.631400  0.719640  1
  C  C38  1  0.368600  0.104520  0.780360  1
  C  C39  1  0.104520  0.368600  0.280360  1
  C  C40  1  0.631400  0.895480  0.219640  1
  C  C41  1  0.899760  0.680640  0.719090  1
  C  C42  1  0.319360  0.100240  0.780910  1
  C  C43  1  0.100240  0.319360  0.280910  1
  C  C44  1  0.680640  0.899760  0.219090  1
  C  C45  1  0.852500  0.733300  0.712560  1
  C  C46  1  0.266700  0.147500  0.787440  1
  C  C47  1  0.147500  0.266700  0.287440  1
  C  C48  1  0.733300  0.852500  0.212560  1
  C  C49  1  0.804470  0.734150  0.706560  1
  C  C50  1  0.265850  0.195530  0.793440  1
  C  C51  1  0.195530  0.265850  0.293440  1
  C  C52  1  0.734150  0.804470  0.206560  1
  C  C53  1  0.750440  0.987720  0.709780  1
  C  C54  1  0.012280  0.249560  0.790220  1
  C  C55  1  0.249560  0.012280  0.290220  1
  C  C56  1  0.987720  0.750440  0.209780  1
  C  C57  1  0.749660  0.934860  0.716990  1
  C  C58  1  0.065140  0.250340  0.783010  1
  C  C59  1  0.250340  0.065140  0.283010  1
  C  C60  1  0.934860  0.749660  0.216990  1
  C  C61  1  0.697290  0.933610  0.725820  1
  C  C62  1  0.066390  0.302710  0.774180  1
  C  C63  1  0.302710  0.066390  0.274180  1
  C  C64  1  0.933610  0.697290  0.225820  1
  C  C65  1  0.647610  0.984950  0.727880  1
  C  C66  1  0.015050  0.352390  0.772120  1
  C  C67  1  0.352390  0.015050  0.272120  1
  C  C68  1  0.984950  0.647610  0.227880  1
  C  C69  1  0.652130  0.035350  0.720740  1
  C  C70  1  0.964650  0.347870  0.779260  1
  C  C71  1  0.347870  0.964650  0.279260  1
  C  C72  1  0.035350  0.652130  0.220740  1
  C  C73  1  0.818370  0.057010  0.739840  1
  C  C74  1  0.942990  0.181630  0.760160  1
  C  C75  1  0.181630  0.942990  0.260160  1
  C  C76  1  0.057010  0.818370  0.239840  1
  C  C77  1  0.852320  0.023980  0.764810  1
  C  C78  1  0.976020  0.147680  0.735190  1
  C  C79  1  0.147680  0.976020  0.235190  1
  C  C80  1  0.023980  0.852320  0.264810  1
  C  C81  1  0.830820  0.995800  0.795480  1
  C  C82  1  0.004200  0.169180  0.704520  1
  C  C83  1  0.169180  0.004200  0.204520  1
  C  C84  1  0.995800  0.830820  0.295480  1
  C  C85  1  0.775780  0.002820  0.800120  1
  C  C86  1  0.997180  0.224220  0.699880  1
  C  C87  1  0.224220  0.997180  0.199880  1
  C  C88  1  0.002820  0.775780  0.300120  1
  C  C89  1  0.744060  0.037540  0.773700  1
  C  C90  1  0.962460  0.255940  0.726300  1
  C  C91  1  0.255940  0.962460  0.226300  1
  C  C92  1  0.037540  0.744060  0.273700  1
  C  C93  1  0.749280  0.974660  0.831800  1
  C  C94  1  0.025340  0.250720  0.668200  1
  C  C95  1  0.250720  0.025340  0.168200  1
  C  C96  1  0.974660  0.749280  0.331800  1
  C  C97  1  0.751720  0.925220  0.887050  1
  C  C98  1  0.074780  0.248280  0.612950  1
  C  C99  1  0.248280  0.074780  0.112950  1
  C  C100  1  0.925220  0.751720  0.387050  1
  C  C101  1  0.681650  0.943550  0.860030  1
  C  C102  1  0.056450  0.318350  0.639970  1
  C  C103  1  0.318350  0.056450  0.139970  1
  C  C104  1  0.943550  0.681650  0.360030  1
  C  C105  1  0.600020  0.920900  0.891060  1
  C  C106  1  0.079100  0.399980  0.608940  1
  C  C107  1  0.399980  0.079100  0.108940  1
  C  C108  1  0.920900  0.600020  0.391060  1
  C  C109  1  0.629790  0.939410  0.859970  1
  C  C110  1  0.060590  0.370210  0.640030  1
  C  C111  1  0.370210  0.060590  0.140030  1
  C  C112  1  0.939410  0.629790  0.359970  1
  C  C113  1  0.610400  0.954080  0.828920  1
  C  C114  1  0.045920  0.389600  0.671080  1
  C  C115  1  0.389600  0.045920  0.171080  1
  C  C116  1  0.954080  0.610400  0.328920  1
  C  C117  1  0.561350  0.947790  0.831230  1
  C  C118  1  0.052210  0.438650  0.668770  1
  C  C119  1  0.438650  0.052210  0.168770  1
  C  C120  1  0.947790  0.561350  0.331230  1
  C  C121  1  0.535210  0.929530  0.862350  1
  C  C122  1  0.070470  0.464790  0.637650  1
  C  C123  1  0.464790  0.070470  0.137650  1
  C  C124  1  0.929530  0.535210  0.362350  1
  C  C125  1  0.832970  0.856130  0.974510  1
  C  C126  1  0.143870  0.167030  0.525490  1
  C  C127  1  0.167030  0.143870  0.025490  1
  C  C128  1  0.856130  0.832970  0.474510  1
  C  C129  1  0.792550  0.839470  0.974310  1
  C  C130  1  0.160530  0.207450  0.525690  1
  C  C131  1  0.207450  0.160530  0.025690  1
  C  C132  1  0.839470  0.792550  0.474310  1
  C  C133  1  0.764270  0.861730  0.946570  1
  C  C134  1  0.138270  0.235730  0.553430  1
  C  C135  1  0.235730  0.138270  0.053430  1
  C  C136  1  0.861730  0.764270  0.446570  1
  C  C137  1  0.778770  0.899370  0.918610  1
  C  C138  1  0.100630  0.221230  0.581390  1
  C  C139  1  0.221230  0.100630  0.081390  1
  C  C140  1  0.899370  0.778770  0.418610  1
  C  C141  1  0.820040  0.913460  0.920230  1
  C  C142  1  0.086540  0.179960  0.579770  1
  C  C143  1  0.179960  0.086540  0.079770  1
  C  C144  1  0.913460  0.820040  0.420230  1
  C  C145  1  0.957510  0.916870  0.863320  1
  C  C146  1  0.083130  0.042490  0.636680  1
  C  C147  1  0.042490  0.083130  0.136680  1
  C  C148  1  0.916870  0.957510  0.363320  1
  C  C149  1  0.972330  0.902370  0.831190  1
  C  C150  1  0.097630  0.027670  0.668810  1
  C  C151  1  0.027670  0.097630  0.168810  1
  C  C152  1  0.902370  0.972330  0.331190  1
  C  C153  1  0.976580  0.850100  0.829400  1
  C  C154  1  0.149900  0.023420  0.670600  1
  C  C155  1  0.023420  0.149900  0.170600  1
  C  C156  1  0.850100  0.976580  0.329400  1
  C  C157  1  0.965280  0.815300  0.859970  1
  C  C158  1  0.184700  0.034720  0.640030  1
  C  C159  1  0.034720  0.184700  0.140030  1
  C  C160  1  0.815300  0.965280  0.359970  1
  C  C161  1  0.950440  0.833520  0.892120  1
  C  C162  1  0.166480  0.049560  0.607880  1
  C  C163  1  0.049560  0.166480  0.107880  1
  C  C164  1  0.833520  0.950440  0.392120  1
  C  C165  1  0.968990  0.760110  0.859780  1
  C  C166  1  0.239890  0.031010  0.640220  1
  C  C167  1  0.031010  0.239890  0.140220  1
  C  C168  1  0.760110  0.968990  0.359780  1
  C  C169  1  0.949110  0.684730  0.886320  1
  C  C170  1  0.315270  0.050890  0.613680  1
  C  C171  1  0.050890  0.315270  0.113680  1
  C  C172  1  0.684730  0.949110  0.386320  1
  C  C173  1  0.999270  0.687510  0.831210  1
  C  C174  1  0.312490  0.000730  0.668790  1
  C  C175  1  0.000730  0.312490  0.168790  1
  C  C176  1  0.687510  0.999270  0.331210  1
  C  C177  1  0.078720  0.622040  0.737990  1
  C  C178  1  0.377960  0.921280  0.762010  1
  C  C179  1  0.921280  0.377960  0.262010  1
  C  C180  1  0.622040  0.078720  0.237990  1
  C  C181  1  0.046600  0.597960  0.763210  1
  C  C182  1  0.402040  0.953400  0.736790  1
  C  C183  1  0.953400  0.402040  0.236790  1
  C  C184  1  0.597960  0.046600  0.263210  1
  C  C185  1  0.020610  0.617830  0.794450  1
  C  C186  1  0.382170  0.979390  0.705550  1
  C  C187  1  0.979390  0.382170  0.205550  1
  C  C188  1  0.617830  0.020610  0.294450  1
  C  C189  1  0.027530  0.662630  0.798780  1
  C  C190  1  0.337370  0.972470  0.701220  1
  C  C191  1  0.972470  0.337370  0.201220  1
  C  C192  1  0.662630  0.027530  0.298780  1
  C  C193  1  0.059870  0.684790  0.771980  1
  C  C194  1  0.315210  0.940130  0.728020  1
  C  C195  1  0.940130  0.315210  0.228020  1
  C  C196  1  0.684790  0.059870  0.271980  1
  C  C197  1  0.936180  0.597440  0.918770  1
  C  C198  1  0.402560  0.063820  0.581230  1
  C  C199  1  0.063820  0.402560  0.081230  1
  C  C200  1  0.597440  0.936180  0.418770  1
  C  C201  1  0.922680  0.654660  0.917170  1
  C  C202  1  0.345340  0.077320  0.582830  1
  C  C203  1  0.077320  0.345340  0.082830  1
  C  C204  1  0.654660  0.922680  0.417170  1
  C  C205  1  0.883410  0.682010  0.945090  1
  C  C206  1  0.317990  0.116590  0.554910  1
  C  C207  1  0.116590  0.317990  0.054910  1
  C  C208  1  0.682010  0.883410  0.445090  1
  C  C209  1  0.859660  0.650840  0.972320  1
  C  C210  1  0.349160  0.140340  0.527680  1
  C  C211  1  0.140340  0.349160  0.027680  1
  C  C212  1  0.650840  0.859660  0.472320  1
  C  C213  1  0.875010  0.595070  0.971630  1
  C  C214  1  0.404930  0.124990  0.528370  1
  C  C215  1  0.124990  0.404930  0.028370  1
  C  C216  1  0.595070  0.875010  0.471630  1
  C  C217  1  0.943350  0.509070  0.859360  1
  C  C218  1  0.490930  0.056650  0.640640  1
  C  C219  1  0.056650  0.490930  0.140640  1
  C  C220  1  0.509070  0.943350  0.359360  1
  C  C221  1  0.928110  0.536150  0.827210  1
  C  C222  1  0.463850  0.071890  0.672790  1
  C  C223  1  0.071890  0.463850  0.172790  1
  C  C224  1  0.536150  0.928110  0.327210  1
  C  C225  1  0.874930  0.583530  0.825110  1
  C  C226  1  0.416470  0.125070  0.674890  1
  C  C227  1  0.125070  0.416470  0.174890  1
  C  C228  1  0.583530  0.874930  0.325110  1
  C  C229  1  0.839350  0.601310  0.856200  1
  C  C230  1  0.398690  0.160650  0.643800  1
  C  C231  1  0.160650  0.398690  0.143800  1
  C  C232  1  0.601310  0.839350  0.356200  1
  C  C233  1  0.858020  0.570880  0.887530  1
  C  C234  1  0.429120  0.141980  0.612470  1
  C  C235  1  0.141980  0.429120  0.112470  1
  C  C236  1  0.570880  0.858020  0.387530  1
  C  C237  1  0.783700  0.652780  0.856320  1
  C  C238  1  0.347220  0.216300  0.643680  1
  C  C239  1  0.216300  0.347220  0.143680  1
  C  C240  1  0.652780  0.783700  0.356320  1
  C  C241  1  0.709680  0.720580  0.884660  1
  C  C242  1  0.279420  0.290320  0.615340  1
  C  C243  1  0.290320  0.279420  0.115340  1
  C  C244  1  0.720580  0.709680  0.384660  1
  C  C245  1  0.712250  0.722930  0.828300  1
  C  C246  1  0.277070  0.287750  0.671700  1
  C  C247  1  0.287750  0.277070  0.171700  1
  C  C248  1  0.722930  0.712250  0.328300  1
  C  C249  1  0.624810  0.788810  0.918780  1
  C  C250  1  0.211190  0.375190  0.581220  1
  C  C251  1  0.375190  0.211190  0.081220  1
  C  C252  1  0.788810  0.624810  0.418780  1
  C  C253  1  0.680650  0.746490  0.916750  1
  C  C254  1  0.253510  0.319350  0.583250  1
  C  C255  1  0.319350  0.253510  0.083250  1
  C  C256  1  0.746490  0.680650  0.416750  1
  C  C257  1  0.708140  0.730580  0.944680  1
  C  C258  1  0.269420  0.291860  0.555320  1
  C  C259  1  0.291860  0.269420  0.055320  1
  C  C260  1  0.730580  0.708140  0.444680  1
  C  C261  1  0.678870  0.756950  0.973190  1
  C  C262  1  0.243050  0.321130  0.526810  1
  C  C263  1  0.321130  0.243050  0.026810  1
  C  C264  1  0.756950  0.678870  0.473190  1
  C  C265  1  0.622400  0.799920  0.972610  1
  C  C266  1  0.200080  0.377600  0.527390  1
  C  C267  1  0.377600  0.200080  0.027390  1
  C  C268  1  0.799920  0.622400  0.472610  1
  C  C269  1  0.705430  0.721530  0.769420  1
  C  C270  1  0.278470  0.294570  0.730580  1
  C  C271  1  0.294570  0.278470  0.230580  1
  C  C272  1  0.721530  0.705430  0.269420  1
  C  C273  1  0.685550  0.750890  0.796640  1
  C  C274  1  0.249110  0.314450  0.703360  1
  C  C275  1  0.314450  0.249110  0.203360  1
  C  C276  1  0.750890  0.685550  0.296640  1
  C  C277  1  0.640500  0.805600  0.793960  1
  C  C278  1  0.194400  0.359500  0.706040  1
  C  C279  1  0.359500  0.194400  0.206040  1
  C  C280  1  0.805600  0.640500  0.293960  1
  C  C281  1  0.617510  0.829170  0.763410  1
  C  C282  1  0.170830  0.382490  0.736590  1
  C  C283  1  0.382490  0.170830  0.236590  1
  C  C284  1  0.829170  0.617510  0.263410  1
  C  C285  1  0.640230  0.797530  0.737420  1
  C  C286  1  0.202470  0.359770  0.762580  1
  C  C287  1  0.359770  0.202470  0.262580  1
  C  C288  1  0.797530  0.640230  0.237420  1
  C  C289  1  0.758680  0.571820  0.708530  1
  C  C290  1  0.428180  0.241320  0.791470  1
  C  C291  1  0.241320  0.428180  0.291470  1
  C  C292  1  0.571820  0.758680  0.208530  1
  C  C293  1  0.765130  0.594570  0.670160  1
  C  C294  1  0.405430  0.234870  0.829840  1
  C  C295  1  0.234870  0.405430  0.329840  1
  C  C296  1  0.594570  0.765130  0.170160  1
  C  C297  1  0.767370  0.678770  0.625930  1
  C  C298  1  0.321230  0.232630  0.874070  1
  C  C299  1  0.232630  0.321230  0.374070  1
  C  C300  1  0.678770  0.767370  0.125930  1
  C  C301  1  0.763040  0.735540  0.625400  1
  C  C302  1  0.264460  0.236960  0.874600  1
  C  C303  1  0.236960  0.264460  0.374600  1
  C  C304  1  0.735540  0.763040  0.125400  1
  C  C305  1  0.656210  0.788610  0.645660  1
  C  C306  1  0.211390  0.343790  0.854340  1
  C  C307  1  0.343790  0.211390  0.354340  1
  C  C308  1  0.788610  0.656210  0.145660  1
  C  C309  1  0.629940  0.747460  0.660650  1
  C  C310  1  0.252540  0.370060  0.839350  1
  C  C311  1  0.370060  0.252540  0.339350  1
  C  C312  1  0.747460  0.629940  0.160650  1
  C  C313  1  0.630560  0.666760  0.708020  1
  C  C314  1  0.333240  0.369440  0.791980  1
  C  C315  1  0.369440  0.333240  0.291980  1
  C  C316  1  0.666760  0.630560  0.208020  1
  C  C317  1  0.659460  0.631540  0.738890  1
  C  C318  1  0.368460  0.340540  0.761110  1
  C  C319  1  0.340540  0.368460  0.261110  1
  C  C320  1  0.631540  0.659460  0.238890  1
  C  C321  1  0.049070  0.397050  0.914390  1
  C  C322  1  0.602950  0.950930  0.585610  1
  C  C323  1  0.950930  0.602950  0.085610  1
  C  C324  1  0.397050  0.049070  0.414390  1
  C  C325  1  0.012710  0.366130  0.931590  1
  C  C326  1  0.633870  0.987290  0.568410  1
  C  C327  1  0.987290  0.633870  0.068410  1
  C  C328  1  0.366130  0.012710  0.431590  1
  C  C329  1  0.909100  0.387260  0.951590  1
  C  C330  1  0.612740  0.090900  0.548410  1
  C  C331  1  0.090900  0.612740  0.048410  1
  C  C332  1  0.387260  0.909100  0.451590  1
  C  C333  1  0.851640  0.437860  0.954520  1
  C  C334  1  0.562140  0.148360  0.545480  1
  C  C335  1  0.148360  0.562140  0.045480  1
  C  C336  1  0.437860  0.851640  0.454520  1
  C  C337  1  0.854490  0.468750  0.005780  1
  C  C338  1  0.531250  0.145510  0.494220  1
  C  C339  1  0.145510  0.531250  0.994220  1
  C  C340  1  0.468750  0.854490  0.505780  1
  C  C341  1  0.912770  0.445070  0.013100  1
  C  C342  1  0.554930  0.087230  0.486900  1
  C  C343  1  0.087230  0.554930  0.986900  1
  C  C344  1  0.445070  0.912770  0.513100  1
  C  C345  1  0.010980  0.428260  0.990340  1
  C  C346  1  0.571740  0.989020  0.509660  1
  C  C347  1  0.989020  0.571740  0.009660  1
  C  C348  1  0.428260  0.010980  0.490340  1
  C  C349  1  0.044330  0.448790  0.957460  1
  C  C350  1  0.551210  0.955670  0.542540  1
  C  C351  1  0.955670  0.551210  0.042540  1
  C  C352  1  0.448790  0.044330  0.457460  1
  C  C353  1  0.208320  0.741680  0.716220  1
  C  C354  1  0.258320  0.791680  0.783780  1
  C  C355  1  0.791680  0.258320  0.283780  1
  C  C356  1  0.741680  0.208320  0.216220  1
  C  C357  1  0.216000  0.750000  0.677580  1
  C  C358  1  0.250000  0.784000  0.822420  1
  C  C359  1  0.784000  0.250000  0.322420  1
  C  C360  1  0.750000  0.216000  0.177580  1
  C  C361  1  0.172920  0.751120  0.630680  1
  C  C362  1  0.248880  0.827080  0.869320  1
  C  C363  1  0.827080  0.248880  0.369320  1
  C  C364  1  0.751120  0.172920  0.130680  1
  C  C365  1  0.122250  0.745770  0.628870  1
  C  C366  1  0.254230  0.877750  0.871130  1
  C  C367  1  0.877750  0.254230  0.371130  1
  C  C368  1  0.745770  0.122250  0.128870  1
  C  C369  1  0.157540  0.639580  0.648470  1
  C  C370  1  0.360420  0.842460  0.851530  1
  C  C371  1  0.842460  0.360420  0.351530  1
  C  C372  1  0.639580  0.157540  0.148470  1
  C  C373  1  0.208840  0.613200  0.665000  1
  C  C374  1  0.386800  0.791160  0.835000  1
  C  C375  1  0.791160  0.386800  0.335000  1
  C  C376  1  0.613200  0.208840  0.165000  1
  C  C377  1  0.244410  0.614410  0.713210  1
  C  C378  1  0.385590  0.755590  0.786790  1
  C  C379  1  0.755590  0.385590  0.286790  1
  C  C380  1  0.614410  0.244410  0.213210  1
  C  C381  1  0.220610  0.642470  0.744860  1
  C  C382  1  0.357530  0.779390  0.755140  1
  C  C383  1  0.779390  0.357530  0.255140  1
  C  C384  1  0.642470  0.220610  0.244860  1
  C  C385  1  0.799580  0.140920  0.650420  1
  C  C386  1  0.859080  0.200420  0.849580  1
  C  C387  1  0.200420  0.859080  0.349580  1
  C  C388  1  0.140920  0.799580  0.150420  1
  C  C389  1  0.760060  0.191960  0.668300  1
  C  C390  1  0.808040  0.239940  0.831700  1
  C  C391  1  0.239940  0.808040  0.331700  1
  C  C392  1  0.191960  0.760060  0.168300  1
  C  C393  1  0.683320  0.224760  0.718310  1
  C  C394  1  0.775240  0.316680  0.781690  1
  C  C395  1  0.316680  0.775240  0.281690  1
  C  C396  1  0.224760  0.683320  0.218310  1
  C  C397  1  0.651310  0.198710  0.750230  1
  C  C398  1  0.801290  0.348690  0.749770  1
  C  C399  1  0.348690  0.801290  0.249770  1
  C  C400  1  0.198710  0.651310  0.250230  1
  C  C401  1  0.587750  0.189230  0.722270  1
  C  C402  1  0.810770  0.412250  0.777730  1
  C  C403  1  0.412250  0.810770  0.277730  1
  C  C404  1  0.189230  0.587750  0.222270  1
  C  C405  1  0.605320  0.199920  0.682830  1
  C  C406  1  0.800080  0.394680  0.817170  1
  C  C407  1  0.394680  0.800080  0.317170  1
  C  C408  1  0.199920  0.605320  0.182830  1
  C  C409  1  0.684620  0.159620  0.634980  1
  C  C410  1  0.840380  0.315380  0.865020  1
  C  C411  1  0.315380  0.840380  0.365020  1
  C  C412  1  0.159620  0.684620  0.134980  1
  C  C413  1  0.742520  0.110620  0.630480  1
  C  C414  1  0.889380  0.257480  0.869520  1
  C  C415  1  0.257480  0.889380  0.369520  1
  C  C416  1  0.110620  0.742520  0.130480  1
  C  C417  1  0.914660  0.024160  0.913370  1
  C  C418  1  0.975840  0.085340  0.586630  1
  C  C419  1  0.085340  0.975840  0.086630  1
  C  C420  1  0.024160  0.914660  0.413370  1
  C  C421  1  0.967470  0.986870  0.929300  1
  C  C422  1  0.013130  0.032530  0.570700  1
  C  C423  1  0.032530  0.013130  0.070700  1
  C  C424  1  0.986870  0.967470  0.429300  1
  C  C425  1  0.027990  0.886230  0.953400  1
  C  C426  1  0.113770  0.972010  0.546600  1
  C  C427  1  0.972010  0.113770  0.046600  1
  C  C428  1  0.886230  0.027990  0.453400  1
  C  C429  1  0.028960  0.829540  0.958790  1
  C  C430  1  0.170460  0.971040  0.541210  1
  C  C431  1  0.971040  0.170460  0.041210  1
  C  C432  1  0.829540  0.028960  0.458790  1
  C  C433  1  0.949900  0.834300  0.010140  1
  C  C434  1  0.165700  0.050100  0.489860  1
  C  C435  1  0.050100  0.165700  0.989860  1
  C  C436  1  0.834300  0.949900  0.510140  1
  C  C437  1  0.914920  0.893720  0.016480  1
  C  C438  1  0.106280  0.085080  0.483520  1
  C  C439  1  0.085080  0.106280  0.983520  1
  C  C440  1  0.893720  0.914920  0.516480  1
  C  C441  1  0.854550  0.993290  0.989740  1
  C  C442  1  0.006710  0.145450  0.510260  1
  C  C443  1  0.145450  0.006710  0.010260  1
  C  C444  1  0.993290  0.854550  0.489740  1
  C  C445  1  0.828700  0.022840  0.957600  1
  C  C446  1  0.977160  0.171300  0.542400  1
  C  C447  1  0.171300  0.977160  0.042400  1
  C  C448  1  0.022840  0.828700  0.457600  1
  C  C449  1  0.426900  0.879860  0.913270  1
  C  C450  1  0.120140  0.573100  0.586730  1
  C  C451  1  0.573100  0.120140  0.086730  1
  C  C452  1  0.879860  0.426900  0.413270  1
  C  C453  1  0.397840  0.933040  0.928970  1
  C  C454  1  0.066960  0.602160  0.571030  1
  C  C455  1  0.602160  0.066960  0.071030  1
  C  C456  1  0.933040  0.397840  0.428970  1
  C  C457  1  0.416460  0.995800  0.951440  1
  C  C458  1  0.004200  0.583540  0.548560  1
  C  C459  1  0.583540  0.004200  0.048560  1
  C  C460  1  0.995800  0.416460  0.451440  1
  C  C461  1  0.467800  0.996760  0.956630  1
  C  C462  1  0.003240  0.532200  0.543370  1
  C  C463  1  0.532200  0.003240  0.043370  1
  C  C464  1  0.996760  0.467800  0.456630  1
  C  C465  1  0.493230  0.918670  0.008430  1
  C  C466  1  0.081330  0.506770  0.491570  1
  C  C467  1  0.506770  0.081330  0.991570  1
  C  C468  1  0.918670  0.493230  0.508430  1
  C  C469  1  0.462930  0.883730  0.014730  1
  C  C470  1  0.116270  0.537070  0.485270  1
  C  C471  1  0.537070  0.116270  0.985270  1
  C  C472  1  0.883730  0.462930  0.514730  1
  C  C473  1  0.452010  0.818210  0.989210  1
  C  C474  1  0.181790  0.547990  0.510790  1
  C  C475  1  0.547990  0.181790  0.010790  1
  C  C476  1  0.818210  0.452010  0.489210  1
  C  C477  1  0.477400  0.792980  0.956810  1
  C  C478  1  0.207020  0.522600  0.543190  1
  C  C479  1  0.522600  0.207020  0.043190  1
  C  C480  1  0.792980  0.477400  0.456810  1
  C  C481  1  0.853300  0.744100  0.809600  1
  C  C482  1  0.255900  0.146700  0.690400  1
  C  C483  1  0.146700  0.255900  0.190400  1
  C  C484  1  0.744100  0.853300  0.309600  1
  C  C485  1  0.838100  0.735300  0.847200  1
  C  C486  1  0.264700  0.161900  0.652800  1
  C  C487  1  0.161900  0.264700  0.152800  1
  C  C488  1  0.735300  0.838100  0.347200  1
  C  C489  1  0.864900  0.790500  0.800600  1
  C  C490  1  0.209500  0.135100  0.699400  1
  C  C491  1  0.135100  0.209500  0.199400  1
  C  C492  1  0.790500  0.864900  0.300600  1
  C  C493  1  0.832400  0.824400  0.831000  1
  C  C494  1  0.175600  0.167600  0.669000  1
  C  C495  1  0.167600  0.175600  0.169000  1
  C  C496  1  0.824400  0.832400  0.331000  1
  Cl  Cl497  1  0.239250  0.274390  0.959330  1
  Cl  Cl498  1  0.725610  0.760750  0.540670  1
  Cl  Cl499  1  0.760750  0.725610  0.040670  1
  Cl  Cl500  1  0.274390  0.239250  0.459330  1
  Cl  Cl501  1  0.338210  0.154470  0.965530  1
  Cl  Cl502  1  0.845530  0.661790  0.534470  1
  Cl  Cl503  1  0.661790  0.845530  0.034470  1
  Cl  Cl504  1  0.154470  0.338210  0.465530  1
  Cl  Cl505  1  0.005280  0.994720  0.750000  1
  Cl  Cl506  1  0.994720  0.005280  0.250000  1
  Cl  Cl507  1  0.898350  0.991310  0.648450  1
  Cl  Cl508  1  0.008690  0.101650  0.851550  1
  Cl  Cl509  1  0.101650  0.008690  0.351550  1
  Cl  Cl510  1  0.991310  0.898350  0.148450  1
  Cl  Cl511  1  0.017980  0.491500  0.747230  1
  Cl  Cl512  1  0.508500  0.982020  0.752770  1
  Cl  Cl513  1  0.982020  0.508500  0.252770  1
  Cl  Cl514  1  0.491500  0.017980  0.247230  1
  Cl  Cl515  1  0.976350  0.711710  0.973780  1
  Cl  Cl516  1  0.288290  0.023650  0.526220  1
  Cl  Cl517  1  0.023650  0.288290  0.026220  1
  Cl  Cl518  1  0.711710  0.976350  0.473780  1
  Cl  Cl519  1  0.624490  0.934970  0.971720  1
  Cl  Cl520  1  0.065030  0.375510  0.528280  1
  Cl  Cl521  1  0.375510  0.065030  0.028280  1
  Cl  Cl522  1  0.934970  0.624490  0.471720  1
  Cl  Cl523  1  0.006670  0.687990  0.646950  1
  Cl  Cl524  1  0.312010  0.993330  0.853050  1
  Cl  Cl525  1  0.993330  0.312010  0.353050  1
  Cl  Cl526  1  0.687990  0.006670  0.146950  1
  H  H527  1  0.089800  0.826600  0.719600  1
  H  H528  1  0.173400  0.910200  0.780400  1
  H  H529  1  0.910200  0.173400  0.280400  1
  H  H530  1  0.826600  0.089800  0.219600  1
  H  H531  1  0.004900  0.908500  0.730500  1
  H  H532  1  0.091500  0.995100  0.769500  1
  H  H533  1  0.995100  0.091500  0.269500  1
  H  H534  1  0.908500  0.004900  0.230500  1
  H  H535  1  0.918100  0.914500  0.727200  1
  H  H536  1  0.085500  0.081900  0.772800  1
  H  H537  1  0.081900  0.085500  0.272800  1
  H  H538  1  0.914500  0.918100  0.227200  1
  H  H539  1  0.005300  0.755700  0.703800  1
  H  H540  1  0.244300  0.994700  0.796200  1
  H  H541  1  0.994700  0.244300  0.296200  1
  H  H542  1  0.755700  0.005300  0.203800  1
  H  H543  1  0.845200  0.602000  0.713700  1
  H  H544  1  0.398000  0.154800  0.786300  1
  H  H545  1  0.154800  0.398000  0.286300  1
  H  H546  1  0.602000  0.845200  0.213700  1
  H  H547  1  0.926400  0.594600  0.724500  1
  H  H548  1  0.405400  0.073600  0.775500  1
  H  H549  1  0.073600  0.405400  0.275500  1
  H  H550  1  0.594600  0.926400  0.224500  1
  H  H551  1  0.933500  0.678300  0.723000  1
  H  H552  1  0.321700  0.066500  0.777000  1
  H  H553  1  0.066500  0.321700  0.277000  1
  H  H554  1  0.678300  0.933500  0.223000  1
  H  H555  1  0.772200  0.770200  0.702500  1
  H  H556  1  0.229800  0.227800  0.797500  1
  H  H557  1  0.227800  0.229800  0.297500  1
  H  H558  1  0.770200  0.772200  0.202500  1
  H  H559  1  0.786600  0.988400  0.703000  1
  H  H560  1  0.011600  0.213400  0.797000  1
  H  H561  1  0.213400  0.011600  0.297000  1
  H  H562  1  0.988400  0.786600  0.203000  1
  H  H563  1  0.695300  0.898300  0.730400  1
  H  H564  1  0.101700  0.304700  0.769600  1
  H  H565  1  0.304700  0.101700  0.269600  1
  H  H566  1  0.898300  0.695300  0.230400  1
  H  H567  1  0.610900  0.985300  0.734100  1
  H  H568  1  0.014700  0.389100  0.765900  1
  H  H569  1  0.389100  0.014700  0.265900  1
  H  H570  1  0.985300  0.610900  0.234100  1
  H  H571  1  0.617900  0.070300  0.722100  1
  H  H572  1  0.929700  0.382100  0.777900  1
  H  H573  1  0.382100  0.929700  0.277900  1
  H  H574  1  0.070300  0.617900  0.222100  1
  H  H575  1  0.834100  0.075100  0.718700  1
  H  H576  1  0.924900  0.165900  0.781300  1
  H  H577  1  0.165900  0.924900  0.281300  1
  H  H578  1  0.075100  0.834100  0.218700  1
  H  H579  1  0.889900  0.020500  0.761100  1
  H  H580  1  0.979500  0.110100  0.738900  1
  H  H581  1  0.110100  0.979500  0.238900  1
  H  H582  1  0.020500  0.889900  0.261100  1
  H  H583  1  0.853700  0.972100  0.813000  1
  H  H584  1  0.027900  0.146300  0.687000  1
  H  H585  1  0.146300  0.027900  0.187000  1
  H  H586  1  0.972100  0.853700  0.313000  1
  H  H587  1  0.706100  0.042100  0.777000  1
  H  H588  1  0.957900  0.293900  0.723000  1
  H  H589  1  0.293900  0.957900  0.223000  1
  H  H590  1  0.042100  0.706100  0.277000  1
  H  H591  1  0.613600  0.911600  0.912100  1
  H  H592  1  0.088400  0.386400  0.587900  1
  H  H593  1  0.386400  0.088400  0.087900  1
  H  H594  1  0.911600  0.613600  0.412100  1
  H  H595  1  0.629300  0.967700  0.807200  1
  H  H596  1  0.032300  0.370700  0.692800  1
  H  H597  1  0.370700  0.032300  0.192800  1
  H  H598  1  0.967700  0.629300  0.307200  1
  H  H599  1  0.546700  0.956500  0.810700  1
  H  H600  1  0.043500  0.453300  0.689300  1
  H  H601  1  0.453300  0.043500  0.189300  1
  H  H602  1  0.956500  0.546700  0.310700  1
  H  H603  1  0.501900  0.926300  0.862900  1
  H  H604  1  0.073700  0.498100  0.637100  1
  H  H605  1  0.498100  0.073700  0.137100  1
  H  H606  1  0.926300  0.501900  0.362900  1
  H  H607  1  0.850700  0.841700  0.994500  1
  H  H608  1  0.158300  0.149300  0.505500  1
  H  H609  1  0.149300  0.158300  0.005500  1
  H  H610  1  0.841700  0.850700  0.494500  1
  H  H611  1  0.784500  0.812700  0.993400  1
  H  H612  1  0.187300  0.215500  0.506600  1
  H  H613  1  0.215500  0.187300  0.006600  1
  H  H614  1  0.812700  0.784500  0.493400  1
  H  H615  1  0.735500  0.851700  0.946500  1
  H  H616  1  0.148300  0.264500  0.553500  1
  H  H617  1  0.264500  0.148300  0.053500  1
  H  H618  1  0.851700  0.735500  0.446500  1
  H  H619  1  0.829300  0.939700  0.901200  1
  H  H620  1  0.060300  0.170700  0.598800  1
  H  H621  1  0.170700  0.060300  0.098800  1
  H  H622  1  0.939700  0.829300  0.401200  1
  H  H623  1  0.954900  0.952500  0.864200  1
  H  H624  1  0.047500  0.045100  0.635800  1
  H  H625  1  0.045100  0.047500  0.135800  1
  H  H626  1  0.952500  0.954900  0.364200  1
  H  H627  1  0.979600  0.927400  0.810500  1
  H  H628  1  0.072600  0.020400  0.689500  1
  H  H629  1  0.020400  0.072600  0.189500  1
  H  H630  1  0.927400  0.979600  0.310500  1
  H  H631  1  0.987100  0.838700  0.807400  1
  H  H632  1  0.161300  0.012900  0.692600  1
  H  H633  1  0.012900  0.161300  0.192600  1
  H  H634  1  0.838700  0.987100  0.307400  1
  H  H635  1  0.943000  0.809400  0.913300  1
  H  H636  1  0.190600  0.057000  0.586700  1
  H  H637  1  0.057000  0.190600  0.086700  1
  H  H638  1  0.809400  0.943000  0.413300  1
  H  H639  1  0.096800  0.607200  0.716900  1
  H  H640  1  0.392800  0.903200  0.783100  1
  H  H641  1  0.903200  0.392800  0.283100  1
  H  H642  1  0.607200  0.096800  0.216900  1
  H  H643  1  0.042300  0.567900  0.759200  1
  H  H644  1  0.432100  0.957700  0.740800  1
  H  H645  1  0.957700  0.432100  0.240800  1
  H  H646  1  0.567900  0.042300  0.259200  1
  H  H647  1  0.998600  0.601400  0.812500  1
  H  H648  1  0.398600  0.001400  0.687500  1
  H  H649  1  0.001400  0.398600  0.187500  1
  H  H650  1  0.601400  0.998600  0.312500  1
  H  H651  1  0.064100  0.715500  0.775100  1
  H  H652  1  0.284500  0.935900  0.724900  1
  H  H653  1  0.935900  0.284500  0.224900  1
  H  H654  1  0.715500  0.064100  0.275100  1
  H  H655  1  0.963200  0.579000  0.900000  1
  H  H656  1  0.421000  0.036800  0.600000  1
  H  H657  1  0.036800  0.421000  0.100000  1
  H  H658  1  0.579000  0.963200  0.400000  1
  H  H659  1  0.873600  0.720600  0.945300  1
  H  H660  1  0.279400  0.126400  0.554700  1
  H  H661  1  0.126400  0.279400  0.054700  1
  H  H662  1  0.720600  0.873600  0.445300  1
  H  H663  1  0.832700  0.668100  0.991500  1
  H  H664  1  0.331900  0.167300  0.508500  1
  H  H665  1  0.167300  0.331900  0.008500  1
  H  H666  1  0.668100  0.832700  0.491500  1
  H  H667  1  0.858200  0.574600  0.990600  1
  H  H668  1  0.425400  0.141800  0.509400  1
  H  H669  1  0.141800  0.425400  0.009400  1
  H  H670  1  0.574600  0.858200  0.490600  1
  H  H671  1  0.980300  0.477500  0.860200  1
  H  H672  1  0.522500  0.019700  0.639800  1
  H  H673  1  0.019700  0.522500  0.139800  1
  H  H674  1  0.477500  0.980300  0.360200  1
  H  H675  1  0.953500  0.522700  0.806600  1
  H  H676  1  0.477300  0.046500  0.693400  1
  H  H677  1  0.046500  0.477300  0.193400  1
  H  H678  1  0.522700  0.953500  0.306600  1
  H  H679  1  0.863200  0.603200  0.803100  1
  H  H680  1  0.396800  0.136800  0.696900  1
  H  H681  1  0.136800  0.396800  0.196900  1
  H  H682  1  0.603200  0.863200  0.303100  1
  H  H683  1  0.833500  0.583300  0.908600  1
  H  H684  1  0.416700  0.166500  0.591400  1
  H  H685  1  0.166500  0.416700  0.091400  1
  H  H686  1  0.583300  0.833500  0.408600  1
  H  H687  1  0.606200  0.799600  0.899600  1
  H  H688  1  0.200400  0.393800  0.600400  1
  H  H689  1  0.393800  0.200400  0.100400  1
  H  H690  1  0.799600  0.606200  0.399600  1
  H  H691  1  0.746800  0.701800  0.944000  1
  H  H692  1  0.298200  0.253200  0.556000  1
  H  H693  1  0.253200  0.298200  0.056000  1
  H  H694  1  0.701800  0.746800  0.444000  1
  H  H695  1  0.696400  0.746400  0.992800  1
  H  H696  1  0.253600  0.303600  0.507200  1
  H  H697  1  0.303600  0.253600  0.007200  1
  H  H698  1  0.746400  0.696400  0.492800  1
  H  H699  1  0.602500  0.818900  0.992100  1
  H  H700  1  0.181100  0.397500  0.507900  1
  H  H701  1  0.397500  0.181100  0.007900  1
  H  H702  1  0.818900  0.602500  0.492100  1
  H  H703  1  0.735700  0.683700  0.771900  1
  H  H704  1  0.316300  0.264300  0.728100  1
  H  H705  1  0.264300  0.316300  0.228100  1
  H  H706  1  0.683700  0.735700  0.271900  1
  H  H707  1  0.625700  0.826500  0.812500  1
  H  H708  1  0.173500  0.374300  0.687500  1
  H  H709  1  0.374300  0.173500  0.187500  1
  H  H710  1  0.826500  0.625700  0.312500  1
  H  H711  1  0.586600  0.866600  0.760700  1
  H  H712  1  0.133400  0.413400  0.739300  1
  H  H713  1  0.413400  0.133400  0.239300  1
  H  H714  1  0.866600  0.586600  0.260700  1
  H  H715  1  0.624400  0.814200  0.716600  1
  H  H716  1  0.185800  0.375600  0.783400  1
  H  H717  1  0.375600  0.185800  0.283400  1
  H  H718  1  0.814200  0.624400  0.216600  1
  H  H719  1  0.797200  0.550000  0.715100  1
  H  H720  1  0.450000  0.202800  0.784900  1
  H  H721  1  0.202800  0.450000  0.284900  1
  H  H722  1  0.550000  0.797200  0.215100  1
  H  H723  1  0.741600  0.545000  0.714100  1
  H  H724  1  0.455000  0.258400  0.785900  1
  H  H725  1  0.258400  0.455000  0.285900  1
  H  H726  1  0.545000  0.741600  0.214100  1
  H  H727  1  0.767800  0.575000  0.653400  1
  H  H728  1  0.425000  0.232200  0.846600  1
  H  H729  1  0.232200  0.425000  0.346600  1
  H  H730  1  0.575000  0.767800  0.153400  1
  H  H731  1  0.734700  0.684300  0.616900  1
  H  H732  1  0.315700  0.265300  0.883100  1
  H  H733  1  0.265300  0.315700  0.383100  1
  H  H734  1  0.684300  0.734700  0.116900  1
  H  H735  1  0.803300  0.657300  0.610500  1
  H  H736  1  0.342700  0.196700  0.889500  1
  H  H737  1  0.196700  0.342700  0.389500  1
  H  H738  1  0.657300  0.803300  0.110500  1
  H  H739  1  0.755100  0.760700  0.602400  1
  H  H740  1  0.239300  0.244900  0.897600  1
  H  H741  1  0.244900  0.239300  0.397600  1
  H  H742  1  0.760700  0.755100  0.102400  1
  H  H743  1  0.799900  0.730500  0.628600  1
  H  H744  1  0.269500  0.200100  0.871400  1
  H  H745  1  0.200100  0.269500  0.371400  1
  H  H746  1  0.730500  0.799900  0.128600  1
  H  H747  1  0.631000  0.824400  0.655200  1
  H  H748  1  0.175600  0.369000  0.844800  1
  H  H749  1  0.369000  0.175600  0.344800  1
  H  H750  1  0.824400  0.631000  0.155200  1
  H  H751  1  0.659100  0.798500  0.619900  1
  H  H752  1  0.201500  0.340900  0.880100  1
  H  H753  1  0.340900  0.201500  0.380100  1
  H  H754  1  0.798500  0.659100  0.119900  1
  H  H755  1  0.587700  0.769900  0.665700  1
  H  H756  1  0.230100  0.412300  0.834300  1
  H  H757  1  0.412300  0.230100  0.334300  1
  H  H758  1  0.769900  0.587700  0.165700  1
  H  H759  1  0.639300  0.724900  0.642700  1
  H  H760  1  0.275100  0.360700  0.857300  1
  H  H761  1  0.360700  0.275100  0.357300  1
  H  H762  1  0.724900  0.639300  0.142700  1
  H  H763  1  0.640300  0.641700  0.691500  1
  H  H764  1  0.358300  0.359700  0.808500  1
  H  H765  1  0.359700  0.358300  0.308500  1
  H  H766  1  0.641700  0.640300  0.191500  1
  H  H767  1  0.588400  0.684400  0.716000  1
  H  H768  1  0.315600  0.411600  0.784000  1
  H  H769  1  0.411600  0.315600  0.284000  1
  H  H770  1  0.684400  0.588400  0.216000  1
  H  H771  1  0.639800  0.652400  0.758800  1
  H  H772  1  0.347600  0.360200  0.741200  1
  H  H773  1  0.360200  0.347600  0.241200  1
  H  H774  1  0.652400  0.639800  0.258800  1
  H  H775  1  0.656400  0.595000  0.746200  1
  H  H776  1  0.405000  0.343600  0.753800  1
  H  H777  1  0.343600  0.405000  0.253800  1
  H  H778  1  0.595000  0.656400  0.246200  1
  H  H779  1  0.053000  0.403600  0.888600  1
  H  H780  1  0.596400  0.947000  0.611400  1
  H  H781  1  0.947000  0.596400  0.111400  1
  H  H782  1  0.403600  0.053000  0.388600  1
  H  H783  1  0.087800  0.372600  0.920300  1
  H  H784  1  0.627400  0.912200  0.579700  1
  H  H785  1  0.912200  0.627400  0.079700  1
  H  H786  1  0.372600  0.087800  0.420300  1
  H  H787  1  0.024700  0.334700  0.919200  1
  H  H788  1  0.665300  0.975300  0.580800  1
  H  H789  1  0.975300  0.665300  0.080800  1
  H  H790  1  0.334700  0.024700  0.419200  1
  H  H791  1  0.018000  0.349000  0.956200  1
  H  H792  1  0.651000  0.982000  0.543800  1
  H  H793  1  0.982000  0.651000  0.043800  1
  H  H794  1  0.349000  0.018000  0.456200  1
  H  H795  1  0.918300  0.367500  0.975300  1
  H  H796  1  0.632500  0.081700  0.524700  1
  H  H797  1  0.081700  0.632500  0.024700  1
  H  H798  1  0.367500  0.918300  0.475300  1
  H  H799  1  0.908700  0.359900  0.940400  1
  H  H800  1  0.640100  0.091300  0.559600  1
  H  H801  1  0.091300  0.640100  0.059600  1
  H  H802  1  0.359900  0.908700  0.440400  1
  H  H803  1  0.823000  0.425600  0.971000  1
  H  H804  1  0.574400  0.177000  0.529000  1
  H  H805  1  0.177000  0.574400  0.029000  1
  H  H806  1  0.425600  0.823000  0.471000  1
  H  H807  1  0.839900  0.453900  0.931300  1
  H  H808  1  0.546100  0.160100  0.568700  1
  H  H809  1  0.160100  0.546100  0.068700  1
  H  H810  1  0.453900  0.839900  0.431300  1
  H  H811  1  0.829100  0.503700  0.016200  1
  H  H812  1  0.496300  0.170900  0.483800  1
  H  H813  1  0.170900  0.496300  0.983800  1
  H  H814  1  0.503700  0.829100  0.516200  1
  H  H815  1  0.839200  0.440400  0.017300  1
  H  H816  1  0.559600  0.160800  0.482700  1
  H  H817  1  0.160800  0.559600  0.982700  1
  H  H818  1  0.440400  0.839200  0.517300  1
  H  H819  1  0.920700  0.426700  0.036000  1
  H  H820  1  0.573300  0.079300  0.464000  1
  H  H821  1  0.079300  0.573300  0.964000  1
  H  H822  1  0.426700  0.920700  0.536000  1
  H  H823  1  0.029000  0.385800  0.995100  1
  H  H824  1  0.614200  0.971000  0.504900  1
  H  H825  1  0.971000  0.614200  0.004900  1
  H  H826  1  0.385800  0.029000  0.495100  1
  H  H827  1  0.012300  0.440900  0.010400  1
  H  H828  1  0.559100  0.987700  0.489600  1
  H  H829  1  0.987700  0.559100  0.989600  1
  H  H830  1  0.440900  0.012300  0.510400  1
  H  H831  1  0.039800  0.486600  0.958500  1
  H  H832  1  0.513400  0.960200  0.541500  1
  H  H833  1  0.960200  0.513400  0.041500  1
  H  H834  1  0.486600  0.039800  0.458500  1
  H  H835  1  0.085600  0.421600  0.955800  1
  H  H836  1  0.578400  0.914400  0.544200  1
  H  H837  1  0.914400  0.578400  0.044200  1
  H  H838  1  0.421600  0.085600  0.455800  1
  H  H839  1  0.246400  0.724200  0.722800  1
  H  H840  1  0.275800  0.753600  0.777200  1
  H  H841  1  0.753600  0.275800  0.277200  1
  H  H842  1  0.724200  0.246400  0.222800  1
  H  H843  1  0.185500  0.779700  0.723400  1
  H  H844  1  0.220300  0.814500  0.776600  1
  H  H845  1  0.814500  0.220300  0.276600  1
  H  H846  1  0.779700  0.185500  0.223400  1
  H  H847  1  0.217800  0.787000  0.667000  1
  H  H848  1  0.213000  0.782200  0.833000  1
  H  H849  1  0.782200  0.213000  0.333000  1
  H  H850  1  0.787000  0.217800  0.167000  1
  H  H851  1  0.253200  0.719200  0.668900  1
  H  H852  1  0.280800  0.746800  0.831100  1
  H  H853  1  0.746800  0.280800  0.331100  1
  H  H854  1  0.719200  0.253200  0.168900  1
  H  H855  1  0.208600  0.719000  0.621700  1
  H  H856  1  0.281000  0.791400  0.878300  1
  H  H857  1  0.791400  0.281000  0.378300  1
  H  H858  1  0.719000  0.208600  0.121700  1
  H  H859  1  0.172200  0.787600  0.615900  1
  H  H860  1  0.212400  0.827800  0.884100  1
  H  H861  1  0.827800  0.212400  0.384100  1
  H  H862  1  0.787600  0.172200  0.115900  1
  H  H863  1  0.087300  0.782300  0.632100  1
  H  H864  1  0.217700  0.912700  0.867900  1
  H  H865  1  0.912700  0.217700  0.367900  1
  H  H866  1  0.782300  0.087300  0.132100  1
  H  H867  1  0.127000  0.738400  0.605400  1
  H  H868  1  0.261600  0.873000  0.894600  1
  H  H869  1  0.873000  0.261600  0.394600  1
  H  H870  1  0.738400  0.127000  0.105400  1
  H  H871  1  0.138100  0.614500  0.657000  1
  H  H872  1  0.385500  0.861900  0.843000  1
  H  H873  1  0.861900  0.385500  0.343000  1
  H  H874  1  0.614500  0.138100  0.157000  1
  H  H875  1  0.170100  0.641900  0.622800  1
  H  H876  1  0.358100  0.829900  0.877200  1
  H  H877  1  0.829900  0.358100  0.377200  1
  H  H878  1  0.641900  0.170100  0.122800  1
  H  H879  1  0.245200  0.585800  0.655400  1
  H  H880  1  0.414200  0.754800  0.844600  1
  H  H881  1  0.754800  0.414200  0.344600  1
  H  H882  1  0.585800  0.245200  0.155400  1
  H  H883  1  0.274200  0.625600  0.697500  1
  H  H884  1  0.374400  0.725800  0.802500  1
  H  H885  1  0.725800  0.374400  0.302500  1
  H  H886  1  0.625600  0.274200  0.197500  1
  H  H887  1  0.262600  0.572200  0.720700  1
  H  H888  1  0.427800  0.737400  0.779300  1
  H  H889  1  0.737400  0.427800  0.279300  1
  H  H890  1  0.572200  0.262600  0.220700  1
  H  H891  1  0.252400  0.639200  0.753600  1
  H  H892  1  0.360800  0.747600  0.746400  1
  H  H893  1  0.747600  0.360800  0.246400  1
  H  H894  1  0.639200  0.252400  0.253600  1
  H  H895  1  0.200300  0.622700  0.763700  1
  H  H896  1  0.377300  0.799700  0.736300  1
  H  H897  1  0.799700  0.377300  0.236300  1
  H  H898  1  0.622700  0.200300  0.263700  1
  H  H899  1  0.807000  0.154400  0.624800  1
  H  H900  1  0.845600  0.193000  0.875200  1
  H  H901  1  0.193000  0.845600  0.375200  1
  H  H902  1  0.154400  0.807000  0.124800  1
  H  H903  1  0.836600  0.120600  0.658600  1
  H  H904  1  0.879400  0.163400  0.841400  1
  H  H905  1  0.163400  0.879400  0.341400  1
  H  H906  1  0.120600  0.836600  0.158600  1
  H  H907  1  0.783600  0.206600  0.673000  1
  H  H908  1  0.793400  0.216400  0.827000  1
  H  H909  1  0.216400  0.793400  0.327000  1
  H  H910  1  0.206600  0.783600  0.173000  1
  H  H911  1  0.735100  0.222700  0.652000  1
  H  H912  1  0.777300  0.264900  0.848000  1
  H  H913  1  0.264900  0.777300  0.348000  1
  H  H914  1  0.222700  0.735100  0.152000  1
  H  H915  1  0.656000  0.255400  0.703200  1
  H  H916  1  0.744600  0.344000  0.796800  1
  H  H917  1  0.344000  0.744600  0.296800  1
  H  H918  1  0.255400  0.656000  0.203200  1
  H  H919  1  0.701500  0.242100  0.726000  1
  H  H920  1  0.757900  0.298500  0.774000  1
  H  H921  1  0.298500  0.757900  0.274000  1
  H  H922  1  0.242100  0.701500  0.226000  1
  H  H923  1  0.675100  0.177900  0.768700  1
  H  H924  1  0.822100  0.324900  0.731300  1
  H  H925  1  0.324900  0.822100  0.231300  1
  H  H926  1  0.177900  0.675100  0.268700  1
  H  H927  1  0.615100  0.229700  0.759700  1
  H  H928  1  0.770300  0.384900  0.740300  1
  H  H929  1  0.384900  0.770300  0.240300  1
  H  H930  1  0.229700  0.615100  0.259700  1
  H  H931  1  0.561600  0.226400  0.730100  1
  H  H932  1  0.773600  0.438400  0.769900  1
  H  H933  1  0.438400  0.773600  0.269900  1
  H  H934  1  0.226400  0.561600  0.230100  1
  H  H935  1  0.566300  0.166100  0.729000  1
  H  H936  1  0.833900  0.433700  0.771000  1
  H  H937  1  0.433700  0.833900  0.271000  1
  H  H938  1  0.166100  0.566300  0.229000  1
  H  H939  1  0.583200  0.233000  0.667800  1
  H  H940  1  0.767000  0.416800  0.832200  1
  H  H941  1  0.416800  0.767000  0.332200  1
  H  H942  1  0.233000  0.583200  0.167800  1
  H  H943  1  0.688000  0.196000  0.626500  1
  H  H944  1  0.804000  0.312000  0.873500  1
  H  H945  1  0.312000  0.804000  0.373500  1
  H  H946  1  0.196000  0.688000  0.126500  1
  H  H947  1  0.661000  0.159400  0.620700  1
  H  H948  1  0.840600  0.339000  0.879300  1
  H  H949  1  0.339000  0.840600  0.379300  1
  H  H950  1  0.159400  0.661000  0.120700  1
  H  H951  1  0.764500  0.118700  0.607000  1
  H  H952  1  0.881300  0.235500  0.893000  1
  H  H953  1  0.235500  0.881300  0.393000  1
  H  H954  1  0.118700  0.764500  0.107000  1
  H  H955  1  0.738900  0.075700  0.631800  1
  H  H956  1  0.924300  0.261100  0.868200  1
  H  H957  1  0.261100  0.924300  0.368200  1
  H  H958  1  0.075700  0.738900  0.131800  1
  H  H959  1  0.896800  0.062800  0.919100  1
  H  H960  1  0.937200  0.103200  0.580900  1
  H  H961  1  0.103200  0.937200  0.080900  1
  H  H962  1  0.062800  0.896800  0.419100  1
  H  H963  1  0.925700  0.028100  0.887500  1
  H  H964  1  0.971900  0.074300  0.612500  1
  H  H965  1  0.074300  0.971900  0.112500  1
  H  H966  1  0.028100  0.925700  0.387500  1
  H  H967  1  0.999500  0.994500  0.913700  1
  H  H968  1  0.005500  0.000500  0.586300  1
  H  H969  1  0.000500  0.005500  0.086300  1
  H  H970  1  0.994500  0.999500  0.413700  1
  H  H971  1  0.960700  0.997500  0.952000  1
  H  H972  1  0.002500  0.039300  0.548000  1
  H  H973  1  0.039300  0.002500  0.048000  1
  H  H974  1  0.997500  0.960700  0.452000  1
  H  H975  1  0.021300  0.896100  0.976400  1
  H  H976  1  0.103900  0.978700  0.523600  1
  H  H977  1  0.978700  0.103900  0.023600  1
  H  H978  1  0.896100  0.021300  0.476400  1
  H  H979  1  0.065500  0.884700  0.940000  1
  H  H980  1  0.115300  0.934500  0.560000  1
  H  H981  1  0.934500  0.115300  0.060000  1
  H  H982  1  0.884700  0.065500  0.440000  1
  H  H983  1  0.053800  0.802000  0.976000  1
  H  H984  1  0.198000  0.946200  0.524000  1
  H  H985  1  0.946200  0.198000  0.024000  1
  H  H986  1  0.802000  0.053800  0.476000  1
  H  H987  1  0.045700  0.815300  0.936400  1
  H  H988  1  0.184700  0.954300  0.563600  1
  H  H989  1  0.954300  0.184700  0.063600  1
  H  H990  1  0.815300  0.045700  0.436400  1
  H  H991  1  0.926800  0.812800  0.020500  1
  H  H992  1  0.187200  0.073200  0.479500  1
  H  H993  1  0.073200  0.187200  0.979500  1
  H  H994  1  0.812800  0.926800  0.520500  1
  H  H995  1  0.983400  0.815400  0.021900  1
  H  H996  1  0.184600  0.016600  0.478100  1
  H  H997  1  0.016600  0.184600  0.978100  1
  H  H998  1  0.815400  0.983400  0.521900  1
  H  H999  1  0.912900  0.904100  0.037300  1
  H  H1000  1  0.095900  0.087100  0.462700  1
  H  H1001  1  0.087100  0.095900  0.962700  1
  H  H1002  1  0.904100  0.912900  0.537300  1
  H  H1003  1  0.880800  0.008400  0.990100  1
  H  H1004  1  0.991600  0.119200  0.509900  1
  H  H1005  1  0.119200  0.991600  0.009900  1
  H  H1006  1  0.008400  0.880800  0.490100  1
  H  H1007  1  0.823900  0.001300  0.010700  1
  H  H1008  1  0.998700  0.176100  0.489300  1
  H  H1009  1  0.176100  0.998700  0.989300  1
  H  H1010  1  0.001300  0.823900  0.510700  1
  H  H1011  1  0.815500  0.064700  0.954400  1
  H  H1012  1  0.935300  0.184500  0.545600  1
  H  H1013  1  0.184500  0.935300  0.045600  1
  H  H1014  1  0.064700  0.815500  0.454400  1
  H  H1015  1  0.795000  0.016400  0.960300  1
  H  H1016  1  0.983600  0.205000  0.539700  1
  H  H1017  1  0.205000  0.983600  0.039700  1
  H  H1018  1  0.016400  0.795000  0.460300  1
  H  H1019  1  0.401000  0.861400  0.919900  1
  H  H1020  1  0.138600  0.599000  0.580100  1
  H  H1021  1  0.599000  0.138600  0.080100  1
  H  H1022  1  0.861400  0.401000  0.419900  1
  H  H1023  1  0.434100  0.890700  0.887400  1
  H  H1024  1  0.109300  0.565900  0.612600  1
  H  H1025  1  0.565900  0.109300  0.112600  1
  H  H1026  1  0.890700  0.434100  0.387400  1
  H  H1027  1  0.371800  0.964800  0.913600  1
  H  H1028  1  0.035200  0.628200  0.586400  1
  H  H1029  1  0.628200  0.035200  0.086400  1
  H  H1030  1  0.964800  0.371800  0.413600  1
  H  H1031  1  0.374100  0.926300  0.952000  1
  H  H1032  1  0.073700  0.625900  0.548000  1
  H  H1033  1  0.625900  0.073700  0.048000  1
  H  H1034  1  0.926300  0.374100  0.452000  1
  H  H1035  1  0.392100  0.990100  0.974400  1
  H  H1036  1  0.009900  0.607900  0.525600  1
  H  H1037  1  0.607900  0.009900  0.025600  1
  H  H1038  1  0.990100  0.392100  0.474400  1
  H  H1039  1  0.393500  0.032700  0.937400  1
  H  H1040  1  0.967300  0.606500  0.562600  1
  H  H1041  1  0.606500  0.967300  0.062600  1
  H  H1042  1  0.032700  0.393500  0.437400  1
  H  H1043  1  0.485800  0.012800  0.934000  1
  H  H1044  1  0.987200  0.514200  0.566000  1
  H  H1045  1  0.514200  0.987200  0.066000  1
  H  H1046  1  0.012800  0.485800  0.434000  1
  H  H1047  1  0.455400  0.022400  0.973400  1
  H  H1048  1  0.977600  0.544600  0.526600  1
  H  H1049  1  0.544600  0.977600  0.026600  1
  H  H1050  1  0.022400  0.455400  0.473400  1
  H  H1051  1  0.527800  0.895800  0.019400  1
  H  H1052  1  0.104200  0.472200  0.480600  1
  H  H1053  1  0.472200  0.104200  0.980600  1
  H  H1054  1  0.895800  0.527800  0.519400  1
  H  H1055  1  0.467900  0.952500  0.019900  1
  H  H1056  1  0.047500  0.532100  0.480100  1
  H  H1057  1  0.532100  0.047500  0.980100  1
  H  H1058  1  0.952500  0.467900  0.519900  1
  H  H1059  1  0.434100  0.883300  0.034700  1
  H  H1060  1  0.116700  0.565900  0.465300  1
  H  H1061  1  0.565900  0.116700  0.965300  1
  H  H1062  1  0.883300  0.434100  0.534700  1
  H  H1063  1  0.410300  0.842900  0.990100  1
  H  H1064  1  0.157100  0.589700  0.509900  1
  H  H1065  1  0.589700  0.157100  0.009900  1
  H  H1066  1  0.842900  0.410300  0.490100  1
  H  H1067  1  0.457300  0.787100  0.010100  1
  H  H1068  1  0.212900  0.542700  0.489900  1
  H  H1069  1  0.542700  0.212900  0.989900  1
  H  H1070  1  0.787100  0.457300  0.510100  1
  H  H1071  1  0.452900  0.777900  0.953800  1
  H  H1072  1  0.222100  0.547100  0.546200  1
  H  H1073  1  0.547100  0.222100  0.046200  1
  H  H1074  1  0.777900  0.452900  0.453800  1
  H  H1075  1  0.515800  0.760600  0.959000  1
  H  H1076  1  0.239400  0.484200  0.541000  1
  H  H1077  1  0.484200  0.239400  0.041000  1
  H  H1078  1  0.760600  0.515800  0.459000  1
  H  H1079  1  0.624400  0.735400  0.706300  1
  H  H1080  1  0.264600  0.375600  0.793700  1
  H  H1081  1  0.375600  0.264600  0.293700  1
  H  H1082  1  0.735400  0.624400  0.206300  1
  H  H1083  1  0.734800  0.610000  0.750800  1
  H  H1084  1  0.390000  0.265200  0.749200  1
  H  H1085  1  0.265200  0.390000  0.249200  1
  H  H1086  1  0.610000  0.734800  0.250800  1
  H  H1087  1  0.720600  0.791600  0.659000  1
  H  H1088  1  0.208400  0.279400  0.841000  1
  H  H1089  1  0.279400  0.208400  0.341000  1
  H  H1090  1  0.791600  0.720600  0.159000  1
  H  H1091  1  0.033400  0.479800  0.907300  1
  H  H1092  1  0.520200  0.966600  0.592700  1
  H  H1093  1  0.966600  0.520200  0.092700  1
  H  H1094  1  0.479800  0.033400  0.407300  1
  H  H1095  1  0.822300  0.518900  0.962000  1
  H  H1096  1  0.481100  0.177700  0.538000  1
  H  H1097  1  0.177700  0.481100  0.038000  1
  H  H1098  1  0.518900  0.822300  0.462000  1
  H  H1099  1  0.948700  0.412500  0.907600  1
  H  H1100  1  0.587500  0.051300  0.592400  1
  H  H1101  1  0.051300  0.587500  0.092400  1
  H  H1102  1  0.412500  0.948700  0.407600  1
  H  H1103  1  0.155400  0.718600  0.755700  1
  H  H1104  1  0.281400  0.844600  0.744300  1
  H  H1105  1  0.844600  0.281400  0.244300  1
  H  H1106  1  0.718600  0.155400  0.255700  1
  H  H1107  1  0.078100  0.703300  0.659800  1
  H  H1108  1  0.296700  0.921900  0.840200  1
  H  H1109  1  0.921900  0.296700  0.340200  1
  H  H1110  1  0.703300  0.078100  0.159800  1
  H  H1111  1  0.144400  0.787200  0.668100  1
  H  H1112  1  0.212800  0.855600  0.831900  1
  H  H1113  1  0.855600  0.212800  0.331900  1
  H  H1114  1  0.787200  0.144400  0.168100  1
  H  H1115  1  0.802800  0.062600  0.660400  1
  H  H1116  1  0.937400  0.197200  0.839600  1
  H  H1117  1  0.197200  0.937400  0.339600  1
  H  H1118  1  0.062600  0.802800  0.160400  1
  H  H1119  1  0.631500  0.133300  0.760700  1
  H  H1120  1  0.866700  0.368500  0.739300  1
  H  H1121  1  0.368500  0.866700  0.239300  1
  H  H1122  1  0.133300  0.631500  0.260700  1
  H  H1123  1  0.753400  0.164200  0.713400  1
  H  H1124  1  0.835800  0.246600  0.786600  1
  H  H1125  1  0.246600  0.835800  0.286600  1
  H  H1126  1  0.164200  0.753400  0.213400  1
  H  H1127  1  0.853000  0.008600  0.908000  1
  H  H1128  1  0.991400  0.147000  0.592000  1
  H  H1129  1  0.147000  0.991400  0.092000  1
  H  H1130  1  0.008600  0.853000  0.408000  1
  H  H1131  1  0.969700  0.801700  0.967000  1
  H  H1132  1  0.198300  0.030300  0.533000  1
  H  H1133  1  0.030300  0.198300  0.033000  1
  H  H1134  1  0.801700  0.969700  0.467000  1
  H  H1135  1  0.000800  0.922000  0.912000  1
  H  H1136  1  0.078000  0.999200  0.588000  1
  H  H1137  1  0.999200  0.078000  0.088000  1
  H  H1138  1  0.922000  0.000800  0.412000  1
  H  H1139  1  0.509000  0.819800  0.906800  1
  H  H1140  1  0.180200  0.491000  0.593200  1
  H  H1141  1  0.491000  0.180200  0.093200  1
  H  H1142  1  0.819800  0.509000  0.406800  1
  H  H1143  1  0.546800  0.938200  0.965800  1
  H  H1144  1  0.061800  0.453200  0.534200  1
  H  H1145  1  0.453200  0.061800  0.034200  1
  H  H1146  1  0.938200  0.546800  0.465800  1
  H  H1147  1  0.445400  0.966400  0.910700  1
  H  H1148  1  0.033600  0.554600  0.589300  1
  H  H1149  1  0.554600  0.033600  0.089300  1
  H  H1150  1  0.966400  0.445400  0.410700  1
  H  H1151  1  0.887400  0.709800  0.801800  1
  H  H1152  1  0.290200  0.112600  0.698200  1
  H  H1153  1  0.112600  0.290200  0.198200  1
  H  H1154  1  0.709800  0.887400  0.301800  1
  H  H1155  1  0.821200  0.752200  0.799000  1
  H  H1156  1  0.247800  0.178800  0.701000  1
  H  H1157  1  0.178800  0.247800  0.201000  1
  H  H1158  1  0.752200  0.821200  0.299000  1
  H  H1159  1  0.816000  0.712600  0.855400  1
  H  H1160  1  0.287400  0.184000  0.644600  1
  H  H1161  1  0.184000  0.287400  0.144600  1
  H  H1162  1  0.712600  0.816000  0.355400  1
  H  H1163  1  0.873300  0.713700  0.857500  1
  H  H1164  1  0.286300  0.126700  0.642500  1
  H  H1165  1  0.126700  0.286300  0.142500  1
  H  H1166  1  0.713700  0.873300  0.357500  1
  H  H1167  1  0.851733  0.814933  0.778500  1
  H  H1168  1  0.185067  0.148267  0.721500  1
  H  H1169  1  0.148267  0.185067  0.221500  1
  H  H1170  1  0.814933  0.851733  0.278500  1
  H  H1171  1  0.906600  0.777600  0.797300  1
  H  H1172  1  0.222400  0.093400  0.702700  1
  H  H1173  1  0.093400  0.222400  0.202700  1
  H  H1174  1  0.777600  0.906600  0.297300  1
  H  H1175  1  0.859200  0.828200  0.840800  1
  H  H1176  1  0.171800  0.140800  0.659200  1
  H  H1177  1  0.140800  0.171800  0.159200  1
  H  H1178  1  0.828200  0.859200  0.340800  1
  H  H1179  1  0.803000  0.863200  0.823000  1
  H  H1180  1  0.136800  0.197000  0.677000  1
  H  H1181  1  0.197000  0.136800  0.177000  1
  H  H1182  1  0.863200  0.803000  0.323000  1
  N  N1183  1  0.683990  0.743810  0.739530  1
  N  N1184  1  0.256190  0.316010  0.760470  1
  N  N1185  1  0.316010  0.256190  0.260470  1
  N  N1186  1  0.743810  0.683990  0.239530  1
  N  N1187  1  0.762280  0.676400  0.826370  1
  N  N1188  1  0.323600  0.237720  0.673630  1
  N  N1189  1  0.237720  0.323600  0.173630  1
  N  N1190  1  0.676400  0.762280  0.326370  1
  N  N1191  1  0.684180  0.748020  0.856810  1
  N  N1192  1  0.251980  0.315820  0.643190  1
  N  N1193  1  0.315820  0.251980  0.143190  1
  N  N1194  1  0.748020  0.684180  0.356810  1
  N  N1195  1  0.758260  0.673040  0.886190  1
  N  N1196  1  0.326960  0.241740  0.613810  1
  N  N1197  1  0.241740  0.326960  0.113810  1
  N  N1198  1  0.673040  0.758260  0.386190  1
  N  N1199  1  0.909640  0.524160  0.889780  1
  N  N1200  1  0.475840  0.090360  0.610220  1
  N  N1201  1  0.090360  0.475840  0.110220  1
  N  N1202  1  0.524160  0.909640  0.389780  1
  N  N1203  1  0.595050  0.815730  0.946410  1
  N  N1204  1  0.184270  0.404950  0.553590  1
  N  N1205  1  0.404950  0.184270  0.053590  1
  N  N1206  1  0.815730  0.595050  0.446410  1
  N  N1207  1  0.801130  0.686850  0.706250  1
  N  N1208  1  0.313150  0.198870  0.793750  1
  N  N1209  1  0.198870  0.313150  0.293750  1
  N  N1210  1  0.686850  0.801130  0.206250  1
  N  N1211  1  0.801970  0.834930  0.713130  1
  N  N1212  1  0.165070  0.198030  0.786870  1
  N  N1213  1  0.198030  0.165070  0.286870  1
  N  N1214  1  0.834930  0.801970  0.213130  1
  N  N1215  1  0.902430  0.785250  0.712550  1
  N  N1216  1  0.214750  0.097570  0.787450  1
  N  N1217  1  0.097570  0.214750  0.287450  1
  N  N1218  1  0.785250  0.902430  0.212550  1
  N  N1219  1  0.851560  0.884120  0.716290  1
  N  N1220  1  0.115880  0.148440  0.783710  1
  N  N1221  1  0.148440  0.115880  0.283710  1
  N  N1222  1  0.884120  0.851560  0.216290  1
  N  N1223  1  0.055940  0.783520  0.709910  1
  N  N1224  1  0.216480  0.944060  0.790090  1
  N  N1225  1  0.944060  0.216480  0.290090  1
  N  N1226  1  0.783520  0.055940  0.209910  1
  N  N1227  1  0.703190  0.037390  0.711900  1
  N  N1228  1  0.962610  0.296810  0.788100  1
  N  N1229  1  0.296810  0.962610  0.288100  1
  N  N1230  1  0.037390  0.703190  0.211900  1
  N  N1231  1  0.764740  0.065300  0.743320  1
  N  N1232  1  0.934700  0.235260  0.756680  1
  N  N1233  1  0.235260  0.934700  0.256680  1
  N  N1234  1  0.065300  0.764740  0.243320  1
  N  N1235  1  0.702350  0.971730  0.830460  1
  N  N1236  1  0.028270  0.297650  0.669540  1
  N  N1237  1  0.297650  0.028270  0.169540  1
  N  N1238  1  0.971730  0.702350  0.330460  1
  N  N1239  1  0.704700  0.919220  0.888980  1
  N  N1240  1  0.080780  0.295300  0.611020  1
  N  N1241  1  0.295300  0.080780  0.111020  1
  N  N1242  1  0.919220  0.704700  0.388980  1
  N  N1243  1  0.775420  0.951800  0.859530  1
  N  N1244  1  0.048200  0.224580  0.640470  1
  N  N1245  1  0.224580  0.048200  0.140470  1
  N  N1246  1  0.951800  0.775420  0.359530  1
  N  N1247  1  0.552810  0.915430  0.893020  1
  N  N1248  1  0.084570  0.447190  0.606980  1
  N  N1249  1  0.447190  0.084570  0.106980  1
  N  N1250  1  0.915430  0.552810  0.393020  1
  N  N1251  1  0.847930  0.891750  0.947640  1
  N  N1252  1  0.108250  0.152070  0.552360  1
  N  N1253  1  0.152070  0.108250  0.052360  1
  N  N1254  1  0.891750  0.847930  0.447640  1
  N  N1255  1  0.946370  0.884210  0.893660  1
  N  N1256  1  0.115790  0.053630  0.606340  1
  N  N1257  1  0.053630  0.115790  0.106340  1
  N  N1258  1  0.884210  0.946370  0.393660  1
  N  N1259  1  0.943220  0.735220  0.888280  1
  N  N1260  1  0.264780  0.056780  0.611720  1
  N  N1261  1  0.056780  0.264780  0.111720  1
  N  N1262  1  0.735220  0.943220  0.388280  1
  N  N1263  1  0.975730  0.659710  0.858400  1
  N  N1264  1  0.340290  0.024270  0.641600  1
  N  N1265  1  0.024270  0.340290  0.141600  1
  N  N1266  1  0.659710  0.975730  0.358400  1
  N  N1267  1  0.997150  0.738190  0.830330  1
  N  N1268  1  0.261810  0.002850  0.669670  1
  N  N1269  1  0.002850  0.261810  0.169670  1
  N  N1270  1  0.738190  0.997150  0.330330  1
  N  N1271  1  0.086140  0.665360  0.741290  1
  N  N1272  1  0.334640  0.913860  0.758710  1
  N  N1273  1  0.913860  0.334640  0.258710  1
  N  N1274  1  0.665360  0.086140  0.241290  1
  N  N1275  1  0.913650  0.567510  0.944710  1
  N  N1276  1  0.432490  0.086350  0.555290  1
  N  N1277  1  0.086350  0.432490  0.055290  1
  N  N1278  1  0.567510  0.913650  0.444710  1
  N  N1279  1  0.647970  0.709970  0.690890  1
  N  N1280  1  0.290030  0.352030  0.809110  1
  N  N1281  1  0.352030  0.290030  0.309110  1
  N  N1282  1  0.709970  0.647970  0.190890  1
  N  N1283  1  0.721000  0.619160  0.730340  1
  N  N1284  1  0.380840  0.279000  0.769660  1
  N  N1285  1  0.279000  0.380840  0.269660  1
  N  N1286  1  0.619160  0.721000  0.230340  1
  N  N1287  1  0.715550  0.763290  0.654310  1
  N  N1288  1  0.236710  0.284450  0.845690  1
  N  N1289  1  0.284450  0.236710  0.345690  1
  N  N1290  1  0.763290  0.715550  0.154310  1
  N  N1291  1  0.766870  0.646530  0.661260  1
  N  N1292  1  0.353470  0.233130  0.838740  1
  N  N1293  1  0.233130  0.353470  0.338740  1
  N  N1294  1  0.646530  0.766870  0.161260  1
  N  N1295  1  0.952310  0.450150  0.987380  1
  N  N1296  1  0.549850  0.047690  0.512620  1
  N  N1297  1  0.047690  0.549850  0.012620  1
  N  N1298  1  0.450150  0.952310  0.487380  1
  N  N1299  1  0.024290  0.453870  0.925640  1
  N  N1300  1  0.546130  0.975710  0.574360  1
  N  N1301  1  0.975710  0.546130  0.074360  1
  N  N1302  1  0.453870  0.024290  0.425640  1
  N  N1303  1  0.853020  0.483460  0.967380  1
  N  N1304  1  0.516540  0.146980  0.532620  1
  N  N1305  1  0.146980  0.516540  0.032620  1
  N  N1306  1  0.483460  0.853020  0.467380  1
  N  N1307  1  0.952400  0.405920  0.930740  1
  N  N1308  1  0.594080  0.047600  0.569260  1
  N  N1309  1  0.047600  0.594080  0.069260  1
  N  N1310  1  0.405920  0.952400  0.430740  1
  N  N1311  1  0.200110  0.631010  0.694670  1
  N  N1312  1  0.368990  0.799890  0.805330  1
  N  N1313  1  0.799890  0.368990  0.305330  1
  N  N1314  1  0.631010  0.200110  0.194670  1
  N  N1315  1  0.179550  0.704990  0.735510  1
  N  N1316  1  0.295010  0.820450  0.764490  1
  N  N1317  1  0.820450  0.295010  0.264490  1
  N  N1318  1  0.704990  0.179550  0.235510  1
  N  N1319  1  0.115310  0.698650  0.656120  1
  N  N1320  1  0.301350  0.884690  0.843880  1
  N  N1321  1  0.884690  0.301350  0.343880  1
  N  N1322  1  0.698650  0.115310  0.156120  1
  N  N1323  1  0.172190  0.749910  0.666170  1
  N  N1324  1  0.250090  0.827810  0.833830  1
  N  N1325  1  0.827810  0.250090  0.333830  1
  N  N1326  1  0.749910  0.172190  0.166170  1
  N  N1327  1  0.656540  0.156680  0.671140  1
  N  N1328  1  0.843320  0.343460  0.828860  1
  N  N1329  1  0.343460  0.843320  0.328860  1
  N  N1330  1  0.156680  0.656540  0.171140  1
  N  N1331  1  0.774080  0.100180  0.657980  1
  N  N1332  1  0.899820  0.225920  0.842020  1
  N  N1333  1  0.225920  0.899820  0.342020  1
  N  N1334  1  0.100180  0.774080  0.157980  1
  N  N1335  1  0.638140  0.158520  0.740720  1
  N  N1336  1  0.841480  0.361860  0.759280  1
  N  N1337  1  0.361860  0.841480  0.259280  1
  N  N1338  1  0.158520  0.638140  0.240720  1
  N  N1339  1  0.726190  0.180950  0.699010  1
  N  N1340  1  0.819050  0.273810  0.800990  1
  N  N1341  1  0.273810  0.819050  0.300990  1
  N  N1342  1  0.180950  0.726190  0.199010  1
  N  N1343  1  0.885550  0.932930  0.990870  1
  N  N1344  1  0.067070  0.114450  0.509130  1
  N  N1345  1  0.114450  0.067070  0.009130  1
  N  N1346  1  0.932930  0.885550  0.490870  1
  N  N1347  1  0.871690  0.000690  0.926010  1
  N  N1348  1  0.999310  0.128310  0.573990  1
  N  N1349  1  0.128310  0.999310  0.073990  1
  N  N1350  1  0.000690  0.871690  0.426010  1
  N  N1351  1  0.970210  0.832650  0.971710  1
  N  N1352  1  0.167350  0.029790  0.528290  1
  N  N1353  1  0.029790  0.167350  0.028290  1
  N  N1354  1  0.832650  0.970210  0.471710  1
  N  N1355  1  0.983370  0.929010  0.934700  1
  N  N1356  1  0.070990  0.016630  0.565300  1
  N  N1357  1  0.016630  0.070990  0.065300  1
  N  N1358  1  0.929010  0.983370  0.434700  1
  N  N1359  1  0.479410  0.852150  0.989860  1
  N  N1360  1  0.147850  0.520590  0.510140  1
  N  N1361  1  0.520590  0.147850  0.010140  1
  N  N1362  1  0.852150  0.479410  0.489860  1
  N  N1363  1  0.482490  0.837630  0.925160  1
  N  N1364  1  0.162370  0.517510  0.574840  1
  N  N1365  1  0.517510  0.162370  0.074840  1
  N  N1366  1  0.837630  0.482490  0.425160  1
  N  N1367  1  0.511080  0.938820  0.970110  1
  N  N1368  1  0.061180  0.488920  0.529890  1
  N  N1369  1  0.488920  0.061180  0.029890  1
  N  N1370  1  0.938820  0.511080  0.470110  1
  N  N1371  1  0.435510  0.949650  0.933580  1
  N  N1372  1  0.050350  0.564490  0.566420  1
  N  N1373  1  0.564490  0.050350  0.066420  1
  N  N1374  1  0.949650  0.435510  0.433580  1
  O  O1375  1  0.804800  0.788800  0.858000  1
  O  O1376  1  0.211200  0.195200  0.642000  1
  O  O1377  1  0.195200  0.211200  0.142000  1
  O  O1378  1  0.788800  0.804800  0.358000  1
  Ru  Ru1379  1  0.723593  0.696409  0.698766  1
  Ru  Ru1380  1  0.303591  0.276407  0.801234  1
  Ru  Ru1381  1  0.276407  0.303591  0.301234  1
  Ru  Ru1382  1  0.696409  0.723593  0.198766  1
  Ru  Ru1383  1  0.932872  0.485106  0.939504  1
  Ru  Ru1384  1  0.514894  0.067128  0.560496  1
  Ru  Ru1385  1  0.067128  0.514894  0.060496  1
  Ru  Ru1386  1  0.485106  0.932872  0.439504  1
  Ru  Ru1387  1  0.130757  0.706587  0.702376  1
  Ru  Ru1388  1  0.293413  0.869243  0.797624  1
  Ru  Ru1389  1  0.869243  0.293413  0.297624  1
  Ru  Ru1390  1  0.706587  0.130757  0.202376  1
  Ru  Ru1391  1  0.712014  0.112406  0.705404  1
  Ru  Ru1392  1  0.887594  0.287986  0.794596  1
  Ru  Ru1393  1  0.287986  0.887594  0.294596  1
  Ru  Ru1394  1  0.112406  0.712014  0.205404  1
  Ru  Ru1395  1  0.916394  0.910112  0.942699  1
  Ru  Ru1396  1  0.089888  0.083606  0.557301  1
  Ru  Ru1397  1  0.083606  0.089888  0.057301  1
  Ru  Ru1398  1  0.910112  0.916394  0.442699  1
  Ru  Ru1399  1  0.513436  0.883344  0.941722  1
  Ru  Ru1400  1  0.116656  0.486564  0.558278  1
  Ru  Ru1401  1  0.486564  0.116656  0.058278  1
  Ru  Ru1402  1  0.883344  0.513436  0.441722  1
