
#######################################################################
#
#                 Cambridge Crystallographic Data Centre
#                                CCDC 
#
#######################################################################
#
# If this CIF has been generated from an entry in the Cambridge 
# Structural Database, then it will include bibliographic, chemical, 
# crystal, experimental, refinement or atomic coordinate data resulting 
# from the CCDC's data processing and validation procedures.
#
#######################################################################

data_RINJED
_chemical_formula_moiety         
'C106 H128 N4 P8 Pd2 Pt2 4+,4(C1 F3 O3 S1 1-),5(C3 H6 O1)'
_chemical_name_systematic        
'tetrakis((\m~2~-4-Ethynylpyridine)-(triethylphosphine))-bis(1,3-bis(diphenylphosphino)propane)-di-palladium-di-platinum tetrakis(trifluoromethylsulfonate) acetone solvate'
_symmetry_cell_setting           triclinic
_symmetry_space_group_name_H-M   'P -1'
_symmetry_Int_Tables_number      2
_space_group_name_Hall           '-P 1'
loop_
_symmetry_equiv_pos_site_id
_symmetry_equiv_pos_as_xyz
1 x,y,z
2 -x,-y,-z
_cell_length_a                   10.6859(2)
_cell_length_b                   17.4520(3)
_cell_length_c                   18.8824(1)
_cell_angle_alpha                85.750(1)
_cell_angle_beta                 88.401(1)
_cell_angle_gamma                89.969(1)
_cell_volume                     3510.33
_exptl_crystal_colour            colorless
_chemical_melting_point          208-211deg.C(dec)
_cell_formula_units_Z            1
loop_
_atom_site_label
_atom_site_type_symbol
_atom_site_fract_x
_atom_site_fract_y
_atom_site_fract_z
Pt1 Pt 0.2320(1) 0.6378(1) 0.2732(1)
Pd1 Pd 0.3853(1) 0.8416(1) -0.1994(1)
P1 P 0.1375(2) 0.7526(1) 0.2938(1)
P2 P 0.1498(2) 0.5783(1) 0.3767(1)
P3 P 0.3020(3) 0.9610(1) -0.1849(1)
P4 P 0.4284(2) 0.8599(1) -0.3194(1)
N1 N 0.3509(8) 0.8129(4) -0.0906(4)
N2 N 0.5426(8) 0.2706(4) 0.2010(4)
C1 C 0.2910(9) 0.6838(5) 0.1797(4)
C2 C 0.3137(10) 0.7117(6) 0.1194(5)
C3 C 0.3270(10) 0.7471(5) 0.0488(5)
C4 C 0.4369(10) 0.7830(6) 0.0234(5)
C5 C 0.4453(10) 0.8137(6) -0.0457(5)
C6 C 0.2439(10) 0.7799(6) -0.0663(6)
C7 C 0.2283(10) 0.7468(6) 0.0023(5)
C8 C 0.3281(9) 0.5424(5) 0.2525(5)
C9 C 0.3848(11) 0.4859(6) 0.2395(5)
C10 C 0.4413(10) 0.4145(5) 0.2232(5)
C11 C 0.5696(10) 0.4035(6) 0.2212(5)
C12 C 0.6182(9) 0.3295(5) 0.2101(5)
C13 C 0.4201(9) 0.2824(5) 0.1991(5)
C14 C 0.3644(10) 0.3526(5) 0.2105(5)
C15 C 0.1123(9) 0.8185(5) 0.2155(5)
C16 C 0.0278(10) 0.7978(6) 0.1656(6)
C17 C 0.0107(13) 0.8448(8) 0.1040(6)
C18 C 0.0769(11) 0.9125(8) 0.0921(6)
C19 C 0.1591(12) 0.9335(7) 0.1420(6)
C20 C 0.1771(10) 0.8859(6) 0.2027(6)
C21 C 0.2331(8) 0.8074(5) 0.3494(4)
C22 C 0.1836(10) 0.8634(5) 0.3912(5)
C23 C 0.2634(12) 0.9048(6) 0.4308(6)
C24 C 0.3917(11) 0.8926(6) 0.4290(5)
C25 C 0.4392(10) 0.8381(6) 0.3882(5)
C26 C 0.3633(9) 0.7945(5) 0.3484(5)
C27 C -0.0157(9) 0.7456(5) 0.3382(5)
C28 C -0.0203(10) 0.6965(6) 0.4083(5)
C29 C -0.0083(10) 0.6104(6) 0.4012(5)
C30 C 0.2440(10) 0.5855(5) 0.4549(5)
C31 C 0.1937(11) 0.5804(6) 0.5246(5)
C32 C 0.2709(14) 0.5795(7) 0.5810(6)
C33 C 0.3995(15) 0.5853(7) 0.5714(6)
C34 C 0.4478(12) 0.5927(8) 0.5025(7)
C35 C 0.3710(11) 0.5919(7) 0.4446(6)
C36 C 0.1280(9) 0.4753(5) 0.3702(5)
C37 C 0.0497(12) 0.4528(6) 0.3201(6)
C38 C 0.0331(13) 0.3749(7) 0.3107(7)
C39 C 0.0921(12) 0.3200(6) 0.3547(7)
C40 C 0.1680(11) 0.3428(6) 0.4065(7)
C41 C 0.1866(10) 0.4205(5) 0.4156(5)
C42 C 0.3273(11) 1.0398(5) -0.2529(5)
C43 C 0.2626(14) 1.1149(6) -0.2354(7)
C44 C 0.3586(12) 0.9992(7) -0.1040(6)
C45 C 0.4964(13) 1.0211(7) -0.1069(6)
C46 C 0.1346(11) 0.9544(7) -0.1692(6)
C47 C 0.0617(12) 0.9313(9) -0.2314(8)
C48 C 0.2903(10) 0.8743(6) -0.3720(5)
C49 C 0.2051(10) 0.8041(7) -0.3647(7)
C50 C 0.5389(9) 0.9372(5) -0.3452(5)
C51 C 0.6459(11) 0.9407(7) -0.2944(6)
C52 C 0.5046(10) 0.7761(5) -0.3550(5)
C53 C 0.5155(11) 0.7799(6) -0.4368(5)
H1 H 0.5060(10) 0.7863(6) 0.0537(5)
H2 H 0.5221(10) 0.8368(6) -0.0624(5)
H3 H 0.1755(10) 0.7791(6) -0.0973(6)
H4 H 0.1505(10) 0.7240(6) 0.0175(5)
H5 H 0.6247(10) 0.4450(6) 0.2273(5)
H6 H 0.7063(9) 0.3218(5) 0.2092(5)
H7 H 0.3677(9) 0.2406(5) 0.1896(5)
H8 H 0.2761(10) 0.3584(5) 0.2096(5)
H9 H -0.0184(10) 0.7514(6) 0.1736(6)
H10 H -0.0468(13) 0.8303(8) 0.0699(6)
H11 H 0.0658(11) 0.9445(8) 0.0498(6)
H12 H 0.2035(12) 0.9807(7) 0.1348(6)
H13 H 0.2358(10) 0.9004(6) 0.2362(6)
H14 H 0.0961(10) 0.8731(5) 0.3925(5)
H15 H 0.2295(12) 0.9424(6) 0.4599(6)
H16 H 0.4454(11) 0.9219(6) 0.4558(5)
H17 H 0.5270(10) 0.8295(6) 0.3870(5)
H18 H 0.3987(9) 0.7562(5) 0.3207(5)
H19 H -0.0445(9) 0.7980(5) 0.3471(5)
H20 H -0.0754(9) 0.7240(5) 0.3058(5)
H21 H -0.1005(10) 0.7064(6) 0.4336(5)
H22 H 0.0481(10) 0.7130(6) 0.4381(5)
H23 H -0.0668(10) 0.5956(6) 0.3648(5)
H24 H -0.0346(10) 0.5829(6) 0.4469(5)
H25 H 0.1056(11) 0.5776(6) 0.5325(5)
H26 H 0.2356(14) 0.5747(7) 0.6278(6)
H27 H 0.4529(15) 0.5843(7) 0.6108(6)
H28 H 0.5356(12) 0.5984(8) 0.4947(7)
H29 H 0.4065(11) 0.5958(7) 0.3978(6)
H30 H 0.0060(12) 0.4903(6) 0.2913(6)
H31 H -0.0186(13) 0.3596(7) 0.2742(7)
H32 H 0.0801(12) 0.2669(6) 0.3490(7)
H33 H 0.2086(11) 0.3052(6) 0.4366(7)
H34 H 0.2383(10) 0.4359(5) 0.4521(5)
H35 H 0.4184(11) 1.0494(5) -0.2592(5)
H36 H 0.2961(11) 1.0241(5) -0.2985(5)
H37 H 0.2896(58) 1.1564(11) -0.2703(26)
H38 H 0.2853(60) 1.1277(24) -0.1878(18)
H39 H 0.1717(14) 1.1085(15) -0.2370(41)
H40 H 0.3086(12) 1.0452(7) -0.0942(6)
H41 H 0.3437(12) 0.9603(7) -0.0638(6)
H42 H 0.5178(22) 1.0435(42) -0.0627(18)
H43 H 0.5130(20) 1.0587(34) -0.1472(25)
H44 H 0.5474(14) 0.9751(10) -0.1126(42)
H45 H 0.1175(11) 0.9167(7) -0.1283(6)
H46 H 0.1035(11) 1.0050(7) -0.1559(6)
H47 H -0.0277(14) 0.9289(47) -0.2183(16)
H48 H 0.0900(5) 0.8806(22) -0.2444(29)
H49 H 0.0754(62) 0.9691(26) -0.2718(16)
H50 H 0.2436(10) 0.9194(6) -0.3565(5)
H51 H 0.3158(10) 0.8851(6) -0.4226(5)
H52 H 0.1278(32) 0.8154(16) -0.3902(34)
H53 H 0.1848(58) 0.7908(27) -0.3144(7)
H54 H 0.2479(29) 0.7607(14) -0.3850(36)
H55 H 0.5736(9) 0.9299(5) -0.3934(5)
H56 H 0.4938(9) 0.9868(5) -0.3473(5)
H57 H 0.7037(37) 0.9820(28) -0.3115(21)
H58 H 0.6906(42) 0.8915(16) -0.2917(29)
H59 H 0.6125(13) 0.9507(41) -0.2471(11)
H60 H 0.5896(10) 0.7709(5) -0.3357(5)
H61 H 0.4567(10) 0.7294(5) -0.3381(5)
H62 H 0.5650(52) 0.7363(21) -0.4516(5)
H63 H 0.5566(55) 0.8281(18) -0.4544(5)
H64 H 0.4317(11) 0.7779(38) -0.4564(5)
Pt1A Pt 0.7680(1) 0.3622(1) -0.2732(1)
Pd1A Pd 0.6147(1) 0.1584(1) 0.1994(1)
P1A P 0.8625(2) 0.2474(1) -0.2938(1)
P2A P 0.8502(2) 0.4217(1) -0.3767(1)
P3A P 0.6980(3) 0.0390(1) 0.1849(1)
P4A P 0.5716(2) 0.1401(1) 0.3194(1)
N1A N 0.6491(8) 0.1871(4) 0.0906(4)
N2A N 0.4574(8) 0.7294(4) -0.2010(4)
C1A C 0.7090(9) 0.3162(5) -0.1797(4)
C2A C 0.6863(10) 0.2883(6) -0.1194(5)
C3A C 0.6730(10) 0.2529(5) -0.0488(5)
C4A C 0.5631(10) 0.2170(6) -0.0234(5)
C5A C 0.5547(10) 0.1863(6) 0.0457(5)
C6A C 0.7561(10) 0.2201(6) 0.0663(6)
C7A C 0.7717(10) 0.2532(6) -0.0023(5)
C8A C 0.6719(9) 0.4576(5) -0.2525(5)
C9A C 0.6152(11) 0.5141(6) -0.2395(5)
C10A C 0.5587(10) 0.5855(5) -0.2232(5)
C11A C 0.4304(10) 0.5965(6) -0.2212(5)
C12A C 0.3818(9) 0.6705(5) -0.2101(5)
C13A C 0.5799(9) 0.7176(5) -0.1991(5)
C14A C 0.6356(10) 0.6474(5) -0.2105(5)
C15A C 0.8877(9) 0.1815(5) -0.2155(5)
C16A C 0.9722(10) 0.2022(6) -0.1656(6)
C17A C 0.9893(13) 0.1552(8) -0.1040(6)
C18A C 0.9231(11) 0.0875(8) -0.0921(6)
C19A C 0.8409(12) 0.0665(7) -0.1420(6)
C20A C 0.8229(10) 0.1141(6) -0.2027(6)
C21A C 0.7669(8) 0.1926(5) -0.3494(4)
C22A C 0.8164(10) 0.1366(5) -0.3912(5)
C23A C 0.7366(12) 0.0952(6) -0.4308(6)
C24A C 0.6083(11) 0.1074(6) -0.4290(5)
C25A C 0.5608(10) 0.1619(6) -0.3882(5)
C26A C 0.6367(9) 0.2055(5) -0.3484(5)
C27A C 1.0157(9) 0.2544(5) -0.3382(5)
C28A C 1.0203(10) 0.3035(6) -0.4083(5)
C29A C 1.0083(10) 0.3896(6) -0.4012(5)
C30A C 0.7560(10) 0.4145(5) -0.4549(5)
C31A C 0.8063(11) 0.4196(6) -0.5246(5)
C32A C 0.7291(14) 0.4205(7) -0.5810(6)
C33A C 0.6005(15) 0.4147(7) -0.5714(6)
C34A C 0.5522(12) 0.4073(8) -0.5025(7)
C35A C 0.6290(11) 0.4081(7) -0.4446(6)
C36A C 0.8720(9) 0.5247(5) -0.3702(5)
C37A C 0.9503(12) 0.5472(6) -0.3201(6)
C38A C 0.9669(13) 0.6251(7) -0.3107(7)
C39A C 0.9079(12) 0.6800(6) -0.3547(7)
C40A C 0.8320(11) 0.6572(6) -0.4065(7)
C41A C 0.8134(10) 0.5795(5) -0.4156(5)
C42A C 0.6727(11) -0.0398(5) 0.2529(5)
C43A C 0.7374(14) -0.1149(6) 0.2354(7)
C44A C 0.6414(12) 0.0008(7) 0.1040(6)
C45A C 0.5036(13) -0.0211(7) 0.1069(6)
C46A C 0.8654(11) 0.0456(7) 0.1692(6)
C47A C 0.9383(12) 0.0687(9) 0.2314(8)
C48A C 0.7097(10) 0.1257(6) 0.3720(5)
C49A C 0.7949(10) 0.1959(7) 0.3647(7)
C50A C 0.4611(9) 0.0628(5) 0.3452(5)
C51A C 0.3541(11) 0.0593(7) 0.2944(6)
C52A C 0.4954(10) 0.2239(5) 0.3550(5)
C53A C 0.4845(11) 0.2201(6) 0.4368(5)
H1A H 0.4940(10) 0.2137(6) -0.0537(5)
H2A H 0.4779(10) 0.1632(6) 0.0624(5)
H3A H 0.8245(10) 0.2209(6) 0.0973(6)
H4A H 0.8495(10) 0.2760(6) -0.0175(5)
H5A H 0.3753(10) 0.5550(6) -0.2273(5)
H6A H 0.2937(9) 0.6782(5) -0.2092(5)
H7A H 0.6323(9) 0.7594(5) -0.1896(5)
H8A H 0.7239(10) 0.6416(5) -0.2096(5)
H9A H 1.0184(10) 0.2486(6) -0.1736(6)
H10A H 1.0468(13) 0.1697(8) -0.0699(6)
H11A H 0.9342(11) 0.0555(8) -0.0498(6)
H12A H 0.7965(12) 0.0193(7) -0.1348(6)
H13A H 0.7642(10) 0.0996(6) -0.2362(6)
H14A H 0.9039(10) 0.1269(5) -0.3925(5)
H15A H 0.7705(12) 0.0576(6) -0.4599(6)
H16A H 0.5546(11) 0.0781(6) -0.4558(5)
H17A H 0.4730(10) 0.1705(6) -0.3870(5)
H18A H 0.6013(9) 0.2438(5) -0.3207(5)
H19A H 1.0445(9) 0.2020(5) -0.3471(5)
H20A H 1.0754(9) 0.2760(5) -0.3058(5)
H21A H 1.1005(10) 0.2936(6) -0.4336(5)
H22A H 0.9519(10) 0.2870(6) -0.4381(5)
H23A H 1.0668(10) 0.4044(6) -0.3648(5)
H24A H 1.0346(10) 0.4171(6) -0.4469(5)
H25A H 0.8944(11) 0.4224(6) -0.5325(5)
H26A H 0.7644(14) 0.4253(7) -0.6278(6)
H27A H 0.5471(15) 0.4157(7) -0.6108(6)
H28A H 0.4644(12) 0.4016(8) -0.4947(7)
H29A H 0.5935(11) 0.4042(7) -0.3978(6)
H30A H 0.9940(12) 0.5097(6) -0.2913(6)
H31A H 1.0186(13) 0.6404(7) -0.2742(7)
H32A H 0.9199(12) 0.7331(6) -0.3490(7)
H33A H 0.7914(11) 0.6948(6) -0.4366(7)
H34A H 0.7617(10) 0.5641(5) -0.4521(5)
H35A H 0.5816(11) -0.0494(5) 0.2592(5)
H36A H 0.7039(11) -0.0241(5) 0.2985(5)
H37A H 0.7104(58) -0.1564(11) 0.2703(26)
H38A H 0.7147(60) -0.1277(24) 0.1878(18)
H39A H 0.8283(14) -0.1085(15) 0.2370(41)
H40A H 0.6914(12) -0.0452(7) 0.0942(6)
H41A H 0.6563(12) 0.0397(7) 0.0638(6)
H42A H 0.4822(22) -0.0435(42) 0.0627(18)
H43A H 0.4870(20) -0.0587(34) 0.1472(25)
H44A H 0.4526(14) 0.0249(10) 0.1126(42)
H45A H 0.8825(11) 0.0833(7) 0.1283(6)
H46A H 0.8965(11) -0.0050(7) 0.1559(6)
H47A H 1.0277(14) 0.0711(47) 0.2183(16)
H48A H 0.9100(5) 0.1194(22) 0.2444(29)
H49A H 0.9246(62) 0.0309(26) 0.2718(16)
H50A H 0.7564(10) 0.0806(6) 0.3565(5)
H51A H 0.6842(10) 0.1149(6) 0.4226(5)
H52A H 0.8722(32) 0.1846(16) 0.3902(34)
H53A H 0.8152(58) 0.2092(27) 0.3144(7)
H54A H 0.7521(29) 0.2393(14) 0.3850(36)
H55A H 0.4264(9) 0.0701(5) 0.3934(5)
H56A H 0.5062(9) 0.0132(5) 0.3473(5)
H57A H 0.2963(37) 0.0180(28) 0.3115(21)
H58A H 0.3094(42) 0.1085(16) 0.2917(29)
H59A H 0.3875(13) 0.0493(41) 0.2471(11)
H60A H 0.4104(10) 0.2291(5) 0.3357(5)
H61A H 0.5433(10) 0.2706(5) 0.3381(5)
H62A H 0.4350(52) 0.2637(21) 0.4516(5)
H63A H 0.4434(55) 0.1719(18) 0.4544(5)
H64A H 0.5683(11) 0.2221(38) 0.4564(5)
S1 S 0.7823(2) 0.8980(1) 0.4452(1)
F1 F 0.9241(7) 0.9464(4) 0.5448(4)
F2 F 0.9661(6) 0.8329(4) 0.5159(3)
F3 F 0.8027(6) 0.8526(4) 0.5800(3)
O1 O 0.8702(7) 0.9334(5) 0.3945(4)
O2 O 0.7451(7) 0.8214(4) 0.4326(4)
O3 O 0.6815(7) 0.9469(4) 0.4669(4)
C54 C 0.8728(9) 0.8825(6) 0.5258(5)
S2 S 0.2024(5) 0.1548(3) 0.0606(3)
O4 O 0.2679(17) 0.1530(11) -0.0017(9)
O5 O 0.0823(18) 0.1151(10) 0.0587(8)
O6 O 0.2854(14) 0.1349(9) 0.1131(8)
F4 F 0.1061(27) 0.2708(18) 0.1219(14)
F5 F 0.2637(17) 0.2990(8) 0.0617(10)
F6 F 0.0843(19) 0.2831(11) 0.0195(11)
C55 C 0.1650(25) 0.2584(17) 0.0674(14)
O7 O -0.2084(22) 0.5865(13) 0.2529(12)
C56 C -0.3030(26) 0.6323(15) 0.2480(15)
C57 C -0.3561(22) 0.6454(14) 0.3173(13)
C58 C -0.3426(29) 0.6578(18) 0.1794(18)
O8? O -0.664(10) 0.4959(62) -0.0365(55)
C59? C -0.535(18) 0.462(12) -0.0393(86)
C60? C -0.4670(55) 0.4340(34) 0.0106(35)
S3? S 0.1664(7) 0.1777(5) 0.0962(4)
O9? O 0.1261(21) 0.2363(14) 0.1518(9)
O10? O 0.0695(15) 0.1392(10) 0.0716(9)
O11? O 0.2655(17) 0.1430(10) 0.1279(9)
F7? F 0.2568(16) 0.2066(14) -0.0304(8)
F8? F 0.3044(16) 0.2951(10) 0.0448(9)
F9? F 0.1164(17) 0.2870(10) 0.0001(9)
C61? C 0.2106(25) 0.2456(14) 0.0263(16)
O12? O -0.014(13) 0.5360(86) 0.1126(72)
C62? C -0.0874(98) 0.4436(67) 0.1183(55)
C63? C 0.0969(46) 0.4515(28) 0.1118(26)
C64? C -0.0934(58) 0.3423(38) 0.1552(33)
O13? O -0.0956(47) 0.4453(29) 0.1432(26)
C65? C 0.0391(74) 0.5048(46) 0.1229(40)
C66? C 0.1760(72) 0.5030(42) 0.0738(40)
C67? C 0.0040(38) 0.5716(25) 0.1141(21)
loop_
_geom_bond_atom_site_label_1
_geom_bond_atom_site_label_2
_geom_bond_site_symmetry_1
_geom_bond_site_symmetry_2
Pt1 P1 1_555 1_555
Pd1 P3 1_555 1_555
P1 C15 1_555 1_555
P2 Pt1 1_555 1_555
P3 C42 1_555 1_555
P4 Pd1 1_555 1_555
N1 Pd1 1_555 1_555
N2 C12 1_555 1_555
C1 Pt1 1_555 1_555
C2 C1 1_555 1_555
C3 C2 1_555 1_555
C4 C3 1_555 1_555
C5 N1 1_555 1_555
C6 N1 1_555 1_555
C7 C3 1_555 1_555
C8 Pt1 1_555 1_555
C9 C8 1_555 1_555
C10 C9 1_555 1_555
C11 C10 1_555 1_555
C12 C11 1_555 1_555
C13 N2 1_555 1_555
C14 C10 1_555 1_555
C15 C16 1_555 1_555
C16 C17 1_555 1_555
C17 C18 1_555 1_555
C18 C19 1_555 1_555
C19 C20 1_555 1_555
C20 C15 1_555 1_555
C21 P1 1_555 1_555
C22 C21 1_555 1_555
C23 C22 1_555 1_555
C24 C23 1_555 1_555
C25 C24 1_555 1_555
C26 C21 1_555 1_555
C27 P1 1_555 1_555
C28 C27 1_555 1_555
C29 P2 1_555 1_555
C30 P2 1_555 1_555
C31 C30 1_555 1_555
C32 C31 1_555 1_555
C33 C32 1_555 1_555
C34 C33 1_555 1_555
C35 C30 1_555 1_555
C36 P2 1_555 1_555
C37 C36 1_555 1_555
C38 C37 1_555 1_555
C39 C38 1_555 1_555
C40 C39 1_555 1_555
C41 C36 1_555 1_555
C42 C43 1_555 1_555
C43 H37 1_555 1_555
C44 P3 1_555 1_555
C45 C44 1_555 1_555
C46 P3 1_555 1_555
C47 C46 1_555 1_555
C48 P4 1_555 1_555
C49 C48 1_555 1_555
C50 P4 1_555 1_555
C51 C50 1_555 1_555
C52 P4 1_555 1_555
C53 C52 1_555 1_555
H1 C4 1_555 1_555
H2 C5 1_555 1_555
H3 C6 1_555 1_555
H4 C7 1_555 1_555
H5 C11 1_555 1_555
H6 C12 1_555 1_555
H7 C13 1_555 1_555
H8 C14 1_555 1_555
H9 C16 1_555 1_555
H10 C17 1_555 1_555
H11 C18 1_555 1_555
H12 C19 1_555 1_555
H13 C20 1_555 1_555
H14 C22 1_555 1_555
H15 C23 1_555 1_555
H16 C24 1_555 1_555
H17 C25 1_555 1_555
H18 C26 1_555 1_555
H19 C27 1_555 1_555
H20 C27 1_555 1_555
H21 C28 1_555 1_555
H22 C28 1_555 1_555
H23 C29 1_555 1_555
H24 C29 1_555 1_555
H25 C31 1_555 1_555
H26 C32 1_555 1_555
H27 C33 1_555 1_555
H28 C34 1_555 1_555
H29 C35 1_555 1_555
H30 C37 1_555 1_555
H31 C38 1_555 1_555
H32 C39 1_555 1_555
H33 C40 1_555 1_555
H34 C41 1_555 1_555
H35 C42 1_555 1_555
H36 C42 1_555 1_555
H38 C43 1_555 1_555
H39 C43 1_555 1_555
H40 C44 1_555 1_555
H41 C44 1_555 1_555
H42 C45 1_555 1_555
H43 C45 1_555 1_555
H44 C45 1_555 1_555
H45 C46 1_555 1_555
H46 C46 1_555 1_555
H47 C47 1_555 1_555
H48 C47 1_555 1_555
H49 C47 1_555 1_555
H50 C48 1_555 1_555
H51 C48 1_555 1_555
H52 C49 1_555 1_555
H53 C49 1_555 1_555
H54 C49 1_555 1_555
H55 C50 1_555 1_555
H56 C50 1_555 1_555
H57 C51 1_555 1_555
H58 C51 1_555 1_555
H59 C51 1_555 1_555
H60 C52 1_555 1_555
H61 C52 1_555 1_555
H62 C53 1_555 1_555
H63 C53 1_555 1_555
H64 C53 1_555 1_555
S1 O1 1_555 1_555
F1 C54 1_555 1_555
F2 C54 1_555 1_555
F3 C54 1_555 1_555
O2 S1 1_555 1_555
O3 S1 1_555 1_555
C54 S1 1_555 1_555
S2 O4 1_555 1_555
O5 S2 1_555 1_555
O6 S2 1_555 1_555
F4 C55 1_555 1_555
F5 C55 1_555 1_555
F6 C55 1_555 1_555
C55 S2 1_555 1_555
O7 C56 1_555 1_555
C56 C57 1_555 1_555
C58 C56 1_555 1_555
Pt1A P1A 1_555 1_555
Pd1A N2 1_555 1_555
P1A C15A 1_555 1_555
P2A Pt1A 1_555 1_555
P3A Pd1A 1_555 1_555
P4A Pd1A 1_555 1_555
N1A Pd1A 1_555 1_555
N2A Pd1 1_555 1_555
C1A Pt1A 1_555 1_555
C2A C1A 1_555 1_555
C3A C2A 1_555 1_555
C4A C3A 1_555 1_555
C5A N1A 1_555 1_555
C6A N1A 1_555 1_555
C7A C3A 1_555 1_555
C8A Pt1A 1_555 1_555
C9A C8A 1_555 1_555
C10A C9A 1_555 1_555
C11A C10A 1_555 1_555
C12A N2A 1_555 1_555
C13A N2A 1_555 1_555
C14A C10A 1_555 1_555
C15A C16A 1_555 1_555
C16A C17A 1_555 1_555
C17A C18A 1_555 1_555
C18A C19A 1_555 1_555
C19A C20A 1_555 1_555
C20A C15A 1_555 1_555
C21A P1A 1_555 1_555
C22A C21A 1_555 1_555
C23A C22A 1_555 1_555
C24A C23A 1_555 1_555
C25A C24A 1_555 1_555
C26A C21A 1_555 1_555
C27A P1A 1_555 1_555
C28A C27A 1_555 1_555
C29A P2A 1_555 1_555
C30A P2A 1_555 1_555
C31A C30A 1_555 1_555
C32A C31A 1_555 1_555
C33A C32A 1_555 1_555
C34A C33A 1_555 1_555
C35A C30A 1_555 1_555
C36A P2A 1_555 1_555
C37A C36A 1_555 1_555
C38A C37A 1_555 1_555
C39A C38A 1_555 1_555
C40A C39A 1_555 1_555
C41A C36A 1_555 1_555
C42A P3A 1_555 1_555
C43A C42A 1_555 1_555
C44A P3A 1_555 1_555
C45A C44A 1_555 1_555
C46A P3A 1_555 1_555
C47A C46A 1_555 1_555
C48A P4A 1_555 1_555
C49A C48A 1_555 1_555
C50A P4A 1_555 1_555
C51A C50A 1_555 1_555
C52A P4A 1_555 1_555
C53A C52A 1_555 1_555
H1A C4A 1_555 1_555
H2A C5A 1_555 1_555
H3A C6A 1_555 1_555
H4A C7A 1_555 1_555
H5A C11A 1_555 1_555
H6A C12A 1_555 1_555
H7A C13A 1_555 1_555
H8A C14A 1_555 1_555
H9A C16A 1_555 1_555
H10A C17A 1_555 1_555
H11A C18A 1_555 1_555
H12A C19A 1_555 1_555
H13A C20A 1_555 1_555
H14A C22A 1_555 1_555
H15A C23A 1_555 1_555
H16A C24A 1_555 1_555
H17A C25A 1_555 1_555
H18A C26A 1_555 1_555
H19A C27A 1_555 1_555
H20A C27A 1_555 1_555
H21A C28A 1_555 1_555
H22A C28A 1_555 1_555
H23A C29A 1_555 1_555
H24A C29A 1_555 1_555
H25A C31A 1_555 1_555
H26A C32A 1_555 1_555
H27A C33A 1_555 1_555
H28A C34A 1_555 1_555
H29A C35A 1_555 1_555
H30A C37A 1_555 1_555
H31A C38A 1_555 1_555
H32A C39A 1_555 1_555
H33A C40A 1_555 1_555
H34A C41A 1_555 1_555
H35A C42A 1_555 1_555
H36A C42A 1_555 1_555
H37A C43A 1_555 1_555
H38A C43A 1_555 1_555
H39A C43A 1_555 1_555
H40A C44A 1_555 1_555
H41A C44A 1_555 1_555
H42A C45A 1_555 1_555
H43A C45A 1_555 1_555
H44A C45A 1_555 1_555
H45A C46A 1_555 1_555
H46A C46A 1_555 1_555
H47A C47A 1_555 1_555
H48A C47A 1_555 1_555
H49A C47A 1_555 1_555
H50A C48A 1_555 1_555
H51A C48A 1_555 1_555
H52A C49A 1_555 1_555
H53A C49A 1_555 1_555
H54A C49A 1_555 1_555
H55A C50A 1_555 1_555
H56A C50A 1_555 1_555
H57A C51A 1_555 1_555
H58A C51A 1_555 1_555
H59A C51A 1_555 1_555
H60A C52A 1_555 1_555
H61A C52A 1_555 1_555
H62A C53A 1_555 1_555
H63A C53A 1_555 1_555
H64A C53A 1_555 1_555
C4 C5 1_555 1_555
C6 C7 1_555 1_555
C13 C14 1_555 1_555
C25 C26 1_555 1_555
C28 C29 1_555 1_555
C34 C35 1_555 1_555
C40 C41 1_555 1_555
C4A C5A 1_555 1_555
C6A C7A 1_555 1_555
C11A C12A 1_555 1_555
C13A C14A 1_555 1_555
C25A C26A 1_555 1_555
C28A C29A 1_555 1_555
C34A C35A 1_555 1_555
C40A C41A 1_555 1_555

#END
