# generated using pymatgen
data_Si4P4H488Pd12Pt2C298N107Cl4O251
_symmetry_space_group_name_H-M   'P 1'
_cell_length_a   22.19800000
_cell_length_b   22.62800000
_cell_length_c   41.50400000
_cell_angle_alpha   90.00000000
_cell_angle_beta   90.00000000
_cell_angle_gamma   90.00000000
_symmetry_Int_Tables_number   1
_chemical_formula_structural   Si4P4H488Pd12Pt2C298N107Cl4O251
_chemical_formula_sum   'Si8 P8 H976 Pd24 Pt4 C596 N214 Cl8 O502'
_cell_volume   20847.30746138
_cell_formula_units_Z   2
loop_
 _symmetry_equiv_pos_site_id
 _symmetry_equiv_pos_as_xyz
  1  'x, y, z'
loop_
 _atom_site_type_symbol
 _atom_site_label
 _atom_site_symmetry_multiplicity
 _atom_site_fract_x
 _atom_site_fract_y
 _atom_site_fract_z
 _atom_site_occupancy
  Si  Si1  1  0.250000  0.378100  0.789680  1
  Si  Si2  1  0.750000  0.121900  0.289680  1
  Si  Si3  1  0.750000  0.621900  0.210320  1
  Si  Si4  1  0.250000  0.878100  0.710320  1
  Si  Si5  1  0.250000  0.703300  0.812060  1
  Si  Si6  1  0.750000  0.796700  0.312060  1
  Si  Si7  1  0.750000  0.296700  0.187940  1
  Si  Si8  1  0.250000  0.203300  0.687940  1
  P  P9  1  0.353510  0.507560  0.918430  1.0
  P  P10  1  0.646490  0.992440  0.418430  1.0
  P  P11  1  0.853510  0.492440  0.081570  1.0
  P  P12  1  0.146490  0.007560  0.581570  1.0
  P  P13  1  0.646490  0.492440  0.081570  1.0
  P  P14  1  0.353510  0.007560  0.581570  1.0
  P  P15  1  0.146490  0.507560  0.918430  1.0
  P  P16  1  0.853510  0.992440  0.418430  1.0
  H  H17  1  0.427800  0.538500  0.953200  1
  H  H18  1  0.572200  0.961500  0.453200  1
  H  H19  1  0.927800  0.461500  0.046800  1
  H  H20  1  0.072200  0.038500  0.546800  1
  H  H21  1  0.572200  0.461500  0.046800  1
  H  H22  1  0.427800  0.038500  0.546800  1
  H  H23  1  0.072200  0.538500  0.953200  1
  H  H24  1  0.927800  0.961500  0.453200  1
  H  H25  1  0.367200  0.575200  0.959200  1
  H  H26  1  0.632800  0.924800  0.459200  1
  H  H27  1  0.867200  0.424800  0.040800  1
  H  H28  1  0.132800  0.075200  0.540800  1
  H  H29  1  0.632800  0.424800  0.040800  1
  H  H30  1  0.367200  0.075200  0.540800  1
  H  H31  1  0.132800  0.575200  0.959200  1
  H  H32  1  0.867200  0.924800  0.459200  1
  H  H33  1  0.384400  0.511800  0.004500  1
  H  H34  1  0.615600  0.988200  0.504500  1
  H  H35  1  0.884400  0.488200  0.995500  1
  H  H36  1  0.115600  0.011800  0.495500  1
  H  H37  1  0.615600  0.488200  0.995500  1
  H  H38  1  0.384400  0.011800  0.495500  1
  H  H39  1  0.115600  0.511800  0.004500  1
  H  H40  1  0.884400  0.988200  0.504500  1
  H  H41  1  0.385800  0.455200  0.981400  1
  H  H42  1  0.614200  0.044800  0.481400  1
  H  H43  1  0.885800  0.544800  0.018600  1
  H  H44  1  0.114200  0.955200  0.518600  1
  H  H45  1  0.614200  0.544800  0.018600  1
  H  H46  1  0.385800  0.955200  0.518600  1
  H  H47  1  0.114200  0.455200  0.981400  1
  H  H48  1  0.885800  0.044800  0.481400  1
  H  H49  1  0.324200  0.490600  0.986700  1
  H  H50  1  0.675800  0.009400  0.486700  1
  H  H51  1  0.824200  0.509400  0.013300  1
  H  H52  1  0.175800  0.990600  0.513300  1
  H  H53  1  0.675800  0.509400  0.013300  1
  H  H54  1  0.324200  0.990600  0.513300  1
  H  H55  1  0.175800  0.490600  0.986700  1
  H  H56  1  0.824200  0.009400  0.486700  1
  H  H57  1  0.434500  0.444100  0.920000  1
  H  H58  1  0.565500  0.055900  0.420000  1
  H  H59  1  0.934500  0.555900  0.080000  1
  H  H60  1  0.065500  0.944100  0.580000  1
  H  H61  1  0.565500  0.555900  0.080000  1
  H  H62  1  0.434500  0.944100  0.580000  1
  H  H63  1  0.065500  0.444100  0.920000  1
  H  H64  1  0.934500  0.055900  0.420000  1
  H  H65  1  0.374100  0.409900  0.929400  1
  H  H66  1  0.625900  0.090100  0.429400  1
  H  H67  1  0.874100  0.590100  0.070600  1
  H  H68  1  0.125900  0.909900  0.570600  1
  H  H69  1  0.625900  0.590100  0.070600  1
  H  H70  1  0.374100  0.909900  0.570600  1
  H  H71  1  0.125900  0.409900  0.929400  1
  H  H72  1  0.874100  0.090100  0.429400  1
  H  H73  1  0.402000  0.370100  0.881800  1
  H  H74  1  0.598000  0.129900  0.381800  1
  H  H75  1  0.902000  0.629900  0.118200  1
  H  H76  1  0.098000  0.870100  0.618200  1
  H  H77  1  0.598000  0.629900  0.118200  1
  H  H78  1  0.402000  0.870100  0.618200  1
  H  H79  1  0.098000  0.370100  0.881800  1
  H  H80  1  0.902000  0.129900  0.381800  1
  H  H81  1  0.416500  0.433300  0.866300  1
  H  H82  1  0.583500  0.066700  0.366300  1
  H  H83  1  0.916500  0.566700  0.133700  1
  H  H84  1  0.083500  0.933300  0.633700  1
  H  H85  1  0.583500  0.566700  0.133700  1
  H  H86  1  0.416500  0.933300  0.633700  1
  H  H87  1  0.083500  0.433300  0.866300  1
  H  H88  1  0.916500  0.066700  0.366300  1
  H  H89  1  0.348200  0.413900  0.872400  1
  H  H90  1  0.651800  0.086100  0.372400  1
  H  H91  1  0.848200  0.586100  0.127600  1
  H  H92  1  0.151800  0.913900  0.627600  1
  H  H93  1  0.651800  0.586100  0.127600  1
  H  H94  1  0.348200  0.913900  0.627600  1
  H  H95  1  0.151800  0.413900  0.872400  1
  H  H96  1  0.848200  0.086100  0.372400  1
  H  H97  1  0.383100  0.596400  0.897700  1
  H  H98  1  0.616900  0.903600  0.397700  1
  H  H99  1  0.883100  0.403600  0.102300  1
  H  H100  1  0.116900  0.096400  0.602300  1
  H  H101  1  0.616900  0.403600  0.102300  1
  H  H102  1  0.383100  0.096400  0.602300  1
  H  H103  1  0.116900  0.596400  0.897700  1
  H  H104  1  0.883100  0.903600  0.397700  1
  H  H105  1  0.428100  0.545300  0.886600  1
  H  H106  1  0.571900  0.954700  0.386600  1
  H  H107  1  0.928100  0.454700  0.113400  1
  H  H108  1  0.071900  0.045300  0.613400  1
  H  H109  1  0.571900  0.454700  0.113400  1
  H  H110  1  0.428100  0.045300  0.613400  1
  H  H111  1  0.071900  0.545300  0.886600  1
  H  H112  1  0.928100  0.954700  0.386600  1
  H  H113  1  0.311400  0.564600  0.857800  1
  H  H114  1  0.688600  0.935400  0.357800  1
  H  H115  1  0.811400  0.435400  0.142200  1
  H  H116  1  0.188600  0.064600  0.642200  1
  H  H117  1  0.688600  0.435400  0.142200  1
  H  H118  1  0.311400  0.064600  0.642200  1
  H  H119  1  0.188600  0.564600  0.857800  1
  H  H120  1  0.811400  0.935400  0.357800  1
  H  H121  1  0.356900  0.513800  0.846600  1
  H  H122  1  0.643100  0.986200  0.346600  1
  H  H123  1  0.856900  0.486200  0.153400  1
  H  H124  1  0.143100  0.013800  0.653400  1
  H  H125  1  0.643100  0.486200  0.153400  1
  H  H126  1  0.356900  0.013800  0.653400  1
  H  H127  1  0.143100  0.513800  0.846600  1
  H  H128  1  0.856900  0.986200  0.346600  1
  H  H129  1  0.373900  0.581800  0.841100  1
  H  H130  1  0.626100  0.918200  0.341100  1
  H  H131  1  0.873900  0.418200  0.158900  1
  H  H132  1  0.126100  0.081800  0.658900  1
  H  H133  1  0.626100  0.418200  0.158900  1
  H  H134  1  0.373900  0.081800  0.658900  1
  H  H135  1  0.126100  0.581800  0.841100  1
  H  H136  1  0.873900  0.918200  0.341100  1
  H  H137  1  0.278400  0.433200  0.183300  1
  H  H138  1  0.721600  0.066800  0.683300  1
  H  H139  1  0.778400  0.566800  0.816700  1
  H  H140  1  0.221600  0.933200  0.316700  1
  H  H141  1  0.721600  0.566800  0.816700  1
  H  H142  1  0.278400  0.933200  0.316700  1
  H  H143  1  0.221600  0.433200  0.183300  1
  H  H144  1  0.778400  0.066800  0.683300  1
  H  H145  1  0.313500  0.610400  0.698700  1.0
  H  H146  1  0.686500  0.889600  0.198700  1.0
  H  H147  1  0.813500  0.389600  0.301300  1.0
  H  H148  1  0.186500  0.110400  0.801300  1.0
  H  H149  1  0.686500  0.389600  0.301300  1.0
  H  H150  1  0.313500  0.110400  0.801300  1.0
  H  H151  1  0.186500  0.610400  0.698700  1.0
  H  H152  1  0.813500  0.889600  0.198700  1.0
  H  H153  1  0.377500  0.610100  0.741700  1.0
  H  H154  1  0.622500  0.889900  0.241700  1.0
  H  H155  1  0.877500  0.389900  0.258300  1.0
  H  H156  1  0.122500  0.110100  0.758300  1.0
  H  H157  1  0.622500  0.389900  0.258300  1.0
  H  H158  1  0.377500  0.110100  0.758300  1.0
  H  H159  1  0.122500  0.610100  0.741700  1.0
  H  H160  1  0.877500  0.889900  0.241700  1.0
  H  H161  1  0.389200  0.433600  0.733800  1.0
  H  H162  1  0.610800  0.066400  0.233800  1.0
  H  H163  1  0.889200  0.566400  0.266200  1.0
  H  H164  1  0.110800  0.933600  0.766200  1.0
  H  H165  1  0.610800  0.566400  0.266200  1.0
  H  H166  1  0.389200  0.933600  0.766200  1.0
  H  H167  1  0.110800  0.433600  0.733800  1.0
  H  H168  1  0.889200  0.066400  0.233800  1.0
  H  H169  1  0.323200  0.437300  0.690800  1.0
  H  H170  1  0.676800  0.062700  0.190800  1.0
  H  H171  1  0.823200  0.562700  0.309200  1.0
  H  H172  1  0.176800  0.937300  0.809200  1.0
  H  H173  1  0.676800  0.562700  0.309200  1.0
  H  H174  1  0.323200  0.937300  0.809200  1.0
  H  H175  1  0.176800  0.437300  0.690800  1.0
  H  H176  1  0.823200  0.062700  0.190800  1.0
  H  H177  1  0.455200  0.678500  0.796200  1.0
  H  H178  1  0.544800  0.821500  0.296200  1.0
  H  H179  1  0.955200  0.321500  0.203800  1.0
  H  H180  1  0.044800  0.178500  0.703800  1.0
  H  H181  1  0.544800  0.321500  0.203800  1.0
  H  H182  1  0.455200  0.178500  0.703800  1.0
  H  H183  1  0.044800  0.678500  0.796200  1.0
  H  H184  1  0.955200  0.821500  0.296200  1.0
  H  H185  1  0.480500  0.764400  0.823300  1.0
  H  H186  1  0.519500  0.735600  0.323300  1.0
  H  H187  1  0.980500  0.235600  0.176700  1.0
  H  H188  1  0.019500  0.264400  0.676700  1.0
  H  H189  1  0.519500  0.235600  0.176700  1.0
  H  H190  1  0.480500  0.264400  0.676700  1.0
  H  H191  1  0.019500  0.764400  0.823300  1.0
  H  H192  1  0.980500  0.735600  0.323300  1.0
  H  H193  1  0.570200  0.673600  0.888800  1.0
  H  H194  1  0.429800  0.826400  0.388800  1.0
  H  H195  1  0.070200  0.326400  0.111200  1.0
  H  H196  1  0.929800  0.173600  0.611200  1.0
  H  H197  1  0.429800  0.326400  0.111200  1.0
  H  H198  1  0.570200  0.173600  0.611200  1.0
  H  H199  1  0.929800  0.673600  0.888800  1.0
  H  H200  1  0.070200  0.826400  0.388800  1.0
  H  H201  1  0.546600  0.585000  0.863500  1.0
  H  H202  1  0.453400  0.915000  0.363500  1.0
  H  H203  1  0.046600  0.415000  0.136500  1.0
  H  H204  1  0.953400  0.085000  0.636500  1.0
  H  H205  1  0.453400  0.415000  0.136500  1.0
  H  H206  1  0.546600  0.085000  0.636500  1.0
  H  H207  1  0.953400  0.585000  0.863500  1.0
  H  H208  1  0.046600  0.915000  0.363500  1.0
  H  H209  1  0.461400  0.358900  0.786300  1.0
  H  H210  1  0.538600  0.141100  0.286300  1.0
  H  H211  1  0.961400  0.641100  0.213700  1.0
  H  H212  1  0.038600  0.858900  0.713700  1.0
  H  H213  1  0.538600  0.641100  0.213700  1.0
  H  H214  1  0.461400  0.858900  0.713700  1.0
  H  H215  1  0.038600  0.358900  0.786300  1.0
  H  H216  1  0.961400  0.141100  0.286300  1.0
  H  H217  1  0.486100  0.268000  0.808900  1.0
  H  H218  1  0.513900  0.232000  0.308900  1.0
  H  H219  1  0.986100  0.732000  0.191100  1.0
  H  H220  1  0.013900  0.768000  0.691100  1.0
  H  H221  1  0.513900  0.732000  0.191100  1.0
  H  H222  1  0.486100  0.768000  0.691100  1.0
  H  H223  1  0.013900  0.268000  0.808900  1.0
  H  H224  1  0.986100  0.232000  0.308900  1.0
  H  H225  1  0.569700  0.348500  0.881000  1.0
  H  H226  1  0.430300  0.151500  0.381000  1.0
  H  H227  1  0.069700  0.651500  0.119000  1.0
  H  H228  1  0.930300  0.848500  0.619000  1.0
  H  H229  1  0.430300  0.651500  0.119000  1.0
  H  H230  1  0.569700  0.848500  0.619000  1.0
  H  H231  1  0.930300  0.348500  0.881000  1.0
  H  H232  1  0.069700  0.151500  0.381000  1.0
  H  H233  1  0.549700  0.440400  0.859600  1.0
  H  H234  1  0.450300  0.059600  0.359600  1.0
  H  H235  1  0.049700  0.559600  0.140400  1.0
  H  H236  1  0.950300  0.940400  0.640400  1.0
  H  H237  1  0.450300  0.559600  0.140400  1.0
  H  H238  1  0.549700  0.940400  0.640400  1.0
  H  H239  1  0.950300  0.440400  0.859600  1.0
  H  H240  1  0.049700  0.059600  0.359600  1.0
  H  H241  1  0.412800  0.206500  0.859100  1.0
  H  H242  1  0.587200  0.293500  0.359100  1.0
  H  H243  1  0.912800  0.793500  0.140900  1.0
  H  H244  1  0.087200  0.706500  0.640900  1.0
  H  H245  1  0.587200  0.793500  0.140900  1.0
  H  H246  1  0.412800  0.706500  0.640900  1.0
  H  H247  1  0.087200  0.206500  0.859100  1.0
  H  H248  1  0.912800  0.293500  0.359100  1.0
  H  H249  1  0.321600  0.231400  0.882900  1.0
  H  H250  1  0.678400  0.268600  0.382900  1.0
  H  H251  1  0.821600  0.768600  0.117100  1.0
  H  H252  1  0.178400  0.731400  0.617100  1.0
  H  H253  1  0.678400  0.768600  0.117100  1.0
  H  H254  1  0.321600  0.731400  0.617100  1.0
  H  H255  1  0.178400  0.231400  0.882900  1.0
  H  H256  1  0.821600  0.268600  0.382900  1.0
  H  H257  1  0.414400  0.298200  0.958400  1.0
  H  H258  1  0.585600  0.201800  0.458400  1.0
  H  H259  1  0.914400  0.701800  0.041600  1.0
  H  H260  1  0.085600  0.798200  0.541600  1.0
  H  H261  1  0.585600  0.701800  0.041600  1.0
  H  H262  1  0.414400  0.798200  0.541600  1.0
  H  H263  1  0.085600  0.298200  0.958400  1.0
  H  H264  1  0.914400  0.201800  0.458400  1.0
  H  H265  1  0.503900  0.273400  0.931900  1.0
  H  H266  1  0.496100  0.226600  0.431900  1.0
  H  H267  1  0.003900  0.726600  0.068100  1.0
  H  H268  1  0.996100  0.773400  0.568100  1.0
  H  H269  1  0.496100  0.726600  0.068100  1.0
  H  H270  1  0.503900  0.773400  0.568100  1.0
  H  H271  1  0.996100  0.273400  0.931900  1.0
  H  H272  1  0.003900  0.226600  0.431900  1.0
  H  H273  1  0.340500  0.365700  0.015600  1.0
  H  H274  1  0.659500  0.134300  0.515600  1.0
  H  H275  1  0.840500  0.634300  0.984400  1.0
  H  H276  1  0.159500  0.865700  0.484400  1.0
  H  H277  1  0.659500  0.634300  0.984400  1.0
  H  H278  1  0.340500  0.865700  0.484400  1.0
  H  H279  1  0.159500  0.365700  0.015600  1.0
  H  H280  1  0.840500  0.134300  0.515600  1.0
  H  H281  1  0.338900  0.422700  0.061600  1.0
  H  H282  1  0.661100  0.077300  0.561600  1.0
  H  H283  1  0.838900  0.577300  0.938400  1.0
  H  H284  1  0.161100  0.922700  0.438400  1.0
  H  H285  1  0.661100  0.577300  0.938400  1.0
  H  H286  1  0.338900  0.922700  0.438400  1.0
  H  H287  1  0.161100  0.422700  0.061600  1.0
  H  H288  1  0.838900  0.077300  0.561600  1.0
  H  H289  1  0.502500  0.729400  0.941000  1.0
  H  H290  1  0.497500  0.770600  0.441000  1.0
  H  H291  1  0.002500  0.270600  0.059000  1.0
  H  H292  1  0.997500  0.229400  0.559000  1.0
  H  H293  1  0.497500  0.270600  0.059000  1.0
  H  H294  1  0.502500  0.229400  0.559000  1.0
  H  H295  1  0.997500  0.729400  0.941000  1.0
  H  H296  1  0.002500  0.770600  0.441000  1.0
  H  H297  1  0.414700  0.699100  0.967100  1.0
  H  H298  1  0.585300  0.800900  0.467100  1.0
  H  H299  1  0.914700  0.300900  0.032900  1.0
  H  H300  1  0.085300  0.199100  0.532900  1.0
  H  H301  1  0.585300  0.300900  0.032900  1.0
  H  H302  1  0.414700  0.199100  0.532900  1.0
  H  H303  1  0.085300  0.699100  0.967100  1.0
  H  H304  1  0.914700  0.800900  0.467100  1.0
  H  H305  1  0.320400  0.802100  0.905400  1.0
  H  H306  1  0.679600  0.697900  0.405400  1.0
  H  H307  1  0.820400  0.197900  0.094600  1.0
  H  H308  1  0.179600  0.302100  0.594600  1.0
  H  H309  1  0.679600  0.197900  0.094600  1.0
  H  H310  1  0.320400  0.302100  0.594600  1.0
  H  H311  1  0.179600  0.802100  0.905400  1.0
  H  H312  1  0.820400  0.697900  0.405400  1.0
  H  H313  1  0.410000  0.827900  0.880800  1.0
  H  H314  1  0.590000  0.672100  0.380800  1.0
  H  H315  1  0.910000  0.172100  0.119200  1.0
  H  H316  1  0.090000  0.327900  0.619200  1.0
  H  H317  1  0.590000  0.172100  0.119200  1.0
  H  H318  1  0.410000  0.327900  0.619200  1.0
  H  H319  1  0.090000  0.827900  0.880800  1.0
  H  H320  1  0.910000  0.672100  0.380800  1.0
  H  H321  1  0.340200  0.624800  0.023700  1.0
  H  H322  1  0.659800  0.875200  0.523700  1.0
  H  H323  1  0.840200  0.375200  0.976300  1.0
  H  H324  1  0.159800  0.124800  0.476300  1.0
  H  H325  1  0.659800  0.375200  0.976300  1.0
  H  H326  1  0.340200  0.124800  0.476300  1.0
  H  H327  1  0.159800  0.624800  0.023700  1.0
  H  H328  1  0.840200  0.875200  0.523700  1.0
  H  H329  1  0.338200  0.559800  0.064900  1.0
  H  H330  1  0.661800  0.940200  0.564900  1.0
  H  H331  1  0.838200  0.440200  0.935100  1.0
  H  H332  1  0.161800  0.059800  0.435100  1.0
  H  H333  1  0.661800  0.440200  0.935100  1.0
  H  H334  1  0.338200  0.059800  0.435100  1.0
  H  H335  1  0.161800  0.559800  0.064900  1.0
  H  H336  1  0.838200  0.940200  0.564900  1.0
  H  H337  1  0.621900  0.939500  0.907000  1.0
  H  H338  1  0.378100  0.560500  0.407000  1.0
  H  H339  1  0.121900  0.060500  0.093000  1.0
  H  H340  1  0.878100  0.439500  0.593000  1.0
  H  H341  1  0.378100  0.060500  0.093000  1.0
  H  H342  1  0.621900  0.439500  0.593000  1.0
  H  H343  1  0.878100  0.939500  0.907000  1.0
  H  H344  1  0.121900  0.560500  0.407000  1.0
  H  H345  1  0.584500  0.935300  0.874000  1.0
  H  H346  1  0.415500  0.564700  0.374000  1.0
  H  H347  1  0.084500  0.064700  0.126000  1.0
  H  H348  1  0.915500  0.435300  0.626000  1.0
  H  H349  1  0.415500  0.064700  0.126000  1.0
  H  H350  1  0.584500  0.435300  0.626000  1.0
  H  H351  1  0.915500  0.935300  0.874000  1.0
  H  H352  1  0.084500  0.564700  0.374000  1.0
  H  H353  1  0.670400  0.850700  0.896200  1.0
  H  H354  1  0.329600  0.649300  0.396200  1.0
  H  H355  1  0.170400  0.149300  0.103800  1.0
  H  H356  1  0.829600  0.350700  0.603800  1.0
  H  H357  1  0.329600  0.149300  0.103800  1.0
  H  H358  1  0.670400  0.350700  0.603800  1.0
  H  H359  1  0.829600  0.850700  0.896200  1.0
  H  H360  1  0.170400  0.649300  0.396200  1.0
  H  H361  1  0.677700  0.892100  0.865100  1.0
  H  H362  1  0.322300  0.607900  0.365100  1.0
  H  H363  1  0.177700  0.107900  0.134900  1.0
  H  H364  1  0.822300  0.392100  0.634900  1.0
  H  H365  1  0.322300  0.107900  0.134900  1.0
  H  H366  1  0.677700  0.392100  0.634900  1.0
  H  H367  1  0.822300  0.892100  0.865100  1.0
  H  H368  1  0.177700  0.607900  0.365100  1.0
  H  H369  1  0.572200  0.880600  0.829100  1.0
  H  H370  1  0.427800  0.619400  0.329100  1.0
  H  H371  1  0.072200  0.119400  0.170900  1.0
  H  H372  1  0.927800  0.380600  0.670900  1.0
  H  H373  1  0.427800  0.119400  0.170900  1.0
  H  H374  1  0.572200  0.380600  0.670900  1.0
  H  H375  1  0.927800  0.880600  0.829100  1.0
  H  H376  1  0.072200  0.619400  0.329100  1.0
  H  H377  1  0.579600  0.815900  0.814000  1.0
  H  H378  1  0.420400  0.684100  0.314000  1.0
  H  H379  1  0.079600  0.184100  0.186000  1.0
  H  H380  1  0.920400  0.315900  0.686000  1.0
  H  H381  1  0.420400  0.184100  0.186000  1.0
  H  H382  1  0.579600  0.315900  0.686000  1.0
  H  H383  1  0.920400  0.815900  0.814000  1.0
  H  H384  1  0.079600  0.684100  0.314000  1.0
  H  H385  1  0.635900  0.860000  0.814900  1.0
  H  H386  1  0.364100  0.640000  0.314900  1.0
  H  H387  1  0.135900  0.140000  0.185100  1.0
  H  H388  1  0.864100  0.360000  0.685100  1.0
  H  H389  1  0.364100  0.140000  0.185100  1.0
  H  H390  1  0.635900  0.360000  0.685100  1.0
  H  H391  1  0.864100  0.860000  0.814900  1.0
  H  H392  1  0.135900  0.640000  0.314900  1.0
  H  H393  1  0.670400  0.757300  0.874900  1.0
  H  H394  1  0.329600  0.742700  0.374900  1.0
  H  H395  1  0.170400  0.242700  0.125100  1.0
  H  H396  1  0.829600  0.257300  0.625100  1.0
  H  H397  1  0.329600  0.242700  0.125100  1.0
  H  H398  1  0.670400  0.257300  0.625100  1.0
  H  H399  1  0.829600  0.757300  0.874900  1.0
  H  H400  1  0.170400  0.742700  0.374900  1.0
  H  H401  1  0.695200  0.786300  0.842400  1.0
  H  H402  1  0.304800  0.713700  0.342400  1.0
  H  H403  1  0.195200  0.213700  0.157600  1.0
  H  H404  1  0.804800  0.286300  0.657600  1.0
  H  H405  1  0.304800  0.213700  0.157600  1.0
  H  H406  1  0.695200  0.286300  0.657600  1.0
  H  H407  1  0.804800  0.786300  0.842400  1.0
  H  H408  1  0.195200  0.713700  0.342400  1.0
  H  H409  1  0.639200  0.741800  0.841200  1.0
  H  H410  1  0.360800  0.758200  0.341200  1.0
  H  H411  1  0.139200  0.258200  0.158800  1.0
  H  H412  1  0.860800  0.241800  0.658800  1.0
  H  H413  1  0.360800  0.258200  0.158800  1.0
  H  H414  1  0.639200  0.241800  0.658800  1.0
  H  H415  1  0.860800  0.741800  0.841200  1.0
  H  H416  1  0.139200  0.758200  0.341200  1.0
  H  H417  1  0.469900  0.898100  0.924500  1.0
  H  H418  1  0.530100  0.601900  0.424500  1.0
  H  H419  1  0.969900  0.101900  0.075500  1.0
  H  H420  1  0.030100  0.398100  0.575500  1.0
  H  H421  1  0.530100  0.101900  0.075500  1.0
  H  H422  1  0.469900  0.398100  0.575500  1.0
  H  H423  1  0.030100  0.898100  0.924500  1.0
  H  H424  1  0.969900  0.601900  0.424500  1.0
  H  H425  1  0.483200  0.924800  0.889500  1.0
  H  H426  1  0.516800  0.575200  0.389500  1.0
  H  H427  1  0.983200  0.075200  0.110500  1.0
  H  H428  1  0.016800  0.424800  0.610500  1.0
  H  H429  1  0.516800  0.075200  0.110500  1.0
  H  H430  1  0.483200  0.424800  0.610500  1.0
  H  H431  1  0.016800  0.924800  0.889500  1.0
  H  H432  1  0.983200  0.575200  0.389500  1.0
  H  H433  1  0.511100  0.955800  0.920800  1.0
  H  H434  1  0.488900  0.544200  0.420800  1.0
  H  H435  1  0.011100  0.044200  0.079200  1.0
  H  H436  1  0.988900  0.455800  0.579200  1.0
  H  H437  1  0.488900  0.044200  0.079200  1.0
  H  H438  1  0.511100  0.455800  0.579200  1.0
  H  H439  1  0.988900  0.955800  0.920800  1.0
  H  H440  1  0.011100  0.544200  0.420800  1.0
  H  H441  1  0.579200  0.902400  0.953300  1.0
  H  H442  1  0.420800  0.597600  0.453300  1.0
  H  H443  1  0.079200  0.097600  0.046700  1.0
  H  H444  1  0.920800  0.402400  0.546700  1.0
  H  H445  1  0.420800  0.097600  0.046700  1.0
  H  H446  1  0.579200  0.402400  0.546700  1.0
  H  H447  1  0.920800  0.902400  0.953300  1.0
  H  H448  1  0.079200  0.597600  0.453300  1.0
  H  H449  1  0.614100  0.845500  0.940000  1.0
  H  H450  1  0.385900  0.654500  0.440000  1.0
  H  H451  1  0.114100  0.154500  0.060000  1.0
  H  H452  1  0.885900  0.345500  0.560000  1.0
  H  H453  1  0.385900  0.154500  0.060000  1.0
  H  H454  1  0.614100  0.345500  0.560000  1.0
  H  H455  1  0.885900  0.845500  0.940000  1.0
  H  H456  1  0.114100  0.654500  0.440000  1.0
  H  H457  1  0.545400  0.840000  0.951300  1.0
  H  H458  1  0.454600  0.660000  0.451300  1.0
  H  H459  1  0.045400  0.160000  0.048700  1.0
  H  H460  1  0.954600  0.340000  0.548700  1.0
  H  H461  1  0.454600  0.160000  0.048700  1.0
  H  H462  1  0.545400  0.340000  0.548700  1.0
  H  H463  1  0.954600  0.840000  0.951300  1.0
  H  H464  1  0.045400  0.660000  0.451300  1.0
  H  H465  1  0.627000  0.078700  0.882700  1.0
  H  H466  1  0.373000  0.421300  0.382700  1.0
  H  H467  1  0.127000  0.921300  0.117300  1.0
  H  H468  1  0.873000  0.578700  0.617300  1.0
  H  H469  1  0.373000  0.921300  0.117300  1.0
  H  H470  1  0.627000  0.578700  0.617300  1.0
  H  H471  1  0.873000  0.078700  0.882700  1.0
  H  H472  1  0.127000  0.421300  0.382700  1.0
  H  H473  1  0.587900  0.092900  0.851100  1.0
  H  H474  1  0.412100  0.407100  0.351100  1.0
  H  H475  1  0.087900  0.907100  0.148900  1.0
  H  H476  1  0.912100  0.592900  0.648900  1.0
  H  H477  1  0.412100  0.907100  0.148900  1.0
  H  H478  1  0.587900  0.592900  0.648900  1.0
  H  H479  1  0.912100  0.092900  0.851100  1.0
  H  H480  1  0.087900  0.407100  0.351100  1.0
  H  H481  1  0.682900  0.136200  0.846000  1.0
  H  H482  1  0.317100  0.363800  0.346000  1.0
  H  H483  1  0.182900  0.863800  0.154000  1.0
  H  H484  1  0.817100  0.636200  0.654000  1.0
  H  H485  1  0.317100  0.863800  0.154000  1.0
  H  H486  1  0.682900  0.636200  0.654000  1.0
  H  H487  1  0.817100  0.136200  0.846000  1.0
  H  H488  1  0.182900  0.363800  0.346000  1.0
  H  H489  1  0.673500  0.171100  0.879300  1.0
  H  H490  1  0.326500  0.328900  0.379300  1.0
  H  H491  1  0.173500  0.828900  0.120700  1.0
  H  H492  1  0.826500  0.671100  0.620700  1.0
  H  H493  1  0.326500  0.828900  0.120700  1.0
  H  H494  1  0.673500  0.671100  0.620700  1.0
  H  H495  1  0.826500  0.171100  0.879300  1.0
  H  H496  1  0.173500  0.328900  0.379300  1.0
  H  H497  1  0.551100  0.168900  0.936800  1.0
  H  H498  1  0.448900  0.331100  0.436800  1.0
  H  H499  1  0.051100  0.831100  0.063200  1.0
  H  H500  1  0.948900  0.668900  0.563200  1.0
  H  H501  1  0.448900  0.831100  0.063200  1.0
  H  H502  1  0.551100  0.668900  0.563200  1.0
  H  H503  1  0.948900  0.168900  0.936800  1.0
  H  H504  1  0.051100  0.331100  0.436800  1.0
  H  H505  1  0.618400  0.175600  0.923600  1.0
  H  H506  1  0.381600  0.324400  0.423600  1.0
  H  H507  1  0.118400  0.824400  0.076400  1.0
  H  H508  1  0.881600  0.675600  0.576400  1.0
  H  H509  1  0.381600  0.824400  0.076400  1.0
  H  H510  1  0.618400  0.675600  0.576400  1.0
  H  H511  1  0.881600  0.175600  0.923600  1.0
  H  H512  1  0.118400  0.324400  0.423600  1.0
  H  H513  1  0.593400  0.111900  0.933700  1.0
  H  H514  1  0.406600  0.388100  0.433700  1.0
  H  H515  1  0.093400  0.888100  0.066300  1.0
  H  H516  1  0.906600  0.611900  0.566300  1.0
  H  H517  1  0.406600  0.888100  0.066300  1.0
  H  H518  1  0.593400  0.611900  0.566300  1.0
  H  H519  1  0.906600  0.111900  0.933700  1.0
  H  H520  1  0.093400  0.388100  0.433700  1.0
  H  H521  1  0.516700  0.064700  0.902900  1.0
  H  H522  1  0.483300  0.435300  0.402900  1.0
  H  H523  1  0.016700  0.935300  0.097100  1.0
  H  H524  1  0.983300  0.564700  0.597100  1.0
  H  H525  1  0.483300  0.935300  0.097100  1.0
  H  H526  1  0.516700  0.564700  0.597100  1.0
  H  H527  1  0.983300  0.064700  0.902900  1.0
  H  H528  1  0.016700  0.435300  0.402900  1.0
  H  H529  1  0.489600  0.095900  0.871500  1.0
  H  H530  1  0.510400  0.404100  0.371500  1.0
  H  H531  1  0.989600  0.904100  0.128500  1.0
  H  H532  1  0.010400  0.595900  0.628500  1.0
  H  H533  1  0.510400  0.904100  0.128500  1.0
  H  H534  1  0.489600  0.595900  0.628500  1.0
  H  H535  1  0.010400  0.095900  0.871500  1.0
  H  H536  1  0.989600  0.404100  0.371500  1.0
  H  H537  1  0.475900  0.122600  0.906400  1.0
  H  H538  1  0.524100  0.377400  0.406400  1.0
  H  H539  1  0.975900  0.877400  0.093600  1.0
  H  H540  1  0.024100  0.622600  0.593600  1.0
  H  H541  1  0.524100  0.877400  0.093600  1.0
  H  H542  1  0.475900  0.622600  0.593600  1.0
  H  H543  1  0.024100  0.122600  0.906400  1.0
  H  H544  1  0.975900  0.377400  0.406400  1.0
  H  H545  1  0.671400  0.269900  0.862200  1.0
  H  H546  1  0.328600  0.230100  0.362200  1.0
  H  H547  1  0.171400  0.730100  0.137800  1.0
  H  H548  1  0.828600  0.769900  0.637800  1.0
  H  H549  1  0.328600  0.730100  0.137800  1.0
  H  H550  1  0.671400  0.769900  0.637800  1.0
  H  H551  1  0.828600  0.269900  0.862200  1.0
  H  H552  1  0.171400  0.230100  0.362200  1.0
  H  H553  1  0.643100  0.287200  0.828100  1.0
  H  H554  1  0.356900  0.212800  0.328100  1.0
  H  H555  1  0.143100  0.712800  0.171900  1.0
  H  H556  1  0.856900  0.787200  0.671900  1.0
  H  H557  1  0.356900  0.712800  0.171900  1.0
  H  H558  1  0.643100  0.787200  0.671900  1.0
  H  H559  1  0.856900  0.287200  0.828100  1.0
  H  H560  1  0.143100  0.212800  0.328100  1.0
  H  H561  1  0.699900  0.243900  0.829800  1.0
  H  H562  1  0.300100  0.256100  0.329800  1.0
  H  H563  1  0.199900  0.756100  0.170200  1.0
  H  H564  1  0.800100  0.743900  0.670200  1.0
  H  H565  1  0.300100  0.756100  0.170200  1.0
  H  H566  1  0.699900  0.743900  0.670200  1.0
  H  H567  1  0.800100  0.243900  0.829800  1.0
  H  H568  1  0.199900  0.256100  0.329800  1.0
  H  H569  1  0.577500  0.150800  0.810300  1.0
  H  H570  1  0.422500  0.349200  0.310300  1.0
  H  H571  1  0.077500  0.849200  0.189700  1.0
  H  H572  1  0.922500  0.650800  0.689700  1.0
  H  H573  1  0.422500  0.849200  0.189700  1.0
  H  H574  1  0.577500  0.650800  0.689700  1.0
  H  H575  1  0.922500  0.150800  0.810300  1.0
  H  H576  1  0.077500  0.349200  0.310300  1.0
  H  H577  1  0.641300  0.173700  0.797300  1.0
  H  H578  1  0.358700  0.326300  0.297300  1.0
  H  H579  1  0.141300  0.826300  0.202700  1.0
  H  H580  1  0.858700  0.673700  0.702700  1.0
  H  H581  1  0.358700  0.826300  0.202700  1.0
  H  H582  1  0.641300  0.673700  0.702700  1.0
  H  H583  1  0.858700  0.173700  0.797300  1.0
  H  H584  1  0.141300  0.326300  0.297300  1.0
  H  H585  1  0.584600  0.217400  0.797800  1.0
  H  H586  1  0.415400  0.282600  0.297800  1.0
  H  H587  1  0.084600  0.782600  0.202200  1.0
  H  H588  1  0.915400  0.717400  0.702200  1.0
  H  H589  1  0.415400  0.782600  0.202200  1.0
  H  H590  1  0.584600  0.717400  0.702200  1.0
  H  H591  1  0.915400  0.217400  0.797800  1.0
  H  H592  1  0.084600  0.282600  0.297800  1.0
  H  H593  1  0.292300  0.572700  0.577300  1.0
  H  H594  1  0.707700  0.927300  0.077300  1.0
  H  H595  1  0.792300  0.427300  0.422700  1.0
  H  H596  1  0.207700  0.072700  0.922700  1.0
  H  H597  1  0.707700  0.427300  0.422700  1.0
  H  H598  1  0.292300  0.072700  0.922700  1.0
  H  H599  1  0.207700  0.572700  0.577300  1.0
  H  H600  1  0.792300  0.927300  0.077300  1.0
  H  H601  1  0.292300  0.502600  0.575600  1.0
  H  H602  1  0.707700  0.997400  0.075600  1.0
  H  H603  1  0.792300  0.497400  0.424400  1.0
  H  H604  1  0.207700  0.002600  0.924400  1.0
  H  H605  1  0.707700  0.497400  0.424400  1.0
  H  H606  1  0.292300  0.002600  0.924400  1.0
  H  H607  1  0.207700  0.502600  0.575600  1.0
  H  H608  1  0.792300  0.997400  0.075600  1.0
  H  H609  1  0.396900  0.498700  0.617600  1.0
  H  H610  1  0.603100  0.001300  0.117600  1.0
  H  H611  1  0.896900  0.501300  0.382400  1.0
  H  H612  1  0.103100  0.998700  0.882400  1.0
  H  H613  1  0.603100  0.501300  0.382400  1.0
  H  H614  1  0.396900  0.998700  0.882400  1.0
  H  H615  1  0.103100  0.498700  0.617600  1.0
  H  H616  1  0.896900  0.001300  0.117600  1.0
  H  H617  1  0.348200  0.461000  0.598000  1.0
  H  H618  1  0.651800  0.039000  0.098000  1.0
  H  H619  1  0.848200  0.539000  0.402000  1.0
  H  H620  1  0.151800  0.961000  0.902000  1.0
  H  H621  1  0.651800  0.539000  0.402000  1.0
  H  H622  1  0.348200  0.961000  0.902000  1.0
  H  H623  1  0.151800  0.461000  0.598000  1.0
  H  H624  1  0.848200  0.039000  0.098000  1.0
  H  H625  1  0.349200  0.458800  0.636500  1.0
  H  H626  1  0.650800  0.041200  0.136500  1.0
  H  H627  1  0.849200  0.541200  0.363500  1.0
  H  H628  1  0.150800  0.958800  0.863500  1.0
  H  H629  1  0.650800  0.541200  0.363500  1.0
  H  H630  1  0.349200  0.958800  0.863500  1.0
  H  H631  1  0.150800  0.458800  0.636500  1.0
  H  H632  1  0.849200  0.041200  0.136500  1.0
  H  H633  1  0.321400  0.622400  0.624300  1.0
  H  H634  1  0.678600  0.877600  0.124300  1.0
  H  H635  1  0.821400  0.377600  0.375700  1.0
  H  H636  1  0.178600  0.122400  0.875700  1.0
  H  H637  1  0.678600  0.377600  0.375700  1.0
  H  H638  1  0.321400  0.122400  0.875700  1.0
  H  H639  1  0.178600  0.622400  0.624300  1.0
  H  H640  1  0.821400  0.877600  0.124300  1.0
  H  H641  1  0.373400  0.593900  0.602500  1.0
  H  H642  1  0.626600  0.906100  0.102500  1.0
  H  H643  1  0.873400  0.406100  0.397500  1.0
  H  H644  1  0.126600  0.093900  0.897500  1.0
  H  H645  1  0.626600  0.406100  0.397500  1.0
  H  H646  1  0.373400  0.093900  0.897500  1.0
  H  H647  1  0.126600  0.593900  0.602500  1.0
  H  H648  1  0.873400  0.906100  0.102500  1.0
  H  H649  1  0.374700  0.585800  0.640800  1.0
  H  H650  1  0.625300  0.914200  0.140800  1.0
  H  H651  1  0.874700  0.414200  0.359200  1.0
  H  H652  1  0.125300  0.085800  0.859200  1.0
  H  H653  1  0.625300  0.414200  0.359200  1.0
  H  H654  1  0.374700  0.085800  0.859200  1.0
  H  H655  1  0.125300  0.585800  0.640800  1.0
  H  H656  1  0.874700  0.914200  0.140800  1.0
  H  H657  1  0.209300  0.450100  0.178500  1.0
  H  H658  1  0.790700  0.049900  0.678500  1.0
  H  H659  1  0.709300  0.549900  0.821500  1.0
  H  H660  1  0.290700  0.950100  0.321500  1.0
  H  H661  1  0.790700  0.549900  0.821500  1.0
  H  H662  1  0.209300  0.950100  0.321500  1.0
  H  H663  1  0.290700  0.450100  0.178500  1.0
  H  H664  1  0.709300  0.049900  0.678500  1.0
  H  H665  1  0.307700  0.512100  0.173300  1.0
  H  H666  1  0.692300  0.987900  0.673300  1.0
  H  H667  1  0.807700  0.487900  0.826700  1.0
  H  H668  1  0.192300  0.012100  0.326700  1.0
  H  H669  1  0.692300  0.487900  0.826700  1.0
  H  H670  1  0.307700  0.012100  0.326700  1.0
  H  H671  1  0.192300  0.512100  0.173300  1.0
  H  H672  1  0.807700  0.987900  0.673300  1.0
  H  H673  1  0.243500  0.527300  0.188100  1.0
  H  H674  1  0.756500  0.972700  0.688100  1.0
  H  H675  1  0.743500  0.472700  0.811900  1.0
  H  H676  1  0.256500  0.027300  0.311900  1.0
  H  H677  1  0.756500  0.472700  0.811900  1.0
  H  H678  1  0.243500  0.027300  0.311900  1.0
  H  H679  1  0.256500  0.527300  0.188100  1.0
  H  H680  1  0.743500  0.972700  0.688100  1.0
  H  H681  1  0.307300  0.603500  0.161900  1.0
  H  H682  1  0.692700  0.896500  0.661900  1.0
  H  H683  1  0.807300  0.396500  0.838100  1.0
  H  H684  1  0.192700  0.103500  0.338100  1.0
  H  H685  1  0.692700  0.396500  0.838100  1.0
  H  H686  1  0.307300  0.103500  0.338100  1.0
  H  H687  1  0.192700  0.603500  0.161900  1.0
  H  H688  1  0.807300  0.896500  0.661900  1.0
  H  H689  1  0.300700  0.612800  0.123800  1.0
  H  H690  1  0.699300  0.887200  0.623800  1.0
  H  H691  1  0.800700  0.387200  0.876200  1.0
  H  H692  1  0.199300  0.112800  0.376200  1.0
  H  H693  1  0.699300  0.387200  0.876200  1.0
  H  H694  1  0.300700  0.112800  0.376200  1.0
  H  H695  1  0.199300  0.612800  0.123800  1.0
  H  H696  1  0.800700  0.887200  0.623800  1.0
  H  H697  1  0.339600  0.558700  0.137500  1.0
  H  H698  1  0.660400  0.941300  0.637500  1.0
  H  H699  1  0.839600  0.441300  0.862500  1.0
  H  H700  1  0.160400  0.058700  0.362500  1.0
  H  H701  1  0.660400  0.441300  0.862500  1.0
  H  H702  1  0.339600  0.058700  0.362500  1.0
  H  H703  1  0.160400  0.558700  0.137500  1.0
  H  H704  1  0.839600  0.941300  0.637500  1.0
  H  H705  1  0.306200  0.360900  0.154700  1.0
  H  H706  1  0.693800  0.139100  0.654700  1.0
  H  H707  1  0.806200  0.639100  0.845300  1.0
  H  H708  1  0.193800  0.860900  0.345300  1.0
  H  H709  1  0.693800  0.639100  0.845300  1.0
  H  H710  1  0.306200  0.860900  0.345300  1.0
  H  H711  1  0.193800  0.360900  0.154700  1.0
  H  H712  1  0.806200  0.139100  0.654700  1.0
  H  H713  1  0.339500  0.408100  0.132100  1.0
  H  H714  1  0.660500  0.091900  0.632100  1.0
  H  H715  1  0.839500  0.591900  0.867900  1.0
  H  H716  1  0.160500  0.908100  0.367900  1.0
  H  H717  1  0.660500  0.591900  0.867900  1.0
  H  H718  1  0.339500  0.908100  0.367900  1.0
  H  H719  1  0.160500  0.408100  0.132100  1.0
  H  H720  1  0.839500  0.091900  0.632100  1.0
  H  H721  1  0.299000  0.357200  0.116400  1.0
  H  H722  1  0.701000  0.142800  0.616400  1.0
  H  H723  1  0.799000  0.642800  0.883600  1.0
  H  H724  1  0.201000  0.857200  0.383600  1.0
  H  H725  1  0.701000  0.642800  0.883600  1.0
  H  H726  1  0.299000  0.857200  0.383600  1.0
  H  H727  1  0.201000  0.357200  0.116400  1.0
  H  H728  1  0.799000  0.142800  0.616400  1.0
  H  H729  1  0.307200  0.786000  0.789600  1.0
  H  H730  1  0.692800  0.714000  0.289600  1.0
  H  H731  1  0.807200  0.214000  0.210400  1.0
  H  H732  1  0.192800  0.286000  0.710400  1.0
  H  H733  1  0.692800  0.214000  0.210400  1.0
  H  H734  1  0.307200  0.286000  0.710400  1.0
  H  H735  1  0.192800  0.786000  0.789600  1.0
  H  H736  1  0.807200  0.714000  0.289600  1.0
  H  H737  1  0.299100  0.736400  0.762500  1.0
  H  H738  1  0.700900  0.763600  0.262500  1.0
  H  H739  1  0.799100  0.263600  0.237500  1.0
  H  H740  1  0.200900  0.236400  0.737500  1.0
  H  H741  1  0.700900  0.263600  0.237500  1.0
  H  H742  1  0.299100  0.236400  0.737500  1.0
  H  H743  1  0.200900  0.736400  0.762500  1.0
  H  H744  1  0.799100  0.763600  0.262500  1.0
  H  H745  1  0.348900  0.728300  0.790000  1.0
  H  H746  1  0.651100  0.771700  0.290000  1.0
  H  H747  1  0.848900  0.271700  0.210000  1.0
  H  H748  1  0.151100  0.228300  0.710000  1.0
  H  H749  1  0.651100  0.271700  0.210000  1.0
  H  H750  1  0.348900  0.228300  0.710000  1.0
  H  H751  1  0.151100  0.728300  0.790000  1.0
  H  H752  1  0.848900  0.771700  0.290000  1.0
  H  H753  1  0.272100  0.738300  0.866200  1.0
  H  H754  1  0.727900  0.761700  0.366200  1.0
  H  H755  1  0.772100  0.261700  0.133800  1.0
  H  H756  1  0.227900  0.238300  0.633800  1.0
  H  H757  1  0.727900  0.261700  0.133800  1.0
  H  H758  1  0.272100  0.238300  0.633800  1.0
  H  H759  1  0.227900  0.738300  0.866200  1.0
  H  H760  1  0.772100  0.761700  0.366200  1.0
  H  H761  1  0.331300  0.708600  0.851200  1.0
  H  H762  1  0.668700  0.791400  0.351200  1.0
  H  H763  1  0.831300  0.291400  0.148800  1.0
  H  H764  1  0.168700  0.208600  0.648800  1.0
  H  H765  1  0.668700  0.291400  0.148800  1.0
  H  H766  1  0.331300  0.208600  0.648800  1.0
  H  H767  1  0.168700  0.708600  0.851200  1.0
  H  H768  1  0.831300  0.791400  0.351200  1.0
  H  H769  1  0.278500  0.667900  0.865300  1.0
  H  H770  1  0.721500  0.832100  0.365300  1.0
  H  H771  1  0.778500  0.332100  0.134700  1.0
  H  H772  1  0.221500  0.167900  0.634700  1.0
  H  H773  1  0.721500  0.332100  0.134700  1.0
  H  H774  1  0.278500  0.167900  0.634700  1.0
  H  H775  1  0.221500  0.667900  0.865300  1.0
  H  H776  1  0.778500  0.832100  0.365300  1.0
  H  H777  1  0.177700  0.768000  0.825000  1.0
  H  H778  1  0.822300  0.732000  0.325000  1.0
  H  H779  1  0.677700  0.232000  0.175000  1.0
  H  H780  1  0.322300  0.268000  0.675000  1.0
  H  H781  1  0.822300  0.232000  0.175000  1.0
  H  H782  1  0.177700  0.268000  0.675000  1.0
  H  H783  1  0.322300  0.768000  0.825000  1.0
  H  H784  1  0.677700  0.732000  0.325000  1.0
  H  H785  1  0.150900  0.702600  0.822000  1.0
  H  H786  1  0.849100  0.797400  0.322000  1.0
  H  H787  1  0.650900  0.297400  0.178000  1.0
  H  H788  1  0.349100  0.202600  0.678000  1.0
  H  H789  1  0.849100  0.297400  0.178000  1.0
  H  H790  1  0.150900  0.202600  0.678000  1.0
  H  H791  1  0.349100  0.702600  0.822000  1.0
  H  H792  1  0.650900  0.797400  0.322000  1.0
  H  H793  1  0.165700  0.739900  0.790200  1.0
  H  H794  1  0.834300  0.760100  0.290200  1.0
  H  H795  1  0.665700  0.260100  0.209800  1.0
  H  H796  1  0.334300  0.239900  0.709800  1.0
  H  H797  1  0.834300  0.260100  0.209800  1.0
  H  H798  1  0.165700  0.239900  0.709800  1.0
  H  H799  1  0.334300  0.739900  0.790200  1.0
  H  H800  1  0.665700  0.760100  0.290200  1.0
  H  H801  1  0.326800  0.377300  0.746300  1.0
  H  H802  1  0.673200  0.122700  0.246300  1.0
  H  H803  1  0.826800  0.622700  0.253700  1.0
  H  H804  1  0.173200  0.877300  0.753700  1.0
  H  H805  1  0.673200  0.622700  0.253700  1.0
  H  H806  1  0.326800  0.877300  0.753700  1.0
  H  H807  1  0.173200  0.377300  0.746300  1.0
  H  H808  1  0.826800  0.122700  0.246300  1.0
  H  H809  1  0.270100  0.339000  0.734900  1.0
  H  H810  1  0.729900  0.161000  0.234900  1.0
  H  H811  1  0.770100  0.661000  0.265100  1.0
  H  H812  1  0.229900  0.839000  0.765100  1.0
  H  H813  1  0.729900  0.661000  0.265100  1.0
  H  H814  1  0.270100  0.839000  0.765100  1.0
  H  H815  1  0.229900  0.339000  0.734900  1.0
  H  H816  1  0.770100  0.161000  0.234900  1.0
  H  H817  1  0.318100  0.311300  0.759400  1.0
  H  H818  1  0.681900  0.188700  0.259400  1.0
  H  H819  1  0.818100  0.688700  0.240600  1.0
  H  H820  1  0.181900  0.811300  0.740600  1.0
  H  H821  1  0.681900  0.688700  0.240600  1.0
  H  H822  1  0.318100  0.811300  0.740600  1.0
  H  H823  1  0.181900  0.311300  0.759400  1.0
  H  H824  1  0.818100  0.188700  0.259400  1.0
  H  H825  1  0.177600  0.316100  0.802800  1.0
  H  H826  1  0.822400  0.183900  0.302800  1.0
  H  H827  1  0.677600  0.683900  0.197200  1.0
  H  H828  1  0.322400  0.816100  0.697200  1.0
  H  H829  1  0.822400  0.683900  0.197200  1.0
  H  H830  1  0.177600  0.816100  0.697200  1.0
  H  H831  1  0.322400  0.316100  0.802800  1.0
  H  H832  1  0.677600  0.183900  0.302800  1.0
  H  H833  1  0.159500  0.354600  0.772000  1.0
  H  H834  1  0.840500  0.145400  0.272000  1.0
  H  H835  1  0.659500  0.645400  0.228000  1.0
  H  H836  1  0.340500  0.854600  0.728000  1.0
  H  H837  1  0.840500  0.645400  0.228000  1.0
  H  H838  1  0.159500  0.854600  0.728000  1.0
  H  H839  1  0.340500  0.354600  0.772000  1.0
  H  H840  1  0.659500  0.145400  0.272000  1.0
  H  H841  1  0.156400  0.383200  0.807200  1.0
  H  H842  1  0.843600  0.116800  0.307200  1.0
  H  H843  1  0.656400  0.616800  0.192800  1.0
  H  H844  1  0.343600  0.883200  0.692800  1.0
  H  H845  1  0.843600  0.616800  0.192800  1.0
  H  H846  1  0.156400  0.883200  0.692800  1.0
  H  H847  1  0.343600  0.383200  0.807200  1.0
  H  H848  1  0.656400  0.116800  0.307200  1.0
  H  H849  1  0.317000  0.392100  0.836000  1.0
  H  H850  1  0.683000  0.107900  0.336000  1.0
  H  H851  1  0.817000  0.607900  0.164000  1.0
  H  H852  1  0.183000  0.892100  0.664000  1.0
  H  H853  1  0.683000  0.607900  0.164000  1.0
  H  H854  1  0.317000  0.892100  0.664000  1.0
  H  H855  1  0.183000  0.392100  0.836000  1.0
  H  H856  1  0.817000  0.107900  0.336000  1.0
  H  H857  1  0.337100  0.334000  0.816900  1.0
  H  H858  1  0.662900  0.166000  0.316900  1.0
  H  H859  1  0.837100  0.666000  0.183100  1.0
  H  H860  1  0.162900  0.834000  0.683100  1.0
  H  H861  1  0.662900  0.666000  0.183100  1.0
  H  H862  1  0.337100  0.834000  0.683100  1.0
  H  H863  1  0.162900  0.334000  0.816900  1.0
  H  H864  1  0.837100  0.166000  0.316900  1.0
  H  H865  1  0.280200  0.331900  0.840600  1.0
  H  H866  1  0.719800  0.168100  0.340600  1.0
  H  H867  1  0.780200  0.668100  0.159400  1.0
  H  H868  1  0.219800  0.831900  0.659400  1.0
  H  H869  1  0.719800  0.668100  0.159400  1.0
  H  H870  1  0.280200  0.831900  0.659400  1.0
  H  H871  1  0.219800  0.331900  0.840600  1.0
  H  H872  1  0.780200  0.168100  0.340600  1.0
  H  H873  1  0.369800  0.437100  0.954500  1.0
  H  H874  1  0.630200  0.062900  0.454500  1.0
  H  H875  1  0.869800  0.562900  0.045500  1.0
  H  H876  1  0.130200  0.937100  0.545500  1.0
  H  H877  1  0.630200  0.562900  0.045500  1.0
  H  H878  1  0.369800  0.937100  0.545500  1.0
  H  H879  1  0.130200  0.437100  0.954500  1.0
  H  H880  1  0.869800  0.062900  0.454500  1.0
  H  H881  1  0.428700  0.475600  0.949000  1.0
  H  H882  1  0.571300  0.024400  0.449000  1.0
  H  H883  1  0.928700  0.524400  0.051000  1.0
  H  H884  1  0.071300  0.975600  0.551000  1.0
  H  H885  1  0.571300  0.524400  0.051000  1.0
  H  H886  1  0.428700  0.975600  0.551000  1.0
  H  H887  1  0.071300  0.475600  0.949000  1.0
  H  H888  1  0.928700  0.024400  0.449000  1.0
  H  H889  1  0.402300  0.486700  0.001400  1.0
  H  H890  1  0.597700  0.013300  0.501400  1.0
  H  H891  1  0.902300  0.513300  0.998600  1.0
  H  H892  1  0.097700  0.986700  0.498600  1.0
  H  H893  1  0.597700  0.513300  0.998600  1.0
  H  H894  1  0.402300  0.986700  0.498600  1.0
  H  H895  1  0.097700  0.486700  0.001400  1.0
  H  H896  1  0.902300  0.013300  0.501400  1.0
  H  H897  1  0.334200  0.502900  0.992300  1.0
  H  H898  1  0.665800  0.997100  0.492300  1.0
  H  H899  1  0.834200  0.497100  0.007700  1.0
  H  H900  1  0.165800  0.002900  0.507700  1.0
  H  H901  1  0.665800  0.497100  0.007700  1.0
  H  H902  1  0.334200  0.002900  0.507700  1.0
  H  H903  1  0.165800  0.502900  0.992300  1.0
  H  H904  1  0.834200  0.997100  0.492300  1.0
  H  H905  1  0.387200  0.548500  0.984400  1.0
  H  H906  1  0.612800  0.951500  0.484400  1.0
  H  H907  1  0.887200  0.451500  0.015600  1.0
  H  H908  1  0.112800  0.048500  0.515600  1.0
  H  H909  1  0.612800  0.451500  0.015600  1.0
  H  H910  1  0.387200  0.048500  0.515600  1.0
  H  H911  1  0.112800  0.548500  0.984400  1.0
  H  H912  1  0.887200  0.951500  0.484400  1.0
  H  H913  1  0.428300  0.496100  0.882700  1.0
  H  H914  1  0.571700  0.003900  0.382700  1.0
  H  H915  1  0.928300  0.503900  0.117300  1.0
  H  H916  1  0.071700  0.996100  0.617300  1.0
  H  H917  1  0.571700  0.503900  0.117300  1.0
  H  H918  1  0.428300  0.996100  0.617300  1.0
  H  H919  1  0.071700  0.496100  0.882700  1.0
  H  H920  1  0.928300  0.003900  0.382700  1.0
  H  H921  1  0.395800  0.434500  0.889900  1.0
  H  H922  1  0.604200  0.065500  0.389900  1.0
  H  H923  1  0.895800  0.565500  0.110100  1.0
  H  H924  1  0.104200  0.934500  0.610100  1.0
  H  H925  1  0.604200  0.565500  0.110100  1.0
  H  H926  1  0.395800  0.934500  0.610100  1.0
  H  H927  1  0.104200  0.434500  0.889900  1.0
  H  H928  1  0.895800  0.065500  0.389900  1.0
  H  H929  1  0.315300  0.464000  0.856100  1.0
  H  H930  1  0.684700  0.036000  0.356100  1.0
  H  H931  1  0.815300  0.536000  0.143900  1.0
  H  H932  1  0.184700  0.964000  0.643900  1.0
  H  H933  1  0.684700  0.536000  0.143900  1.0
  H  H934  1  0.315300  0.964000  0.643900  1.0
  H  H935  1  0.184700  0.464000  0.856100  1.0
  H  H936  1  0.815300  0.036000  0.356100  1.0
  H  H937  1  0.377900  0.460000  0.837100  1.0
  H  H938  1  0.622100  0.040000  0.337100  1.0
  H  H939  1  0.877900  0.540000  0.162900  1.0
  H  H940  1  0.122100  0.960000  0.662900  1.0
  H  H941  1  0.622100  0.540000  0.162900  1.0
  H  H942  1  0.377900  0.960000  0.662900  1.0
  H  H943  1  0.122100  0.460000  0.837100  1.0
  H  H944  1  0.877900  0.040000  0.337100  1.0
  H  H945  1  0.351700  0.523000  0.847700  1.0
  H  H946  1  0.648300  0.977000  0.347700  1.0
  H  H947  1  0.851700  0.477000  0.152300  1.0
  H  H948  1  0.148300  0.023000  0.652300  1.0
  H  H949  1  0.648300  0.477000  0.152300  1.0
  H  H950  1  0.351700  0.023000  0.652300  1.0
  H  H951  1  0.148300  0.523000  0.847700  1.0
  H  H952  1  0.851700  0.977000  0.347700  1.0
  H  H953  1  0.365100  0.605500  0.937500  1.0
  H  H954  1  0.634900  0.894500  0.437500  1.0
  H  H955  1  0.865100  0.394500  0.062500  1.0
  H  H956  1  0.134900  0.105500  0.562500  1.0
  H  H957  1  0.634900  0.394500  0.062500  1.0
  H  H958  1  0.365100  0.105500  0.562500  1.0
  H  H959  1  0.134900  0.605500  0.937500  1.0
  H  H960  1  0.865100  0.894500  0.437500  1.0
  H  H961  1  0.428400  0.581100  0.924800  1.0
  H  H962  1  0.571600  0.918900  0.424800  1.0
  H  H963  1  0.928400  0.418900  0.075200  1.0
  H  H964  1  0.071600  0.081100  0.575200  1.0
  H  H965  1  0.571600  0.418900  0.075200  1.0
  H  H966  1  0.428400  0.081100  0.575200  1.0
  H  H967  1  0.071600  0.581100  0.924800  1.0
  H  H968  1  0.928400  0.918900  0.424800  1.0
  H  H969  1  0.346000  0.648800  0.891500  1.0
  H  H970  1  0.654000  0.851200  0.391500  1.0
  H  H971  1  0.846000  0.351200  0.108500  1.0
  H  H972  1  0.154000  0.148800  0.608500  1.0
  H  H973  1  0.654000  0.351200  0.108500  1.0
  H  H974  1  0.346000  0.148800  0.608500  1.0
  H  H975  1  0.154000  0.648800  0.891500  1.0
  H  H976  1  0.846000  0.851200  0.391500  1.0
  H  H977  1  0.364100  0.591400  0.871200  1.0
  H  H978  1  0.635900  0.908600  0.371200  1.0
  H  H979  1  0.864100  0.408600  0.128800  1.0
  H  H980  1  0.135900  0.091400  0.628800  1.0
  H  H981  1  0.635900  0.408600  0.128800  1.0
  H  H982  1  0.364100  0.091400  0.628800  1.0
  H  H983  1  0.135900  0.591400  0.871200  1.0
  H  H984  1  0.864100  0.908600  0.371200  1.0
  H  H985  1  0.415100  0.636900  0.882500  1.0
  H  H986  1  0.584900  0.863100  0.382500  1.0
  H  H987  1  0.915100  0.363100  0.117500  1.0
  H  H988  1  0.084900  0.136900  0.617500  1.0
  H  H989  1  0.584900  0.363100  0.117500  1.0
  H  H990  1  0.415100  0.136900  0.617500  1.0
  H  H991  1  0.084900  0.636900  0.882500  1.0
  H  H992  1  0.915100  0.863100  0.382500  1.0
  Pd  Pd993  1  0.250000  0.487660  0.102510  1
  Pd  Pd994  1  0.750000  0.012340  0.602510  1
  Pd  Pd995  1  0.750000  0.512340  0.897490  1
  Pd  Pd996  1  0.250000  0.987660  0.397490  1
  Pd  Pd997  1  0.250000  0.527730  0.654880  1
  Pd  Pd998  1  0.750000  0.972270  0.154880  1
  Pd  Pd999  1  0.750000  0.472270  0.345120  1
  Pd  Pd1000  1  0.250000  0.027730  0.845120  1
  Pd  Pd1001  1  0.544210  0.220960  0.868630  1.0
  Pd  Pd1002  1  0.455790  0.279040  0.368630  1.0
  Pd  Pd1003  1  0.044210  0.779040  0.131370  1.0
  Pd  Pd1004  1  0.955790  0.720960  0.631370  1.0
  Pd  Pd1005  1  0.455790  0.779040  0.131370  1.0
  Pd  Pd1006  1  0.544210  0.720960  0.631370  1.0
  Pd  Pd1007  1  0.955790  0.220960  0.868630  1.0
  Pd  Pd1008  1  0.044210  0.279040  0.368630  1.0
  Pd  Pd1009  1  0.540430  0.801930  0.883880  1.0
  Pd  Pd1010  1  0.459570  0.698070  0.383880  1.0
  Pd  Pd1011  1  0.040430  0.198070  0.116120  1.0
  Pd  Pd1012  1  0.959570  0.301930  0.616120  1.0
  Pd  Pd1013  1  0.459570  0.198070  0.116120  1.0
  Pd  Pd1014  1  0.540430  0.301930  0.616120  1.0
  Pd  Pd1015  1  0.959570  0.801930  0.883880  1.0
  Pd  Pd1016  1  0.040430  0.698070  0.383880  1.0
  Pt  Pt1017  1  0.250000  0.505430  0.917707  1
  Pt  Pt1018  1  0.750000  0.994570  0.417707  1
  Pt  Pt1019  1  0.750000  0.494570  0.082293  1
  Pt  Pt1020  1  0.250000  0.005430  0.582293  1
  C  C1021  1  0.250000  0.324500  0.980700  1
  C  C1022  1  0.750000  0.175500  0.480700  1
  C  C1023  1  0.750000  0.675500  0.019300  1
  C  C1024  1  0.250000  0.824500  0.519300  1
  C  C1025  1  0.250000  0.359600  0.009600  1
  C  C1026  1  0.750000  0.140400  0.509600  1
  C  C1027  1  0.750000  0.640400  0.990400  1
  C  C1028  1  0.250000  0.859600  0.490400  1
  C  C1029  1  0.250000  0.674600  0.990600  1
  C  C1030  1  0.750000  0.825400  0.490600  1
  C  C1031  1  0.750000  0.325400  0.009400  1
  C  C1032  1  0.250000  0.174600  0.509400  1
  C  C1033  1  0.250000  0.631300  0.018000  1
  C  C1034  1  0.750000  0.868700  0.518000  1
  C  C1035  1  0.750000  0.368700  0.982000  1
  C  C1036  1  0.250000  0.131300  0.482000  1
  C  C1037  1  0.250000  0.454300  0.169000  1
  C  C1038  1  0.750000  0.045700  0.669000  1
  C  C1039  1  0.750000  0.545700  0.831000  1
  C  C1040  1  0.250000  0.954300  0.331000  1
  C  C1041  1  0.250000  0.460100  0.787600  1
  C  C1042  1  0.750000  0.039900  0.287600  1
  C  C1043  1  0.750000  0.539900  0.212400  1
  C  C1044  1  0.250000  0.960100  0.712400  1
  C  C1045  1  0.250000  0.511800  0.789500  1
  C  C1046  1  0.750000  0.988200  0.289500  1
  C  C1047  1  0.750000  0.488200  0.210500  1
  C  C1048  1  0.250000  0.011800  0.710500  1
  C  C1049  1  0.250000  0.573300  0.794800  1
  C  C1050  1  0.750000  0.926700  0.294800  1
  C  C1051  1  0.750000  0.426700  0.205200  1
  C  C1052  1  0.250000  0.073300  0.705200  1
  C  C1053  1  0.250000  0.625400  0.800000  1
  C  C1054  1  0.750000  0.874600  0.300000  1
  C  C1055  1  0.750000  0.374600  0.200000  1
  C  C1056  1  0.250000  0.125400  0.700000  1
  C  C1057  1  0.383500  0.535100  0.955200  1
  C  C1058  1  0.616500  0.964900  0.455200  1
  C  C1059  1  0.883500  0.464900  0.044800  1
  C  C1060  1  0.116500  0.035100  0.544800  1
  C  C1061  1  0.616500  0.464900  0.044800  1
  C  C1062  1  0.383500  0.035100  0.544800  1
  C  C1063  1  0.116500  0.535100  0.955200  1
  C  C1064  1  0.883500  0.964900  0.455200  1
  C  C1065  1  0.368000  0.494400  0.984700  1
  C  C1066  1  0.632000  0.005600  0.484700  1
  C  C1067  1  0.868000  0.505600  0.015300  1
  C  C1068  1  0.132000  0.994400  0.515300  1
  C  C1069  1  0.632000  0.505600  0.015300  1
  C  C1070  1  0.368000  0.994400  0.515300  1
  C  C1071  1  0.132000  0.494400  0.984700  1
  C  C1072  1  0.868000  0.005600  0.484700  1
  C  C1073  1  0.391800  0.438500  0.914000  1
  C  C1074  1  0.608200  0.061500  0.414000  1
  C  C1075  1  0.891800  0.561500  0.086000  1
  C  C1076  1  0.108200  0.938500  0.586000  1
  C  C1077  1  0.608200  0.561500  0.086000  1
  C  C1078  1  0.391800  0.938500  0.586000  1
  C  C1079  1  0.108200  0.438500  0.914000  1
  C  C1080  1  0.891800  0.061500  0.414000  1
  C  C1081  1  0.389400  0.411600  0.880700  1
  C  C1082  1  0.610600  0.088400  0.380700  1
  C  C1083  1  0.889400  0.588400  0.119300  1
  C  C1084  1  0.110600  0.911600  0.619300  1
  C  C1085  1  0.610600  0.588400  0.119300  1
  C  C1086  1  0.389400  0.911600  0.619300  1
  C  C1087  1  0.110600  0.411600  0.880700  1
  C  C1088  1  0.889400  0.088400  0.380700  1
  C  C1089  1  0.385000  0.555500  0.889300  1
  C  C1090  1  0.615000  0.944500  0.389300  1
  C  C1091  1  0.885000  0.444500  0.110700  1
  C  C1092  1  0.115000  0.055500  0.610700  1
  C  C1093  1  0.615000  0.444500  0.110700  1
  C  C1094  1  0.385000  0.055500  0.610700  1
  C  C1095  1  0.115000  0.555500  0.889300  1
  C  C1096  1  0.885000  0.944500  0.389300  1
  C  C1097  1  0.353900  0.553800  0.855600  1
  C  C1098  1  0.646100  0.946200  0.355600  1
  C  C1099  1  0.853900  0.446200  0.144400  1
  C  C1100  1  0.146100  0.053800  0.644400  1
  C  C1101  1  0.646100  0.446200  0.144400  1
  C  C1102  1  0.353900  0.053800  0.644400  1
  C  C1103  1  0.146100  0.553800  0.855600  1
  C  C1104  1  0.853900  0.946200  0.355600  1
  C  C1105  1  0.329100  0.573800  0.706100  1.0
  C  C1106  1  0.670900  0.926200  0.206100  1.0
  C  C1107  1  0.829100  0.426200  0.293900  1.0
  C  C1108  1  0.170900  0.073800  0.793900  1.0
  C  C1109  1  0.670900  0.426200  0.293900  1.0
  C  C1110  1  0.329100  0.073800  0.793900  1.0
  C  C1111  1  0.170900  0.573800  0.706100  1.0
  C  C1112  1  0.829100  0.926200  0.206100  1.0
  C  C1113  1  0.366800  0.573900  0.731600  1.0
  C  C1114  1  0.633200  0.926100  0.231600  1.0
  C  C1115  1  0.866800  0.426100  0.268400  1.0
  C  C1116  1  0.133200  0.073900  0.768400  1.0
  C  C1117  1  0.633200  0.426100  0.268400  1.0
  C  C1118  1  0.366800  0.073900  0.768400  1.0
  C  C1119  1  0.133200  0.573900  0.731600  1.0
  C  C1120  1  0.866800  0.926100  0.231600  1.0
  C  C1121  1  0.389900  0.521100  0.743000  1.0
  C  C1122  1  0.610100  0.978900  0.243000  1.0
  C  C1123  1  0.889900  0.478900  0.257000  1.0
  C  C1124  1  0.110100  0.021100  0.757000  1.0
  C  C1125  1  0.610100  0.478900  0.257000  1.0
  C  C1126  1  0.389900  0.021100  0.757000  1.0
  C  C1127  1  0.110100  0.521100  0.743000  1.0
  C  C1128  1  0.889900  0.978900  0.243000  1.0
  C  C1129  1  0.373500  0.470600  0.727000  1.0
  C  C1130  1  0.626500  0.029400  0.227000  1.0
  C  C1131  1  0.873500  0.529400  0.273000  1.0
  C  C1132  1  0.126500  0.970600  0.773000  1.0
  C  C1133  1  0.626500  0.529400  0.273000  1.0
  C  C1134  1  0.373500  0.970600  0.773000  1.0
  C  C1135  1  0.126500  0.470600  0.727000  1.0
  C  C1136  1  0.873500  0.029400  0.227000  1.0
  C  C1137  1  0.334600  0.473000  0.701300  1.0
  C  C1138  1  0.665400  0.027000  0.201300  1.0
  C  C1139  1  0.834600  0.527000  0.298700  1.0
  C  C1140  1  0.165400  0.973000  0.798700  1.0
  C  C1141  1  0.665400  0.527000  0.298700  1.0
  C  C1142  1  0.334600  0.973000  0.798700  1.0
  C  C1143  1  0.165400  0.473000  0.701300  1.0
  C  C1144  1  0.834600  0.027000  0.201300  1.0
  C  C1145  1  0.430900  0.519300  0.771200  1.0
  C  C1146  1  0.569100  0.980700  0.271200  1.0
  C  C1147  1  0.930900  0.480700  0.228800  1.0
  C  C1148  1  0.069100  0.019300  0.728800  1.0
  C  C1149  1  0.569100  0.480700  0.228800  1.0
  C  C1150  1  0.430900  0.019300  0.728800  1.0
  C  C1151  1  0.069100  0.519300  0.771200  1.0
  C  C1152  1  0.930900  0.980700  0.271200  1.0
  C  C1153  1  0.482200  0.566200  0.810500  1.0
  C  C1154  1  0.517800  0.933800  0.310500  1.0
  C  C1155  1  0.982200  0.433800  0.189500  1.0
  C  C1156  1  0.017800  0.066200  0.689500  1.0
  C  C1157  1  0.517800  0.433800  0.189500  1.0
  C  C1158  1  0.482200  0.066200  0.689500  1.0
  C  C1159  1  0.017800  0.566200  0.810500  1.0
  C  C1160  1  0.982200  0.933800  0.310500  1.0
  C  C1161  1  0.484000  0.466600  0.807600  1.0
  C  C1162  1  0.516000  0.033400  0.307600  1.0
  C  C1163  1  0.984000  0.533400  0.192400  1.0
  C  C1164  1  0.016000  0.966600  0.692400  1.0
  C  C1165  1  0.516000  0.533400  0.192400  1.0
  C  C1166  1  0.484000  0.966600  0.692400  1.0
  C  C1167  1  0.016000  0.466600  0.807600  1.0
  C  C1168  1  0.984000  0.033400  0.307600  1.0
  C  C1169  1  0.499100  0.622100  0.826600  1.0
  C  C1170  1  0.500900  0.877900  0.326600  1.0
  C  C1171  1  0.999100  0.377900  0.173400  1.0
  C  C1172  1  0.000900  0.122100  0.673400  1.0
  C  C1173  1  0.500900  0.377900  0.173400  1.0
  C  C1174  1  0.499100  0.122100  0.673400  1.0
  C  C1175  1  0.000900  0.622100  0.826600  1.0
  C  C1176  1  0.999100  0.877900  0.326600  1.0
  C  C1177  1  0.479000  0.676600  0.815200  1.0
  C  C1178  1  0.521000  0.823400  0.315200  1.0
  C  C1179  1  0.979000  0.323400  0.184800  1.0
  C  C1180  1  0.021000  0.176600  0.684800  1.0
  C  C1181  1  0.521000  0.323400  0.184800  1.0
  C  C1182  1  0.479000  0.176600  0.684800  1.0
  C  C1183  1  0.021000  0.676600  0.815200  1.0
  C  C1184  1  0.979000  0.823400  0.315200  1.0
  C  C1185  1  0.493700  0.727400  0.831500  1.0
  C  C1186  1  0.506300  0.772600  0.331500  1.0
  C  C1187  1  0.993700  0.272600  0.168500  1.0
  C  C1188  1  0.006300  0.227400  0.668500  1.0
  C  C1189  1  0.506300  0.272600  0.168500  1.0
  C  C1190  1  0.493700  0.227400  0.668500  1.0
  C  C1191  1  0.006300  0.727400  0.831500  1.0
  C  C1192  1  0.993700  0.772600  0.331500  1.0
  C  C1193  1  0.546100  0.674100  0.869900  1.0
  C  C1194  1  0.453900  0.825900  0.369900  1.0
  C  C1195  1  0.046100  0.325900  0.130100  1.0
  C  C1196  1  0.953900  0.174100  0.630100  1.0
  C  C1197  1  0.453900  0.325900  0.130100  1.0
  C  C1198  1  0.546100  0.174100  0.630100  1.0
  C  C1199  1  0.953900  0.674100  0.869900  1.0
  C  C1200  1  0.046100  0.825900  0.369900  1.0
  C  C1201  1  0.532800  0.621400  0.854800  1.0
  C  C1202  1  0.467200  0.878600  0.354800  1.0
  C  C1203  1  0.032800  0.378600  0.145200  1.0
  C  C1204  1  0.967200  0.121400  0.645200  1.0
  C  C1205  1  0.467200  0.378600  0.145200  1.0
  C  C1206  1  0.532800  0.121400  0.645200  1.0
  C  C1207  1  0.967200  0.621400  0.854800  1.0
  C  C1208  1  0.032800  0.878600  0.354800  1.0
  C  C1209  1  0.502100  0.409900  0.820100  1.0
  C  C1210  1  0.497900  0.090100  0.320100  1.0
  C  C1211  1  0.002100  0.590100  0.179900  1.0
  C  C1212  1  0.997900  0.909900  0.679900  1.0
  C  C1213  1  0.497900  0.590100  0.179900  1.0
  C  C1214  1  0.502100  0.909900  0.679900  1.0
  C  C1215  1  0.997900  0.409900  0.820100  1.0
  C  C1216  1  0.002100  0.090100  0.320100  1.0
  C  C1217  1  0.484100  0.357700  0.805700  1.0
  C  C1218  1  0.515900  0.142300  0.305700  1.0
  C  C1219  1  0.984100  0.642300  0.194300  1.0
  C  C1220  1  0.015900  0.857700  0.694300  1.0
  C  C1221  1  0.515900  0.642300  0.194300  1.0
  C  C1222  1  0.484100  0.857700  0.694300  1.0
  C  C1223  1  0.015900  0.357700  0.805700  1.0
  C  C1224  1  0.984100  0.142300  0.305700  1.0
  C  C1225  1  0.499000  0.303200  0.819300  1.0
  C  C1226  1  0.501000  0.196800  0.319300  1.0
  C  C1227  1  0.999000  0.696800  0.180700  1.0
  C  C1228  1  0.001000  0.803200  0.680700  1.0
  C  C1229  1  0.501000  0.696800  0.180700  1.0
  C  C1230  1  0.499000  0.803200  0.680700  1.0
  C  C1231  1  0.001000  0.303200  0.819300  1.0
  C  C1232  1  0.999000  0.196800  0.319300  1.0
  C  C1233  1  0.548200  0.350900  0.861300  1.0
  C  C1234  1  0.451800  0.149100  0.361300  1.0
  C  C1235  1  0.048200  0.649100  0.138700  1.0
  C  C1236  1  0.951800  0.850900  0.638700  1.0
  C  C1237  1  0.451800  0.649100  0.138700  1.0
  C  C1238  1  0.548200  0.850900  0.638700  1.0
  C  C1239  1  0.951800  0.350900  0.861300  1.0
  C  C1240  1  0.048200  0.149100  0.361300  1.0
  C  C1241  1  0.535900  0.405700  0.849000  1.0
  C  C1242  1  0.464100  0.094300  0.349000  1.0
  C  C1243  1  0.035900  0.594300  0.151000  1.0
  C  C1244  1  0.964100  0.905700  0.651000  1.0
  C  C1245  1  0.464100  0.594300  0.151000  1.0
  C  C1246  1  0.535900  0.905700  0.651000  1.0
  C  C1247  1  0.964100  0.405700  0.849000  1.0
  C  C1248  1  0.035900  0.094300  0.349000  1.0
  C  C1249  1  0.412900  0.225300  0.879600  1.0
  C  C1250  1  0.587100  0.274700  0.379600  1.0
  C  C1251  1  0.912900  0.774700  0.120400  1.0
  C  C1252  1  0.087100  0.725300  0.620400  1.0
  C  C1253  1  0.587100  0.774700  0.120400  1.0
  C  C1254  1  0.412900  0.725300  0.620400  1.0
  C  C1255  1  0.087100  0.225300  0.879600  1.0
  C  C1256  1  0.912900  0.274700  0.379600  1.0
  C  C1257  1  0.358400  0.239300  0.893700  1.0
  C  C1258  1  0.641600  0.260700  0.393700  1.0
  C  C1259  1  0.858400  0.760700  0.106300  1.0
  C  C1260  1  0.141600  0.739300  0.606300  1.0
  C  C1261  1  0.641600  0.760700  0.106300  1.0
  C  C1262  1  0.358400  0.739300  0.606300  1.0
  C  C1263  1  0.141600  0.239300  0.893700  1.0
  C  C1264  1  0.858400  0.260700  0.393700  1.0
  C  C1265  1  0.358800  0.265300  0.924100  1.0
  C  C1266  1  0.641200  0.234700  0.424100  1.0
  C  C1267  1  0.858800  0.734700  0.075900  1.0
  C  C1268  1  0.141200  0.765300  0.575900  1.0
  C  C1269  1  0.641200  0.734700  0.075900  1.0
  C  C1270  1  0.358800  0.765300  0.575900  1.0
  C  C1271  1  0.141200  0.265300  0.924100  1.0
  C  C1272  1  0.858800  0.234700  0.424100  1.0
  C  C1273  1  0.413100  0.278900  0.938100  1.0
  C  C1274  1  0.586900  0.221100  0.438100  1.0
  C  C1275  1  0.913100  0.721100  0.061900  1.0
  C  C1276  1  0.086900  0.778900  0.561900  1.0
  C  C1277  1  0.586900  0.721100  0.061900  1.0
  C  C1278  1  0.413100  0.778900  0.561900  1.0
  C  C1279  1  0.086900  0.278900  0.938100  1.0
  C  C1280  1  0.913100  0.221100  0.438100  1.0
  C  C1281  1  0.466400  0.264000  0.922100  1.0
  C  C1282  1  0.533600  0.236000  0.422100  1.0
  C  C1283  1  0.966400  0.736000  0.077900  1.0
  C  C1284  1  0.033600  0.764000  0.577900  1.0
  C  C1285  1  0.533600  0.736000  0.077900  1.0
  C  C1286  1  0.466400  0.764000  0.577900  1.0
  C  C1287  1  0.033600  0.264000  0.922100  1.0
  C  C1288  1  0.966400  0.236000  0.422100  1.0
  C  C1289  1  0.300400  0.280100  0.939700  1.0
  C  C1290  1  0.699600  0.219900  0.439700  1.0
  C  C1291  1  0.800400  0.719900  0.060300  1.0
  C  C1292  1  0.199600  0.780100  0.560300  1.0
  C  C1293  1  0.699600  0.719900  0.060300  1.0
  C  C1294  1  0.300400  0.780100  0.560300  1.0
  C  C1295  1  0.199600  0.280100  0.939700  1.0
  C  C1296  1  0.800400  0.219900  0.439700  1.0
  C  C1297  1  0.302900  0.377300  0.024500  1.0
  C  C1298  1  0.697100  0.122700  0.524500  1.0
  C  C1299  1  0.802900  0.622700  0.975500  1.0
  C  C1300  1  0.197100  0.877300  0.475500  1.0
  C  C1301  1  0.697100  0.622700  0.975500  1.0
  C  C1302  1  0.302900  0.877300  0.475500  1.0
  C  C1303  1  0.197100  0.377300  0.024500  1.0
  C  C1304  1  0.802900  0.122700  0.524500  1.0
  C  C1305  1  0.301800  0.411400  0.052000  1.0
  C  C1306  1  0.698200  0.088600  0.552000  1.0
  C  C1307  1  0.801800  0.588600  0.948000  1.0
  C  C1308  1  0.198200  0.911400  0.448000  1.0
  C  C1309  1  0.698200  0.588600  0.948000  1.0
  C  C1310  1  0.301800  0.911400  0.448000  1.0
  C  C1311  1  0.198200  0.411400  0.052000  1.0
  C  C1312  1  0.801800  0.088600  0.552000  1.0
  C  C1313  1  0.464700  0.743700  0.933700  1.0
  C  C1314  1  0.535300  0.756300  0.433700  1.0
  C  C1315  1  0.964700  0.256300  0.066300  1.0
  C  C1316  1  0.035300  0.243700  0.566300  1.0
  C  C1317  1  0.535300  0.256300  0.066300  1.0
  C  C1318  1  0.464700  0.243700  0.566300  1.0
  C  C1319  1  0.035300  0.743700  0.933700  1.0
  C  C1320  1  0.964700  0.756300  0.433700  1.0
  C  C1321  1  0.412700  0.725400  0.949400  1.0
  C  C1322  1  0.587300  0.774600  0.449400  1.0
  C  C1323  1  0.912700  0.274600  0.050600  1.0
  C  C1324  1  0.087300  0.225400  0.550600  1.0
  C  C1325  1  0.587300  0.274600  0.050600  1.0
  C  C1326  1  0.412700  0.225400  0.550600  1.0
  C  C1327  1  0.087300  0.725400  0.949400  1.0
  C  C1328  1  0.912700  0.774600  0.449400  1.0
  C  C1329  1  0.357900  0.746500  0.938400  1.0
  C  C1330  1  0.642100  0.753500  0.438400  1.0
  C  C1331  1  0.857900  0.253500  0.061600  1.0
  C  C1332  1  0.142100  0.246500  0.561600  1.0
  C  C1333  1  0.642100  0.253500  0.061600  1.0
  C  C1334  1  0.357900  0.246500  0.561600  1.0
  C  C1335  1  0.142100  0.746500  0.938400  1.0
  C  C1336  1  0.857900  0.753500  0.438400  1.0
  C  C1337  1  0.357400  0.786000  0.912900  1.0
  C  C1338  1  0.642600  0.714000  0.412900  1.0
  C  C1339  1  0.857400  0.214000  0.087100  1.0
  C  C1340  1  0.142600  0.286000  0.587100  1.0
  C  C1341  1  0.642600  0.214000  0.087100  1.0
  C  C1342  1  0.357400  0.286000  0.587100  1.0
  C  C1343  1  0.142600  0.786000  0.912900  1.0
  C  C1344  1  0.857400  0.714000  0.412900  1.0
  C  C1345  1  0.410700  0.801500  0.898600  1.0
  C  C1346  1  0.589300  0.698500  0.398600  1.0
  C  C1347  1  0.910700  0.198500  0.101400  1.0
  C  C1348  1  0.089300  0.301500  0.601400  1.0
  C  C1349  1  0.589300  0.198500  0.101400  1.0
  C  C1350  1  0.410700  0.301500  0.601400  1.0
  C  C1351  1  0.089300  0.801500  0.898600  1.0
  C  C1352  1  0.910700  0.698500  0.398600  1.0
  C  C1353  1  0.300100  0.728000  0.954000  1.0
  C  C1354  1  0.699900  0.772000  0.454000  1.0
  C  C1355  1  0.800100  0.272000  0.046000  1.0
  C  C1356  1  0.199900  0.228000  0.546000  1.0
  C  C1357  1  0.699900  0.272000  0.046000  1.0
  C  C1358  1  0.300100  0.228000  0.546000  1.0
  C  C1359  1  0.199900  0.728000  0.954000  1.0
  C  C1360  1  0.800100  0.772000  0.454000  1.0
  C  C1361  1  0.302500  0.611200  0.031700  1.0
  C  C1362  1  0.697500  0.888800  0.531700  1.0
  C  C1363  1  0.802500  0.388800  0.968300  1.0
  C  C1364  1  0.197500  0.111200  0.468300  1.0
  C  C1365  1  0.697500  0.388800  0.968300  1.0
  C  C1366  1  0.302500  0.111200  0.468300  1.0
  C  C1367  1  0.197500  0.611200  0.031700  1.0
  C  C1368  1  0.802500  0.888800  0.531700  1.0
  C  C1369  1  0.301200  0.573000  0.055900  1.0
  C  C1370  1  0.698800  0.927000  0.555900  1.0
  C  C1371  1  0.801200  0.427000  0.944100  1.0
  C  C1372  1  0.198800  0.073000  0.444100  1.0
  C  C1373  1  0.698800  0.427000  0.944100  1.0
  C  C1374  1  0.301200  0.073000  0.444100  1.0
  C  C1375  1  0.198800  0.573000  0.055900  1.0
  C  C1376  1  0.801200  0.927000  0.555900  1.0
  C  C1377  1  0.602300  0.911800  0.891800  1.0
  C  C1378  1  0.397700  0.588200  0.391800  1.0
  C  C1379  1  0.102300  0.088200  0.108200  1.0
  C  C1380  1  0.897700  0.411800  0.608200  1.0
  C  C1381  1  0.397700  0.088200  0.108200  1.0
  C  C1382  1  0.602300  0.411800  0.608200  1.0
  C  C1383  1  0.897700  0.911800  0.891800  1.0
  C  C1384  1  0.102300  0.588200  0.391800  1.0
  C  C1385  1  0.648300  0.870100  0.878400  1.0
  C  C1386  1  0.351700  0.629900  0.378400  1.0
  C  C1387  1  0.148300  0.129900  0.121600  1.0
  C  C1388  1  0.851700  0.370100  0.621600  1.0
  C  C1389  1  0.351700  0.129900  0.121600  1.0
  C  C1390  1  0.648300  0.370100  0.621600  1.0
  C  C1391  1  0.851700  0.870100  0.878400  1.0
  C  C1392  1  0.148300  0.629900  0.378400  1.0
  C  C1393  1  0.599700  0.847000  0.826400  1.0
  C  C1394  1  0.400300  0.653000  0.326400  1.0
  C  C1395  1  0.099700  0.153000  0.173600  1.0
  C  C1396  1  0.900300  0.347000  0.673600  1.0
  C  C1397  1  0.400300  0.153000  0.173600  1.0
  C  C1398  1  0.599700  0.347000  0.673600  1.0
  C  C1399  1  0.900300  0.847000  0.826400  1.0
  C  C1400  1  0.099700  0.653000  0.326400  1.0
  C  C1401  1  0.659000  0.772900  0.853800  1.0
  C  C1402  1  0.341000  0.727100  0.353800  1.0
  C  C1403  1  0.159000  0.227100  0.146200  1.0
  C  C1404  1  0.841000  0.272900  0.646200  1.0
  C  C1405  1  0.341000  0.227100  0.146200  1.0
  C  C1406  1  0.659000  0.272900  0.646200  1.0
  C  C1407  1  0.841000  0.772900  0.853800  1.0
  C  C1408  1  0.159000  0.727100  0.353800  1.0
  C  C1409  1  0.500000  0.917900  0.911000  1.0
  C  C1410  1  0.500000  0.582100  0.411000  1.0
  C  C1411  1  0.000000  0.082100  0.089000  1.0
  C  C1412  1  0.000000  0.417900  0.589000  1.0
  C  C1413  1  0.500000  0.082100  0.089000  1.0
  C  C1414  1  0.500000  0.417900  0.589000  1.0
  C  C1415  1  0.000000  0.917900  0.911000  1.0
  C  C1416  1  0.000000  0.582100  0.411000  1.0
  C  C1417  1  0.575100  0.865700  0.940900  1.0
  C  C1418  1  0.424900  0.634300  0.440900  1.0
  C  C1419  1  0.075100  0.134300  0.059100  1.0
  C  C1420  1  0.924900  0.365700  0.559100  1.0
  C  C1421  1  0.424900  0.134300  0.059100  1.0
  C  C1422  1  0.575100  0.365700  0.559100  1.0
  C  C1423  1  0.924900  0.865700  0.940900  1.0
  C  C1424  1  0.075100  0.634300  0.440900  1.0
  C  C1425  1  0.607200  0.110700  0.870300  1.0
  C  C1426  1  0.392800  0.389300  0.370300  1.0
  C  C1427  1  0.107200  0.889300  0.129700  1.0
  C  C1428  1  0.892800  0.610700  0.629700  1.0
  C  C1429  1  0.392800  0.889300  0.129700  1.0
  C  C1430  1  0.607200  0.610700  0.629700  1.0
  C  C1431  1  0.892800  0.110700  0.870300  1.0
  C  C1432  1  0.107200  0.389300  0.370300  1.0
  C  C1433  1  0.652500  0.155000  0.860200  1.0
  C  C1434  1  0.347500  0.345000  0.360200  1.0
  C  C1435  1  0.152500  0.845000  0.139800  1.0
  C  C1436  1  0.847500  0.655000  0.639800  1.0
  C  C1437  1  0.347500  0.845000  0.139800  1.0
  C  C1438  1  0.652500  0.655000  0.639800  1.0
  C  C1439  1  0.847500  0.155000  0.860200  1.0
  C  C1440  1  0.152500  0.345000  0.360200  1.0
  C  C1441  1  0.582800  0.150000  0.924000  1.0
  C  C1442  1  0.417200  0.350000  0.424000  1.0
  C  C1443  1  0.082800  0.850000  0.076000  1.0
  C  C1444  1  0.917200  0.650000  0.576000  1.0
  C  C1445  1  0.417200  0.850000  0.076000  1.0
  C  C1446  1  0.582800  0.650000  0.576000  1.0
  C  C1447  1  0.917200  0.150000  0.924000  1.0
  C  C1448  1  0.082800  0.350000  0.424000  1.0
  C  C1449  1  0.506100  0.102700  0.893100  1.0
  C  C1450  1  0.493900  0.397300  0.393100  1.0
  C  C1451  1  0.006100  0.897300  0.106900  1.0
  C  C1452  1  0.993900  0.602700  0.606900  1.0
  C  C1453  1  0.493900  0.897300  0.106900  1.0
  C  C1454  1  0.506100  0.602700  0.606900  1.0
  C  C1455  1  0.993900  0.102700  0.893100  1.0
  C  C1456  1  0.006100  0.397300  0.393100  1.0
  C  C1457  1  0.662400  0.255700  0.840500  1.0
  C  C1458  1  0.337600  0.244300  0.340500  1.0
  C  C1459  1  0.162400  0.744300  0.159500  1.0
  C  C1460  1  0.837600  0.755700  0.659500  1.0
  C  C1461  1  0.337600  0.744300  0.159500  1.0
  C  C1462  1  0.662400  0.755700  0.659500  1.0
  C  C1463  1  0.837600  0.255700  0.840500  1.0
  C  C1464  1  0.162400  0.244300  0.340500  1.0
  C  C1465  1  0.604800  0.184800  0.809100  1.0
  C  C1466  1  0.395200  0.315200  0.309100  1.0
  C  C1467  1  0.104800  0.815200  0.190900  1.0
  C  C1468  1  0.895200  0.684800  0.690900  1.0
  C  C1469  1  0.395200  0.815200  0.190900  1.0
  C  C1470  1  0.604800  0.684800  0.690900  1.0
  C  C1471  1  0.895200  0.184800  0.809100  1.0
  C  C1472  1  0.104800  0.315200  0.309100  1.0
  C  C1473  1  0.279300  0.536700  0.588800  1.0
  C  C1474  1  0.720700  0.963300  0.088800  1.0
  C  C1475  1  0.779300  0.463300  0.411200  1.0
  C  C1476  1  0.220700  0.036700  0.911200  1.0
  C  C1477  1  0.720700  0.463300  0.411200  1.0
  C  C1478  1  0.279300  0.036700  0.911200  1.0
  C  C1479  1  0.220700  0.536700  0.588800  1.0
  C  C1480  1  0.779300  0.963300  0.088800  1.0
  C  C1481  1  0.355400  0.484000  0.617600  1.0
  C  C1482  1  0.644600  0.016000  0.117600  1.0
  C  C1483  1  0.855400  0.516000  0.382400  1.0
  C  C1484  1  0.144600  0.984000  0.882400  1.0
  C  C1485  1  0.644600  0.516000  0.382400  1.0
  C  C1486  1  0.355400  0.984000  0.882400  1.0
  C  C1487  1  0.144600  0.484000  0.617600  1.0
  C  C1488  1  0.855400  0.016000  0.117600  1.0
  C  C1489  1  0.348600  0.588600  0.621800  1.0
  C  C1490  1  0.651400  0.911400  0.121800  1.0
  C  C1491  1  0.848600  0.411400  0.378200  1.0
  C  C1492  1  0.151400  0.088600  0.878200  1.0
  C  C1493  1  0.651400  0.411400  0.378200  1.0
  C  C1494  1  0.348600  0.088600  0.878200  1.0
  C  C1495  1  0.151400  0.588600  0.621800  1.0
  C  C1496  1  0.848600  0.911400  0.121800  1.0
  C  C1497  1  0.264000  0.509200  0.169300  1.0
  C  C1498  1  0.736000  0.990800  0.669300  1.0
  C  C1499  1  0.764000  0.490800  0.830700  1.0
  C  C1500  1  0.236000  0.009200  0.330700  1.0
  C  C1501  1  0.736000  0.490800  0.830700  1.0
  C  C1502  1  0.264000  0.009200  0.330700  1.0
  C  C1503  1  0.236000  0.509200  0.169300  1.0
  C  C1504  1  0.764000  0.990800  0.669300  1.0
  C  C1505  1  0.303900  0.583300  0.141000  1.0
  C  C1506  1  0.696100  0.916700  0.641000  1.0
  C  C1507  1  0.803900  0.416700  0.859000  1.0
  C  C1508  1  0.196100  0.083300  0.359000  1.0
  C  C1509  1  0.696100  0.416700  0.859000  1.0
  C  C1510  1  0.303900  0.083300  0.359000  1.0
  C  C1511  1  0.196100  0.583300  0.141000  1.0
  C  C1512  1  0.803900  0.916700  0.641000  1.0
  C  C1513  1  0.303100  0.384000  0.134800  1.0
  C  C1514  1  0.696900  0.116000  0.634800  1.0
  C  C1515  1  0.803100  0.616000  0.865200  1.0
  C  C1516  1  0.196900  0.884000  0.365200  1.0
  C  C1517  1  0.696900  0.616000  0.865200  1.0
  C  C1518  1  0.303100  0.884000  0.365200  1.0
  C  C1519  1  0.196900  0.384000  0.134800  1.0
  C  C1520  1  0.803100  0.116000  0.634800  1.0
  C  C1521  1  0.308500  0.743500  0.785200  1.0
  C  C1522  1  0.691500  0.756500  0.285200  1.0
  C  C1523  1  0.808500  0.256500  0.214800  1.0
  C  C1524  1  0.191500  0.243500  0.714800  1.0
  C  C1525  1  0.691500  0.256500  0.214800  1.0
  C  C1526  1  0.308500  0.243500  0.714800  1.0
  C  C1527  1  0.191500  0.743500  0.785200  1.0
  C  C1528  1  0.808500  0.756500  0.285200  1.0
  C  C1529  1  0.287600  0.704700  0.853800  1.0
  C  C1530  1  0.712400  0.795300  0.353800  1.0
  C  C1531  1  0.787600  0.295300  0.146200  1.0
  C  C1532  1  0.212400  0.204700  0.646200  1.0
  C  C1533  1  0.712400  0.295300  0.146200  1.0
  C  C1534  1  0.287600  0.204700  0.646200  1.0
  C  C1535  1  0.212400  0.704700  0.853800  1.0
  C  C1536  1  0.787600  0.795300  0.353800  1.0
  C  C1537  1  0.178400  0.731500  0.812300  1.0
  C  C1538  1  0.821600  0.768500  0.312300  1.0
  C  C1539  1  0.678400  0.268500  0.187700  1.0
  C  C1540  1  0.321600  0.231500  0.687700  1.0
  C  C1541  1  0.821600  0.268500  0.187700  1.0
  C  C1542  1  0.178400  0.231500  0.687700  1.0
  C  C1543  1  0.321600  0.731500  0.812300  1.0
  C  C1544  1  0.678400  0.768500  0.312300  1.0
  C  C1545  1  0.297200  0.347600  0.753000  1.0
  C  C1546  1  0.702800  0.152400  0.253000  1.0
  C  C1547  1  0.797200  0.652400  0.247000  1.0
  C  C1548  1  0.202800  0.847600  0.747000  1.0
  C  C1549  1  0.702800  0.652400  0.247000  1.0
  C  C1550  1  0.297200  0.847600  0.747000  1.0
  C  C1551  1  0.202800  0.347600  0.753000  1.0
  C  C1552  1  0.797200  0.152400  0.253000  1.0
  C  C1553  1  0.178500  0.355700  0.793300  1.0
  C  C1554  1  0.821500  0.144300  0.293300  1.0
  C  C1555  1  0.678500  0.644300  0.206700  1.0
  C  C1556  1  0.321500  0.855700  0.706700  1.0
  C  C1557  1  0.821500  0.644300  0.206700  1.0
  C  C1558  1  0.178500  0.855700  0.706700  1.0
  C  C1559  1  0.321500  0.355700  0.793300  1.0
  C  C1560  1  0.678500  0.144300  0.293300  1.0
  C  C1561  1  0.302600  0.356300  0.825200  1.0
  C  C1562  1  0.697400  0.143700  0.325200  1.0
  C  C1563  1  0.802600  0.643700  0.174800  1.0
  C  C1564  1  0.197400  0.856300  0.674800  1.0
  C  C1565  1  0.697400  0.643700  0.174800  1.0
  C  C1566  1  0.302600  0.856300  0.674800  1.0
  C  C1567  1  0.197400  0.356300  0.825200  1.0
  C  C1568  1  0.802600  0.143700  0.325200  1.0
  C  C1569  1  0.385000  0.478000  0.952800  1.0
  C  C1570  1  0.615000  0.022000  0.452800  1.0
  C  C1571  1  0.885000  0.522000  0.047200  1.0
  C  C1572  1  0.115000  0.978000  0.547200  1.0
  C  C1573  1  0.615000  0.522000  0.047200  1.0
  C  C1574  1  0.385000  0.978000  0.547200  1.0
  C  C1575  1  0.115000  0.478000  0.952800  1.0
  C  C1576  1  0.885000  0.022000  0.452800  1.0
  C  C1577  1  0.376000  0.507000  0.986000  1.0
  C  C1578  1  0.624000  0.993000  0.486000  1.0
  C  C1579  1  0.876000  0.493000  0.014000  1.0
  C  C1580  1  0.124000  0.007000  0.514000  1.0
  C  C1581  1  0.624000  0.493000  0.014000  1.0
  C  C1582  1  0.376000  0.007000  0.514000  1.0
  C  C1583  1  0.124000  0.507000  0.986000  1.0
  C  C1584  1  0.876000  0.993000  0.486000  1.0
  C  C1585  1  0.389000  0.477000  0.885300  1.0
  C  C1586  1  0.611000  0.023000  0.385300  1.0
  C  C1587  1  0.889000  0.523000  0.114700  1.0
  C  C1588  1  0.111000  0.977000  0.614700  1.0
  C  C1589  1  0.611000  0.523000  0.114700  1.0
  C  C1590  1  0.389000  0.977000  0.614700  1.0
  C  C1591  1  0.111000  0.477000  0.885300  1.0
  C  C1592  1  0.889000  0.023000  0.385300  1.0
  C  C1593  1  0.355000  0.481000  0.853800  1.0
  C  C1594  1  0.645000  0.019000  0.353800  1.0
  C  C1595  1  0.855000  0.519000  0.146200  1.0
  C  C1596  1  0.145000  0.981000  0.646200  1.0
  C  C1597  1  0.645000  0.519000  0.146200  1.0
  C  C1598  1  0.355000  0.981000  0.646200  1.0
  C  C1599  1  0.145000  0.481000  0.853800  1.0
  C  C1600  1  0.855000  0.019000  0.353800  1.0
  C  C1601  1  0.385000  0.584000  0.919800  1.0
  C  C1602  1  0.615000  0.916000  0.419800  1.0
  C  C1603  1  0.885000  0.416000  0.080200  1.0
  C  C1604  1  0.115000  0.084000  0.580200  1.0
  C  C1605  1  0.615000  0.416000  0.080200  1.0
  C  C1606  1  0.385000  0.084000  0.580200  1.0
  C  C1607  1  0.115000  0.584000  0.919800  1.0
  C  C1608  1  0.885000  0.916000  0.419800  1.0
  C  C1609  1  0.377000  0.618000  0.888400  1.0
  C  C1610  1  0.623000  0.882000  0.388400  1.0
  C  C1611  1  0.877000  0.382000  0.111600  1.0
  C  C1612  1  0.123000  0.118000  0.611600  1.0
  C  C1613  1  0.623000  0.382000  0.111600  1.0
  C  C1614  1  0.377000  0.118000  0.611600  1.0
  C  C1615  1  0.123000  0.618000  0.888400  1.0
  C  C1616  1  0.877000  0.882000  0.388400  1.0
  N  N1617  1  0.250000  0.263100  0.925500  1
  N  N1618  1  0.750000  0.236900  0.425500  1
  N  N1619  1  0.750000  0.736900  0.074500  1
  N  N1620  1  0.250000  0.763100  0.574500  1
  N  N1621  1  0.250000  0.429000  0.065600  1
  N  N1622  1  0.750000  0.071000  0.565600  1
  N  N1623  1  0.750000  0.571000  0.934400  1
  N  N1624  1  0.250000  0.929000  0.434400  1
  N  N1625  1  0.250000  0.748200  0.940500  1
  N  N1626  1  0.750000  0.751800  0.440500  1
  N  N1627  1  0.750000  0.251800  0.059500  1
  N  N1628  1  0.250000  0.248200  0.559500  1
  N  N1629  1  0.250000  0.552500  0.068000  1
  N  N1630  1  0.750000  0.947500  0.568000  1
  N  N1631  1  0.750000  0.447500  0.932000  1
  N  N1632  1  0.250000  0.052500  0.432000  1
  N  N1633  1  0.250000  0.546000  0.141000  1
  N  N1634  1  0.750000  0.954000  0.641000  1
  N  N1635  1  0.750000  0.454000  0.859000  1
  N  N1636  1  0.250000  0.046000  0.359000  1
  N  N1637  1  0.250000  0.422900  0.136600  1
  N  N1638  1  0.750000  0.077100  0.636600  1
  N  N1639  1  0.750000  0.577100  0.863400  1
  N  N1640  1  0.250000  0.922900  0.363400  1
  N  N1641  1  0.512500  0.498200  0.692500  1
  N  N1642  1  0.487500  0.001800  0.192500  1
  N  N1643  1  0.012500  0.501800  0.307500  1
  N  N1644  1  0.987500  0.998200  0.807500  1
  N  N1645  1  0.487500  0.501800  0.307500  1
  N  N1646  1  0.512500  0.998200  0.807500  1
  N  N1647  1  0.987500  0.498200  0.692500  1
  N  N1648  1  0.012500  0.001800  0.192500  1
  N  N1649  1  0.701800  0.277000  0.923900  1
  N  N1650  1  0.298200  0.223000  0.423900  1
  N  N1651  1  0.201800  0.723000  0.076100  1
  N  N1652  1  0.798200  0.777000  0.576100  1
  N  N1653  1  0.298200  0.723000  0.076100  1
  N  N1654  1  0.701800  0.777000  0.576100  1
  N  N1655  1  0.798200  0.277000  0.923900  1
  N  N1656  1  0.201800  0.223000  0.423900  1
  N  N1657  1  0.936900  0.492200  0.918100  1
  N  N1658  1  0.063100  0.007800  0.418100  1
  N  N1659  1  0.436900  0.507800  0.081900  1
  N  N1660  1  0.563100  0.992200  0.581900  1
  N  N1661  1  0.063100  0.507800  0.081900  1
  N  N1662  1  0.936900  0.992200  0.581900  1
  N  N1663  1  0.563100  0.492200  0.918100  1
  N  N1664  1  0.436900  0.007800  0.418100  1
  N  N1665  1  0.937400  0.525600  0.921000  1
  N  N1666  1  0.062600  0.974400  0.421000  1
  N  N1667  1  0.437400  0.474400  0.079000  1
  N  N1668  1  0.562600  0.025600  0.579000  1
  N  N1669  1  0.062600  0.474400  0.079000  1
  N  N1670  1  0.937400  0.025600  0.579000  1
  N  N1671  1  0.562600  0.525600  0.921000  1
  N  N1672  1  0.437400  0.974400  0.421000  1
  N  N1673  1  0.699700  0.740600  0.932200  1
  N  N1674  1  0.300300  0.759400  0.432200  1
  N  N1675  1  0.199700  0.259400  0.067800  1
  N  N1676  1  0.800300  0.240600  0.567800  1
  N  N1677  1  0.300300  0.259400  0.067800  1
  N  N1678  1  0.699700  0.240600  0.567800  1
  N  N1679  1  0.800300  0.740600  0.932200  1
  N  N1680  1  0.199700  0.759400  0.432200  1
  N  N1681  1  0.750000  0.775800  0.947100  1
  N  N1682  1  0.250000  0.724200  0.447100  1
  N  N1683  1  0.250000  0.224200  0.052900  1
  N  N1684  1  0.750000  0.275800  0.552900  1
  N  N1685  1  0.271500  0.701000  0.683000  1
  N  N1686  1  0.728500  0.799000  0.183000  1
  N  N1687  1  0.771500  0.299000  0.317000  1
  N  N1688  1  0.228500  0.201000  0.817000  1
  N  N1689  1  0.728500  0.299000  0.317000  1
  N  N1690  1  0.271500  0.201000  0.817000  1
  N  N1691  1  0.228500  0.701000  0.683000  1
  N  N1692  1  0.771500  0.799000  0.183000  1
  N  N1693  1  0.617000  0.121800  0.723800  1
  N  N1694  1  0.383000  0.378200  0.223800  1
  N  N1695  1  0.117000  0.878200  0.276200  1
  N  N1696  1  0.883000  0.621800  0.776200  1
  N  N1697  1  0.383000  0.878200  0.276200  1
  N  N1698  1  0.617000  0.621800  0.776200  1
  N  N1699  1  0.883000  0.121800  0.723800  1
  N  N1700  1  0.117000  0.378200  0.223800  1
  N  N1701  1  0.276700  0.368700  0.643300  1
  N  N1702  1  0.723300  0.131300  0.143300  1
  N  N1703  1  0.776700  0.631300  0.356700  1
  N  N1704  1  0.223300  0.868700  0.856700  1
  N  N1705  1  0.723300  0.631300  0.356700  1
  N  N1706  1  0.276700  0.868700  0.856700  1
  N  N1707  1  0.223300  0.368700  0.643300  1
  N  N1708  1  0.776700  0.131300  0.143300  1
  N  N1709  1  0.502300  0.516000  0.822700  1.0
  N  N1710  1  0.497700  0.984000  0.322700  1.0
  N  N1711  1  0.002300  0.484000  0.177300  1.0
  N  N1712  1  0.997700  0.016000  0.677300  1.0
  N  N1713  1  0.497700  0.484000  0.177300  1.0
  N  N1714  1  0.502300  0.016000  0.677300  1.0
  N  N1715  1  0.997700  0.516000  0.822700  1.0
  N  N1716  1  0.002300  0.984000  0.322700  1.0
  N  N1717  1  0.448100  0.466900  0.782000  1.0
  N  N1718  1  0.551900  0.033100  0.282000  1.0
  N  N1719  1  0.948100  0.533100  0.218000  1.0
  N  N1720  1  0.051900  0.966900  0.718000  1.0
  N  N1721  1  0.551900  0.533100  0.218000  1.0
  N  N1722  1  0.448100  0.966900  0.718000  1.0
  N  N1723  1  0.051900  0.466900  0.782000  1.0
  N  N1724  1  0.948100  0.033100  0.282000  1.0
  N  N1725  1  0.446700  0.570800  0.784400  1.0
  N  N1726  1  0.553300  0.929200  0.284400  1.0
  N  N1727  1  0.946700  0.429200  0.215600  1.0
  N  N1728  1  0.053300  0.070800  0.715600  1.0
  N  N1729  1  0.553300  0.429200  0.215600  1.0
  N  N1730  1  0.446700  0.070800  0.715600  1.0
  N  N1731  1  0.053300  0.570800  0.784400  1.0
  N  N1732  1  0.946700  0.929200  0.284400  1.0
  N  N1733  1  0.312500  0.524100  0.690800  1.0
  N  N1734  1  0.687500  0.975900  0.190800  1.0
  N  N1735  1  0.812500  0.475900  0.309200  1.0
  N  N1736  1  0.187500  0.024100  0.809200  1.0
  N  N1737  1  0.687500  0.475900  0.309200  1.0
  N  N1738  1  0.312500  0.024100  0.809200  1.0
  N  N1739  1  0.187500  0.524100  0.690800  1.0
  N  N1740  1  0.812500  0.975900  0.190800  1.0
  N  N1741  1  0.526000  0.726200  0.858600  1.0
  N  N1742  1  0.474000  0.773800  0.358600  1.0
  N  N1743  1  0.026000  0.273800  0.141400  1.0
  N  N1744  1  0.974000  0.226200  0.641400  1.0
  N  N1745  1  0.474000  0.273800  0.141400  1.0
  N  N1746  1  0.526000  0.226200  0.641400  1.0
  N  N1747  1  0.974000  0.726200  0.858600  1.0
  N  N1748  1  0.026000  0.773800  0.358600  1.0
  N  N1749  1  0.531000  0.299300  0.846600  1.0
  N  N1750  1  0.469000  0.200700  0.346600  1.0
  N  N1751  1  0.031000  0.700700  0.153400  1.0
  N  N1752  1  0.969000  0.799300  0.653400  1.0
  N  N1753  1  0.469000  0.700700  0.153400  1.0
  N  N1754  1  0.531000  0.799300  0.653400  1.0
  N  N1755  1  0.969000  0.299300  0.846600  1.0
  N  N1756  1  0.031000  0.200700  0.346600  1.0
  N  N1757  1  0.466300  0.237300  0.893700  1.0
  N  N1758  1  0.533700  0.262700  0.393700  1.0
  N  N1759  1  0.966300  0.762700  0.106300  1.0
  N  N1760  1  0.033700  0.737300  0.606300  1.0
  N  N1761  1  0.533700  0.762700  0.106300  1.0
  N  N1762  1  0.466300  0.737300  0.606300  1.0
  N  N1763  1  0.033700  0.237300  0.893700  1.0
  N  N1764  1  0.966300  0.262700  0.393700  1.0
  N  N1765  1  0.303300  0.310100  0.967200  1.0
  N  N1766  1  0.696700  0.189900  0.467200  1.0
  N  N1767  1  0.803300  0.689900  0.032800  1.0
  N  N1768  1  0.196700  0.810100  0.532800  1.0
  N  N1769  1  0.696700  0.689900  0.032800  1.0
  N  N1770  1  0.303300  0.810100  0.532800  1.0
  N  N1771  1  0.196700  0.310100  0.967200  1.0
  N  N1772  1  0.803300  0.189900  0.467200  1.0
  N  N1773  1  0.463200  0.781000  0.908700  1.0
  N  N1774  1  0.536800  0.719000  0.408700  1.0
  N  N1775  1  0.963200  0.219000  0.091300  1.0
  N  N1776  1  0.036800  0.281000  0.591300  1.0
  N  N1777  1  0.536800  0.219000  0.091300  1.0
  N  N1778  1  0.463200  0.281000  0.591300  1.0
  N  N1779  1  0.036800  0.781000  0.908700  1.0
  N  N1780  1  0.963200  0.719000  0.408700  1.0
  N  N1781  1  0.303700  0.691500  0.979000  1.0
  N  N1782  1  0.696300  0.808500  0.479000  1.0
  N  N1783  1  0.803700  0.308500  0.021000  1.0
  N  N1784  1  0.196300  0.191500  0.521000  1.0
  N  N1785  1  0.696300  0.308500  0.021000  1.0
  N  N1786  1  0.303700  0.191500  0.521000  1.0
  N  N1787  1  0.196300  0.691500  0.979000  1.0
  N  N1788  1  0.803700  0.808500  0.479000  1.0
  N  N1789  1  0.555200  0.879400  0.908300  1.0
  N  N1790  1  0.444800  0.620600  0.408300  1.0
  N  N1791  1  0.055200  0.120600  0.091700  1.0
  N  N1792  1  0.944800  0.379400  0.591700  1.0
  N  N1793  1  0.444800  0.120600  0.091700  1.0
  N  N1794  1  0.555200  0.379400  0.591700  1.0
  N  N1795  1  0.944800  0.879400  0.908300  1.0
  N  N1796  1  0.055200  0.620600  0.408300  1.0
  N  N1797  1  0.616500  0.824000  0.858100  1.0
  N  N1798  1  0.383500  0.676000  0.358100  1.0
  N  N1799  1  0.116500  0.176000  0.141900  1.0
  N  N1800  1  0.883500  0.324000  0.641900  1.0
  N  N1801  1  0.383500  0.176000  0.141900  1.0
  N  N1802  1  0.616500  0.324000  0.641900  1.0
  N  N1803  1  0.883500  0.824000  0.858100  1.0
  N  N1804  1  0.116500  0.676000  0.358100  1.0
  N  N1805  1  0.621400  0.204100  0.842400  1.0
  N  N1806  1  0.378600  0.295900  0.342400  1.0
  N  N1807  1  0.121400  0.795900  0.157600  1.0
  N  N1808  1  0.878600  0.704100  0.657600  1.0
  N  N1809  1  0.378600  0.795900  0.157600  1.0
  N  N1810  1  0.621400  0.704100  0.657600  1.0
  N  N1811  1  0.878600  0.204100  0.842400  1.0
  N  N1812  1  0.121400  0.295900  0.342400  1.0
  N  N1813  1  0.560900  0.140400  0.890700  1.0
  N  N1814  1  0.439100  0.359600  0.390700  1.0
  N  N1815  1  0.060900  0.859600  0.109300  1.0
  N  N1816  1  0.939100  0.640400  0.609300  1.0
  N  N1817  1  0.439100  0.859600  0.109300  1.0
  N  N1818  1  0.560900  0.640400  0.609300  1.0
  N  N1819  1  0.939100  0.140400  0.890700  1.0
  N  N1820  1  0.060900  0.359600  0.390700  1.0
  N  N1821  1  0.313200  0.534300  0.618800  1.0
  N  N1822  1  0.686800  0.965700  0.118800  1.0
  N  N1823  1  0.813200  0.465700  0.381200  1.0
  N  N1824  1  0.186800  0.034300  0.881200  1.0
  N  N1825  1  0.686800  0.465700  0.381200  1.0
  N  N1826  1  0.313200  0.034300  0.881200  1.0
  N  N1827  1  0.186800  0.534300  0.618800  1.0
  N  N1828  1  0.813200  0.965700  0.118800  1.0
  Cl  Cl1829  1  0.250000  0.606020  0.921240  1
  Cl  Cl1830  1  0.750000  0.893980  0.421240  1
  Cl  Cl1831  1  0.750000  0.393980  0.078760  1
  Cl  Cl1832  1  0.250000  0.106020  0.578760  1
  Cl  Cl1833  1  0.250000  0.404780  0.913160  1
  Cl  Cl1834  1  0.750000  0.095220  0.413160  1
  Cl  Cl1835  1  0.750000  0.595220  0.086840  1
  Cl  Cl1836  1  0.250000  0.904780  0.586840  1
  N  N1837  1  0.250000  0.707200  0.680100  0.5
  O  O1838  1  0.250000  0.707200  0.680100  0.5
  N  N1839  1  0.750000  0.792800  0.180100  0.5
  O  O1840  1  0.750000  0.792800  0.180100  0.5
  N  N1841  1  0.750000  0.292800  0.319900  0.5
  O  O1842  1  0.750000  0.292800  0.319900  0.5
  N  N1843  1  0.250000  0.207200  0.819900  0.5
  O  O1844  1  0.250000  0.207200  0.819900  0.5
  O  O1845  1  0.568400  0.270200  0.743700  1
  O  O1846  1  0.431600  0.229800  0.243700  1
  O  O1847  1  0.068400  0.729800  0.256300  1
  O  O1848  1  0.931600  0.770200  0.756300  1
  O  O1849  1  0.431600  0.729800  0.256300  1
  O  O1850  1  0.568400  0.770200  0.756300  1
  O  O1851  1  0.931600  0.270200  0.743700  1
  O  O1852  1  0.068400  0.229800  0.243700  1
  O  O1853  1  0.654000  0.012000  0.952100  1
  O  O1854  1  0.346000  0.488000  0.452100  1
  O  O1855  1  0.154000  0.988000  0.047900  1
  O  O1856  1  0.846000  0.512000  0.547900  1
  O  O1857  1  0.346000  0.988000  0.047900  1
  O  O1858  1  0.654000  0.512000  0.547900  1
  O  O1859  1  0.846000  0.012000  0.952100  1
  O  O1860  1  0.154000  0.488000  0.452100  1
  O  O1861  1  0.460500  0.145100  0.819900  1
  O  O1862  1  0.539500  0.354900  0.319900  1
  O  O1863  1  0.960500  0.854900  0.180100  1
  O  O1864  1  0.039500  0.645100  0.680100  1
  O  O1865  1  0.539500  0.854900  0.180100  1
  O  O1866  1  0.460500  0.645100  0.680100  1
  O  O1867  1  0.039500  0.145100  0.819900  1
  O  O1868  1  0.960500  0.354900  0.319900  1
  O  O1869  1  0.750000  0.323500  0.750800  1
  O  O1870  1  0.250000  0.176500  0.250800  1
  O  O1871  1  0.250000  0.676500  0.249200  1
  O  O1872  1  0.750000  0.823500  0.749200  1
  O  O1873  1  0.639700  0.356500  0.775800  1
  O  O1874  1  0.360300  0.143500  0.275800  1
  O  O1875  1  0.139700  0.643500  0.224200  1
  O  O1876  1  0.860300  0.856500  0.724200  1
  O  O1877  1  0.360300  0.643500  0.224200  1
  O  O1878  1  0.639700  0.856500  0.724200  1
  O  O1879  1  0.860300  0.356500  0.775800  1
  O  O1880  1  0.139700  0.143500  0.275800  1
  O  O1881  1  0.525200  0.547500  0.703200  1
  O  O1882  1  0.474800  0.952500  0.203200  1
  O  O1883  1  0.025200  0.452500  0.296800  1
  O  O1884  1  0.974800  0.047500  0.796800  1
  O  O1885  1  0.474800  0.452500  0.296800  1
  O  O1886  1  0.525200  0.047500  0.796800  1
  O  O1887  1  0.974800  0.547500  0.703200  1
  O  O1888  1  0.025200  0.952500  0.203200  1
  O  O1889  1  0.517800  0.453100  0.709700  1
  O  O1890  1  0.482200  0.046900  0.209700  1
  O  O1891  1  0.017800  0.546900  0.290300  1
  O  O1892  1  0.982200  0.953100  0.790300  1
  O  O1893  1  0.482200  0.546900  0.290300  1
  O  O1894  1  0.517800  0.953100  0.790300  1
  O  O1895  1  0.982200  0.453100  0.709700  1
  O  O1896  1  0.017800  0.046900  0.209700  1
  O  O1897  1  0.483600  0.493100  0.667100  1
  O  O1898  1  0.516400  0.006900  0.167100  1
  O  O1899  1  0.983600  0.506900  0.332900  1
  O  O1900  1  0.016400  0.993100  0.832900  1
  O  O1901  1  0.516400  0.506900  0.332900  1
  O  O1902  1  0.483600  0.993100  0.832900  1
  O  O1903  1  0.016400  0.493100  0.667100  1
  O  O1904  1  0.983600  0.006900  0.167100  1
  O  O1905  1  0.441400  0.369900  0.672500  1
  O  O1906  1  0.558600  0.130100  0.172500  1
  O  O1907  1  0.941400  0.630100  0.327500  1
  O  O1908  1  0.058600  0.869900  0.827500  1
  O  O1909  1  0.558600  0.630100  0.327500  1
  O  O1910  1  0.441400  0.869900  0.827500  1
  O  O1911  1  0.058600  0.369900  0.672500  1
  O  O1912  1  0.941400  0.130100  0.172500  1
  O  O1913  1  0.750000  0.104000  0.051000  1
  O  O1914  1  0.250000  0.396000  0.551000  1
  O  O1915  1  0.250000  0.896000  0.949000  1
  O  O1916  1  0.750000  0.604000  0.449000  1
  O  O1917  1  0.481000  0.447000  0.666000  1
  O  O1918  1  0.519000  0.053000  0.166000  1
  O  O1919  1  0.981000  0.553000  0.334000  1
  O  O1920  1  0.019000  0.947000  0.834000  1
  O  O1921  1  0.519000  0.553000  0.334000  1
  O  O1922  1  0.481000  0.947000  0.834000  1
  O  O1923  1  0.019000  0.447000  0.666000  1
  O  O1924  1  0.981000  0.053000  0.166000  1
  O  O1925  1  0.432900  0.355500  0.686100  1
  O  O1926  1  0.567100  0.144500  0.186100  1
  O  O1927  1  0.932900  0.644500  0.313900  1
  O  O1928  1  0.067100  0.855500  0.813900  1
  O  O1929  1  0.567100  0.644500  0.313900  1
  O  O1930  1  0.432900  0.855500  0.813900  1
  O  O1931  1  0.067100  0.355500  0.686100  1
  O  O1932  1  0.932900  0.144500  0.186100  1
  O  O1933  1  0.701200  0.242200  0.947100  1
  O  O1934  1  0.298800  0.257800  0.447100  1
  O  O1935  1  0.201200  0.757800  0.052900  1
  O  O1936  1  0.798800  0.742200  0.552900  1
  O  O1937  1  0.298800  0.757800  0.052900  1
  O  O1938  1  0.701200  0.742200  0.552900  1
  O  O1939  1  0.798800  0.242200  0.947100  1
  O  O1940  1  0.201200  0.257800  0.447100  1
  O  O1941  1  0.750000  0.287700  0.909900  1
  O  O1942  1  0.250000  0.212300  0.409900  1
  O  O1943  1  0.250000  0.712300  0.090100  1
  O  O1944  1  0.750000  0.787700  0.590100  1
  O  O1945  1  0.653400  0.293800  0.912200  1
  O  O1946  1  0.346600  0.206200  0.412200  1
  O  O1947  1  0.153400  0.706200  0.087800  1
  O  O1948  1  0.846600  0.793800  0.587800  1
  O  O1949  1  0.346600  0.706200  0.087800  1
  O  O1950  1  0.653400  0.793800  0.587800  1
  O  O1951  1  0.846600  0.293800  0.912200  1
  O  O1952  1  0.153400  0.206200  0.412200  1
  O  O1953  1  0.618900  0.299500  0.921700  1
  O  O1954  1  0.381100  0.200500  0.421700  1
  O  O1955  1  0.118900  0.700500  0.078300  1
  O  O1956  1  0.881100  0.799500  0.578300  1
  O  O1957  1  0.381100  0.700500  0.078300  1
  O  O1958  1  0.618900  0.799500  0.578300  1
  O  O1959  1  0.881100  0.299500  0.921700  1
  O  O1960  1  0.118900  0.200500  0.421700  1
  O  O1961  1  0.750000  0.162000  0.990400  1
  O  O1962  1  0.250000  0.338000  0.490400  1
  O  O1963  1  0.250000  0.838000  0.009600  1
  O  O1964  1  0.750000  0.662000  0.509600  1
  O  O1965  1  0.565400  0.140300  0.010400  1
  O  O1966  1  0.434600  0.359700  0.510400  1
  O  O1967  1  0.065400  0.859700  0.989600  1
  O  O1968  1  0.934600  0.640300  0.489600  1
  O  O1969  1  0.434600  0.859700  0.989600  1
  O  O1970  1  0.565400  0.640300  0.489600  1
  O  O1971  1  0.934600  0.140300  0.010400  1
  O  O1972  1  0.065400  0.359700  0.510400  1
  O  O1973  1  0.582800  0.263400  0.973500  1
  O  O1974  1  0.417200  0.236600  0.473500  1
  O  O1975  1  0.082800  0.736600  0.026500  1
  O  O1976  1  0.917200  0.763400  0.526500  1
  O  O1977  1  0.417200  0.736600  0.026500  1
  O  O1978  1  0.582800  0.763400  0.526500  1
  O  O1979  1  0.917200  0.263400  0.973500  1
  O  O1980  1  0.082800  0.236600  0.473500  1
  O  O1981  1  0.414800  0.132500  0.961800  1
  O  O1982  1  0.585200  0.367500  0.461800  1
  O  O1983  1  0.914800  0.867500  0.038200  1
  O  O1984  1  0.085200  0.632500  0.538200  1
  O  O1985  1  0.585200  0.867500  0.038200  1
  O  O1986  1  0.414800  0.632500  0.538200  1
  O  O1987  1  0.085200  0.132500  0.961800  1
  O  O1988  1  0.914800  0.367500  0.461800  1
  O  O1989  1  0.556800  0.036100  0.986300  1
  O  O1990  1  0.443200  0.463900  0.486300  1
  O  O1991  1  0.056800  0.963900  0.013700  1
  O  O1992  1  0.943200  0.536100  0.513700  1
  O  O1993  1  0.443200  0.963900  0.013700  1
  O  O1994  1  0.556800  0.536100  0.513700  1
  O  O1995  1  0.943200  0.036100  0.986300  1
  O  O1996  1  0.056800  0.463900  0.486300  1
  O  O1997  1  0.439700  0.032500  0.958900  1
  O  O1998  1  0.560300  0.467500  0.458900  1
  O  O1999  1  0.939700  0.967500  0.041100  1
  O  O2000  1  0.060300  0.532500  0.541100  1
  O  O2001  1  0.560300  0.967500  0.041100  1
  O  O2002  1  0.439700  0.532500  0.541100  1
  O  O2003  1  0.060300  0.032500  0.958900  1
  O  O2004  1  0.939700  0.467500  0.458900  1
  O  O2005  1  0.501400  0.191500  0.991100  1
  O  O2006  1  0.498600  0.308500  0.491100  1
  O  O2007  1  0.001400  0.808500  0.008900  1
  O  O2008  1  0.998600  0.691500  0.508900  1
  O  O2009  1  0.498600  0.808500  0.008900  1
  O  O2010  1  0.501400  0.691500  0.508900  1
  O  O2011  1  0.998600  0.191500  0.991100  1
  O  O2012  1  0.001400  0.308500  0.491100  1
  O  O2013  1  0.315300  0.152400  0.975200  1
  O  O2014  1  0.684700  0.347600  0.475200  1
  O  O2015  1  0.815300  0.847600  0.024800  1
  O  O2016  1  0.184700  0.652400  0.524800  1
  O  O2017  1  0.684700  0.847600  0.024800  1
  O  O2018  1  0.315300  0.652400  0.524800  1
  O  O2019  1  0.184700  0.152400  0.975200  1
  O  O2020  1  0.815300  0.347600  0.475200  1
  O  O2021  1  0.899000  0.513500  0.899900  1
  O  O2022  1  0.101000  0.986500  0.399900  1
  O  O2023  1  0.399000  0.486500  0.100100  1
  O  O2024  1  0.601000  0.013500  0.600100  1
  O  O2025  1  0.101000  0.486500  0.100100  1
  O  O2026  1  0.899000  0.013500  0.600100  1
  O  O2027  1  0.601000  0.513500  0.899900  1
  O  O2028  1  0.399000  0.986500  0.399900  1
  O  O2029  1  0.940700  0.438000  0.922200  1
  O  O2030  1  0.059300  0.062000  0.422200  1
  O  O2031  1  0.440700  0.562000  0.077800  1
  O  O2032  1  0.559300  0.938000  0.577800  1
  O  O2033  1  0.059300  0.562000  0.077800  1
  O  O2034  1  0.940700  0.938000  0.577800  1
  O  O2035  1  0.559300  0.438000  0.922200  1
  O  O2036  1  0.440700  0.062000  0.422200  1
  O  O2037  1  0.971000  0.525400  0.933700  1
  O  O2038  1  0.029000  0.974600  0.433700  1
  O  O2039  1  0.471000  0.474600  0.066300  1
  O  O2040  1  0.529000  0.025400  0.566300  1
  O  O2041  1  0.029000  0.474600  0.066300  1
  O  O2042  1  0.971000  0.025400  0.566300  1
  O  O2043  1  0.529000  0.525400  0.933700  1
  O  O2044  1  0.471000  0.974600  0.433700  1
  O  O2045  1  0.943500  0.579700  0.924900  1
  O  O2046  1  0.056500  0.920300  0.424900  1
  O  O2047  1  0.443500  0.420300  0.075100  1
  O  O2048  1  0.556500  0.079700  0.575100  1
  O  O2049  1  0.056500  0.420300  0.075100  1
  O  O2050  1  0.943500  0.079700  0.575100  1
  O  O2051  1  0.556500  0.579700  0.924900  1
  O  O2052  1  0.443500  0.920300  0.424900  1
  O  O2053  1  0.902000  0.505600  0.900900  1
  O  O2054  1  0.098000  0.994400  0.400900  1
  O  O2055  1  0.402000  0.494400  0.099100  1
  O  O2056  1  0.598000  0.005600  0.599100  1
  O  O2057  1  0.098000  0.494400  0.099100  1
  O  O2058  1  0.902000  0.005600  0.599100  1
  O  O2059  1  0.598000  0.505600  0.900900  1
  O  O2060  1  0.402000  0.994400  0.400900  1
  O  O2061  1  0.963300  0.491600  0.940300  1
  O  O2062  1  0.036700  0.008400  0.440300  1
  O  O2063  1  0.463300  0.508400  0.059700  1
  O  O2064  1  0.536700  0.991600  0.559700  1
  O  O2065  1  0.036700  0.508400  0.059700  1
  O  O2066  1  0.963300  0.991600  0.559700  1
  O  O2067  1  0.536700  0.491600  0.940300  1
  O  O2068  1  0.463300  0.008400  0.440300  1
  O  O2069  1  0.951700  0.626300  0.964500  1
  O  O2070  1  0.048300  0.873700  0.464500  1
  O  O2071  1  0.451700  0.373700  0.035500  1
  O  O2072  1  0.548300  0.126300  0.535500  1
  O  O2073  1  0.048300  0.373700  0.035500  1
  O  O2074  1  0.951700  0.126300  0.535500  1
  O  O2075  1  0.548300  0.626300  0.964500  1
  O  O2076  1  0.451700  0.873700  0.464500  1
  O  O2077  1  0.967400  0.635500  0.982300  1
  O  O2078  1  0.032600  0.864500  0.482300  1
  O  O2079  1  0.467400  0.364500  0.017700  1
  O  O2080  1  0.532600  0.135500  0.517700  1
  O  O2081  1  0.032600  0.364500  0.017700  1
  O  O2082  1  0.967400  0.135500  0.517700  1
  O  O2083  1  0.532600  0.635500  0.982300  1
  O  O2084  1  0.467400  0.864500  0.482300  1
  O  O2085  1  0.967400  0.367100  0.975800  1
  O  O2086  1  0.032600  0.132900  0.475800  1
  O  O2087  1  0.467400  0.632900  0.024200  1
  O  O2088  1  0.532600  0.867100  0.524200  1
  O  O2089  1  0.032600  0.632900  0.024200  1
  O  O2090  1  0.967400  0.867100  0.524200  1
  O  O2091  1  0.532600  0.367100  0.975800  1
  O  O2092  1  0.467400  0.132900  0.475800  1
  O  O2093  1  0.951400  0.382300  0.958000  1
  O  O2094  1  0.048600  0.117700  0.458000  1
  O  O2095  1  0.451400  0.617700  0.042000  1
  O  O2096  1  0.548600  0.882300  0.542000  1
  O  O2097  1  0.048600  0.617700  0.042000  1
  O  O2098  1  0.951400  0.882300  0.542000  1
  O  O2099  1  0.548600  0.382300  0.958000  1
  O  O2100  1  0.451400  0.117700  0.458000  1
  O  O2101  1  0.653100  0.721000  0.919500  1
  O  O2102  1  0.346900  0.779000  0.419500  1
  O  O2103  1  0.153100  0.279000  0.080500  1
  O  O2104  1  0.846900  0.221000  0.580500  1
  O  O2105  1  0.346900  0.279000  0.080500  1
  O  O2106  1  0.653100  0.221000  0.580500  1
  O  O2107  1  0.846900  0.721000  0.919500  1
  O  O2108  1  0.153100  0.779000  0.419500  1
  O  O2109  1  0.750000  0.725000  0.921300  1
  O  O2110  1  0.250000  0.775000  0.421300  1
  O  O2111  1  0.250000  0.275000  0.078700  1
  O  O2112  1  0.750000  0.225000  0.578700  1
  O  O2113  1  0.697000  0.754000  0.961500  1
  O  O2114  1  0.303000  0.746000  0.461500  1
  O  O2115  1  0.197000  0.246000  0.038500  1
  O  O2116  1  0.803000  0.254000  0.538500  1
  O  O2117  1  0.303000  0.246000  0.038500  1
  O  O2118  1  0.697000  0.254000  0.538500  1
  O  O2119  1  0.803000  0.754000  0.961500  1
  O  O2120  1  0.197000  0.746000  0.461500  1
  O  O2121  1  0.750000  0.745000  0.921800  1
  O  O2122  1  0.250000  0.755000  0.421800  1
  O  O2123  1  0.250000  0.255000  0.078200  1
  O  O2124  1  0.750000  0.245000  0.578200  1
  O  O2125  1  0.699100  0.785100  0.959900  1
  O  O2126  1  0.300900  0.714900  0.459900  1
  O  O2127  1  0.199100  0.214900  0.040100  1
  O  O2128  1  0.800900  0.285100  0.540100  1
  O  O2129  1  0.300900  0.214900  0.040100  1
  O  O2130  1  0.699100  0.285100  0.540100  1
  O  O2131  1  0.800900  0.785100  0.959900  1
  O  O2132  1  0.199100  0.714900  0.459900  1
  O  O2133  1  0.614700  0.719200  0.932700  1
  O  O2134  1  0.385300  0.780800  0.432700  1
  O  O2135  1  0.114700  0.280800  0.067300  1
  O  O2136  1  0.885300  0.219200  0.567300  1
  O  O2137  1  0.385300  0.280800  0.067300  1
  O  O2138  1  0.614700  0.219200  0.567300  1
  O  O2139  1  0.885300  0.719200  0.932700  1
  O  O2140  1  0.114700  0.780800  0.432700  1
  O  O2141  1  0.584900  0.739500  0.982200  1
  O  O2142  1  0.415100  0.760500  0.482200  1
  O  O2143  1  0.084900  0.260500  0.017800  1
  O  O2144  1  0.915100  0.239500  0.517800  1
  O  O2145  1  0.415100  0.260500  0.017800  1
  O  O2146  1  0.584900  0.239500  0.517800  1
  O  O2147  1  0.915100  0.739500  0.982200  1
  O  O2148  1  0.084900  0.760500  0.482200  1
  O  O2149  1  0.303600  0.710000  0.668400  1
  O  O2150  1  0.696400  0.790000  0.168400  1
  O  O2151  1  0.803600  0.290000  0.331600  1
  O  O2152  1  0.196400  0.210000  0.831600  1
  O  O2153  1  0.696400  0.290000  0.331600  1
  O  O2154  1  0.303600  0.210000  0.831600  1
  O  O2155  1  0.196400  0.710000  0.668400  1
  O  O2156  1  0.803600  0.790000  0.168400  1
  O  O2157  1  0.213700  0.677200  0.664800  1
  O  O2158  1  0.786300  0.822800  0.164800  1
  O  O2159  1  0.713700  0.322800  0.335200  1
  O  O2160  1  0.286300  0.177200  0.835200  1
  O  O2161  1  0.786300  0.322800  0.335200  1
  O  O2162  1  0.213700  0.177200  0.835200  1
  O  O2163  1  0.286300  0.677200  0.664800  1
  O  O2164  1  0.713700  0.822800  0.164800  1
  O  O2165  1  0.250000  0.707000  0.710400  1
  O  O2166  1  0.750000  0.793000  0.210400  1
  O  O2167  1  0.750000  0.293000  0.289600  1
  O  O2168  1  0.250000  0.207000  0.789600  1
  O  O2169  1  0.325700  0.715000  0.682000  1
  O  O2170  1  0.674300  0.785000  0.182000  1
  O  O2171  1  0.825700  0.285000  0.318000  1
  O  O2172  1  0.174300  0.215000  0.818000  1
  O  O2173  1  0.674300  0.285000  0.318000  1
  O  O2174  1  0.325700  0.215000  0.818000  1
  O  O2175  1  0.174300  0.715000  0.682000  1
  O  O2176  1  0.825700  0.785000  0.182000  1
  O  O2177  1  0.250000  0.680300  0.658100  1
  O  O2178  1  0.750000  0.819700  0.158100  1
  O  O2179  1  0.750000  0.319700  0.341900  1
  O  O2180  1  0.250000  0.180300  0.841900  1
  O  O2181  1  0.239000  0.720200  0.704900  1
  O  O2182  1  0.761000  0.779800  0.204900  1
  O  O2183  1  0.739000  0.279800  0.295100  1
  O  O2184  1  0.261000  0.220200  0.795100  1
  O  O2185  1  0.761000  0.279800  0.295100  1
  O  O2186  1  0.239000  0.220200  0.795100  1
  O  O2187  1  0.261000  0.720200  0.704900  1
  O  O2188  1  0.739000  0.779800  0.204900  1
  O  O2189  1  0.386300  0.716100  0.712400  1
  O  O2190  1  0.613700  0.783900  0.212400  1
  O  O2191  1  0.886300  0.283900  0.287600  1
  O  O2192  1  0.113700  0.216100  0.787600  1
  O  O2193  1  0.613700  0.283900  0.287600  1
  O  O2194  1  0.386300  0.216100  0.787600  1
  O  O2195  1  0.113700  0.716100  0.712400  1
  O  O2196  1  0.886300  0.783900  0.212400  1
  O  O2197  1  0.399300  0.716900  0.724400  1
  O  O2198  1  0.600700  0.783100  0.224400  1
  O  O2199  1  0.899300  0.283100  0.275600  1
  O  O2200  1  0.100700  0.216900  0.775600  1
  O  O2201  1  0.600700  0.283100  0.275600  1
  O  O2202  1  0.399300  0.216900  0.775600  1
  O  O2203  1  0.100700  0.716900  0.724400  1
  O  O2204  1  0.899300  0.783100  0.224400  1
  O  O2205  1  0.448700  0.783800  0.758000  1
  O  O2206  1  0.551300  0.716200  0.258000  1
  O  O2207  1  0.948700  0.216200  0.242000  1
  O  O2208  1  0.051300  0.283800  0.742000  1
  O  O2209  1  0.551300  0.216200  0.242000  1
  O  O2210  1  0.448700  0.283800  0.742000  1
  O  O2211  1  0.051300  0.783800  0.758000  1
  O  O2212  1  0.948700  0.716200  0.258000  1
  O  O2213  1  0.450200  0.804700  0.766900  1
  O  O2214  1  0.549800  0.695300  0.266900  1
  O  O2215  1  0.950200  0.195300  0.233100  1
  O  O2216  1  0.049800  0.304700  0.733100  1
  O  O2217  1  0.549800  0.195300  0.233100  1
  O  O2218  1  0.450200  0.304700  0.733100  1
  O  O2219  1  0.049800  0.804700  0.766900  1
  O  O2220  1  0.950200  0.695300  0.266900  1
  O  O2221  1  0.645700  0.075900  0.717300  1
  O  O2222  1  0.354300  0.424100  0.217300  1
  O  O2223  1  0.145700  0.924100  0.282700  1
  O  O2224  1  0.854300  0.575900  0.782700  1
  O  O2225  1  0.354300  0.924100  0.282700  1
  O  O2226  1  0.645700  0.575900  0.782700  1
  O  O2227  1  0.854300  0.075900  0.717300  1
  O  O2228  1  0.145700  0.424100  0.217300  1
  O  O2229  1  0.643000  0.170300  0.721300  1
  O  O2230  1  0.357000  0.329700  0.221300  1
  O  O2231  1  0.143000  0.829700  0.278700  1
  O  O2232  1  0.857000  0.670300  0.778700  1
  O  O2233  1  0.357000  0.829700  0.278700  1
  O  O2234  1  0.643000  0.670300  0.778700  1
  O  O2235  1  0.857000  0.170300  0.721300  1
  O  O2236  1  0.143000  0.329700  0.221300  1
  O  O2237  1  0.574000  0.118000  0.743000  1
  O  O2238  1  0.426000  0.382000  0.243000  1
  O  O2239  1  0.074000  0.882000  0.257000  1
  O  O2240  1  0.926000  0.618000  0.757000  1
  O  O2241  1  0.426000  0.882000  0.257000  1
  O  O2242  1  0.574000  0.618000  0.757000  1
  O  O2243  1  0.926000  0.118000  0.743000  1
  O  O2244  1  0.074000  0.382000  0.243000  1
  O  O2245  1  0.632200  0.179900  0.714600  1
  O  O2246  1  0.367800  0.320100  0.214600  1
  O  O2247  1  0.132200  0.820100  0.285400  1
  O  O2248  1  0.867800  0.679900  0.785400  1
  O  O2249  1  0.367800  0.820100  0.285400  1
  O  O2250  1  0.632200  0.679900  0.785400  1
  O  O2251  1  0.867800  0.179900  0.714600  1
  O  O2252  1  0.132200  0.320100  0.214600  1
  O  O2253  1  0.594100  0.064600  0.737400  1
  O  O2254  1  0.405900  0.435400  0.237400  1
  O  O2255  1  0.094100  0.935400  0.262600  1
  O  O2256  1  0.905900  0.564600  0.762600  1
  O  O2257  1  0.405900  0.935400  0.262600  1
  O  O2258  1  0.594100  0.564600  0.762600  1
  O  O2259  1  0.905900  0.064600  0.737400  1
  O  O2260  1  0.094100  0.435400  0.237400  1
  O  O2261  1  0.750000  0.204000  0.706000  1
  O  O2262  1  0.250000  0.296000  0.206000  1
  O  O2263  1  0.250000  0.796000  0.294000  1
  O  O2264  1  0.750000  0.704000  0.794000  1
  O  O2265  1  0.750000  0.200800  0.740000  1
  O  O2266  1  0.250000  0.299200  0.240000  1
  O  O2267  1  0.250000  0.799200  0.260000  1
  O  O2268  1  0.750000  0.700800  0.760000  1
  O  O2269  1  0.595900  0.963200  0.739500  1
  O  O2270  1  0.404100  0.536800  0.239500  1
  O  O2271  1  0.095900  0.036800  0.260500  1
  O  O2272  1  0.904100  0.463200  0.760500  1
  O  O2273  1  0.404100  0.036800  0.260500  1
  O  O2274  1  0.595900  0.463200  0.760500  1
  O  O2275  1  0.904100  0.963200  0.739500  1
  O  O2276  1  0.095900  0.536800  0.239500  1
  O  O2277  1  0.640000  0.950000  0.725100  1
  O  O2278  1  0.360000  0.550000  0.225100  1
  O  O2279  1  0.140000  0.050000  0.274900  1
  O  O2280  1  0.860000  0.450000  0.774900  1
  O  O2281  1  0.360000  0.050000  0.274900  1
  O  O2282  1  0.640000  0.450000  0.774900  1
  O  O2283  1  0.860000  0.950000  0.725100  1
  O  O2284  1  0.140000  0.550000  0.225100  1
  O  O2285  1  0.750000  0.626400  0.708900  1
  O  O2286  1  0.250000  0.873600  0.208900  1
  O  O2287  1  0.250000  0.373600  0.291100  1
  O  O2288  1  0.750000  0.126400  0.791100  1
  O  O2289  1  0.750000  0.570000  0.707000  1
  O  O2290  1  0.250000  0.930000  0.207000  1
  O  O2291  1  0.250000  0.430000  0.293000  1
  O  O2292  1  0.750000  0.070000  0.793000  1
  O  O2293  1  0.750000  0.534000  0.733700  1
  O  O2294  1  0.250000  0.966000  0.233700  1
  O  O2295  1  0.250000  0.466000  0.266300  1
  O  O2296  1  0.750000  0.034000  0.766300  1
  O  O2297  1  0.750000  0.476000  0.726300  1
  O  O2298  1  0.250000  0.024000  0.226300  1
  O  O2299  1  0.250000  0.524000  0.273700  1
  O  O2300  1  0.750000  0.976000  0.773700  1
  O  O2301  1  0.750000  0.398700  0.692900  1
  O  O2302  1  0.250000  0.101300  0.192900  1
  O  O2303  1  0.250000  0.601300  0.307100  1
  O  O2304  1  0.750000  0.898700  0.807100  1
  O  O2305  1  0.750000  0.021000  0.899700  1
  O  O2306  1  0.250000  0.479000  0.399700  1
  O  O2307  1  0.250000  0.979000  0.100300  1
  O  O2308  1  0.750000  0.521000  0.600300  1
  O  O2309  1  0.750000  0.081000  0.914700  1
  O  O2310  1  0.250000  0.419000  0.414700  1
  O  O2311  1  0.250000  0.919000  0.085300  1
  O  O2312  1  0.750000  0.581000  0.585300  1
  O  O2313  1  0.250000  0.373800  0.668900  1
  O  O2314  1  0.750000  0.126200  0.168900  1
  O  O2315  1  0.750000  0.626200  0.331100  1
  O  O2316  1  0.250000  0.873800  0.831100  1
  O  O2317  1  0.250000  0.371500  0.617000  1
  O  O2318  1  0.750000  0.128500  0.117000  1
  O  O2319  1  0.750000  0.628500  0.383000  1
  O  O2320  1  0.250000  0.871500  0.883000  1
  O  O2321  1  0.332000  0.362200  0.645000  1
  O  O2322  1  0.668000  0.137800  0.145000  1
  O  O2323  1  0.832000  0.637800  0.355000  1
  O  O2324  1  0.168000  0.862200  0.855000  1
  O  O2325  1  0.668000  0.637800  0.355000  1
  O  O2326  1  0.332000  0.862200  0.855000  1
  O  O2327  1  0.168000  0.362200  0.645000  1
  O  O2328  1  0.832000  0.137800  0.145000  1
  O  O2329  1  0.777000  0.100000  0.027000  1.0
  O  O2330  1  0.223000  0.400000  0.527000  1.0
  O  O2331  1  0.277000  0.900000  0.973000  1.0
  O  O2332  1  0.723000  0.600000  0.473000  1.0
  O  O2333  1  0.223000  0.900000  0.973000  1.0
  O  O2334  1  0.777000  0.600000  0.473000  1.0
  O  O2335  1  0.723000  0.100000  0.027000  1.0
  O  O2336  1  0.277000  0.400000  0.527000  1.0
  O  O2337  1  0.807700  0.153500  0.999100  1.0
  O  O2338  1  0.192300  0.346500  0.499100  1.0
  O  O2339  1  0.307700  0.846500  0.000900  1.0
  O  O2340  1  0.692300  0.653500  0.500900  1.0
  O  O2341  1  0.192300  0.846500  0.000900  1.0
  O  O2342  1  0.807700  0.653500  0.500900  1.0
  O  O2343  1  0.692300  0.153500  0.999100  1.0
  O  O2344  1  0.307700  0.346500  0.499100  1.0
