
#######################################################################
#
#                 Cambridge Crystallographic Data Centre
#                                CCDC 
#
#######################################################################
#
# If this CIF has been generated from an entry in the Cambridge 
# Structural Database, then it will include bibliographic, chemical, 
# crystal, experimental, refinement or atomic coordinate data resulting 
# from the CCDC's data processing and validation procedures.
#
#######################################################################

data_ROBVUB
_chemical_formula_moiety         
'C108 H144 N36 Pd6 12+,C10 H18 Si2,C12 H30 Cl2 P2 Pt1,12(N1 O3 1-),19(H2 O1)'
_chemical_name_systematic        
"tetrakis(\m-2,4,6-tri(pyridin-4-yl)-1,3,5-triazine)-hexakis(N,N,N',N'-tetramethylethane-1,2-diamine)-hexa-palladium dichloro-bis(triethylphosphine)-platinum buta-1,3-diyne-1,4-diylbis(trimethylsilane) dodecanitrate hydrate"
_symmetry_cell_setting           orthorhombic
_symmetry_space_group_name_H-M   'P n m a'
_symmetry_Int_Tables_number      62
_space_group_name_Hall           '-P 2ac 2n'
loop_
_symmetry_equiv_pos_site_id
_symmetry_equiv_pos_as_xyz
1 x,y,z
2 1/2-x,-y,1/2+z
3 -x,1/2+y,-z
4 1/2+x,1/2-y,1/2-z
5 -x,-y,-z
6 1/2+x,y,1/2-z
7 x,1/2-y,z
8 1/2-x,1/2+y,1/2+z
_cell_length_a                   22.628(3)
_cell_length_b                   22.198(3)
_cell_length_c                   41.504(6)
_cell_angle_alpha                90
_cell_angle_beta                 90
_cell_angle_gamma                90
_cell_volume                     20847.3
_exptl_crystal_colour            yellow
_exptl_crystal_description       rod
_cell_formula_units_Z            4
loop_
_atom_site_label
_atom_site_type_symbol
_atom_site_fract_x
_atom_site_fract_y
_atom_site_fract_z
Pd1 Pd 0.77904(3) 0.45579(3) 0.13137(2)
Pd2 Pd 0.51234(5) 0.7500 -0.10251(3)
Pd3 Pd 0.19807(3) 0.45957(4) 0.11612(2)
Pd4 Pd 0.47227(5) 0.7500 0.34512(3)
N1 N 0.4840(3) 0.4977(4) 0.1773(2)
N2 N 0.5331(4) 0.5519(4) 0.2180(2)
N3 N 0.4292(4) 0.5533(4) 0.2156(2)
N4 N 0.4759(4) 0.6875(4) 0.3092(2)
N5 N 0.2738(4) 0.4740(4) 0.1414(2)
N6 N 0.7007(3) 0.4690(4) 0.1534(2)
N7 N 0.7627(4) 0.5337(4) 0.1063(2)
N8 N 0.7369(5) 0.7500 0.0745(3)
N9 N 0.6899(4) 0.6967(4) 0.0328(2)
N10 N 0.5710(5) 0.7500 -0.0656(3)
N11 N 0.2190(4) 0.5368(4) 0.0913(2)
N12 N 0.3085(4) 0.6963(4) 0.0210(2)
N13 N 0.2518(5) 0.7500 0.0595(3)
N14 N 0.4475(5) 0.7500 -0.0680(3)
N15 N 0.1206(4) 0.4448(5) 0.0917(3)
N16 N 0.1760(4) 0.3835(4) 0.1419(3)
N17 N 0.7959(4) 0.3786(4) 0.1576(3)
N18 N 0.8596(4) 0.4391(4) 0.1093(3)
N19 N 0.4540(5) 0.7500 -0.1410(3)
N20 N 0.5771(5) 0.7500 -0.1366(3)
N21 N 0.4657(4) 0.6868(4) 0.3812(2)
C7 C 0.4262(5) 0.6709(5) 0.2939(3)
H16 H 0.3896 0.6865 0.3013
C8 C 0.4261(5) 0.6332(5) 0.2684(3)
H17 H 0.3899 0.6225 0.2583
C9 C 0.4789(4) 0.6101(4) 0.2570(2)
C10 C 0.5294(5) 0.6265(5) 0.2730(3)
H18 H 0.5664 0.6108 0.2662
C11 C 0.5270(4) 0.6654(5) 0.2987(2)
H19 H 0.5627 0.6768 0.3092
C12 C 0.4807(4) 0.5691(4) 0.2288(2)
C13 C 0.4338(4) 0.5178(4) 0.1895(2)
C14 C 0.5334(4) 0.5160(4) 0.1924(2)
C15 C 0.3779(4) 0.5009(4) 0.1734(3)
C16 C 0.3234(5) 0.5210(5) 0.1848(3)
H20 H 0.3215 0.5448 0.2038
C17 C 0.2726(5) 0.5063(5) 0.1685(3)
H21 H 0.2356 0.5195 0.1767
C18 C 0.3259(5) 0.4539(5) 0.1301(3)
H22 H 0.3264 0.4298 0.1112
C19 C 0.3786(4) 0.4672(5) 0.1452(3)
H23 H 0.4150 0.4534 0.1365
C20 C 0.5901(4) 0.4979(4) 0.1799(2)
C21 C 0.6423(4) 0.5159(4) 0.1943(2)
H24 H 0.6411 0.5386 0.2137
C22 C 0.6968(4) 0.5010(5) 0.1807(3)
H25 H 0.7320 0.5139 0.1911
C23 C 0.6491(5) 0.4518(5) 0.1387(3)
H26 H 0.6515 0.4303 0.1190
C24 C 0.5943(5) 0.4641(5) 0.1510(3)
H27 H 0.5596 0.4503 0.1404
C25 C 0.7747(4) 0.5871(5) 0.1204(3)
H28 H 0.7935 0.5872 0.1409
C26 C 0.7607(4) 0.6416(5) 0.1063(3)
H29 H 0.7686 0.6784 0.1171
C27 C 0.7347(4) 0.6412(5) 0.0759(3)
C28 C 0.7211(5) 0.5869(5) 0.0619(3)
H30 H 0.7018 0.5856 0.0416
C29 C 0.7360(5) 0.5336(5) 0.0779(2)
H31 H 0.7266 0.4961 0.0681
C30 C 0.7199(4) 0.6996(5) 0.0603(2)
C31 C 0.6755(6) 0.7500 0.0193(4)
C32 C 0.6404(6) 0.7500 -0.0096(3)
C33 C 0.6227(5) 0.6971(5) -0.0245(3)
H32 H 0.6343 0.6595 -0.0156
C34 C 0.5886(5) 0.6982(5) -0.0520(2)
H33 H 0.5773 0.6611 -0.0616
C35 C 0.2563(5) 0.5353(6) 0.0663(3)
H34 H 0.2706 0.4975 0.0590
C36 C 0.2746(5) 0.5873(6) 0.0506(3)
H35 H 0.3009 0.5853 0.0329
C37 C 0.2535(5) 0.6421(5) 0.0616(3)
C38 C 0.2140(5) 0.6426(6) 0.0871(3)
H36 H 0.1979 0.6796 0.0946
C39 C 0.1985(6) 0.5893(6) 0.1014(3)
H37 H 0.1721 0.5900 0.1192
C40 C 0.2720(5) 0.6999(5) 0.0460(3)
C41 C 0.3254(7) 0.7500 0.0094(4)
C42 C 0.3687(6) 0.7500 -0.0180(4)
C43 C 0.3888(5) 0.6975(5) -0.0317(3)
H38 H 0.3752 0.6598 -0.0237
C44 C 0.4270(5) 0.6988(5) -0.0559(3)
H39 H 0.4402 0.6618 -0.0649
C45 C 0.0882(6) 0.3977(6) 0.1082(4)
H40 H 0.0605 0.3781 0.0930
H41 H 0.0647 0.4155 0.1260
C46 C 0.1299(6) 0.3517(7) 0.1216(4)
H42 H 0.1493 0.3296 0.1038
H43 H 0.1079 0.3223 0.1349
C47 C 0.1530(6) 0.4003(6) 0.1736(3)
H44 H 0.1194 0.4278 0.1709
H45 H 0.1841 0.4204 0.1860
H46 H 0.1400 0.3641 0.1851
C48 C 0.2271(6) 0.3410(6) 0.1462(5)
H47 H 0.2427 0.3296 0.1251
H48 H 0.2137 0.3048 0.1576
H49 H 0.2582 0.3608 0.1588
C49 C 0.0821(6) 0.5000(7) 0.0890(4)
H50 H 0.1019 0.5301 0.0755
H51 H 0.0752 0.5168 0.1105
H52 H 0.0442 0.4889 0.0792
C50 C 0.1343(7) 0.4249(8) 0.0591(4)
H53 H 0.0976 0.4208 0.0467
H54 H 0.1545 0.3859 0.0600
H55 H 0.1600 0.4546 0.0487
C51 C 0.8893(6) 0.3928(6) 0.1297(4)
H56 H 0.9213 0.3730 0.1173
H57 H 0.9071 0.4121 0.1489
C52 C 0.8450(6) 0.3475(6) 0.1398(4)
H58 H 0.8638 0.3171 0.1540
H59 H 0.8289 0.3265 0.1207
C53 C 0.8500(6) 0.4172(7) 0.0760(3)
H60 H 0.8311 0.4489 0.0632
H61 H 0.8244 0.3816 0.0764
H62 H 0.8881 0.4066 0.0663
C54 C 0.8973(5) 0.4939(6) 0.1069(3)
H63 H 0.9353 0.4833 0.0971
H64 H 0.9041 0.5104 0.1285
H65 H 0.8774 0.5241 0.0936
C55 C 0.7443(6) 0.3376(6) 0.1595(4)
H66 H 0.7301 0.3286 0.1378
H67 H 0.7128 0.3569 0.1719
H68 H 0.7561 0.3001 0.1702
C56 C 0.8152(6) 0.3952(6) 0.1909(3)
H69 H 0.8492 0.4225 0.1897
H70 H 0.8263 0.3587 0.2027
H71 H 0.7826 0.4154 0.2022
C57 C 0.4633(11) 0.7207(6) 0.4112(3)
H72 H 0.4273 0.7077 0.4227
H73 H 0.4974 0.7077 0.4244
C58 C 0.5160(7) 0.6446(8) 0.3824(4)
H74 H 0.5013 0.6031 0.3824
H75 H 0.5390 0.6518 0.4020
H76 H 0.5412 0.6508 0.3635
C59 C 0.4114(7) 0.6514(8) 0.3782(4)
H77 H 0.3776 0.6786 0.3757
H78 H 0.4061 0.6266 0.3975
H79 H 0.4142 0.6253 0.3592
C60 C 0.5457(9) 0.7500 -0.1690(5)
H80 H 0.5499 0.7907 -0.1785
C61 C 0.4908(9) 0.736(4) -0.1693(6)
H81 H 0.4879 0.6923 -0.1733
H82 H 0.4727 0.7565 -0.1881
C62 C 0.4167(7) 0.6961(7) -0.1410(4)
H83 H 0.3965 0.6927 -0.1619
H84 H 0.3872 0.6993 -0.1238
H85 H 0.4413 0.6604 -0.1375
C63 C 0.6160(7) 0.6969(6) -0.1348(4)
H86 H 0.6391 0.6938 -0.1547
H87 H 0.5919 0.6605 -0.1321
H88 H 0.6428 0.7010 -0.1164
N7F N 0.7627(4) 0.9663(4) 0.1063(2)
N9F N 0.6899(4) 0.8033(4) 0.0328(2)
C25F C 0.7747(4) 0.9129(5) 0.1204(3)
H28F H 0.7935 0.9128 0.1409
C26F C 0.7607(4) 0.8584(5) 0.1063(3)
H29F H 0.7686 0.8216 0.1171
C27F C 0.7347(4) 0.8588(5) 0.0759(3)
C28F C 0.7211(5) 0.9131(5) 0.0619(3)
H30F H 0.7018 0.9144 0.0416
C29F C 0.7360(5) 0.9664(5) 0.0779(2)
H31F H 0.7266 1.0039 0.0681
C30F C 0.7199(4) 0.8004(5) 0.0603(2)
C33F C 0.6227(5) 0.8029(5) -0.0245(3)
H32F H 0.6343 0.8405 -0.0156
C34F C 0.5886(5) 0.8018(5) -0.0520(2)
H33F H 0.5773 0.8389 -0.0616
N11F N 0.2190(4) 0.9632(4) 0.0913(2)
N12F N 0.3085(4) 0.8037(4) 0.0210(2)
C35F C 0.2563(5) 0.9647(6) 0.0663(3)
H34F H 0.2706 1.0025 0.0590
C36F C 0.2746(5) 0.9127(6) 0.0506(3)
H35F H 0.3009 0.9147 0.0329
C37F C 0.2535(5) 0.8579(5) 0.0616(3)
C38F C 0.2140(5) 0.8574(6) 0.0871(3)
H36F H 0.1979 0.8204 0.0946
C39F C 0.1985(6) 0.9107(6) 0.1014(3)
H37F H 0.1721 0.9100 0.1192
C40F C 0.2720(5) 0.8001(5) 0.0460(3)
C43F C 0.3888(5) 0.8025(5) -0.0317(3)
H38F H 0.3752 0.8402 -0.0237
C44F C 0.4270(5) 0.8012(5) -0.0559(3)
H39F H 0.4402 0.8382 -0.0649
H80F H 0.5499 0.7093 -0.1785
C61F C 0.4908(9) 0.764(4) -0.1693(6)
H81F H 0.4879 0.8077 -0.1733
H82F H 0.4727 0.7435 -0.1881
C62F C 0.4167(7) 0.8039(7) -0.1410(4)
H83F H 0.3965 0.8073 -0.1619
H84F H 0.3872 0.8007 -0.1238
H85F H 0.4413 0.8396 -0.1375
C63F C 0.6160(7) 0.8031(6) -0.1348(4)
H86F H 0.6391 0.8062 -0.1547
H87F H 0.5919 0.8395 -0.1321
H88F H 0.6428 0.7990 -0.1164
N21F N 0.4657(4) 0.8132(4) 0.3812(2)
C57F C 0.4633(11) 0.7793(6) 0.4112(3)
H72F H 0.4273 0.7923 0.4227
H73F H 0.4974 0.7923 0.4244
C58F C 0.5160(7) 0.8554(8) 0.3824(4)
H74F H 0.5013 0.8969 0.3824
H75F H 0.5390 0.8482 0.4020
H76F H 0.5412 0.8492 0.3635
C59F C 0.4114(7) 0.8486(8) 0.3782(4)
H77F H 0.3776 0.8214 0.3757
H78F H 0.4061 0.8734 0.3975
H79F H 0.4142 0.8747 0.3592
Pd1F Pd 0.77904(3) 1.04421(3) 0.13137(2)
Pd3F Pd 0.19807(3) 1.04043(4) 0.11612(2)
N1F N 0.4840(3) 1.0023(4) 0.1773(2)
N2F N 0.5331(4) 0.9481(4) 0.2180(2)
N3F N 0.4292(4) 0.9467(4) 0.2156(2)
N4F N 0.4759(4) 0.8125(4) 0.3092(2)
N5F N 0.2738(4) 1.0260(4) 0.1414(2)
N6F N 0.7007(3) 1.0310(4) 0.1534(2)
N15F N 0.1206(4) 1.0552(5) 0.0917(3)
N16F N 0.1760(4) 1.1165(4) 0.1419(3)
N17F N 0.7959(4) 1.1214(4) 0.1576(3)
N18F N 0.8596(4) 1.0609(4) 0.1093(3)
C7F C 0.4262(5) 0.8291(5) 0.2939(3)
H16F H 0.3896 0.8135 0.3013
C8F C 0.4261(5) 0.8668(5) 0.2684(3)
H17F H 0.3899 0.8775 0.2583
C9F C 0.4789(4) 0.8899(4) 0.2570(2)
C10F C 0.5294(5) 0.8735(5) 0.2730(3)
H18F H 0.5664 0.8892 0.2662
C11F C 0.5270(4) 0.8346(5) 0.2987(2)
H19F H 0.5627 0.8232 0.3092
C12F C 0.4807(4) 0.9309(4) 0.2288(2)
C13F C 0.4338(4) 0.9822(4) 0.1895(2)
C14F C 0.5334(4) 0.9840(4) 0.1924(2)
C15F C 0.3779(4) 0.9991(4) 0.1734(3)
C16F C 0.3234(5) 0.9790(5) 0.1848(3)
H20F H 0.3215 0.9552 0.2038
C17F C 0.2726(5) 0.9937(5) 0.1685(3)
H21F H 0.2356 0.9805 0.1767
C18F C 0.3259(5) 1.0461(5) 0.1301(3)
H22F H 0.3264 1.0702 0.1112
C19F C 0.3786(4) 1.0328(5) 0.1452(3)
H23F H 0.4150 1.0466 0.1365
C20F C 0.5901(4) 1.0021(4) 0.1799(2)
C21F C 0.6423(4) 0.9841(4) 0.1943(2)
H24F H 0.6411 0.9614 0.2137
C22F C 0.6968(4) 0.9990(5) 0.1807(3)
H25F H 0.7320 0.9861 0.1911
C23F C 0.6491(5) 1.0482(5) 0.1387(3)
H26F H 0.6515 1.0697 0.1190
C24F C 0.5943(5) 1.0359(5) 0.1510(3)
H27F H 0.5596 1.0497 0.1404
C45F C 0.0882(6) 1.1023(6) 0.1082(4)
H40F H 0.0605 1.1219 0.0930
H41F H 0.0647 1.0845 0.1260
C46F C 0.1299(6) 1.1483(7) 0.1216(4)
H42F H 0.1493 1.1704 0.1038
H43F H 0.1079 1.1777 0.1349
C47F C 0.1530(6) 1.0997(6) 0.1736(3)
H44F H 0.1194 1.0722 0.1709
H45F H 0.1841 1.0796 0.1860
H46F H 0.1400 1.1359 0.1851
C48F C 0.2271(6) 1.1590(6) 0.1462(5)
H47F H 0.2427 1.1704 0.1251
H48F H 0.2137 1.1952 0.1576
H49F H 0.2582 1.1392 0.1588
C49F C 0.0821(6) 1.0000(7) 0.0890(4)
H50F H 0.1019 0.9699 0.0755
H51F H 0.0752 0.9832 0.1105
H52F H 0.0442 1.0111 0.0792
C50F C 0.1343(7) 1.0751(8) 0.0591(4)
H53F H 0.0976 1.0792 0.0467
H54F H 0.1545 1.1141 0.0600
H55F H 0.1600 1.0454 0.0487
C51F C 0.8893(6) 1.1072(6) 0.1297(4)
H56F H 0.9213 1.1270 0.1173
H57F H 0.9071 1.0879 0.1489
C52F C 0.8450(6) 1.1525(6) 0.1398(4)
H58F H 0.8638 1.1829 0.1540
H59F H 0.8289 1.1735 0.1207
C53F C 0.8500(6) 1.0828(7) 0.0760(3)
H60F H 0.8311 1.0511 0.0632
H61F H 0.8244 1.1184 0.0764
H62F H 0.8881 1.0934 0.0663
C54F C 0.8973(5) 1.0061(6) 0.1069(3)
H63F H 0.9353 1.0167 0.0971
H64F H 0.9041 0.9896 0.1285
H65F H 0.8774 0.9759 0.0936
C55F C 0.7443(6) 1.1624(6) 0.1595(4)
H66F H 0.7301 1.1714 0.1378
H67F H 0.7128 1.1431 0.1719
H68F H 0.7561 1.1999 0.1702
C56F C 0.8152(6) 1.1048(6) 0.1909(3)
H69F H 0.8492 1.0775 0.1897
H70F H 0.8263 1.1413 0.2027
H71F H 0.7826 1.0846 0.2022
Si1 Si 0.6219(2) 0.7500 0.21032(13)
Si2 Si 0.2967(2) 0.7500 0.18794(12)
C64 C 0.5399(10) 0.7500 0.2124(5)
C65 C 0.4882(9) 0.7500 0.2105(5)
C66 C 0.4267(9) 0.7500 0.2052(4)
C67 C 0.3746(8) 0.7500 0.2000(4)
C68 C 0.2565(14) 0.6915(12) 0.2148(8)
H89 H 0.2140 0.6928 0.2104
H90 H 0.2636 0.7009 0.2375
H91 H 0.2717 0.6511 0.2100
C69 C 0.2953(12) 0.7124(13) 0.1462(6)
H92 H 0.2617 0.7279 0.1338
H93 H 0.2914 0.6687 0.1488
H94 H 0.3321 0.7215 0.1347
C70 C 0.2685(12) 0.8216(13) 0.1877(8)
H95 H 0.2320 0.8223 0.1750
H96 H 0.2974 0.8491 0.1780
H97 H 0.2601 0.8343 0.2098
C71 C 0.6524(11) 0.7028(12) 0.2470(6)
H98 H 0.6227 0.6732 0.2537
H99 H 0.6610 0.7299 0.2651
H100 H 0.6887 0.6819 0.2406
C72 C 0.6443(12) 0.8215(11) 0.2067(6)
H101 H 0.6839 0.8224 0.1972
H102 H 0.6454 0.8405 0.2280
H103 H 0.6168 0.8436 0.1928
C73 C 0.6437(15) 0.6974(12) 0.1748(7)
H104 H 0.6079 0.6830 0.1640
H105 H 0.6660 0.6629 0.1831
H106 H 0.6681 0.7198 0.1594
C68F C 0.2565(14) 0.8085(12) 0.2148(8)
H89F H 0.2140 0.8072 0.2104
H90F H 0.2636 0.7991 0.2375
H91F H 0.2717 0.8489 0.2100
C69F C 0.2953(12) 0.7876(13) 0.1462(6)
H92F H 0.2617 0.7721 0.1338
H93F H 0.2914 0.8313 0.1488
H94F H 0.3321 0.7785 0.1347
C70F C 0.2685(12) 0.6784(13) 0.1877(8)
H95F H 0.2320 0.6777 0.1750
H96F H 0.2974 0.6509 0.1780
H97F H 0.2601 0.6657 0.2098
C71F C 0.6524(11) 0.7972(12) 0.2470(6)
H98F H 0.6227 0.8268 0.2537
H99F H 0.6610 0.7701 0.2651
H100F H 0.6887 0.8181 0.2406
C72F C 0.6443(12) 0.6785(11) 0.2067(6)
H101F H 0.6839 0.6776 0.1972
H102F H 0.6454 0.6595 0.2280
H103F H 0.6168 0.6564 0.1928
C73F C 0.6437(15) 0.8026(12) 0.1748(7)
H104F H 0.6079 0.8170 0.1640
H105F H 0.6660 0.8371 0.1831
H106F H 0.6681 0.7802 0.1594
O1 O 0.7298(5) 0.4316(5) 0.2563(3)
O2 O -0.0120(14) 0.3460(16) 0.0479(8)
O3 O 0.8549(5) 0.5395(5) 0.1801(2)
O4 O 0.6765(14) 0.2500 0.2492(7)
O5 O 0.6435(7) 0.3603(7) 0.2242(4)
N22 N 0.5018(5) 0.4875(8) 0.3075(3)
O6 O 0.4525(4) 0.4748(6) 0.2968(3)
O7 O 0.5469(5) 0.4822(9) 0.2903(4)
O8 O 0.5069(7) 0.5164(7) 0.3329(3)
O9 O 0.6301(8) 0.5586(8) 0.3275(5)
O10 O 0.896(4) 0.2500 -0.051(3)
O11 O 0.900(2) 0.223(2) -0.0270(12)
O12 O 0.8465(17) 0.1923(17) 0.0009(9)
O11F O 0.900(2) 0.277(2) -0.0270(12)
O12F O 0.8465(17) 0.3077(17) 0.0009(9)
Pt1 Pt 0.49457(3) 0.7500 0.082293(15)
Cl1 Cl 0.39398(18) 0.7500 0.07876(11)
Cl2 Cl 0.59522(18) 0.7500 0.08684(11)
P1 P 0.49244(13) 0.64649(13) 0.08157(8)
C1 C 0.522(3) 0.615(2) 0.0472(13)
H1 H 0.5629 0.6302 0.0455
H2 H 0.5244 0.5713 0.0510
C2 C 0.493(5) 0.624(6) 0.014(3)
H3 H 0.5133 0.5977 -0.0014
H4 H 0.4971 0.6658 0.0077
H5 H 0.4515 0.6128 0.0156
C3 C 0.523(3) 0.611(2) 0.1147(13)
H6 H 0.5039 0.5717 0.1173
H7 H 0.5655 0.6042 0.1101
C4 C 0.519(3) 0.645(2) 0.1462(13)
H8 H 0.5360 0.6847 0.1439
H9 H 0.5400 0.6221 0.1629
H10 H 0.4770 0.6483 0.1523
C5 C 0.416(2) 0.615(3) 0.0802(12)
H11 H 0.3945 0.6349 0.0625
H12 H 0.4189 0.5716 0.0752
C6 C 0.382(2) 0.623(3) 0.1116(12)
H13 H 0.3512 0.6540 0.1085
H14 H 0.4086 0.6359 0.1288
H15 H 0.3631 0.5849 0.1175
P1F P 0.49244(13) 0.85351(13) 0.08157(8)
C1F C 0.522(3) 0.885(2) 0.0472(13)
H1F H 0.5629 0.8698 0.0455
H2F H 0.5244 0.9287 0.0510
C2F C 0.493(5) 0.876(6) 0.014(3)
H3F H 0.5133 0.9023 -0.0014
H4F H 0.4971 0.8342 0.0077
H5F H 0.4515 0.8872 0.0156
C3F C 0.523(3) 0.889(2) 0.1147(13)
H6F H 0.5039 0.9283 0.1173
H7F H 0.5655 0.8958 0.1101
C4F C 0.519(3) 0.855(2) 0.1462(13)
H8F H 0.5360 0.8153 0.1439
H9F H 0.5400 0.8779 0.1629
H10F H 0.4770 0.8517 0.1523
C5F C 0.416(2) 0.885(3) 0.0802(12)
H11F H 0.3945 0.8651 0.0625
H12F H 0.4189 0.9284 0.0752
C6F C 0.382(2) 0.877(3) 0.1116(12)
H13F H 0.3512 0.8460 0.1085
H14F H 0.4086 0.8641 0.1288
H15F H 0.3631 0.9151 0.1175
C74? C 0.4649(9) 0.6165(8) 0.0448(4)
H107? H 0.4615 0.5722 0.0468
H108? H 0.4248 0.6328 0.0408
C75? C 0.5056(18) 0.6320(19) 0.0153(12)
H109? H 0.4882 0.6156 -0.0045
H110? H 0.5448 0.6142 0.0186
H111? H 0.5094 0.6758 0.0133
C76? C 0.5615(9) 0.6082(9) 0.0860(6)
H112? H 0.5559 0.5655 0.0800
H113? H 0.5901 0.6259 0.0706
C77? C 0.5884(10) 0.6106(11) 0.1193(6)
H114? H 0.6299 0.5980 0.1182
H115? H 0.5667 0.5835 0.1337
H116? H 0.5861 0.6518 0.1276
C78? C 0.4445(8) 0.6150(7) 0.1107(4)
H117? H 0.4036 0.6169 0.1023
H118? H 0.4547 0.5719 0.1134
C79? C 0.4462(8) 0.6461(8) 0.1444(4)
H119? H 0.4354 0.6886 0.1422
H120? H 0.4862 0.6431 0.1534
H121? H 0.4182 0.6261 0.1589
O13? O 0.553(2) 0.519(2) 0.3340(11)
O14? O 0.6445(11) 0.5671(11) 0.3139(7)
N23? N 0.7230(17) 0.2982(6) 0.0761(7)
O15? O 0.7578(10) 0.2988(10) 0.0529(5)
O16? O 0.7123(12) 0.2500 0.0901(6)
O17? O 0.7062(14) 0.3466(5) 0.0878(7)
O18? O 0.7005(9) 0.3811(10) 0.0783(5)
O19? O 0.838(3) 0.2500 0.0096(14)
O20? O 0.8597(16) 0.4346(16) -0.0104(8)
O21? O 0.7366(11) 0.4172(12) 0.0265(6)
O22? O 0.8675(11) 0.5852(11) 0.0382(6)
O23? O 0.9639(17) 0.4432(17) 0.0137(9)
O24? O 0.9675(16) 0.5603(16) 0.0411(8)
O25? O 0.8085(18) 0.4986(16) 0.0089(9)
O26? O 0.8476(15) 0.6847(15) 0.0248(8)
N24? N 0.5078(6) 1.0631(8) 0.0819(4)
O27? O 0.4865(8) 1.1010(16) 0.1001(9)
O28? O 0.5620(6) 1.0593(8) 0.0778(4)
O29? O 0.4746(9) 1.0290(11) 0.0663(6)
N25? N 0.4744(8) 1.0626(11) 0.0790(5)
O30? O 0.4203(8) 1.0565(10) 0.0751(5)
O31? O 0.4944(11) 1.098(2) 0.0991(11)
O32? O 0.5084(10) 1.0367(14) 0.0597(7)
O33? O 0.3737(10) 1.0483(10) 0.0355(6)
O34? O 0.3645(12) 1.0326(12) 0.0177(7)
O35? O 0.6329(10) 1.0326(10) 0.0242(6)
O36? O 0.6177(13) 1.0486(13) 0.0420(7)
N26? N 0.2594(19) 0.3003(8) 0.0678(9)
O37? O 0.279(2) 0.3469(5) 0.0805(11)
O38? O 0.275(2) 0.2500 0.0787(10)
O39? O 0.246(3) 0.303(2) 0.0385(10)
N27? N 0.2242(17) 0.2500 0.0529(9)
O40? O 0.255(2) 0.2500 0.0782(9)
O41? O 0.2149(12) 0.3009(8) 0.0401(5)
O42? O 0.2808(7) 0.3853(7) 0.0673(4)
O43? O 0.2605(16) 0.4151(16) 0.0178(8)
N28? N 0.2928(12) 0.7500 0.3199(5)
O44? O 0.290(2) 0.6964(7) 0.3316(6)
O45? O 0.3228(19) 0.7863(11) 0.3352(6)
O46? O 0.293(2) 0.7500 0.2896(5)
N29? N 0.2990(13) 0.7285(7) 0.3170(5)
O47? O 0.2850(9) 0.6743(6) 0.3180(4)
O48? O 0.3197(8) 0.7500 0.3419(4)
O49? O 0.2798(11) 0.7610(10) 0.2951(4)
O50? O 0.2928(12) 0.7500 0.3199(5)
O51? O 0.2839(14) 0.6137(16) 0.2876(9)
O52? O 0.2831(8) 0.6007(9) 0.2756(5)
O53? O 0.2162(12) 0.5513(10) 0.2420(6)
O54? O 0.1953(9) 0.5498(8) 0.2331(5)
N30? N 0.8782(13) 0.3830(15) 0.2762(8)
O55? O 0.9241(13) 0.3543(15) 0.2827(8)
O56? O 0.8297(13) 0.357(2) 0.2787(14)
O57? O 0.882(2) 0.4260(17) 0.2570(11)
O58? O 0.8201(8) 0.3678(9) 0.2854(5)
O59? O 0.9354(11) 0.4059(11) 0.2626(6)
O60? O 0.796(2) 0.2500 0.2940(14)
O61? O 0.7992(12) 0.2500 0.2600(7)
O62? O 1.0368(13) 0.4041(14) 0.2605(7)
O63? O 1.050(2) 0.360(3) 0.2749(13)
O64? O 0.3736(15) 0.2500 0.2911(8)
O65? O 0.430(3) 0.2500 0.2930(15)
O66? O 0.466(2) 0.2500 0.2663(13)
O67? O 0.524(3) 0.2500 0.2737(14)
O68? O 0.6013(17) 0.2500 0.3071(9)
O69? O 0.979(3) 0.2500 0.1003(16)
O70? O 0.919(2) 0.2500 0.0853(12)
N31? N 0.6313(10) 0.7233(5) 0.3567(3)
O71? O 0.6262(8) 0.7500 0.3311(3)
O72? O 0.6285(7) 0.7500 0.3830(3)
O73? O 0.6378(9) 0.6680(4) 0.3550(3)
H122? H 0.5668 0.7216 -0.1833
loop_
_geom_bond_atom_site_label_1
_geom_bond_atom_site_label_2
_geom_bond_site_symmetry_1
_geom_bond_site_symmetry_2
Pt1 Cl1 1_555 1_555
Cl2 Pt1 1_555 1_555
P1 Pt1 1_555 1_555
C1 P1 1_555 1_555
H1 C1 1_555 1_555
H2 C1 1_555 1_555
C2 C1 1_555 1_555
H3 C2 1_555 1_555
H4 C2 1_555 1_555
H5 C2 1_555 1_555
C3 P1 1_555 1_555
H6 C3 1_555 1_555
H7 C3 1_555 1_555
C4 C3 1_555 1_555
H8 C4 1_555 1_555
H9 C4 1_555 1_555
H10 C4 1_555 1_555
C5 P1 1_555 1_555
H11 C5 1_555 1_555
H12 C5 1_555 1_555
C6 C5 1_555 1_555
H13 C6 1_555 1_555
H14 C6 1_555 1_555
H15 C6 1_555 1_555
Pd1 N6 1_555 1_555
Pd2 N10 1_555 1_555
Pd3 N5 1_555 1_555
Pd4 N4 1_555 1_555
N1 C13 1_555 1_555
N2 C12 1_555 1_555
N3 C12 1_555 1_555
N4 C7 1_555 1_555
N5 C17 1_555 1_555
N6 C22 1_555 1_555
N7 Pd1 1_555 1_555
N8 C30 1_555 1_555
N9 C30 1_555 1_555
N10 C34 1_555 1_555
N11 Pd3 1_555 1_555
N12 C40 1_555 1_555
N13 C40 1_555 1_555
N14 Pd2 1_555 1_555
N15 Pd3 1_555 1_555
N16 Pd3 1_555 1_555
N17 Pd1 1_555 1_555
N18 Pd1 1_555 1_555
N19 Pd2 1_555 1_555
N20 Pd2 1_555 1_555
N21 Pd4 1_555 1_555
C7 H16 1_555 1_555
C8 C7 1_555 1_555
H17 C8 1_555 1_555
C9 C8 1_555 1_555
C10 C9 1_555 1_555
H18 C10 1_555 1_555
C11 N4 1_555 1_555
H19 C11 1_555 1_555
C12 C9 1_555 1_555
C13 N3 1_555 1_555
C14 N1 1_555 1_555
C15 C13 1_555 1_555
C16 C15 1_555 1_555
H20 C16 1_555 1_555
C17 C16 1_555 1_555
H21 C17 1_555 1_555
C18 N5 1_555 1_555
H22 C18 1_555 1_555
C19 C15 1_555 1_555
H23 C19 1_555 1_555
C20 C14 1_555 1_555
C21 C20 1_555 1_555
H24 C21 1_555 1_555
C22 C21 1_555 1_555
H25 C22 1_555 1_555
C23 N6 1_555 1_555
H26 C23 1_555 1_555
C24 C20 1_555 1_555
H27 C24 1_555 1_555
C25 N7 1_555 1_555
H28 C25 1_555 1_555
C26 C25 1_555 1_555
H29 C26 1_555 1_555
C27 C26 1_555 1_555
C28 C27 1_555 1_555
H30 C28 1_555 1_555
C29 N7 1_555 1_555
H31 C29 1_555 1_555
C30 C27 1_555 1_555
C31 N9 1_555 1_555
C32 C31 1_555 1_555
C33 C32 1_555 1_555
H32 C33 1_555 1_555
C34 C33 1_555 1_555
H33 C34 1_555 1_555
C35 N11 1_555 1_555
H34 C35 1_555 1_555
C36 C35 1_555 1_555
H35 C36 1_555 1_555
C37 C36 1_555 1_555
C38 C37 1_555 1_555
H36 C38 1_555 1_555
C39 N11 1_555 1_555
H37 C39 1_555 1_555
C40 C37 1_555 1_555
C41 N12 1_555 1_555
C42 C41 1_555 1_555
C43 C42 1_555 1_555
H38 C43 1_555 1_555
C44 N14 1_555 1_555
H39 C44 1_555 1_555
C45 N15 1_555 1_555
H40 C45 1_555 1_555
H41 C45 1_555 1_555
C46 N16 1_555 1_555
H42 C46 1_555 1_555
H43 C46 1_555 1_555
C47 N16 1_555 1_555
H44 C47 1_555 1_555
H45 C47 1_555 1_555
H46 C47 1_555 1_555
C48 N16 1_555 1_555
H47 C48 1_555 1_555
H48 C48 1_555 1_555
H49 C48 1_555 1_555
C49 N15 1_555 1_555
H50 C49 1_555 1_555
H51 C49 1_555 1_555
H52 C49 1_555 1_555
C50 N15 1_555 1_555
H53 C50 1_555 1_555
H54 C50 1_555 1_555
H55 C50 1_555 1_555
C51 N18 1_555 1_555
H56 C51 1_555 1_555
H57 C51 1_555 1_555
C52 N17 1_555 1_555
H58 C52 1_555 1_555
H59 C52 1_555 1_555
C53 N18 1_555 1_555
H60 C53 1_555 1_555
H61 C53 1_555 1_555
H62 C53 1_555 1_555
C54 N18 1_555 1_555
H63 C54 1_555 1_555
H64 C54 1_555 1_555
H65 C54 1_555 1_555
C55 N17 1_555 1_555
H66 C55 1_555 1_555
H67 C55 1_555 1_555
H68 C55 1_555 1_555
C56 N17 1_555 1_555
H69 C56 1_555 1_555
H70 C56 1_555 1_555
H71 C56 1_555 1_555
C57 N21 1_555 1_555
H72 C57 1_555 1_555
H73 C57 1_555 1_555
C58 N21 1_555 1_555
H74 C58 1_555 1_555
H75 C58 1_555 1_555
H76 C58 1_555 1_555
C59 N21 1_555 1_555
H77 C59 1_555 1_555
H78 C59 1_555 1_555
H79 C59 1_555 1_555
C60 N20 1_555 1_555
H80 C60 1_555 1_555
C61 N19 1_555 1_555
H81 C61 1_555 1_555
H82 C61 1_555 1_555
C62 N19 1_555 1_555
H83 C62 1_555 1_555
H84 C62 1_555 1_555
H85 C62 1_555 1_555
C63 N20 1_555 1_555
H86 C63 1_555 1_555
H87 C63 1_555 1_555
H88 C63 1_555 1_555
Si1 C64 1_555 1_555
Si2 C67 1_555 1_555
C64 C65 1_555 1_555
C65 C66 1_555 1_555
C66 C67 1_555 1_555
C68 Si2 1_555 1_555
H89 C68 1_555 1_555
H90 C68 1_555 1_555
H91 C68 1_555 1_555
C69 Si2 1_555 1_555
H92 C69 1_555 1_555
H93 C69 1_555 1_555
H94 C69 1_555 1_555
C70 Si2 1_555 1_555
H95 C70 1_555 1_555
H96 C70 1_555 1_555
H97 C70 1_555 1_555
C71 Si1 1_555 1_555
H98 C71 1_555 1_555
H99 C71 1_555 1_555
H100 C71 1_555 1_555
C72 Si1 1_555 1_555
H101 C72 1_555 1_555
H102 C72 1_555 1_555
H103 C72 1_555 1_555
C73 Si1 1_555 1_555
H104 C73 1_555 1_555
H105 C73 1_555 1_555
H106 C73 1_555 1_555
N22 O6 1_555 1_555
O7 N22 1_555 1_555
O8 N22 1_555 1_555
O10 O11 1_555 1_555
O11 O12 1_555 1_555
P1F Pt1 1_555 1_555
C1F P1F 1_555 1_555
H1F C1F 1_555 1_555
H2F C1F 1_555 1_555
C2F C1F 1_555 1_555
H3F C2F 1_555 1_555
H4F C2F 1_555 1_555
H5F C2F 1_555 1_555
C3F P1F 1_555 1_555
H6F C3F 1_555 1_555
H7F C3F 1_555 1_555
C4F C3F 1_555 1_555
H8F C4F 1_555 1_555
H9F C4F 1_555 1_555
H10F C4F 1_555 1_555
C5F P1F 1_555 1_555
H11F C5F 1_555 1_555
H12F C5F 1_555 1_555
C6F C5F 1_555 1_555
H13F C6F 1_555 1_555
H14F C6F 1_555 1_555
H15F C6F 1_555 1_555
N7F C25F 1_555 1_555
N9F C31 1_555 1_555
C25F H28F 1_555 1_555
C26F C25F 1_555 1_555
H29F C26F 1_555 1_555
C27F C26F 1_555 1_555
C28F C27F 1_555 1_555
H30F C28F 1_555 1_555
C29F N7F 1_555 1_555
H31F C29F 1_555 1_555
C30F N8 1_555 1_555
C33F C32 1_555 1_555
H32F C33F 1_555 1_555
C34F N10 1_555 1_555
H33F C34F 1_555 1_555
N11F C35F 1_555 1_555
N12F C41 1_555 1_555
C35F H34F 1_555 1_555
C36F C35F 1_555 1_555
H35F C36F 1_555 1_555
C37F C36F 1_555 1_555
C38F C37F 1_555 1_555
H36F C38F 1_555 1_555
C39F N11F 1_555 1_555
H37F C39F 1_555 1_555
C40F N13 1_555 1_555
C43F C42 1_555 1_555
H38F C43F 1_555 1_555
C44F N14 1_555 1_555
H39F C44F 1_555 1_555
H80F C60 1_555 1_555
C61F N19 1_555 1_555
H81F C61F 1_555 1_555
H82F C61F 1_555 1_555
C62F N19 1_555 1_555
H83F C62F 1_555 1_555
H84F C62F 1_555 1_555
H85F C62F 1_555 1_555
C63F N20 1_555 1_555
H86F C63F 1_555 1_555
H87F C63F 1_555 1_555
H88F C63F 1_555 1_555
N21F Pd4 1_555 1_555
C57F C57 1_555 1_555
H72F C57F 1_555 1_555
H73F C57F 1_555 1_555
C58F N21F 1_555 1_555
H74F C58F 1_555 1_555
H75F C58F 1_555 1_555
H76F C58F 1_555 1_555
C59F N21F 1_555 1_555
H77F C59F 1_555 1_555
H78F C59F 1_555 1_555
H79F C59F 1_555 1_555
Pd1F N7F 1_555 1_555
Pd3F N11F 1_555 1_555
N1F C13F 1_555 1_555
N2F C12F 1_555 1_555
N3F C12F 1_555 1_555
N4F Pd4 1_555 1_555
N5F Pd3F 1_555 1_555
N6F Pd1F 1_555 1_555
N15F Pd3F 1_555 1_555
N16F Pd3F 1_555 1_555
N17F Pd1F 1_555 1_555
N18F Pd1F 1_555 1_555
C7F N4F 1_555 1_555
H16F C7F 1_555 1_555
C8F C7F 1_555 1_555
H17F C8F 1_555 1_555
C9F C8F 1_555 1_555
C10F C9F 1_555 1_555
H18F C10F 1_555 1_555
C11F N4F 1_555 1_555
H19F C11F 1_555 1_555
C12F C9F 1_555 1_555
C13F N3F 1_555 1_555
C14F N1F 1_555 1_555
C15F C13F 1_555 1_555
C16F C15F 1_555 1_555
H20F C16F 1_555 1_555
C17F N5F 1_555 1_555
H21F C17F 1_555 1_555
C18F N5F 1_555 1_555
H22F C18F 1_555 1_555
C19F C15F 1_555 1_555
H23F C19F 1_555 1_555
C20F C14F 1_555 1_555
C21F C20F 1_555 1_555
H24F C21F 1_555 1_555
C22F N6F 1_555 1_555
H25F C22F 1_555 1_555
C23F N6F 1_555 1_555
H26F C23F 1_555 1_555
C24F C20F 1_555 1_555
H27F C24F 1_555 1_555
C45F N15F 1_555 1_555
H40F C45F 1_555 1_555
H41F C45F 1_555 1_555
C46F N16F 1_555 1_555
H42F C46F 1_555 1_555
H43F C46F 1_555 1_555
C47F N16F 1_555 1_555
H44F C47F 1_555 1_555
H45F C47F 1_555 1_555
H46F C47F 1_555 1_555
C48F N16F 1_555 1_555
H47F C48F 1_555 1_555
H48F C48F 1_555 1_555
H49F C48F 1_555 1_555
C49F N15F 1_555 1_555
H50F C49F 1_555 1_555
H51F C49F 1_555 1_555
H52F C49F 1_555 1_555
C50F N15F 1_555 1_555
H53F C50F 1_555 1_555
H54F C50F 1_555 1_555
H55F C50F 1_555 1_555
C51F N18F 1_555 1_555
H56F C51F 1_555 1_555
H57F C51F 1_555 1_555
C52F N17F 1_555 1_555
H58F C52F 1_555 1_555
H59F C52F 1_555 1_555
C53F N18F 1_555 1_555
H60F C53F 1_555 1_555
H61F C53F 1_555 1_555
H62F C53F 1_555 1_555
C54F N18F 1_555 1_555
H63F C54F 1_555 1_555
H64F C54F 1_555 1_555
H65F C54F 1_555 1_555
C55F N17F 1_555 1_555
H66F C55F 1_555 1_555
H67F C55F 1_555 1_555
H68F C55F 1_555 1_555
C56F N17F 1_555 1_555
H69F C56F 1_555 1_555
H70F C56F 1_555 1_555
H71F C56F 1_555 1_555
C68F Si2 1_555 1_555
H89F C68F 1_555 1_555
H90F C68F 1_555 1_555
H91F C68F 1_555 1_555
C69F Si2 1_555 1_555
H92F C69F 1_555 1_555
H93F C69F 1_555 1_555
H94F C69F 1_555 1_555
C70F Si2 1_555 1_555
H95F C70F 1_555 1_555
H96F C70F 1_555 1_555
H97F C70F 1_555 1_555
C71F Si1 1_555 1_555
H98F C71F 1_555 1_555
H99F C71F 1_555 1_555
H100F C71F 1_555 1_555
C72F Si1 1_555 1_555
H101F C72F 1_555 1_555
H102F C72F 1_555 1_555
H103F C72F 1_555 1_555
C73F Si1 1_555 1_555
H104F C73F 1_555 1_555
H105F C73F 1_555 1_555
H106F C73F 1_555 1_555
O11F O10 1_555 1_555
O12F O11F 1_555 1_555
N2 C14 1_555 1_555
C10 C11 1_555 1_555
C18 C19 1_555 1_555
C23 C24 1_555 1_555
C28 C29 1_555 1_555
C38 C39 1_555 1_555
C43 C44 1_555 1_555
C45 C46 1_555 1_555
C51 C52 1_555 1_555
C60 C61 1_555 1_555
C60 C61F 1_555 1_555
O11 O11F 1_555 1_555
N9F C30F 1_555 1_555
C27F C30F 1_555 1_555
C28F C29F 1_555 1_555
C33F C34F 1_555 1_555
N12F C40F 1_555 1_555
C37F C40F 1_555 1_555
C38F C39F 1_555 1_555
C43F C44F 1_555 1_555
N21F C57F 1_555 1_555
N2F C14F 1_555 1_555
C10F C11F 1_555 1_555
C16F C17F 1_555 1_555
C18F C19F 1_555 1_555
C21F C22F 1_555 1_555
C23F C24F 1_555 1_555
C45F C46F 1_555 1_555
C51F C52F 1_555 1_555

#END
