
#######################################################################
#
#                 Cambridge Crystallographic Data Centre
#                                CCDC 
#
#######################################################################
#
# If this CIF has been generated from an entry in the Cambridge 
# Structural Database, then it will include bibliographic, chemical, 
# crystal, experimental, refinement or atomic coordinate data resulting 
# from the CCDC's data processing and validation procedures.
#
#######################################################################

data_ROTDEL
_chemical_formula_moiety         
'C252 H276 Co4 N48 12+,6(F6 P1 1-),2(Cl1 1-),2(N1 O3 1-),2(Cl1 O4 1-)'
_chemical_name_systematic        
"hexakis(\m~2~-3,3'-(1,4-Phenylene)bis(6-(1-(adamantan-1-ylmethyl)-1H-1,2,3-triazol-4-yl)pyridine))-tetra-cobalt(iii) hexakis(hexafluorophosphate) unknown counterion unknown solvate"
_symmetry_cell_setting           rhombohedral
_symmetry_space_group_name_H-M   'R -3'
_symmetry_Int_Tables_number      148
_space_group_name_Hall           '-R 3'
loop_
_symmetry_equiv_pos_site_id
_symmetry_equiv_pos_as_xyz
1 x,y,z
2 -y,x-y,z
3 -x+y,-x,z
4 2/3+x,1/3+y,1/3+z
5 2/3-y,1/3+x-y,1/3+z
6 2/3-x+y,1/3-x,1/3+z
7 1/3+x,2/3+y,2/3+z
8 1/3-y,2/3+x-y,2/3+z
9 1/3-x+y,2/3-x,2/3+z
10 -x,-y,-z
11 y,-x+y,-z
12 x-y,x,-z
13 1/3-x,2/3-y,2/3-z
14 1/3+y,2/3-x+y,2/3-z
15 1/3+x-y,2/3+x,2/3-z
16 2/3-x,1/3-y,1/3-z
17 2/3+y,1/3-x+y,1/3-z
18 2/3+x-y,1/3+x,1/3-z
_cell_length_a                   30.5162(6)
_cell_length_b                   30.5162(6)
_cell_length_c                   71.022(2)
_cell_angle_alpha                90
_cell_angle_beta                 90
_cell_angle_gamma                120
_cell_volume                     57277.6
_exptl_crystal_colour            orange
_exptl_crystal_description       block
_cell_formula_units_Z            6
_chemical_properties_physical    air-sensitive
_exptl_crystal_recrystallization_method 'acetonitrile/diisopropyl ether'
loop_
_atom_site_label
_atom_site_type_symbol
_atom_site_fract_x
_atom_site_fract_y
_atom_site_fract_z
P1 P 0.8224(3) 0.7339(3) 0.76297(14)
F1 F 0.8171(6) 0.7277(7) 0.7846(3)
F2 F 0.7928(5) 0.7620(5) 0.7641(2)
F3 F 0.8737(4) 0.7871(5) 0.7645(2)
F4 F 0.8215(6) 0.7386(6) 0.7398(3)
F5 F 0.8508(6) 0.7069(6) 0.7585(3)
F6 F 0.7780(5) 0.6800(5) 0.7616(2)
P2 P 0.8064(3) 0.7823(2) 0.66471(11)
F7 F 0.8086(6) 0.7516(6) 0.6825(2)
F8 F 0.7628(6) 0.7868(6) 0.6732(2)
F9 F 0.8443(6) 0.8307(5) 0.6762(2)
F10 F 0.8087(5) 0.8208(4) 0.64935(18)
F11 F 0.8527(5) 0.7850(5) 0.6566(2)
F12 F 0.7816(7) 0.7395(6) 0.6500(3)
Co1 Co 0.6667 0.3333 0.58494(3)
Co2 Co 0.62666(4) 0.56266(4) 0.73838(2)
N1 N 0.7274(3) 0.3754(3) 0.57047(12)
N2 N 0.7458(4) 0.3694(4) 0.55470(14)
N3 N 0.7867(4) 0.4128(4) 0.55120(14)
N4 N 0.6973(3) 0.3983(3) 0.60035(11)
N5 N 0.5617(3) 0.5555(2) 0.74149(12)
N6 N 0.5425(3) 0.5714(3) 0.75456(12)
N7 N 0.4951(4) 0.5556(3) 0.74824(15)
N8 N 0.5954(3) 0.5251(2) 0.71491(11)
N9 N 0.6486(3) 0.5939(3) 0.76203(12)
N10 N 0.6704(3) 0.6409(3) 0.76754(15)
N11 N 0.6752(3) 0.6400(4) 0.78611(15)
N12 N 0.6058(3) 0.5020(3) 0.75304(11)
N13 N 0.3749(3) 0.0273(3) 0.72555(11)
N14 N 0.3462(3) -0.0209(3) 0.72124(13)
N15 N 0.3066(3) -0.0230(3) 0.71220(14)
N16 N 0.4266(3) 0.1214(3) 0.73233(11)
C1 C 0.8159(5) 0.4202(6) 0.5331(2)
H1 H 0.8514 0.4429 0.5357
H2 H 0.8122 0.3878 0.5296
C2 C 0.8028(5) 0.4396(6) 0.5170(2)
C3 C 0.8356(5) 0.4439(6) 0.5007(2)
H3 H 0.8706 0.4673 0.5040
H4 H 0.8325 0.4111 0.4984
C4 C 0.8235(7) 0.4614(8) 0.4832(3)
H5 H 0.8468 0.4639 0.4732
C5 C 0.8311(8) 0.5073(8) 0.4871(3)
H6 H 0.8254 0.5214 0.4758
H7 H 0.8663 0.5287 0.4906
C6 C 0.7955(8) 0.5103(7) 0.5041(3)
H8 H 0.8016 0.5447 0.5061
C7 C 0.8138(7) 0.4898(6) 0.5214(3)
H9 H 0.8499 0.5115 0.5234
H10 H 0.7963 0.4896 0.5329
C8 C 0.7488(4) 0.4050(5) 0.51142(18)
H11 H 0.7269 0.4044 0.5214
H12 H 0.7433 0.3710 0.5101
C9 C 0.7717(6) 0.4248(6) 0.4776(2)
H13 H 0.7688 0.3920 0.4756
H14 H 0.7637 0.4354 0.4659
C10 C 0.7380(8) 0.4713(8) 0.4967(3)
H15 H 0.7136 0.4678 0.5062
H16 H 0.7312 0.4843 0.4853
C11 C 0.7336(6) 0.4202(7) 0.4929(2)
H17 H 0.6990 0.3951 0.4893
C12 C 0.7954(4) 0.4475(5) 0.56462(17)
H18 H 0.8220 0.4807 0.5651
C13 C 0.7578(4) 0.4240(4) 0.57702(16)
C14 C 0.7409(4) 0.4364(4) 0.59379(15)
C15 C 0.7672(5) 0.4791(5) 0.60435(19)
H19 H 0.7998 0.5034 0.6008
C16 C 0.7459(5) 0.4866(5) 0.62043(19)
H20 H 0.7636 0.5165 0.6272
C17 C 0.6991(4) 0.4502(4) 0.62624(15)
C18 C 0.6761(4) 0.4058(4) 0.61602(14)
H21 H 0.6447 0.3798 0.6200
C19 C 0.6729(4) 0.4583(4) 0.64161(15)
C20 C 0.6973(5) 0.4974(5) 0.6535(2)
H22 H 0.7320 0.5192 0.6522
C21 C 0.6695(5) 0.5053(5) 0.6681(2)
H23 H 0.6869 0.5333 0.6759
C22 C 0.6209(4) 0.4751(4) 0.67107(14)
C23 C 0.5968(5) 0.4370(5) 0.65803(19)
H24 H 0.5619 0.4160 0.6590
C24 C 0.6207(5) 0.4288(5) 0.64419(19)
H25 H 0.6020 0.4024 0.6358
C25 C 0.5924(4) 0.4844(4) 0.68586(15)
C26 C 0.5415(5) 0.4701(5) 0.68469(18)
H26 H 0.5225 0.4510 0.6745
C27 C 0.5192(4) 0.4835(4) 0.69797(17)
H27 H 0.4849 0.4728 0.6971
C28 C 0.5461(4) 0.5118(3) 0.71221(15)
C29 C 0.6179(3) 0.5118(3) 0.70197(14)
H28 H 0.6516 0.5211 0.7036
C30 C 0.5281(4) 0.5305(4) 0.72804(16)
C31 C 0.4850(4) 0.5305(4) 0.73289(19)
H29 H 0.4544 0.5153 0.7264
C32 C 0.4628(4) 0.5676(5) 0.7603(2)
H30 H 0.4747 0.5718 0.7732
H31 H 0.4283 0.5394 0.7600
C33 C 0.4631(5) 0.6157(6) 0.7540(3)
C34 C 0.4286(6) 0.6216(6) 0.7683(3)
H32 H 0.4420 0.6246 0.7809
H33 H 0.3949 0.5922 0.7679
C35 C 0.4263(8) 0.6718(9) 0.7630(4)
H34 H 0.4026 0.6749 0.7714
C36 C 0.4077(9) 0.6655(10) 0.7434(4)
H35 H 0.4024 0.6934 0.7401
H36 H 0.3754 0.6344 0.7424
C37 C 0.4480(8) 0.6636(8) 0.7284(4)
H37 H 0.4382 0.6644 0.7153
C38 C 0.4459(6) 0.6133(7) 0.7331(3)
H38 H 0.4682 0.6082 0.7247
H39 H 0.4118 0.5852 0.7314
C39 C 0.5140(5) 0.6613(5) 0.7558(3)
H40 H 0.5367 0.6593 0.7467
H41 H 0.5273 0.6621 0.7683
C40 C 0.4763(7) 0.7137(7) 0.7660(3)
H42 H 0.4867 0.7134 0.7788
H43 H 0.4765 0.7453 0.7639
C41 C 0.4990(9) 0.7086(9) 0.7329(4)
H44 H 0.5245 0.7074 0.7251
H45 H 0.4987 0.7394 0.7298
C42 C 0.5126(8) 0.7099(7) 0.7525(4)
H46 H 0.5466 0.7389 0.7545
C43 C 0.6989(4) 0.6874(4) 0.79613(18)
H47 H 0.7211 0.7138 0.7875
H48 H 0.7201 0.6855 0.8059
C44 C 0.6653(5) 0.7026(5) 0.8048(2)
C45 C 0.6972(6) 0.7527(5) 0.8152(3)
H49 H 0.7216 0.7774 0.8065
H50 H 0.7158 0.7477 0.8252
C46 C 0.6645(9) 0.7735(8) 0.8236(4)
H51 H 0.6857 0.8065 0.8296
C47 C 0.6340(10) 0.7406(10) 0.8357(4)
H52 H 0.6175 0.7558 0.8426
H53 H 0.6541 0.7342 0.8446
C48 C 0.5845(9) 0.6793(9) 0.8264(4)
H54 H 0.5588 0.6562 0.8353
C49 C 0.6271(7) 0.6630(6) 0.8185(3)
H55 H 0.6451 0.6596 0.8291
H56 H 0.6092 0.6305 0.8122
C50 C 0.6348(5) 0.7107(5) 0.7899(2)
H57 H 0.6132 0.6784 0.7838
H58 H 0.6581 0.7332 0.7805
C51 C 0.6339(7) 0.7768(7) 0.8093(3)
H59 H 0.6560 0.8051 0.8013
H60 H 0.6110 0.7857 0.8154
C52 C 0.5675(9) 0.6943(9) 0.8108(4)
H61 H 0.5463 0.7071 0.8156
H62 H 0.5453 0.6636 0.8039
C53 C 0.6018(7) 0.7321(7) 0.7964(3)
H63 H 0.5845 0.7392 0.7862
C54 C 0.6570(5) 0.5926(5) 0.79263(19)
H64 H 0.6569 0.5828 0.8050
C55 C 0.6388(4) 0.5621(4) 0.77726(17)
C56 C 0.6137(4) 0.5096(4) 0.77168(16)
C57 C 0.5991(6) 0.4709(5) 0.78488(18)
H65 H 0.6043 0.4773 0.7977
C58 C 0.5759(6) 0.4214(4) 0.77750(19)
H66 H 0.5671 0.3944 0.7856
C59 C 0.5660(4) 0.4121(4) 0.75896(16)
C60 C 0.5822(3) 0.4537(3) 0.74705(14)
H67 H 0.5765 0.4477 0.7342
C61 C 0.5391(4) 0.3611(4) 0.75106(15)
C62 C 0.5404(5) 0.3212(4) 0.76008(19)
H68 H 0.5613 0.3275 0.7704
C63 C 0.5104(5) 0.2722(4) 0.75362(18)
H69 H 0.5113 0.2461 0.7600
C64 C 0.4800(4) 0.2606(4) 0.73855(16)
C65 C 0.4813(5) 0.2990(4) 0.72899(18)
H70 H 0.4619 0.2926 0.7182
C66 C 0.5121(5) 0.3493(4) 0.73527(18)
H71 H 0.5136 0.3754 0.7280
C67 C 0.4463(4) 0.2068(4) 0.73258(15)
C68 C 0.4570(3) 0.1705(3) 0.73698(13)
H72 H 0.4868 0.1795 0.7435
C69 C 0.4018(4) 0.1923(4) 0.72263(19)
H73 H 0.3933 0.2165 0.7192
C70 C 0.3710(4) 0.1436(4) 0.7180(2)
H74 H 0.3412 0.1341 0.7114
C71 C 0.3836(4) 0.1081(4) 0.72288(16)
C72 C 0.3547(4) 0.0547(4) 0.71898(16)
C73 C 0.3108(4) 0.0220(4) 0.71036(17)
H75 H 0.2883 0.0297 0.7044
C74 C 0.2652(4) -0.0719(4) 0.7056(2)
H76 H 0.2782 -0.0949 0.7042
H77 H 0.2547 -0.0671 0.6933
C75 C 0.2203(5) -0.0961(4) 0.7179(2)
C76 C 0.2352(5) -0.1051(5) 0.7377(2)
H78 H 0.2530 -0.1240 0.7367
H79 H 0.2575 -0.0729 0.7437
C77 C 0.1869(6) -0.1350(6) 0.7494(3)
H80 H 0.1963 -0.1413 0.7619
C78 C 0.1523(6) -0.1861(6) 0.7399(3)
H81 H 0.1699 -0.2050 0.7386
H82 H 0.1223 -0.2059 0.7475
C79 C 0.1370(6) -0.1768(7) 0.7206(4)
H83 H 0.1145 -0.2093 0.7145
C80 C 0.1837(5) -0.1473(5) 0.7087(3)
H84 H 0.1741 -0.1417 0.6963
H85 H 0.2007 -0.1668 0.7072
C81 C 0.1950(5) -0.0666(5) 0.7201(2)
H86 H 0.1847 -0.0610 0.7079
H87 H 0.2187 -0.0338 0.7254
C82 C 0.1617(7) -0.1062(7) 0.7518(3)
H88 H 0.1841 -0.0750 0.7583
H89 H 0.1319 -0.1253 0.7595
C83 C 0.1087(6) -0.1479(7) 0.7237(3)
H90 H 0.0795 -0.1676 0.7316
H91 H 0.0971 -0.1423 0.7117
C84 C 0.1462(6) -0.0941(7) 0.7336(3)
H92 H 0.1299 -0.0737 0.7354
Co2A Co 0.43734(4) 0.06400(6) 0.73838(2)
N1A N 0.6246(3) 0.3520(4) 0.57047(12)
N2A N 0.6306(4) 0.3764(6) 0.55470(14)
N3A N 0.5872(4) 0.3739(6) 0.55120(14)
N4A N 0.6017(3) 0.2990(4) 0.60035(11)
N5A N 0.4445(2) 0.0062(4) 0.74149(12)
N6A N 0.4286(3) -0.0289(4) 0.75456(12)
N7A N 0.4444(3) -0.0605(5) 0.74824(15)
N8A N 0.4749(2) 0.0703(4) 0.71491(11)
N9A N 0.4061(3) 0.0547(4) 0.76203(12)
N10A N 0.3591(3) 0.0295(4) 0.76754(15)
N11A N 0.3600(4) 0.0352(5) 0.78611(15)
N12A N 0.4980(3) 0.1038(4) 0.75304(11)
N13A N 0.9727(3) 0.3476(4) 0.72555(11)
N14A N 1.0209(3) 0.3671(4) 0.72124(13)
N15A N 1.0230(3) 0.3296(4) 0.71220(14)
N16A N 0.8786(3) 0.3052(4) 0.73233(11)
C1A C 0.5798(6) 0.3957(8) 0.5331(2)
H1A H 0.5571 0.4085 0.5357
H2A H 0.6122 0.4244 0.5296
C2A C 0.5604(6) 0.3632(8) 0.5170(2)
C3A C 0.5561(6) 0.3917(8) 0.5007(2)
H3A H 0.5327 0.4033 0.5040
H4A H 0.5889 0.4214 0.4984
C4A C 0.5386(8) 0.3621(11) 0.4832(3)
H5A H 0.5361 0.3829 0.4732
C5A C 0.4927(8) 0.3238(11) 0.4871(3)
H6A H 0.4786 0.3040 0.4758
H7A H 0.4713 0.3376 0.4906
C6A C 0.4897(7) 0.2852(11) 0.5041(3)
H8A H 0.4553 0.2569 0.5061
C7A C 0.5102(6) 0.3240(9) 0.5214(3)
H9A H 0.4885 0.3384 0.5234
H10A H 0.5104 0.3067 0.5329
C8A C 0.5950(5) 0.3438(6) 0.51142(18)
H11A H 0.5956 0.3225 0.5214
H12A H 0.6290 0.3723 0.5101
C9A C 0.5752(6) 0.3469(8) 0.4776(2)
H13A H 0.6080 0.3768 0.4756
H14A H 0.5646 0.3283 0.4659
C10A C 0.5287(8) 0.2667(11) 0.4967(3)
H15A H 0.5322 0.2458 0.5062
H16A H 0.5157 0.2469 0.4853
C11A C 0.5798(7) 0.3134(9) 0.4929(2)
H17A H 0.6049 0.3039 0.4893
C12A C 0.5525(5) 0.3479(6) 0.56462(17)
H18A H 0.5193 0.3413 0.5651
C13A C 0.5760(4) 0.3338(6) 0.57702(16)
C14A C 0.5636(4) 0.3045(6) 0.59379(15)
C15A C 0.5209(5) 0.2881(7) 0.60435(19)
H19A H 0.4966 0.2964 0.6008
C16A C 0.5134(5) 0.2593(7) 0.62043(19)
H20A H 0.4835 0.2471 0.6272
C17A C 0.5498(4) 0.2489(6) 0.62624(15)
C18A C 0.5942(4) 0.2703(6) 0.61602(14)
H21A H 0.6202 0.2649 0.6200
C19A C 0.5417(4) 0.2146(6) 0.64161(15)
C20A C 0.5026(5) 0.1999(7) 0.6535(2)
H22A H 0.4808 0.2128 0.6522
C21A C 0.4947(5) 0.1642(7) 0.6681(2)
H23A H 0.4667 0.1536 0.6759
C22A C 0.5249(4) 0.1458(6) 0.67107(14)
C23A C 0.5630(5) 0.1598(7) 0.65803(19)
H24A H 0.5840 0.1459 0.6590
C24A C 0.5712(5) 0.1919(7) 0.64419(19)
H25A H 0.5976 0.1996 0.6358
C25A C 0.5156(4) 0.1080(6) 0.68586(15)
C26A C 0.5299(5) 0.0714(7) 0.68469(18)
H26A H 0.5490 0.0715 0.6745
C27A C 0.5165(4) 0.0357(6) 0.69797(17)
H27A H 0.5272 0.0121 0.6971
C28A C 0.4882(3) 0.0343(5) 0.71221(15)
C29A C 0.4882(3) 0.1061(4) 0.70197(14)
H28A H 0.4789 0.1305 0.7036
C30A C 0.4695(4) -0.0024(6) 0.72804(16)
C31A C 0.4695(4) -0.0455(6) 0.73289(19)
H29A H 0.4847 -0.0609 0.7264
C32A C 0.4324(5) -0.1048(6) 0.7603(2)
H30A H 0.4282 -0.0971 0.7732
H31A H 0.4606 -0.1111 0.7600
C33A C 0.3843(6) -0.1526(8) 0.7540(3)
C34A C 0.3784(6) -0.1930(8) 0.7683(3)
H32A H 0.3754 -0.1826 0.7809
H33A H 0.4078 -0.1973 0.7679
C35A C 0.3282(9) -0.2455(12) 0.7630(4)
H34A H 0.3251 -0.2723 0.7714
C36A C 0.3345(10) -0.2578(13) 0.7434(4)
H35A H 0.3066 -0.2910 0.7401
H36A H 0.3656 -0.2590 0.7424
C37A C 0.3364(8) -0.2156(11) 0.7284(4)
H37A H 0.3356 -0.2262 0.7153
C38A C 0.3867(7) -0.1674(9) 0.7331(3)
H38A H 0.3918 -0.1400 0.7247
H39A H 0.4148 -0.1734 0.7314
C39A C 0.3387(5) -0.1473(7) 0.7558(3)
H40A H 0.3407 -0.1226 0.7467
H41A H 0.3379 -0.1348 0.7683
C40A C 0.2863(7) -0.2374(10) 0.7660(3)
H42A H 0.2866 -0.2267 0.7788
H43A H 0.2547 -0.2688 0.7639
C41A C 0.2914(9) -0.2096(13) 0.7329(4)
H44A H 0.2926 -0.1829 0.7251
H45A H 0.2606 -0.2407 0.7298
C42A C 0.2901(7) -0.1973(11) 0.7525(4)
H46A H 0.2611 -0.1923 0.7545
C43A C 0.3126(4) 0.0115(6) 0.79613(18)
H47A H 0.2862 0.0073 0.7875
H48A H 0.3145 0.0346 0.8059
C44A C 0.2974(5) -0.0373(7) 0.8048(2)
C45A C 0.2473(5) -0.0555(8) 0.8152(3)
H49A H 0.2226 -0.0558 0.8065
H50A H 0.2523 -0.0319 0.8252
C46A C 0.2265(8) -0.1090(12) 0.8236(4)
H51A H 0.1935 -0.1208 0.8296
C47A C 0.2594(10) -0.1066(14) 0.8357(4)
H52A H 0.2442 -0.1383 0.8426
H53A H 0.2658 -0.0801 0.8446
C48A C 0.3207(9) -0.0948(13) 0.8264(4)
H54A H 0.3438 -0.0974 0.8353
C49A C 0.3370(6) -0.0359(9) 0.8185(3)
H55A H 0.3404 -0.0145 0.8291
H56A H 0.3695 -0.0213 0.8122
C50A C 0.2893(5) -0.0759(7) 0.7899(2)
H57A H 0.3216 -0.0652 0.7838
H58A H 0.2668 -0.0751 0.7805
C51A C 0.2232(7) -0.1429(10) 0.8093(3)
H59A H 0.1949 -0.1491 0.8013
H60A H 0.2143 -0.1747 0.8154
C52A C 0.3057(9) -0.1268(13) 0.8108(4)
H61A H 0.2929 -0.1608 0.8156
H62A H 0.3364 -0.1183 0.8039
C53A C 0.2679(7) -0.1303(10) 0.7964(3)
H63A H 0.2608 -0.1547 0.7862
C54A C 0.4074(5) 0.0644(7) 0.79263(19)
H64A H 0.4172 0.0741 0.8050
C55A C 0.4379(4) 0.0767(6) 0.77726(17)
C56A C 0.4904(4) 0.1041(6) 0.77168(16)
C57A C 0.5291(5) 0.1282(8) 0.78488(18)
H65A H 0.5227 0.1270 0.7977
C58A C 0.5786(4) 0.1545(7) 0.77750(19)
H66A H 0.6056 0.1727 0.7856
C59A C 0.5879(4) 0.1539(6) 0.75896(16)
C60A C 0.5463(3) 0.1285(4) 0.74705(14)
H67A H 0.5523 0.1288 0.7342
C61A C 0.6389(4) 0.1780(6) 0.75106(15)
C62A C 0.6788(4) 0.2192(6) 0.76008(19)
H68A H 0.6725 0.2338 0.7704
C63A C 0.7278(4) 0.2382(6) 0.75362(18)
H69A H 0.7539 0.2652 0.7600
C64A C 0.7394(4) 0.2194(6) 0.73855(16)
C65A C 0.7010(4) 0.1823(6) 0.72899(18)
H70A H 0.7074 0.1693 0.7182
C66A C 0.6507(4) 0.1628(6) 0.73527(18)
H71A H 0.6246 0.1382 0.7280
C67A C 0.7932(4) 0.2395(6) 0.73258(15)
C68A C 0.8295(3) 0.2865(4) 0.73698(13)
H72A H 0.8205 0.3073 0.7435
C69A C 0.8077(4) 0.2095(6) 0.72263(19)
H73A H 0.7835 0.1768 0.7192
C70A C 0.8564(4) 0.2274(6) 0.7180(2)
H74A H 0.8659 0.2071 0.7114
C71A C 0.8919(4) 0.2755(6) 0.72288(16)
C72A C 0.9453(4) 0.3000(6) 0.71898(16)
C73A C 0.9780(4) 0.2888(6) 0.71036(17)
H75A H 0.9703 0.2586 0.7044
C74A C 1.0719(4) 0.3371(6) 0.7056(2)
H76A H 1.0949 0.3731 0.7042
H77A H 1.0671 0.3218 0.6933
C75A C 1.0961(4) 0.3164(6) 0.7179(2)
C76A C 1.1051(5) 0.3403(7) 0.7377(2)
H78A H 1.1240 0.3770 0.7367
H79A H 1.0729 0.3304 0.7437
C77A C 1.1350(6) 0.3219(8) 0.7494(3)
H80A H 1.1413 0.3376 0.7619
C78A C 1.1861(6) 0.3384(8) 0.7399(3)
H81A H 1.2050 0.3749 0.7386
H82A H 1.2059 0.3282 0.7475
C79A C 1.1768(7) 0.3138(9) 0.7206(4)
H83A H 1.2093 0.3238 0.7145
C80A C 1.1473(5) 0.3310(7) 0.7087(3)
H84A H 1.1417 0.3158 0.6963
H85A H 1.1668 0.3675 0.7072
C81A C 1.0666(5) 0.2616(7) 0.7201(2)
H86A H 1.0610 0.2457 0.7079
H87A H 1.0338 0.2525 0.7254
C82A C 1.1062(7) 0.2679(10) 0.7518(3)
H88A H 1.0750 0.2591 0.7583
H89A H 1.1253 0.2572 0.7595
C83A C 1.1479(7) 0.2566(9) 0.7237(3)
H90A H 1.1676 0.2471 0.7316
H91A H 1.1423 0.2394 0.7117
C84A C 1.0941(7) 0.2403(9) 0.7336(3)
H92A H 1.0737 0.2036 0.7354
Co2B Co 0.93600(6) 0.37334(4) 0.73838(2)
N1B N 0.6480(4) 0.2726(3) 0.57047(12)
N2B N 0.6236(6) 0.2542(4) 0.55470(14)
N3B N 0.6261(6) 0.2133(4) 0.55120(14)
N4B N 0.7010(4) 0.3027(3) 0.60035(11)
N5B N 0.9938(4) 0.4383(3) 0.74149(12)
N6B N 1.0289(4) 0.4575(3) 0.75456(12)
N7B N 1.0605(5) 0.5049(4) 0.74824(15)
N8B N 0.9297(4) 0.4046(3) 0.71491(11)
N9B N 0.9453(4) 0.3514(3) 0.76203(12)
N10B N 0.9705(4) 0.3296(3) 0.76754(15)
N11B N 0.9648(5) 0.3248(3) 0.78611(15)
N12B N 0.8962(4) 0.3942(3) 0.75304(11)
N13B N 0.6524(4) 0.6251(3) 0.72555(11)
N14B N 0.6329(4) 0.6538(3) 0.72124(13)
N15B N 0.6704(4) 0.6934(3) 0.71220(14)
N16B N 0.6948(4) 0.5734(3) 0.73233(11)
C1B C 0.6043(8) 0.1841(5) 0.5331(2)
H1B H 0.5915 0.1486 0.5357
H2B H 0.5756 0.1878 0.5296
C2B C 0.6368(8) 0.1972(5) 0.5170(2)
C3B C 0.6083(8) 0.1644(5) 0.5007(2)
H3B H 0.5967 0.1294 0.5040
H4B H 0.5786 0.1675 0.4984
C4B C 0.6379(11) 0.1765(7) 0.4832(3)
H5B H 0.6171 0.1532 0.4732
C5B C 0.6762(11) 0.1689(8) 0.4871(3)
H6B H 0.6960 0.1746 0.4758
H7B H 0.6624 0.1337 0.4906
C6B C 0.7148(11) 0.2045(8) 0.5041(3)
H8B H 0.7431 0.1984 0.5061
C7B C 0.6760(9) 0.1862(7) 0.5214(3)
H9B H 0.6616 0.1501 0.5234
H10B H 0.6933 0.2037 0.5329
C8B C 0.6562(6) 0.2512(4) 0.51142(18)
H11B H 0.6775 0.2731 0.5214
H12B H 0.6277 0.2567 0.5101
C9B C 0.6531(8) 0.2283(6) 0.4776(2)
H13B H 0.6232 0.2312 0.4756
H14B H 0.6717 0.2363 0.4659
C10B C 0.7333(11) 0.2620(8) 0.4967(3)
H15B H 0.7542 0.2864 0.5062
H16B H 0.7531 0.2688 0.4853
C11B C 0.6866(9) 0.2664(6) 0.4929(2)
H17B H 0.6961 0.3010 0.4893
C12B C 0.6521(6) 0.2046(4) 0.56462(17)
H18B H 0.6587 0.1780 0.5651
C13B C 0.6662(6) 0.2422(4) 0.57702(16)
C14B C 0.6955(6) 0.2591(4) 0.59379(15)
C15B C 0.7119(7) 0.2328(5) 0.60435(19)
H19B H 0.7036 0.2002 0.6008
C16B C 0.7407(7) 0.2541(5) 0.62043(19)
H20B H 0.7529 0.2364 0.6272
C17B C 0.7511(6) 0.3009(4) 0.62624(15)
C18B C 0.7297(6) 0.3239(4) 0.61602(14)
H21B H 0.7351 0.3553 0.6200
C19B C 0.7854(6) 0.3271(4) 0.64161(15)
C20B C 0.8001(7) 0.3027(5) 0.6535(2)
H22B H 0.7872 0.2680 0.6522
C21B C 0.8358(7) 0.3305(5) 0.6681(2)
H23B H 0.8464 0.3131 0.6759
C22B C 0.8542(6) 0.3791(4) 0.67107(14)
C23B C 0.8402(7) 0.4032(5) 0.65803(19)
H24B H 0.8541 0.4381 0.6590
C24B C 0.8081(7) 0.3793(5) 0.64419(19)
H25B H 0.8004 0.3980 0.6358
C25B C 0.8920(6) 0.4076(4) 0.68586(15)
C26B C 0.9286(7) 0.4585(5) 0.68469(18)
H26B H 0.9285 0.4775 0.6745
C27B C 0.9643(6) 0.4808(4) 0.69797(17)
H27B H 0.9879 0.5151 0.6971
C28B C 0.9657(5) 0.4539(4) 0.71221(15)
C29B C 0.8939(4) 0.3821(3) 0.70197(14)
H28B H 0.8695 0.3484 0.7036
C30B C 1.0024(6) 0.4719(4) 0.72804(16)
C31B C 1.0455(6) 0.5150(4) 0.73289(19)
H29B H 1.0609 0.5456 0.7264
C32B C 1.1048(6) 0.5372(4) 0.7603(2)
H30B H 1.0971 0.5253 0.7732
H31B H 1.1111 0.5717 0.7600
C33B C 1.1526(8) 0.5369(5) 0.7540(3)
C34B C 1.1930(8) 0.5714(6) 0.7683(3)
H32B H 1.1826 0.5580 0.7809
H33B H 1.1973 0.6051 0.7679
C35B C 1.2455(12) 0.5737(8) 0.7630(4)
H34B H 1.2723 0.5974 0.7714
C36B C 1.2578(13) 0.5923(9) 0.7434(4)
H35B H 1.2910 0.5976 0.7401
H36B H 1.2590 0.6246 0.7424
C37B C 1.2156(11) 0.5520(8) 0.7284(4)
H37B H 1.2262 0.5618 0.7153
C38B C 1.1674(9) 0.5541(6) 0.7331(3)
H38B H 1.1400 0.5318 0.7247
H39B H 1.1734 0.5882 0.7314
C39B C 1.1473(7) 0.4860(5) 0.7558(3)
H40B H 1.1226 0.4633 0.7467
H41B H 1.1348 0.4727 0.7683
C40B C 1.2374(10) 0.5237(7) 0.7660(3)
H42B H 1.2267 0.5133 0.7788
H43B H 1.2688 0.5235 0.7639
C41B C 1.2096(13) 0.5010(9) 0.7329(4)
H44B H 1.1829 0.4755 0.7251
H45B H 1.2407 0.5013 0.7298
C42B C 1.1973(11) 0.4874(8) 0.7525(4)
H46B H 1.1923 0.4534 0.7545
C43B C 0.9885(6) 0.3011(4) 0.79613(18)
H47B H 0.9927 0.2789 0.7875
H48B H 0.9654 0.2799 0.8059
C44B C 1.0373(7) 0.3347(5) 0.8048(2)
C45B C 1.0555(8) 0.3028(6) 0.8152(3)
H49B H 1.0558 0.2784 0.8065
H50B H 1.0319 0.2842 0.8252
C46B C 1.1090(12) 0.3355(9) 0.8236(4)
H51B H 1.1208 0.3143 0.8296
C47B C 1.1066(14) 0.3660(10) 0.8357(4)
H52B H 1.1383 0.3825 0.8426
H53B H 1.0801 0.3459 0.8446
C48B C 1.0948(13) 0.4155(9) 0.8264(4)
H54B H 1.0974 0.4412 0.8353
C49B C 1.0359(9) 0.3729(7) 0.8185(3)
H55B H 1.0145 0.3549 0.8291
H56B H 1.0213 0.3908 0.8122
C50B C 1.0759(7) 0.3652(5) 0.7899(2)
H57B H 1.0652 0.3868 0.7838
H58B H 1.0751 0.3419 0.7805
C51B C 1.1429(10) 0.3661(7) 0.8093(3)
H59B H 1.1491 0.3440 0.8013
H60B H 1.1747 0.3890 0.8154
C52B C 1.1268(13) 0.4325(9) 0.8108(4)
H61B H 1.1608 0.4537 0.8156
H62B H 1.1183 0.4547 0.8039
C53B C 1.1303(10) 0.3982(7) 0.7964(3)
H63B H 1.1547 0.4155 0.7862
C54B C 0.9356(7) 0.3430(5) 0.79263(19)
H64B H 0.9259 0.3431 0.8050
C55B C 0.9233(6) 0.3612(4) 0.77726(17)
C56B C 0.8959(6) 0.3863(4) 0.77168(16)
C57B C 0.8718(8) 0.4009(6) 0.78488(18)
H65B H 0.8730 0.3957 0.7977
C58B C 0.8455(7) 0.4241(6) 0.77750(19)
H66B H 0.8273 0.4329 0.7856
C59B C 0.8461(6) 0.4340(4) 0.75896(16)
C60B C 0.8715(4) 0.4178(3) 0.74705(14)
H67B H 0.8712 0.4235 0.7342
C61B C 0.8220(6) 0.4609(4) 0.75106(15)
C62B C 0.7808(6) 0.4596(5) 0.76008(19)
H68B H 0.7662 0.4387 0.7704
C63B C 0.7618(6) 0.4896(5) 0.75362(18)
H69B H 0.7348 0.4887 0.7600
C64B C 0.7806(6) 0.5200(4) 0.73855(16)
C65B C 0.8177(6) 0.5187(5) 0.72899(18)
H70B H 0.8307 0.5381 0.7182
C66B C 0.8372(6) 0.4879(5) 0.73527(18)
H71B H 0.8618 0.4864 0.7280
C67B C 0.7605(6) 0.5537(4) 0.73258(15)
C68B C 0.7135(4) 0.5430(3) 0.73698(13)
H72B H 0.6927 0.5132 0.7435
C69B C 0.7905(6) 0.5982(4) 0.72263(19)
H73B H 0.8232 0.6067 0.7192
C70B C 0.7726(6) 0.6290(4) 0.7180(2)
H74B H 0.7929 0.6588 0.7114
C71B C 0.7245(6) 0.6164(4) 0.72288(16)
C72B C 0.7000(6) 0.6453(4) 0.71898(16)
C73B C 0.7112(6) 0.6892(4) 0.71036(17)
H75B H 0.7414 0.7117 0.7044
C74B C 0.6629(6) 0.7348(4) 0.7056(2)
H76B H 0.6269 0.7218 0.7042
H77B H 0.6782 0.7453 0.6933
C75B C 0.6836(6) 0.7797(5) 0.7179(2)
C76B C 0.6597(7) 0.7648(5) 0.7377(2)
H78B H 0.6230 0.7470 0.7367
H79B H 0.6696 0.7425 0.7437
C77B C 0.6781(8) 0.8131(6) 0.7494(3)
H80B H 0.6624 0.8037 0.7619
C78B C 0.6616(8) 0.8477(6) 0.7399(3)
H81B H 0.6251 0.8301 0.7386
H82B H 0.6718 0.8777 0.7475
C79B C 0.6862(9) 0.8630(6) 0.7206(4)
H83B H 0.6762 0.8855 0.7145
C80B C 0.6690(7) 0.8163(5) 0.7087(3)
H84B H 0.6842 0.8259 0.6963
H85B H 0.6325 0.7993 0.7072
C81B C 0.7384(7) 0.8050(5) 0.7201(2)
H86B H 0.7543 0.8153 0.7079
H87B H 0.7475 0.7813 0.7254
C82B C 0.7321(10) 0.8383(7) 0.7518(3)
H88B H 0.7409 0.8159 0.7583
H89B H 0.7428 0.8681 0.7595
C83B C 0.7434(9) 0.8913(6) 0.7237(3)
H90B H 0.7529 0.9205 0.7316
H91B H 0.7606 0.9029 0.7117
C84B C 0.7597(9) 0.8538(6) 0.7336(3)
H92B H 0.7964 0.8701 0.7354
loop_
_geom_bond_atom_site_label_1
_geom_bond_atom_site_label_2
_geom_bond_site_symmetry_1
_geom_bond_site_symmetry_2
Co1 N1 1_555 1_555
Co2 N5 1_555 1_555
N1 N2 1_555 1_555
N2 N3 1_555 1_555
N3 C1 1_555 1_555
N4 Co1 1_555 1_555
N5 N6 1_555 1_555
N6 N7 1_555 1_555
N7 C31 1_555 1_555
N8 Co2 1_555 1_555
N9 Co2 1_555 1_555
N10 N9 1_555 1_555
N11 N10 1_555 1_555
N12 Co2 1_555 1_555
N13 N14 1_555 1_555
N14 N15 1_555 1_555
N15 C73 1_555 1_555
N16 C68 1_555 1_555
C1 H1 1_555 1_555
H2 C1 1_555 1_555
C2 C1 1_555 1_555
C3 C2 1_555 1_555
H3 C3 1_555 1_555
H4 C3 1_555 1_555
C4 C3 1_555 1_555
H5 C4 1_555 1_555
C5 C4 1_555 1_555
H6 C5 1_555 1_555
H7 C5 1_555 1_555
C6 C5 1_555 1_555
H8 C6 1_555 1_555
C7 C2 1_555 1_555
H9 C7 1_555 1_555
H10 C7 1_555 1_555
C8 C2 1_555 1_555
H11 C8 1_555 1_555
H12 C8 1_555 1_555
C9 C4 1_555 1_555
H13 C9 1_555 1_555
H14 C9 1_555 1_555
C10 C6 1_555 1_555
H15 C10 1_555 1_555
H16 C10 1_555 1_555
C11 C8 1_555 1_555
H17 C11 1_555 1_555
C12 N3 1_555 1_555
H18 C12 1_555 1_555
C13 N1 1_555 1_555
C14 N4 1_555 1_555
C15 C14 1_555 1_555
H19 C15 1_555 1_555
C16 C15 1_555 1_555
H20 C16 1_555 1_555
C17 C16 1_555 1_555
C18 N4 1_555 1_555
H21 C18 1_555 1_555
C19 C17 1_555 1_555
C20 C19 1_555 1_555
H22 C20 1_555 1_555
C21 C20 1_555 1_555
H23 C21 1_555 1_555
C22 C21 1_555 1_555
C23 C22 1_555 1_555
H24 C23 1_555 1_555
C24 C19 1_555 1_555
H25 C24 1_555 1_555
C25 C22 1_555 1_555
C26 C25 1_555 1_555
H26 C26 1_555 1_555
C27 C26 1_555 1_555
H27 C27 1_555 1_555
C28 N8 1_555 1_555
C29 N8 1_555 1_555
H28 C29 1_555 1_555
C30 N5 1_555 1_555
C31 C30 1_555 1_555
H29 C31 1_555 1_555
C32 N7 1_555 1_555
H30 C32 1_555 1_555
H31 C32 1_555 1_555
C33 C32 1_555 1_555
C34 C33 1_555 1_555
H32 C34 1_555 1_555
H33 C34 1_555 1_555
C35 C34 1_555 1_555
H34 C35 1_555 1_555
C36 C35 1_555 1_555
H35 C36 1_555 1_555
H36 C36 1_555 1_555
C37 C36 1_555 1_555
H37 C37 1_555 1_555
C38 C33 1_555 1_555
H38 C38 1_555 1_555
H39 C38 1_555 1_555
C39 C33 1_555 1_555
H40 C39 1_555 1_555
H41 C39 1_555 1_555
C40 C35 1_555 1_555
H42 C40 1_555 1_555
H43 C40 1_555 1_555
C41 C37 1_555 1_555
H44 C41 1_555 1_555
H45 C41 1_555 1_555
C42 C39 1_555 1_555
H46 C42 1_555 1_555
C43 N11 1_555 1_555
H47 C43 1_555 1_555
H48 C43 1_555 1_555
C44 C43 1_555 1_555
C45 C44 1_555 1_555
H49 C45 1_555 1_555
H50 C45 1_555 1_555
C46 C45 1_555 1_555
H51 C46 1_555 1_555
C47 C46 1_555 1_555
H52 C47 1_555 1_555
H53 C47 1_555 1_555
C48 C47 1_555 1_555
H54 C48 1_555 1_555
C49 C44 1_555 1_555
H55 C49 1_555 1_555
H56 C49 1_555 1_555
C50 C44 1_555 1_555
H57 C50 1_555 1_555
H58 C50 1_555 1_555
C51 C46 1_555 1_555
H59 C51 1_555 1_555
H60 C51 1_555 1_555
C52 C48 1_555 1_555
H61 C52 1_555 1_555
H62 C52 1_555 1_555
C53 C50 1_555 1_555
H63 C53 1_555 1_555
C54 N11 1_555 1_555
H64 C54 1_555 1_555
C55 N9 1_555 1_555
C56 N12 1_555 1_555
C57 C56 1_555 1_555
H65 C57 1_555 1_555
C58 C57 1_555 1_555
H66 C58 1_555 1_555
C59 C58 1_555 1_555
C60 N12 1_555 1_555
H67 C60 1_555 1_555
C61 C59 1_555 1_555
C62 C61 1_555 1_555
H68 C62 1_555 1_555
C63 C62 1_555 1_555
H69 C63 1_555 1_555
C64 C63 1_555 1_555
C65 C64 1_555 1_555
H70 C65 1_555 1_555
C66 C61 1_555 1_555
H71 C66 1_555 1_555
C67 C64 1_555 1_555
C68 C67 1_555 1_555
H72 C68 1_555 1_555
C69 C67 1_555 1_555
H73 C69 1_555 1_555
C70 C69 1_555 1_555
H74 C70 1_555 1_555
C71 N16 1_555 1_555
C72 N13 1_555 1_555
C73 C72 1_555 1_555
H75 C73 1_555 1_555
C74 N15 1_555 1_555
H76 C74 1_555 1_555
H77 C74 1_555 1_555
C75 C74 1_555 1_555
C76 C75 1_555 1_555
H78 C76 1_555 1_555
H79 C76 1_555 1_555
C77 C76 1_555 1_555
H80 C77 1_555 1_555
C78 C77 1_555 1_555
H81 C78 1_555 1_555
H82 C78 1_555 1_555
C79 C78 1_555 1_555
H83 C79 1_555 1_555
C80 C75 1_555 1_555
H84 C80 1_555 1_555
H85 C80 1_555 1_555
C81 C75 1_555 1_555
H86 C81 1_555 1_555
H87 C81 1_555 1_555
C82 C77 1_555 1_555
H88 C82 1_555 1_555
H89 C82 1_555 1_555
C83 C79 1_555 1_555
H90 C83 1_555 1_555
H91 C83 1_555 1_555
C84 C81 1_555 1_555
H92 C84 1_555 1_555
P1 F1 1_555 1_555
F2 P1 1_555 1_555
F3 P1 1_555 1_555
F4 P1 1_555 1_555
F5 P1 1_555 1_555
F6 P1 1_555 1_555
P2 F7 1_555 1_555
F8 P2 1_555 1_555
F9 P2 1_555 1_555
F10 P2 1_555 1_555
F11 P2 1_555 1_555
F12 P2 1_555 1_555
Co2A N13 1_555 1_555
N1A Co1 1_555 1_555
N2A N1A 1_555 1_555
N3A N2A 1_555 1_555
N4A Co1 1_555 1_555
N5A Co2A 1_555 1_555
N6A N5A 1_555 1_555
N7A N6A 1_555 1_555
N8A Co2A 1_555 1_555
N9A Co2A 1_555 1_555
N10A N9A 1_555 1_555
N11A N10A 1_555 1_555
N12A Co2A 1_555 1_555
N13A N14A 1_555 1_555
N14A N15A 1_555 1_555
N15A C73A 1_555 1_555
N16A C68A 1_555 1_555
C1A N3A 1_555 1_555
H1A C1A 1_555 1_555
H2A C1A 1_555 1_555
C2A C1A 1_555 1_555
C3A C2A 1_555 1_555
H3A C3A 1_555 1_555
H4A C3A 1_555 1_555
C4A C3A 1_555 1_555
H5A C4A 1_555 1_555
C5A C4A 1_555 1_555
H6A C5A 1_555 1_555
H7A C5A 1_555 1_555
C6A C5A 1_555 1_555
H8A C6A 1_555 1_555
C7A C2A 1_555 1_555
H9A C7A 1_555 1_555
H10A C7A 1_555 1_555
C8A C2A 1_555 1_555
H11A C8A 1_555 1_555
H12A C8A 1_555 1_555
C9A C4A 1_555 1_555
H13A C9A 1_555 1_555
H14A C9A 1_555 1_555
C10A C6A 1_555 1_555
H15A C10A 1_555 1_555
H16A C10A 1_555 1_555
C11A C8A 1_555 1_555
H17A C11A 1_555 1_555
C12A N3A 1_555 1_555
H18A C12A 1_555 1_555
C13A N1A 1_555 1_555
C14A N4A 1_555 1_555
C15A C14A 1_555 1_555
H19A C15A 1_555 1_555
C16A C15A 1_555 1_555
H20A C16A 1_555 1_555
C17A C16A 1_555 1_555
C18A N4A 1_555 1_555
H21A C18A 1_555 1_555
C19A C17A 1_555 1_555
C20A C19A 1_555 1_555
H22A C20A 1_555 1_555
C21A C20A 1_555 1_555
H23A C21A 1_555 1_555
C22A C21A 1_555 1_555
C23A C22A 1_555 1_555
H24A C23A 1_555 1_555
C24A C19A 1_555 1_555
H25A C24A 1_555 1_555
C25A C22A 1_555 1_555
C26A C25A 1_555 1_555
H26A C26A 1_555 1_555
C27A C26A 1_555 1_555
H27A C27A 1_555 1_555
C28A N8A 1_555 1_555
C29A N8A 1_555 1_555
H28A C29A 1_555 1_555
C30A N5A 1_555 1_555
C31A N7A 1_555 1_555
H29A C31A 1_555 1_555
C32A N7A 1_555 1_555
H30A C32A 1_555 1_555
H31A C32A 1_555 1_555
C33A C32A 1_555 1_555
C34A C33A 1_555 1_555
H32A C34A 1_555 1_555
H33A C34A 1_555 1_555
C35A C34A 1_555 1_555
H34A C35A 1_555 1_555
C36A C35A 1_555 1_555
H35A C36A 1_555 1_555
H36A C36A 1_555 1_555
C37A C36A 1_555 1_555
H37A C37A 1_555 1_555
C38A C33A 1_555 1_555
H38A C38A 1_555 1_555
H39A C38A 1_555 1_555
C39A C33A 1_555 1_555
H40A C39A 1_555 1_555
H41A C39A 1_555 1_555
C40A C35A 1_555 1_555
H42A C40A 1_555 1_555
H43A C40A 1_555 1_555
C41A C37A 1_555 1_555
H44A C41A 1_555 1_555
H45A C41A 1_555 1_555
C42A C39A 1_555 1_555
H46A C42A 1_555 1_555
C43A N11A 1_555 1_555
H47A C43A 1_555 1_555
H48A C43A 1_555 1_555
C44A C43A 1_555 1_555
C45A C44A 1_555 1_555
H49A C45A 1_555 1_555
H50A C45A 1_555 1_555
C46A C45A 1_555 1_555
H51A C46A 1_555 1_555
C47A C46A 1_555 1_555
H52A C47A 1_555 1_555
H53A C47A 1_555 1_555
C48A C47A 1_555 1_555
H54A C48A 1_555 1_555
C49A C44A 1_555 1_555
H55A C49A 1_555 1_555
H56A C49A 1_555 1_555
C50A C44A 1_555 1_555
H57A C50A 1_555 1_555
H58A C50A 1_555 1_555
C51A C46A 1_555 1_555
H59A C51A 1_555 1_555
H60A C51A 1_555 1_555
C52A C48A 1_555 1_555
H61A C52A 1_555 1_555
H62A C52A 1_555 1_555
C53A C50A 1_555 1_555
H63A C53A 1_555 1_555
C54A N11A 1_555 1_555
H64A C54A 1_555 1_555
C55A N9A 1_555 1_555
C56A N12A 1_555 1_555
C57A C56A 1_555 1_555
H65A C57A 1_555 1_555
C58A C57A 1_555 1_555
H66A C58A 1_555 1_555
C59A C58A 1_555 1_555
C60A N12A 1_555 1_555
H67A C60A 1_555 1_555
C61A C59A 1_555 1_555
C62A C61A 1_555 1_555
H68A C62A 1_555 1_555
C63A C62A 1_555 1_555
H69A C63A 1_555 1_555
C64A C63A 1_555 1_555
C65A C64A 1_555 1_555
H70A C65A 1_555 1_555
C66A C61A 1_555 1_555
H71A C66A 1_555 1_555
C67A C64A 1_555 1_555
C68A C67A 1_555 1_555
H72A C68A 1_555 1_555
C69A C67A 1_555 1_555
H73A C69A 1_555 1_555
C70A C69A 1_555 1_555
H74A C70A 1_555 1_555
C71A N16A 1_555 1_555
C72A N13A 1_555 1_555
C73A C72A 1_555 1_555
H75A C73A 1_555 1_555
C74A N15A 1_555 1_555
H76A C74A 1_555 1_555
H77A C74A 1_555 1_555
C75A C74A 1_555 1_555
C76A C75A 1_555 1_555
H78A C76A 1_555 1_555
H79A C76A 1_555 1_555
C77A C76A 1_555 1_555
H80A C77A 1_555 1_555
C78A C77A 1_555 1_555
H81A C78A 1_555 1_555
H82A C78A 1_555 1_555
C79A C78A 1_555 1_555
H83A C79A 1_555 1_555
C80A C75A 1_555 1_555
H84A C80A 1_555 1_555
H85A C80A 1_555 1_555
C81A C75A 1_555 1_555
H86A C81A 1_555 1_555
H87A C81A 1_555 1_555
C82A C77A 1_555 1_555
H88A C82A 1_555 1_555
H89A C82A 1_555 1_555
C83A C79A 1_555 1_555
H90A C83A 1_555 1_555
H91A C83A 1_555 1_555
C84A C81A 1_555 1_555
H92A C84A 1_555 1_555
Co2B N13A 1_555 1_555
N1B Co1 1_555 1_555
N2B N1B 1_555 1_555
N3B N2B 1_555 1_555
N4B Co1 1_555 1_555
N5B Co2B 1_555 1_555
N6B N5B 1_555 1_555
N7B N6B 1_555 1_555
N8B Co2B 1_555 1_555
N9B Co2B 1_555 1_555
N10B N9B 1_555 1_555
N11B N10B 1_555 1_555
N12B Co2B 1_555 1_555
N13B Co2 1_555 1_555
N14B N13B 1_555 1_555
N15B N14B 1_555 1_555
N16B Co2 1_555 1_555
C1B N3B 1_555 1_555
H1B C1B 1_555 1_555
H2B C1B 1_555 1_555
C2B C1B 1_555 1_555
C3B C2B 1_555 1_555
H3B C3B 1_555 1_555
H4B C3B 1_555 1_555
C4B C3B 1_555 1_555
H5B C4B 1_555 1_555
C5B C4B 1_555 1_555
H6B C5B 1_555 1_555
H7B C5B 1_555 1_555
C6B C5B 1_555 1_555
H8B C6B 1_555 1_555
C7B C2B 1_555 1_555
H9B C7B 1_555 1_555
H10B C7B 1_555 1_555
C8B C2B 1_555 1_555
H11B C8B 1_555 1_555
H12B C8B 1_555 1_555
C9B C4B 1_555 1_555
H13B C9B 1_555 1_555
H14B C9B 1_555 1_555
C10B C6B 1_555 1_555
H15B C10B 1_555 1_555
H16B C10B 1_555 1_555
C11B C8B 1_555 1_555
H17B C11B 1_555 1_555
C12B N3B 1_555 1_555
H18B C12B 1_555 1_555
C13B N1B 1_555 1_555
C14B N4B 1_555 1_555
C15B C14B 1_555 1_555
H19B C15B 1_555 1_555
C16B C15B 1_555 1_555
H20B C16B 1_555 1_555
C17B C16B 1_555 1_555
C18B N4B 1_555 1_555
H21B C18B 1_555 1_555
C19B C17B 1_555 1_555
C20B C19B 1_555 1_555
H22B C20B 1_555 1_555
C21B C20B 1_555 1_555
H23B C21B 1_555 1_555
C22B C21B 1_555 1_555
C23B C22B 1_555 1_555
H24B C23B 1_555 1_555
C24B C19B 1_555 1_555
H25B C24B 1_555 1_555
C25B C22B 1_555 1_555
C26B C25B 1_555 1_555
H26B C26B 1_555 1_555
C27B C26B 1_555 1_555
H27B C27B 1_555 1_555
C28B N8B 1_555 1_555
C29B N8B 1_555 1_555
H28B C29B 1_555 1_555
C30B N5B 1_555 1_555
C31B N7B 1_555 1_555
H29B C31B 1_555 1_555
C32B N7B 1_555 1_555
H30B C32B 1_555 1_555
H31B C32B 1_555 1_555
C33B C32B 1_555 1_555
C34B C33B 1_555 1_555
H32B C34B 1_555 1_555
H33B C34B 1_555 1_555
C35B C34B 1_555 1_555
H34B C35B 1_555 1_555
C36B C35B 1_555 1_555
H35B C36B 1_555 1_555
H36B C36B 1_555 1_555
C37B C36B 1_555 1_555
H37B C37B 1_555 1_555
C38B C33B 1_555 1_555
H38B C38B 1_555 1_555
H39B C38B 1_555 1_555
C39B C33B 1_555 1_555
H40B C39B 1_555 1_555
H41B C39B 1_555 1_555
C40B C35B 1_555 1_555
H42B C40B 1_555 1_555
H43B C40B 1_555 1_555
C41B C37B 1_555 1_555
H44B C41B 1_555 1_555
H45B C41B 1_555 1_555
C42B C39B 1_555 1_555
H46B C42B 1_555 1_555
C43B N11B 1_555 1_555
H47B C43B 1_555 1_555
H48B C43B 1_555 1_555
C44B C43B 1_555 1_555
C45B C44B 1_555 1_555
H49B C45B 1_555 1_555
H50B C45B 1_555 1_555
C46B C45B 1_555 1_555
H51B C46B 1_555 1_555
C47B C46B 1_555 1_555
H52B C47B 1_555 1_555
H53B C47B 1_555 1_555
C48B C47B 1_555 1_555
H54B C48B 1_555 1_555
C49B C44B 1_555 1_555
H55B C49B 1_555 1_555
H56B C49B 1_555 1_555
C50B C44B 1_555 1_555
H57B C50B 1_555 1_555
H58B C50B 1_555 1_555
C51B C46B 1_555 1_555
H59B C51B 1_555 1_555
H60B C51B 1_555 1_555
C52B C48B 1_555 1_555
H61B C52B 1_555 1_555
H62B C52B 1_555 1_555
C53B C50B 1_555 1_555
H63B C53B 1_555 1_555
C54B N11B 1_555 1_555
H64B C54B 1_555 1_555
C55B N9B 1_555 1_555
C56B N12B 1_555 1_555
C57B C56B 1_555 1_555
H65B C57B 1_555 1_555
C58B C57B 1_555 1_555
H66B C58B 1_555 1_555
C59B C58B 1_555 1_555
C60B N12B 1_555 1_555
H67B C60B 1_555 1_555
C61B C59B 1_555 1_555
C62B C61B 1_555 1_555
H68B C62B 1_555 1_555
C63B C62B 1_555 1_555
H69B C63B 1_555 1_555
C64B C63B 1_555 1_555
C65B C64B 1_555 1_555
H70B C65B 1_555 1_555
C66B C61B 1_555 1_555
H71B C66B 1_555 1_555
C67B C64B 1_555 1_555
C68B N16B 1_555 1_555
H72B C68B 1_555 1_555
C69B C67B 1_555 1_555
H73B C69B 1_555 1_555
C70B C69B 1_555 1_555
H74B C70B 1_555 1_555
C71B N16B 1_555 1_555
C72B N13B 1_555 1_555
C73B N15B 1_555 1_555
H75B C73B 1_555 1_555
C74B N15B 1_555 1_555
H76B C74B 1_555 1_555
H77B C74B 1_555 1_555
C75B C74B 1_555 1_555
C76B C75B 1_555 1_555
H78B C76B 1_555 1_555
H79B C76B 1_555 1_555
C77B C76B 1_555 1_555
H80B C77B 1_555 1_555
C78B C77B 1_555 1_555
H81B C78B 1_555 1_555
H82B C78B 1_555 1_555
C79B C78B 1_555 1_555
H83B C79B 1_555 1_555
C80B C75B 1_555 1_555
H84B C80B 1_555 1_555
H85B C80B 1_555 1_555
C81B C75B 1_555 1_555
H86B C81B 1_555 1_555
H87B C81B 1_555 1_555
C82B C77B 1_555 1_555
H88B C82B 1_555 1_555
H89B C82B 1_555 1_555
C83B C79B 1_555 1_555
H90B C83B 1_555 1_555
H91B C83B 1_555 1_555
C84B C81B 1_555 1_555
H92B C84B 1_555 1_555
N16 Co2A 1_555 1_555
C6 C7 1_555 1_555
C9 C11 1_555 1_555
C10 C11 1_555 1_555
C12 C13 1_555 1_555
C13 C14 1_555 1_555
C17 C18 1_555 1_555
C23 C24 1_555 1_555
C25 C29 1_555 1_555
C27 C28 1_555 1_555
C28 C30 1_555 1_555
C37 C38 1_555 1_555
C40 C42 1_555 1_555
C41 C42 1_555 1_555
C48 C49 1_555 1_555
C51 C53 1_555 1_555
C52 C53 1_555 1_555
C54 C55 1_555 1_555
C55 C56 1_555 1_555
C59 C60 1_555 1_555
C65 C66 1_555 1_555
C70 C71 1_555 1_555
C71 C72 1_555 1_555
C79 C80 1_555 1_555
C82 C84 1_555 1_555
C83 C84 1_555 1_555
N16A Co2B 1_555 1_555
C6A C7A 1_555 1_555
C9A C11A 1_555 1_555
C10A C11A 1_555 1_555
C12A C13A 1_555 1_555
C13A C14A 1_555 1_555
C17A C18A 1_555 1_555
C23A C24A 1_555 1_555
C25A C29A 1_555 1_555
C27A C28A 1_555 1_555
C28A C30A 1_555 1_555
C30A C31A 1_555 1_555
C37A C38A 1_555 1_555
C40A C42A 1_555 1_555
C41A C42A 1_555 1_555
C48A C49A 1_555 1_555
C51A C53A 1_555 1_555
C52A C53A 1_555 1_555
C54A C55A 1_555 1_555
C55A C56A 1_555 1_555
C59A C60A 1_555 1_555
C65A C66A 1_555 1_555
C70A C71A 1_555 1_555
C71A C72A 1_555 1_555
C79A C80A 1_555 1_555
C82A C84A 1_555 1_555
C83A C84A 1_555 1_555
C6B C7B 1_555 1_555
C9B C11B 1_555 1_555
C10B C11B 1_555 1_555
C12B C13B 1_555 1_555
C13B C14B 1_555 1_555
C17B C18B 1_555 1_555
C23B C24B 1_555 1_555
C25B C29B 1_555 1_555
C27B C28B 1_555 1_555
C28B C30B 1_555 1_555
C30B C31B 1_555 1_555
C37B C38B 1_555 1_555
C40B C42B 1_555 1_555
C41B C42B 1_555 1_555
C48B C49B 1_555 1_555
C51B C53B 1_555 1_555
C52B C53B 1_555 1_555
C54B C55B 1_555 1_555
C55B C56B 1_555 1_555
C59B C60B 1_555 1_555
C65B C66B 1_555 1_555
C67B C68B 1_555 1_555
C70B C71B 1_555 1_555
C71B C72B 1_555 1_555
C72B C73B 1_555 1_555
C79B C80B 1_555 1_555
C82B C84B 1_555 1_555
C83B C84B 1_555 1_555

#END
