# generated using pymatgen
data_Co2P3H138C126(N4F3)6
_symmetry_space_group_name_H-M   'P 1'
_cell_length_a   29.51052519
_cell_length_b   29.51052519
_cell_length_c   29.51052519
_cell_angle_alpha   62.26771879
_cell_angle_beta   62.26771879
_cell_angle_gamma   62.26771879
_symmetry_Int_Tables_number   1
_chemical_formula_structural   Co2P3H138C126(N4F3)6
_chemical_formula_sum   'Co8 P12 H552 C504 N96 F72'
_cell_volume   19092.51674096
_cell_formula_units_Z   4
loop_
 _symmetry_equiv_pos_site_id
 _symmetry_equiv_pos_as_xyz
  1  'x, y, z'
loop_
 _atom_site_type_symbol
 _atom_site_label
 _atom_site_symmetry_multiplicity
 _atom_site_fract_x
 _atom_site_fract_y
 _atom_site_fract_z
 _atom_site_occupancy
  C  C1  1  0.349000  0.137400  0.112900  1.0
  C  C2  1  0.112900  0.349000  0.137400  1.0
  C  C3  1  0.137400  0.112900  0.349000  1.0
  C  C4  1  0.651000  0.862600  0.887100  1.0
  C  C5  1  0.887100  0.651000  0.862600  1.0
  C  C6  1  0.862600  0.887100  0.651000  1.0
  C  C7  1  0.319800  0.153800  0.077400  1.0
  C  C8  1  0.077400  0.319800  0.153800  1.0
  C  C9  1  0.153800  0.077400  0.319800  1.0
  C  C10  1  0.680200  0.846200  0.922600  1.0
  C  C11  1  0.922600  0.680200  0.846200  1.0
  C  C12  1  0.846200  0.922600  0.680200  1.0
  C  C13  1  0.336300  0.109000  0.056800  1.0
  C  C14  1  0.056800  0.336300  0.109000  1.0
  C  C15  1  0.109000  0.056800  0.336300  1.0
  C  C16  1  0.663700  0.891000  0.943200  1.0
  C  C17  1  0.943200  0.663700  0.891000  1.0
  C  C18  1  0.891000  0.943200  0.663700  1.0
  C  C19  1  0.306700  0.121100  0.021800  1.0
  C  C20  1  0.021800  0.306700  0.121100  1.0
  C  C21  1  0.121100  0.021800  0.306700  1.0
  C  C22  1  0.693300  0.878900  0.978200  1.0
  C  C23  1  0.978200  0.693300  0.878900  1.0
  C  C24  1  0.878900  0.978200  0.693300  1.0
  C  C25  1  0.318200  0.163300  0.979800  1.0
  C  C26  1  0.979800  0.318200  0.163300  1.0
  C  C27  1  0.163300  0.979800  0.318200  1.0
  C  C28  1  0.681800  0.836700  0.020200  1.0
  C  C29  1  0.020200  0.681800  0.836700  1.0
  C  C30  1  0.836700  0.020200  0.681800  1.0
  C  C31  1  0.299600  0.218900  0.993800  1.0
  C  C32  1  0.993800  0.299600  0.218900  1.0
  C  C33  1  0.218900  0.993800  0.299600  1.0
  C  C34  1  0.700400  0.781100  0.006200  1.0
  C  C35  1  0.006200  0.700400  0.781100  1.0
  C  C36  1  0.781100  0.006200  0.700400  1.0
  C  C37  1  0.335200  0.197400  0.031600  1.0
  C  C38  1  0.031600  0.335200  0.197400  1.0
  C  C39  1  0.197400  0.031600  0.335200  1.0
  C  C40  1  0.664800  0.802600  0.968400  1.0
  C  C41  1  0.968400  0.664800  0.802600  1.0
  C  C42  1  0.802600  0.968400  0.664800  1.0
  C  C43  1  0.260220  0.167620  0.106420  1.0
  C  C44  1  0.106420  0.260220  0.167620  1.0
  C  C45  1  0.167620  0.106420  0.260220  1.0
  C  C46  1  0.739780  0.832380  0.893580  1.0
  C  C47  1  0.893580  0.739780  0.832380  1.0
  C  C48  1  0.832380  0.893580  0.739780  1.0
  C  C49  1  0.249300  0.130700  0.052800  1.0
  C  C50  1  0.052800  0.249300  0.130700  1.0
  C  C51  1  0.130700  0.052800  0.249300  1.0
  C  C52  1  0.750700  0.869300  0.947200  1.0
  C  C53  1  0.947200  0.750700  0.869300  1.0
  C  C54  1  0.869300  0.947200  0.750700  1.0
  C  C55  1  0.234700  0.230000  0.025400  1.0
  C  C56  1  0.025400  0.234700  0.230000  1.0
  C  C57  1  0.230000  0.025400  0.234700  1.0
  C  C58  1  0.765300  0.770000  0.974600  1.0
  C  C59  1  0.974600  0.765300  0.770000  1.0
  C  C60  1  0.770000  0.974600  0.765300  1.0
  C  C61  1  0.226500  0.179500  0.072700  1.0
  C  C62  1  0.072700  0.226500  0.179500  1.0
  C  C63  1  0.179500  0.072700  0.226500  1.0
  C  C64  1  0.773500  0.820500  0.927300  1.0
  C  C65  1  0.927300  0.773500  0.820500  1.0
  C  C66  1  0.820500  0.927300  0.773500  1.0
  C  C67  1  0.360020  0.216720  0.117120  1.0
  C  C68  1  0.117120  0.360020  0.216720  1.0
  C  C69  1  0.216720  0.117120  0.360020  1.0
  C  C70  1  0.639980  0.783280  0.882880  1.0
  C  C71  1  0.882880  0.639980  0.783280  1.0
  C  C72  1  0.783280  0.882880  0.639980  1.0
  C  C73  1  0.334820  0.243220  0.153020  1.0
  C  C74  1  0.153020  0.334820  0.243220  1.0
  C  C75  1  0.243220  0.153020  0.334820  1.0
  C  C76  1  0.665180  0.756780  0.846980  1.0
  C  C77  1  0.846980  0.665180  0.756780  1.0
  C  C78  1  0.756780  0.846980  0.665180  1.0
  C  C79  1  0.334690  0.289290  0.157390  1.0
  C  C80  1  0.157390  0.334690  0.289290  1.0
  C  C81  1  0.289290  0.157390  0.334690  1.0
  C  C82  1  0.665310  0.710710  0.842610  1.0
  C  C83  1  0.842610  0.665310  0.710710  1.0
  C  C84  1  0.710710  0.842610  0.665310  1.0
  C  C85  1  0.371550  0.316250  0.125250  1.0
  C  C86  1  0.125250  0.371550  0.316250  1.0
  C  C87  1  0.316250  0.125250  0.371550  1.0
  C  C88  1  0.628450  0.683750  0.874750  1.0
  C  C89  1  0.874750  0.628450  0.683750  1.0
  C  C90  1  0.683750  0.874750  0.628450  1.0
  C  C91  1  0.366330  0.361130  0.133830  1.0
  C  C92  1  0.133830  0.366330  0.361130  1.0
  C  C93  1  0.361130  0.133830  0.366330  1.0
  C  C94  1  0.633670  0.638870  0.866170  1.0
  C  C95  1  0.866170  0.633670  0.638870  1.0
  C  C96  1  0.638870  0.866170  0.633670  1.0
  C  C97  1  0.325340  0.377340  0.176040  1.0
  C  C98  1  0.176040  0.325340  0.377340  1.0
  C  C99  1  0.377340  0.176040  0.325340  1.0
  C  C100  1  0.674660  0.622660  0.823960  1.0
  C  C101  1  0.823960  0.674660  0.622660  1.0
  C  C102  1  0.622660  0.823960  0.674660  1.0
  C  C103  1  0.292120  0.345720  0.210220  1.0
  C  C104  1  0.210220  0.292120  0.345720  1.0
  C  C105  1  0.345720  0.210220  0.292120  1.0
  C  C106  1  0.707880  0.654280  0.789780  1.0
  C  C107  1  0.789780  0.707880  0.654280  1.0
  C  C108  1  0.654280  0.789780  0.707880  1.0
  C  C109  1  0.314510  0.427010  0.183310  1.0
  C  C110  1  0.183310  0.314510  0.427010  1.0
  C  C111  1  0.427010  0.183310  0.314510  1.0
  C  C112  1  0.685490  0.572990  0.816690  1.0
  C  C113  1  0.816690  0.685490  0.572990  1.0
  C  C114  1  0.572990  0.816690  0.685490  1.0
  C  C115  1  0.350800  0.453600  0.156100  1.0
  C  C116  1  0.156100  0.350800  0.453600  1.0
  C  C117  1  0.453600  0.156100  0.350800  1.0
  C  C118  1  0.649200  0.546400  0.843900  1.0
  C  C119  1  0.843900  0.649200  0.546400  1.0
  C  C120  1  0.546400  0.843900  0.649200  1.0
  C  C121  1  0.337600  0.503900  0.162800  1.0
  C  C122  1  0.162800  0.337600  0.503900  1.0
  C  C123  1  0.503900  0.162800  0.337600  1.0
  C  C124  1  0.662400  0.496100  0.837200  1.0
  C  C125  1  0.837200  0.662400  0.496100  1.0
  C  C126  1  0.496100  0.837200  0.662400  1.0
  C  C127  1  0.291970  0.525270  0.195970  1.0
  C  C128  1  0.195970  0.291970  0.525270  1.0
  C  C129  1  0.525270  0.195970  0.291970  1.0
  C  C130  1  0.708030  0.474730  0.804030  1.0
  C  C131  1  0.804030  0.708030  0.474730  1.0
  C  C132  1  0.474730  0.804030  0.708030  1.0
  C  C133  1  0.254830  0.498230  0.221030  1.0
  C  C134  1  0.221030  0.254830  0.498230  1.0
  C  C135  1  0.498230  0.221030  0.254830  1.0
  C  C136  1  0.745170  0.501770  0.778970  1.0
  C  C137  1  0.778970  0.745170  0.501770  1.0
  C  C138  1  0.501770  0.778970  0.745170  1.0
  C  C139  1  0.264890  0.452290  0.215390  1.0
  C  C140  1  0.215390  0.264890  0.452290  1.0
  C  C141  1  0.452290  0.215390  0.264890  1.0
  C  C142  1  0.735110  0.547710  0.784610  1.0
  C  C143  1  0.784610  0.735110  0.547710  1.0
  C  C144  1  0.547710  0.784610  0.735110  1.0
  C  C145  1  0.278260  0.577860  0.201460  1.0
  C  C146  1  0.201460  0.278260  0.577860  1.0
  C  C147  1  0.577860  0.201460  0.278260  1.0
  C  C148  1  0.721740  0.422140  0.798540  1.0
  C  C149  1  0.798540  0.721740  0.422140  1.0
  C  C150  1  0.422140  0.798540  0.721740  1.0
  C  C151  1  0.226190  0.613290  0.214590  1.0
  C  C152  1  0.214590  0.226190  0.613290  1.0
  C  C153  1  0.613290  0.214590  0.226190  1.0
  C  C154  1  0.773810  0.386710  0.785410  1.0
  C  C155  1  0.785410  0.773810  0.386710  1.0
  C  C156  1  0.386710  0.785410  0.773810  1.0
  C  C157  1  0.217170  0.662270  0.214470  1.0
  C  C158  1  0.214470  0.217170  0.662270  1.0
  C  C159  1  0.662270  0.214470  0.217170  1.0
  C  C160  1  0.782830  0.337730  0.785530  1.0
  C  C161  1  0.785530  0.782830  0.337730  1.0
  C  C162  1  0.337730  0.785530  0.782830  1.0
  C  C163  1  0.258310  0.677910  0.200410  1.0
  C  C164  1  0.200410  0.258310  0.677910  1.0
  C  C165  1  0.677910  0.200410  0.258310  1.0
  C  C166  1  0.741690  0.322090  0.799590  1.0
  C  C167  1  0.799590  0.741690  0.322090  1.0
  C  C168  1  0.322090  0.799590  0.741690  1.0
  C  C169  1  0.319870  0.595870  0.190170  1.0
  C  C170  1  0.190170  0.319870  0.595870  1.0
  C  C171  1  0.595870  0.190170  0.319870  1.0
  C  C172  1  0.680130  0.404130  0.809830  1.0
  C  C173  1  0.809830  0.680130  0.404130  1.0
  C  C174  1  0.404130  0.809830  0.680130  1.0
  C  C175  1  0.256140  0.730440  0.197540  1.0
  C  C176  1  0.197540  0.256140  0.730440  1.0
  C  C177  1  0.730440  0.197540  0.256140  1.0
  C  C178  1  0.743860  0.269560  0.802460  1.0
  C  C179  1  0.802460  0.743860  0.269560  1.0
  C  C180  1  0.269560  0.802460  0.743860  1.0
  C  C181  1  0.217890  0.778390  0.202390  1.0
  C  C182  1  0.202390  0.217890  0.778390  1.0
  C  C183  1  0.778390  0.202390  0.217890  1.0
  C  C184  1  0.782110  0.221610  0.797610  1.0
  C  C185  1  0.797610  0.782110  0.221610  1.0
  C  C186  1  0.221610  0.797610  0.782110  1.0
  C  C187  1  0.223100  0.865100  0.192700  1.0
  C  C188  1  0.192700  0.223100  0.865100  1.0
  C  C189  1  0.865100  0.192700  0.223100  1.0
  C  C190  1  0.776900  0.134900  0.807300  1.0
  C  C191  1  0.807300  0.776900  0.134900  1.0
  C  C192  1  0.134900  0.807300  0.776900  1.0
  C  C193  1  0.217100  0.906600  0.138300  1.0
  C  C194  1  0.138300  0.217100  0.906600  1.0
  C  C195  1  0.906600  0.138300  0.217100  1.0
  C  C196  1  0.782900  0.093400  0.861700  1.0
  C  C197  1  0.861700  0.782900  0.093400  1.0
  C  C198  1  0.093400  0.861700  0.782900  1.0
  C  C199  1  0.196900  0.961300  0.146700  1.0
  C  C200  1  0.146700  0.196900  0.961300  1.0
  C  C201  1  0.961300  0.146700  0.196900  1.0
  C  C202  1  0.803100  0.038700  0.853300  1.0
  C  C203  1  0.853300  0.803100  0.038700  1.0
  C  C204  1  0.038700  0.853300  0.803100  1.0
  C  C205  1  0.189300  0.008500  0.091200  1.0
  C  C206  1  0.091200  0.189300  0.008500  1.0
  C  C207  1  0.008500  0.091200  0.189300  1.0
  C  C208  1  0.810700  0.991500  0.908800  1.0
  C  C209  1  0.908800  0.810700  0.991500  1.0
  C  C210  1  0.991500  0.908800  0.810700  1.0
  C  C211  1  0.151100  0.001200  0.077900  1.0
  C  C212  1  0.077900  0.151100  0.001200  1.0
  C  C213  1  0.001200  0.077900  0.151100  1.0
  C  C214  1  0.848900  0.998800  0.922100  1.0
  C  C215  1  0.922100  0.848900  0.998800  1.0
  C  C216  1  0.998800  0.922100  0.848900  1.0
  C  C217  1  0.176400  0.944000  0.064800  1.0
  C  C218  1  0.064800  0.176400  0.944000  1.0
  C  C219  1  0.944000  0.064800  0.176400  1.0
  C  C220  1  0.823600  0.056000  0.935200  1.0
  C  C221  1  0.935200  0.823600  0.056000  1.0
  C  C222  1  0.056000  0.935200  0.823600  1.0
  C  C223  1  0.179000  0.900500  0.119800  1.0
  C  C224  1  0.119800  0.179000  0.900500  1.0
  C  C225  1  0.900500  0.119800  0.179000  1.0
  C  C226  1  0.821000  0.099500  0.880200  1.0
  C  C227  1  0.880200  0.821000  0.099500  1.0
  C  C228  1  0.099500  0.880200  0.821000  1.0
  C  C229  1  0.269800  0.903100  0.094500  1.0
  C  C230  1  0.094500  0.269800  0.903100  1.0
  C  C231  1  0.903100  0.094500  0.269800  1.0
  C  C232  1  0.730200  0.096900  0.905500  1.0
  C  C233  1  0.905500  0.730200  0.096900  1.0
  C  C234  1  0.096900  0.905500  0.730200  1.0
  C  C235  1  0.242300  0.003400  0.052300  1.0
  C  C236  1  0.052300  0.242300  0.003400  1.0
  C  C237  1  0.003400  0.052300  0.242300  1.0
  C  C238  1  0.757700  0.996600  0.947700  1.0
  C  C239  1  0.947700  0.757700  0.996600  1.0
  C  C240  1  0.996600  0.947700  0.757700  1.0
  C  C241  1  0.231900  0.942500  0.024300  1.0
  C  C242  1  0.024300  0.231900  0.942500  1.0
  C  C243  1  0.942500  0.024300  0.231900  1.0
  C  C244  1  0.768100  0.057500  0.975700  1.0
  C  C245  1  0.975700  0.768100  0.057500  1.0
  C  C246  1  0.057500  0.975700  0.768100  1.0
  C  C247  1  0.265100  0.949800  0.042600  1.0
  C  C248  1  0.042600  0.265100  0.949800  1.0
  C  C249  1  0.949800  0.042600  0.265100  1.0
  C  C250  1  0.734900  0.050200  0.957400  1.0
  C  C251  1  0.957400  0.734900  0.050200  1.0
  C  C252  1  0.050200  0.957400  0.734900  1.0
  C  C253  1  0.495030  0.784630  0.108730  1.0
  C  C254  1  0.108730  0.495030  0.784630  1.0
  C  C255  1  0.784630  0.108730  0.495030  1.0
  C  C256  1  0.504970  0.215370  0.891270  1.0
  C  C257  1  0.891270  0.504970  0.215370  1.0
  C  C258  1  0.215370  0.891270  0.504970  1.0
  C  C259  1  0.470100  0.842100  0.102200  1.0
  C  C260  1  0.102200  0.470100  0.842100  1.0
  C  C261  1  0.842100  0.102200  0.470100  1.0
  C  C262  1  0.529900  0.157900  0.897800  1.0
  C  C263  1  0.897800  0.529900  0.157900  1.0
  C  C264  1  0.157900  0.897800  0.529900  1.0
  C  C265  1  0.512400  0.870700  0.062500  1.0
  C  C266  1  0.062500  0.512400  0.870700  1.0
  C  C267  1  0.870700  0.062500  0.512400  1.0
  C  C268  1  0.487600  0.129300  0.937500  1.0
  C  C269  1  0.937500  0.487600  0.129300  1.0
  C  C270  1  0.129300  0.937500  0.487600  1.0
  C  C271  1  0.488100  0.932600  0.050100  1.0
  C  C272  1  0.050100  0.488100  0.932600  1.0
  C  C273  1  0.932600  0.050100  0.488100  1.0
  C  C274  1  0.511900  0.067400  0.949900  1.0
  C  C275  1  0.949900  0.511900  0.067400  1.0
  C  C276  1  0.067400  0.949900  0.511900  1.0
  C  C277  1  0.469700  0.942300  0.095100  1.0
  C  C278  1  0.095100  0.469700  0.942300  1.0
  C  C279  1  0.942300  0.095100  0.469700  1.0
  C  C280  1  0.530300  0.057700  0.904900  1.0
  C  C281  1  0.904900  0.530300  0.057700  1.0
  C  C282  1  0.057700  0.904900  0.530300  1.0
  C  C283  1  0.410900  0.921200  0.147100  1.0
  C  C284  1  0.147100  0.410900  0.921200  1.0
  C  C285  1  0.921200  0.147100  0.410900  1.0
  C  C286  1  0.589100  0.078800  0.852900  1.0
  C  C287  1  0.852900  0.589100  0.078800  1.0
  C  C288  1  0.078800  0.852900  0.589100  1.0
  C  C289  1  0.445600  0.854400  0.155500  1.0
  C  C290  1  0.155500  0.445600  0.854400  1.0
  C  C291  1  0.854400  0.155500  0.445600  1.0
  C  C292  1  0.554400  0.145600  0.844500  1.0
  C  C293  1  0.844500  0.554400  0.145600  1.0
  C  C294  1  0.145600  0.844500  0.554400  1.0
  C  C295  1  0.424700  0.865800  0.079200  1.0
  C  C296  1  0.079200  0.424700  0.865800  1.0
  C  C297  1  0.865800  0.079200  0.424700  1.0
  C  C298  1  0.575300  0.134200  0.920800  1.0
  C  C299  1  0.920800  0.575300  0.134200  1.0
  C  C300  1  0.134200  0.920800  0.575300  1.0
  C  C301  1  0.443200  0.952200  0.032500  1.0
  C  C302  1  0.032500  0.443200  0.952200  1.0
  C  C303  1  0.952200  0.032500  0.443200  1.0
  C  C304  1  0.556800  0.047800  0.967500  1.0
  C  C305  1  0.967500  0.556800  0.047800  1.0
  C  C306  1  0.047800  0.967500  0.556800  1.0
  C  C307  1  0.378300  0.937600  0.116500  1.0
  C  C308  1  0.116500  0.378300  0.937600  1.0
  C  C309  1  0.937600  0.116500  0.378300  1.0
  C  C310  1  0.621700  0.062400  0.883500  1.0
  C  C311  1  0.883500  0.621700  0.062400  1.0
  C  C312  1  0.062400  0.883500  0.621700  1.0
  C  C313  1  0.398200  0.926700  0.064300  1.0
  C  C314  1  0.064300  0.398200  0.926700  1.0
  C  C315  1  0.926700  0.064300  0.398200  1.0
  C  C316  1  0.601800  0.073300  0.935700  1.0
  C  C317  1  0.935700  0.601800  0.073300  1.0
  C  C318  1  0.073300  0.935700  0.601800  1.0
  C  C319  1  0.449630  0.728230  0.200030  1.0
  C  C320  1  0.200030  0.449630  0.728230  1.0
  C  C321  1  0.728230  0.200030  0.449630  1.0
  C  C322  1  0.550370  0.271770  0.799970  1.0
  C  C323  1  0.799970  0.550370  0.271770  1.0
  C  C324  1  0.271770  0.799970  0.550370  1.0
  C  C325  1  0.416060  0.700560  0.215160  1.0
  C  C326  1  0.215160  0.416060  0.700560  1.0
  C  C327  1  0.700560  0.215160  0.416060  1.0
  C  C328  1  0.583940  0.299440  0.784840  1.0
  C  C329  1  0.784840  0.583940  0.299440  1.0
  C  C330  1  0.299440  0.784840  0.583940  1.0
  C  C331  1  0.385380  0.667580  0.262080  1.0
  C  C332  1  0.262080  0.385380  0.667580  1.0
  C  C333  1  0.667580  0.262080  0.385380  1.0
  C  C334  1  0.614620  0.332420  0.737920  1.0
  C  C335  1  0.737920  0.614620  0.332420  1.0
  C  C336  1  0.332420  0.737920  0.614620  1.0
  C  C337  1  0.383980  0.656680  0.313980  1.0
  C  C338  1  0.313980  0.383980  0.656680  1.0
  C  C339  1  0.656680  0.313980  0.383980  1.0
  C  C340  1  0.616020  0.343320  0.686020  1.0
  C  C341  1  0.686020  0.616020  0.343320  1.0
  C  C342  1  0.343320  0.686020  0.616020  1.0
  C  C343  1  0.353400  0.623000  0.356100  1.0
  C  C344  1  0.356100  0.353400  0.623000  1.0
  C  C345  1  0.623000  0.356100  0.353400  1.0
  C  C346  1  0.646600  0.377000  0.643900  1.0
  C  C347  1  0.643900  0.646600  0.377000  1.0
  C  C348  1  0.377000  0.643900  0.646600  1.0
  C  C349  1  0.324960  0.605060  0.346860  1.0
  C  C350  1  0.346860  0.324960  0.605060  1.0
  C  C351  1  0.605060  0.346860  0.324960  1.0
  C  C352  1  0.675040  0.394940  0.653140  1.0
  C  C353  1  0.653140  0.675040  0.394940  1.0
  C  C354  1  0.394940  0.653140  0.675040  1.0
  C  C355  1  0.329250  0.618550  0.293350  1.0
  C  C356  1  0.293350  0.329250  0.618550  1.0
  C  C357  1  0.618550  0.293350  0.329250  1.0
  C  C358  1  0.670750  0.381450  0.706650  1.0
  C  C359  1  0.706650  0.670750  0.381450  1.0
  C  C360  1  0.381450  0.706650  0.670750  1.0
  C  C361  1  0.290160  0.573060  0.389960  1.0
  C  C362  1  0.389960  0.290160  0.573060  1.0
  C  C363  1  0.573060  0.389960  0.290160  1.0
  C  C364  1  0.709840  0.426940  0.610040  1.0
  C  C365  1  0.610040  0.709840  0.426940  1.0
  C  C366  1  0.426940  0.610040  0.709840  1.0
  C  C367  1  0.300480  0.540880  0.438880  1.0
  C  C368  1  0.438880  0.300480  0.540880  1.0
  C  C369  1  0.540880  0.438880  0.300480  1.0
  C  C370  1  0.699520  0.459120  0.561120  1.0
  C  C371  1  0.561120  0.699520  0.459120  1.0
  C  C372  1  0.459120  0.561120  0.699520  1.0
  C  C373  1  0.264020  0.515420  0.481420  1.0
  C  C374  1  0.481420  0.264020  0.515420  1.0
  C  C375  1  0.515420  0.481420  0.264020  1.0
  C  C376  1  0.735980  0.484580  0.518580  1.0
  C  C377  1  0.518580  0.735980  0.484580  1.0
  C  C378  1  0.484580  0.518580  0.735980  1.0
  C  C379  1  0.218550  0.519150  0.477950  1.0
  C  C380  1  0.477950  0.218550  0.519150  1.0
  C  C381  1  0.519150  0.477950  0.218550  1.0
  C  C382  1  0.781450  0.480850  0.522050  1.0
  C  C383  1  0.522050  0.781450  0.480850  1.0
  C  C384  1  0.480850  0.522050  0.781450  1.0
  C  C385  1  0.210290  0.546690  0.429990  1.0
  C  C386  1  0.429990  0.210290  0.546690  1.0
  C  C387  1  0.546690  0.429990  0.210290  1.0
  C  C388  1  0.789710  0.453310  0.570010  1.0
  C  C389  1  0.570010  0.789710  0.453310  1.0
  C  C390  1  0.453310  0.570010  0.789710  1.0
  C  C391  1  0.247370  0.572470  0.385970  1.0
  C  C392  1  0.385970  0.247370  0.572470  1.0
  C  C393  1  0.572470  0.385970  0.247370  1.0
  C  C394  1  0.752630  0.427530  0.614030  1.0
  C  C395  1  0.614030  0.752630  0.427530  1.0
  C  C396  1  0.427530  0.614030  0.752630  1.0
  C  C397  1  0.178880  0.493080  0.525780  1.0
  C  C398  1  0.525780  0.178880  0.493080  1.0
  C  C399  1  0.493080  0.525780  0.178880  1.0
  C  C400  1  0.821120  0.506920  0.474220  1.0
  C  C401  1  0.474220  0.821120  0.506920  1.0
  C  C402  1  0.506920  0.474220  0.821120  1.0
  C  C403  1  0.193980  0.450480  0.566480  1.0
  C  C404  1  0.566480  0.193980  0.450480  1.0
  C  C405  1  0.450480  0.566480  0.193980  1.0
  C  C406  1  0.806020  0.549520  0.433520  1.0
  C  C407  1  0.433520  0.806020  0.549520  1.0
  C  C408  1  0.549520  0.433520  0.806020  1.0
  C  C409  1  0.124430  0.513130  0.530330  1.0
  C  C410  1  0.530330  0.124430  0.513130  1.0
  C  C411  1  0.513130  0.530330  0.124430  1.0
  C  C412  1  0.875570  0.486870  0.469670  1.0
  C  C413  1  0.469670  0.875570  0.486870  1.0
  C  C414  1  0.486870  0.469670  0.875570  1.0
  C  C415  1  0.089000  0.490600  0.574400  1.0
  C  C416  1  0.574400  0.089000  0.490600  1.0
  C  C417  1  0.490600  0.574400  0.089000  1.0
  C  C418  1  0.911000  0.509400  0.425600  1.0
  C  C419  1  0.425600  0.911000  0.509400  1.0
  C  C420  1  0.509400  0.425600  0.911000  1.0
  C  C421  1  0.106480  0.447380  0.614780  1.0
  C  C422  1  0.614780  0.106480  0.447380  1.0
  C  C423  1  0.447380  0.614780  0.106480  1.0
  C  C424  1  0.893520  0.552620  0.385220  1.0
  C  C425  1  0.385220  0.893520  0.552620  1.0
  C  C426  1  0.552620  0.385220  0.893520  1.0
  C  C427  1  0.073680  0.418980  0.664280  1.0
  C  C428  1  0.664280  0.073680  0.418980  1.0
  C  C429  1  0.418980  0.664280  0.073680  1.0
  C  C430  1  0.926320  0.581020  0.335720  1.0
  C  C431  1  0.335720  0.926320  0.581020  1.0
  C  C432  1  0.581020  0.335720  0.926320  1.0
  C  C433  1  0.021160  0.421560  0.688360  1.0
  C  C434  1  0.688360  0.021160  0.421560  1.0
  C  C435  1  0.421560  0.688360  0.021160  1.0
  C  C436  1  0.978840  0.578440  0.311640  1.0
  C  C437  1  0.311640  0.978840  0.578440  1.0
  C  C438  1  0.578440  0.311640  0.978840  1.0
  C  C439  1  0.970800  0.368500  0.777500  1.0
  C  C440  1  0.777500  0.970800  0.368500  1.0
  C  C441  1  0.368500  0.777500  0.970800  1.0
  C  C442  1  0.029200  0.631500  0.222500  1.0
  C  C443  1  0.222500  0.029200  0.631500  1.0
  C  C444  1  0.631500  0.222500  0.029200  1.0
  C  C445  1  0.938200  0.401500  0.814000  1.0
  C  C446  1  0.814000  0.938200  0.401500  1.0
  C  C447  1  0.401500  0.814000  0.938200  1.0
  C  C448  1  0.061800  0.598500  0.186000  1.0
  C  C449  1  0.186000  0.061800  0.598500  1.0
  C  C450  1  0.598500  0.186000  0.061800  1.0
  C  C451  1  0.972900  0.397400  0.842800  1.0
  C  C452  1  0.842800  0.972900  0.397400  1.0
  C  C453  1  0.397400  0.842800  0.972900  1.0
  C  C454  1  0.027100  0.602600  0.157200  1.0
  C  C455  1  0.157200  0.027100  0.602600  1.0
  C  C456  1  0.602600  0.157200  0.027100  1.0
  C  C457  1  0.936300  0.427500  0.884400  1.0
  C  C458  1  0.884400  0.936300  0.427500  1.0
  C  C459  1  0.427500  0.884400  0.936300  1.0
  C  C460  1  0.063700  0.572500  0.115600  1.0
  C  C461  1  0.115600  0.063700  0.572500  1.0
  C  C462  1  0.572500  0.115600  0.063700  1.0
  C  C463  1  0.892200  0.401500  0.926000  1.0
  C  C464  1  0.926000  0.892200  0.401500  1.0
  C  C465  1  0.401500  0.926000  0.892200  1.0
  C  C466  1  0.107800  0.598500  0.074000  1.0
  C  C467  1  0.074000  0.107800  0.598500  1.0
  C  C468  1  0.598500  0.074000  0.107800  1.0
  C  C469  1  0.857600  0.406800  0.897400  1.0
  C  C470  1  0.897400  0.857600  0.406800  1.0
  C  C471  1  0.406800  0.897400  0.857600  1.0
  C  C472  1  0.142400  0.593200  0.102600  1.0
  C  C473  1  0.102600  0.142400  0.593200  1.0
  C  C474  1  0.593200  0.102600  0.142400  1.0
  C  C475  1  0.892400  0.377700  0.856000  1.0
  C  C476  1  0.856000  0.892400  0.377700  1.0
  C  C477  1  0.377700  0.856000  0.892400  1.0
  C  C478  1  0.107600  0.622300  0.144000  1.0
  C  C479  1  0.144000  0.107600  0.622300  1.0
  C  C480  1  0.622300  0.144000  0.107600  1.0
  C  C481  1  0.915100  0.458500  0.786700  1.0
  C  C482  1  0.786700  0.915100  0.458500  1.0
  C  C483  1  0.458500  0.786700  0.915100  1.0
  C  C484  1  0.084900  0.541500  0.213300  1.0
  C  C485  1  0.213300  0.084900  0.541500  1.0
  C  C486  1  0.541500  0.213300  0.084900  1.0
  C  C487  1  0.913500  0.483900  0.858000  1.0
  C  C488  1  0.858000  0.913500  0.483900  1.0
  C  C489  1  0.483900  0.858000  0.913500  1.0
  C  C490  1  0.086500  0.516100  0.142000  1.0
  C  C491  1  0.142000  0.086500  0.516100  1.0
  C  C492  1  0.516100  0.142000  0.086500  1.0
  C  C493  1  0.832400  0.467100  0.871600  1.0
  C  C494  1  0.871600  0.832400  0.467100  1.0
  C  C495  1  0.467100  0.871600  0.832400  1.0
  C  C496  1  0.167600  0.532900  0.128400  1.0
  C  C497  1  0.128400  0.167600  0.532900  1.0
  C  C498  1  0.532900  0.128400  0.167600  1.0
  C  C499  1  0.879800  0.493300  0.827700  1.0
  C  C500  1  0.827700  0.879800  0.493300  1.0
  C  C501  1  0.493300  0.827700  0.879800  1.0
  C  C502  1  0.120200  0.506700  0.172300  1.0
  C  C503  1  0.172300  0.120200  0.506700  1.0
  C  C504  1  0.506700  0.172300  0.120200  1.0
  Co  Co505  1  0.251607  0.251607  0.251607  1
  Co  Co506  1  0.748393  0.748393  0.748393  1
  Co  Co507  1  0.365040  0.674380  0.175720  1.0
  Co  Co508  1  0.175720  0.365040  0.674380  1.0
  Co  Co509  1  0.674380  0.175720  0.365040  1.0
  Co  Co510  1  0.634960  0.325620  0.824280  1.0
  Co  Co511  1  0.824280  0.634960  0.325620  1.0
  Co  Co512  1  0.325620  0.824280  0.634960  1.0
  F  F513  1  0.601700  0.695200  0.056900  1
  F  F514  1  0.056900  0.601700  0.695200  1
  F  F515  1  0.695200  0.056900  0.601700  1
  F  F516  1  0.398300  0.304800  0.943100  1
  F  F517  1  0.943100  0.398300  0.304800  1
  F  F518  1  0.304800  0.943100  0.398300  1
  F  F519  1  0.556900  0.733300  0.002100  1
  F  F520  1  0.002100  0.556900  0.733300  1
  F  F521  1  0.733300  0.002100  0.556900  1
  F  F522  1  0.443100  0.266700  0.997900  1
  F  F523  1  0.997900  0.443100  0.266700  1
  F  F524  1  0.266700  0.997900  0.443100  1
  F  F525  1  0.638200  0.677900  0.977400  1
  F  F526  1  0.977400  0.638200  0.677900  1
  F  F527  1  0.677900  0.977400  0.638200  1
  F  F528  1  0.361800  0.322100  0.022600  1
  F  F529  1  0.022600  0.361800  0.322100  1
  F  F530  1  0.322100  0.022600  0.361800  1
  F  F531  1  0.561300  0.656900  0.001200  1
  F  F532  1  0.001200  0.561300  0.656900  1
  F  F533  1  0.656900  0.001200  0.561300  1
  F  F534  1  0.438700  0.343100  0.998800  1
  F  F535  1  0.998800  0.438700  0.343100  1
  F  F536  1  0.343100  0.998800  0.438700  1
  F  F537  1  0.609300  0.614600  0.051600  1
  F  F538  1  0.051600  0.609300  0.614600  1
  F  F539  1  0.614600  0.051600  0.609300  1
  F  F540  1  0.390700  0.385400  0.948400  1
  F  F541  1  0.948400  0.390700  0.385400  1
  F  F542  1  0.385400  0.948400  0.390700  1
  F  F543  1  0.539600  0.663600  0.081600  1
  F  F544  1  0.081600  0.539600  0.663600  1
  F  F545  1  0.663600  0.081600  0.539600  1
  F  F546  1  0.460400  0.336400  0.918400  1
  F  F547  1  0.918400  0.460400  0.336400  1
  F  F548  1  0.336400  0.918400  0.460400  1
  F  F549  1  0.491100  0.625500  0.930900  1
  F  F550  1  0.930900  0.491100  0.625500  1
  F  F551  1  0.625500  0.930900  0.491100  1
  F  F552  1  0.508900  0.374500  0.069100  1
  F  F553  1  0.069100  0.508900  0.374500  1
  F  F554  1  0.374500  0.069100  0.508900  1
  F  F555  1  0.436000  0.697200  0.886400  1
  F  F556  1  0.886400  0.436000  0.697200  1
  F  F557  1  0.697200  0.886400  0.436000  1
  F  F558  1  0.564000  0.302800  0.113600  1
  F  F559  1  0.113600  0.564000  0.302800  1
  F  F560  1  0.302800  0.113600  0.564000  1
  F  F561  1  0.520500  0.662600  0.845500  1
  F  F562  1  0.845500  0.520500  0.662600  1
  F  F563  1  0.662600  0.845500  0.520500  1
  F  F564  1  0.479500  0.337400  0.154500  1
  F  F565  1  0.154500  0.479500  0.337400  1
  F  F566  1  0.337400  0.154500  0.479500  1
  F  F567  1  0.458050  0.661450  0.828550  1
  F  F568  1  0.828550  0.458050  0.661450  1
  F  F569  1  0.661450  0.828550  0.458050  1
  F  F570  1  0.541950  0.338550  0.171450  1
  F  F571  1  0.171450  0.541950  0.338550  1
  F  F572  1  0.338550  0.171450  0.541950  1
  F  F573  1  0.509300  0.588900  0.871600  1
  F  F574  1  0.871600  0.509300  0.588900  1
  F  F575  1  0.588900  0.871600  0.509300  1
  F  F576  1  0.490700  0.411100  0.128400  1
  F  F577  1  0.128400  0.490700  0.411100  1
  F  F578  1  0.411100  0.128400  0.490700  1
  F  F579  1  0.431600  0.607900  0.910500  1
  F  F580  1  0.910500  0.431600  0.607900  1
  F  F581  1  0.607900  0.910500  0.431600  1
  F  F582  1  0.568400  0.392100  0.089500  1
  F  F583  1  0.089500  0.568400  0.392100  1
  F  F584  1  0.392100  0.089500  0.568400  1
  H  H585  1  0.387100  0.127200  0.092800  1.0
  H  H586  1  0.092800  0.387100  0.127200  1.0
  H  H587  1  0.127200  0.092800  0.387100  1.0
  H  H588  1  0.612900  0.872800  0.907200  1.0
  H  H589  1  0.907200  0.612900  0.872800  1.0
  H  H590  1  0.872800  0.907200  0.612900  1.0
  H  H591  1  0.341800  0.105200  0.141800  1.0
  H  H592  1  0.141800  0.341800  0.105200  1.0
  H  H593  1  0.105200  0.141800  0.341800  1.0
  H  H594  1  0.658200  0.894800  0.858200  1.0
  H  H595  1  0.858200  0.658200  0.894800  1.0
  H  H596  1  0.894800  0.858200  0.658200  1.0
  H  H597  1  0.374600  0.100700  0.036700  1.0
  H  H598  1  0.036700  0.374600  0.100700  1.0
  H  H599  1  0.100700  0.036700  0.374600  1.0
  H  H600  1  0.625400  0.899300  0.963300  1.0
  H  H601  1  0.963300  0.625400  0.899300  1.0
  H  H602  1  0.899300  0.963300  0.625400  1.0
  H  H603  1  0.330900  0.077000  0.087300  1.0
  H  H604  1  0.087300  0.330900  0.077000  1.0
  H  H605  1  0.077000  0.087300  0.330900  1.0
  H  H606  1  0.669100  0.923000  0.912700  1.0
  H  H607  1  0.912700  0.669100  0.923000  1.0
  H  H608  1  0.923000  0.912700  0.669100  1.0
  H  H609  1  0.320000  0.090300  0.009300  1.0
  H  H610  1  0.009300  0.320000  0.090300  1.0
  H  H611  1  0.090300  0.009300  0.320000  1.0
  H  H612  1  0.680000  0.909700  0.990700  1.0
  H  H613  1  0.990700  0.680000  0.909700  1.0
  H  H614  1  0.909700  0.990700  0.680000  1.0
  H  H615  1  0.301200  0.171800  0.954400  1.0
  H  H616  1  0.954400  0.301200  0.171800  1.0
  H  H617  1  0.171800  0.954400  0.301200  1.0
  H  H618  1  0.698800  0.828200  0.045600  1.0
  H  H619  1  0.045600  0.698800  0.828200  1.0
  H  H620  1  0.828200  0.045600  0.698800  1.0
  H  H621  1  0.356900  0.153000  0.961900  1.0
  H  H622  1  0.961900  0.356900  0.153000  1.0
  H  H623  1  0.153000  0.961900  0.356900  1.0
  H  H624  1  0.643100  0.847000  0.038100  1.0
  H  H625  1  0.038100  0.643100  0.847000  1.0
  H  H626  1  0.847000  0.038100  0.643100  1.0
  H  H627  1  0.307700  0.249200  0.961400  1.0
  H  H628  1  0.961400  0.307700  0.249200  1.0
  H  H629  1  0.249200  0.961400  0.307700  1.0
  H  H630  1  0.692300  0.750800  0.038600  1.0
  H  H631  1  0.038600  0.692300  0.750800  1.0
  H  H632  1  0.750800  0.038600  0.692300  1.0
  H  H633  1  0.373300  0.185000  0.011900  1.0
  H  H634  1  0.011900  0.373300  0.185000  1.0
  H  H635  1  0.185000  0.011900  0.373300  1.0
  H  H636  1  0.626700  0.815000  0.988100  1.0
  H  H637  1  0.988100  0.626700  0.815000  1.0
  H  H638  1  0.815000  0.988100  0.626700  1.0
  H  H639  1  0.329200  0.226200  0.043300  1.0
  H  H640  1  0.043300  0.329200  0.226200  1.0
  H  H641  1  0.226200  0.043300  0.329200  1.0
  H  H642  1  0.670800  0.773800  0.956700  1.0
  H  H643  1  0.956700  0.670800  0.773800  1.0
  H  H644  1  0.773800  0.956700  0.670800  1.0
  H  H645  1  0.248300  0.198900  0.117000  1.0
  H  H646  1  0.117000  0.248300  0.198900  1.0
  H  H647  1  0.198900  0.117000  0.248300  1.0
  H  H648  1  0.751700  0.801100  0.883000  1.0
  H  H649  1  0.883000  0.751700  0.801100  1.0
  H  H650  1  0.801100  0.883000  0.751700  1.0
  H  H651  1  0.253400  0.137800  0.139100  1.0
  H  H652  1  0.139100  0.253400  0.137800  1.0
  H  H653  1  0.137800  0.139100  0.253400  1.0
  H  H654  1  0.746600  0.862200  0.860900  1.0
  H  H655  1  0.860900  0.746600  0.862200  1.0
  H  H656  1  0.862200  0.860900  0.746600  1.0
  H  H657  1  0.244400  0.098800  0.083600  1.0
  H  H658  1  0.083600  0.244400  0.098800  1.0
  H  H659  1  0.098800  0.083600  0.244400  1.0
  H  H660  1  0.755600  0.901200  0.916400  1.0
  H  H661  1  0.916400  0.755600  0.901200  1.0
  H  H662  1  0.901200  0.916400  0.755600  1.0
  H  H663  1  0.229600  0.137600  0.030500  1.0
  H  H664  1  0.030500  0.229600  0.137600  1.0
  H  H665  1  0.137600  0.030500  0.229600  1.0
  H  H666  1  0.770400  0.862400  0.969500  1.0
  H  H667  1  0.969500  0.770400  0.862400  1.0
  H  H668  1  0.862400  0.969500  0.770400  1.0
  H  H669  1  0.219800  0.260400  0.038400  1.0
  H  H670  1  0.038400  0.219800  0.260400  1.0
  H  H671  1  0.260400  0.038400  0.219800  1.0
  H  H672  1  0.780200  0.739600  0.961600  1.0
  H  H673  1  0.961600  0.780200  0.739600  1.0
  H  H674  1  0.739600  0.961600  0.780200  1.0
  H  H675  1  0.216500  0.238400  0.001000  1.0
  H  H676  1  0.001000  0.216500  0.238400  1.0
  H  H677  1  0.238400  0.001000  0.216500  1.0
  H  H678  1  0.783500  0.761600  0.999000  1.0
  H  H679  1  0.999000  0.783500  0.761600  1.0
  H  H680  1  0.761600  0.999000  0.783500  1.0
  H  H681  1  0.188300  0.185400  0.094200  1.0
  H  H682  1  0.094200  0.188300  0.185400  1.0
  H  H683  1  0.185400  0.094200  0.188300  1.0
  H  H684  1  0.811700  0.814600  0.905800  1.0
  H  H685  1  0.905800  0.811700  0.814600  1.0
  H  H686  1  0.814600  0.905800  0.811700  1.0
  H  H687  1  0.387100  0.223800  0.084400  1.0
  H  H688  1  0.084400  0.387100  0.223800  1.0
  H  H689  1  0.223800  0.084400  0.387100  1.0
  H  H690  1  0.612900  0.776200  0.915600  1.0
  H  H691  1  0.915600  0.612900  0.776200  1.0
  H  H692  1  0.776200  0.915600  0.612900  1.0
  H  H693  1  0.400600  0.304400  0.097400  1.0
  H  H694  1  0.097400  0.400600  0.304400  1.0
  H  H695  1  0.304400  0.097400  0.400600  1.0
  H  H696  1  0.599400  0.695600  0.902600  1.0
  H  H697  1  0.902600  0.599400  0.695600  1.0
  H  H698  1  0.695600  0.902600  0.599400  1.0
  H  H699  1  0.390800  0.380100  0.110700  1.0
  H  H700  1  0.110700  0.390800  0.380100  1.0
  H  H701  1  0.380100  0.110700  0.390800  1.0
  H  H702  1  0.609200  0.619900  0.889300  1.0
  H  H703  1  0.889300  0.609200  0.619900  1.0
  H  H704  1  0.619900  0.889300  0.609200  1.0
  H  H705  1  0.264700  0.355100  0.240200  1.0
  H  H706  1  0.240200  0.264700  0.355100  1.0
  H  H707  1  0.355100  0.240200  0.264700  1.0
  H  H708  1  0.735300  0.644900  0.759800  1.0
  H  H709  1  0.759800  0.735300  0.644900  1.0
  H  H710  1  0.644900  0.759800  0.735300  1.0
  H  H711  1  0.384200  0.439400  0.133000  1.0
  H  H712  1  0.133000  0.384200  0.439400  1.0
  H  H713  1  0.439400  0.133000  0.384200  1.0
  H  H714  1  0.615800  0.560600  0.867000  1.0
  H  H715  1  0.867000  0.615800  0.560600  1.0
  H  H716  1  0.560600  0.867000  0.615800  1.0
  H  H717  1  0.362800  0.522300  0.142600  1.0
  H  H718  1  0.142600  0.362800  0.522300  1.0
  H  H719  1  0.522300  0.142600  0.362800  1.0
  H  H720  1  0.637200  0.477700  0.857400  1.0
  H  H721  1  0.857400  0.637200  0.477700  1.0
  H  H722  1  0.477700  0.857400  0.637200  1.0
  H  H723  1  0.220900  0.513100  0.243000  1.0
  H  H724  1  0.243000  0.220900  0.513100  1.0
  H  H725  1  0.513100  0.243000  0.220900  1.0
  H  H726  1  0.779100  0.486900  0.757000  1.0
  H  H727  1  0.757000  0.779100  0.486900  1.0
  H  H728  1  0.486900  0.757000  0.779100  1.0
  H  H729  1  0.237800  0.436200  0.233400  1.0
  H  H730  1  0.233400  0.237800  0.436200  1.0
  H  H731  1  0.436200  0.233400  0.237800  1.0
  H  H732  1  0.762200  0.563800  0.766600  1.0
  H  H733  1  0.766600  0.762200  0.563800  1.0
  H  H734  1  0.563800  0.766600  0.762200  1.0
  H  H735  1  0.197000  0.603000  0.223500  1.0
  H  H736  1  0.223500  0.197000  0.603000  1.0
  H  H737  1  0.603000  0.223500  0.197000  1.0
  H  H738  1  0.803000  0.397000  0.776500  1.0
  H  H739  1  0.776500  0.803000  0.397000  1.0
  H  H740  1  0.397000  0.776500  0.803000  1.0
  H  H741  1  0.182000  0.685000  0.224300  1.0
  H  H742  1  0.224300  0.182000  0.685000  1.0
  H  H743  1  0.685000  0.224300  0.182000  1.0
  H  H744  1  0.818000  0.315000  0.775700  1.0
  H  H745  1  0.775700  0.818000  0.315000  1.0
  H  H746  1  0.315000  0.775700  0.818000  1.0
  H  H747  1  0.355200  0.573100  0.182500  1.0
  H  H748  1  0.182500  0.355200  0.573100  1.0
  H  H749  1  0.573100  0.182500  0.355200  1.0
  H  H750  1  0.644800  0.426900  0.817500  1.0
  H  H751  1  0.817500  0.644800  0.426900  1.0
  H  H752  1  0.426900  0.817500  0.644800  1.0
  H  H753  1  0.180800  0.787300  0.211100  1.0
  H  H754  1  0.211100  0.180800  0.787300  1.0
  H  H755  1  0.787300  0.211100  0.180800  1.0
  H  H756  1  0.819200  0.212700  0.788900  1.0
  H  H757  1  0.788900  0.819200  0.212700  1.0
  H  H758  1  0.212700  0.788900  0.819200  1.0
  H  H759  1  0.247900  0.870300  0.201400  1.0
  H  H760  1  0.201400  0.247900  0.870300  1.0
  H  H761  1  0.870300  0.201400  0.247900  1.0
  H  H762  1  0.752100  0.129700  0.798600  1.0
  H  H763  1  0.798600  0.752100  0.129700  1.0
  H  H764  1  0.129700  0.798600  0.752100  1.0
  H  H765  1  0.188300  0.871100  0.220600  1.0
  H  H766  1  0.220600  0.188300  0.871100  1.0
  H  H767  1  0.871100  0.220600  0.188300  1.0
  H  H768  1  0.811700  0.128900  0.779400  1.0
  H  H769  1  0.779400  0.811700  0.128900  1.0
  H  H770  1  0.128900  0.779400  0.811700  1.0
  H  H771  1  0.222900  0.963500  0.156300  1.0
  H  H772  1  0.156300  0.222900  0.963500  1.0
  H  H773  1  0.963500  0.156300  0.222900  1.0
  H  H774  1  0.777100  0.036500  0.843700  1.0
  H  H775  1  0.843700  0.777100  0.036500  1.0
  H  H776  1  0.036500  0.843700  0.777100  1.0
  H  H777  1  0.162800  0.965200  0.175700  1.0
  H  H778  1  0.175700  0.162800  0.965200  1.0
  H  H779  1  0.965200  0.175700  0.162800  1.0
  H  H780  1  0.837200  0.034800  0.824300  1.0
  H  H781  1  0.824300  0.837200  0.034800  1.0
  H  H782  1  0.034800  0.824300  0.837200  1.0
  H  H783  1  0.174000  0.043700  0.096500  1.0
  H  H784  1  0.096500  0.174000  0.043700  1.0
  H  H785  1  0.043700  0.096500  0.174000  1.0
  H  H786  1  0.826000  0.956300  0.903500  1.0
  H  H787  1  0.903500  0.826000  0.956300  1.0
  H  H788  1  0.956300  0.903500  0.826000  1.0
  H  H789  1  0.142500  0.031100  0.046700  1.0
  H  H790  1  0.046700  0.142500  0.031100  1.0
  H  H791  1  0.031100  0.046700  0.142500  1.0
  H  H792  1  0.857500  0.968900  0.953300  1.0
  H  H793  1  0.953300  0.857500  0.968900  1.0
  H  H794  1  0.968900  0.953300  0.857500  1.0
  H  H795  1  0.117800  0.001400  0.108000  1.0
  H  H796  1  0.108000  0.117800  0.001400  1.0
  H  H797  1  0.001400  0.108000  0.117800  1.0
  H  H798  1  0.882200  0.998600  0.892000  1.0
  H  H799  1  0.892000  0.882200  0.998600  1.0
  H  H800  1  0.998600  0.892000  0.882200  1.0
  H  H801  1  0.153500  0.941500  0.050900  1.0
  H  H802  1  0.050900  0.153500  0.941500  1.0
  H  H803  1  0.941500  0.050900  0.153500  1.0
  H  H804  1  0.846500  0.058500  0.949100  1.0
  H  H805  1  0.949100  0.846500  0.058500  1.0
  H  H806  1  0.058500  0.949100  0.846500  1.0
  H  H807  1  0.192900  0.864700  0.116500  1.0
  H  H808  1  0.116500  0.192900  0.864700  1.0
  H  H809  1  0.864700  0.116500  0.192900  1.0
  H  H810  1  0.807100  0.135300  0.883500  1.0
  H  H811  1  0.883500  0.807100  0.135300  1.0
  H  H812  1  0.135300  0.883500  0.807100  1.0
  H  H813  1  0.143200  0.904800  0.146200  1.0
  H  H814  1  0.146200  0.143200  0.904800  1.0
  H  H815  1  0.904800  0.146200  0.143200  1.0
  H  H816  1  0.856800  0.095200  0.853800  1.0
  H  H817  1  0.853800  0.856800  0.095200  1.0
  H  H818  1  0.095200  0.853800  0.856800  1.0
  H  H819  1  0.283400  0.869300  0.087400  1.0
  H  H820  1  0.087400  0.283400  0.869300  1.0
  H  H821  1  0.869300  0.087400  0.283400  1.0
  H  H822  1  0.716600  0.130700  0.912600  1.0
  H  H823  1  0.912600  0.716600  0.130700  1.0
  H  H824  1  0.130700  0.912600  0.716600  1.0
  H  H825  1  0.295600  0.903100  0.106200  1.0
  H  H826  1  0.106200  0.295600  0.903100  1.0
  H  H827  1  0.903100  0.106200  0.295600  1.0
  H  H828  1  0.704400  0.096900  0.893800  1.0
  H  H829  1  0.893800  0.704400  0.096900  1.0
  H  H830  1  0.096900  0.893800  0.704400  1.0
  H  H831  1  0.265500  0.005500  0.065400  1.0
  H  H832  1  0.065400  0.265500  0.005500  1.0
  H  H833  1  0.005500  0.065400  0.265500  1.0
  H  H834  1  0.734500  0.994500  0.934600  1.0
  H  H835  1  0.934600  0.734500  0.994500  1.0
  H  H836  1  0.994500  0.934600  0.734500  1.0
  H  H837  1  0.240400  0.032700  0.018600  1.0
  H  H838  1  0.018600  0.240400  0.032700  1.0
  H  H839  1  0.032700  0.018600  0.240400  1.0
  H  H840  1  0.759600  0.967300  0.981400  1.0
  H  H841  1  0.981400  0.759600  0.967300  1.0
  H  H842  1  0.967300  0.981400  0.759600  1.0
  H  H843  1  0.249600  0.908000  0.017700  1.0
  H  H844  1  0.017700  0.249600  0.908000  1.0
  H  H845  1  0.908000  0.017700  0.249600  1.0
  H  H846  1  0.750400  0.092000  0.982300  1.0
  H  H847  1  0.982300  0.750400  0.092000  1.0
  H  H848  1  0.092000  0.982300  0.750400  1.0
  H  H849  1  0.228500  0.970500  0.990400  1.0
  H  H850  1  0.990400  0.228500  0.970500  1.0
  H  H851  1  0.970500  0.990400  0.228500  1.0
  H  H852  1  0.771500  0.029500  0.009600  1.0
  H  H853  1  0.009600  0.771500  0.029500  1.0
  H  H854  1  0.029500  0.009600  0.771500  1.0
  H  H855  1  0.301100  0.946800  0.015600  1.0
  H  H856  1  0.015600  0.301100  0.946800  1.0
  H  H857  1  0.946800  0.015600  0.301100  1.0
  H  H858  1  0.698900  0.053200  0.984400  1.0
  H  H859  1  0.984400  0.698900  0.053200  1.0
  H  H860  1  0.053200  0.984400  0.698900  1.0
  H  H861  1  0.508600  0.780200  0.073700  1.0
  H  H862  1  0.073700  0.508600  0.780200  1.0
  H  H863  1  0.780200  0.073700  0.508600  1.0
  H  H864  1  0.491400  0.219800  0.926300  1.0
  H  H865  1  0.926300  0.491400  0.219800  1.0
  H  H866  1  0.219800  0.926300  0.491400  1.0
  H  H867  1  0.526000  0.771300  0.120400  1.0
  H  H868  1  0.120400  0.526000  0.771300  1.0
  H  H869  1  0.771300  0.120400  0.526000  1.0
  H  H870  1  0.474000  0.228700  0.879600  1.0
  H  H871  1  0.879600  0.474000  0.228700  1.0
  H  H872  1  0.228700  0.879600  0.474000  1.0
  H  H873  1  0.528100  0.862300  0.029100  1.0
  H  H874  1  0.029100  0.528100  0.862300  1.0
  H  H875  1  0.862300  0.029100  0.528100  1.0
  H  H876  1  0.471900  0.137700  0.970900  1.0
  H  H877  1  0.970900  0.471900  0.137700  1.0
  H  H878  1  0.137700  0.970900  0.471900  1.0
  H  H879  1  0.541000  0.857100  0.077500  1.0
  H  H880  1  0.077500  0.541000  0.857100  1.0
  H  H881  1  0.857100  0.077500  0.541000  1.0
  H  H882  1  0.459000  0.142900  0.922500  1.0
  H  H883  1  0.922500  0.459000  0.142900  1.0
  H  H884  1  0.142900  0.922500  0.459000  1.0
  H  H885  1  0.515300  0.950400  0.023100  1.0
  H  H886  1  0.023100  0.515300  0.950400  1.0
  H  H887  1  0.950400  0.023100  0.515300  1.0
  H  H888  1  0.484700  0.049600  0.976900  1.0
  H  H889  1  0.976900  0.484700  0.049600  1.0
  H  H890  1  0.049600  0.976900  0.484700  1.0
  H  H891  1  0.460100  0.980900  0.086800  1.0
  H  H892  1  0.086800  0.460100  0.980900  1.0
  H  H893  1  0.980900  0.086800  0.460100  1.0
  H  H894  1  0.539900  0.019100  0.913200  1.0
  H  H895  1  0.913200  0.539900  0.019100  1.0
  H  H896  1  0.019100  0.913200  0.539900  1.0
  H  H897  1  0.498700  0.924700  0.110400  1.0
  H  H898  1  0.110400  0.498700  0.924700  1.0
  H  H899  1  0.924700  0.110400  0.498700  1.0
  H  H900  1  0.501300  0.075300  0.889600  1.0
  H  H901  1  0.889600  0.501300  0.075300  1.0
  H  H902  1  0.075300  0.889600  0.501300  1.0
  H  H903  1  0.394100  0.932700  0.179100  1.0
  H  H904  1  0.179100  0.394100  0.932700  1.0
  H  H905  1  0.932700  0.179100  0.394100  1.0
  H  H906  1  0.605900  0.067300  0.820900  1.0
  H  H907  1  0.820900  0.605900  0.067300  1.0
  H  H908  1  0.067300  0.820900  0.605900  1.0
  H  H909  1  0.474200  0.843600  0.169500  1.0
  H  H910  1  0.169500  0.474200  0.843600  1.0
  H  H911  1  0.843600  0.169500  0.474200  1.0
  H  H912  1  0.525800  0.156400  0.830500  1.0
  H  H913  1  0.830500  0.525800  0.156400  1.0
  H  H914  1  0.156400  0.830500  0.525800  1.0
  H  H915  1  0.421400  0.833500  0.181700  1.0
  H  H916  1  0.181700  0.421400  0.833500  1.0
  H  H917  1  0.833500  0.181700  0.421400  1.0
  H  H918  1  0.578600  0.166500  0.818300  1.0
  H  H919  1  0.818300  0.578600  0.166500  1.0
  H  H920  1  0.166500  0.818300  0.578600  1.0
  H  H921  1  0.397000  0.849000  0.105400  1.0
  H  H922  1  0.105400  0.397000  0.849000  1.0
  H  H923  1  0.849000  0.105400  0.397000  1.0
  H  H924  1  0.603000  0.151000  0.894600  1.0
  H  H925  1  0.894600  0.603000  0.151000  1.0
  H  H926  1  0.151000  0.894600  0.603000  1.0
  H  H927  1  0.438600  0.855600  0.047300  1.0
  H  H928  1  0.047300  0.438600  0.855600  1.0
  H  H929  1  0.855600  0.047300  0.438600  1.0
  H  H930  1  0.561400  0.144400  0.952700  1.0
  H  H931  1  0.952700  0.561400  0.144400  1.0
  H  H932  1  0.144400  0.952700  0.561400  1.0
  H  H933  1  0.457300  0.950400  0.996200  1.0
  H  H934  1  0.996200  0.457300  0.950400  1.0
  H  H935  1  0.950400  0.996200  0.457300  1.0
  H  H936  1  0.542700  0.049600  0.003800  1.0
  H  H937  1  0.003800  0.542700  0.049600  1.0
  H  H938  1  0.049600  0.003800  0.542700  1.0
  H  H939  1  0.426400  0.990100  0.029700  1.0
  H  H940  1  0.029700  0.426400  0.990100  1.0
  H  H941  1  0.990100  0.029700  0.426400  1.0
  H  H942  1  0.573600  0.009900  0.970300  1.0
  H  H943  1  0.970300  0.573600  0.009900  1.0
  H  H944  1  0.009900  0.970300  0.573600  1.0
  H  H945  1  0.361900  0.976400  0.108500  1.0
  H  H946  1  0.108500  0.361900  0.976400  1.0
  H  H947  1  0.976400  0.108500  0.361900  1.0
  H  H948  1  0.638100  0.023600  0.891500  1.0
  H  H949  1  0.891500  0.638100  0.023600  1.0
  H  H950  1  0.023600  0.891500  0.638100  1.0
  H  H951  1  0.349200  0.922200  0.140300  1.0
  H  H952  1  0.140300  0.349200  0.922200  1.0
  H  H953  1  0.922200  0.140300  0.349200  1.0
  H  H954  1  0.650800  0.077800  0.859700  1.0
  H  H955  1  0.859700  0.650800  0.077800  1.0
  H  H956  1  0.077800  0.859700  0.650800  1.0
  H  H957  1  0.370700  0.940900  0.047000  1.0
  H  H958  1  0.047000  0.370700  0.940900  1.0
  H  H959  1  0.940900  0.047000  0.370700  1.0
  H  H960  1  0.629300  0.059100  0.953000  1.0
  H  H961  1  0.953000  0.629300  0.059100  1.0
  H  H962  1  0.059100  0.953000  0.629300  1.0
  H  H963  1  0.461900  0.730900  0.222200  1.0
  H  H964  1  0.222200  0.461900  0.730900  1.0
  H  H965  1  0.730900  0.222200  0.461900  1.0
  H  H966  1  0.538100  0.269100  0.777800  1.0
  H  H967  1  0.777800  0.538100  0.269100  1.0
  H  H968  1  0.269100  0.777800  0.538100  1.0
  H  H969  1  0.402000  0.670700  0.320400  1.0
  H  H970  1  0.320400  0.402000  0.670700  1.0
  H  H971  1  0.670700  0.320400  0.402000  1.0
  H  H972  1  0.598000  0.329300  0.679600  1.0
  H  H973  1  0.679600  0.598000  0.329300  1.0
  H  H974  1  0.329300  0.679600  0.598000  1.0
  H  H975  1  0.352700  0.612900  0.391200  1.0
  H  H976  1  0.391200  0.352700  0.612900  1.0
  H  H977  1  0.612900  0.391200  0.352700  1.0
  H  H978  1  0.647300  0.387100  0.608800  1.0
  H  H979  1  0.608800  0.647300  0.387100  1.0
  H  H980  1  0.387100  0.608800  0.647300  1.0
  H  H981  1  0.310700  0.605400  0.286500  1.0
  H  H982  1  0.286500  0.310700  0.605400  1.0
  H  H983  1  0.605400  0.286500  0.310700  1.0
  H  H984  1  0.689300  0.394600  0.713500  1.0
  H  H985  1  0.713500  0.689300  0.394600  1.0
  H  H986  1  0.394600  0.713500  0.689300  1.0
  H  H987  1  0.331700  0.536600  0.442900  1.0
  H  H988  1  0.442900  0.331700  0.536600  1.0
  H  H989  1  0.536600  0.442900  0.331700  1.0
  H  H990  1  0.668300  0.463400  0.557100  1.0
  H  H991  1  0.557100  0.668300  0.463400  1.0
  H  H992  1  0.463400  0.557100  0.668300  1.0
  H  H993  1  0.271300  0.494800  0.513900  1.0
  H  H994  1  0.513900  0.271300  0.494800  1.0
  H  H995  1  0.494800  0.513900  0.271300  1.0
  H  H996  1  0.728700  0.505200  0.486100  1.0
  H  H997  1  0.486100  0.728700  0.505200  1.0
  H  H998  1  0.505200  0.486100  0.728700  1.0
  H  H999  1  0.180100  0.548900  0.425600  1.0
  H  H1000  1  0.425600  0.180100  0.548900  1.0
  H  H1001  1  0.548900  0.425600  0.180100  1.0
  H  H1002  1  0.819900  0.451100  0.574400  1.0
  H  H1003  1  0.574400  0.819900  0.451100  1.0
  H  H1004  1  0.451100  0.574400  0.819900  1.0
  H  H1005  1  0.241600  0.589800  0.352600  1.0
  H  H1006  1  0.352600  0.241600  0.589800  1.0
  H  H1007  1  0.589800  0.352600  0.241600  1.0
  H  H1008  1  0.758400  0.410200  0.647400  1.0
  H  H1009  1  0.647400  0.758400  0.410200  1.0
  H  H1010  1  0.410200  0.647400  0.758400  1.0
  H  H1011  1  0.230300  0.436200  0.564000  1.0
  H  H1012  1  0.564000  0.230300  0.436200  1.0
  H  H1013  1  0.436200  0.564000  0.230300  1.0
  H  H1014  1  0.769700  0.563800  0.436000  1.0
  H  H1015  1  0.436000  0.769700  0.563800  1.0
  H  H1016  1  0.563800  0.436000  0.769700  1.0
  H  H1017  1  0.112500  0.542400  0.502700  1.0
  H  H1018  1  0.502700  0.112500  0.542400  1.0
  H  H1019  1  0.542400  0.502700  0.112500  1.0
  H  H1020  1  0.887500  0.457600  0.497300  1.0
  H  H1021  1  0.497300  0.887500  0.457600  1.0
  H  H1022  1  0.457600  0.497300  0.887500  1.0
  H  H1023  1  0.052600  0.504300  0.577300  1.0
  H  H1024  1  0.577300  0.052600  0.504300  1.0
  H  H1025  1  0.504300  0.577300  0.052600  1.0
  H  H1026  1  0.947400  0.495700  0.422700  1.0
  H  H1027  1  0.422700  0.947400  0.495700  1.0
  H  H1028  1  0.495700  0.422700  0.947400  1.0
  H  H1029  1  0.992700  0.445800  0.674700  1.0
  H  H1030  1  0.674700  0.992700  0.445800  1.0
  H  H1031  1  0.445800  0.674700  0.992700  1.0
  H  H1032  1  0.007300  0.554200  0.325300  1.0
  H  H1033  1  0.325300  0.007300  0.554200  1.0
  H  H1034  1  0.554200  0.325300  0.007300  1.0
  H  H1035  1  0.982400  0.331100  0.799100  1.0
  H  H1036  1  0.799100  0.982400  0.331100  1.0
  H  H1037  1  0.331100  0.799100  0.982400  1.0
  H  H1038  1  0.017600  0.668900  0.200900  1.0
  H  H1039  1  0.200900  0.017600  0.668900  1.0
  H  H1040  1  0.668900  0.200900  0.017600  1.0
  H  H1041  1  0.948000  0.371500  0.760400  1.0
  H  H1042  1  0.760400  0.948000  0.371500  1.0
  H  H1043  1  0.371500  0.760400  0.948000  1.0
  H  H1044  1  0.052000  0.628500  0.239600  1.0
  H  H1045  1  0.239600  0.052000  0.628500  1.0
  H  H1046  1  0.628500  0.239600  0.052000  1.0
  H  H1047  1  0.989700  0.359700  0.860700  1.0
  H  H1048  1  0.860700  0.989700  0.359700  1.0
  H  H1049  1  0.359700  0.860700  0.989700  1.0
  H  H1050  1  0.010300  0.640300  0.139300  1.0
  H  H1051  1  0.139300  0.010300  0.640300  1.0
  H  H1052  1  0.640300  0.139300  0.010300  1.0
  H  H1053  1  0.001200  0.413300  0.816600  1.0
  H  H1054  1  0.816600  0.001200  0.413300  1.0
  H  H1055  1  0.413300  0.816600  0.001200  1.0
  H  H1056  1  0.998800  0.586700  0.183400  1.0
  H  H1057  1  0.183400  0.998800  0.586700  1.0
  H  H1058  1  0.586700  0.183400  0.998800  1.0
  H  H1059  1  0.958200  0.424300  0.903200  1.0
  H  H1060  1  0.903200  0.958200  0.424300  1.0
  H  H1061  1  0.424300  0.903200  0.958200  1.0
  H  H1062  1  0.041800  0.575700  0.096800  1.0
  H  H1063  1  0.096800  0.041800  0.575700  1.0
  H  H1064  1  0.575700  0.096800  0.041800  1.0
  H  H1065  1  0.908500  0.363700  0.943600  1.0
  H  H1066  1  0.943600  0.908500  0.363700  1.0
  H  H1067  1  0.363700  0.943600  0.908500  1.0
  H  H1068  1  0.091500  0.636300  0.056400  1.0
  H  H1069  1  0.056400  0.091500  0.636300  1.0
  H  H1070  1  0.636300  0.056400  0.091500  1.0
  H  H1071  1  0.869800  0.419300  0.953400  1.0
  H  H1072  1  0.953400  0.869800  0.419300  1.0
  H  H1073  1  0.419300  0.953400  0.869800  1.0
  H  H1074  1  0.130200  0.580700  0.046600  1.0
  H  H1075  1  0.046600  0.130200  0.580700  1.0
  H  H1076  1  0.580700  0.046600  0.130200  1.0
  H  H1077  1  0.829000  0.390700  0.923800  1.0
  H  H1078  1  0.923800  0.829000  0.390700  1.0
  H  H1079  1  0.390700  0.923800  0.829000  1.0
  H  H1080  1  0.171000  0.609300  0.076200  1.0
  H  H1081  1  0.076200  0.171000  0.609300  1.0
  H  H1082  1  0.609300  0.076200  0.171000  1.0
  H  H1083  1  0.870400  0.380500  0.838000  1.0
  H  H1084  1  0.838000  0.870400  0.380500  1.0
  H  H1085  1  0.380500  0.838000  0.870400  1.0
  H  H1086  1  0.129600  0.619500  0.162000  1.0
  H  H1087  1  0.162000  0.129600  0.619500  1.0
  H  H1088  1  0.619500  0.162000  0.129600  1.0
  H  H1089  1  0.907900  0.339700  0.874000  1.0
  H  H1090  1  0.874000  0.907900  0.339700  1.0
  H  H1091  1  0.339700  0.874000  0.907900  1.0
  H  H1092  1  0.092100  0.660300  0.126000  1.0
  H  H1093  1  0.126000  0.092100  0.660300  1.0
  H  H1094  1  0.660300  0.126000  0.092100  1.0
  H  H1095  1  0.892600  0.462200  0.768900  1.0
  H  H1096  1  0.768900  0.892600  0.462200  1.0
  H  H1097  1  0.462200  0.768900  0.892600  1.0
  H  H1098  1  0.107400  0.537800  0.231100  1.0
  H  H1099  1  0.231100  0.107400  0.537800  1.0
  H  H1100  1  0.537800  0.231100  0.107400  1.0
  H  H1101  1  0.944100  0.472900  0.759200  1.0
  H  H1102  1  0.759200  0.944100  0.472900  1.0
  H  H1103  1  0.472900  0.759200  0.944100  1.0
  H  H1104  1  0.055900  0.527100  0.240800  1.0
  H  H1105  1  0.240800  0.055900  0.527100  1.0
  H  H1106  1  0.527100  0.240800  0.055900  1.0
  H  H1107  1  0.942400  0.499200  0.833300  1.0
  H  H1108  1  0.833300  0.942400  0.499200  1.0
  H  H1109  1  0.499200  0.833300  0.942400  1.0
  H  H1110  1  0.057600  0.500800  0.166700  1.0
  H  H1111  1  0.166700  0.057600  0.500800  1.0
  H  H1112  1  0.500800  0.166700  0.057600  1.0
  H  H1113  1  0.891400  0.502300  0.884800  1.0
  H  H1114  1  0.884800  0.891400  0.502300  1.0
  H  H1115  1  0.502300  0.884800  0.891400  1.0
  H  H1116  1  0.108600  0.497700  0.115200  1.0
  H  H1117  1  0.115200  0.108600  0.497700  1.0
  H  H1118  1  0.497700  0.115200  0.108600  1.0
  H  H1119  1  0.811100  0.484500  0.899200  1.0
  H  H1120  1  0.899200  0.811100  0.484500  1.0
  H  H1121  1  0.484500  0.899200  0.811100  1.0
  H  H1122  1  0.188900  0.515500  0.100800  1.0
  H  H1123  1  0.100800  0.188900  0.515500  1.0
  H  H1124  1  0.515500  0.100800  0.188900  1.0
  H  H1125  1  0.808800  0.472300  0.854000  1.0
  H  H1126  1  0.854000  0.808800  0.472300  1.0
  H  H1127  1  0.472300  0.854000  0.808800  1.0
  H  H1128  1  0.191200  0.527700  0.146000  1.0
  H  H1129  1  0.146000  0.191200  0.527700  1.0
  H  H1130  1  0.527700  0.146000  0.191200  1.0
  H  H1131  1  0.865300  0.531800  0.809100  1.0
  H  H1132  1  0.809100  0.865300  0.531800  1.0
  H  H1133  1  0.531800  0.809100  0.865300  1.0
  H  H1134  1  0.134700  0.468200  0.190900  1.0
  H  H1135  1  0.190900  0.134700  0.468200  1.0
  H  H1136  1  0.468200  0.190900  0.134700  1.0
  N  N1137  1  0.297870  0.218470  0.195070  1.0
  N  N1138  1  0.195070  0.297870  0.218470  1.0
  N  N1139  1  0.218470  0.195070  0.297870  1.0
  N  N1140  1  0.702130  0.781530  0.804930  1.0
  N  N1141  1  0.804930  0.702130  0.781530  1.0
  N  N1142  1  0.781530  0.804930  0.702130  1.0
  N  N1143  1  0.300500  0.178300  0.185300  1.0
  N  N1144  1  0.185300  0.300500  0.178300  1.0
  N  N1145  1  0.178300  0.185300  0.300500  1.0
  N  N1146  1  0.699500  0.821700  0.814700  1.0
  N  N1147  1  0.814700  0.699500  0.821700  1.0
  N  N1148  1  0.821700  0.814700  0.699500  1.0
  N  N1149  1  0.337900  0.177300  0.138400  1.0
  N  N1150  1  0.138400  0.337900  0.177300  1.0
  N  N1151  1  0.177300  0.138400  0.337900  1.0
  N  N1152  1  0.662100  0.822700  0.861600  1.0
  N  N1153  1  0.861600  0.662100  0.822700  1.0
  N  N1154  1  0.822700  0.861600  0.662100  1.0
  N  N1155  1  0.297650  0.301350  0.202050  1.0
  N  N1156  1  0.202050  0.297650  0.301350  1.0
  N  N1157  1  0.301350  0.202050  0.297650  1.0
  N  N1158  1  0.702350  0.698650  0.797950  1.0
  N  N1159  1  0.797950  0.702350  0.698650  1.0
  N  N1160  1  0.698650  0.797950  0.702350  1.0
  N  N1161  1  0.303190  0.735290  0.185990  1.0
  N  N1162  1  0.185990  0.303190  0.735290  1.0
  N  N1163  1  0.735290  0.185990  0.303190  1.0
  N  N1164  1  0.696810  0.264710  0.814010  1.0
  N  N1165  1  0.814010  0.696810  0.264710  1.0
  N  N1166  1  0.264710  0.814010  0.696810  1.0
  N  N1167  1  0.297060  0.783460  0.183160  1.0
  N  N1168  1  0.183160  0.297060  0.783460  1.0
  N  N1169  1  0.783460  0.183160  0.297060  1.0
  N  N1170  1  0.702940  0.216540  0.816840  1.0
  N  N1171  1  0.816840  0.702940  0.216540  1.0
  N  N1172  1  0.216540  0.816840  0.702940  1.0
  N  N1173  1  0.243340  0.808740  0.192640  1.0
  N  N1174  1  0.192640  0.243340  0.808740  1.0
  N  N1175  1  0.808740  0.192640  0.243340  1.0
  N  N1176  1  0.756660  0.191260  0.807360  1.0
  N  N1177  1  0.807360  0.756660  0.191260  1.0
  N  N1178  1  0.191260  0.807360  0.756660  1.0
  N  N1179  1  0.310310  0.644610  0.189810  1.0
  N  N1180  1  0.189810  0.310310  0.644610  1.0
  N  N1181  1  0.644610  0.189810  0.310310  1.0
  N  N1182  1  0.689690  0.355390  0.810190  1.0
  N  N1183  1  0.810190  0.689690  0.355390  1.0
  N  N1184  1  0.355390  0.810190  0.689690  1.0
  N  N1185  1  0.410630  0.707330  0.168130  1.0
  N  N1186  1  0.168130  0.410630  0.707330  1.0
  N  N1187  1  0.707330  0.168130  0.410630  1.0
  N  N1188  1  0.589370  0.292670  0.831870  1.0
  N  N1189  1  0.831870  0.589370  0.292670  1.0
  N  N1190  1  0.292670  0.831870  0.589370  1.0
  N  N1191  1  0.437940  0.738040  0.126640  1.0
  N  N1192  1  0.126640  0.437940  0.738040  1.0
  N  N1193  1  0.738040  0.126640  0.437940  1.0
  N  N1194  1  0.562060  0.261960  0.873360  1.0
  N  N1195  1  0.873360  0.562060  0.261960  1.0
  N  N1196  1  0.261960  0.873360  0.562060  1.0
  N  N1197  1  0.461310  0.750910  0.146110  1.0
  N  N1198  1  0.146110  0.461310  0.750910  1.0
  N  N1199  1  0.750910  0.146110  0.461310  1.0
  N  N1200  1  0.538690  0.249090  0.853890  1.0
  N  N1201  1  0.853890  0.538690  0.249090  1.0
  N  N1202  1  0.249090  0.853890  0.538690  1.0
  N  N1203  1  0.358840  0.649240  0.251040  1.0
  N  N1204  1  0.251040  0.358840  0.649240  1.0
  N  N1205  1  0.649240  0.251040  0.358840  1.0
  N  N1206  1  0.641160  0.350760  0.748960  1.0
  N  N1207  1  0.748960  0.641160  0.350760  1.0
  N  N1208  1  0.350760  0.748960  0.641160  1.0
  N  N1209  1  0.100450  0.377950  0.698250  1.0
  N  N1210  1  0.698250  0.100450  0.377950  1.0
  N  N1211  1  0.377950  0.698250  0.100450  1.0
  N  N1212  1  0.899550  0.622050  0.301750  1.0
  N  N1213  1  0.301750  0.899550  0.622050  1.0
  N  N1214  1  0.622050  0.301750  0.899550  1.0
  N  N1215  1  0.067440  0.354140  0.742140  1.0
  N  N1216  1  0.742140  0.067440  0.354140  1.0
  N  N1217  1  0.354140  0.742140  0.067440  1.0
  N  N1218  1  0.932560  0.645860  0.257860  1.0
  N  N1219  1  0.257860  0.932560  0.645860  1.0
  N  N1220  1  0.645860  0.257860  0.932560  1.0
  N  N1221  1  0.018800  0.382600  0.735200  1.0
  N  N1222  1  0.735200  0.018800  0.382600  1.0
  N  N1223  1  0.382600  0.735200  0.018800  1.0
  N  N1224  1  0.981200  0.617400  0.264800  1.0
  N  N1225  1  0.264800  0.981200  0.617400  1.0
  N  N1226  1  0.617400  0.264800  0.981200  1.0
  N  N1227  1  0.158930  0.427130  0.610930  1.0
  N  N1228  1  0.610930  0.158930  0.427130  1.0
  N  N1229  1  0.427130  0.610930  0.158930  1.0
  N  N1230  1  0.841070  0.572870  0.389070  1.0
  N  N1231  1  0.389070  0.841070  0.572870  1.0
  N  N1232  1  0.572870  0.389070  0.841070  1.0
  P  P1233  1  0.585370  0.674470  0.029070  1
  P  P1234  1  0.029070  0.585370  0.674470  1
  P  P1235  1  0.674470  0.029070  0.585370  1
  P  P1236  1  0.414630  0.325530  0.970930  1
  P  P1237  1  0.970930  0.414630  0.325530  1
  P  P1238  1  0.325530  0.970930  0.414630  1
  P  P1239  1  0.471110  0.640610  0.882410  1
  P  P1240  1  0.882410  0.471110  0.640610  1
  P  P1241  1  0.640610  0.882410  0.471110  1
  P  P1242  1  0.528890  0.359390  0.117590  1
  P  P1243  1  0.117590  0.528890  0.359390  1
  P  P1244  1  0.359390  0.117590  0.528890  1
