
#######################################################################
#
#                 Cambridge Crystallographic Data Centre
#                                CCDC 
#
#######################################################################
#
# If this CIF has been generated from an entry in the Cambridge 
# Structural Database, then it will include bibliographic, chemical, 
# crystal, experimental, refinement or atomic coordinate data resulting 
# from the CCDC's data processing and validation procedures.
#
#######################################################################

data_RUSYUB
_chemical_formula_moiety         
'C42 H56 N8 O4 Pd2 4+,4.5(C4 H8 O2),4(F6 P1 1-)'
_chemical_name_systematic        
"(1,4-phenylenebis(methylene) diisonicotinate)-(4,4'-bipyridine)-bis(N,N,N',N'-tetramethylethane-1,2-diamine)-di-palladium(ii) tetrakis(hexafluorophosphate) 1,4-dioxane solvate"
_symmetry_cell_setting           triclinic
_symmetry_space_group_name_H-M   'P -1'
_symmetry_Int_Tables_number      2
_space_group_name_Hall           '-P 1'
loop_
_symmetry_equiv_pos_site_id
_symmetry_equiv_pos_as_xyz
1 x,y,z
2 -x,-y,-z
_cell_length_a                   11.7483(5)
_cell_length_b                   18.5609(8)
_cell_length_c                   20.8282(12)
_cell_angle_alpha                63.750(2)
_cell_angle_beta                 78.304(3)
_cell_angle_gamma                83.860(2)
_cell_volume                     3988.05
_exptl_crystal_colour            white
_exptl_crystal_description       plate
_cell_formula_units_Z            2
_chemical_properties_physical    Air-sensitive
_exptl_crystal_recrystallization_method 
'dioxane into acetonitrile/water solution'
loop_
_atom_site_label
_atom_site_type_symbol
_atom_site_fract_x
_atom_site_fract_y
_atom_site_fract_z
Pd1 Pd 0.69110(3) 1.26366(2) 0.13240(2)
Pd2 Pd 0.73989(4) 0.60737(2) 0.30115(2)
O1 O 0.1559(4) 1.1082(3) 0.3252(2)
O2 O 0.1251(4) 1.1268(3) 0.2160(2)
O3 O 0.1817(4) 0.7028(3) 0.4299(2)
O4 O 0.1555(4) 0.7338(3) 0.3171(3)
C1 C 0.4789(5) 1.2050(3) 0.2403(3)
H1 H 0.5258 1.2079 0.2713
C2 C 0.3717(5) 1.1727(3) 0.2700(3)
H2 H 0.3442 1.1536 0.3208
C3 C 0.3452(5) 1.1976(4) 0.1515(3)
H3 H 0.2993 1.1954 0.1197
C4 C 0.4539(5) 1.2302(3) 0.1247(3)
H4 H 0.4823 1.2514 0.0739
C5 C 0.3033(5) 1.1680(3) 0.2253(3)
C6 C 0.1856(5) 1.1319(4) 0.2537(3)
C7 C 0.0419(6) 1.0730(4) 0.3591(4)
H5 H -0.0131 1.0994 0.3247
H6 H 0.0129 1.0827 0.4028
C8 C 0.0464(5) 0.9853(4) 0.3804(3)
C9 C 0.0802(5) 0.9312(5) 0.4456(3)
H7 H 0.1010 0.9512 0.4765
C10 C 0.0841(5) 0.8502(4) 0.4665(3)
H8 H 0.1066 0.8152 0.5117
C11 C 0.0563(5) 0.8180(4) 0.4233(3)
C12 C 0.0238(5) 0.8717(4) 0.3570(3)
H9 H 0.0054 0.8516 0.3256
C13 C 0.0180(5) 0.9533(5) 0.3366(3)
H10 H -0.0059 0.9884 0.2918
C14 C 0.0624(6) 0.7301(4) 0.4462(4)
H11 H 0.0334 0.7020 0.4991
H12 H 0.0118 0.7163 0.4208
C15 C 0.2155(5) 0.7105(4) 0.3620(3)
C16 C 0.3401(5) 0.6838(3) 0.3495(3)
C17 C 0.4142(5) 0.6648(3) 0.3991(3)
H13 H 0.3871 0.6689 0.4436
C18 C 0.5256(5) 0.6404(3) 0.3842(3)
H14 H 0.5749 0.6264 0.4190
C19 C 0.4967(5) 0.6545(3) 0.2722(3)
H15 H 0.5262 0.6515 0.2274
C20 C 0.3836(5) 0.6782(4) 0.2853(3)
H16 H 0.3351 0.6906 0.2503
C21 C 0.7717(5) 0.7577(3) 0.3106(3)
H17 H 0.7791 0.7223 0.3593
C22 C 0.7683(5) 0.8385(3) 0.2902(3)
H18 H 0.7733 0.8581 0.3247
C23 C 0.7576(4) 0.8924(3) 0.2198(3)
C24 C 0.7537(5) 0.8600(3) 0.1717(3)
H19 H 0.7485 0.8943 0.1224
C25 C 0.7574(5) 0.7773(3) 0.1959(3)
H20 H 0.7545 0.7559 0.1624
C26 C 0.7483(4) 0.9804(3) 0.1977(3)
C27 C 0.7384(5) 1.0352(3) 0.1271(3)
H21 H 0.7408 1.0167 0.0910
C28 C 0.7251(5) 1.1154(3) 0.1093(3)
H22 H 0.7168 1.1514 0.0609
C29 C 0.7338(5) 1.0932(3) 0.2255(3)
H23 H 0.7334 1.1134 0.2602
C30 C 0.7452(5) 1.0114(3) 0.2471(3)
H24 H 0.7509 0.9764 0.2962
C31 C 0.8667(8) 1.3799(5) 0.0695(7)
H25 H 0.9299 1.3928 0.0875
H26 H 0.8893 1.4016 0.0160
C32 C 0.7762(10) 1.4186(6) 0.0827(9)
H27 H 0.7726 1.4689 0.0379
H28 H 0.7893 1.4344 0.1202
C33 C 0.9302(6) 1.2553(5) 0.1577(4)
H29 H 1.0108 1.2731 0.1399
H30 H 0.9287 1.1967 0.1763
H31 H 0.8954 1.2708 0.1968
C34 C 0.9205(6) 1.2672(6) 0.0402(4)
H32 H 0.8759 1.2893 0.0004
H33 H 0.9225 1.2084 0.0606
H34 H 1.0001 1.2872 0.0218
C35 C 0.5959(10) 1.3976(4) 0.1686(4)
H35 H 0.6429 1.3784 0.2071
H36 H 0.5228 1.3684 0.1872
H37 H 0.5791 1.4552 0.1528
C36 C 0.5911(8) 1.4215(4) 0.0495(4)
H38 H 0.5866 1.4796 0.0345
H39 H 0.5126 1.3997 0.0675
H40 H 0.6274 1.4107 0.0078
C37 C 0.9211(6) 0.4890(4) 0.3268(4)
H41 H 0.9971 0.4688 0.3098
H42 H 0.9146 0.4737 0.3793
C38 C 0.8264(7) 0.4525(4) 0.3151(4)
H43 H 0.8277 0.3936 0.3448
H44 H 0.8374 0.4629 0.2633
C39 C 0.9603(6) 0.6044(4) 0.2077(3)
H45 H 1.0394 0.5826 0.2014
H46 H 0.9616 0.6632 0.1829
H47 H 0.9102 0.5846 0.1868
C40 C 0.9859(6) 0.6135(4) 0.3160(4)
H48 H 1.0661 0.5932 0.3115
H49 H 0.9539 0.5986 0.3674
H50 H 0.9846 0.6722 0.2889
C41 C 0.6711(7) 0.4469(4) 0.4153(3)
H51 H 0.6621 0.3894 0.4305
H52 H 0.5961 0.4706 0.4276
H53 H 0.7280 0.4540 0.4405
C42 C 0.6225(7) 0.4734(4) 0.3011(4)
H54 H 0.6452 0.5003 0.2481
H55 H 0.5473 0.4952 0.3157
H56 H 0.6163 0.4156 0.3168
N1 N 0.7232(4) 1.1452(2) 0.1576(2)
N2 N 0.5211(4) 1.2330(3) 0.1686(2)
N3 N 0.8643(4) 1.2928(3) 0.0982(3)
N4 N 0.6602(5) 1.3837(3) 0.1068(3)
N5 N 0.7649(4) 0.7267(2) 0.2647(2)
N6 N 0.5674(4) 0.6355(2) 0.3211(2)
N7 N 0.7122(4) 0.4872(2) 0.3358(2)
N8 N 0.9145(4) 0.5781(3) 0.2862(2)
P1 P 0.30102(16) 0.67954(13) 0.10512(8)
F1 F 0.1966(5) 0.7430(3) 0.0863(3)
F2 F 0.3523(4) 0.7170(3) 0.02082(19)
F3 F 0.2246(4) 0.6202(2) 0.0940(2)
F4 F 0.2259(10) 0.6632(8) 0.1830(5)
F5 F 0.3495(11) 0.7530(7) 0.1133(8)
F6 F 0.4017(10) 0.6272(8) 0.1339(6)
P2 P 0.74182(14) 0.66366(9) 0.05229(8)
F7 F 0.6533(4) 0.7357(3) 0.0248(2)
F8 F 0.8061(4) 0.6890(3) -0.0297(2)
F9 F 0.6582(4) 0.6091(3) 0.0436(3)
F10 F 0.8349(4) 0.5927(3) 0.0764(3)
F11 F 0.6817(4) 0.6398(3) 0.1334(2)
F12 F 0.8279(4) 0.7178(3) 0.0613(2)
P3 P 0.25054(18) 0.44017(10) 0.45332(9)
F13 F 0.1841(7) 0.5167(4) 0.4445(6)
F14 F 0.2799(10) 0.4822(7) 0.3710(4)
F15 F 0.1433(7) 0.4047(5) 0.4485(5)
F16 F 0.3318(9) 0.3736(5) 0.4508(7)
F17 F 0.2265(7) 0.4069(6) 0.5351(3)
F18 F 0.3640(5) 0.4796(3) 0.4540(3)
P4 P 0.29218(15) 0.79332(9) 0.62305(8)
F19 F 0.3167(7) 0.8499(4) 0.5422(3)
F20 F 0.3942(5) 0.8450(4) 0.6221(3)
F21 F 0.4043(7) 0.7369(5) 0.6368(5)
F22 F 0.2720(10) 0.7684(8) 0.7067(4)
F23 F 0.1970(9) 0.8572(7) 0.6090(6)
F24 F 0.1780(8) 0.7553(5) 0.6271(4)
O5 O 0.4576(8) 0.0192(5) 0.9373(4)
C43 C 0.4712(14) -0.0597(8) 0.9869(7)
H57 H 0.3929 -0.0805 1.0130
H58 H 0.5034 -0.0910 0.9591
C44 C 0.4613(14) 0.0754(8) 0.9626(8)
H59 H 0.4877 0.1263 0.9204
H60 H 0.3808 0.0850 0.9834
O5A O 0.5424(8) -0.0192(5) 1.0627(4)
C43A C 0.5288(14) 0.0597(8) 1.0131(7)
H57A H 0.6071 0.0805 0.9870
H58A H 0.4966 0.0910 1.0409
C44A C 0.5387(14) -0.0754(8) 1.0374(8)
H59A H 0.5123 -0.1263 1.0796
H60A H 0.6192 -0.0850 1.0166
O6 O 0.6601(8) 0.1448(6) 0.6752(5)
O7 O 0.6694(8) 0.0101(5) 0.7157(5)
C45 C 0.615(2) 0.1066(19) 0.7520(18)
H61 H 0.6697 0.1161 0.7781
H62 H 0.5400 0.1326 0.7616
C46 C 0.607(3) 0.0169(19) 0.7726(18)
H63 H 0.6489 -0.0080 0.8141
H64 H 0.5326 -0.0117 0.7866
C47 C 0.589(5) 0.127(3) 0.634(3)
H65 H 0.5081 0.1467 0.6436
H66 H 0.6192 0.1560 0.5817
C48 C 0.587(3) 0.048(2) 0.6526(17)
H67 H 0.6667 0.0274 0.6424
H68 H 0.5384 0.0382 0.6234
O8 O 0.3169(14) 0.1334(11) 0.4369(9)
O9 O 0.3488(10) 0.1046(10) 0.5746(9)
C49 C 0.3183(18) 0.2026(11) 0.4586(9)
H69 H 0.3965 0.2264 0.4398
H70 H 0.2620 0.2447 0.4343
C50 C 0.3611(9) 0.1807(6) 0.5184(5)
H71 H 0.4378 0.1712 0.4929
H72 H 0.3662 0.2225 0.5350
C51 C 0.3609(13) 0.0479(8) 0.5455(7)
H73 H 0.3614 -0.0093 0.5811
H74 H 0.4397 0.0643 0.5169
C52 C 0.2563(12) 0.0714(8) 0.4931(8)
H75 H 0.2596 0.0329 0.4717
H76 H 0.1782 0.0691 0.5228
O10 O 0.0229(9) 0.9485(7) 0.1686(6)
O11 O 0.1418(13) 0.9989(11) 0.0230(9)
C53 C 0.0716(19) 0.8933(16) 0.1419(14)
H77 H 0.1496 0.8768 0.1553
H78 H 0.0229 0.8449 0.1658
C54 C 0.0849(15) 1.0531(9) 0.0483(8)
H79 H 0.0030 1.0597 0.0412
H80 H 0.1221 1.1061 0.0199
C55 C 0.089(2) 1.0236(16) 0.1317(13)
H81 H 0.1700 1.0135 0.1405
H82 H 0.0520 1.0639 0.1488
C56 C 0.155(2) 0.9231(13) 0.0773(12)
H83 H 0.1008 0.9064 0.0557
H84 H 0.2274 0.8910 0.0759
O12 O 0.0410(8) 0.3949(5) 0.2150(5)
O13 O 0.2750(11) 0.3557(8) 0.2286(9)
C57 C 0.0795(12) 0.3187(8) 0.2663(7)
H85 H 0.0181 0.2979 0.3100
H86 H 0.0899 0.2802 0.2444
C58 C 0.1862(19) 0.3222(10) 0.2882(10)
H87 H 0.1735 0.3548 0.3161
H88 H 0.2101 0.2673 0.3206
C59 C 0.1346(14) 0.4303(10) 0.1550(8)
H89 H 0.1107 0.4849 0.1219
H90 H 0.1520 0.3975 0.1274
C60 C 0.2411(15) 0.4353(10) 0.1815(11)
H91 H 0.3047 0.4599 0.1397
H92 H 0.2250 0.4692 0.2081
loop_
_geom_bond_atom_site_label_1
_geom_bond_atom_site_label_2
_geom_bond_site_symmetry_1
_geom_bond_site_symmetry_2
Pd1 N1 1_555 1_555
Pd2 N5 1_555 1_555
O1 C6 1_555 1_555
O2 C6 1_555 1_555
O3 C14 1_555 1_555
O4 C15 1_555 1_555
C1 H1 1_555 1_555
C2 C1 1_555 1_555
H2 C2 1_555 1_555
C3 H3 1_555 1_555
C4 C3 1_555 1_555
H4 C4 1_555 1_555
C5 C2 1_555 1_555
C6 C5 1_555 1_555
C7 O1 1_555 1_555
H5 C7 1_555 1_555
H6 C7 1_555 1_555
C8 C7 1_555 1_555
C9 C8 1_555 1_555
H7 C9 1_555 1_555
C10 C9 1_555 1_555
H8 C10 1_555 1_555
C11 C10 1_555 1_555
C12 C11 1_555 1_555
H9 C12 1_555 1_555
C13 C8 1_555 1_555
H10 C13 1_555 1_555
C14 C11 1_555 1_555
H11 C14 1_555 1_555
H12 C14 1_555 1_555
C15 O3 1_555 1_555
C16 C15 1_555 1_555
C17 C16 1_555 1_555
H13 C17 1_555 1_555
C18 C17 1_555 1_555
H14 C18 1_555 1_555
C19 H15 1_555 1_555
C20 C16 1_555 1_555
H16 C20 1_555 1_555
C21 H17 1_555 1_555
C22 C21 1_555 1_555
H18 C22 1_555 1_555
C23 C22 1_555 1_555
C24 C23 1_555 1_555
H19 C24 1_555 1_555
C25 C24 1_555 1_555
H20 C25 1_555 1_555
C26 C23 1_555 1_555
C27 C26 1_555 1_555
H21 C27 1_555 1_555
C28 C27 1_555 1_555
H22 C28 1_555 1_555
C29 H23 1_555 1_555
C30 C26 1_555 1_555
H24 C30 1_555 1_555
C31 H25 1_555 1_555
H26 C31 1_555 1_555
C32 C31 1_555 1_555
H27 C32 1_555 1_555
H28 C32 1_555 1_555
C33 H29 1_555 1_555
H30 C33 1_555 1_555
H31 C33 1_555 1_555
C34 H32 1_555 1_555
H33 C34 1_555 1_555
H34 C34 1_555 1_555
C35 H35 1_555 1_555
H36 C35 1_555 1_555
H37 C35 1_555 1_555
C36 H38 1_555 1_555
H39 C36 1_555 1_555
H40 C36 1_555 1_555
C37 H41 1_555 1_555
H42 C37 1_555 1_555
C38 C37 1_555 1_555
H43 C38 1_555 1_555
H44 C38 1_555 1_555
C39 H45 1_555 1_555
H46 C39 1_555 1_555
H47 C39 1_555 1_555
C40 H48 1_555 1_555
H49 C40 1_555 1_555
H50 C40 1_555 1_555
C41 H51 1_555 1_555
H52 C41 1_555 1_555
H53 C41 1_555 1_555
C42 H54 1_555 1_555
H55 C42 1_555 1_555
H56 C42 1_555 1_555
N1 C28 1_555 1_555
N2 Pd1 1_555 1_555
N3 Pd1 1_555 1_555
N4 Pd1 1_555 1_555
N5 C21 1_555 1_555
N6 Pd2 1_555 1_555
N7 Pd2 1_555 1_555
N8 Pd2 1_555 1_555
P1 F1 1_555 1_555
F2 P1 1_555 1_555
F3 P1 1_555 1_555
F4 P1 1_555 1_555
F5 P1 1_555 1_555
F6 P1 1_555 1_555
P2 F7 1_555 1_555
F8 P2 1_555 1_555
F9 P2 1_555 1_555
F10 P2 1_555 1_555
F11 P2 1_555 1_555
F12 P2 1_555 1_555
P3 F13 1_555 1_555
F14 P3 1_555 1_555
F15 P3 1_555 1_555
F16 P3 1_555 1_555
F17 P3 1_555 1_555
F18 P3 1_555 1_555
P4 F19 1_555 1_555
F20 P4 1_555 1_555
F21 P4 1_555 1_555
F22 P4 1_555 1_555
F23 P4 1_555 1_555
F24 P4 1_555 1_555
O5 C43 1_555 1_555
C43 H57 1_555 1_555
H58 C43 1_555 1_555
C44 O5 1_555 1_555
H59 C44 1_555 1_555
H60 C44 1_555 1_555
O6 C45 1_555 1_555
O7 C46 1_555 1_555
C45 H61 1_555 1_555
H62 C45 1_555 1_555
C46 C45 1_555 1_555
H63 C46 1_555 1_555
H64 C46 1_555 1_555
C47 O6 1_555 1_555
H65 C47 1_555 1_555
H66 C47 1_555 1_555
C48 O7 1_555 1_555
H67 C48 1_555 1_555
H68 C48 1_555 1_555
O8 C49 1_555 1_555
O9 C50 1_555 1_555
C49 H69 1_555 1_555
H70 C49 1_555 1_555
C50 C49 1_555 1_555
H71 C50 1_555 1_555
H72 C50 1_555 1_555
C51 O9 1_555 1_555
H73 C51 1_555 1_555
H74 C51 1_555 1_555
C52 O8 1_555 1_555
H75 C52 1_555 1_555
H76 C52 1_555 1_555
O10 C53 1_555 1_555
O11 C54 1_555 1_555
C53 H77 1_555 1_555
H78 C53 1_555 1_555
C54 H79 1_555 1_555
H80 C54 1_555 1_555
C55 O10 1_555 1_555
H81 C55 1_555 1_555
H82 C55 1_555 1_555
C56 O11 1_555 1_555
H83 C56 1_555 1_555
H84 C56 1_555 1_555
O12 C57 1_555 1_555
O13 C58 1_555 1_555
C57 H85 1_555 1_555
H86 C57 1_555 1_555
C58 C57 1_555 1_555
H87 C58 1_555 1_555
H88 C58 1_555 1_555
C59 O12 1_555 1_555
H89 C59 1_555 1_555
H90 C59 1_555 1_555
C60 O13 1_555 1_555
H91 C60 1_555 1_555
H92 C60 1_555 1_555
O5A C43A 1_555 1_555
C43A C44 1_555 1_555
H57A C43A 1_555 1_555
H58A C43A 1_555 1_555
C44A C43 1_555 1_555
H59A C44A 1_555 1_555
H60A C44A 1_555 1_555
C1 N2 1_555 1_555
C3 C5 1_555 1_555
C4 N2 1_555 1_555
C12 C13 1_555 1_555
C18 N6 1_555 1_555
C19 C20 1_555 1_555
C19 N6 1_555 1_555
C25 N5 1_555 1_555
C29 C30 1_555 1_555
C29 N1 1_555 1_555
C31 N3 1_555 1_555
C32 N4 1_555 1_555
C33 N3 1_555 1_555
C34 N3 1_555 1_555
C35 N4 1_555 1_555
C36 N4 1_555 1_555
C37 N8 1_555 1_555
C38 N7 1_555 1_555
C39 N8 1_555 1_555
C40 N8 1_555 1_555
C41 N7 1_555 1_555
C42 N7 1_555 1_555
C47 C48 1_555 1_555
C51 C52 1_555 1_555
C53 C56 1_555 1_555
C54 C55 1_555 1_555
C59 C60 1_555 1_555
O5A C44A 1_555 1_555

#END
