# generated using pymatgen
data_Na3Mn3H42C54O23
_symmetry_space_group_name_H-M   'P 1'
_cell_length_a   29.93242430
_cell_length_b   29.93242430
_cell_length_c   32.37000000
_cell_angle_alpha   100.21788700
_cell_angle_beta   100.21788700
_cell_angle_gamma   118.46543602
_symmetry_Int_Tables_number   1
_chemical_formula_structural   Na3Mn3H42C54O23
_chemical_formula_sum   'Na24 Mn24 H336 C432 O184'
_cell_volume   23913.68918164
_cell_formula_units_Z   8
loop_
 _symmetry_equiv_pos_site_id
 _symmetry_equiv_pos_as_xyz
  1  'x, y, z'
loop_
 _atom_site_type_symbol
 _atom_site_label
 _atom_site_symmetry_multiplicity
 _atom_site_fract_x
 _atom_site_fract_y
 _atom_site_fract_z
 _atom_site_occupancy
  C  C1  1  0.656180  0.816820  0.247470  1.0
  C  C2  1  0.183180  0.343820  0.252530  1.0
  C  C3  1  0.343820  0.183180  0.752530  1.0
  C  C4  1  0.816820  0.656180  0.747470  1.0
  C  C5  1  0.954050  0.188150  0.779700  1.0
  C  C6  1  0.811850  0.045950  0.720300  1.0
  C  C7  1  0.045950  0.811850  0.220300  1.0
  C  C8  1  0.188150  0.954050  0.279700  1.0
  C  C9  1  0.932660  0.173340  0.851100  1.0
  C  C10  1  0.826660  0.067340  0.648900  1.0
  C  C11  1  0.067340  0.826660  0.148900  1.0
  C  C12  1  0.173340  0.932660  0.351100  1.0
  C  C13  1  0.313570  0.597430  0.804220  1.0
  C  C14  1  0.402570  0.686430  0.695780  1.0
  C  C15  1  0.686430  0.402570  0.195780  1.0
  C  C16  1  0.597430  0.313570  0.304220  1.0
  C  C17  1  0.731190  0.900210  0.214120  1.0
  C  C18  1  0.099790  0.268810  0.285880  1.0
  C  C19  1  0.268810  0.099790  0.785880  1.0
  C  C20  1  0.900210  0.731190  0.714120  1.0
  C  C21  1  0.782130  0.936210  0.213660  1.0
  C  C22  1  0.063790  0.217870  0.286340  1.0
  C  C23  1  0.217870  0.063790  0.786340  1.0
  C  C24  1  0.936210  0.782130  0.713660  1.0
  C  C25  1  0.808940  0.918220  0.191430  1.0
  C  C26  1  0.081780  0.191060  0.308570  1.0
  C  C27  1  0.191060  0.081780  0.808570  1.0
  C  C28  1  0.918220  0.808940  0.691430  1.0
  C  C29  1  0.784800  0.864200  0.169660  1.0
  C  C30  1  0.135800  0.215200  0.330340  1.0
  C  C31  1  0.215200  0.135800  0.830340  1.0
  C  C32  1  0.864200  0.784800  0.669660  1.0
  C  C33  1  0.733930  0.828250  0.170110  1.0
  C  C34  1  0.171750  0.266070  0.329890  1.0
  C  C35  1  0.266070  0.171750  0.829890  1.0
  C  C36  1  0.828250  0.733930  0.670110  1.0
  C  C37  1  0.707110  0.846250  0.192340  1.0
  C  C38  1  0.153750  0.292890  0.307660  1.0
  C  C39  1  0.292890  0.153750  0.807660  1.0
  C  C40  1  0.846250  0.707110  0.692340  1.0
  C  C41  1  0.617040  0.837480  0.184120  1.0
  C  C42  1  0.162520  0.382960  0.315880  1.0
  C  C43  1  0.382960  0.162520  0.815880  1.0
  C  C44  1  0.837480  0.617040  0.684120  1.0
  C  C45  1  0.641580  0.891100  0.207290  1.0
  C  C46  1  0.108900  0.358420  0.292710  1.0
  C  C47  1  0.358420  0.108900  0.792710  1.0
  C  C48  1  0.891100  0.641580  0.707290  1.0
  C  C49  1  0.617990  0.919690  0.197150  1.0
  C  C50  1  0.080310  0.382010  0.302850  1.0
  C  C51  1  0.382010  0.080310  0.802850  1.0
  C  C52  1  0.919690  0.617990  0.697150  1.0
  C  C53  1  0.569900  0.894700  0.163840  1.0
  C  C54  1  0.105300  0.430100  0.336160  1.0
  C  C55  1  0.430100  0.105300  0.836160  1.0
  C  C56  1  0.894700  0.569900  0.663840  1.0
  C  C57  1  0.545330  0.841030  0.140680  1.0
  C  C58  1  0.158970  0.454670  0.359320  1.0
  C  C59  1  0.454670  0.158970  0.859320  1.0
  C  C60  1  0.841030  0.545330  0.640680  1.0
  C  C61  1  0.568920  0.812440  0.150810  1.0
  C  C62  1  0.187560  0.431080  0.349190  1.0
  C  C63  1  0.431080  0.187560  0.849190  1.0
  C  C64  1  0.812440  0.568920  0.650810  1.0
  C  C65  1  0.727010  0.969390  0.262800  1.0
  C  C66  1  0.030610  0.272990  0.237200  1.0
  C  C67  1  0.272990  0.030610  0.737200  1.0
  C  C68  1  0.969390  0.727010  0.762800  1.0
  C  C69  1  0.701600  0.909600  0.239500  1.0
  C  C70  1  0.090400  0.298400  0.260500  1.0
  C  C71  1  0.298400  0.090400  0.760500  1.0
  C  C72  1  0.909600  0.701600  0.739500  1.0
  C  C73  1  0.686560  0.876640  0.272870  1.0
  C  C74  1  0.123360  0.313440  0.227130  1.0
  C  C75  1  0.313440  0.123360  0.727130  1.0
  C  C76  1  0.876640  0.686560  0.772870  1.0
  C  C77  1  0.651140  0.812460  0.198900  1.0
  C  C78  1  0.187540  0.348860  0.301100  1.0
  C  C79  1  0.348860  0.187540  0.801100  1.0
  C  C80  1  0.812460  0.651140  0.698900  1.0
  C  C81  1  0.621100  0.754500  0.170200  1.0
  C  C82  1  0.245500  0.378900  0.329800  1.0
  C  C83  1  0.378900  0.245500  0.829800  1.0
  C  C84  1  0.754500  0.621100  0.670200  1.0
  C  C85  1  0.571120  0.906480  0.037040  1.0
  C  C86  1  0.093520  0.428880  0.462960  1.0
  C  C87  1  0.428880  0.093520  0.962960  1.0
  C  C88  1  0.906480  0.571120  0.537040  1.0
  C  C89  1  0.617630  0.932370  0.072250  1.0
  C  C90  1  0.067630  0.382370  0.427750  1.0
  C  C91  1  0.382370  0.067630  0.927750  1.0
  C  C92  1  0.932370  0.617630  0.572250  1.0
  C  C93  1  0.666090  0.967230  0.066980  1.0
  C  C94  1  0.032770  0.333910  0.433020  1.0
  C  C95  1  0.333910  0.032770  0.933020  1.0
  C  C96  1  0.967230  0.666090  0.566980  1.0
  C  C97  1  0.668090  0.976230  0.026480  1.0
  C  C98  1  0.023770  0.331910  0.473520  1.0
  C  C99  1  0.331910  0.023770  0.973520  1.0
  C  C100  1  0.976230  0.668090  0.526480  1.0
  C  C101  1  0.621600  0.950360  0.991270  1.0
  C  C102  1  0.049640  0.378400  0.508730  1.0
  C  C103  1  0.378400  0.049640  0.008730  1.0
  C  C104  1  0.950360  0.621600  0.491270  1.0
  C  C105  1  0.573120  0.915480  0.996550  1.0
  C  C106  1  0.084520  0.426880  0.503450  1.0
  C  C107  1  0.426880  0.084520  0.003450  1.0
  C  C108  1  0.915480  0.573120  0.496550  1.0
  C  C109  1  0.753450  0.973270  0.073590  1.0
  C  C110  1  0.026730  0.246550  0.426410  1.0
  C  C111  1  0.246550  0.026730  0.926410  1.0
  C  C112  1  0.973270  0.753450  0.573590  1.0
  C  C113  1  0.779990  0.949170  0.088940  1.0
  C  C114  1  0.050830  0.220010  0.411060  1.0
  C  C115  1  0.220010  0.050830  0.911060  1.0
  C  C116  1  0.949170  0.779990  0.588940  1.0
  C  C117  1  0.807680  0.935600  0.064240  1.0
  C  C118  1  0.064400  0.192320  0.435760  1.0
  C  C119  1  0.192320  0.064400  0.935760  1.0
  C  C120  1  0.935600  0.807680  0.564240  1.0
  C  C121  1  0.808820  0.946140  0.024190  1.0
  C  C122  1  0.053860  0.191180  0.475810  1.0
  C  C123  1  0.191180  0.053860  0.975810  1.0
  C  C124  1  0.946140  0.808820  0.524190  1.0
  C  C125  1  0.782290  0.970250  0.008840  1.0
  C  C126  1  0.029750  0.217710  0.491160  1.0
  C  C127  1  0.217710  0.029750  0.991160  1.0
  C  C128  1  0.970250  0.782290  0.508840  1.0
  C  C129  1  0.754600  0.983820  0.033540  1.0
  C  C130  1  0.016180  0.245400  0.466460  1.0
  C  C131  1  0.245400  0.016180  0.966460  1.0
  C  C132  1  0.983820  0.754600  0.533540  1.0
  C  C133  1  0.717660  0.980740  0.146400  1.0
  C  C134  1  0.019260  0.282340  0.353600  1.0
  C  C135  1  0.282340  0.019260  0.853600  1.0
  C  C136  1  0.980740  0.717660  0.646400  1.0
  C  C137  1  0.718190  0.989210  0.100700  1.0
  C  C138  1  0.010790  0.281810  0.399300  1.0
  C  C139  1  0.281810  0.010790  0.899300  1.0
  C  C140  1  0.989210  0.718190  0.600700  1.0
  C  C141  1  0.744920  0.049880  0.105500  1.0
  C  C142  1  0.950120  0.255080  0.394500  1.0
  C  C143  1  0.255080  0.950120  0.894500  1.0
  C  C144  1  0.049880  0.744920  0.605500  1.0
  C  C145  1  0.746880  0.062120  0.061200  1.0
  C  C146  1  0.937880  0.253120  0.438800  1.0
  C  C147  1  0.253120  0.937880  0.938800  1.0
  C  C148  1  0.062120  0.746880  0.561200  1.0
  C  C149  1  0.725440  0.013560  0.021600  1.0
  C  C150  1  0.986440  0.274560  0.478400  1.0
  C  C151  1  0.274560  0.986440  0.978400  1.0
  C  C152  1  0.013560  0.725440  0.521600  1.0
  C  C153  1  0.725380  0.019220  0.975400  1.0
  C  C154  1  0.980780  0.274620  0.524600  1.0
  C  C155  1  0.274620  0.980780  0.024600  1.0
  C  C156  1  0.019220  0.725380  0.475400  1.0
  C  C157  1  0.277280  0.759280  0.059410  1.0
  C  C158  1  0.240720  0.722720  0.440590  1.0
  C  C159  1  0.722720  0.240720  0.940590  1.0
  C  C160  1  0.759280  0.277280  0.559410  1.0
  C  C161  1  0.321730  0.794390  0.095760  1.0
  C  C162  1  0.205610  0.678270  0.404240  1.0
  C  C163  1  0.678270  0.205610  0.904240  1.0
  C  C164  1  0.794390  0.321730  0.595760  1.0
  C  C165  1  0.372200  0.819660  0.090460  1.0
  C  C166  1  0.180340  0.627800  0.409540  1.0
  C  C167  1  0.627800  0.180340  0.909540  1.0
  C  C168  1  0.819660  0.372200  0.590460  1.0
  C  C169  1  0.378210  0.809790  0.048820  1.0
  C  C170  1  0.190210  0.621790  0.451180  1.0
  C  C171  1  0.621790  0.190210  0.951180  1.0
  C  C172  1  0.809790  0.378210  0.548820  1.0
  C  C173  1  0.333760  0.774680  0.012470  1.0
  C  C174  1  0.225320  0.666240  0.487530  1.0
  C  C175  1  0.666240  0.225320  0.987530  1.0
  C  C176  1  0.774680  0.333760  0.512470  1.0
  C  C177  1  0.283300  0.749420  0.017770  1.0
  C  C178  1  0.250580  0.716700  0.482230  1.0
  C  C179  1  0.716700  0.250580  0.982230  1.0
  C  C180  1  0.749420  0.283300  0.517770  1.0
  C  C181  1  0.196490  0.671550  0.038830  1.0
  C  C182  1  0.328450  0.803510  0.461170  1.0
  C  C183  1  0.803510  0.328450  0.961170  1.0
  C  C184  1  0.671550  0.196490  0.538830  1.0
  C  C185  1  0.175720  0.630380  0.057410  1.0
  C  C186  1  0.369620  0.824280  0.442590  1.0
  C  C187  1  0.824280  0.369620  0.942590  1.0
  C  C188  1  0.630380  0.175720  0.557410  1.0
  C  C189  1  0.160240  0.579040  0.034100  1.0
  C  C190  1  0.420960  0.839760  0.465900  1.0
  C  C191  1  0.839760  0.420960  0.965900  1.0
  C  C192  1  0.579040  0.160240  0.534100  1.0
  C  C193  1  0.165550  0.568850  0.992220  1.0
  C  C194  1  0.431150  0.834450  0.507780  1.0
  C  C195  1  0.834450  0.431150  0.007780  1.0
  C  C196  1  0.568850  0.165550  0.492220  1.0
  C  C197  1  0.186330  0.610030  0.973640  1.0
  C  C198  1  0.389970  0.813670  0.526360  1.0
  C  C199  1  0.813670  0.389970  0.026360  1.0
  C  C200  1  0.610030  0.186330  0.473640  1.0
  C  C201  1  0.201800  0.661380  0.996950  1.0
  C  C202  1  0.338620  0.798200  0.503050  1.0
  C  C203  1  0.798200  0.338620  0.003050  1.0
  C  C204  1  0.661380  0.201800  0.496950  1.0
  C  C205  1  0.214390  0.744410  0.105800  1.0
  C  C206  1  0.255590  0.785610  0.394200  1.0
  C  C207  1  0.785610  0.255590  0.894200  1.0
  C  C208  1  0.744410  0.214390  0.605800  1.0
  C  C209  1  0.218190  0.729610  0.059100  1.0
  C  C210  1  0.270390  0.781810  0.440900  1.0
  C  C211  1  0.781810  0.270390  0.940900  1.0
  C  C212  1  0.729610  0.218190  0.559100  1.0
  C  C213  1  0.192880  0.749920  0.027800  1.0
  C  C214  1  0.250080  0.807120  0.472200  1.0
  C  C215  1  0.807120  0.250080  0.972200  1.0
  C  C216  1  0.749920  0.192880  0.527800  1.0
  C  C217  1  0.192560  0.731240  0.980300  1.0
  C  C218  1  0.268760  0.807440  0.519700  1.0
  C  C219  1  0.807440  0.268760  0.019700  1.0
  C  C220  1  0.731240  0.192560  0.480300  1.0
  C  C221  1  0.229040  0.706960  0.982000  1.0
  C  C222  1  0.293040  0.770960  0.518000  1.0
  C  C223  1  0.770960  0.293040  0.018000  1.0
  C  C224  1  0.706960  0.229040  0.482000  1.0
  C  C225  1  0.237110  0.697890  0.936450  1.0
  C  C226  1  0.302110  0.762890  0.563550  1.0
  C  C227  1  0.762890  0.302110  0.063550  1.0
  C  C228  1  0.697890  0.237110  0.436450  1.0
  C  C229  1  0.242650  0.602030  0.840010  1.0
  C  C230  1  0.397970  0.757350  0.659990  1.0
  C  C231  1  0.757350  0.397970  0.159990  1.0
  C  C232  1  0.602030  0.242650  0.340010  1.0
  C  C233  1  0.271950  0.580090  0.854460  1.0
  C  C234  1  0.419910  0.728050  0.645540  1.0
  C  C235  1  0.728050  0.419910  0.145540  1.0
  C  C236  1  0.580090  0.271950  0.354460  1.0
  C  C237  1  0.250000  0.538360  0.872270  1.0
  C  C238  1  0.461640  0.750000  0.627730  1.0
  C  C239  1  0.750000  0.461640  0.127730  1.0
  C  C240  1  0.538360  0.250000  0.372270  1.0
  C  C241  1  0.198750  0.518570  0.875640  1.0
  C  C242  1  0.481430  0.801250  0.624360  1.0
  C  C243  1  0.801250  0.481430  0.124360  1.0
  C  C244  1  0.518570  0.198750  0.375640  1.0
  C  C245  1  0.169450  0.540510  0.861200  1.0
  C  C246  1  0.459490  0.830550  0.638800  1.0
  C  C247  1  0.830550  0.459490  0.138800  1.0
  C  C248  1  0.540510  0.169450  0.361200  1.0
  C  C249  1  0.191390  0.582250  0.843390  1.0
  C  C250  1  0.417750  0.808610  0.656610  1.0
  C  C251  1  0.808610  0.417750  0.156610  1.0
  C  C252  1  0.582250  0.191390  0.343390  1.0
  C  C253  1  0.354860  0.668380  0.876890  1.0
  C  C254  1  0.331620  0.645140  0.623110  1.0
  C  C255  1  0.645140  0.331620  0.123110  1.0
  C  C256  1  0.668380  0.354860  0.376890  1.0
  C  C257  1  0.400130  0.699950  0.913230  1.0
  C  C258  1  0.300050  0.599870  0.586770  1.0
  C  C259  1  0.599870  0.300050  0.086770  1.0
  C  C260  1  0.699950  0.400130  0.413230  1.0
  C  C261  1  0.415170  0.752030  0.933800  1.0
  C  C262  1  0.247970  0.584830  0.566200  1.0
  C  C263  1  0.584830  0.247970  0.066200  1.0
  C  C264  1  0.752030  0.415170  0.433800  1.0
  C  C265  1  0.384960  0.772540  0.918020  1.0
  C  C266  1  0.227460  0.615040  0.581980  1.0
  C  C267  1  0.615040  0.227460  0.081980  1.0
  C  C268  1  0.772540  0.384960  0.418020  1.0
  C  C269  1  0.339710  0.740970  0.881680  1.0
  C  C270  1  0.259030  0.660290  0.618320  1.0
  C  C271  1  0.660290  0.259030  0.118320  1.0
  C  C272  1  0.740970  0.339710  0.381680  1.0
  C  C273  1  0.324650  0.688890  0.861110  1.0
  C  C274  1  0.311110  0.675350  0.638890  1.0
  C  C275  1  0.675350  0.311110  0.138890  1.0
  C  C276  1  0.688890  0.324650  0.361110  1.0
  C  C277  1  0.355410  0.582590  0.875900  1.0
  C  C278  1  0.417410  0.644590  0.624100  1.0
  C  C279  1  0.644590  0.417410  0.124100  1.0
  C  C280  1  0.582590  0.355410  0.375900  1.0
  C  C281  1  0.325650  0.606950  0.854500  1.0
  C  C282  1  0.393050  0.674350  0.645500  1.0
  C  C283  1  0.674350  0.393050  0.145500  1.0
  C  C284  1  0.606950  0.325650  0.354500  1.0
  C  C285  1  0.294550  0.631650  0.786400  1.0
  C  C286  1  0.368350  0.705450  0.713600  1.0
  C  C287  1  0.705450  0.368350  0.213600  1.0
  C  C288  1  0.631650  0.294550  0.286400  1.0
  C  C289  1  0.278300  0.652900  0.823900  1.0
  C  C290  1  0.347100  0.721700  0.676100  1.0
  C  C291  1  0.721700  0.347100  0.176100  1.0
  C  C292  1  0.652900  0.278300  0.323900  1.0
  C  C293  1  0.244530  0.677670  0.810600  1.0
  C  C294  1  0.322330  0.755470  0.689400  1.0
  C  C295  1  0.755470  0.322330  0.189400  1.0
  C  C296  1  0.677670  0.244530  0.310600  1.0
  C  C297  1  0.142860  0.343600  0.076540  1.0
  C  C298  1  0.656400  0.857140  0.423460  1.0
  C  C299  1  0.857140  0.656400  0.923460  1.0
  C  C300  1  0.343600  0.142860  0.576540  1.0
  C  C301  1  0.106090  0.358570  0.065230  1.0
  C  C302  1  0.641430  0.893910  0.434770  1.0
  C  C303  1  0.893910  0.641430  0.934770  1.0
  C  C304  1  0.358570  0.106090  0.565230  1.0
  C  C305  1  0.118620  0.399920  0.046710  1.0
  C  C306  1  0.600080  0.881380  0.453290  1.0
  C  C307  1  0.881380  0.600080  0.953290  1.0
  C  C308  1  0.399920  0.118620  0.546710  1.0
  C  C309  1  0.167930  0.426290  0.039510  1.0
  C  C310  1  0.573710  0.832070  0.460490  1.0
  C  C311  1  0.832070  0.573710  0.960490  1.0
  C  C312  1  0.426290  0.167930  0.539510  1.0
  C  C313  1  0.204700  0.411320  0.050830  1.0
  C  C314  1  0.588680  0.795300  0.449170  1.0
  C  C315  1  0.795300  0.588680  0.949170  1.0
  C  C316  1  0.411320  0.204700  0.550830  1.0
  C  C317  1  0.192170  0.369970  0.069340  1.0
  C  C318  1  0.630030  0.807830  0.430660  1.0
  C  C319  1  0.807830  0.630030  0.930660  1.0
  C  C320  1  0.369970  0.192170  0.569340  1.0
  C  C321  1  0.146830  0.263570  0.066660  1.0
  C  C322  1  0.736430  0.853170  0.433340  1.0
  C  C323  1  0.853170  0.736430  0.933340  1.0
  C  C324  1  0.263570  0.146830  0.566660  1.0
  C  C325  1  0.197620  0.289860  0.062100  1.0
  C  C326  1  0.710140  0.802380  0.437900  1.0
  C  C327  1  0.802380  0.710140  0.937900  1.0
  C  C328  1  0.289860  0.197620  0.562100  1.0
  C  C329  1  0.214010  0.261790  0.036320  1.0
  C  C330  1  0.738210  0.785990  0.463680  1.0
  C  C331  1  0.785990  0.738210  0.963680  1.0
  C  C332  1  0.261790  0.214010  0.536320  1.0
  C  C333  1  0.179680  0.207520  0.015100  1.0
  C  C334  1  0.792480  0.820320  0.484900  1.0
  C  C335  1  0.820320  0.792480  0.984900  1.0
  C  C336  1  0.207520  0.179680  0.515100  1.0
  C  C337  1  0.128860  0.181220  0.019670  1.0
  C  C338  1  0.818780  0.871140  0.480330  1.0
  C  C339  1  0.871140  0.818780  0.980330  1.0
  C  C340  1  0.181220  0.128860  0.519670  1.0
  C  C341  1  0.112460  0.209280  0.045450  1.0
  C  C342  1  0.790720  0.887540  0.454550  1.0
  C  C343  1  0.887540  0.790720  0.954550  1.0
  C  C344  1  0.209280  0.112460  0.545450  1.0
  C  C345  1  0.083650  0.264350  0.102900  1.0
  C  C346  1  0.735650  0.916350  0.397100  1.0
  C  C347  1  0.916350  0.735650  0.897100  1.0
  C  C348  1  0.264350  0.083650  0.602900  1.0
  C  C349  1  0.138420  0.303780  0.099300  1.0
  C  C350  1  0.696220  0.861580  0.400700  1.0
  C  C351  1  0.861580  0.696220  0.900700  1.0
  C  C352  1  0.303780  0.138420  0.599300  1.0
  C  C353  1  0.181290  0.325710  0.143800  1.0
  C  C354  1  0.674290  0.818710  0.356200  1.0
  C  C355  1  0.818710  0.674290  0.856200  1.0
  C  C356  1  0.325710  0.181290  0.643800  1.0
  C  C357  1  0.235280  0.352920  0.133200  1.0
  C  C358  1  0.647080  0.764720  0.366800  1.0
  C  C359  1  0.764720  0.647080  0.866800  1.0
  C  C360  1  0.352920  0.235280  0.633200  1.0
  C  C361  1  0.230170  0.348630  0.085100  1.0
  C  C362  1  0.651370  0.769830  0.414900  1.0
  C  C363  1  0.769830  0.651370  0.914900  1.0
  C  C364  1  0.348630  0.230170  0.585100  1.0
  C  C365  1  0.283590  0.380810  0.076300  1.0
  C  C366  1  0.619190  0.716410  0.423700  1.0
  C  C367  1  0.716410  0.619190  0.923700  1.0
  C  C368  1  0.380810  0.283590  0.576300  1.0
  C  C369  1  0.014930  0.182550  0.844750  1.0
  C  C370  1  0.817450  0.985070  0.655250  1.0
  C  C371  1  0.985070  0.817450  0.155250  1.0
  C  C372  1  0.182550  0.014930  0.344750  1.0
  C  C373  1  0.030390  0.154930  0.817390  1.0
  C  C374  1  0.845070  0.969610  0.682610  1.0
  C  C375  1  0.969610  0.845070  0.182610  1.0
  C  C376  1  0.154930  0.030390  0.317390  1.0
  C  C377  1  0.063640  0.138560  0.835430  1.0
  C  C378  1  0.861440  0.936360  0.664570  1.0
  C  C379  1  0.936360  0.861440  0.164570  1.0
  C  C380  1  0.138560  0.063640  0.335430  1.0
  C  C381  1  0.081310  0.149690  0.880800  1.0
  C  C382  1  0.850310  0.918690  0.619200  1.0
  C  C383  1  0.918690  0.850310  0.119200  1.0
  C  C384  1  0.149690  0.081310  0.380800  1.0
  C  C385  1  0.065900  0.177360  0.908180  1.0
  C  C386  1  0.822640  0.934100  0.591820  1.0
  C  C387  1  0.934100  0.822640  0.091820  1.0
  C  C388  1  0.177360  0.065900  0.408180  1.0
  C  C389  1  0.032690  0.193770  0.890140  1.0
  C  C390  1  0.806230  0.967310  0.609860  1.0
  C  C391  1  0.967310  0.806230  0.109860  1.0
  C  C392  1  0.193770  0.032690  0.390140  1.0
  C  C393  1  0.024150  0.271250  0.902200  1.0
  C  C394  1  0.728750  0.975850  0.597800  1.0
  C  C395  1  0.975850  0.728750  0.097800  1.0
  C  C396  1  0.271250  0.024150  0.402200  1.0
  C  C397  1  0.007420  0.256980  0.857400  1.0
  C  C398  1  0.743020  0.992580  0.642600  1.0
  C  C399  1  0.992580  0.743020  0.142600  1.0
  C  C400  1  0.256980  0.007420  0.357400  1.0
  C  C401  1  0.058220  0.326580  0.927230  1.0
  C  C402  1  0.673420  0.941780  0.572770  1.0
  C  C403  1  0.941780  0.673420  0.072770  1.0
  C  C404  1  0.326580  0.058220  0.427230  1.0
  C  C405  1  0.066270  0.368530  0.906900  1.0
  C  C406  1  0.631470  0.933730  0.593100  1.0
  C  C407  1  0.933730  0.631470  0.093100  1.0
  C  C408  1  0.368530  0.066270  0.406900  1.0
  C  C409  1  0.047370  0.353430  0.862800  1.0
  C  C410  1  0.646570  0.952630  0.637200  1.0
  C  C411  1  0.952630  0.646570  0.137200  1.0
  C  C412  1  0.353430  0.047370  0.362800  1.0
  C  C413  1  0.018890  0.300110  0.835000  1.0
  C  C414  1  0.699890  0.981110  0.665000  1.0
  C  C415  1  0.981110  0.699890  0.165000  1.0
  C  C416  1  0.300110  0.018890  0.335000  1.0
  C  C417  1  0.976100  0.201700  0.829600  1.0
  C  C418  1  0.798300  0.023900  0.670400  1.0
  C  C419  1  0.023900  0.798300  0.170400  1.0
  C  C420  1  0.201700  0.976100  0.329600  1.0
  C  C421  1  0.951470  0.188730  0.901200  1.0
  C  C422  1  0.811270  0.048530  0.598800  1.0
  C  C423  1  0.048530  0.811270  0.098800  1.0
  C  C424  1  0.188730  0.951470  0.401200  1.0
  C  C425  1  0.013230  0.221170  0.916400  1.0
  C  C426  1  0.778830  0.986770  0.583600  1.0
  C  C427  1  0.986770  0.778830  0.083600  1.0
  C  C428  1  0.221170  0.013230  0.416400  1.0
  C  C429  1  0.039640  0.238560  0.965800  1.0
  C  C430  1  0.761440  0.960360  0.534200  1.0
  C  C431  1  0.960360  0.761440  0.034200  1.0
  C  C432  1  0.238560  0.039640  0.465800  1.0
  H  H433  1  0.675500  0.800700  0.258000  1.0
  H  H434  1  0.199300  0.324500  0.242000  1.0
  H  H435  1  0.324500  0.199300  0.742000  1.0
  H  H436  1  0.800700  0.675500  0.758000  1.0
  H  H437  1  0.621100  0.798700  0.251400  1.0
  H  H438  1  0.201300  0.378900  0.248600  1.0
  H  H439  1  0.378900  0.201300  0.748600  1.0
  H  H440  1  0.798700  0.621100  0.751400  1.0
  H  H441  1  0.933900  0.150100  0.766600  1.0
  H  H442  1  0.849900  0.066100  0.733400  1.0
  H  H443  1  0.066100  0.849900  0.233400  1.0
  H  H444  1  0.150100  0.933900  0.266600  1.0
  H  H445  1  0.983100  0.203900  0.767700  1.0
  H  H446  1  0.796100  0.016900  0.732300  1.0
  H  H447  1  0.016900  0.796100  0.232300  1.0
  H  H448  1  0.203900  0.983100  0.267700  1.0
  H  H449  1  0.931300  0.201900  0.773500  1.0
  H  H450  1  0.798100  0.068700  0.726500  1.0
  H  H451  1  0.068700  0.798100  0.226500  1.0
  H  H452  1  0.201900  0.931300  0.273500  1.0
  H  H453  1  0.904800  0.180800  0.842600  1.0
  H  H454  1  0.819200  0.095200  0.657400  1.0
  H  H455  1  0.095200  0.819200  0.157400  1.0
  H  H456  1  0.180800  0.904800  0.342600  1.0
  H  H457  1  0.916900  0.135100  0.839300  1.0
  H  H458  1  0.864900  0.083100  0.660700  1.0
  H  H459  1  0.083100  0.864900  0.160700  1.0
  H  H460  1  0.135100  0.916900  0.339300  1.0
  H  H461  1  0.345500  0.604100  0.796500  1.0
  H  H462  1  0.395900  0.654500  0.703500  1.0
  H  H463  1  0.654500  0.395900  0.203500  1.0
  H  H464  1  0.604100  0.345500  0.296500  1.0
  H  H465  1  0.286400  0.560200  0.789500  1.0
  H  H466  1  0.439800  0.713600  0.710500  1.0
  H  H467  1  0.713600  0.439800  0.210500  1.0
  H  H468  1  0.560200  0.286400  0.289500  1.0
  H  H469  1  0.798300  0.972300  0.228200  1.0
  H  H470  1  0.027700  0.201700  0.271800  1.0
  H  H471  1  0.201700  0.027700  0.771800  1.0
  H  H472  1  0.972300  0.798300  0.728200  1.0
  H  H473  1  0.717800  0.792200  0.155500  1.0
  H  H474  1  0.207800  0.282200  0.344500  1.0
  H  H475  1  0.282200  0.207800  0.844500  1.0
  H  H476  1  0.792200  0.717800  0.655500  1.0
  H  H477  1  0.634400  0.955600  0.212600  1.0
  H  H478  1  0.044400  0.365600  0.287400  1.0
  H  H479  1  0.365600  0.044400  0.787400  1.0
  H  H480  1  0.955600  0.634400  0.712600  1.0
  H  H481  1  0.552500  0.776500  0.135300  1.0
  H  H482  1  0.223500  0.447500  0.364700  1.0
  H  H483  1  0.447500  0.223500  0.864700  1.0
  H  H484  1  0.776500  0.552500  0.635300  1.0
  H  H485  1  0.705700  0.974100  0.280100  1.0
  H  H486  1  0.025900  0.294300  0.219900  1.0
  H  H487  1  0.294300  0.025900  0.719900  1.0
  H  H488  1  0.974100  0.705700  0.780100  1.0
  H  H489  1  0.728900  0.987900  0.241200  1.0
  H  H490  1  0.012100  0.271100  0.258800  1.0
  H  H491  1  0.271100  0.012100  0.758800  1.0
  H  H492  1  0.987900  0.728900  0.741200  1.0
  H  H493  1  0.762300  0.983500  0.281700  1.0
  H  H494  1  0.016500  0.237700  0.218300  1.0
  H  H495  1  0.237700  0.016500  0.718300  1.0
  H  H496  1  0.983500  0.762300  0.781700  1.0
  H  H497  1  0.718600  0.886200  0.295100  1.0
  H  H498  1  0.113800  0.281400  0.204900  1.0
  H  H499  1  0.281400  0.113800  0.704900  1.0
  H  H500  1  0.886200  0.718600  0.795100  1.0
  H  H501  1  0.664300  0.884500  0.287500  1.0
  H  H502  1  0.115500  0.335700  0.212500  1.0
  H  H503  1  0.335700  0.115500  0.712500  1.0
  H  H504  1  0.884500  0.664300  0.787500  1.0
  H  H505  1  0.617300  0.753300  0.139800  1.0
  H  H506  1  0.246700  0.382700  0.360200  1.0
  H  H507  1  0.382700  0.246700  0.860200  1.0
  H  H508  1  0.753300  0.617300  0.639800  1.0
  H  H509  1  0.586500  0.735700  0.174000  1.0
  H  H510  1  0.264300  0.413500  0.326000  1.0
  H  H511  1  0.413500  0.264300  0.826000  1.0
  H  H512  1  0.735700  0.586500  0.674000  1.0
  H  H513  1  0.640700  0.738100  0.178500  1.0
  H  H514  1  0.261900  0.359300  0.321500  1.0
  H  H515  1  0.359300  0.261900  0.821500  1.0
  H  H516  1  0.738100  0.640700  0.678500  1.0
  H  H517  1  0.616300  0.926300  0.099300  1.0
  H  H518  1  0.073700  0.383700  0.400700  1.0
  H  H519  1  0.383700  0.073700  0.900700  1.0
  H  H520  1  0.926300  0.616300  0.599300  1.0
  H  H521  1  0.623000  0.956400  0.964200  1.0
  H  H522  1  0.043600  0.377000  0.535800  1.0
  H  H523  1  0.377000  0.043600  0.035800  1.0
  H  H524  1  0.956400  0.623000  0.464200  1.0
  H  H525  1  0.779300  0.942100  0.115700  1.0
  H  H526  1  0.057900  0.220700  0.384300  1.0
  H  H527  1  0.220700  0.057900  0.884300  1.0
  H  H528  1  0.942100  0.779300  0.615700  1.0
  H  H529  1  0.783100  0.977300  0.982000  1.0
  H  H530  1  0.022700  0.216900  0.518000  1.0
  H  H531  1  0.216900  0.022700  0.018000  1.0
  H  H532  1  0.977300  0.783100  0.482000  1.0
  H  H533  1  0.753700  0.998100  0.165200  1.0
  H  H534  1  0.001900  0.246300  0.334800  1.0
  H  H535  1  0.246300  0.001900  0.834800  1.0
  H  H536  1  0.998100  0.753700  0.665200  1.0
  H  H537  1  0.699700  0.943300  0.143200  1.0
  H  H538  1  0.056700  0.300300  0.356800  1.0
  H  H539  1  0.300300  0.056700  0.856800  1.0
  H  H540  1  0.943300  0.699700  0.643200  1.0
  H  H541  1  0.699200  0.995600  0.159200  1.0
  H  H542  1  0.004400  0.300800  0.340800  1.0
  H  H543  1  0.300800  0.004400  0.840800  1.0
  H  H544  1  0.995600  0.699200  0.659200  1.0
  H  H545  1  0.725300  0.063300  0.118700  1.0
  H  H546  1  0.936700  0.274700  0.381300  1.0
  H  H547  1  0.274700  0.936700  0.881300  1.0
  H  H548  1  0.063300  0.725300  0.618700  1.0
  H  H549  1  0.781000  0.068600  0.125300  1.0
  H  H550  1  0.931400  0.219000  0.374700  1.0
  H  H551  1  0.219000  0.931400  0.874700  1.0
  H  H552  1  0.068600  0.781000  0.625300  1.0
  H  H553  1  0.726400  0.078800  0.055800  1.0
  H  H554  1  0.921200  0.273600  0.444200  1.0
  H  H555  1  0.273600  0.921200  0.944200  1.0
  H  H556  1  0.078800  0.726400  0.555800  1.0
  H  H557  1  0.783600  0.087600  0.063800  1.0
  H  H558  1  0.912400  0.216400  0.436200  1.0
  H  H559  1  0.216400  0.912400  0.936200  1.0
  H  H560  1  0.087600  0.783600  0.563800  1.0
  H  H561  1  0.708000  0.038000  0.968500  1.0
  H  H562  1  0.962000  0.292000  0.531500  1.0
  H  H563  1  0.292000  0.962000  0.031500  1.0
  H  H564  1  0.038000  0.708000  0.468500  1.0
  H  H565  1  0.706700  0.984500  0.954300  1.0
  H  H566  1  0.015500  0.293300  0.545700  1.0
  H  H567  1  0.293300  0.015500  0.045700  1.0
  H  H568  1  0.984500  0.706700  0.454300  1.0
  H  H569  1  0.761400  0.038800  0.974600  1.0
  H  H570  1  0.961200  0.238600  0.525400  1.0
  H  H571  1  0.238600  0.961200  0.025400  1.0
  H  H572  1  0.038800  0.761400  0.474600  1.0
  H  H573  1  0.317800  0.801000  0.123600  1.0
  H  H574  1  0.199000  0.682200  0.376400  1.0
  H  H575  1  0.682200  0.199000  0.876400  1.0
  H  H576  1  0.801000  0.317800  0.623600  1.0
  H  H577  1  0.337800  0.768000  0.984600  1.0
  H  H578  1  0.232000  0.662200  0.515400  1.0
  H  H579  1  0.662200  0.232000  0.015400  1.0
  H  H580  1  0.768000  0.337800  0.484600  1.0
  H  H581  1  0.172200  0.637200  0.085400  1.0
  H  H582  1  0.362800  0.827800  0.414600  1.0
  H  H583  1  0.827800  0.362800  0.914600  1.0
  H  H584  1  0.637200  0.172200  0.585400  1.0
  H  H585  1  0.189800  0.603200  0.945600  1.0
  H  H586  1  0.396800  0.810200  0.554400  1.0
  H  H587  1  0.810200  0.396800  0.054400  1.0
  H  H588  1  0.603200  0.189800  0.445600  1.0
  H  H589  1  0.228400  0.782000  0.116100  1.0
  H  H590  1  0.218000  0.771600  0.383900  1.0
  H  H591  1  0.771600  0.218000  0.883900  1.0
  H  H592  1  0.782000  0.228400  0.616100  1.0
  H  H593  1  0.234500  0.735100  0.125200  1.0
  H  H594  1  0.264900  0.765500  0.374800  1.0
  H  H595  1  0.765500  0.264900  0.874800  1.0
  H  H596  1  0.735100  0.234500  0.625200  1.0
  H  H597  1  0.177700  0.725100  0.105200  1.0
  H  H598  1  0.274900  0.822300  0.394800  1.0
  H  H599  1  0.822300  0.274900  0.894800  1.0
  H  H600  1  0.725100  0.177700  0.605200  1.0
  H  H601  1  0.212600  0.788600  0.038100  1.0
  H  H602  1  0.211400  0.787400  0.461900  1.0
  H  H603  1  0.787400  0.211400  0.961900  1.0
  H  H604  1  0.788600  0.212600  0.538100  1.0
  H  H605  1  0.156600  0.737200  0.028300  1.0
  H  H606  1  0.262800  0.843400  0.471700  1.0
  H  H607  1  0.843400  0.262800  0.971700  1.0
  H  H608  1  0.737200  0.156600  0.528300  1.0
  H  H609  1  0.206300  0.761100  0.968500  1.0
  H  H610  1  0.238900  0.793700  0.531500  1.0
  H  H611  1  0.793700  0.238900  0.031500  1.0
  H  H612  1  0.761100  0.206300  0.468500  1.0
  H  H613  1  0.156600  0.704600  0.961800  1.0
  H  H614  1  0.295400  0.843400  0.538200  1.0
  H  H615  1  0.843400  0.295400  0.038200  1.0
  H  H616  1  0.704600  0.156600  0.461800  1.0
  H  H617  1  0.254800  0.731400  0.930500  1.0
  H  H618  1  0.268600  0.745200  0.569500  1.0
  H  H619  1  0.745200  0.268600  0.069500  1.0
  H  H620  1  0.731400  0.254800  0.430500  1.0
  H  H621  1  0.203000  0.674400  0.914400  1.0
  H  H622  1  0.325600  0.797000  0.585600  1.0
  H  H623  1  0.797000  0.325600  0.085600  1.0
  H  H624  1  0.674400  0.203000  0.414400  1.0
  H  H625  1  0.258500  0.682100  0.935900  1.0
  H  H626  1  0.317900  0.741500  0.564100  1.0
  H  H627  1  0.741500  0.317900  0.064100  1.0
  H  H628  1  0.682100  0.258500  0.435900  1.0
  H  H629  1  0.269600  0.523600  0.881900  1.0
  H  H630  1  0.476400  0.730400  0.618100  1.0
  H  H631  1  0.730400  0.476400  0.118100  1.0
  H  H632  1  0.523600  0.269600  0.381900  1.0
  H  H633  1  0.171800  0.597000  0.833700  1.0
  H  H634  1  0.403000  0.828200  0.666300  1.0
  H  H635  1  0.828200  0.403000  0.166300  1.0
  H  H636  1  0.597000  0.171800  0.333700  1.0
  H  H637  1  0.420400  0.686200  0.923800  1.0
  H  H638  1  0.313800  0.579600  0.576200  1.0
  H  H639  1  0.579600  0.313800  0.076200  1.0
  H  H640  1  0.686200  0.420400  0.423800  1.0
  H  H641  1  0.319500  0.754700  0.871100  1.0
  H  H642  1  0.245300  0.680500  0.628900  1.0
  H  H643  1  0.680500  0.245300  0.128900  1.0
  H  H644  1  0.754700  0.319500  0.371100  1.0
  H  H645  1  0.391400  0.600400  0.874700  1.0
  H  H646  1  0.399600  0.608600  0.625300  1.0
  H  H647  1  0.608600  0.399600  0.125300  1.0
  H  H648  1  0.600400  0.391400  0.374700  1.0
  H  H649  1  0.337600  0.545400  0.860300  1.0
  H  H650  1  0.454600  0.662400  0.639700  1.0
  H  H651  1  0.662400  0.454600  0.139700  1.0
  H  H652  1  0.545400  0.337600  0.360300  1.0
  H  H653  1  0.355700  0.586900  0.906100  1.0
  H  H654  1  0.413100  0.644300  0.593900  1.0
  H  H655  1  0.644300  0.413100  0.093900  1.0
  H  H656  1  0.586900  0.355700  0.406100  1.0
  H  H657  1  0.323100  0.660700  0.780100  1.0
  H  H658  1  0.339300  0.676900  0.719900  1.0
  H  H659  1  0.676900  0.339300  0.219900  1.0
  H  H660  1  0.660700  0.323100  0.280100  1.0
  H  H661  1  0.264500  0.610300  0.759800  1.0
  H  H662  1  0.389700  0.735500  0.740200  1.0
  H  H663  1  0.735500  0.389700  0.240200  1.0
  H  H664  1  0.610300  0.264500  0.259800  1.0
  H  H665  1  0.236200  0.690200  0.835700  1.0
  H  H666  1  0.309800  0.763800  0.664300  1.0
  H  H667  1  0.763800  0.309800  0.164300  1.0
  H  H668  1  0.690200  0.236200  0.335700  1.0
  H  H669  1  0.212100  0.651100  0.787800  1.0
  H  H670  1  0.348900  0.787900  0.712200  1.0
  H  H671  1  0.787900  0.348900  0.212200  1.0
  H  H672  1  0.651100  0.212100  0.287800  1.0
  H  H673  1  0.264500  0.706900  0.800000  1.0
  H  H674  1  0.293100  0.735500  0.700000  1.0
  H  H675  1  0.735500  0.293100  0.200000  1.0
  H  H676  1  0.706900  0.264500  0.300000  1.0
  H  H677  1  0.073100  0.340900  0.070000  1.0
  H  H678  1  0.659100  0.926900  0.430000  1.0
  H  H679  1  0.926900  0.659100  0.930000  1.0
  H  H680  1  0.340900  0.073100  0.570000  1.0
  H  H681  1  0.237733  0.428933  0.046000  1.0
  H  H682  1  0.571067  0.762267  0.454000  1.0
  H  H683  1  0.762267  0.571067  0.954000  1.0
  H  H684  1  0.428933  0.237733  0.546000  1.0
  H  H685  1  0.248000  0.279400  0.033300  1.0
  H  H686  1  0.720600  0.752000  0.466700  1.0
  H  H687  1  0.752000  0.720600  0.966700  1.0
  H  H688  1  0.279400  0.248000  0.533300  1.0
  H  H689  1  0.078500  0.191700  0.048500  1.0
  H  H690  1  0.808300  0.921500  0.451500  1.0
  H  H691  1  0.921500  0.808300  0.951500  1.0
  H  H692  1  0.191700  0.078500  0.548500  1.0
  H  H693  1  0.074000  0.283000  0.123400  1.0
  H  H694  1  0.717000  0.926000  0.376600  1.0
  H  H695  1  0.926000  0.717000  0.876600  1.0
  H  H696  1  0.283000  0.074000  0.623400  1.0
  H  H697  1  0.085500  0.236900  0.113100  1.0
  H  H698  1  0.763100  0.914500  0.386900  1.0
  H  H699  1  0.914500  0.763100  0.886900  1.0
  H  H700  1  0.236900  0.085500  0.613100  1.0
  H  H701  1  0.057400  0.248800  0.074600  1.0
  H  H702  1  0.751200  0.942600  0.425400  1.0
  H  H703  1  0.942600  0.751200  0.925400  1.0
  H  H704  1  0.248800  0.057400  0.574600  1.0
  H  H705  1  0.177500  0.297100  0.155900  1.0
  H  H706  1  0.702900  0.822500  0.344100  1.0
  H  H707  1  0.822500  0.702900  0.844100  1.0
  H  H708  1  0.297100  0.177500  0.655900  1.0
  H  H709  1  0.178800  0.351400  0.164800  1.0
  H  H710  1  0.648600  0.821200  0.335200  1.0
  H  H711  1  0.821200  0.648600  0.835200  1.0
  H  H712  1  0.351400  0.178800  0.664800  1.0
  H  H713  1  0.255700  0.390300  0.150100  1.0
  H  H714  1  0.609700  0.744300  0.349900  1.0
  H  H715  1  0.744300  0.609700  0.849900  1.0
  H  H716  1  0.390300  0.255700  0.650100  1.0
  H  H717  1  0.255300  0.337100  0.142800  1.0
  H  H718  1  0.662900  0.744700  0.357200  1.0
  H  H719  1  0.744700  0.662900  0.857200  1.0
  H  H720  1  0.337100  0.255300  0.642800  1.0
  H  H721  1  0.301100  0.417500  0.093500  1.0
  H  H722  1  0.582500  0.698900  0.406500  1.0
  H  H723  1  0.698900  0.582500  0.906500  1.0
  H  H724  1  0.417500  0.301100  0.593500  1.0
  H  H725  1  0.277200  0.378200  0.045600  1.0
  H  H726  1  0.621800  0.722800  0.454400  1.0
  H  H727  1  0.722800  0.621800  0.954400  1.0
  H  H728  1  0.378200  0.277200  0.545600  1.0
  H  H729  1  0.305600  0.366800  0.084400  1.0
  H  H730  1  0.633200  0.694400  0.415600  1.0
  H  H731  1  0.694400  0.633200  0.915600  1.0
  H  H732  1  0.366800  0.305600  0.584400  1.0
  H  H733  1  0.018500  0.147500  0.787000  1.0
  H  H734  1  0.852500  0.981500  0.713000  1.0
  H  H735  1  0.981500  0.852500  0.213000  1.0
  H  H736  1  0.147500  0.018500  0.287000  1.0
  H  H737  1  0.077800  0.184800  0.938600  1.0
  H  H738  1  0.815200  0.922200  0.561400  1.0
  H  H739  1  0.922200  0.815200  0.061400  1.0
  H  H740  1  0.184800  0.077800  0.438600  1.0
  H  H741  1  0.075400  0.335800  0.957000  1.0
  H  H742  1  0.664200  0.924600  0.543000  1.0
  H  H743  1  0.924600  0.664200  0.043000  1.0
  H  H744  1  0.335800  0.075400  0.457000  1.0
  H  H745  1  0.007700  0.291900  0.804500  1.0
  H  H746  1  0.708100  0.992300  0.695500  1.0
  H  H747  1  0.992300  0.708100  0.195500  1.0
  H  H748  1  0.291900  0.007700  0.304500  1.0
  H  H749  1  0.938200  0.157000  0.910600  1.0
  H  H750  1  0.843000  0.061800  0.589400  1.0
  H  H751  1  0.061800  0.843000  0.089400  1.0
  H  H752  1  0.157000  0.938200  0.410600  1.0
  H  H753  1  0.938200  0.210000  0.913900  1.0
  H  H754  1  0.790000  0.061800  0.586100  1.0
  H  H755  1  0.061800  0.790000  0.086100  1.0
  H  H756  1  0.210000  0.938200  0.413900  1.0
  H  H757  1  0.023500  0.254300  0.981100  1.0
  H  H758  1  0.745700  0.976500  0.518900  1.0
  H  H759  1  0.976500  0.745700  0.018900  1.0
  H  H760  1  0.254300  0.023500  0.481100  1.0
  H  H761  1  0.077000  0.264200  0.972700  1.0
  H  H762  1  0.735800  0.923000  0.527300  1.0
  H  H763  1  0.923000  0.735800  0.027300  1.0
  H  H764  1  0.264200  0.077000  0.472700  1.0
  H  H765  1  0.035100  0.208100  0.974700  1.0
  H  H766  1  0.791900  0.964900  0.525300  1.0
  H  H767  1  0.964900  0.791900  0.025300  1.0
  H  H768  1  0.208100  0.035100  0.474700  1.0
  Mn  Mn769  1  0.111730  0.464790  0.001440  1.0
  Mn  Mn770  1  0.535210  0.888270  0.498560  1.0
  Mn  Mn771  1  0.888270  0.535210  0.998560  1.0
  Mn  Mn772  1  0.464790  0.111730  0.501440  1.0
  Mn  Mn773  1  0.463310  0.854090  0.990840  1.0
  Mn  Mn774  1  0.145910  0.536690  0.509160  1.0
  Mn  Mn775  1  0.536690  0.145910  0.009160  1.0
  Mn  Mn776  1  0.854090  0.463310  0.490840  1.0
  Mn  Mn777  1  0.102650  0.466970  0.894510  1.0
  Mn  Mn778  1  0.533030  0.897350  0.605490  1.0
  Mn  Mn779  1  0.897350  0.533030  0.105490  1.0
  Mn  Mn780  1  0.466970  0.102650  0.394510  1.0
  Mn  Mn781  1  0.485210  0.875490  0.101870  1.0
  Mn  Mn782  1  0.124510  0.514790  0.398130  1.0
  Mn  Mn783  1  0.514790  0.124510  0.898130  1.0
  Mn  Mn784  1  0.875490  0.485210  0.601870  1.0
  Mn  Mn785  1  0.867290  0.893150  0.037540  1.0
  Mn  Mn786  1  0.106850  0.132710  0.462460  1.0
  Mn  Mn787  1  0.132710  0.106850  0.962460  1.0
  Mn  Mn788  1  0.893150  0.867290  0.537540  1.0
  Mn  Mn789  1  0.876860  0.909860  0.148360  1.0
  Mn  Mn790  1  0.090140  0.123140  0.351640  1.0
  Mn  Mn791  1  0.123140  0.090140  0.851640  1.0
  Mn  Mn792  1  0.909860  0.876860  0.648360  1.0
  Na  Na793  1  0.781410  0.803830  0.072080  1
  Na  Na794  1  0.196170  0.218590  0.427920  1
  Na  Na795  1  0.218590  0.196170  0.927920  1
  Na  Na796  1  0.803830  0.781410  0.572080  1
  Na  Na797  1  0.473540  0.774180  0.040550  1
  Na  Na798  1  0.225820  0.526460  0.459450  1
  Na  Na799  1  0.526460  0.225820  0.959450  1
  Na  Na800  1  0.774180  0.473540  0.540550  1
  Na  Na801  1  0.005310  0.523510  0.899380  1
  Na  Na802  1  0.476490  0.994690  0.600620  1
  Na  Na803  1  0.994690  0.476490  0.100620  1
  Na  Na804  1  0.523510  0.005310  0.399380  1
  Na  Na805  1  1.000000  0.500000  0.000000  1
  Na  Na806  1  0.500000  0.000000  0.500000  1
  Na  Na807  1  0.549320  0.029880  0.110260  1
  Na  Na808  1  0.970120  0.450680  0.389740  1
  Na  Na809  1  0.450680  0.970120  0.889740  1
  Na  Na810  1  0.029880  0.549320  0.610260  1
  Na  Na811  1  0.500000  0.000000  0.000000  1
  Na  Na812  1  1.000000  0.500000  0.500000  1
  Na  Na813  1  0.205700  0.483900  0.963520  1
  Na  Na814  1  0.516100  0.794300  0.536480  1
  Na  Na815  1  0.794300  0.516100  0.036480  1
  Na  Na816  1  0.483900  0.205700  0.463520  1
  O  O817  1  0.768260  0.724740  0.067700  1
  O  O818  1  0.275260  0.231740  0.432300  1
  O  O819  1  0.231740  0.275260  0.932300  1
  O  O820  1  0.724740  0.768260  0.567700  1
  O  O821  1  0.591050  0.030150  0.051640  1
  O  O822  1  0.969850  0.408950  0.448360  1
  O  O823  1  0.408950  0.969850  0.948360  1
  O  O824  1  0.030150  0.591050  0.551640  1
  O  O825  1  0.615680  0.022520  0.154470  1
  O  O826  1  0.977480  0.384320  0.345530  1
  O  O827  1  0.384320  0.977480  0.845530  1
  O  O828  1  0.022520  0.615680  0.654470  1
  O  O829  1  0.590010  0.124390  0.127960  1
  O  O830  1  0.875610  0.409990  0.372040  1
  O  O831  1  0.409990  0.875610  0.872040  1
  O  O832  1  0.124390  0.590010  0.627960  1
  O  O833  1  0.473810  0.029790  0.064050  1
  O  O834  1  0.970210  0.526190  0.435950  1
  O  O835  1  0.526190  0.970210  0.935950  1
  O  O836  1  0.029790  0.473810  0.564050  1
  O  O837  1  0.546740  0.762660  0.041600  1
  O  O838  1  0.237340  0.453260  0.458400  1
  O  O839  1  0.453260  0.237340  0.958400  1
  O  O840  1  0.762660  0.546740  0.541600  1
  O  O841  1  0.396020  0.682780  0.023500  1
  O  O842  1  0.317220  0.603980  0.476500  1
  O  O843  1  0.603980  0.317220  0.976500  1
  O  O844  1  0.682780  0.396020  0.523500  1
  O  O845  1  0.232200  0.416000  0.957200  1
  O  O846  1  0.584000  0.767800  0.542800  1
  O  O847  1  0.767800  0.584000  0.042800  1
  O  O848  1  0.416000  0.232200  0.457200  1
  O  O849  1  0.059060  0.580340  0.976640  1
  O  O850  1  0.419660  0.940940  0.523360  1
  O  O851  1  0.940940  0.419660  0.023360  1
  O  O852  1  0.580340  0.059060  0.476640  1
  O  O853  1  0.945710  0.465530  0.926940  1
  O  O854  1  0.534470  0.054290  0.573060  1
  O  O855  1  0.054290  0.534470  0.073060  1
  O  O856  1  0.465530  0.945710  0.426940  1
  O  O857  1  0.957950  0.469450  0.818800  1
  O  O858  1  0.530550  0.042050  0.681200  1
  O  O859  1  0.042050  0.530550  0.181200  1
  O  O860  1  0.469450  0.957950  0.318800  1
  O  O861  1  0.947690  0.561410  0.895220  1
  O  O862  1  0.438590  0.052310  0.604780  1
  O  O863  1  0.052310  0.438590  0.104780  1
  O  O864  1  0.561410  0.947690  0.395220  1
  O  O865  1  0.085150  0.582650  0.881340  1
  O  O866  1  0.417350  0.914850  0.618660  1
  O  O867  1  0.914850  0.417350  0.118660  1
  O  O868  1  0.582650  0.085150  0.381340  1
  O  O869  1  0.692570  0.771430  0.055000  1
  O  O870  1  0.228570  0.307430  0.445000  1
  O  O871  1  0.307430  0.228570  0.945000  1
  O  O872  1  0.771430  0.692570  0.555000  1
  O  O873  1  0.511670  0.030530  0.171200  1
  O  O874  1  0.969470  0.488330  0.328800  1
  O  O875  1  0.488330  0.969470  0.828800  1
  O  O876  1  0.030530  0.511670  0.671200  1
  O  O877  1  0.703600  0.442000  0.007800  1
  O  O878  1  0.558000  0.296400  0.492200  1
  O  O879  1  0.296400  0.558000  0.992200  1
  O  O880  1  0.442000  0.703600  0.507800  1
  O  O881  1  0.809280  0.848900  0.142770  1.0
  O  O882  1  0.151100  0.190720  0.357230  1.0
  O  O883  1  0.190720  0.151100  0.857230  1.0
  O  O884  1  0.848900  0.809280  0.642770  1.0
  O  O885  1  0.826410  0.923590  0.995020  1.0
  O  O886  1  0.076410  0.173590  0.504980  1.0
  O  O887  1  0.173590  0.076410  0.004980  1.0
  O  O888  1  0.923590  0.826410  0.495020  1.0
  O  O889  1  0.940150  0.974650  0.153300  1.0
  O  O890  1  0.025350  0.059850  0.346700  1.0
  O  O891  1  0.059850  0.025350  0.846700  1.0
  O  O892  1  0.974650  0.940150  0.653300  1.0
  O  O893  1  0.428830  0.827470  0.047260  1.0
  O  O894  1  0.172530  0.571170  0.452740  1.0
  O  O895  1  0.571170  0.172530  0.952740  1.0
  O  O896  1  0.827470  0.428830  0.547260  1.0
  O  O897  1  0.456050  0.914110  0.007870  1.0
  O  O898  1  0.085890  0.543950  0.492130  1.0
  O  O899  1  0.543950  0.085890  0.992130  1.0
  O  O900  1  0.914110  0.456050  0.507870  1.0
  O  O901  1  0.040280  0.465700  0.898030  1.0
  O  O902  1  0.534300  0.959720  0.601970  1.0
  O  O903  1  0.959720  0.534300  0.101970  1.0
  O  O904  1  0.465700  0.040280  0.398030  1.0
  O  O905  1  0.040930  0.455590  0.980920  1.0
  O  O906  1  0.544410  0.959070  0.519080  1.0
  O  O907  1  0.959070  0.544410  0.019080  1.0
  O  O908  1  0.455590  0.040930  0.480920  1.0
  O  O909  1  0.861970  0.947610  0.193100  1.0
  O  O910  1  0.052390  0.138030  0.306900  1.0
  O  O911  1  0.138030  0.052390  0.806900  1.0
  O  O912  1  0.947610  0.861970  0.693100  1.0
  O  O913  1  0.079080  0.108720  0.811260  1.0
  O  O914  1  0.891280  0.920920  0.688740  1.0
  O  O915  1  0.920920  0.891280  0.188740  1.0
  O  O916  1  0.108720  0.079080  0.311260  1.0
  O  O917  1  0.114040  0.132820  0.898550  1.0
  O  O918  1  0.867180  0.885960  0.601450  1.0
  O  O919  1  0.885960  0.867180  0.101450  1.0
  O  O920  1  0.132820  0.114040  0.398550  1.0
  O  O921  1  0.930820  0.959180  0.051100  1.0
  O  O922  1  0.040820  0.069180  0.448900  1.0
  O  O923  1  0.069180  0.040820  0.948900  1.0
  O  O924  1  0.959180  0.930820  0.551100  1.0
  O  O925  1  0.096460  0.126920  0.997400  1.0
  O  O926  1  0.873080  0.903540  0.502600  1.0
  O  O927  1  0.903540  0.873080  0.002600  1.0
  O  O928  1  0.126920  0.096460  0.497400  1.0
  O  O929  1  0.831040  0.906360  0.073520  1.0
  O  O930  1  0.093640  0.168960  0.426480  1.0
  O  O931  1  0.168960  0.093640  0.926480  1.0
  O  O932  1  0.906360  0.831040  0.573520  1.0
  O  O933  1  0.499230  0.819870  0.110660  1.0
  O  O934  1  0.180130  0.500770  0.389340  1.0
  O  O935  1  0.500770  0.180130  0.889340  1.0
  O  O936  1  0.819870  0.499230  0.610660  1.0
  O  O937  1  0.547500  0.921660  0.152160  1.0
  O  O938  1  0.078340  0.452500  0.347840  1.0
  O  O939  1  0.452500  0.078340  0.847840  1.0
  O  O940  1  0.921660  0.547500  0.652160  1.0
  O  O941  1  0.417530  0.848530  0.127170  1.0
  O  O942  1  0.151470  0.582470  0.372830  1.0
  O  O943  1  0.582470  0.151470  0.872830  1.0
  O  O944  1  0.848530  0.417530  0.627170  1.0
  O  O945  1  0.455450  0.784950  0.973340  1.0
  O  O946  1  0.215050  0.544550  0.526660  1.0
  O  O947  1  0.544550  0.215050  0.026660  1.0
  O  O948  1  0.784950  0.455450  0.473340  1.0
  O  O949  1  0.403590  0.824410  0.939450  1.0
  O  O950  1  0.175590  0.596410  0.560550  1.0
  O  O951  1  0.596410  0.175590  0.060550  1.0
  O  O952  1  0.824410  0.403590  0.439450  1.0
  O  O953  1  0.523980  0.894160  0.960880  1.0
  O  O954  1  0.105840  0.476020  0.539120  1.0
  O  O955  1  0.476020  0.105840  0.039120  1.0
  O  O956  1  0.894160  0.523980  0.460880  1.0
  O  O957  1  0.522700  0.876340  0.041840  1.0
  O  O958  1  0.123660  0.477300  0.458160  1.0
  O  O959  1  0.477300  0.123660  0.958160  1.0
  O  O960  1  0.876340  0.522700  0.541840  1.0
  O  O961  1  0.484000  0.934340  0.095050  1.0
  O  O962  1  0.065660  0.516000  0.404950  1.0
  O  O963  1  0.516000  0.065660  0.904950  1.0
  O  O964  1  0.934340  0.484000  0.595050  1.0
  O  O965  1  0.175000  0.461360  0.017080  1.0
  O  O966  1  0.538640  0.825000  0.482920  1.0
  O  O967  1  0.825000  0.538640  0.982920  1.0
  O  O968  1  0.461360  0.175000  0.517080  1.0
  O  O969  1  0.083290  0.413310  0.031160  1.0
  O  O970  1  0.586690  0.916710  0.468840  1.0
  O  O971  1  0.916710  0.586690  0.968840  1.0
  O  O972  1  0.413310  0.083290  0.531160  1.0
  O  O973  1  0.140310  0.539090  0.052050  1.0
  O  O974  1  0.460910  0.859690  0.447950  1.0
  O  O975  1  0.859690  0.460910  0.947950  1.0
  O  O976  1  0.539090  0.140310  0.552050  1.0
  O  O977  1  0.146700  0.515020  0.970770  1.0
  O  O978  1  0.484980  0.853300  0.529230  1.0
  O  O979  1  0.853300  0.484980  0.029230  1.0
  O  O980  1  0.515020  0.146700  0.470770  1.0
  O  O981  1  0.171580  0.474400  0.892520  1.0
  O  O982  1  0.525600  0.828420  0.607480  1.0
  O  O983  1  0.828420  0.525600  0.107480  1.0
  O  O984  1  0.474400  0.171580  0.392520  1.0
  O  O985  1  0.117710  0.519830  0.864670  1.0
  O  O986  1  0.480170  0.882290  0.635330  1.0
  O  O987  1  0.882290  0.480170  0.135330  1.0
  O  O988  1  0.519830  0.117710  0.364670  1.0
  O  O989  1  0.099180  0.416640  0.928040  1.0
  O  O990  1  0.583360  0.900820  0.571960  1.0
  O  O991  1  0.900820  0.583360  0.071960  1.0
  O  O992  1  0.416640  0.099180  0.428040  1.0
  O  O993  1  0.058050  0.391150  0.842420  1.0
  O  O994  1  0.608850  0.941950  0.657580  1.0
  O  O995  1  0.941950  0.608850  0.157580  1.0
  O  O996  1  0.391150  0.058050  0.342420  1.0
  O  O997  1  0.191730  0.177510  0.985830  1.0
  O  O998  1  0.822490  0.808270  0.514170  1.0
  O  O999  1  0.808270  0.822490  0.014170  1.0
  O  O1000  1  0.177510  0.191730  0.485830  1.0
