
#######################################################################
#
#                 Cambridge Crystallographic Data Centre
#                                CCDC 
#
#######################################################################
#
# If this CIF has been generated from an entry in the Cambridge 
# Structural Database, then it will include bibliographic, chemical, 
# crystal, experimental, refinement or atomic coordinate data resulting 
# from the CCDC's data processing and validation procedures.
#
#######################################################################

data_RUVJIC
_chemical_formula_moiety         'C216 H192 Mn12 O60 12-,12(Na1 1+),272(H2 O1)'
_chemical_name_systematic        
'Dodeca-sodium hexakis(\m~4~-tetraoxy-9,10-dimethyl-9,10-dihydro-9,10-ethanoanthracene)-hexakis(\m~2~-tetraoxy-9,10-dimethyl-9,10-dihydro-9,10-ethanoanthracene)-dodeca-aqua-dodeca-manganese(iii) doheptacontadictahydrate'
_symmetry_cell_setting           monoclinic
_symmetry_space_group_name_H-M   'C 2/c'
_symmetry_Int_Tables_number      15
_space_group_name_Hall           '-C 2yn'
loop_
_symmetry_equiv_pos_site_id
_symmetry_equiv_pos_as_xyz
1 x,y,z
2 -x,y,1/2-z
3 1/2+x,1/2+y,z
4 1/2-x,1/2+y,1/2-z
5 -x,-y,-z
6 x,-y,1/2+z
7 1/2-x,1/2-y,-z
8 1/2+x,1/2-y,1/2+z
_cell_length_a                   30.624(4)
_cell_length_b                   51.439(6)
_cell_length_c                   32.370(4)
_cell_angle_alpha                90
_cell_angle_beta                 110.290(2)
_cell_angle_gamma                90
_cell_volume                     47827.4
_exptl_crystal_colour            green
_exptl_crystal_description       rhombic
_cell_formula_units_Z            4
loop_
_atom_site_label
_atom_site_type_symbol
_atom_site_fract_x
_atom_site_fract_y
_atom_site_fract_z
C1 C 0.2635(2) 0.08032(13) 0.75253(19)
H1 H 0.2619 0.0626 0.7420
H2 H 0.2901 0.0888 0.7486
C2 C 0.9289(3) 0.11705(14) 1.2203(2)
H3 H 0.9580 0.1081 1.2334
H4 H 0.9065 0.1104 1.2323
H5 H 0.9334 0.1353 1.2265
C3 C 0.9470(3) 0.12034(16) 1.1489(2)
H6 H 0.9572 0.1380 1.1574
H7 H 0.9740 0.1091 1.1607
O1 O 0.17091(18) 0.01981(10) 0.85723(16)
O2 O 0.1250(2) 0.04859(11) 1.00498(19)
O3 O 0.0426(2) 0.01725(14) 0.8467(2)
O4 O 0.37185(16) 0.19932(9) 0.95274(15)
O5 O 0.31492(18) 0.22903(10) 0.99213(15)
O6 O 0.74701(16) 0.21271(10) 1.10197(16)
O7 O 0.75174(16) 0.20733(9) 1.01908(15)
O21 O 0.09521(19) 0.04282(14) 0.8069(2)
C4 C 0.5445(3) 0.14193(13) 1.19578(19)
H8 H 0.5252 0.1293 1.2035
H9 H 0.5767 0.1369 1.2105
C5 C 0.1843(2) 0.08451(8) 0.78588(14)
C6 C 0.14083(16) 0.07704(10) 0.78634(15)
H10 H 0.1147 0.0870 0.7718
C7 C 0.13642(17) 0.05464(12) 0.80857(19)
C8 C 0.1755(2) 0.03970(8) 0.83034(17)
C9 C 0.21891(19) 0.04716(10) 0.82989(14)
H11 H 0.2450 0.0372 0.8445
C10 C 0.22332(14) 0.06957(11) 0.80766(17)
C11 C 0.27274(19) 0.11022(7) 0.81588(17)
C12 C 0.23366(15) 0.12476(10) 0.79271(14)
C13 C 0.23116(15) 0.15085(10) 0.80285(16)
H12 H 0.2050 0.1606 0.7874
C14 C 0.2677(2) 0.16240(7) 0.83616(17)
C15 C 0.30682(16) 0.14785(10) 0.85932(13)
C16 C 0.30932(15) 0.12176(10) 0.84919(15)
H13 H 0.3355 0.1120 0.8647
C17 C 0.1518(2) 0.12119(17) 0.7372(3)
H14 H 0.1601 0.1342 0.7199
H15 H 0.1416 0.1295 0.7588
H16 H 0.1271 0.1106 0.7183
C18 C 0.1944(3) 0.10400(15) 0.7605(2)
C19 C 0.2184(2) 0.09504(13) 0.72713(18)
H17 H 0.1976 0.0838 0.7049
H18 H 0.2256 0.1101 0.7125
C20 C 0.2682(3) 0.08066(16) 0.8011(2)
C21 C 0.3122(3) 0.06670(14) 0.8298(2)
H19 H 0.3147 0.0680 0.8602
H20 H 0.3389 0.0746 0.8260
H21 H 0.3106 0.0487 0.8215
C22 C 0.26120(15) 0.16768(9) 0.96296(18)
C23 C 0.2250(2) 0.15737(9) 0.92775(12)
H22 H 0.2287 0.1550 0.9007
C24 C 0.18334(16) 0.15057(9) 0.93302(13)
C25 C 0.17784(13) 0.15407(9) 0.97352(17)
C26 C 0.21402(17) 0.16438(8) 1.00873(12)
H23 H 0.2103 0.1667 1.0358
C27 C 0.25570(14) 0.17118(8) 1.00345(14)
C28 C 0.13664(17) 0.10991(9) 0.92641(17)
C29 C 0.13542(17) 0.08459(12) 0.91106(13)
H24 H 0.1393 0.0814 0.8843
C30 C 0.12836(18) 0.06396(8) 0.93576(19)
C31 C 0.12252(18) 0.06866(10) 0.97581(18)
C32 C 0.12373(17) 0.09398(12) 0.99116(13)
H25 H 0.1198 0.0971 1.0180
C33 C 0.13079(18) 0.11461(8) 0.96646(18)
C34 C 0.1508(3) 0.13154(14) 0.8536(2)
H26 H 0.1241 0.1222 0.8348
H27 H 0.1785 0.1218 0.8568
H28 H 0.1526 0.1482 0.8408
C35 C 0.1463(2) 0.13551(13) 0.8993(2)
C36 C 0.1026(3) 0.15248(17) 0.8945(3)
H29 H 0.1057 0.1690 0.8813
H30 H 0.0752 0.1438 0.8747
C37 C 0.0955(3) 0.15762(16) 0.9388(2)
H31 H 0.0974 0.1762 0.9442
H32 H 0.0644 0.1520 0.9362
C38 C 0.1305(2) 0.14406(13) 0.9784(2)
C39 C 0.1277(3) 0.14692(15) 1.0246(2)
H33 H 0.1270 0.1650 1.0315
H34 H 0.1544 0.1389 1.0457
H35 H 0.0999 0.1387 1.0254
C40 C 0.48172(15) 0.24100(9) 0.94059(16)
C41 C 0.44194(18) 0.23633(9) 0.90424(11)
H36 H 0.4406 0.2416 0.8764
C42 C 0.40407(14) 0.22373(9) 0.90954(13)
C43 C 0.40600(14) 0.21579(9) 0.95118(17)
C44 C 0.44578(17) 0.22046(8) 0.98753(11)
H37 H 0.4471 0.2151 1.0154
C45 C 0.48364(13) 0.23306(8) 0.98223(12)
C46 C 0.56598(14) 0.23753(7) 0.96117(14)
C47 C 0.59695(16) 0.22733(9) 0.94259(11)
H38 H 0.5953 0.2325 0.9146
C48 C 0.63036(15) 0.20940(9) 0.96590(16)
C49 C 0.63280(14) 0.20165(8) 1.00778(15)
C50 C 0.60182(17) 0.21185(9) 1.02636(11)
H39 H 0.6035 0.2067 1.0544
C51 C 0.56841(14) 0.22979(9) 1.00305(15)
C52 C 0.5206(2) 0.26501(12) 0.89420(18)
H40 H 0.4948 0.2768 0.8839
H41 H 0.5152 0.2503 0.8748
H42 H 0.5486 0.2737 0.8948
C53 C 0.5261(2) 0.25571(13) 0.9409(2)
C54 C 0.5286(4) 0.27852(16) 0.9722(2)
H43 H 0.4994 0.2880 0.9619
H44 H 0.5531 0.2903 0.9717
C55 C 0.5381(3) 0.26934(12) 1.0197(2)
H45 H 0.5163 0.2774 1.0315
H46 H 0.5694 0.2740 1.0382
C56 C 0.5320(2) 0.23896(13) 1.0180(2)
C57 C 0.5325(2) 0.23039(13) 1.06355(19)
H47 H 0.5069 0.2383 1.0695
H48 H 0.5613 0.2357 1.0856
H49 H 0.5297 0.2118 1.0641
C58 C 0.57766(16) 0.17969(10) 1.15999(14)
C59 C 0.57398(15) 0.15407(10) 1.14554(15)
C60 C 0.60582(18) 0.14418(7) 1.12773(13)
H50 H 0.6034 0.1270 1.1181
C61 C 0.64134(15) 0.15991(10) 1.12436(14)
C62 C 0.64502(15) 0.18553(9) 1.13880(15)
C63 C 0.61318(18) 0.19543(7) 1.15661(14)
H51 H 0.6156 0.2126 1.1663
C64 C 0.48838(17) 0.15676(9) 1.12311(16)
C65 C 0.44996(19) 0.14991(8) 1.08677(16)
H52 H 0.4467 0.1329 1.0762
C66 C 0.41640(15) 0.16843(11) 1.06620(14)
C67 C 0.42125(16) 0.19379(9) 1.08198(16)
C68 C 0.45966(19) 0.20063(8) 1.11832(16)
H53 H 0.4629 0.2176 1.1289
C69 C 0.49323(15) 0.18212(11) 1.13889(13)
C70 C 0.5310(4) 0.11359(19) 1.1241(3)
H54 H 0.5041 0.1045 1.1253
H55 H 0.5585 0.1039 1.1397
H56 H 0.5287 0.1156 1.0939
C71 C 0.5337(3) 0.14065(15) 1.1455(2)
C72 C 0.5369(3) 0.16855(12) 1.2136(2)
H57 H 0.5081 0.1688 1.2199
H58 H 0.5626 0.1729 1.2402
C73 C 0.5344(3) 0.18730(14) 1.1761(2)
C74 C 0.5389(3) 0.21657(14) 1.1894(2)
H59 H 0.5368 0.2270 1.1643
H60 H 0.5684 0.2195 1.2122
H61 H 0.5143 0.2212 1.2000
C75 C 0.75677(17) 0.10037(11) 0.92346(14)
C76 C 0.76767(14) 0.12624(11) 0.93477(15)
H62 H 0.7930 0.1339 0.9300
C77 C 0.74073(19) 0.14065(7) 0.95329(15)
C78 C 0.70289(17) 0.12918(10) 0.96049(13)
C79 C 0.69199(14) 0.10331(11) 0.94917(15)
H63 H 0.6667 0.0956 0.9540
C80 C 0.71893(19) 0.08890(7) 0.93066(15)
C81 C 0.7948(2) 0.05837(9) 0.93334(15)
C82 C 0.75626(16) 0.04612(12) 0.93790(16)
C83 C 0.7621(2) 0.02389(11) 0.96368(19)
H64 H 0.7363 0.0157 0.9667
C84 C 0.8064(3) 0.01392(9) 0.98490(17)
C85 C 0.84496(19) 0.02618(13) 0.98033(19)
C86 C 0.83913(18) 0.04841(12) 0.95455(19)
H65 H 0.8649 0.0566 0.9515
C87 C 0.8260(3) 0.09035(17) 0.8971(3)
H66 H 0.8215 0.1045 0.8766
H67 H 0.8388 0.0757 0.8869
H68 H 0.8469 0.0957 0.9254
C88 C 0.7789(3) 0.08268(16) 0.9007(2)
C89 C 0.7465(3) 0.07221(15) 0.8562(2)
H69 H 0.7627 0.0598 0.8441
H70 H 0.7349 0.0863 0.8352
C90 C 0.7059(3) 0.05882(15) 0.8668(2)
H71 H 0.6770 0.0673 0.8499
H72 H 0.7038 0.0409 0.8572
C91 C 0.7106(3) 0.05923(15) 0.9149(2)
C92 C 0.6678(3) 0.04861(15) 0.9237(2)
H73 H 0.6407 0.0582 0.9065
H74 H 0.6723 0.0505 0.9544
H75 H 0.6638 0.0306 0.9156
C93 C 0.90126(18) 0.08381(9) 1.15525(18)
C94 C 0.90734(19) 0.06227(12) 1.18261(12)
H76 H 0.9170 0.0645 1.2130
C95 C 0.8989(2) 0.03746(10) 1.16457(19)
C96 C 0.8845(2) 0.03419(8) 1.1192(2)
C97 C 0.87837(18) 0.05573(12) 1.09182(12)
H77 H 0.8687 0.0535 1.0614
C98 C 0.88677(18) 0.08054(9) 1.10986(17)
C99 C 0.8523(3) 0.12355(13) 1.0978(2)
C100 C 0.8678(2) 0.12478(13) 1.1426(2)
C101 C 0.8076(2) 0.13418(11) 1.07277(19)
H78 H 0.7944 0.1302 1.0430
C102 C 0.7826(3) 0.15113(14) 1.0931(3)
C103 C 0.7996(3) 0.15303(13) 1.1372(2)
C104 C 0.8405(3) 0.14061(14) 1.1650(2)
H79 H 0.8502 0.1421 1.1955
C105 C 0.9111(3) 0.11280(15) 1.1704(2)
C106 C 0.9299(3) 0.11863(14) 1.0988(2)
H80 H 0.9524 0.1094 1.0894
H81 H 0.9259 0.1359 1.0861
C107 C 0.8828(3) 0.10397(15) 1.0836(2)
C108 C 0.8609(3) 0.09946(15) 1.0342(2)
H82 H 0.8611 0.1154 1.0189
H83 H 0.8294 0.0936 1.0273
H84 H 0.8784 0.0865 1.0253
O24 O 0.9061(2) 0.01482(12) 1.18874(19)
O25 O 0.87657(18) 0.00939(11) 1.10145(17)
O26 O 0.0550(2) 0.01418(14) 0.9489(3)
O27 O 0.88831(19) 0.01523(12) 1.0026(2)
O28 O 0.1313(2) 0.03766(12) 0.92648(19)
O29 O 0.34045(16) 0.16032(9) 0.88934(15)
O30 O 0.26542(17) 0.18708(9) 0.84784(16)
O31 O 0.36697(16) 0.21550(8) 0.87283(14)
O32 O 0.37980(16) 0.16475(9) 1.02666(15)
O33 O 0.38600(16) 0.21041(9) 1.06055(14)
O34 O 0.29093(18) 0.18509(10) 1.03912(17)
O35 O 0.30048(16) 0.17682(10) 0.95816(15)
O36 O 0.29083(17) 0.22517(9) 0.90495(14)
O37 O 0.68182(19) 0.14318(10) 0.98292(17)
O38 O 0.75170(14) 0.16501(8) 0.96884(13)
O39 O 0.66030(14) 0.19939(8) 0.94795(13)
O40 O 0.66914(15) 0.18416(8) 1.02923(13)
O41 O 0.67701(16) 0.15141(9) 1.10748(14)
O42 O 0.68123(15) 0.20106(9) 1.13533(14)
O43 O 0.74209(15) 0.15873(7) 1.07196(13)
O44 O 0.77540(16) 0.16655(9) 1.15758(15)
O45 O 0.81538(18) -0.00711(10) 1.01417(17)
Mn1 Mn 0.71174(4) 0.17653(2) 0.99856(4)
Mn2 Mn 0.34130(4) 0.19539(2) 1.00916(4)
Mn3 Mn 0.71519(4) 0.18216(2) 1.10549(4)
Mn4 Mn 0.31965(4) 0.19514(2) 0.89813(4)
Mn5 Mn 0.11978(6) 0.01293(3) 0.96246(6)
Mn6 Mn 0.10664(6) 0.01650(3) 0.85164(6)
C1D C 0.7365(2) -0.08032(13) 1.24747(19)
H1D H 0.7381 -0.0626 1.2580
H2D H 0.7099 -0.0888 1.2514
C2D C 0.0711(3) -0.11705(14) 0.7797(2)
H3D H 0.0420 -0.1081 0.7666
H4D H 0.0935 -0.1104 0.7677
H5D H 0.0666 -0.1353 0.7735
C3D C 0.0530(3) -0.12034(16) 0.8511(2)
H6D H 0.0428 -0.1380 0.8426
H7D H 0.0260 -0.1091 0.8393
O1D O 0.82909(18) -0.01981(10) 1.14277(16)
O2D O 0.8750(2) -0.04859(11) 0.99502(19)
O3D O 0.9574(2) -0.01725(14) 1.1533(2)
O4D O 0.62815(16) -0.19932(9) 1.04726(15)
O5D O 0.68508(18) -0.22903(10) 1.00787(15)
O6D O 0.25299(16) -0.21271(10) 0.89803(16)
O7D O 0.24826(16) -0.20733(9) 0.98092(15)
O21D O 0.90479(19) -0.04282(14) 1.1931(2)
C4D C 0.4555(3) -0.14193(13) 0.80422(19)
H8D H 0.4748 -0.1293 0.7965
H9D H 0.4233 -0.1369 0.7895
C5D C 0.8157(2) -0.08451(8) 1.21412(14)
C6D C 0.85917(16) -0.07704(10) 1.21366(15)
H10D H 0.8853 -0.0870 1.2282
C7D C 0.86358(17) -0.05464(12) 1.19143(19)
C8D C 0.8245(2) -0.03970(8) 1.16966(17)
C9D C 0.78109(19) -0.04716(10) 1.17011(14)
H11D H 0.7550 -0.0372 1.1555
C10D C 0.77668(14) -0.06957(11) 1.19234(17)
C11D C 0.72726(19) -0.11022(7) 1.18412(17)
C12D C 0.76634(15) -0.12476(10) 1.20729(14)
C13D C 0.76884(15) -0.15085(10) 1.19715(16)
H12D H 0.7950 -0.1606 1.2126
C14D C 0.7323(2) -0.16240(7) 1.16384(17)
C15D C 0.69318(16) -0.14785(10) 1.14068(13)
C16D C 0.69068(15) -0.12176(10) 1.15081(15)
H13D H 0.6645 -0.1120 1.1353
C17D C 0.8482(2) -0.12119(17) 1.2628(3)
H14D H 0.8399 -0.1342 1.2801
H15D H 0.8584 -0.1295 1.2412
H16D H 0.8729 -0.1106 1.2817
C18D C 0.8056(3) -0.10400(15) 1.2395(2)
C19D C 0.7816(2) -0.09504(13) 1.27287(18)
H17D H 0.8024 -0.0838 1.2951
H18D H 0.7744 -0.1101 1.2875
C20D C 0.7318(3) -0.08066(16) 1.1989(2)
C21D C 0.6878(3) -0.06670(14) 1.1702(2)
H19D H 0.6853 -0.0680 1.1398
H20D H 0.6611 -0.0746 1.1740
H21D H 0.6894 -0.0487 1.1785
C22D C 0.73880(15) -0.16768(9) 1.03704(18)
C23D C 0.7750(2) -0.15737(9) 1.07225(12)
H22D H 0.7713 -0.1550 1.0993
C24D C 0.81666(16) -0.15057(9) 1.06698(13)
C25D C 0.82216(13) -0.15407(9) 1.02648(17)
C26D C 0.78598(17) -0.16438(8) 0.99127(12)
H23D H 0.7897 -0.1667 0.9642
C27D C 0.74430(14) -0.17118(8) 0.99655(14)
C28D C 0.86336(17) -0.10991(9) 1.07359(17)
C29D C 0.86458(17) -0.08459(12) 1.08894(13)
H24D H 0.8607 -0.0814 1.1157
C30D C 0.87164(18) -0.06396(8) 1.06424(19)
C31D C 0.87748(18) -0.06866(10) 1.02419(18)
C32D C 0.87627(17) -0.09398(12) 1.00884(13)
H25D H 0.8802 -0.0971 0.9820
C33D C 0.86921(18) -0.11461(8) 1.03354(18)
C34D C 0.8492(3) -0.13154(14) 1.1464(2)
H26D H 0.8759 -0.1222 1.1652
H27D H 0.8215 -0.1218 1.1432
H28D H 0.8474 -0.1482 1.1592
C35D C 0.8537(2) -0.13551(13) 1.1007(2)
C36D C 0.8974(3) -0.15248(17) 1.1055(3)
H29D H 0.8943 -0.1690 1.1187
H30D H 0.9248 -0.1438 1.1253
C37D C 0.9045(3) -0.15762(16) 1.0612(2)
H31D H 0.9026 -0.1762 1.0558
H32D H 0.9356 -0.1520 1.0638
C38D C 0.8695(2) -0.14406(13) 1.0216(2)
C39D C 0.8723(3) -0.14692(15) 0.9754(2)
H33D H 0.8730 -0.1650 0.9685
H34D H 0.8456 -0.1389 0.9543
H35D H 0.9001 -0.1387 0.9746
C40D C 0.51828(15) -0.24100(9) 1.05941(16)
C41D C 0.55806(18) -0.23633(9) 1.09576(11)
H36D H 0.5594 -0.2416 1.1236
C42D C 0.59593(14) -0.22373(9) 1.09046(13)
C43D C 0.59400(14) -0.21579(9) 1.04882(17)
C44D C 0.55422(17) -0.22046(8) 1.01247(11)
H37D H 0.5529 -0.2151 0.9846
C45D C 0.51636(13) -0.23306(8) 1.01777(12)
C46D C 0.43402(14) -0.23753(7) 1.03883(14)
C47D C 0.40305(16) -0.22733(9) 1.05741(11)
H38D H 0.4047 -0.2325 1.0854
C48D C 0.36964(15) -0.20940(9) 1.03410(16)
C49D C 0.36720(14) -0.20165(8) 0.99222(15)
C50D C 0.39818(17) -0.21185(9) 0.97364(11)
H39D H 0.3965 -0.2067 0.9456
C51D C 0.43159(14) -0.22979(9) 0.99695(15)
C52D C 0.4794(2) -0.26501(12) 1.10580(18)
H40D H 0.5052 -0.2768 1.1161
H41D H 0.4848 -0.2503 1.1252
H42D H 0.4514 -0.2737 1.1052
C53D C 0.4739(2) -0.25571(13) 1.0591(2)
C54D C 0.4714(4) -0.27852(16) 1.0278(2)
H43D H 0.5006 -0.2880 1.0381
H44D H 0.4469 -0.2903 1.0283
C55D C 0.4619(3) -0.26934(12) 0.9803(2)
H45D H 0.4837 -0.2774 0.9685
H46D H 0.4306 -0.2740 0.9618
C56D C 0.4680(2) -0.23896(13) 0.9820(2)
C57D C 0.4675(2) -0.23039(13) 0.93645(19)
H47D H 0.4931 -0.2383 0.9305
H48D H 0.4387 -0.2357 0.9144
H49D H 0.4703 -0.2118 0.9359
C58D C 0.42234(16) -0.17969(10) 0.84001(14)
C59D C 0.42602(15) -0.15407(10) 0.85446(15)
C60D C 0.39418(18) -0.14418(7) 0.87227(13)
H50D H 0.3966 -0.1270 0.8819
C61D C 0.35866(15) -0.15991(10) 0.87564(14)
C62D C 0.35498(15) -0.18553(9) 0.86120(15)
C63D C 0.38682(18) -0.19543(7) 0.84339(14)
H51D H 0.3844 -0.2126 0.8337
C64D C 0.51162(17) -0.15676(9) 0.87689(16)
C65D C 0.55004(19) -0.14991(8) 0.91323(16)
H52D H 0.5533 -0.1329 0.9238
C66D C 0.58360(15) -0.16843(11) 0.93380(14)
C67D C 0.57875(16) -0.19379(9) 0.91802(16)
C68D C 0.54034(19) -0.20063(8) 0.88168(16)
H53D H 0.5371 -0.2176 0.8711
C69D C 0.50677(15) -0.18212(11) 0.86111(13)
C70D C 0.4690(4) -0.11359(19) 0.8759(3)
H54D H 0.4959 -0.1045 0.8747
H55D H 0.4415 -0.1039 0.8603
H56D H 0.4713 -0.1156 0.9061
C71D C 0.4663(3) -0.14065(15) 0.8545(2)
C72D C 0.4631(3) -0.16855(12) 0.7864(2)
H57D H 0.4919 -0.1688 0.7801
H58D H 0.4374 -0.1729 0.7598
C73D C 0.4656(3) -0.18730(14) 0.8239(2)
C74D C 0.4611(3) -0.21657(14) 0.8106(2)
H59D H 0.4632 -0.2270 0.8357
H60D H 0.4316 -0.2195 0.7878
H61D H 0.4857 -0.2212 0.8000
C75D C 0.24323(17) -0.10037(11) 1.07654(14)
C76D C 0.23233(14) -0.12624(11) 1.06523(15)
H62D H 0.2070 -0.1339 1.0700
C77D C 0.25927(19) -0.14065(7) 1.04671(15)
C78D C 0.29711(17) -0.12918(10) 1.03951(13)
C79D C 0.30801(14) -0.10331(11) 1.05083(15)
H63D H 0.3333 -0.0956 1.0460
C80D C 0.28107(19) -0.08890(7) 1.06934(15)
C81D C 0.2052(2) -0.05837(9) 1.06666(15)
C82D C 0.24374(16) -0.04612(12) 1.06210(16)
C83D C 0.2379(2) -0.02389(11) 1.03632(19)
H64D H 0.2637 -0.0157 1.0333
C84D C 0.1936(3) -0.01392(9) 1.01510(17)
C85D C 0.15504(19) -0.02618(13) 1.01967(19)
C86D C 0.16087(18) -0.04841(12) 1.04545(19)
H65D H 0.1351 -0.0566 1.0485
C87D C 0.1740(3) -0.09035(17) 1.1029(3)
H66D H 0.1785 -0.1045 1.1234
H67D H 0.1612 -0.0757 1.1131
H68D H 0.1531 -0.0957 1.0746
C88D C 0.2211(3) -0.08268(16) 1.0993(2)
C89D C 0.2535(3) -0.07221(15) 1.1438(2)
H69D H 0.2373 -0.0598 1.1559
H70D H 0.2651 -0.0863 1.1648
C90D C 0.2941(3) -0.05882(15) 1.1332(2)
H71D H 0.3230 -0.0673 1.1501
H72D H 0.2962 -0.0409 1.1428
C91D C 0.2894(3) -0.05923(15) 1.0851(2)
C92D C 0.3322(3) -0.04861(15) 1.0763(2)
H73D H 0.3593 -0.0582 1.0935
H74D H 0.3277 -0.0505 1.0456
H75D H 0.3362 -0.0306 1.0844
C93D C 0.09874(18) -0.08381(9) 0.84475(18)
C94D C 0.09266(19) -0.06227(12) 0.81739(12)
H76D H 0.0830 -0.0645 0.7870
C95D C 0.1011(2) -0.03746(10) 0.83543(19)
C96D C 0.1155(2) -0.03419(8) 0.8808(2)
C97D C 0.12163(18) -0.05573(12) 0.90818(12)
H77D H 0.1313 -0.0535 0.9386
C98D C 0.11323(18) -0.08054(9) 0.89014(17)
C99D C 0.1477(3) -0.12355(13) 0.9022(2)
C100D C 0.1322(2) -0.12478(13) 0.8574(2)
C101D C 0.1924(2) -0.13418(11) 0.92723(19)
H78D H 0.2056 -0.1302 0.9570
C102D C 0.2174(3) -0.15113(14) 0.9069(3)
C103D C 0.2004(3) -0.15303(13) 0.8628(2)
C104D C 0.1595(3) -0.14061(14) 0.8350(2)
H79D H 0.1498 -0.1421 0.8045
C105D C 0.0889(3) -0.11280(15) 0.8296(2)
C106D C 0.0701(3) -0.11863(14) 0.9012(2)
H80D H 0.0476 -0.1094 0.9106
H81D H 0.0741 -0.1359 0.9139
C107D C 0.1172(3) -0.10397(15) 0.9164(2)
C108D C 0.1391(3) -0.09946(15) 0.9658(2)
H82D H 0.1389 -0.1154 0.9811
H83D H 0.1706 -0.0936 0.9727
H84D H 0.1216 -0.0865 0.9747
O24D O 0.0939(2) -0.01482(12) 0.81126(19)
O25D O 0.12343(18) -0.00939(11) 0.89855(17)
O26D O 0.9450(2) -0.01418(14) 1.0511(3)
O27D O 0.11169(19) -0.01523(12) 0.9974(2)
O28D O 0.8687(2) -0.03766(12) 1.07352(19)
O29D O 0.65955(16) -0.16032(9) 1.11066(15)
O30D O 0.73458(17) -0.18708(9) 1.15216(16)
O31D O 0.63303(16) -0.21550(8) 1.12717(14)
O32D O 0.62020(16) -0.16475(9) 0.97334(15)
O33D O 0.61400(16) -0.21041(9) 0.93945(14)
O34D O 0.70907(18) -0.18509(10) 0.96088(17)
O35D O 0.69952(16) -0.17682(10) 1.04184(15)
O36D O 0.70917(17) -0.22517(9) 1.09505(14)
O37D O 0.31818(19) -0.14318(10) 1.01708(17)
O38D O 0.24830(14) -0.16501(8) 1.03116(13)
O39D O 0.33970(14) -0.19939(8) 1.05205(13)
O40D O 0.33086(15) -0.18416(8) 0.97077(13)
O41D O 0.32299(16) -0.15141(9) 0.89252(14)
O42D O 0.31877(15) -0.20106(9) 0.86467(14)
O43D O 0.25791(15) -0.15873(7) 0.92804(13)
O44D O 0.22460(16) -0.16655(9) 0.84242(15)
O45D O 0.18462(18) 0.00711(10) 0.98583(17)
Mn1D Mn 0.28826(4) -0.17653(2) 1.00144(4)
Mn2D Mn 0.65870(4) -0.19539(2) 0.99084(4)
Mn3D Mn 0.28481(4) -0.18216(2) 0.89451(4)
Mn4D Mn 0.68035(4) -0.19514(2) 1.10187(4)
Mn5D Mn 0.88022(6) -0.01293(3) 1.03754(6)
Mn6D Mn 0.89336(6) -0.01650(3) 1.14836(6)
O8 O 0.2535(2) -0.02176(13) 0.9323(2)
O9 O 0.18940(18) 0.21955(10) 0.94836(15)
O10 O 0.1809(2) 0.20342(12) 0.84553(19)
O11 O 0.1428(2) 0.26719(11) 0.87204(17)
O12 O 0.24820(19) 0.27799(10) 0.93595(16)
O13 O 0.3453(3) 0.10796(14) 0.9584(2)
O14 O 0.4606(3) 0.14338(15) 0.9765(2)
O15 O 0.6759(3) 0.09190(18) 1.0428(3)
O16 O 0.68030(17) 0.26064(9) 1.02336(14)
O17 O 0.79438(16) 0.25991(9) 1.07306(14)
O18 O 0.7863(2) 0.25575(13) 1.1812(2)
O19 O 0.74545(19) 0.30686(10) 1.10478(16)
O20 O 0.6661(2) 0.24875(11) 1.11866(18)
Na1 Na 0.20738(13) 0.01121(7) 0.92792(11)
Na2 Na 0.37614(13) 0.15032(7) 0.95945(11)
Na3 Na 0.73559(11) 0.25910(6) 1.10062(10)
Na4 Na 0.7500 0.2500 1.0000
Na5 Na 0.21040(12) 0.24028(6) 0.88974(10)
Na6 Na 0.2500 0.2500 1.0000
Na7 Na 0.65520(13) 0.13910(7) 1.03648(12)
O22 O 0.2680(3) 0.03943(14) 0.9450(2)
O23 O 0.2289(3) 0.25943(15) 0.8288(2)
loop_
_geom_bond_atom_site_label_1
_geom_bond_atom_site_label_2
_geom_bond_site_symmetry_1
_geom_bond_site_symmetry_2
C1 H1 1_555 1_555
H2 C1 1_555 1_555
C2 H3 1_555 1_555
H4 C2 1_555 1_555
H5 C2 1_555 1_555
C3 H6 1_555 1_555
H7 C3 1_555 1_555
O1 C8 1_555 1_555
O2 C31 1_555 1_555
O3 Mn6 1_555 1_555
O4 C43 1_555 1_555
O5 Mn2 1_555 1_555
O6 Mn3 1_555 1_555
O7 Mn1 1_555 1_555
O21 C7 1_555 1_555
C4 H8 1_555 1_555
H9 C4 1_555 1_555
C5 C6 1_555 1_555
C6 H10 1_555 1_555
C7 C6 1_555 1_555
C8 C7 1_555 1_555
C9 C8 1_555 1_555
H11 C9 1_555 1_555
C10 C5 1_555 1_555
C11 C12 1_555 1_555
C12 C13 1_555 1_555
C13 H12 1_555 1_555
C14 C13 1_555 1_555
C15 C14 1_555 1_555
C16 C11 1_555 1_555
H13 C16 1_555 1_555
C17 H14 1_555 1_555
H15 C17 1_555 1_555
H16 C17 1_555 1_555
C18 C5 1_555 1_555
C19 C1 1_555 1_555
H17 C19 1_555 1_555
H18 C19 1_555 1_555
C20 C1 1_555 1_555
C21 C20 1_555 1_555
H19 C21 1_555 1_555
H20 C21 1_555 1_555
H21 C21 1_555 1_555
C22 C23 1_555 1_555
C23 H22 1_555 1_555
C24 C23 1_555 1_555
C25 C24 1_555 1_555
C26 C25 1_555 1_555
H23 C26 1_555 1_555
C27 C22 1_555 1_555
C28 C29 1_555 1_555
C29 H24 1_555 1_555
C30 C29 1_555 1_555
C31 C30 1_555 1_555
C32 C31 1_555 1_555
H25 C32 1_555 1_555
C33 C28 1_555 1_555
C34 H26 1_555 1_555
H27 C34 1_555 1_555
H28 C34 1_555 1_555
C35 C24 1_555 1_555
C36 C35 1_555 1_555
H29 C36 1_555 1_555
H30 C36 1_555 1_555
C37 C36 1_555 1_555
H31 C37 1_555 1_555
H32 C37 1_555 1_555
C38 C25 1_555 1_555
C39 C38 1_555 1_555
H33 C39 1_555 1_555
H34 C39 1_555 1_555
H35 C39 1_555 1_555
C40 C41 1_555 1_555
C41 H36 1_555 1_555
C42 C41 1_555 1_555
C43 C42 1_555 1_555
C44 C43 1_555 1_555
H37 C44 1_555 1_555
C45 C40 1_555 1_555
C46 C47 1_555 1_555
C47 H38 1_555 1_555
C48 C47 1_555 1_555
C49 C48 1_555 1_555
C50 C49 1_555 1_555
H39 C50 1_555 1_555
C51 C46 1_555 1_555
C52 H40 1_555 1_555
H41 C52 1_555 1_555
H42 C52 1_555 1_555
C53 C40 1_555 1_555
C54 C53 1_555 1_555
H43 C54 1_555 1_555
H44 C54 1_555 1_555
C55 C54 1_555 1_555
H45 C55 1_555 1_555
H46 C55 1_555 1_555
C56 C45 1_555 1_555
C57 C56 1_555 1_555
H47 C57 1_555 1_555
H48 C57 1_555 1_555
H49 C57 1_555 1_555
C58 C59 1_555 1_555
C59 C60 1_555 1_555
C60 H50 1_555 1_555
C61 C60 1_555 1_555
C62 C61 1_555 1_555
C63 C58 1_555 1_555
H51 C63 1_555 1_555
C64 C65 1_555 1_555
C65 H52 1_555 1_555
C66 C65 1_555 1_555
C67 C66 1_555 1_555
C68 C67 1_555 1_555
H53 C68 1_555 1_555
C69 C64 1_555 1_555
C70 H54 1_555 1_555
H55 C70 1_555 1_555
H56 C70 1_555 1_555
C71 C4 1_555 1_555
C72 C4 1_555 1_555
H57 C72 1_555 1_555
H58 C72 1_555 1_555
C73 C58 1_555 1_555
C74 C73 1_555 1_555
H59 C74 1_555 1_555
H60 C74 1_555 1_555
H61 C74 1_555 1_555
C75 C76 1_555 1_555
C76 H62 1_555 1_555
C77 C76 1_555 1_555
C78 C77 1_555 1_555
C79 C78 1_555 1_555
H63 C79 1_555 1_555
C80 C75 1_555 1_555
C81 C82 1_555 1_555
C82 C83 1_555 1_555
C83 H64 1_555 1_555
C84 C83 1_555 1_555
C85 C84 1_555 1_555
C86 C81 1_555 1_555
H65 C86 1_555 1_555
C87 H66 1_555 1_555
H67 C87 1_555 1_555
H68 C87 1_555 1_555
C88 C75 1_555 1_555
C89 C88 1_555 1_555
H69 C89 1_555 1_555
H70 C89 1_555 1_555
C90 C89 1_555 1_555
H71 C90 1_555 1_555
H72 C90 1_555 1_555
C91 C80 1_555 1_555
C92 C91 1_555 1_555
H73 C92 1_555 1_555
H74 C92 1_555 1_555
H75 C92 1_555 1_555
C93 C94 1_555 1_555
C94 H76 1_555 1_555
C95 C94 1_555 1_555
C96 C95 1_555 1_555
C97 C96 1_555 1_555
H77 C97 1_555 1_555
C98 C93 1_555 1_555
C99 C100 1_555 1_555
C100 C104 1_555 1_555
C101 C99 1_555 1_555
H78 C101 1_555 1_555
C102 C101 1_555 1_555
C103 C102 1_555 1_555
C104 C103 1_555 1_555
H79 C104 1_555 1_555
C105 C2 1_555 1_555
C106 C3 1_555 1_555
H80 C106 1_555 1_555
H81 C106 1_555 1_555
C107 C98 1_555 1_555
C108 C107 1_555 1_555
H82 C108 1_555 1_555
H83 C108 1_555 1_555
H84 C108 1_555 1_555
O24 C95 1_555 1_555
O25 C96 1_555 1_555
O26 Mn5 1_555 1_555
O27 C85 1_555 1_555
O28 C30 1_555 1_555
O29 C15 1_555 1_555
O30 C14 1_555 1_555
O31 C42 1_555 1_555
O32 C66 1_555 1_555
O33 C67 1_555 1_555
O34 C27 1_555 1_555
O35 C22 1_555 1_555
O36 Mn4 1_555 1_555
O37 C78 1_555 1_555
O38 C77 1_555 1_555
O39 C48 1_555 1_555
O40 C49 1_555 1_555
O41 C61 1_555 1_555
O42 C62 1_555 1_555
O43 C102 1_555 1_555
O44 C103 1_555 1_555
O45 C84 1_555 1_555
Mn1 O37 1_555 1_555
Mn2 O4 1_555 1_555
Mn3 O40 1_555 1_555
Mn4 O4 1_555 1_555
Mn5 O2 1_555 1_555
Mn6 O1 1_555 1_555
C1D H1D 1_555 1_555
H2D C1D 1_555 1_555
C2D H3D 1_555 1_555
H4D C2D 1_555 1_555
H5D C2D 1_555 1_555
C3D H6D 1_555 1_555
H7D C3D 1_555 1_555
O1D C8D 1_555 1_555
O2D C31D 1_555 1_555
O3D Mn6D 1_555 1_555
O4D C43D 1_555 1_555
O5D Mn2D 1_555 1_555
O6D Mn3D 1_555 1_555
O7D Mn1D 1_555 1_555
O21D C7D 1_555 1_555
C4D H8D 1_555 1_555
H9D C4D 1_555 1_555
C5D C6D 1_555 1_555
C6D H10D 1_555 1_555
C7D C6D 1_555 1_555
C8D C7D 1_555 1_555
C9D C8D 1_555 1_555
H11D C9D 1_555 1_555
C10D C5D 1_555 1_555
C11D C12D 1_555 1_555
C12D C13D 1_555 1_555
C13D H12D 1_555 1_555
C14D C13D 1_555 1_555
C15D C14D 1_555 1_555
C16D C11D 1_555 1_555
H13D C16D 1_555 1_555
C17D H14D 1_555 1_555
H15D C17D 1_555 1_555
H16D C17D 1_555 1_555
C18D C5D 1_555 1_555
C19D C1D 1_555 1_555
H17D C19D 1_555 1_555
H18D C19D 1_555 1_555
C20D C1D 1_555 1_555
C21D C20D 1_555 1_555
H19D C21D 1_555 1_555
H20D C21D 1_555 1_555
H21D C21D 1_555 1_555
C22D C23D 1_555 1_555
C23D H22D 1_555 1_555
C24D C23D 1_555 1_555
C25D C24D 1_555 1_555
C26D C25D 1_555 1_555
H23D C26D 1_555 1_555
C27D C22D 1_555 1_555
C28D C29D 1_555 1_555
C29D H24D 1_555 1_555
C30D C29D 1_555 1_555
C31D C30D 1_555 1_555
C32D C31D 1_555 1_555
H25D C32D 1_555 1_555
C33D C28D 1_555 1_555
C34D H26D 1_555 1_555
H27D C34D 1_555 1_555
H28D C34D 1_555 1_555
C35D C24D 1_555 1_555
C36D C35D 1_555 1_555
H29D C36D 1_555 1_555
H30D C36D 1_555 1_555
C37D C36D 1_555 1_555
H31D C37D 1_555 1_555
H32D C37D 1_555 1_555
C38D C25D 1_555 1_555
C39D C38D 1_555 1_555
H33D C39D 1_555 1_555
H34D C39D 1_555 1_555
H35D C39D 1_555 1_555
C40D C41D 1_555 1_555
C41D H36D 1_555 1_555
C42D C41D 1_555 1_555
C43D C42D 1_555 1_555
C44D C43D 1_555 1_555
H37D C44D 1_555 1_555
C45D C40D 1_555 1_555
C46D C47D 1_555 1_555
C47D H38D 1_555 1_555
C48D C47D 1_555 1_555
C49D C48D 1_555 1_555
C50D C49D 1_555 1_555
H39D C50D 1_555 1_555
C51D C46D 1_555 1_555
C52D H40D 1_555 1_555
H41D C52D 1_555 1_555
H42D C52D 1_555 1_555
C53D C40D 1_555 1_555
C54D C53D 1_555 1_555
H43D C54D 1_555 1_555
H44D C54D 1_555 1_555
C55D C54D 1_555 1_555
H45D C55D 1_555 1_555
H46D C55D 1_555 1_555
C56D C45D 1_555 1_555
C57D C56D 1_555 1_555
H47D C57D 1_555 1_555
H48D C57D 1_555 1_555
H49D C57D 1_555 1_555
C58D C59D 1_555 1_555
C59D C60D 1_555 1_555
C60D H50D 1_555 1_555
C61D C60D 1_555 1_555
C62D C61D 1_555 1_555
C63D C58D 1_555 1_555
H51D C63D 1_555 1_555
C64D C65D 1_555 1_555
C65D H52D 1_555 1_555
C66D C65D 1_555 1_555
C67D C66D 1_555 1_555
C68D C67D 1_555 1_555
H53D C68D 1_555 1_555
C69D C64D 1_555 1_555
C70D H54D 1_555 1_555
H55D C70D 1_555 1_555
H56D C70D 1_555 1_555
C71D C4D 1_555 1_555
C72D C4D 1_555 1_555
H57D C72D 1_555 1_555
H58D C72D 1_555 1_555
C73D C58D 1_555 1_555
C74D C73D 1_555 1_555
H59D C74D 1_555 1_555
H60D C74D 1_555 1_555
H61D C74D 1_555 1_555
C75D C76D 1_555 1_555
C76D H62D 1_555 1_555
C77D C76D 1_555 1_555
C78D C77D 1_555 1_555
C79D C78D 1_555 1_555
H63D C79D 1_555 1_555
C80D C75D 1_555 1_555
C81D C82D 1_555 1_555
C82D C83D 1_555 1_555
C83D H64D 1_555 1_555
C84D C83D 1_555 1_555
C85D C84D 1_555 1_555
C86D C81D 1_555 1_555
H65D C86D 1_555 1_555
C87D H66D 1_555 1_555
H67D C87D 1_555 1_555
H68D C87D 1_555 1_555
C88D C75D 1_555 1_555
C89D C88D 1_555 1_555
H69D C89D 1_555 1_555
H70D C89D 1_555 1_555
C90D C89D 1_555 1_555
H71D C90D 1_555 1_555
H72D C90D 1_555 1_555
C91D C80D 1_555 1_555
C92D C91D 1_555 1_555
H73D C92D 1_555 1_555
H74D C92D 1_555 1_555
H75D C92D 1_555 1_555
C93D C94D 1_555 1_555
C94D H76D 1_555 1_555
C95D C94D 1_555 1_555
C96D C95D 1_555 1_555
C97D C96D 1_555 1_555
H77D C97D 1_555 1_555
C98D C93D 1_555 1_555
C99D C100D 1_555 1_555
C100D C104D 1_555 1_555
C101D C99D 1_555 1_555
H78D C101D 1_555 1_555
C102D C101D 1_555 1_555
C103D C102D 1_555 1_555
C104D C103D 1_555 1_555
H79D C104D 1_555 1_555
C105D C2D 1_555 1_555
C106D C3D 1_555 1_555
H80D C106D 1_555 1_555
H81D C106D 1_555 1_555
C107D C98D 1_555 1_555
C108D C107D 1_555 1_555
H82D C108D 1_555 1_555
H83D C108D 1_555 1_555
H84D C108D 1_555 1_555
O24D Mn6 1_555 1_555
O25D Mn5 1_555 1_555
O26D Mn5D 1_555 1_555
O27D Mn5 1_555 1_555
O28D C30D 1_555 1_555
O29D C15D 1_555 1_555
O30D C14D 1_555 1_555
O31D C42D 1_555 1_555
O32D C66D 1_555 1_555
O33D C67D 1_555 1_555
O34D C27D 1_555 1_555
O35D C22D 1_555 1_555
O36D Mn4D 1_555 1_555
O37D C78D 1_555 1_555
O38D C77D 1_555 1_555
O39D C48D 1_555 1_555
O40D C49D 1_555 1_555
O41D C61D 1_555 1_555
O42D C62D 1_555 1_555
O43D C102D 1_555 1_555
O44D C103D 1_555 1_555
O45D Mn5 1_555 1_555
Mn1D O37D 1_555 1_555
Mn2D O4D 1_555 1_555
Mn3D O40D 1_555 1_555
Mn4D O4D 1_555 1_555
Mn5D O25 1_555 1_555
Mn6D O24 1_555 1_555
C3 C105 1_555 1_555
O21 Mn6 1_555 1_555
C9 C10 1_555 1_555
C10 C20 1_555 1_555
C11 C20 1_555 1_555
C12 C18 1_555 1_555
C15 C16 1_555 1_555
C17 C18 1_555 1_555
C18 C19 1_555 1_555
C26 C27 1_555 1_555
C28 C35 1_555 1_555
C32 C33 1_555 1_555
C33 C38 1_555 1_555
C34 C35 1_555 1_555
C37 C38 1_555 1_555
C44 C45 1_555 1_555
C46 C53 1_555 1_555
C50 C51 1_555 1_555
C51 C56 1_555 1_555
C52 C53 1_555 1_555
C55 C56 1_555 1_555
C59 C71 1_555 1_555
C62 C63 1_555 1_555
C64 C71 1_555 1_555
C68 C69 1_555 1_555
C69 C73 1_555 1_555
C70 C71 1_555 1_555
C72 C73 1_555 1_555
C79 C80 1_555 1_555
C81 C88 1_555 1_555
C82 C91 1_555 1_555
C85 C86 1_555 1_555
C87 C88 1_555 1_555
C90 C91 1_555 1_555
C93 C105 1_555 1_555
C97 C98 1_555 1_555
C99 C107 1_555 1_555
C100 C105 1_555 1_555
C106 C107 1_555 1_555
O25 Mn6D 1_555 1_555
O27 Mn5D 1_555 1_555
O28 Mn5 1_555 1_555
O28 Mn6 1_555 1_555
O29 Mn4 1_555 1_555
O30 Mn4 1_555 1_555
O31 Mn4 1_555 1_555
O32 Mn2 1_555 1_555
O33 Mn2 1_555 1_555
O34 Mn2 1_555 1_555
O35 Mn2 1_555 1_555
O35 Mn4 1_555 1_555
O38 Mn1 1_555 1_555
O39 Mn1 1_555 1_555
O40 Mn1 1_555 1_555
O41 Mn3 1_555 1_555
O42 Mn3 1_555 1_555
O43 Mn1 1_555 1_555
O43 Mn3 1_555 1_555
O44 Mn3 1_555 1_555
O45 Mn5D 1_555 1_555
Mn6 O25D 1_555 1_555
C3D C105D 1_555 1_555
O1D Mn6D 1_555 1_555
O2D Mn5D 1_555 1_555
O21D Mn6D 1_555 1_555
C9D C10D 1_555 1_555
C10D C20D 1_555 1_555
C11D C20D 1_555 1_555
C12D C18D 1_555 1_555
C15D C16D 1_555 1_555
C17D C18D 1_555 1_555
C18D C19D 1_555 1_555
C26D C27D 1_555 1_555
C28D C35D 1_555 1_555
C32D C33D 1_555 1_555
C33D C38D 1_555 1_555
C34D C35D 1_555 1_555
C37D C38D 1_555 1_555
C44D C45D 1_555 1_555
C46D C53D 1_555 1_555
C50D C51D 1_555 1_555
C51D C56D 1_555 1_555
C52D C53D 1_555 1_555
C55D C56D 1_555 1_555
C59D C71D 1_555 1_555
C62D C63D 1_555 1_555
C64D C71D 1_555 1_555
C68D C69D 1_555 1_555
C69D C73D 1_555 1_555
C70D C71D 1_555 1_555
C72D C73D 1_555 1_555
C79D C80D 1_555 1_555
C81D C88D 1_555 1_555
C82D C91D 1_555 1_555
C84D O45D 1_555 1_555
C85D C86D 1_555 1_555
C85D O27D 1_555 1_555
C87D C88D 1_555 1_555
C90D C91D 1_555 1_555
C93D C105D 1_555 1_555
C95D O24D 1_555 1_555
C96D O25D 1_555 1_555
C97D C98D 1_555 1_555
C99D C107D 1_555 1_555
C100D C105D 1_555 1_555
C106D C107D 1_555 1_555
O28D Mn5D 1_555 1_555
O28D Mn6D 1_555 1_555
O29D Mn4D 1_555 1_555
O30D Mn4D 1_555 1_555
O31D Mn4D 1_555 1_555
O32D Mn2D 1_555 1_555
O33D Mn2D 1_555 1_555
O34D Mn2D 1_555 1_555
O35D Mn2D 1_555 1_555
O35D Mn4D 1_555 1_555
O38D Mn1D 1_555 1_555
O39D Mn1D 1_555 1_555
O40D Mn1D 1_555 1_555
O41D Mn3D 1_555 1_555
O42D Mn3D 1_555 1_555
O43D Mn1D 1_555 1_555
O43D Mn3D 1_555 1_555
O44D Mn3D 1_555 1_555

#END
