
#######################################################################
#
#                 Cambridge Crystallographic Data Centre
#                                CCDC 
#
#######################################################################
#
# If this CIF has been generated from an entry in the Cambridge 
# Structural Database, then it will include bibliographic, chemical, 
# crystal, experimental, refinement or atomic coordinate data resulting 
# from the CCDC's data processing and validation procedures.
#
#######################################################################

data_RUWMIH
_chemical_formula_moiety         
'C180 H146 N30 O16 Zn9 12+,2(C10 H7 O3 S1 1-),10(C2 F6 N1 O4 S2 1-),C2 H3 N1'
_chemical_name_systematic        
"pentakis(\m-3,3':6',2'':5'',3'''-quaterpyridine-6,6'''-diylbis(N-(4-methoxyphenyl)methanimine))-hexakis(\m-hydroxy)-nona-zinc bis(naphthalene-2-sulfonate) decakis(bis((trifluoromethyl)sulfonyl)azanide) acetonitrile solvate"
_symmetry_cell_setting           monoclinic
_symmetry_space_group_name_H-M   'P 21/n'
_symmetry_Int_Tables_number      14
_space_group_name_Hall           '-P 2yn'
loop_
_symmetry_equiv_pos_site_id
_symmetry_equiv_pos_as_xyz
1 x,y,z
2 1/2-x,1/2+y,1/2-z
3 -x,-y,-z
4 1/2+x,1/2-y,1/2+z
_cell_length_a                   15.8416(11)
_cell_length_b                   55.356(4)
_cell_length_c                   33.8750(19)
_cell_angle_alpha                90
_cell_angle_beta                 90.229(3)
_cell_angle_gamma                90
_cell_volume                     29705.7
_exptl_crystal_colour            yellow
_exptl_crystal_description       block
_cell_formula_units_Z            4
_exptl_crystal_recrystallization_method 'acetonitrile/diethyl ether'
loop_
_atom_site_label
_atom_site_type_symbol
_atom_site_fract_x
_atom_site_fract_y
_atom_site_fract_z
Zn1 Zn 0.3626(2) 0.10579(6) 0.73749(12)
Zn2 Zn 0.4845(3) 0.09768(11) 0.64923(12)
Zn3 Zn 0.6759(2) 0.09518(6) 0.59581(10)
Zn4 Zn 0.32748(19) 0.24454(5) 0.66160(8)
Zn5 Zn 0.5340(2) 0.23809(10) 0.62869(9)
Zn6 Zn 0.7497(2) 0.23590(6) 0.65460(8)
Zn7 Zn 0.3879(2) 0.38437(6) 0.59074(11)
Zn8 Zn 0.5887(2) 0.38012(11) 0.63568(11)
Zn9 Zn 0.7253(2) 0.37680(6) 0.71999(10)
O1 O 0.4578(9) 0.0980(3) 0.7058(5)
H1 H 0.5008 0.0907 0.7179
O2 O 0.5936(11) 0.0895(4) 0.6389(5)
H2 H 0.6206 0.0813 0.6577
O3 O 0.4424(11) 0.2435(4) 0.6611(6)
H3 H 0.4547 0.2467 0.6862
O4 O 0.6306(12) 0.2382(4) 0.6564(6)
H4 H 0.6230 0.2311 0.6798
O5 O 0.4772(10) 0.3913(3) 0.6295(5)
H5 H 0.4523 0.4021 0.6451
O6 O 0.6275(11) 0.3833(3) 0.6884(6)
H6 H 0.5855 0.3820 0.7056
O7 O 0.4713(16) -0.0075(3) 0.8272(8)
O8 O 0.2196(16) 0.4920(4) 0.5003(8)
N1 N 0.4191(14) 0.0900(3) 0.7926(7)
N2 N 0.3779(11) 0.1359(3) 0.7738(6)
N3 N 0.3237(10) 0.2311(3) 0.7230(5)
N4 N 0.2899(11) 0.2742(3) 0.6940(5)
N5 N 0.3020(11) 0.3701(3) 0.6310(6)
N6 N 0.2755(15) 0.4064(4) 0.5801(7)
C1 C 0.4380(14) 0.0655(3) 0.8018(8)
C2 C 0.4568(17) 0.0491(4) 0.7723(8)
H7 H 0.4606 0.0547 0.7459
C3 C 0.4702(18) 0.0250(4) 0.7802(8)
H8 H 0.4825 0.0142 0.7593
C4 C 0.4659(15) 0.0166(4) 0.8186(8)
C5 C 0.4505(18) 0.0329(4) 0.8486(8)
H9 H 0.4503 0.0275 0.8752
C6 C 0.4353(18) 0.0570(4) 0.8403(8)
H10 H 0.4229 0.0678 0.8612
C7 C 0.469(3) -0.0172(7) 0.8659(9)
H11 H 0.4683 -0.0348 0.8645
H12 H 0.4184 -0.0114 0.8794
H13 H 0.5194 -0.0119 0.8805
C8 C 0.4365(14) 0.1069(3) 0.8176(8)
H14 H 0.4630 0.1029 0.8419
C9 C 0.4158(11) 0.1322(3) 0.8089(6)
C10 C 0.4338(13) 0.1510(3) 0.8348(6)
H15 H 0.4616 0.1479 0.8592
C11 C 0.4107(12) 0.1743(3) 0.8248(6)
H16 H 0.4214 0.1873 0.8423
C12 C 0.3716(11) 0.1784(3) 0.7885(5)
C13 C 0.3570(12) 0.1585(3) 0.7645(6)
H17 H 0.3302 0.1612 0.7398
C14 C 0.3463(12) 0.2092(3) 0.7359(5)
H18 H 0.3619 0.1973 0.7172
C15 C 0.3479(10) 0.2032(3) 0.7758(5)
C16 C 0.3253(12) 0.2207(3) 0.8031(6)
H19 H 0.3250 0.2172 0.8305
C17 C 0.3030(12) 0.2434(3) 0.7897(5)
H20 H 0.2880 0.2558 0.8079
C18 C 0.3028(10) 0.2482(3) 0.7495(5)
C19 C 0.2837(10) 0.2726(3) 0.7336(5)
C20 C 0.2641(12) 0.2929(3) 0.7558(6)
H21 H 0.2606 0.2916 0.7837
C21 C 0.2498(12) 0.3150(3) 0.7381(5)
H22 H 0.2370 0.3287 0.7539
C22 C 0.2538(10) 0.3172(3) 0.6971(5)
C23 C 0.2755(12) 0.2960(3) 0.6787(6)
H23 H 0.2810 0.2970 0.6509
C24 C 0.3075(13) 0.3502(3) 0.6527(6)
H24 H 0.3585 0.3413 0.6503
C25 C 0.2487(11) 0.3408(3) 0.6781(5)
C26 C 0.1738(12) 0.3539(3) 0.6795(6)
H25 H 0.1292 0.3485 0.6960
C27 C 0.1631(13) 0.3746(4) 0.6576(6)
H26 H 0.1121 0.3836 0.6590
C28 C 0.2283(11) 0.3821(3) 0.6335(5)
C29 C 0.2232(16) 0.4022(4) 0.6056(7)
H27 H 0.1759 0.4127 0.6074
C30 C 0.2706(15) 0.4256(4) 0.5525(7)
C31 C 0.2912(18) 0.4280(5) 0.5132(8)
H28 H 0.3158 0.4148 0.4997
C32 C 0.2769(19) 0.4494(5) 0.4928(8)
H29 H 0.2907 0.4503 0.4656
C33 C 0.2429(15) 0.4692(4) 0.5116(9)
C34 C 0.2255(18) 0.4675(5) 0.5516(9)
H30 H 0.2044 0.4811 0.5655
C35 C 0.2387(18) 0.4461(5) 0.5713(8)
H31 H 0.2256 0.4453 0.5986
C36 C 0.226(3) 0.5046(8) 0.4650(11)
H32 H 0.2844 0.5049 0.4563
H33 H 0.2057 0.5212 0.4689
H34 H 0.1905 0.4967 0.4449
O9 O 0.1904(16) 0.0121(4) 0.8459(8)
O10 O 0.5951(16) 0.4900(4) 0.5259(8)
N7 N 0.2600(15) 0.0836(4) 0.7365(7)
N8 N 0.2867(12) 0.1206(3) 0.6875(6)
N9 N 0.2857(11) 0.2149(3) 0.6278(5)
N10 N 0.3241(11) 0.2583(3) 0.5993(5)
N11 N 0.4041(12) 0.3541(3) 0.5560(6)
N12 N 0.4642(13) 0.3978(4) 0.5428(7)
C37 C 0.2412(14) 0.0650(4) 0.7642(7)
C38 C 0.2211(17) 0.0718(5) 0.8026(8)
H35 H 0.2185 0.0885 0.8092
C39 C 0.2048(18) 0.0546(5) 0.8311(8)
H36 H 0.1918 0.0592 0.8574
C40 C 0.2079(14) 0.0306(5) 0.8202(8)
C41 C 0.2264(18) 0.0233(5) 0.7821(8)
H37 H 0.2275 0.0067 0.7754
C42 C 0.2432(18) 0.0408(5) 0.7537(8)
H38 H 0.2560 0.0362 0.7274
C43 C 0.166(3) 0.0188(8) 0.8848(9)
H39 H 0.1189 0.0302 0.8834
H40 H 0.2142 0.0265 0.8982
H41 H 0.1492 0.0044 0.8995
C44 C 0.2101(16) 0.0867(4) 0.7081(6)
H42 H 0.1637 0.0760 0.7051
C45 C 0.2205(12) 0.1063(3) 0.6794(5)
C46 C 0.1637(14) 0.1109(4) 0.6493(6)
H43 H 0.1202 0.0997 0.6431
C47 C 0.1718(13) 0.1322(4) 0.6284(6)
H44 H 0.1329 0.1359 0.6079
C48 C 0.2366(12) 0.1483(3) 0.6374(5)
C49 C 0.2928(13) 0.1409(4) 0.6665(6)
H45 H 0.3394 0.1512 0.6720
C50 C 0.2706(12) 0.1926(3) 0.6414(6)
H46 H 0.2786 0.1901 0.6689
C51 C 0.2444(11) 0.1727(3) 0.6195(5)
C52 C 0.2294(13) 0.1769(4) 0.5798(6)
H47 H 0.2101 0.1643 0.5631
C53 C 0.2430(13) 0.1998(3) 0.5649(6)
H48 H 0.2318 0.2030 0.5379
C54 C 0.2728(10) 0.2183(3) 0.5889(5)
C55 C 0.2964(10) 0.2423(3) 0.5725(5)
C56 C 0.2944(13) 0.2481(4) 0.5323(5)
H49 H 0.2739 0.2369 0.5133
C57 C 0.3231(12) 0.2706(3) 0.5211(6)
H50 H 0.3224 0.2748 0.4939
C58 C 0.3532(11) 0.2872(3) 0.5487(5)
C59 C 0.3502(12) 0.2801(3) 0.5879(5)
H51 H 0.3676 0.2913 0.6076
C60 C 0.3772(13) 0.3317(3) 0.5636(6)
H52 H 0.3547 0.3289 0.5892
C61 C 0.3786(11) 0.3121(3) 0.5382(6)
C62 C 0.4145(13) 0.3165(4) 0.5015(6)
H53 H 0.4174 0.3040 0.4823
C63 C 0.4458(13) 0.3393(4) 0.4930(6)
H54 H 0.4713 0.3423 0.4682
C64 C 0.4404(11) 0.3577(3) 0.5206(6)
C65 C 0.4735(14) 0.3823(3) 0.5147(8)
H55 H 0.5010 0.3866 0.4909
C66 C 0.4958(14) 0.4215(4) 0.5382(8)
C67 C 0.4856(17) 0.4388(4) 0.5672(8)
H56 H 0.4565 0.4346 0.5907
C68 C 0.5160(18) 0.4620(4) 0.5634(8)
H57 H 0.5070 0.4738 0.5833
C69 C 0.5602(15) 0.4674(4) 0.5293(8)
C70 C 0.5709(18) 0.4507(4) 0.4995(8)
H58 H 0.6002 0.4549 0.4761
C71 C 0.5385(17) 0.4276(4) 0.5040(8)
H59 H 0.5455 0.4160 0.4836
C72 C 0.579(3) 0.5059(6) 0.5583(11)
H60 H 0.5742 0.5226 0.5486
H61 H 0.6247 0.5048 0.5775
H62 H 0.5254 0.5013 0.5709
O11 O 0.3273(19) -0.0210(5) 0.6764(9)
O12 O 0.7889(17) 0.4921(5) 0.6450(9)
N13 N 0.3923(17) 0.0723(4) 0.6251(8)
N14 N 0.4336(16) 0.1162(4) 0.6043(7)
N15 N 0.4931(15) 0.2150(4) 0.5796(7)
N16 N 0.5526(15) 0.2576(4) 0.5772(7)
N17 N 0.6253(15) 0.3572(4) 0.5887(7)
N18 N 0.6740(16) 0.4018(4) 0.6004(8)
C73 C 0.3775(18) 0.0489(4) 0.6401(8)
C74 C 0.4371(19) 0.0371(5) 0.6632(9)
H63 H 0.4886 0.0448 0.6702
C75 C 0.4200(19) 0.0139(5) 0.6759(10)
H64 H 0.4602 0.0056 0.6919
C76 C 0.3451(19) 0.0023(5) 0.6657(8)
C77 C 0.2852(19) 0.0142(5) 0.6433(10)
H65 H 0.2334 0.0065 0.6367
C78 C 0.3021(19) 0.0374(5) 0.6308(9)
H66 H 0.2611 0.0458 0.6154
C79 C 0.252(2) -0.0328(8) 0.6643(14)
H67 H 0.2513 -0.0492 0.6749
H68 H 0.2031 -0.0238 0.6742
H69 H 0.2497 -0.0334 0.6354
C80 C 0.3569(18) 0.0804(4) 0.5943(9)
H70 H 0.3175 0.0708 0.5801
C81 C 0.3774(15) 0.1049(4) 0.5808(7)
C82 C 0.3434(17) 0.1154(5) 0.5472(8)
H71 H 0.3045 0.1068 0.5310
C83 C 0.3679(17) 0.1386(5) 0.5381(8)
H72 H 0.3462 0.1461 0.5150
C84 C 0.4238(15) 0.1512(4) 0.5621(8)
C85 C 0.4554(17) 0.1387(5) 0.5946(8)
H73 H 0.4953 0.1468 0.6110
C86 C 0.4678(16) 0.1922(4) 0.5845(8)
H74 H 0.4642 0.1862 0.6108
C87 C 0.4465(14) 0.1767(4) 0.5539(8)
C88 C 0.4493(17) 0.1863(4) 0.5160(8)
H75 H 0.4341 0.1766 0.4940
C89 C 0.4743(17) 0.2100(4) 0.5103(8)
H76 H 0.4753 0.2167 0.4845
C90 C 0.4978(13) 0.2238(4) 0.5427(7)
C91 C 0.5342(13) 0.2485(4) 0.5414(7)
C92 C 0.5507(17) 0.2618(4) 0.5075(7)
H77 H 0.5379 0.2551 0.4824
C93 C 0.5857(17) 0.2845(4) 0.5102(8)
H78 H 0.5986 0.2933 0.4869
C94 C 0.6021(13) 0.2946(4) 0.5474(8)
C95 C 0.5840(16) 0.2798(4) 0.5792(8)
H79 H 0.5950 0.2862 0.6048
C96 C 0.6014(16) 0.3344(4) 0.5822(8)
H80 H 0.5666 0.3271 0.6017
C97 C 0.6226(14) 0.3205(4) 0.5499(7)
C98 C 0.6739(16) 0.3312(5) 0.5214(8)
H81 H 0.6892 0.3226 0.4983
C99 C 0.7020(16) 0.3546(5) 0.5273(7)
H82 H 0.7380 0.3621 0.5087
C100 C 0.6765(14) 0.3666(4) 0.5610(7)
C101 C 0.7044(17) 0.3912(4) 0.5704(8)
H83 H 0.7448 0.3991 0.5542
C102 C 0.7059(17) 0.4247(4) 0.6111(7)
C103 C 0.7784(18) 0.4339(5) 0.5937(9)
H84 H 0.8089 0.4245 0.5750
C104 C 0.8055(18) 0.4567(5) 0.6039(9)
H85 H 0.8546 0.4633 0.5920
C105 C 0.7614(18) 0.4701(5) 0.6315(8)
C106 C 0.6882(18) 0.4613(5) 0.6483(9)
H86 H 0.6574 0.4708 0.6666
C107 C 0.6605(18) 0.4384(5) 0.6380(8)
H87 H 0.6104 0.4321 0.6493
C108 C 0.741(3) 0.5048(7) 0.6736(12)
H88 H 0.7693 0.5201 0.6800
H89 H 0.6845 0.5082 0.6630
H90 H 0.7360 0.4950 0.6976
O13 O 0.4580(16) -0.0123(4) 0.5579(7)
O14 O 0.9292(16) 0.4759(4) 0.8067(7)
N19 N 0.5873(14) 0.0807(3) 0.5532(6)
N20 N 0.6590(12) 0.1249(3) 0.5580(5)
N21 N 0.7396(11) 0.2208(3) 0.5949(5)
N22 N 0.7877(11) 0.2641(3) 0.6185(5)
N23 N 0.7913(12) 0.3597(3) 0.6706(5)
N24 N 0.8288(14) 0.3995(4) 0.7129(6)
C109 C 0.5513(15) 0.0573(4) 0.5534(6)
C110 C 0.5905(17) 0.0394(4) 0.5756(7)
H91 H 0.6392 0.0437 0.5906
C111 C 0.5630(17) 0.0158(4) 0.5772(8)
H92 H 0.5917 0.0038 0.5923
C112 C 0.4910(16) 0.0104(4) 0.5554(7)
C113 C 0.4504(17) 0.0278(4) 0.5329(8)
H93 H 0.4015 0.0235 0.5181
C114 C 0.4799(16) 0.0513(4) 0.5315(8)
H94 H 0.4519 0.0631 0.5159
C115 C 0.383(2) -0.0185(7) 0.5386(11)
H95 H 0.3845 -0.0127 0.5113
H96 H 0.3351 -0.0111 0.5523
H97 H 0.3762 -0.0361 0.5388
C116 C 0.5734(15) 0.0958(3) 0.5255(7)
H98 H 0.5381 0.0913 0.5040
C117 C 0.6107(12) 0.1201(3) 0.5261(5)
C118 C 0.5959(14) 0.1376(4) 0.4973(6)
H99 H 0.5633 0.1341 0.4744
C119 C 0.6302(13) 0.1603(4) 0.5031(6)
H100 H 0.6214 0.1724 0.4837
C120 C 0.6773(11) 0.1658(3) 0.5366(6)
C121 C 0.6910(13) 0.1470(3) 0.5631(6)
H101 H 0.7246 0.1501 0.5859
C122 C 0.7125(12) 0.1989(3) 0.5844(6)
H102 H 0.6945 0.1883 0.6049
C123 C 0.7086(11) 0.1903(3) 0.5460(6)
C124 C 0.7345(13) 0.2063(3) 0.5169(6)
H103 H 0.7322 0.2016 0.4899
C125 C 0.7636(13) 0.2291(4) 0.5269(6)
H104 H 0.7826 0.2399 0.5070
C126 C 0.7647(10) 0.2359(3) 0.5662(5)
C127 C 0.7926(10) 0.2602(3) 0.5795(5)
C128 C 0.8184(12) 0.2778(3) 0.5528(6)
H105 H 0.8228 0.2743 0.5254
C129 C 0.8374(13) 0.3006(4) 0.5669(6)
H106 H 0.8566 0.3128 0.5493
C130 C 0.8282(11) 0.3058(3) 0.6070(5)
C131 C 0.8039(12) 0.2866(3) 0.6306(6)
H107 H 0.7982 0.2897 0.6580
C132 C 0.7833(13) 0.3385(4) 0.6521(6)
H108 H 0.7419 0.3276 0.6616
C133 C 0.8314(11) 0.3313(3) 0.6200(5)
C134 C 0.8908(13) 0.3476(3) 0.6054(6)
H109 H 0.9241 0.3436 0.5831
C135 C 0.9006(13) 0.3698(4) 0.6240(6)
H110 H 0.9404 0.3813 0.6146
C136 C 0.8509(12) 0.3747(3) 0.6564(5)
C137 C 0.8645(15) 0.3964(4) 0.6802(7)
H111 H 0.9016 0.4086 0.6707
C138 C 0.8446(14) 0.4207(4) 0.7349(7)
C139 C 0.8732(17) 0.4421(4) 0.7185(7)
H112 H 0.8755 0.4437 0.6906
C140 C 0.8985(18) 0.4611(5) 0.7423(7)
H113 H 0.9166 0.4759 0.7309
C141 C 0.8970(15) 0.4582(4) 0.7829(7)
C142 C 0.8687(18) 0.4368(5) 0.7992(7)
H114 H 0.8676 0.4351 0.8271
C143 C 0.8420(17) 0.4179(5) 0.7756(7)
H115 H 0.8222 0.4033 0.7870
C144 C 0.925(3) 0.4734(7) 0.8487(8)
H116 H 0.8853 0.4604 0.8553
H117 H 0.9051 0.4886 0.8604
H118 H 0.9809 0.4695 0.8592
O15 O 0.8265(18) 0.0047(5) 0.4643(7)
O16 O 0.6084(17) 0.4899(4) 0.8105(8)
N25 N 0.7838(16) 0.0724(4) 0.5838(7)
N26 N 0.7698(11) 0.1112(3) 0.6347(6)
N27 N 0.7945(10) 0.2065(3) 0.6868(5)
N28 N 0.7640(10) 0.2504(3) 0.7134(5)
N29 N 0.7132(11) 0.3475(3) 0.7586(5)
N30 N 0.6715(14) 0.3935(3) 0.7737(7)
C145 C 0.7918(16) 0.0536(4) 0.5557(7)
C146 C 0.813(2) 0.0301(5) 0.5657(8)
H119 H 0.8194 0.0259 0.5927
C147 C 0.826(2) 0.0126(5) 0.5372(8)
H120 H 0.8420 -0.0033 0.5448
C148 C 0.8154(17) 0.0183(5) 0.4978(8)
C149 C 0.793(2) 0.0416(5) 0.4877(8)
H121 H 0.7846 0.0457 0.4607
C150 C 0.781(2) 0.0592(5) 0.5160(8)
H122 H 0.7661 0.0751 0.5084
C151 C 0.859(3) -0.0191(6) 0.4653(13)
H123 H 0.8614 -0.0255 0.4384
H124 H 0.9152 -0.0191 0.4771
H125 H 0.8212 -0.0293 0.4812
C152 C 0.8426(17) 0.0775(4) 0.6074(6)
H126 H 0.8916 0.0676 0.6071
C153 C 0.8405(12) 0.0977(3) 0.6354(5)
C154 C 0.9098(13) 0.1040(4) 0.6584(6)
H127 H 0.9575 0.0936 0.6599
C155 C 0.9082(12) 0.1255(4) 0.6790(6)
H128 H 0.9557 0.1304 0.6943
C156 C 0.8367(11) 0.1401(3) 0.6772(5)
C157 C 0.7676(12) 0.1319(4) 0.6551(6)
H129 H 0.7175 0.1413 0.6546
C158 C 0.8058(12) 0.1841(3) 0.6729(6)
H130 H 0.7977 0.1816 0.6454
C159 C 0.8285(11) 0.1643(3) 0.6957(5)
C160 C 0.8411(13) 0.1682(3) 0.7357(5)
H131 H 0.8571 0.1552 0.7525
C161 C 0.8301(12) 0.1911(3) 0.7509(6)
H132 H 0.8389 0.1940 0.7783
C162 C 0.8060(10) 0.2097(3) 0.7258(5)
C163 C 0.7891(10) 0.2344(3) 0.7409(5)
C164 C 0.7968(12) 0.2403(3) 0.7806(5)
H133 H 0.8172 0.2288 0.7992
C165 C 0.7737(12) 0.2633(3) 0.7924(6)
H134 H 0.7770 0.2676 0.8195
C166 C 0.7457(10) 0.2803(3) 0.7649(5)
C167 C 0.7439(12) 0.2726(3) 0.7260(5)
H135 H 0.7270 0.2841 0.7066
C168 C 0.7331(12) 0.3247(3) 0.7507(6)
H136 H 0.7522 0.3212 0.7248
C169 C 0.7287(10) 0.3056(3) 0.7769(5)
C170 C 0.6980(13) 0.3111(4) 0.8143(6)
H137 H 0.6933 0.2988 0.8337
C171 C 0.6744(13) 0.3345(3) 0.8232(6)
H138 H 0.6521 0.3383 0.8484
C172 C 0.6837(11) 0.3523(3) 0.7949(6)
C173 C 0.6640(14) 0.3779(3) 0.8012(7)
H139 H 0.6451 0.3830 0.8265
C174 C 0.6545(14) 0.4182(3) 0.7810(7)
C175 C 0.6445(18) 0.4355(4) 0.7521(8)
H140 H 0.6479 0.4307 0.7252
C176 C 0.6298(19) 0.4595(4) 0.7606(8)
H141 H 0.6224 0.4710 0.7399
C177 C 0.6259(15) 0.4666(4) 0.7998(8)
C178 C 0.6370(18) 0.4500(4) 0.8294(8)
H142 H 0.6351 0.4549 0.8563
C179 C 0.6508(18) 0.4261(4) 0.8200(8)
H143 H 0.6582 0.4147 0.8407
C180 C 0.591(3) 0.5068(6) 0.7799(11)
H144 H 0.6406 0.5085 0.7630
H145 H 0.5768 0.5225 0.7915
H146 H 0.5430 0.5010 0.7641
N31 N 0.150(3) 0.2445(8) 0.6618(14)
C181 C 0.075(3) 0.2422(10) 0.6586(17)
C182 C -0.017(3) 0.2394(8) 0.6476(14)
H147 H -0.0407 0.2553 0.6416
H148 H -0.0472 0.2322 0.6697
H149 H -0.0215 0.2290 0.6244
S1 S 0.5301(5) 0.31208(17) 0.6763(2)
O17 O 0.5234(13) 0.3378(2) 0.6689(6)
O18 O 0.4665(11) 0.2986(3) 0.6555(6)
O19 O 0.6171(8) 0.3046(3) 0.6722(5)
C183 C 0.4919(12) 0.3292(3) 0.7491(4)
H150 H 0.4926 0.3447 0.7370
C184 C 0.5073(11) 0.3086(3) 0.7268(4)
C185 C 0.5063(11) 0.2860(3) 0.7445(4)
H151 H 0.5168 0.2719 0.7292
C186 C 0.4899(12) 0.2839(2) 0.7847(5)
H152 H 0.4892 0.2685 0.7968
C187 C 0.4745(8) 0.3045(3) 0.8070(4)
C188 C 0.4755(8) 0.3271(2) 0.7893(4)
C189 C 0.4602(13) 0.3477(3) 0.8116(5)
H153 H 0.4608 0.3632 0.7995
C190 C 0.4438(13) 0.3457(4) 0.8518(5)
H154 H 0.4333 0.3597 0.8671
C191 C 0.4428(13) 0.3230(4) 0.8695(4)
H155 H 0.4316 0.3216 0.8970
C192 C 0.4581(13) 0.3025(4) 0.8472(4)
H156 H 0.4575 0.2870 0.8593
S2 S 0.5454(6) 0.17188(17) 0.6798(2)
O20 O 0.5987(14) 0.1863(4) 0.6550(7)
O21 O 0.4571(8) 0.1778(3) 0.6774(5)
O22 O 0.5650(14) 0.1464(2) 0.6755(7)
C193 C 0.599(2) 0.1598(3) 0.7536(5)
H157 H 0.6035 0.1438 0.7436
C194 C 0.5763(17) 0.1786(3) 0.7287(5)
C195 C 0.5763(19) 0.2022(3) 0.7427(6)
H158 H 0.5637 0.2152 0.7253
C196 C 0.595(2) 0.2067(3) 0.7823(6)
H159 H 0.5880 0.2225 0.7928
C197 C 0.623(2) 0.1881(3) 0.8064(5)
C198 C 0.616(2) 0.1643(3) 0.7933(5)
C199 C 0.617(3) 0.1455(4) 0.8204(7)
H160 H 0.5992 0.1298 0.8124
C200 C 0.643(3) 0.1495(5) 0.8591(7)
H161 H 0.6529 0.1363 0.8764
C201 C 0.653(3) 0.1732(5) 0.8717(7)
H162 H 0.6726 0.1763 0.8978
C202 C 0.636(2) 0.1924(4) 0.8466(6)
H163 H 0.6326 0.2084 0.8567
S3 S 0.5926(6) 0.32163(16) 0.2298(3)
S4 S 0.5904(6) 0.36869(17) 0.2648(3)
N32 N 0.5437(11) 0.3462(3) 0.2421(7)
O23 O 0.5376(12) 0.3091(3) 0.2030(6)
O24 O 0.6785(9) 0.3251(4) 0.2190(6)
O25 O 0.5694(13) 0.3892(3) 0.2413(6)
O26 O 0.6736(10) 0.3641(4) 0.2793(6)
C203 C 0.5943(15) 0.3017(4) 0.2730(5)
C204 C 0.5307(13) 0.3714(4) 0.3108(5)
F1 F 0.6196(12) 0.2801(3) 0.2627(6)
F2 F 0.5165(13) 0.3002(4) 0.2867(7)
F3 F 0.6449(12) 0.3104(3) 0.3005(5)
F4 F 0.5406(13) 0.3514(3) 0.3316(6)
F5 F 0.5513(15) 0.3912(4) 0.3298(7)
F6 F 0.4482(12) 0.3723(4) 0.3012(6)
S5 S -0.0050(11) 0.3031(3) 0.7228(5)
S6 S -0.0161(8) 0.3544(2) 0.7513(4)
N33 N 0.0274(15) 0.3305(3) 0.7324(8)
O27 O -0.0928(12) 0.3038(4) 0.7112(7)
O28 O 0.0559(15) 0.2918(4) 0.6980(7)
O29 O -0.1007(12) 0.3514(5) 0.7640(8)
O30 O 0.0037(17) 0.3750(4) 0.7275(7)
C205 C -0.0005(17) 0.2855(4) 0.7685(6)
C206 C 0.0473(15) 0.3620(5) 0.7950(6)
F7 F -0.0497(15) 0.2982(4) 0.7924(7)
F8 F -0.0204(17) 0.2631(4) 0.7610(8)
F9 F 0.0776(14) 0.2856(4) 0.7833(7)
F10 F 0.1289(14) 0.3632(5) 0.7842(8)
F11 F 0.0292(19) 0.3833(5) 0.8092(8)
F12 F 0.0461(17) 0.3452(4) 0.8226(7)
S7 S 0.8090(14) 0.2409(4) 0.4142(8)
S8 S 0.8185(14) 0.2918(4) 0.4292(8)
N34 N 0.788(3) 0.2647(4) 0.4414(11)
O31 O 0.852(3) 0.2490(8) 0.3796(11)
O32 O 0.844(3) 0.2227(7) 0.4394(13)
O33 O 0.780(3) 0.3079(7) 0.4567(12)
O34 O 0.806(3) 0.2960(8) 0.3880(9)
C207 C 0.7075(17) 0.2282(7) 0.3992(11)
C208 C 0.9321(14) 0.2961(7) 0.4355(11)
F13 F 0.713(3) 0.2046(6) 0.3949(16)
F14 F 0.675(3) 0.2368(9) 0.3662(12)
F15 F 0.655(2) 0.2337(8) 0.4286(12)
F16 F 0.974(2) 0.2816(8) 0.4118(13)
F17 F 0.955(3) 0.2920(9) 0.4724(11)
F18 F 0.950(3) 0.3190(7) 0.4266(15)
S9 S 0.8703(11) 0.2176(4) 0.8863(7)
S10 S 0.7953(13) 0.2633(4) 0.9117(7)
N35 N 0.821(2) 0.2432(5) 0.8776(8)
O35 O 0.859(2) 0.2015(6) 0.8538(10)
O36 O 0.855(2) 0.2107(7) 0.9263(8)
O37 O 0.789(3) 0.2863(5) 0.8925(12)
O38 O 0.851(2) 0.2597(8) 0.9442(10)
C209 C 0.9841(13) 0.2234(6) 0.8864(10)
C210 C 0.6894(15) 0.2558(6) 0.9288(10)
F19 F 1.001(2) 0.2380(7) 0.9164(10)
F20 F 1.005(2) 0.2340(6) 0.8533(10)
F21 F 1.026(2) 0.2030(6) 0.8890(13)
F22 F 0.688(3) 0.2333(6) 0.9417(13)
F23 F 0.636(2) 0.2561(8) 0.8989(11)
F24 F 0.662(3) 0.2709(7) 0.9558(12)
S11 S 0.6732(10) 0.0789(3) 0.7563(5)
S12 S 0.7522(11) 0.0461(3) 0.7000(6)
N36 N 0.6921(19) 0.0693(5) 0.7114(6)
O39 O 0.6070(16) 0.0962(5) 0.7513(9)
O40 O 0.667(2) 0.0602(5) 0.7852(8)
O41 O 0.8196(18) 0.0406(6) 0.7265(9)
O42 O 0.768(2) 0.0481(6) 0.6584(7)
C211 C 0.7636(14) 0.0975(5) 0.7715(9)
C212 C 0.6803(17) 0.0202(4) 0.7010(9)
F25 F 0.761(2) 0.1040(6) 0.8088(8)
F26 F 0.8355(16) 0.0857(5) 0.7667(9)
F27 F 0.7616(18) 0.1173(5) 0.7498(9)
F28 F 0.618(2) 0.0253(6) 0.6757(10)
F29 F 0.721(2) 0.0011(5) 0.6884(11)
F30 F 0.646(2) 0.0168(6) 0.7355(9)
S13 S 0.4050(10) 0.4079(3) 0.7479(5)
S14 S 0.3411(11) 0.4434(3) 0.6932(5)
N37 N 0.376(2) 0.4356(4) 0.7370(7)
O43 O 0.4467(19) 0.3943(5) 0.7184(8)
O44 O 0.439(2) 0.4105(6) 0.7871(7)
O45 O 0.340(2) 0.4241(5) 0.6655(9)
O46 O 0.2677(17) 0.4583(6) 0.6983(11)
C213 C 0.3052(13) 0.3916(5) 0.7550(9)
C214 C 0.4218(17) 0.4640(5) 0.6741(9)
F31 F 0.3199(18) 0.3686(4) 0.7593(9)
F32 F 0.263(2) 0.3997(6) 0.7864(9)
F33 F 0.2555(18) 0.3941(5) 0.7236(8)
F34 F 0.4930(18) 0.4523(6) 0.6671(10)
F35 F 0.434(2) 0.4816(6) 0.7005(10)
F36 F 0.398(2) 0.4730(6) 0.6399(9)
loop_
_geom_bond_atom_site_label_1
_geom_bond_atom_site_label_2
_geom_bond_site_symmetry_1
_geom_bond_site_symmetry_2
Zn1 O1 1_555 1_555
Zn2 O1 1_555 1_555
Zn3 O2 1_555 1_555
Zn4 O3 1_555 1_555
Zn5 O3 1_555 1_555
Zn6 O4 1_555 1_555
Zn7 O5 1_555 1_555
Zn8 O5 1_555 1_555
Zn9 O6 1_555 1_555
O1 H1 1_555 1_555
O2 Zn2 1_555 1_555
H2 O2 1_555 1_555
O3 H3 1_555 1_555
O4 Zn5 1_555 1_555
H4 O4 1_555 1_555
O5 H5 1_555 1_555
O6 Zn8 1_555 1_555
H6 O6 1_555 1_555
O7 C4 1_555 1_555
O8 C33 1_555 1_555
N1 Zn1 1_555 1_555
N2 Zn1 1_555 1_555
N3 Zn4 1_555 1_555
N4 Zn4 1_555 1_555
N5 Zn7 1_555 1_555
N6 Zn7 1_555 1_555
C1 N1 1_555 1_555
C2 C1 1_555 1_555
H7 C2 1_555 1_555
C3 C2 1_555 1_555
H8 C3 1_555 1_555
C4 C3 1_555 1_555
C5 C4 1_555 1_555
H9 C5 1_555 1_555
C6 C1 1_555 1_555
H10 C6 1_555 1_555
C7 O7 1_555 1_555
H11 C7 1_555 1_555
H12 C7 1_555 1_555
H13 C7 1_555 1_555
C8 N1 1_555 1_555
H14 C8 1_555 1_555
C9 N2 1_555 1_555
C10 C9 1_555 1_555
H15 C10 1_555 1_555
C11 C10 1_555 1_555
H16 C11 1_555 1_555
C12 C11 1_555 1_555
C13 N2 1_555 1_555
H17 C13 1_555 1_555
C14 N3 1_555 1_555
H18 C14 1_555 1_555
C15 C12 1_555 1_555
C16 C15 1_555 1_555
H19 C16 1_555 1_555
C17 C16 1_555 1_555
H20 C17 1_555 1_555
C18 N3 1_555 1_555
C19 N4 1_555 1_555
C20 C19 1_555 1_555
H21 C20 1_555 1_555
C21 C20 1_555 1_555
H22 C21 1_555 1_555
C22 C21 1_555 1_555
C23 N4 1_555 1_555
H23 C23 1_555 1_555
C24 N5 1_555 1_555
H24 C24 1_555 1_555
C25 C22 1_555 1_555
C26 C25 1_555 1_555
H25 C26 1_555 1_555
C27 C26 1_555 1_555
H26 C27 1_555 1_555
C28 N5 1_555 1_555
C29 N6 1_555 1_555
H27 C29 1_555 1_555
C30 N6 1_555 1_555
C31 C30 1_555 1_555
H28 C31 1_555 1_555
C32 C31 1_555 1_555
H29 C32 1_555 1_555
C33 C32 1_555 1_555
C34 C33 1_555 1_555
H30 C34 1_555 1_555
C35 C30 1_555 1_555
H31 C35 1_555 1_555
C36 O8 1_555 1_555
H32 C36 1_555 1_555
H33 C36 1_555 1_555
H34 C36 1_555 1_555
O9 C40 1_555 1_555
O10 C69 1_555 1_555
N7 Zn1 1_555 1_555
N8 Zn1 1_555 1_555
N9 Zn4 1_555 1_555
N10 Zn4 1_555 1_555
N11 Zn7 1_555 1_555
N12 Zn7 1_555 1_555
C37 N7 1_555 1_555
C38 C37 1_555 1_555
H35 C38 1_555 1_555
C39 C38 1_555 1_555
H36 C39 1_555 1_555
C40 C39 1_555 1_555
C41 C40 1_555 1_555
H37 C41 1_555 1_555
C42 C37 1_555 1_555
H38 C42 1_555 1_555
C43 O9 1_555 1_555
H39 C43 1_555 1_555
H40 C43 1_555 1_555
H41 C43 1_555 1_555
C44 N7 1_555 1_555
H42 C44 1_555 1_555
C45 N8 1_555 1_555
C46 C45 1_555 1_555
H43 C46 1_555 1_555
C47 C46 1_555 1_555
H44 C47 1_555 1_555
C48 C47 1_555 1_555
C49 N8 1_555 1_555
H45 C49 1_555 1_555
C50 N9 1_555 1_555
H46 C50 1_555 1_555
C51 C48 1_555 1_555
C52 C51 1_555 1_555
H47 C52 1_555 1_555
C53 C52 1_555 1_555
H48 C53 1_555 1_555
C54 N9 1_555 1_555
C55 N10 1_555 1_555
C56 C55 1_555 1_555
H49 C56 1_555 1_555
C57 C56 1_555 1_555
H50 C57 1_555 1_555
C58 C57 1_555 1_555
C59 N10 1_555 1_555
H51 C59 1_555 1_555
C60 N11 1_555 1_555
H52 C60 1_555 1_555
C61 C58 1_555 1_555
C62 C61 1_555 1_555
H53 C62 1_555 1_555
C63 C62 1_555 1_555
H54 C63 1_555 1_555
C64 N11 1_555 1_555
C65 N12 1_555 1_555
H55 C65 1_555 1_555
C66 N12 1_555 1_555
C67 C66 1_555 1_555
H56 C67 1_555 1_555
C68 C67 1_555 1_555
H57 C68 1_555 1_555
C69 C68 1_555 1_555
C70 C69 1_555 1_555
H58 C70 1_555 1_555
C71 C66 1_555 1_555
H59 C71 1_555 1_555
C72 O10 1_555 1_555
H60 C72 1_555 1_555
H61 C72 1_555 1_555
H62 C72 1_555 1_555
O11 C76 1_555 1_555
O12 C105 1_555 1_555
N13 Zn2 1_555 1_555
N14 Zn2 1_555 1_555
N15 Zn5 1_555 1_555
N16 Zn5 1_555 1_555
N17 Zn8 1_555 1_555
N18 Zn8 1_555 1_555
C73 N13 1_555 1_555
C74 C73 1_555 1_555
H63 C74 1_555 1_555
C75 C74 1_555 1_555
H64 C75 1_555 1_555
C76 C75 1_555 1_555
C77 C76 1_555 1_555
H65 C77 1_555 1_555
C78 C73 1_555 1_555
H66 C78 1_555 1_555
C79 O11 1_555 1_555
H67 C79 1_555 1_555
H68 C79 1_555 1_555
H69 C79 1_555 1_555
C80 N13 1_555 1_555
H70 C80 1_555 1_555
C81 N14 1_555 1_555
C82 C81 1_555 1_555
H71 C82 1_555 1_555
C83 C82 1_555 1_555
H72 C83 1_555 1_555
C84 C83 1_555 1_555
C85 N14 1_555 1_555
H73 C85 1_555 1_555
C86 N15 1_555 1_555
H74 C86 1_555 1_555
C87 C84 1_555 1_555
C88 C87 1_555 1_555
H75 C88 1_555 1_555
C89 C88 1_555 1_555
H76 C89 1_555 1_555
C90 N15 1_555 1_555
C91 N16 1_555 1_555
C92 C91 1_555 1_555
H77 C92 1_555 1_555
C93 C92 1_555 1_555
H78 C93 1_555 1_555
C94 C93 1_555 1_555
C95 N16 1_555 1_555
H79 C95 1_555 1_555
C96 N17 1_555 1_555
H80 C96 1_555 1_555
C97 C94 1_555 1_555
C98 C97 1_555 1_555
H81 C98 1_555 1_555
C99 C98 1_555 1_555
H82 C99 1_555 1_555
C100 N17 1_555 1_555
C101 N18 1_555 1_555
H83 C101 1_555 1_555
C102 N18 1_555 1_555
C103 C102 1_555 1_555
H84 C103 1_555 1_555
C104 C103 1_555 1_555
H85 C104 1_555 1_555
C105 C104 1_555 1_555
C106 C105 1_555 1_555
H86 C106 1_555 1_555
C107 C102 1_555 1_555
H87 C107 1_555 1_555
C108 O12 1_555 1_555
H88 C108 1_555 1_555
H89 C108 1_555 1_555
H90 C108 1_555 1_555
O13 C112 1_555 1_555
O14 C141 1_555 1_555
N19 Zn3 1_555 1_555
N20 Zn3 1_555 1_555
N21 Zn6 1_555 1_555
N22 Zn6 1_555 1_555
N23 Zn9 1_555 1_555
N24 Zn9 1_555 1_555
C109 N19 1_555 1_555
C110 C109 1_555 1_555
H91 C110 1_555 1_555
C111 C110 1_555 1_555
H92 C111 1_555 1_555
C112 C111 1_555 1_555
C113 C112 1_555 1_555
H93 C113 1_555 1_555
C114 C109 1_555 1_555
H94 C114 1_555 1_555
C115 O13 1_555 1_555
H95 C115 1_555 1_555
H96 C115 1_555 1_555
H97 C115 1_555 1_555
C116 N19 1_555 1_555
H98 C116 1_555 1_555
C117 N20 1_555 1_555
C118 C117 1_555 1_555
H99 C118 1_555 1_555
C119 C118 1_555 1_555
H100 C119 1_555 1_555
C120 C119 1_555 1_555
C121 N20 1_555 1_555
H101 C121 1_555 1_555
C122 N21 1_555 1_555
H102 C122 1_555 1_555
C123 C120 1_555 1_555
C124 C123 1_555 1_555
H103 C124 1_555 1_555
C125 C124 1_555 1_555
H104 C125 1_555 1_555
C126 N21 1_555 1_555
C127 N22 1_555 1_555
C128 C127 1_555 1_555
H105 C128 1_555 1_555
C129 C128 1_555 1_555
H106 C129 1_555 1_555
C130 C129 1_555 1_555
C131 N22 1_555 1_555
H107 C131 1_555 1_555
C132 N23 1_555 1_555
H108 C132 1_555 1_555
C133 C130 1_555 1_555
C134 C133 1_555 1_555
H109 C134 1_555 1_555
C135 C134 1_555 1_555
H110 C135 1_555 1_555
C136 N23 1_555 1_555
C137 N24 1_555 1_555
H111 C137 1_555 1_555
C138 N24 1_555 1_555
C139 C138 1_555 1_555
H112 C139 1_555 1_555
C140 C139 1_555 1_555
H113 C140 1_555 1_555
C141 C140 1_555 1_555
C142 C141 1_555 1_555
H114 C142 1_555 1_555
C143 C138 1_555 1_555
H115 C143 1_555 1_555
C144 O14 1_555 1_555
H116 C144 1_555 1_555
H117 C144 1_555 1_555
H118 C144 1_555 1_555
O15 C148 1_555 1_555
O16 C177 1_555 1_555
N25 Zn3 1_555 1_555
N26 Zn3 1_555 1_555
N27 Zn6 1_555 1_555
N28 Zn6 1_555 1_555
N29 Zn9 1_555 1_555
N30 Zn9 1_555 1_555
C145 N25 1_555 1_555
C146 C145 1_555 1_555
H119 C146 1_555 1_555
C147 C146 1_555 1_555
H120 C147 1_555 1_555
C148 C147 1_555 1_555
C149 C148 1_555 1_555
H121 C149 1_555 1_555
C150 C145 1_555 1_555
H122 C150 1_555 1_555
C151 O15 1_555 1_555
H123 C151 1_555 1_555
H124 C151 1_555 1_555
H125 C151 1_555 1_555
C152 N25 1_555 1_555
H126 C152 1_555 1_555
C153 N26 1_555 1_555
C154 C153 1_555 1_555
H127 C154 1_555 1_555
C155 C154 1_555 1_555
H128 C155 1_555 1_555
C156 C155 1_555 1_555
C157 N26 1_555 1_555
H129 C157 1_555 1_555
C158 N27 1_555 1_555
H130 C158 1_555 1_555
C159 C156 1_555 1_555
C160 C159 1_555 1_555
H131 C160 1_555 1_555
C161 C160 1_555 1_555
H132 C161 1_555 1_555
C162 N27 1_555 1_555
C163 N28 1_555 1_555
C164 C163 1_555 1_555
H133 C164 1_555 1_555
C165 C164 1_555 1_555
H134 C165 1_555 1_555
C166 C165 1_555 1_555
C167 N28 1_555 1_555
H135 C167 1_555 1_555
C168 N29 1_555 1_555
H136 C168 1_555 1_555
C169 C166 1_555 1_555
C170 C169 1_555 1_555
H137 C170 1_555 1_555
C171 C170 1_555 1_555
H138 C171 1_555 1_555
C172 N29 1_555 1_555
C173 N30 1_555 1_555
H139 C173 1_555 1_555
C174 N30 1_555 1_555
C175 C174 1_555 1_555
H140 C175 1_555 1_555
C176 C175 1_555 1_555
H141 C176 1_555 1_555
C177 C176 1_555 1_555
C178 C177 1_555 1_555
H142 C178 1_555 1_555
C179 C174 1_555 1_555
H143 C179 1_555 1_555
C180 O16 1_555 1_555
H144 C180 1_555 1_555
H145 C180 1_555 1_555
H146 C180 1_555 1_555
N31 C181 1_555 1_555
C181 C182 1_555 1_555
C182 H147 1_555 1_555
H148 C182 1_555 1_555
H149 C182 1_555 1_555
S1 O17 1_555 1_555
O18 S1 1_555 1_555
O19 S1 1_555 1_555
C183 H150 1_555 1_555
C184 S1 1_555 1_555
C185 C184 1_555 1_555
H151 C185 1_555 1_555
C186 C185 1_555 1_555
H152 C186 1_555 1_555
C187 C186 1_555 1_555
C188 C183 1_555 1_555
C189 C188 1_555 1_555
H153 C189 1_555 1_555
C190 C189 1_555 1_555
H154 C190 1_555 1_555
C191 C190 1_555 1_555
H155 C191 1_555 1_555
C192 C187 1_555 1_555
H156 C192 1_555 1_555
S2 O20 1_555 1_555
O21 S2 1_555 1_555
O22 S2 1_555 1_555
C193 H157 1_555 1_555
C194 S2 1_555 1_555
C195 C194 1_555 1_555
H158 C195 1_555 1_555
C196 C195 1_555 1_555
H159 C196 1_555 1_555
C197 C196 1_555 1_555
C198 C193 1_555 1_555
C199 C198 1_555 1_555
H160 C199 1_555 1_555
C200 C199 1_555 1_555
H161 C200 1_555 1_555
C201 C200 1_555 1_555
H162 C201 1_555 1_555
C202 C197 1_555 1_555
H163 C202 1_555 1_555
S3 N32 1_555 1_555
S4 N32 1_555 1_555
O23 S3 1_555 1_555
O24 S3 1_555 1_555
O25 S4 1_555 1_555
O26 S4 1_555 1_555
C203 S3 1_555 1_555
C204 S4 1_555 1_555
F1 C203 1_555 1_555
F2 C203 1_555 1_555
F3 C203 1_555 1_555
F4 C204 1_555 1_555
F5 C204 1_555 1_555
F6 C204 1_555 1_555
S5 N33 1_555 1_555
S6 N33 1_555 1_555
O27 S5 1_555 1_555
O28 S5 1_555 1_555
O29 S6 1_555 1_555
O30 S6 1_555 1_555
C205 S5 1_555 1_555
C206 S6 1_555 1_555
F7 C205 1_555 1_555
F8 C205 1_555 1_555
F9 C205 1_555 1_555
F10 C206 1_555 1_555
F11 C206 1_555 1_555
F12 C206 1_555 1_555
S7 N34 1_555 1_555
S8 N34 1_555 1_555
O31 S7 1_555 1_555
O32 S7 1_555 1_555
O33 S8 1_555 1_555
O34 S8 1_555 1_555
C207 S7 1_555 1_555
C208 S8 1_555 1_555
F13 C207 1_555 1_555
F14 C207 1_555 1_555
F15 C207 1_555 1_555
F16 C208 1_555 1_555
F17 C208 1_555 1_555
F18 C208 1_555 1_555
S9 N35 1_555 1_555
S10 N35 1_555 1_555
O35 S9 1_555 1_555
O36 S9 1_555 1_555
O37 S10 1_555 1_555
O38 S10 1_555 1_555
C209 S9 1_555 1_555
C210 S10 1_555 1_555
F19 C209 1_555 1_555
F20 C209 1_555 1_555
F21 C209 1_555 1_555
F22 C210 1_555 1_555
F23 C210 1_555 1_555
F24 C210 1_555 1_555
S11 N36 1_555 1_555
S12 N36 1_555 1_555
O39 S11 1_555 1_555
O40 S11 1_555 1_555
O41 S12 1_555 1_555
O42 S12 1_555 1_555
C211 S11 1_555 1_555
C212 S12 1_555 1_555
F25 C211 1_555 1_555
F26 C211 1_555 1_555
F27 C211 1_555 1_555
F28 C212 1_555 1_555
F29 C212 1_555 1_555
F30 C212 1_555 1_555
S13 N37 1_555 1_555
S14 N37 1_555 1_555
O43 S13 1_555 1_555
O44 S13 1_555 1_555
O45 S14 1_555 1_555
O46 S14 1_555 1_555
C213 S13 1_555 1_555
C214 S14 1_555 1_555
F31 C213 1_555 1_555
F32 C213 1_555 1_555
F33 C213 1_555 1_555
F34 C214 1_555 1_555
F35 C214 1_555 1_555
F36 C214 1_555 1_555
C5 C6 1_555 1_555
C8 C9 1_555 1_555
C12 C13 1_555 1_555
C14 C15 1_555 1_555
C17 C18 1_555 1_555
C18 C19 1_555 1_555
C22 C23 1_555 1_555
C24 C25 1_555 1_555
C27 C28 1_555 1_555
C28 C29 1_555 1_555
C34 C35 1_555 1_555
C41 C42 1_555 1_555
C44 C45 1_555 1_555
C48 C49 1_555 1_555
C50 C51 1_555 1_555
C53 C54 1_555 1_555
C54 C55 1_555 1_555
C58 C59 1_555 1_555
C60 C61 1_555 1_555
C63 C64 1_555 1_555
C64 C65 1_555 1_555
C70 C71 1_555 1_555
C77 C78 1_555 1_555
C80 C81 1_555 1_555
C84 C85 1_555 1_555
C86 C87 1_555 1_555
C89 C90 1_555 1_555
C90 C91 1_555 1_555
C94 C95 1_555 1_555
C96 C97 1_555 1_555
C99 C100 1_555 1_555
C100 C101 1_555 1_555
C106 C107 1_555 1_555
C113 C114 1_555 1_555
C116 C117 1_555 1_555
C120 C121 1_555 1_555
C122 C123 1_555 1_555
C125 C126 1_555 1_555
C126 C127 1_555 1_555
C130 C131 1_555 1_555
C132 C133 1_555 1_555
C135 C136 1_555 1_555
C136 C137 1_555 1_555
C142 C143 1_555 1_555
C149 C150 1_555 1_555
C152 C153 1_555 1_555
C156 C157 1_555 1_555
C158 C159 1_555 1_555
C161 C162 1_555 1_555
C162 C163 1_555 1_555
C166 C167 1_555 1_555
C168 C169 1_555 1_555
C171 C172 1_555 1_555
C172 C173 1_555 1_555
C178 C179 1_555 1_555
C183 C184 1_555 1_555
C187 C188 1_555 1_555
C191 C192 1_555 1_555
C193 C194 1_555 1_555
C197 C198 1_555 1_555
C201 C202 1_555 1_555

#END
