
#######################################################################
#
#                 Cambridge Crystallographic Data Centre
#                                CCDC 
#
#######################################################################
#
# If this CIF has been generated from an entry in the Cambridge 
# Structural Database, then it will include bibliographic, chemical, 
# crystal, experimental, refinement or atomic coordinate data resulting 
# from the CCDC's data processing and validation procedures.
#
#######################################################################

data_RUWMED
_chemical_formula_moiety         
'C180 H146 N30 O16 Zn9 12+,11(C2 H3 N1),12(Cl1 O4 1-),6(H2 O1)'
_chemical_name_systematic        
"pentakis(\m-3,3':6',2'':5'',3'''-quaterpyridine-6,6'''-diylbis(N-(4-methoxyphenyl)methanimine))-hexakis(\m-hydroxy)-nona-zinc dodeca(perchlorate) acetonitrile solvate hexahydrate"
_symmetry_cell_setting           triclinic
_symmetry_space_group_name_H-M   'P -1'
_symmetry_Int_Tables_number      2
_space_group_name_Hall           '-P 1'
loop_
_symmetry_equiv_pos_site_id
_symmetry_equiv_pos_as_xyz
1 x,y,z
2 -x,-y,-z
_cell_length_a                   19.431(4)
_cell_length_b                   22.435(5)
_cell_length_c                   28.802(6)
_cell_angle_alpha                81.86(3)
_cell_angle_beta                 81.60(3)
_cell_angle_gamma                75.35(3)
_cell_volume                     11945.2
_exptl_crystal_colour            colorless
_exptl_crystal_description       plate
_cell_formula_units_Z            2
_exptl_crystal_recrystallization_method 'acetonitrile/diethyl ether'
loop_
_atom_site_label
_atom_site_type_symbol
_atom_site_fract_x
_atom_site_fract_y
_atom_site_fract_z
Zn1 Zn 0.74150(7) 0.56108(6) 0.19243(5)
Zn2 Zn 0.87629(7) 0.42305(6) 0.22784(5)
Zn3 Zn 1.04810(7) 0.32739(6) 0.19264(4)
Zn4 Zn 1.23049(7) 0.61859(6) 0.16908(4)
Zn5 Zn 1.11147(7) 0.65941(6) 0.26856(4)
Zn6 Zn 0.95258(7) 0.76023(6) 0.31560(4)
Zn7 Zn 1.33032(8) 0.94333(6) 0.17911(5)
Zn8 Zn 1.31002(7) 0.91930(6) 0.30594(4)
Zn9 Zn 1.20490(7) 0.93474(6) 0.41554(4)
N1 N 0.6413(5) 0.5464(4) 0.2238(3)
N2 N 0.7440(5) 0.5682(4) 0.2669(3)
N3 N 0.9122(5) 0.6843(4) 0.3492(3)
N4 N 1.0139(5) 0.7278(4) 0.3756(3)
N5 N 1.2105(5) 0.8415(4) 0.4275(3)
N6 N 1.3125(5) 0.8980(5) 0.4374(3)
N7 N 0.7250(5) 0.5675(5) 0.1165(3)
N8 N 0.7680(5) 0.6454(5) 0.1651(3)
N9 N 0.8879(4) 0.7914(4) 0.2575(3)
N10 N 0.9358(5) 0.8568(4) 0.3112(3)
N11 N 1.0930(4) 0.9687(4) 0.4000(3)
N12 N 1.1563(5) 0.9832(4) 0.4730(3)
N13 N 0.8177(5) 0.3709(4) 0.2778(4)
N14 N 0.9109(5) 0.4357(4) 0.2901(3)
N15 N 1.0959(5) 0.5827(4) 0.3127(3)
N16 N 1.1918(4) 0.6484(4) 0.3107(3)
N17 N 1.3430(5) 0.8240(4) 0.3217(3)
N18 N 1.4156(5) 0.9120(4) 0.3137(3)
N19 N 1.0060(5) 0.2770(4) 0.2562(3)
N20 N 1.1028(5) 0.3467(4) 0.2437(3)
N21 N 1.2492(5) 0.5357(4) 0.2205(3)
N22 N 1.3221(5) 0.6239(4) 0.1983(3)
N23 N 1.3978(5) 0.8482(4) 0.1913(3)
N24 N 1.4342(6) 0.9564(5) 0.1670(4)
N25 N 1.0928(5) 0.2504(5) 0.1546(3)
N26 N 1.1093(5) 0.3680(4) 0.1304(3)
N27 N 1.2152(5) 0.5801(5) 0.1109(3)
N28 N 1.2237(5) 0.6962(5) 0.1136(3)
N29 N 1.2702(5) 0.9268(5) 0.1301(3)
N30 N 1.2722(5) 1.0364(5) 0.1559(3)
O1 O 0.9590(4) 0.3871(3) 0.1871(3)
H1 H 0.9520 0.4075 0.1587
O2 O 0.8154(4) 0.4852(3) 0.1898(3)
H2 H 0.8325 0.4826 0.1596
O3 O 1.0369(4) 0.7306(4) 0.2725(3)
H3 H 1.0306 0.7590 0.2475
O4 O 1.1446(4) 0.6573(4) 0.2050(3)
H4 H 1.1104 0.6604 0.1867
O5 O 1.2422(4) 0.9602(3) 0.3516(2)
H5 H 1.2119 0.9970 0.3467
O6 O 1.2847(4) 0.9429(3) 0.2437(2)
H6 H 1.2480 0.9259 0.2436
C1 C 0.5890(6) 0.5288(5) 0.2011(4)
C2 C 0.5660(7) 0.4751(6) 0.2175(5)
H7 H 0.5852 0.4490 0.2438
C3 C 0.5154(7) 0.4595(7) 0.1959(5)
H8 H 0.5006 0.4222 0.2067
C4 C 0.4861(7) 0.4987(7) 0.1580(5)
C5 C 0.5087(7) 0.5524(7) 0.1413(4)
H9 H 0.4888 0.5791 0.1155
C6 C 0.5608(6) 0.5666(6) 0.1629(4)
H10 H 0.5774 0.6029 0.1512
C7 C 0.4111(9) 0.5121(9) 0.0959(5)
H11 H 0.3833 0.5537 0.1022
H12 H 0.3808 0.4902 0.0839
H13 H 0.4522 0.5154 0.0723
C8 C 0.6339(6) 0.5418(5) 0.2682(4)
H14 H 0.5942 0.5279 0.2853
C9 C 0.6849(6) 0.5571(5) 0.2939(4)
C10 C 0.6739(7) 0.5602(6) 0.3417(4)
H15 H 0.6326 0.5502 0.3597
C11 C 0.7230(6) 0.5777(6) 0.3632(4)
H16 H 0.7155 0.5810 0.3962
C12 C 0.7837(6) 0.5908(5) 0.3361(4)
C13 C 0.7921(6) 0.5841(5) 0.2888(4)
H17 H 0.8347 0.5911 0.2704
C14 C 0.8623(6) 0.6634(5) 0.3345(4)
H18 H 0.8418 0.6847 0.3070
C15 C 0.8374(6) 0.6117(5) 0.3569(4)
C16 C 0.8631(7) 0.5854(5) 0.3989(4)
H19 H 0.8451 0.5526 0.4168
C17 C 0.9150(6) 0.6066(5) 0.4152(4)
H20 H 0.9339 0.5876 0.4437
C18 C 0.9393(6) 0.6561(5) 0.3894(4)
C19 C 0.9968(6) 0.6790(5) 0.4035(4)
C20 C 1.0331(7) 0.6520(5) 0.4415(4)
H21 H 1.0198 0.6180 0.4611
C21 C 1.0885(6) 0.6743(5) 0.4510(4)
H22 H 1.1135 0.6558 0.4774
C22 C 1.1083(6) 0.7234(5) 0.4223(3)
C23 C 1.0690(6) 0.7481(5) 0.3851(3)
H23 H 1.0817 0.7818 0.3648
C24 C 1.1605(6) 0.8134(5) 0.4211(3)
H24 H 1.1184 0.8380 0.4087
C25 C 1.1666(6) 0.7500(5) 0.4316(3)
C26 C 1.2274(6) 0.7151(5) 0.4513(3)
H25 H 1.2327 0.6720 0.4607
C27 C 1.2796(6) 0.7439(5) 0.4570(4)
H26 H 1.3222 0.7205 0.4695
C28 C 1.2700(6) 0.8070(5) 0.4446(4)
C29 C 1.3257(6) 0.8400(6) 0.4492(4)
H27 H 1.3696 0.8183 0.4607
C30 C 1.3662(6) 0.9321(5) 0.4376(4)
C31 C 1.4373(6) 0.9032(6) 0.4379(4)
H28 H 1.4531 0.8595 0.4383
C32 C 1.4865(6) 0.9403(6) 0.4375(4)
H29 H 1.5361 0.9213 0.4374
C33 C 1.4629(7) 1.0037(6) 0.4372(4)
C34 C 1.3921(6) 1.0309(6) 0.4373(5)
H30 H 1.3761 1.0745 0.4375
C35 C 1.3420(7) 0.9951(6) 0.4371(4)
H31 H 1.2925 1.0143 0.4366
C36 C 1.5816(7) 1.0177(7) 0.4343(5)
H32 H 1.5932 0.9902 0.4632
H33 H 1.6063 1.0514 0.4308
H34 H 1.5972 0.9940 0.4070
C37 C 0.6961(7) 0.5302(7) 0.0910(4)
C38 C 0.7058(7) 0.4693(7) 0.1039(5)
H35 H 0.7349 0.4505 0.1283
C39 C 0.6738(8) 0.4321(7) 0.0822(5)
H36 H 0.6802 0.3891 0.0922
C40 C 0.6331(9) 0.4602(8) 0.0460(5)
C41 C 0.6223(8) 0.5247(8) 0.0315(5)
H37 H 0.5939 0.5436 0.0068
C42 C 0.6538(7) 0.5593(7) 0.0538(4)
H38 H 0.6473 0.6025 0.0446
C43 C 0.5979(12) 0.3672(9) 0.0405(7)
H39 H 0.6475 0.3432 0.0416
H40 H 0.5744 0.3493 0.0199
H41 H 0.5721 0.3659 0.0724
C44 C 0.7469(8) 0.6120(7) 0.0927(4)
H42 H 0.7474 0.6179 0.0594
C45 C 0.7716(8) 0.6550(7) 0.1167(4)
C46 C 0.7929(10) 0.7052(8) 0.0925(5)
H43 H 0.7934 0.7123 0.0592
C47 C 0.8139(10) 0.7463(7) 0.1165(5)
H44 H 0.8289 0.7812 0.0996
C48 C 0.8127(8) 0.7355(6) 0.1643(4)
C49 C 0.7885(6) 0.6845(5) 0.1867(4)
H45 H 0.7866 0.6774 0.2202
C50 C 0.8713(6) 0.7554(5) 0.2294(4)
H46 H 0.8870 0.7118 0.2362
C51 C 0.8336(7) 0.7774(6) 0.1917(4)
C52 C 0.8188(9) 0.8408(7) 0.1805(5)
H47 H 0.7957 0.8585 0.1532
C53 C 0.8366(9) 0.8790(7) 0.2077(5)
H48 H 0.8252 0.9227 0.1998
C54 C 0.8714(7) 0.8527(5) 0.2469(4)
C55 C 0.8966(6) 0.8892(5) 0.2768(4)
C56 C 0.8817(6) 0.9530(5) 0.2703(4)
H49 H 0.8527 0.9754 0.2468
C57 C 0.9096(6) 0.9844(5) 0.2985(4)
H50 H 0.8990 1.0284 0.2947
C58 C 0.9529(6) 0.9511(5) 0.3322(4)
C59 C 0.9624(5) 0.8871(5) 0.3374(4)
H51 H 0.9899 0.8637 0.3614
C60 C 1.0604(6) 0.9538(5) 0.3679(4)
H52 H 1.0873 0.9247 0.3471
C61 C 0.9878(6) 0.9788(5) 0.3629(4)
C62 C 0.9524(6) 1.0260(5) 0.3898(4)
H53 H 0.9045 1.0472 0.3852
C63 C 0.9858(6) 1.0431(5) 0.4236(4)
H54 H 0.9614 1.0752 0.4426
C64 C 1.0570(6) 1.0111(5) 0.4288(4)
C65 C 1.0941(6) 1.0173(5) 0.4677(4)
H55 H 1.0718 1.0470 0.4891
C66 C 1.1878(6) 0.9857(5) 0.5145(4)
C67 C 1.1856(6) 1.0404(6) 0.5308(5)
H56 H 1.1653 1.0787 0.5136
C68 C 1.2134(7) 1.0394(6) 0.5728(5)
H57 H 1.2128 1.0773 0.5841
C69 C 1.2417(6) 0.9844(6) 0.5978(4)
C70 C 1.2441(6) 0.9290(6) 0.5816(4)
H58 H 1.2634 0.8908 0.5992
C71 C 1.2176(6) 0.9300(6) 0.5392(4)
H59 H 1.2200 0.8922 0.5271
C72 C 1.2931(8) 0.9303(7) 0.6686(5)
H60 H 1.2549 0.9083 0.6782
H61 H 1.3100 0.9391 0.6968
H62 H 1.3329 0.9045 0.6501
C73 C 0.6048(12) 0.2526(10) 0.1940(8)
H63 H 0.5782 0.2960 0.1893
H64 H 0.5734 0.2254 0.1917
H65 H 0.6461 0.2451 0.1698
C74 C 0.8309(6) 0.3715(6) 0.3193(5)
H66 H 0.8066 0.3504 0.3449
C75 C 0.8828(6) 0.4039(5) 0.3285(4)
C76 C 0.8997(7) 0.4048(6) 0.3727(4)
H67 H 0.8771 0.3839 0.3992
C77 C 0.9498(7) 0.4364(5) 0.3788(4)
H68 H 0.9628 0.4363 0.4093
C78 C 0.9810(6) 0.4684(5) 0.3394(4)
C79 C 0.9593(6) 0.4655(5) 0.2954(4)
H69 H 0.9806 0.4861 0.2681
C80 C 1.0449(6) 0.5525(5) 0.3111(4)
H70 H 1.0143 0.5658 0.2869
C81 C 1.0352(6) 0.5019(5) 0.3439(4)
C82 C 1.0806(6) 0.4834(5) 0.3791(4)
H71 H 1.0755 0.4498 0.4024
C83 C 1.1326(7) 0.5143(5) 0.3797(4)
H72 H 1.1635 0.5019 0.4039
C84 C 1.1414(6) 0.5630(5) 0.3463(3)
C85 C 1.1956(6) 0.5985(5) 0.3442(4)
C86 C 1.2501(6) 0.5829(5) 0.3737(4)
H73 H 1.2549 0.5466 0.3956
C87 C 1.2972(6) 0.6208(5) 0.3707(4)
H74 H 1.3343 0.6107 0.3907
C88 C 1.2902(6) 0.6733(5) 0.3387(3)
C89 C 1.2375(6) 0.6839(5) 0.3088(4)
H75 H 1.2339 0.7187 0.2855
C90 C 1.3059(6) 0.7815(5) 0.3245(3)
H76 H 1.2573 0.7947 0.3182
C91 C 1.3341(6) 0.7180(5) 0.3362(4)
C92 C 1.4057(6) 0.7012(5) 0.3452(3)
H77 H 1.4274 0.6588 0.3534
C93 C 1.4455(6) 0.7449(5) 0.3423(4)
H78 H 1.4940 0.7334 0.3487
C94 C 1.4117(6) 0.8067(5) 0.3295(4)
C95 C 1.4495(6) 0.8563(5) 0.3244(4)
H79 H 1.4987 0.8471 0.3289
C96 C 1.4487(6) 0.9624(5) 0.3091(4)
C97 C 1.5227(6) 0.9563(6) 0.2966(5)
H80 H 1.5530 0.9172 0.2900
C98 C 1.5511(7) 1.0074(6) 0.2940(5)
H81 H 1.6012 1.0029 0.2859
C99 C 1.5088(7) 1.0644(6) 0.3029(5)
C100 C 1.4359(7) 1.0703(6) 0.3145(5)
H82 H 1.4059 1.1094 0.3212
C101 C 1.4060(6) 1.0202(5) 0.3165(4)
H83 H 1.3556 1.0256 0.3231
C102 C 1.5043(9) 1.1690(7) 0.3118(8)
H84 H 1.4673 1.1858 0.2905
H85 H 1.5366 1.1969 0.3089
H86 H 1.4816 1.1650 0.3444
C103 C 0.9551(7) 0.2409(5) 0.2569(4)
C104 C 0.9375(8) 0.1999(6) 0.2959(4)
H87 H 0.9570 0.1971 0.3248
C105 C 0.8917(8) 0.1639(6) 0.2916(5)
H88 H 0.8791 0.1365 0.3179
C106 C 0.8644(7) 0.1665(6) 0.2511(5)
C107 C 0.8798(7) 0.2073(6) 0.2126(5)
H89 H 0.8604 0.2092 0.1838
C108 C 0.9237(6) 0.2448(5) 0.2168(4)
H90 H 0.9325 0.2744 0.1910
C109 C 0.7926(9) 0.1260(8) 0.2087(6)
H91 H 0.7627 0.1673 0.2002
H92 H 0.7633 0.0955 0.2134
H93 H 0.8316 0.1154 0.1834
C110 C 1.0344(6) 0.2826(5) 0.2920(4)
H94 H 1.0212 0.2619 0.3218
C111 C 1.0854(6) 0.3194(5) 0.2885(4)
C112 C 1.1171(7) 0.3285(6) 0.3259(4)
H95 H 1.1068 0.3081 0.3564
C113 C 1.1628(7) 0.3664(5) 0.3194(4)
H96 H 1.1844 0.3722 0.3455
C114 C 1.1788(6) 0.3976(5) 0.2741(4)
C115 C 1.1467(6) 0.3838(5) 0.2382(4)
H97 H 1.1573 0.4028 0.2072
C116 C 1.2076(6) 0.4948(5) 0.2323(3)
H98 H 1.1647 0.5024 0.2180
C117 C 1.2242(6) 0.4416(5) 0.2646(4)
C118 C 1.2853(7) 0.4345(6) 0.2868(4)
H99 H 1.2976 0.4003 0.3100
C119 C 1.3273(7) 0.4752(6) 0.2760(4)
H100 H 1.3694 0.4689 0.2910
C120 C 1.3091(6) 0.5269(5) 0.2426(4)
C121 C 1.3457(6) 0.5770(5) 0.2313(4)
C122 C 1.4025(6) 0.5791(6) 0.2554(4)
H101 H 1.4210 0.5452 0.2774
C123 C 1.4313(6) 0.6294(5) 0.2474(4)
H102 H 1.4698 0.6307 0.2638
C124 C 1.4043(6) 0.6789(5) 0.2152(4)
C125 C 1.3502(6) 0.6728(5) 0.1910(4)
H103 H 1.3323 0.7055 0.1680
C126 C 1.3785(6) 0.7944(5) 0.2024(4)
H104 H 1.3289 0.7950 0.2074
C127 C 1.4279(6) 0.7374(5) 0.2070(4)
C128 C 1.4999(7) 0.7390(6) 0.2030(5)
H105 H 1.5355 0.7015 0.2071
C129 C 1.5194(7) 0.7951(7) 0.1929(5)
H106 H 1.5682 0.7964 0.1907
C130 C 1.4675(7) 0.8486(6) 0.1859(4)
C131 C 1.4837(8) 0.9085(7) 0.1724(5)
H107 H 1.5321 0.9117 0.1677
C132 C 1.4529(9) 1.0176(6) 0.1543(6)
C133 C 1.4480(10) 1.0528(7) 0.1903(5)
H108 H 1.4302 1.0389 0.2214
C134 C 1.4686(9) 1.1083(7) 0.1818(4)
H109 H 1.4655 1.1323 0.2070
C135 C 1.4940(7) 1.1287(5) 0.1364(4)
C136 C 1.4998(9) 1.0932(6) 0.0995(4)
H110 H 1.5177 1.1068 0.0683
C137 C 1.4789(10) 1.0376(6) 0.1090(6)
H111 H 1.4825 1.0129 0.0841
O7 O 1.5140(11) 1.1836(6) 0.1238(6)
C138 C 1.525(3) 1.201(2) 0.0715(10)
H112 H 1.5395 1.2407 0.0653
H113 H 1.5632 1.1689 0.0572
H114 H 1.4808 1.2051 0.0579
C139 C 1.0782(7) 0.1896(6) 0.1655(4)
C140 C 1.0485(7) 0.1650(6) 0.1337(5)
H115 H 1.0397 0.1876 0.1039
C141 C 1.0320(8) 0.1090(6) 0.1450(5)
H116 H 1.0116 0.0924 0.1232
C142 C 1.0454(8) 0.0761(6) 0.1887(5)
C143 C 1.0781(8) 0.0994(6) 0.2196(5)
H117 H 1.0895 0.0759 0.2488
C144 C 1.0939(7) 0.1561(6) 0.2082(4)
H118 H 1.1155 0.1723 0.2296
C145 C 0.9993(10) -0.0089(8) 0.1722(6)
H119 H 0.9503 0.0138 0.1670
H120 H 0.9992 -0.0516 0.1856
H121 H 1.0300 -0.0094 0.1420
C146 C 1.1267(6) 0.2629(6) 0.1142(4)
H122 H 1.1424 0.2321 0.0930
C147 C 1.1411(7) 0.3240(6) 0.1007(4)
C148 C 1.1848(7) 0.3383(6) 0.0610(4)
H123 H 1.2036 0.3082 0.0394
C149 C 1.2016(7) 0.3933(6) 0.0518(4)
H124 H 1.2356 0.4010 0.0258
C150 C 1.1681(6) 0.4389(6) 0.0812(4)
C151 C 1.1229(6) 0.4240(6) 0.1202(4)
H125 H 1.1004 0.4549 0.1405
C152 C 1.2030(6) 0.5252(6) 0.1128(4)
H126 H 1.2051 0.5001 0.1423
C153 C 1.1870(6) 0.5004(6) 0.0752(4)
C154 C 1.1901(7) 0.5367(6) 0.0317(4)
H127 H 1.1831 0.5213 0.0041
C155 C 1.2033(7) 0.5946(6) 0.0286(4)
H128 H 1.2053 0.6194 -0.0010
C156 C 1.2137(6) 0.6163(6) 0.0689(4)
C157 C 1.2186(6) 0.6811(6) 0.0714(4)
C158 C 1.2121(8) 0.7259(7) 0.0325(4)
H129 H 1.2068 0.7151 0.0027
C159 C 1.2134(8) 0.7852(7) 0.0373(4)
H130 H 1.2102 0.8159 0.0108
C160 C 1.2197(7) 0.8001(6) 0.0816(4)
C161 C 1.2228(6) 0.7536(6) 0.1187(4)
H131 H 1.2244 0.7637 0.1494
C162 C 1.2675(7) 0.8716(6) 0.1193(4)
H132 H 1.2997 0.8356 0.1318
C163 C 1.2186(7) 0.8647(6) 0.0898(4)
C164 C 1.1748(8) 0.9176(6) 0.0699(4)
H133 H 1.1429 0.9147 0.0487
C165 C 1.1778(8) 0.9737(6) 0.0807(5)
H134 H 1.1479 1.0102 0.0668
C166 C 1.2243(7) 0.9785(6) 0.1121(4)
C167 C 1.2294(8) 1.0363(6) 0.1267(4)
H135 H 1.2005 1.0743 0.1143
C168 C 1.2765(7) 1.0923(6) 0.1712(5)
C169 C 1.2789(7) 1.0957(6) 0.2177(5)
H136 H 1.2769 1.0600 0.2394
C170 C 1.2841(8) 1.1483(6) 0.2346(6)
H137 H 1.2851 1.1487 0.2674
C171 C 1.2879(8) 1.2006(7) 0.2038(7)
C172 C 1.2863(9) 1.1981(7) 0.1558(7)
H138 H 1.2906 1.2333 0.1340
C173 C 1.2788(8) 1.1456(7) 0.1393(6)
H139 H 1.2752 1.1454 0.1067
C174 C 1.3059(10) 1.2536(8) 0.2642(7)
H140 H 1.2691 1.2364 0.2848
H141 H 1.3018 1.2961 0.2709
H142 H 1.3534 1.2281 0.2701
C175 C 0.7694(7) 0.3376(6) 0.2675(5)
C176 C 0.7470(7) 0.2914(6) 0.3001(5)
H143 H 0.7636 0.2813 0.3303
C177 C 0.7011(7) 0.2615(7) 0.2872(6)
H144 H 0.6869 0.2294 0.3087
C178 C 0.6750(8) 0.2758(7) 0.2451(7)
C179 C 0.6975(8) 0.3193(8) 0.2118(6)
H145 H 0.6808 0.3283 0.1816
C180 C 0.7464(7) 0.3501(6) 0.2241(6)
H146 H 0.7633 0.3800 0.2016
O8 O 0.4358(5) 0.4789(5) 0.1380(4)
O9 O 1.5061(5) 1.0430(4) 0.4372(3)
O10 O 0.5974(7) 0.4303(6) 0.0224(4)
O11 O 1.2659(5) 0.9881(4) 0.6403(3)
O12 O 0.6284(6) 0.2405(6) 0.2383(5)
O13 O 1.5442(5) 1.1094(4) 0.2997(4)
O14 O 0.8214(6) 0.1259(4) 0.2506(4)
O15 O 1.0258(6) 0.0207(4) 0.2041(4)
O16 O 1.2958(6) 1.2541(5) 0.2154(5)
Cl1 Cl 0.14357(18) 0.85464(16) 0.24527(12)
O18 O 0.1398(5) 0.8430(4) 0.2954(3)
O19 O 0.2005(5) 0.8074(5) 0.2268(3)
O20 O 0.0774(5) 0.8527(4) 0.2310(3)
O21 O 0.1567(6) 0.9127(5) 0.2277(5)
Cl2 Cl 0.49565(19) 0.66864(17) 0.46066(13)
O22 O 0.4806(6) 0.7334(5) 0.4490(4)
O23 O 0.5574(6) 0.6405(6) 0.4327(5)
O24 O 0.5069(7) 0.6540(6) 0.5090(4)
O25 O 0.4361(5) 0.6455(5) 0.4534(4)
Cl3 Cl 0.65006(19) 0.75285(19) 0.28488(14)
O26 O 0.6341(6) 0.7055(5) 0.2643(4)
O27 O 0.7239(4) 0.7373(5) 0.2924(4)
O28 O 0.6317(8) 0.8100(5) 0.2576(5)
O29 O 0.6102(6) 0.7636(7) 0.3299(5)
Cl4 Cl 0.1403(2) 0.34758(16) 0.46418(12)
O30 O 0.0646(5) 0.3674(10) 0.4643(8)
O31 O 0.1741(12) 0.3206(8) 0.4231(5)
O32 O 0.1660(13) 0.4004(7) 0.4699(7)
O33 O 0.1556(6) 0.3040(4) 0.5044(3)
Cl5 Cl 0.1699(2) 0.12264(18) 0.35581(15)
O37 O 0.1467(9) 0.1823(5) 0.3426(6)
O38 O 0.1595(8) 0.0821(5) 0.3263(4)
O39 O 0.2508(8) 0.1156(8) 0.3496(6)
O40 O 0.1613(8) 0.1015(7) 0.4035(4)
Cl6 Cl 0.8698(3) 0.2289(2) 0.42853(15)
O41 O 0.8488(9) 0.2873(5) 0.4482(5)
O42 O 0.9341(7) 0.2307(9) 0.3988(5)
O43 O 0.8157(8) 0.2259(8) 0.4032(5)
O44 O 0.8790(9) 0.1831(6) 0.4679(4)
Cl7 Cl 0.9885(2) 0.58234(18) 0.18224(13)
O49 O 0.9287(8) 0.5544(9) 0.1834(8)
O50 O 0.9697(13) 0.6226(10) 0.2190(7)
O51 O 1.0013(13) 0.6142(11) 0.1363(5)
O52 O 1.0470(5) 0.5314(4) 0.1944(3)
Cl8 Cl 0.7431(3) 0.46709(19) 0.48773(14)
O56 O 0.6986(6) 0.4369(5) 0.5195(4)
O57 O 0.7845(11) 0.4336(9) 0.4532(7)
O58 O 0.7029(11) 0.5246(7) 0.4701(8)
O59 O 0.7900(10) 0.4823(10) 0.5165(6)
Cl9 Cl 0.8951(4) 0.3311(5) 0.0835(2)
O63 O 0.9690(8) 0.3115(7) 0.0948(5)
O64 O 0.8866(17) 0.2856(15) 0.0491(12)
O65 O 0.8855(11) 0.3865(10) 0.0556(7)
O66 O 0.8453(11) 0.3325(9) 0.1271(7)
Cl10 Cl 0.2185(9) 0.1412(8) 0.0075(6)
O67 O 0.2297(13) 0.1387(11) -0.0431(7)
O68 O 0.1521(13) 0.1268(14) 0.0293(10)
O69 O 0.2226(15) 0.2025(9) 0.0161(9)
O70 O 0.2775(12) 0.0953(11) 0.0273(9)
Cl12 Cl 0.4318(3) 0.7203(3) 0.06626(16)
O75 O 0.4092(9) 0.7631(7) 0.0978(4)
O76 O 0.3890(7) 0.6743(6) 0.0773(4)
O77 O 0.4968(10) 0.6952(12) 0.0907(8)
O78 O 0.4639(15) 0.7318(14) 0.0190(6)
Cl13 Cl 0.1891(11) 0.9156(9) 0.9169(7)
O81 O 0.189(2) 0.9381(18) 0.9597(10)
O82 O 0.1375(18) 0.8806(17) 0.9211(14)
O83 O 0.176(2) 0.9658(15) 0.8816(12)
O84 O 0.2561(15) 0.8755(17) 0.9059(14)
O89 O 0.9080(10) 0.4664(9) 0.1061(6)
O90 O 0.0409(13) 0.7612(11) 0.1634(8)
O91 O 0.7409(14) 0.2549(13) 0.0941(7)
O92 O 0.9343(8) 0.4807(5) 0.4927(4)
O93 O 0.6077(12) 0.7127(12) 0.1050(9)
O94 O 1.631(2) 0.8497(19) 0.1021(14)
O96 O 1.373(4) 0.278(4) 0.036(3)
O97 O 1.397(5) 0.207(4) -0.002(3)
O98 O 0.027(3) 0.842(3) 0.987(2)
O99 O 0.124(3) 1.028(3) 0.932(2)
N31 N 0.6462(9) 0.4206(7) 0.3499(5)
C188 C 0.6529(9) 0.3913(8) 0.3850(6)
C189 C 0.6609(9) 0.3503(8) 0.4299(6)
H154 H 0.6386 0.3742 0.4564
H155 H 0.7119 0.3333 0.4330
H156 H 0.6376 0.3164 0.4300
N32 N 0.3517(10) 0.4349(7) 0.3866(5)
C190 C 0.3451(10) 0.4034(8) 0.4194(6)
C191 C 0.3363(9) 0.3633(8) 0.4606(6)
H157 H 0.3058 0.3869 0.4853
H158 H 0.3831 0.3436 0.4714
H159 H 0.3137 0.3314 0.4541
N33 N 0.6128(13) 0.2012(10) 0.4048(8)
C192 C 0.5628(12) 0.1990(9) 0.4317(7)
C193 C 0.4918(10) 0.1961(9) 0.4561(7)
H160 H 0.4550 0.2183 0.4358
H161 H 0.4840 0.2153 0.4855
H162 H 0.4891 0.1527 0.4633
N34 N 0.3445(15) 0.2402(13) 0.3773(10)
C194 C 0.3163(13) 0.2099(12) 0.4055(9)
C195 C 0.2623(14) 0.1885(13) 0.4408(9)
H163 H 0.2246 0.2243 0.4503
H164 H 0.2851 0.1664 0.4686
H165 H 0.2412 0.1605 0.4272
N35 N 0.8133(7) 0.8106(6) 0.3691(5)
C196 C 0.7646(9) 0.8399(7) 0.3546(6)
C197 C 0.7029(9) 0.8795(7) 0.3343(6)
H166 H 0.7005 0.9228 0.3378
H167 H 0.6593 0.8682 0.3505
H168 H 0.7070 0.8744 0.3006
N36 N 0.6429(10) 0.8253(8) 0.4582(7)
C198 C 0.6650(10) 0.7800(10) 0.4441(7)
C199 C 0.6943(8) 0.7204(7) 0.4257(6)
H169 H 0.7257 0.7259 0.3963
H170 H 0.6551 0.7037 0.4194
H171 H 0.7218 0.6916 0.4490
N37 N 0.9910(7) 0.8647(7) 0.4575(5)
C200 C 0.9756(9) 0.8310(7) 0.4843(6)
C201 C 0.9531(11) 0.7861(9) 0.5249(7)
H172 H 0.9951 0.7536 0.5331
H173 H 0.9177 0.7673 0.5154
H174 H 0.9320 0.8085 0.5524
N38 N 0.4849(6) 0.5402(6) 0.3512(4)
C202 C 0.4855(7) 0.5206(6) 0.3890(5)
C203 C 0.4869(9) 0.4958(7) 0.4390(5)
H175 H 0.5272 0.5051 0.4511
H176 H 0.4924 0.4509 0.4421
H177 H 0.4420 0.5151 0.4571
N39 N 0.2890(7) 0.3944(6) 0.1582(4)
C204 C 0.3442(9) 0.3664(8) 0.1550(6)
C205 C 0.4163(10) 0.3278(10) 0.1536(10)
H178 H 0.4277 0.3127 0.1858
H179 H 0.4501 0.3521 0.1377
H180 H 0.4199 0.2924 0.1362
N40 N 0.4533(6) 0.3348(5) 0.2696(5)
C206 C 0.4801(6) 0.3363(5) 0.3029(5)
C207 C 0.5136(7) 0.3382(5) 0.3444(4)
H181 H 0.5247 0.3839 0.3441
H182 H 0.5642 0.3028 0.3452
H183 H 0.4781 0.3294 0.3766
N41 N 0.3844(11) 0.9505(8) 0.0113(11)
C208 C 0.4202(11) 0.9184(7) 0.0383(10)
C209 C 0.4650(10) 0.8784(6) 0.0720(9)
H184 H 0.5180 0.8581 0.0541
H185 H 0.4403 0.8406 0.0888
H186 H 0.4719 0.9049 0.0995
N42 N 0.9144(7) 0.5634(8) 0.0352(6)
C210 C 0.9443(7) 0.6025(9) 0.0344(6)
C211 C 0.9816(8) 0.6512(10) 0.0334(7)
H187 H 0.9477 0.6891 0.0526
H188 H 0.9952 0.6700 -0.0032
H189 H 1.0313 0.6330 0.0500
loop_
_geom_bond_atom_site_label_1
_geom_bond_atom_site_label_2
_geom_bond_site_symmetry_1
_geom_bond_site_symmetry_2
Zn1 N1 1_555 1_555
Zn2 N13 1_555 1_555
Zn3 N19 1_555 1_555
Zn4 N21 1_555 1_555
Zn5 N15 1_555 1_555
Zn6 N3 1_555 1_555
Zn7 N23 1_555 1_555
Zn8 N17 1_555 1_555
Zn9 N5 1_555 1_555
N1 C1 1_555 1_555
N2 Zn1 1_555 1_555
N3 C14 1_555 1_555
N4 Zn6 1_555 1_555
N5 C24 1_555 1_555
N6 Zn9 1_555 1_555
N7 Zn1 1_555 1_555
N8 Zn1 1_555 1_555
N9 Zn6 1_555 1_555
N10 Zn6 1_555 1_555
N11 Zn9 1_555 1_555
N12 Zn9 1_555 1_555
N13 C74 1_555 1_555
N14 Zn2 1_555 1_555
N15 C80 1_555 1_555
N16 Zn5 1_555 1_555
N17 C90 1_555 1_555
N18 Zn8 1_555 1_555
N19 C103 1_555 1_555
N20 Zn3 1_555 1_555
N21 C116 1_555 1_555
N22 Zn4 1_555 1_555
N23 C126 1_555 1_555
N24 Zn7 1_555 1_555
N25 Zn3 1_555 1_555
N26 Zn3 1_555 1_555
N27 Zn4 1_555 1_555
N28 Zn4 1_555 1_555
N29 Zn7 1_555 1_555
N30 Zn7 1_555 1_555
O1 Zn2 1_555 1_555
H1 O1 1_555 1_555
O2 Zn1 1_555 1_555
H2 O2 1_555 1_555
O3 Zn5 1_555 1_555
H3 O3 1_555 1_555
O4 Zn4 1_555 1_555
H4 O4 1_555 1_555
O5 Zn8 1_555 1_555
H5 O5 1_555 1_555
O6 Zn7 1_555 1_555
H6 O6 1_555 1_555
C1 C2 1_555 1_555
C2 H7 1_555 1_555
C3 C2 1_555 1_555
H8 C3 1_555 1_555
C4 C3 1_555 1_555
C5 C4 1_555 1_555
H9 C5 1_555 1_555
C6 C1 1_555 1_555
H10 C6 1_555 1_555
C7 H11 1_555 1_555
H12 C7 1_555 1_555
H13 C7 1_555 1_555
C8 N1 1_555 1_555
H14 C8 1_555 1_555
C9 N2 1_555 1_555
C10 C9 1_555 1_555
H15 C10 1_555 1_555
C11 C10 1_555 1_555
H16 C11 1_555 1_555
C12 C11 1_555 1_555
C13 N2 1_555 1_555
H17 C13 1_555 1_555
C14 H18 1_555 1_555
C15 C12 1_555 1_555
C16 C15 1_555 1_555
H19 C16 1_555 1_555
C17 C16 1_555 1_555
H20 C17 1_555 1_555
C18 N3 1_555 1_555
C19 N4 1_555 1_555
C20 C19 1_555 1_555
H21 C20 1_555 1_555
C21 C20 1_555 1_555
H22 C21 1_555 1_555
C22 C21 1_555 1_555
C23 N4 1_555 1_555
H23 C23 1_555 1_555
C24 H24 1_555 1_555
C25 C22 1_555 1_555
C26 C25 1_555 1_555
H25 C26 1_555 1_555
C27 C26 1_555 1_555
H26 C27 1_555 1_555
C28 N5 1_555 1_555
C29 N6 1_555 1_555
H27 C29 1_555 1_555
C30 N6 1_555 1_555
C31 C30 1_555 1_555
H28 C31 1_555 1_555
C32 C31 1_555 1_555
H29 C32 1_555 1_555
C33 C32 1_555 1_555
C34 C33 1_555 1_555
H30 C34 1_555 1_555
C35 C30 1_555 1_555
H31 C35 1_555 1_555
C36 H32 1_555 1_555
H33 C36 1_555 1_555
H34 C36 1_555 1_555
C37 N7 1_555 1_555
C38 C37 1_555 1_555
H35 C38 1_555 1_555
C39 C38 1_555 1_555
H36 C39 1_555 1_555
C40 C39 1_555 1_555
C41 C40 1_555 1_555
H37 C41 1_555 1_555
C42 C37 1_555 1_555
H38 C42 1_555 1_555
C43 H39 1_555 1_555
H40 C43 1_555 1_555
H41 C43 1_555 1_555
C44 N7 1_555 1_555
H42 C44 1_555 1_555
C45 N8 1_555 1_555
C46 C45 1_555 1_555
H43 C46 1_555 1_555
C47 C46 1_555 1_555
H44 C47 1_555 1_555
C48 C47 1_555 1_555
C49 N8 1_555 1_555
H45 C49 1_555 1_555
C50 N9 1_555 1_555
H46 C50 1_555 1_555
C51 C48 1_555 1_555
C52 C51 1_555 1_555
H47 C52 1_555 1_555
C53 C52 1_555 1_555
H48 C53 1_555 1_555
C54 N9 1_555 1_555
C55 N10 1_555 1_555
C56 C55 1_555 1_555
H49 C56 1_555 1_555
C57 C56 1_555 1_555
H50 C57 1_555 1_555
C58 C57 1_555 1_555
C59 N10 1_555 1_555
H51 C59 1_555 1_555
C60 N11 1_555 1_555
H52 C60 1_555 1_555
C61 C58 1_555 1_555
C62 C61 1_555 1_555
H53 C62 1_555 1_555
C63 C62 1_555 1_555
H54 C63 1_555 1_555
C64 N11 1_555 1_555
C65 N12 1_555 1_555
H55 C65 1_555 1_555
C66 N12 1_555 1_555
C67 C66 1_555 1_555
H56 C67 1_555 1_555
C68 C67 1_555 1_555
H57 C68 1_555 1_555
C69 C68 1_555 1_555
C70 C69 1_555 1_555
H58 C70 1_555 1_555
C71 C66 1_555 1_555
H59 C71 1_555 1_555
C72 H60 1_555 1_555
H61 C72 1_555 1_555
H62 C72 1_555 1_555
C73 H63 1_555 1_555
H64 C73 1_555 1_555
H65 C73 1_555 1_555
C74 H66 1_555 1_555
C75 N14 1_555 1_555
C76 C75 1_555 1_555
H67 C76 1_555 1_555
C77 C76 1_555 1_555
H68 C77 1_555 1_555
C78 C77 1_555 1_555
C79 N14 1_555 1_555
H69 C79 1_555 1_555
C80 H70 1_555 1_555
C81 C78 1_555 1_555
C82 C81 1_555 1_555
H71 C82 1_555 1_555
C83 C82 1_555 1_555
H72 C83 1_555 1_555
C84 N15 1_555 1_555
C85 N16 1_555 1_555
C86 C85 1_555 1_555
H73 C86 1_555 1_555
C87 C86 1_555 1_555
H74 C87 1_555 1_555
C88 C87 1_555 1_555
C89 N16 1_555 1_555
H75 C89 1_555 1_555
C90 H76 1_555 1_555
C91 C88 1_555 1_555
C92 C91 1_555 1_555
H77 C92 1_555 1_555
C93 C92 1_555 1_555
H78 C93 1_555 1_555
C94 N17 1_555 1_555
C95 N18 1_555 1_555
H79 C95 1_555 1_555
C96 N18 1_555 1_555
C97 C96 1_555 1_555
H80 C97 1_555 1_555
C98 C97 1_555 1_555
H81 C98 1_555 1_555
C99 C98 1_555 1_555
C100 C99 1_555 1_555
H82 C100 1_555 1_555
C101 C96 1_555 1_555
H83 C101 1_555 1_555
C102 H84 1_555 1_555
H85 C102 1_555 1_555
H86 C102 1_555 1_555
C103 C104 1_555 1_555
C104 H87 1_555 1_555
C105 C104 1_555 1_555
H88 C105 1_555 1_555
C106 C105 1_555 1_555
C107 C106 1_555 1_555
H89 C107 1_555 1_555
C108 C103 1_555 1_555
H90 C108 1_555 1_555
C109 H91 1_555 1_555
H92 C109 1_555 1_555
H93 C109 1_555 1_555
C110 N19 1_555 1_555
H94 C110 1_555 1_555
C111 N20 1_555 1_555
C112 C111 1_555 1_555
H95 C112 1_555 1_555
C113 C112 1_555 1_555
H96 C113 1_555 1_555
C114 C113 1_555 1_555
C115 N20 1_555 1_555
H97 C115 1_555 1_555
C116 H98 1_555 1_555
C117 C114 1_555 1_555
C118 C117 1_555 1_555
H99 C118 1_555 1_555
C119 C118 1_555 1_555
H100 C119 1_555 1_555
C120 N21 1_555 1_555
C121 N22 1_555 1_555
C122 C121 1_555 1_555
H101 C122 1_555 1_555
C123 C122 1_555 1_555
H102 C123 1_555 1_555
C124 C123 1_555 1_555
C125 N22 1_555 1_555
H103 C125 1_555 1_555
C126 H104 1_555 1_555
C127 C124 1_555 1_555
C128 C127 1_555 1_555
H105 C128 1_555 1_555
C129 C128 1_555 1_555
H106 C129 1_555 1_555
C130 N23 1_555 1_555
C131 N24 1_555 1_555
H107 C131 1_555 1_555
C132 N24 1_555 1_555
C133 C132 1_555 1_555
H108 C133 1_555 1_555
C134 C133 1_555 1_555
H109 C134 1_555 1_555
C135 C134 1_555 1_555
C136 C135 1_555 1_555
H110 C136 1_555 1_555
C137 C132 1_555 1_555
H111 C137 1_555 1_555
O7 C135 1_555 1_555
C138 O7 1_555 1_555
H112 C138 1_555 1_555
H113 C138 1_555 1_555
H114 C138 1_555 1_555
C139 N25 1_555 1_555
C140 C139 1_555 1_555
H115 C140 1_555 1_555
C141 C140 1_555 1_555
H116 C141 1_555 1_555
C142 C141 1_555 1_555
C143 C142 1_555 1_555
H117 C143 1_555 1_555
C144 C139 1_555 1_555
H118 C144 1_555 1_555
C145 H119 1_555 1_555
H120 C145 1_555 1_555
H121 C145 1_555 1_555
C146 N25 1_555 1_555
H122 C146 1_555 1_555
C147 N26 1_555 1_555
C148 C147 1_555 1_555
H123 C148 1_555 1_555
C149 C148 1_555 1_555
H124 C149 1_555 1_555
C150 C149 1_555 1_555
C151 N26 1_555 1_555
H125 C151 1_555 1_555
C152 N27 1_555 1_555
H126 C152 1_555 1_555
C153 C150 1_555 1_555
C154 C153 1_555 1_555
H127 C154 1_555 1_555
C155 C154 1_555 1_555
H128 C155 1_555 1_555
C156 N27 1_555 1_555
C157 N28 1_555 1_555
C158 C157 1_555 1_555
H129 C158 1_555 1_555
C159 C158 1_555 1_555
H130 C159 1_555 1_555
C160 C159 1_555 1_555
C161 N28 1_555 1_555
H131 C161 1_555 1_555
C162 N29 1_555 1_555
H132 C162 1_555 1_555
C163 C160 1_555 1_555
C164 C163 1_555 1_555
H133 C164 1_555 1_555
C165 C164 1_555 1_555
H134 C165 1_555 1_555
C166 N29 1_555 1_555
C167 N30 1_555 1_555
H135 C167 1_555 1_555
C168 N30 1_555 1_555
C169 C168 1_555 1_555
H136 C169 1_555 1_555
C170 C169 1_555 1_555
H137 C170 1_555 1_555
C171 C170 1_555 1_555
C172 C171 1_555 1_555
H138 C172 1_555 1_555
C173 C168 1_555 1_555
H139 C173 1_555 1_555
C174 H140 1_555 1_555
H141 C174 1_555 1_555
H142 C174 1_555 1_555
C175 N13 1_555 1_555
C176 C175 1_555 1_555
H143 C176 1_555 1_555
C177 C176 1_555 1_555
H144 C177 1_555 1_555
C178 C177 1_555 1_555
C179 C178 1_555 1_555
H145 C179 1_555 1_555
C180 C175 1_555 1_555
H146 C180 1_555 1_555
O8 C4 1_555 1_555
O9 C33 1_555 1_555
O10 C40 1_555 1_555
O11 C69 1_555 1_555
O12 C73 1_555 1_555
O13 C99 1_555 1_555
O14 C106 1_555 1_555
O15 C142 1_555 1_555
O16 C171 1_555 1_555
Cl1 O18 1_555 1_555
O19 Cl1 1_555 1_555
O20 Cl1 1_555 1_555
O21 Cl1 1_555 1_555
Cl2 O22 1_555 1_555
O23 Cl2 1_555 1_555
O24 Cl2 1_555 1_555
O25 Cl2 1_555 1_555
Cl3 O26 1_555 1_555
O27 Cl3 1_555 1_555
O28 Cl3 1_555 1_555
O29 Cl3 1_555 1_555
Cl4 O30 1_555 1_555
O31 Cl4 1_555 1_555
O32 Cl4 1_555 1_555
O33 Cl4 1_555 1_555
Cl5 O37 1_555 1_555
O38 Cl5 1_555 1_555
O39 Cl5 1_555 1_555
O40 Cl5 1_555 1_555
Cl6 O41 1_555 1_555
O42 Cl6 1_555 1_555
O43 Cl6 1_555 1_555
O44 Cl6 1_555 1_555
Cl7 O49 1_555 1_555
O50 Cl7 1_555 1_555
O51 Cl7 1_555 1_555
O52 Cl7 1_555 1_555
Cl8 O56 1_555 1_555
O57 Cl8 1_555 1_555
O58 Cl8 1_555 1_555
O59 Cl8 1_555 1_555
Cl9 O63 1_555 1_555
O64 Cl9 1_555 1_555
O65 Cl9 1_555 1_555
O66 Cl9 1_555 1_555
Cl10 O67 1_555 1_555
O68 Cl10 1_555 1_555
O69 Cl10 1_555 1_555
O70 Cl10 1_555 1_555
Cl12 O75 1_555 1_555
O76 Cl12 1_555 1_555
O77 Cl12 1_555 1_555
O78 Cl12 1_555 1_555
Cl13 O81 1_555 1_555
O82 Cl13 1_555 1_555
O83 Cl13 1_555 1_555
O84 Cl13 1_555 1_555
N31 C188 1_555 1_555
C188 C189 1_555 1_555
C189 H154 1_555 1_555
H155 C189 1_555 1_555
H156 C189 1_555 1_555
N32 C190 1_555 1_555
C190 C191 1_555 1_555
C191 H157 1_555 1_555
H158 C191 1_555 1_555
H159 C191 1_555 1_555
N33 C192 1_555 1_555
C192 C193 1_555 1_555
C193 H160 1_555 1_555
H161 C193 1_555 1_555
H162 C193 1_555 1_555
N34 C194 1_555 1_555
C194 C195 1_555 1_555
C195 H163 1_555 1_555
H164 C195 1_555 1_555
H165 C195 1_555 1_555
N35 C196 1_555 1_555
C196 C197 1_555 1_555
C197 H166 1_555 1_555
H167 C197 1_555 1_555
H168 C197 1_555 1_555
N36 C198 1_555 1_555
C198 C199 1_555 1_555
C199 H169 1_555 1_555
H170 C199 1_555 1_555
H171 C199 1_555 1_555
N37 C200 1_555 1_555
C200 C201 1_555 1_555
C201 H172 1_555 1_555
H173 C201 1_555 1_555
H174 C201 1_555 1_555
N38 C202 1_555 1_555
C202 C203 1_555 1_555
C203 H175 1_555 1_555
H176 C203 1_555 1_555
H177 C203 1_555 1_555
N39 C204 1_555 1_555
C204 C205 1_555 1_555
C205 H178 1_555 1_555
H179 C205 1_555 1_555
H180 C205 1_555 1_555
N40 C206 1_555 1_555
C206 C207 1_555 1_555
C207 H181 1_555 1_555
H182 C207 1_555 1_555
H183 C207 1_555 1_555
N41 C208 1_555 1_555
C208 C209 1_555 1_555
C209 H184 1_555 1_555
H185 C209 1_555 1_555
H186 C209 1_555 1_555
N42 C210 1_555 1_555
C210 C211 1_555 1_555
C211 H187 1_555 1_555
H188 C211 1_555 1_555
H189 C211 1_555 1_555
Zn2 O2 1_555 1_555
Zn3 O1 1_555 1_555
Zn5 O4 1_555 1_555
Zn6 O3 1_555 1_555
Zn8 O6 1_555 1_555
Zn9 O5 1_555 1_555
C5 C6 1_555 1_555
C7 O8 1_555 1_555
C8 C9 1_555 1_555
C12 C13 1_555 1_555
C14 C15 1_555 1_555
C17 C18 1_555 1_555
C18 C19 1_555 1_555
C22 C23 1_555 1_555
C24 C25 1_555 1_555
C27 C28 1_555 1_555
C28 C29 1_555 1_555
C34 C35 1_555 1_555
C36 O9 1_555 1_555
C41 C42 1_555 1_555
C43 O10 1_555 1_555
C44 C45 1_555 1_555
C48 C49 1_555 1_555
C50 C51 1_555 1_555
C53 C54 1_555 1_555
C54 C55 1_555 1_555
C58 C59 1_555 1_555
C60 C61 1_555 1_555
C63 C64 1_555 1_555
C64 C65 1_555 1_555
C70 C71 1_555 1_555
C72 O11 1_555 1_555
C74 C75 1_555 1_555
C78 C79 1_555 1_555
C80 C81 1_555 1_555
C83 C84 1_555 1_555
C84 C85 1_555 1_555
C88 C89 1_555 1_555
C90 C91 1_555 1_555
C93 C94 1_555 1_555
C94 C95 1_555 1_555
C100 C101 1_555 1_555
C102 O13 1_555 1_555
C107 C108 1_555 1_555
C109 O14 1_555 1_555
C110 C111 1_555 1_555
C114 C115 1_555 1_555
C116 C117 1_555 1_555
C119 C120 1_555 1_555
C120 C121 1_555 1_555
C124 C125 1_555 1_555
C126 C127 1_555 1_555
C129 C130 1_555 1_555
C130 C131 1_555 1_555
C136 C137 1_555 1_555
C143 C144 1_555 1_555
C145 O15 1_555 1_555
C146 C147 1_555 1_555
C150 C151 1_555 1_555
C152 C153 1_555 1_555
C155 C156 1_555 1_555
C156 C157 1_555 1_555
C160 C161 1_555 1_555
C162 C163 1_555 1_555
C165 C166 1_555 1_555
C166 C167 1_555 1_555
C172 C173 1_555 1_555
C174 O16 1_555 1_555
C178 O12 1_555 1_555
C179 C180 1_555 1_555

#END
