
#######################################################################
#
#                 Cambridge Crystallographic Data Centre
#                                CCDC 
#
#######################################################################
#
# If this CIF has been generated from an entry in the Cambridge 
# Structural Database, then it will include bibliographic, chemical, 
# crystal, experimental, refinement or atomic coordinate data resulting 
# from the CCDC's data processing and validation procedures.
#
#######################################################################

data_RUWMUT
_chemical_formula_moiety         
'C180 H146 N30 O16 Zn9 12+,8(C2 F6 N1 O4 S2 1-),C2 H3 N1,4(O4 Re1 1-)'
_chemical_name_systematic        
"pentakis(\m-3,3':6',2'':5'',3'''-quaterpyridine-6,6'''-diylbis(N-(4-methoxyphenyl)methanimine))-hexakis(\m-hydroxy)-nona-zinc octakis(bis((trifluoromethyl)sulfonyl)azanide) tetrakis(tetraoxo-rhenium) acetonitrile solvate"
_symmetry_cell_setting           monoclinic
_symmetry_space_group_name_H-M   'P 21/c'
_symmetry_Int_Tables_number      14
_space_group_name_Hall           '-P 2ybc'
loop_
_symmetry_equiv_pos_site_id
_symmetry_equiv_pos_as_xyz
1 x,y,z
2 -x,1/2+y,1/2-z
3 -x,-y,-z
4 x,1/2-y,1/2+z
_cell_length_a                   38.4811(16)
_cell_length_b                   22.2330(9)
_cell_length_c                   33.8318(14)
_cell_angle_alpha                90
_cell_angle_beta                 115.6360(10)
_cell_angle_gamma                90
_cell_volume                     26095.5
_exptl_crystal_colour            yellow
_exptl_crystal_description       block
_cell_formula_units_Z            4
_exptl_crystal_recrystallization_method 'acetonitrile/diethyl ether'
loop_
_atom_site_label
_atom_site_type_symbol
_atom_site_fract_x
_atom_site_fract_y
_atom_site_fract_z
Zn1 Zn 0.14281(5) 0.11060(6) 0.39829(4)
Zn2 Zn 0.08542(5) -0.01758(7) 0.33939(5)
Zn3 Zn 0.02035(5) -0.09020(8) 0.24343(5)
Zn4 Zn 0.32574(5) 0.01281(6) 0.34999(5)
Zn5 Zn 0.24733(4) -0.01706(6) 0.24968(4)
Zn6 Zn 0.16914(5) 0.02346(6) 0.15200(5)
Zn7 Zn 0.47584(5) -0.06353(8) 0.25112(5)
Zn8 Zn 0.40873(5) 0.01728(7) 0.16109(5)
Zn9 Zn 0.34984(5) 0.14631(7) 0.10862(5)
O1 O -0.1221(4) -0.2598(6) 0.2629(5)
O2 O 0.5205(3) 0.3015(6) 0.1321(4)
N1 N -0.0378(3) -0.1080(5) 0.2024(3)
N2 N 0.0092(3) -0.0335(4) 0.1870(3)
N3 N 0.1161(2) 0.0644(4) 0.1352(3)
N4 N 0.1800(3) 0.1142(4) 0.1372(3)
N5 N 0.3117(3) 0.1980(4) 0.1240(3)
N6 N 0.3812(3) 0.2317(4) 0.1310(3)
C1 C -0.0630(3) -0.1459(5) 0.2143(3)
C2 C -0.0947(3) -0.1227(4) 0.2189(3)
H1 H -0.1020 -0.0819 0.2114
C3 C -0.1154(3) -0.1591(6) 0.2344(4)
H2 H -0.1370 -0.1432 0.2375
C4 C -0.1046(3) -0.2186(5) 0.2453(3)
C5 C -0.0730(3) -0.2419(4) 0.2407(3)
H3 H -0.0656 -0.2826 0.2482
C6 C -0.0522(3) -0.2055(5) 0.2252(3)
H4 H -0.0306 -0.2213 0.2221
C7 C -0.1537(5) -0.2358(10) 0.2664(6)
H5 H -0.1648 -0.2660 0.2787
H6 H -0.1458 -0.2005 0.2856
H7 H -0.1731 -0.2239 0.2372
C8 C -0.0518(4) -0.0739(6) 0.1687(4)
H8 H -0.0789 -0.0738 0.1512
C9 C -0.0281(3) -0.0360(6) 0.1565(4)
C10 C -0.0411(4) 0.0016(6) 0.1203(4)
H9 H -0.0679 0.0034 0.1013
C11 C -0.0156(3) 0.0361(7) 0.1118(4)
H10 H -0.0243 0.0602 0.0861
C12 C 0.0234(3) 0.0356(5) 0.1414(3)
C13 C 0.0335(3) 0.0022(5) 0.1794(3)
H11 H 0.0593 0.0050 0.2014
C14 C 0.0859(3) 0.0381(5) 0.1388(3)
H12 H 0.0878 -0.0036 0.1453
C15 C 0.0527(3) 0.0674(5) 0.1336(3)
C16 C 0.0508(4) 0.1290(6) 0.1220(5)
H13 H 0.0280 0.1513 0.1161
C17 C 0.0811(3) 0.1564(6) 0.1194(5)
H14 H 0.0799 0.1983 0.1133
C18 C 0.1139(3) 0.1246(5) 0.1255(4)
C19 C 0.1485(3) 0.1501(5) 0.1250(4)
C20 C 0.1518(3) 0.2103(5) 0.1143(4)
H15 H 0.1299 0.2357 0.1054
C21 C 0.1849(3) 0.2332(5) 0.1162(4)
H16 H 0.1860 0.2734 0.1074
C22 C 0.2178(3) 0.1962(5) 0.1317(3)
C23 C 0.2133(3) 0.1371(4) 0.1422(3)
H17 H 0.2354 0.1119 0.1536
C24 C 0.2778(3) 0.1816(5) 0.1212(3)
H18 H 0.2681 0.1434 0.1089
C25 C 0.2550(3) 0.2171(4) 0.1354(3)
C26 C 0.2701(3) 0.2730(5) 0.1524(4)
H19 H 0.2558 0.2991 0.1620
C27 C 0.3055(3) 0.2912(5) 0.1555(4)
H20 H 0.3154 0.3297 0.1672
C28 C 0.3268(3) 0.2530(5) 0.1416(4)
C29 C 0.3630(3) 0.2690(5) 0.1442(4)
H21 H 0.3739 0.3071 0.1557
C30 C 0.4174(2) 0.2483(5) 0.1322(3)
C31 C 0.4224(3) 0.3066(4) 0.1206(3)
H22 H 0.4018 0.3347 0.1121
C32 C 0.4574(3) 0.3236(4) 0.1214(3)
H23 H 0.4608 0.3635 0.1135
C33 C 0.4875(2) 0.2825(5) 0.1338(3)
C34 C 0.4825(3) 0.2242(5) 0.1454(3)
H24 H 0.5030 0.1961 0.1539
C35 C 0.4474(3) 0.2071(4) 0.1445(3)
H25 H 0.4440 0.1673 0.1524
C36 C 0.5465(5) 0.2540(9) 0.1339(9)
H26 H 0.5694 0.2713 0.1325
H27 H 0.5543 0.2315 0.1613
H28 H 0.5336 0.2267 0.1090
O3 O -0.0551(3) -0.1856(5) 0.3904(4)
O4 O 0.4385(4) 0.2668(7) -0.0165(4)
N7 N 0.0300(3) -0.1598(4) 0.2941(3)
N8 N 0.0618(3) -0.1439(4) 0.2380(3)
N9 N 0.1554(3) -0.0694(4) 0.1593(3)
N10 N 0.1958(3) -0.0260(4) 0.1175(3)
N11 N 0.3102(3) 0.0690(4) 0.0785(3)
N12 N 0.3509(3) 0.1380(5) 0.0477(3)
C37 C 0.0114(3) -0.1640(5) 0.3226(3)
C38 C 0.0167(3) -0.2131(4) 0.3501(3)
H29 H 0.0359 -0.2422 0.3535
C39 C -0.0059(3) -0.2194(4) 0.3726(3)
H30 H -0.0022 -0.2530 0.3914
C40 C -0.0339(3) -0.1767(5) 0.3676(3)
C41 C -0.0392(2) -0.1277(4) 0.3401(3)
H31 H -0.0584 -0.0985 0.3367
C42 C -0.0166(3) -0.1213(4) 0.3176(3)
H32 H -0.0203 -0.0878 0.2988
C43 C -0.0861(5) -0.1447(8) 0.3828(6)
H33 H -0.1052 -0.1641 0.3905
H34 H -0.0983 -0.1333 0.3517
H35 H -0.0761 -0.1086 0.4008
C44 C 0.0543(4) -0.1994(6) 0.2941(4)
H36 H 0.0599 -0.2333 0.3130
C45 C 0.0730(4) -0.1927(5) 0.2657(4)
C46 C 0.1000(4) -0.2316(6) 0.2643(5)
H37 H 0.1062 -0.2667 0.2820
C47 C 0.1188(4) -0.2213(5) 0.2378(4)
H38 H 0.1366 -0.2498 0.2362
C48 C 0.1108(4) -0.1682(5) 0.2137(4)
C49 C 0.0811(4) -0.1324(5) 0.2142(4)
H39 H 0.0742 -0.0974 0.1964
C50 C 0.1381(4) -0.0901(5) 0.1830(4)
H40 H 0.1312 -0.0615 0.1992
C51 C 0.1294(4) -0.1498(5) 0.1861(4)
C52 C 0.1433(4) -0.1908(5) 0.1638(5)
H41 H 0.1400 -0.2328 0.1662
C53 C 0.1612(4) -0.1716(5) 0.1393(4)
H42 H 0.1693 -0.1994 0.1237
C54 C 0.1674(3) -0.1096(5) 0.1376(4)
C55 C 0.1876(3) -0.0860(5) 0.1137(4)
C56 C 0.2022(4) -0.1209(5) 0.0897(4)
H43 H 0.1954 -0.1622 0.0846
C57 C 0.2254(4) -0.0969(5) 0.0742(4)
H44 H 0.2360 -0.1220 0.0595
C58 C 0.2347(3) -0.0352(5) 0.0788(3)
C59 C 0.2173(3) -0.0010(5) 0.1009(4)
H45 H 0.2215 0.0412 0.1037
C60 C 0.2878(3) 0.0378(5) 0.0909(3)
H46 H 0.2897 0.0449 0.1194
C61 C 0.2615(3) -0.0053(5) 0.0650(3)
C62 C 0.2637(4) -0.0221(5) 0.0261(4)
H47 H 0.2488 -0.0548 0.0092
C63 C 0.2873(4) 0.0091(6) 0.0129(4)
H48 H 0.2882 -0.0008 -0.0140
C64 C 0.3101(3) 0.0555(5) 0.0391(4)
C65 C 0.3326(4) 0.0921(6) 0.0251(4)
H49 H 0.3343 0.0827 -0.0014
C66 C 0.3733(3) 0.1708(5) 0.0309(3)
C67 C 0.3977(3) 0.1414(4) 0.0167(4)
H50 H 0.3993 0.0987 0.0177
C68 C 0.4198(3) 0.1743(6) 0.0009(4)
H51 H 0.4365 0.1542 -0.0087
C69 C 0.4174(3) 0.2367(5) -0.0006(3)
C70 C 0.3930(3) 0.2662(4) 0.0136(3)
H52 H 0.3914 0.3089 0.0125
C71 C 0.3710(3) 0.2332(5) 0.0293(3)
H53 H 0.3543 0.2534 0.0390
C72 C 0.4646(8) 0.2321(14) -0.0287(11)
H54 H 0.4783 0.2594 -0.0398
H55 H 0.4833 0.2107 -0.0029
H56 H 0.4497 0.2030 -0.0515
O5 O -0.0288(3) -0.0193(5) 0.4502(3)
O6 O 0.5056(5) 0.0623(8) 0.0331(5)
N13 N 0.0827(3) -0.0649(4) 0.3909(3)
N14 N 0.1261(3) -0.0820(4) 0.3475(3)
N15 N 0.2292(3) -0.0907(3) 0.2726(3)
N16 N 0.2668(3) -0.0853(4) 0.2225(3)
N17 N 0.3684(3) -0.0515(4) 0.1487(3)
N18 N 0.4102(3) -0.0198(5) 0.1048(3)
C73 C 0.0557(2) -0.0531(4) 0.4085(3)
C74 C 0.0517(2) -0.0897(3) 0.4396(3)
H57 H 0.0684 -0.1230 0.4515
C75 C 0.0231(3) -0.0775(4) 0.4533(3)
H58 H 0.0204 -0.1025 0.4745
C76 C -0.0014(2) -0.0287(4) 0.4358(3)
C77 C 0.0026(2) 0.0078(4) 0.4047(3)
H59 H -0.0142 0.0411 0.3928
C78 C 0.0312(3) -0.0044(4) 0.3911(2)
H60 H 0.0339 0.0206 0.3698
C79 C -0.0544(5) 0.0287(8) 0.4362(6)
H61 H -0.0404 0.0663 0.4477
H62 H -0.0742 0.0236 0.4469
H63 H -0.0667 0.0301 0.4041
C80 C 0.1055(3) -0.1099(5) 0.4009(4)
H64 H 0.1061 -0.1367 0.4231
C81 C 0.1297(3) -0.1211(5) 0.3803(3)
C82 C 0.1555(4) -0.1686(5) 0.3907(4)
H65 H 0.1570 -0.1964 0.4127
C83 C 0.1791(4) -0.1764(5) 0.3697(4)
H66 H 0.1977 -0.2078 0.3780
C84 C 0.1748(3) -0.1364(5) 0.3355(3)
C85 C 0.1480(3) -0.0902(5) 0.3274(4)
H67 H 0.1455 -0.0620 0.3052
C86 C 0.2093(3) -0.0902(4) 0.2961(3)
H68 H 0.2022 -0.0521 0.3030
C87 C 0.1981(3) -0.1404(4) 0.3115(4)
C88 C 0.2096(4) -0.1954(5) 0.2998(4)
H69 H 0.2032 -0.2320 0.3096
C89 C 0.2296(4) -0.1979(5) 0.2749(4)
H70 H 0.2367 -0.2356 0.2672
C90 C 0.2395(3) -0.1442(4) 0.2609(4)
C91 C 0.2583(3) -0.1416(4) 0.2319(4)
C92 C 0.2694(4) -0.1901(5) 0.2132(4)
H71 H 0.2641 -0.2298 0.2194
C93 C 0.2868(4) -0.1826(5) 0.1875(4)
H72 H 0.2914 -0.2162 0.1732
C94 C 0.2982(3) -0.1258(5) 0.1814(4)
C95 C 0.2855(3) -0.0773(5) 0.1986(4)
H73 H 0.2908 -0.0375 0.1926
C96 C 0.3478(3) -0.0654(5) 0.1698(4)
H74 H 0.3506 -0.0414 0.1942
C97 C 0.3219(3) -0.1137(5) 0.1584(4)
C98 C 0.3192(4) -0.1476(5) 0.1224(4)
H75 H 0.3018 -0.1805 0.1124
C99 C 0.3416(4) -0.1333(5) 0.1014(4)
H76 H 0.3405 -0.1580 0.0780
C100 C 0.3656(4) -0.0838(5) 0.1136(4)
C101 C 0.3898(4) -0.0674(6) 0.0935(4)
H77 H 0.3909 -0.0924 0.0712
C102 C 0.4341(3) 0.0021(5) 0.0864(3)
C103 C 0.4343(3) -0.0242(5) 0.0493(3)
H78 H 0.4179 -0.0574 0.0357
C104 C 0.4585(4) -0.0020(6) 0.0319(3)
H79 H 0.4587 -0.0199 0.0065
C105 C 0.4825(3) 0.0466(6) 0.0517(4)
C106 C 0.4823(3) 0.0729(5) 0.0889(4)
H80 H 0.4987 0.1061 0.1024
C107 C 0.4581(3) 0.0507(5) 0.1062(3)
H81 H 0.4579 0.0686 0.1316
C108 C 0.5288(7) 0.1143(11) 0.0523(8)
H82 H 0.5127 0.1462 0.0556
H83 H 0.5404 0.1285 0.0333
H84 H 0.5492 0.1039 0.0811
O7 O 0.0301(5) 0.1858(8) 0.5060(6)
O8 O 0.5391(5) -0.1071(7) 0.0861(5)
N19 N 0.1409(3) 0.0922(4) 0.4580(3)
N20 N 0.1839(3) 0.0334(4) 0.4247(3)
N21 N 0.3001(3) -0.0440(4) 0.3803(3)
N22 N 0.3401(3) -0.0771(4) 0.3358(3)
N23 N 0.4340(3) -0.1227(4) 0.2531(3)
N24 N 0.4671(3) -0.1228(5) 0.1971(3)
C109 C 0.1136(6) 0.1140(8) 0.4738(8)
C110 C 0.0876(6) 0.0762(6) 0.4799(8)
H85 H 0.0891 0.0339 0.4769
C111 C 0.0593(5) 0.1003(8) 0.4904(7)
H86 H 0.0415 0.0744 0.4946
C112 C 0.0571(5) 0.1621(8) 0.4949(7)
C113 C 0.0831(6) 0.1999(6) 0.4888(7)
H87 H 0.0816 0.2422 0.4919
C114 C 0.1114(5) 0.1758(7) 0.4783(7)
H88 H 0.1292 0.2017 0.4742
C115 C 0.0302(12) 0.2498(10) 0.5078(14)
H89 H 0.0100 0.2635 0.5159
H90 H 0.0554 0.2638 0.5296
H91 H 0.0254 0.2662 0.4790
C116 C 0.1596(3) 0.0455(5) 0.4774(4)
H92 H 0.1577 0.0320 0.5031
C117 C 0.1832(4) 0.0127(5) 0.4624(4)
C118 C 0.2061(4) -0.0356(5) 0.4850(4)
H93 H 0.2042 -0.0509 0.5102
C119 C 0.2313(4) -0.0615(5) 0.4713(4)
H94 H 0.2474 -0.0937 0.4875
C120 C 0.2332(3) -0.0404(5) 0.4338(3)
C121 C 0.2068(3) 0.0042(5) 0.4109(3)
H95 H 0.2049 0.0148 0.3829
C122 C 0.2768(3) -0.0262(5) 0.3981(4)
H96 H 0.2712 0.0156 0.3972
C123 C 0.2600(3) -0.0633(5) 0.4177(4)
C124 C 0.2701(4) -0.1244(5) 0.4198(4)
H97 H 0.2609 -0.1524 0.4343
C125 C 0.2932(4) -0.1435(5) 0.4009(4)
H98 H 0.3004 -0.1847 0.4030
C126 C 0.3064(3) -0.1035(4) 0.3789(4)
C127 C 0.3289(3) -0.1215(4) 0.3552(4)
C128 C 0.3359(4) -0.1809(5) 0.3484(4)
H99 H 0.3275 -0.2123 0.3612
C129 C 0.3544(4) -0.1945(5) 0.3237(4)
H100 H 0.3597 -0.2354 0.3203
C130 C 0.3658(3) -0.1497(5) 0.3032(4)
C131 C 0.3571(3) -0.0897(4) 0.3100(4)
H101 H 0.3636 -0.0578 0.2958
C132 C 0.4159(3) -0.1210(5) 0.2789(4)
H102 H 0.4233 -0.0902 0.3004
C133 C 0.3869(3) -0.1603(5) 0.2771(4)
C134 C 0.3806(4) -0.2089(5) 0.2488(4)
H103 H 0.3632 -0.2398 0.2477
C135 C 0.3994(4) -0.2122(5) 0.2226(4)
H104 H 0.3950 -0.2457 0.2036
C136 C 0.4252(4) -0.1671(5) 0.2233(4)
C137 C 0.4438(4) -0.1656(6) 0.1952(4)
H105 H 0.4390 -0.1969 0.1744
C138 C 0.4858(3) -0.1203(5) 0.1686(3)
C139 C 0.4802(3) -0.1636(4) 0.1368(4)
H106 H 0.4639 -0.1970 0.1337
C140 C 0.4986(3) -0.1581(5) 0.1096(3)
H107 H 0.4948 -0.1877 0.0878
C141 C 0.5226(3) -0.1092(6) 0.1141(3)
C142 C 0.5281(3) -0.0658(4) 0.1458(4)
H108 H 0.5445 -0.0324 0.1489
C143 C 0.5097(3) -0.0714(4) 0.1731(3)
H109 H 0.5135 -0.0417 0.1948
C144 C 0.5616(8) -0.0553(11) 0.0865(9)
H110 H 0.5820 -0.0673 0.0782
H111 H 0.5731 -0.0379 0.1160
H112 H 0.5449 -0.0254 0.0656
O9 O -0.0304(3) 0.2563(6) 0.3797(4)
O10 O 0.6307(5) -0.1872(9) 0.2246(5)
N25 N 0.1103(2) 0.1966(4) 0.3801(3)
N26 N 0.1803(3) 0.1671(3) 0.3858(2)
N27 N 0.3143(3) 0.0995(4) 0.3705(2)
N28 N 0.3783(3) 0.0566(4) 0.3696(3)
N29 N 0.4864(3) -0.0153(5) 0.3112(3)
N30 N 0.5357(3) -0.0763(5) 0.2886(3)
C145 C 0.0736(2) 0.2115(4) 0.3789(3)
C146 C 0.0462(3) 0.1664(3) 0.3706(3)
H113 H 0.0518 0.1265 0.3650
C147 C 0.0108(2) 0.1797(4) 0.3703(3)
H114 H -0.0078 0.1489 0.3645
C148 C 0.0028(2) 0.2381(5) 0.3784(3)
C149 C 0.0301(3) 0.2832(3) 0.3868(3)
H115 H 0.0245 0.3231 0.3923
C150 C 0.0655(2) 0.2699(3) 0.3870(3)
H116 H 0.0841 0.3007 0.3928
C151 C -0.0566(5) 0.2103(9) 0.3772(8)
H117 H -0.0618 0.1852 0.3515
H118 H -0.0807 0.2283 0.3747
H119 H -0.0454 0.1855 0.4037
C152 C 0.1293(3) 0.2350(5) 0.3692(4)
H120 H 0.1181 0.2734 0.3592
C153 C 0.1660(3) 0.2236(4) 0.3712(3)
C154 C 0.1866(3) 0.2646(5) 0.3597(4)
H121 H 0.1759 0.3031 0.3493
C155 C 0.2227(3) 0.2508(5) 0.3632(3)
H122 H 0.2370 0.2795 0.3554
C156 C 0.2376(3) 0.1947(4) 0.3781(3)
C157 C 0.2150(3) 0.1558(5) 0.3883(3)
H123 H 0.2253 0.1168 0.3982
C158 C 0.2807(3) 0.1202(4) 0.3675(3)
H124 H 0.2589 0.0945 0.3547
C159 C 0.2752(3) 0.1761(4) 0.3816(3)
C160 C 0.3081(3) 0.2138(5) 0.3988(4)
H125 H 0.3062 0.2528 0.4092
C161 C 0.3424(3) 0.1948(5) 0.4007(3)
H126 H 0.3642 0.2206 0.4117
C162 C 0.3451(3) 0.1368(5) 0.3862(3)
C163 C 0.3805(3) 0.1136(5) 0.3850(4)
C164 C 0.4135(3) 0.1469(6) 0.3954(4)
H127 H 0.4150 0.1860 0.4073
C165 C 0.4435(4) 0.1267(6) 0.3894(4)
H128 H 0.4655 0.1513 0.3959
C166 C 0.4418(3) 0.0677(5) 0.3731(4)
C167 C 0.4080(3) 0.0356(5) 0.3636(4)
H129 H 0.4061 -0.0039 0.3522
C168 C 0.4615(3) 0.0145(5) 0.3214(3)
H130 H 0.4355 0.0167 0.3000
C169 C 0.4713(3) 0.0426(6) 0.3615(4)
C170 C 0.5104(3) 0.0424(8) 0.3904(4)
H131 H 0.5188 0.0607 0.4184
C171 C 0.5369(4) 0.0160(8) 0.3785(4)
H132 H 0.5637 0.0197 0.3969
C172 C 0.5242(3) -0.0167(6) 0.3389(4)
C173 C 0.5487(4) -0.0469(7) 0.3246(4)
H133 H 0.5758 -0.0455 0.3423
C174 C 0.5636(5) -0.1040(7) 0.2761(6)
C175 C 0.5553(5) -0.1622(7) 0.2597(5)
H134 H 0.5334 -0.1825 0.2594
C176 C 0.5788(5) -0.1907(7) 0.2439(6)
H135 H 0.5731 -0.2305 0.2327
C177 C 0.6108(5) -0.1609(9) 0.2444(6)
C178 C 0.6191(4) -0.1026(9) 0.2607(6)
H136 H 0.6410 -0.0823 0.2610
C179 C 0.5956(5) -0.0742(7) 0.2766(6)
H137 H 0.6013 -0.0344 0.2877
C180 C 0.6150(9) -0.2374(13) 0.1961(8)
H138 H 0.6332 -0.2506 0.1847
H139 H 0.6102 -0.2704 0.2123
H140 H 0.5906 -0.2256 0.1716
O11 O 0.1043(2) 0.0622(3) 0.3519(2)
H141 H 0.0883 0.0836 0.3290
O12 O 0.0419(2) -0.0255(3) 0.2860(2)
H142 H 0.0272 0.0062 0.2845
O13 O 0.2895(2) 0.0266(3) 0.2893(2)
H143 H 0.2891 0.0586 0.2733
O14 O 0.2053(2) 0.0297(3) 0.2127(2)
H144 H 0.2172 0.0643 0.2137
O15 O 0.4537(2) 0.0055(3) 0.2140(2)
H145 H 0.4572 0.0344 0.2336
O16 O 0.3883(2) 0.0969(3) 0.1532(2)
H146 H 0.3824 0.1019 0.1756
Re1 Re 0.15004(2) 0.07648(2) 0.26978(2)
O17 O 0.1259(2) 0.1194(4) 0.2913(2)
O18 O 0.1936(2) 0.0576(3) 0.3094(2)
O19 O 0.1558(2) 0.1162(3) 0.2296(2)
O20 O 0.1252(2) 0.0104(3) 0.2482(2)
Re2 Re 0.34262(2) 0.09229(3) 0.23665(2)
O21 O 0.3666(3) 0.1402(4) 0.2197(3)
O22 O 0.2993(2) 0.0739(3) 0.1941(2)
O23 O 0.3358(2) 0.1261(3) 0.2787(2)
O24 O 0.3687(2) 0.0278(4) 0.2547(2)
Re3 Re 0.50412(12) 0.15961(13) 0.28693(11)
O25 O 0.5127(7) 0.2236(9) 0.2644(8)
O26 O 0.4684(6) 0.1215(11) 0.2478(7)
O27 O 0.4929(7) 0.1778(11) 0.3302(7)
O28 O 0.5415(6) 0.1111(10) 0.3106(8)
Re4 Re -0.0264(6) 0.1252(9) 0.2118(5)
O29 O -0.0476(7) 0.0570(10) 0.1933(8)
O30 O 0.0083(11) 0.138(2) 0.1936(16)
O31 O -0.0145(8) 0.1377(14) 0.2644(7)
O32 O -0.0663(6) 0.1643(11) 0.1783(8)
S1 S 0.16226(16) 0.4245(3) 0.41792(17)
S2 S 0.18500(19) 0.3667(3) 0.49923(17)
N31 N 0.1861(4) 0.4248(6) 0.4697(3)
O33 O 0.1444(3) 0.3713(5) 0.3970(4)
O34 O 0.1395(4) 0.4797(6) 0.4081(5)
O35 O 0.2077(4) 0.3869(6) 0.5430(3)
O36 O 0.1500(4) 0.3352(7) 0.4828(4)
C181 C 0.1985(5) 0.4401(9) 0.3976(7)
C182 C 0.2194(5) 0.3114(8) 0.4982(7)
F1 F 0.2189(4) 0.4906(6) 0.4145(5)
F2 F 0.2234(5) 0.3977(7) 0.4067(5)
F3 F 0.1833(5) 0.4443(8) 0.3545(5)
F4 F 0.2554(5) 0.3307(8) 0.5117(5)
F5 F 0.2196(5) 0.2668(7) 0.5282(5)
F6 F 0.2082(5) 0.2865(8) 0.4594(5)
N32 N 0.2444(3) 0.1491(7) 0.2535(4)
C183 C 0.2537(4) 0.1932(9) 0.2586(5)
C184 C 0.2790(6) 0.2548(10) 0.2715(7)
H147 H 0.3065 0.2448 0.2837
H148 H 0.2738 0.2770 0.2934
H149 H 0.2720 0.2797 0.2453
loop_
_geom_bond_atom_site_label_1
_geom_bond_atom_site_label_2
_geom_bond_site_symmetry_1
_geom_bond_site_symmetry_2
Zn1 N19 1_555 1_555
Zn2 N13 1_555 1_555
Zn3 N1 1_555 1_555
Zn4 N21 1_555 1_555
Zn5 N15 1_555 1_555
Zn6 N3 1_555 1_555
Zn7 N23 1_555 1_555
Zn8 N17 1_555 1_555
Zn9 N5 1_555 1_555
O1 C4 1_555 1_555
O2 C33 1_555 1_555
N1 C1 1_555 1_555
N2 Zn3 1_555 1_555
N3 C14 1_555 1_555
N4 Zn6 1_555 1_555
N5 C24 1_555 1_555
N6 Zn9 1_555 1_555
C1 C2 1_555 1_555
C2 H1 1_555 1_555
C3 C2 1_555 1_555
H2 C3 1_555 1_555
C4 C3 1_555 1_555
C5 C4 1_555 1_555
H3 C5 1_555 1_555
C6 C1 1_555 1_555
H4 C6 1_555 1_555
C7 O1 1_555 1_555
H5 C7 1_555 1_555
H6 C7 1_555 1_555
H7 C7 1_555 1_555
C8 N1 1_555 1_555
H8 C8 1_555 1_555
C9 N2 1_555 1_555
C10 C9 1_555 1_555
H9 C10 1_555 1_555
C11 C10 1_555 1_555
H10 C11 1_555 1_555
C12 C11 1_555 1_555
C13 N2 1_555 1_555
H11 C13 1_555 1_555
C14 H12 1_555 1_555
C15 C12 1_555 1_555
C16 C15 1_555 1_555
H13 C16 1_555 1_555
C17 C16 1_555 1_555
H14 C17 1_555 1_555
C18 N3 1_555 1_555
C19 N4 1_555 1_555
C20 C19 1_555 1_555
H15 C20 1_555 1_555
C21 C20 1_555 1_555
H16 C21 1_555 1_555
C22 C21 1_555 1_555
C23 N4 1_555 1_555
H17 C23 1_555 1_555
C24 H18 1_555 1_555
C25 C22 1_555 1_555
C26 C25 1_555 1_555
H19 C26 1_555 1_555
C27 C26 1_555 1_555
H20 C27 1_555 1_555
C28 N5 1_555 1_555
C29 N6 1_555 1_555
H21 C29 1_555 1_555
C30 N6 1_555 1_555
C31 C30 1_555 1_555
H22 C31 1_555 1_555
C32 C31 1_555 1_555
H23 C32 1_555 1_555
C33 C32 1_555 1_555
C34 C33 1_555 1_555
H24 C34 1_555 1_555
C35 C30 1_555 1_555
H25 C35 1_555 1_555
C36 O2 1_555 1_555
H26 C36 1_555 1_555
H27 C36 1_555 1_555
H28 C36 1_555 1_555
O3 C40 1_555 1_555
O4 C69 1_555 1_555
N7 Zn3 1_555 1_555
N8 Zn3 1_555 1_555
N9 Zn6 1_555 1_555
N10 Zn6 1_555 1_555
N11 Zn9 1_555 1_555
N12 Zn9 1_555 1_555
C37 N7 1_555 1_555
C38 C37 1_555 1_555
H29 C38 1_555 1_555
C39 C38 1_555 1_555
H30 C39 1_555 1_555
C40 C39 1_555 1_555
C41 C40 1_555 1_555
H31 C41 1_555 1_555
C42 C37 1_555 1_555
H32 C42 1_555 1_555
C43 O3 1_555 1_555
H33 C43 1_555 1_555
H34 C43 1_555 1_555
H35 C43 1_555 1_555
C44 N7 1_555 1_555
H36 C44 1_555 1_555
C45 N8 1_555 1_555
C46 C45 1_555 1_555
H37 C46 1_555 1_555
C47 C46 1_555 1_555
H38 C47 1_555 1_555
C48 C47 1_555 1_555
C49 N8 1_555 1_555
H39 C49 1_555 1_555
C50 N9 1_555 1_555
H40 C50 1_555 1_555
C51 C48 1_555 1_555
C52 C51 1_555 1_555
H41 C52 1_555 1_555
C53 C52 1_555 1_555
H42 C53 1_555 1_555
C54 N9 1_555 1_555
C55 N10 1_555 1_555
C56 C55 1_555 1_555
H43 C56 1_555 1_555
C57 C56 1_555 1_555
H44 C57 1_555 1_555
C58 C57 1_555 1_555
C59 N10 1_555 1_555
H45 C59 1_555 1_555
C60 N11 1_555 1_555
H46 C60 1_555 1_555
C61 C58 1_555 1_555
C62 C61 1_555 1_555
H47 C62 1_555 1_555
C63 C62 1_555 1_555
H48 C63 1_555 1_555
C64 N11 1_555 1_555
C65 N12 1_555 1_555
H49 C65 1_555 1_555
C66 N12 1_555 1_555
C67 C66 1_555 1_555
H50 C67 1_555 1_555
C68 C67 1_555 1_555
H51 C68 1_555 1_555
C69 C68 1_555 1_555
C70 C69 1_555 1_555
H52 C70 1_555 1_555
C71 C66 1_555 1_555
H53 C71 1_555 1_555
C72 O4 1_555 1_555
H54 C72 1_555 1_555
H55 C72 1_555 1_555
H56 C72 1_555 1_555
O5 C76 1_555 1_555
O6 C105 1_555 1_555
N13 C73 1_555 1_555
N14 Zn2 1_555 1_555
N15 C86 1_555 1_555
N16 Zn5 1_555 1_555
N17 C96 1_555 1_555
N18 Zn8 1_555 1_555
C73 C74 1_555 1_555
C74 H57 1_555 1_555
C75 C74 1_555 1_555
H58 C75 1_555 1_555
C76 C75 1_555 1_555
C77 C76 1_555 1_555
H59 C77 1_555 1_555
C78 C73 1_555 1_555
H60 C78 1_555 1_555
C79 O5 1_555 1_555
H61 C79 1_555 1_555
H62 C79 1_555 1_555
H63 C79 1_555 1_555
C80 N13 1_555 1_555
H64 C80 1_555 1_555
C81 N14 1_555 1_555
C82 C81 1_555 1_555
H65 C82 1_555 1_555
C83 C82 1_555 1_555
H66 C83 1_555 1_555
C84 C83 1_555 1_555
C85 N14 1_555 1_555
H67 C85 1_555 1_555
C86 H68 1_555 1_555
C87 C84 1_555 1_555
C88 C87 1_555 1_555
H69 C88 1_555 1_555
C89 C88 1_555 1_555
H70 C89 1_555 1_555
C90 N15 1_555 1_555
C91 N16 1_555 1_555
C92 C91 1_555 1_555
H71 C92 1_555 1_555
C93 C92 1_555 1_555
H72 C93 1_555 1_555
C94 C93 1_555 1_555
C95 N16 1_555 1_555
H73 C95 1_555 1_555
C96 H74 1_555 1_555
C97 C94 1_555 1_555
C98 C97 1_555 1_555
H75 C98 1_555 1_555
C99 C98 1_555 1_555
H76 C99 1_555 1_555
C100 N17 1_555 1_555
C101 N18 1_555 1_555
H77 C101 1_555 1_555
C102 N18 1_555 1_555
C103 C102 1_555 1_555
H78 C103 1_555 1_555
C104 C103 1_555 1_555
H79 C104 1_555 1_555
C105 C104 1_555 1_555
C106 C105 1_555 1_555
H80 C106 1_555 1_555
C107 C102 1_555 1_555
H81 C107 1_555 1_555
C108 O6 1_555 1_555
H82 C108 1_555 1_555
H83 C108 1_555 1_555
H84 C108 1_555 1_555
O7 C112 1_555 1_555
O8 C141 1_555 1_555
N19 C109 1_555 1_555
N20 Zn1 1_555 1_555
N21 C122 1_555 1_555
N22 Zn4 1_555 1_555
N23 C132 1_555 1_555
N24 Zn7 1_555 1_555
C109 C110 1_555 1_555
C110 H85 1_555 1_555
C111 C110 1_555 1_555
H86 C111 1_555 1_555
C112 C111 1_555 1_555
C113 C112 1_555 1_555
H87 C113 1_555 1_555
C114 C109 1_555 1_555
H88 C114 1_555 1_555
C115 O7 1_555 1_555
H89 C115 1_555 1_555
H90 C115 1_555 1_555
H91 C115 1_555 1_555
C116 N19 1_555 1_555
H92 C116 1_555 1_555
C117 N20 1_555 1_555
C118 C117 1_555 1_555
H93 C118 1_555 1_555
C119 C118 1_555 1_555
H94 C119 1_555 1_555
C120 C119 1_555 1_555
C121 N20 1_555 1_555
H95 C121 1_555 1_555
C122 H96 1_555 1_555
C123 C120 1_555 1_555
C124 C123 1_555 1_555
H97 C124 1_555 1_555
C125 C124 1_555 1_555
H98 C125 1_555 1_555
C126 N21 1_555 1_555
C127 N22 1_555 1_555
C128 C127 1_555 1_555
H99 C128 1_555 1_555
C129 C128 1_555 1_555
H100 C129 1_555 1_555
C130 C129 1_555 1_555
C131 N22 1_555 1_555
H101 C131 1_555 1_555
C132 H102 1_555 1_555
C133 C130 1_555 1_555
C134 C133 1_555 1_555
H103 C134 1_555 1_555
C135 C134 1_555 1_555
H104 C135 1_555 1_555
C136 N23 1_555 1_555
C137 N24 1_555 1_555
H105 C137 1_555 1_555
C138 N24 1_555 1_555
C139 C138 1_555 1_555
H106 C139 1_555 1_555
C140 C139 1_555 1_555
H107 C140 1_555 1_555
C141 C140 1_555 1_555
C142 C141 1_555 1_555
H108 C142 1_555 1_555
C143 C138 1_555 1_555
H109 C143 1_555 1_555
C144 O8 1_555 1_555
H110 C144 1_555 1_555
H111 C144 1_555 1_555
H112 C144 1_555 1_555
O9 C148 1_555 1_555
O10 C177 1_555 1_555
N25 Zn1 1_555 1_555
N26 Zn1 1_555 1_555
N27 Zn4 1_555 1_555
N28 Zn4 1_555 1_555
N29 Zn7 1_555 1_555
N30 Zn7 1_555 1_555
C145 N25 1_555 1_555
C146 C145 1_555 1_555
H113 C146 1_555 1_555
C147 C146 1_555 1_555
H114 C147 1_555 1_555
C148 C147 1_555 1_555
C149 C148 1_555 1_555
H115 C149 1_555 1_555
C150 C145 1_555 1_555
H116 C150 1_555 1_555
C151 O9 1_555 1_555
H117 C151 1_555 1_555
H118 C151 1_555 1_555
H119 C151 1_555 1_555
C152 N25 1_555 1_555
H120 C152 1_555 1_555
C153 N26 1_555 1_555
C154 C153 1_555 1_555
H121 C154 1_555 1_555
C155 C154 1_555 1_555
H122 C155 1_555 1_555
C156 C155 1_555 1_555
C157 N26 1_555 1_555
H123 C157 1_555 1_555
C158 N27 1_555 1_555
H124 C158 1_555 1_555
C159 C156 1_555 1_555
C160 C159 1_555 1_555
H125 C160 1_555 1_555
C161 C160 1_555 1_555
H126 C161 1_555 1_555
C162 N27 1_555 1_555
C163 N28 1_555 1_555
C164 C163 1_555 1_555
H127 C164 1_555 1_555
C165 C164 1_555 1_555
H128 C165 1_555 1_555
C166 C165 1_555 1_555
C167 N28 1_555 1_555
H129 C167 1_555 1_555
C168 N29 1_555 1_555
H130 C168 1_555 1_555
C169 C166 1_555 1_555
C170 C169 1_555 1_555
H131 C170 1_555 1_555
C171 C170 1_555 1_555
H132 C171 1_555 1_555
C172 N29 1_555 1_555
C173 N30 1_555 1_555
H133 C173 1_555 1_555
C174 N30 1_555 1_555
C175 C174 1_555 1_555
H134 C175 1_555 1_555
C176 C175 1_555 1_555
H135 C176 1_555 1_555
C177 C176 1_555 1_555
C178 C177 1_555 1_555
H136 C178 1_555 1_555
C179 C174 1_555 1_555
H137 C179 1_555 1_555
C180 O10 1_555 1_555
H138 C180 1_555 1_555
H139 C180 1_555 1_555
H140 C180 1_555 1_555
O11 Zn1 1_555 1_555
H141 O11 1_555 1_555
O12 Zn2 1_555 1_555
H142 O12 1_555 1_555
O13 Zn4 1_555 1_555
H143 O13 1_555 1_555
O14 Zn5 1_555 1_555
H144 O14 1_555 1_555
O15 Zn7 1_555 1_555
H145 O15 1_555 1_555
O16 Zn8 1_555 1_555
H146 O16 1_555 1_555
Re1 O17 1_555 1_555
O18 Re1 1_555 1_555
O19 Re1 1_555 1_555
O20 Re1 1_555 1_555
Re2 O21 1_555 1_555
O22 Re2 1_555 1_555
O23 Re2 1_555 1_555
O24 Re2 1_555 1_555
Re3 O25 1_555 1_555
O26 Re3 1_555 1_555
O27 Re3 1_555 1_555
O28 Re3 1_555 1_555
Re4 O29 1_555 1_555
O30 Re4 1_555 1_555
O31 Re4 1_555 1_555
O32 Re4 1_555 1_555
S1 N31 1_555 1_555
S2 N31 1_555 1_555
O33 S1 1_555 1_555
O34 S1 1_555 1_555
O35 S2 1_555 1_555
O36 S2 1_555 1_555
C181 S1 1_555 1_555
C182 S2 1_555 1_555
F1 C181 1_555 1_555
F2 C181 1_555 1_555
F3 C181 1_555 1_555
F4 C182 1_555 1_555
F5 C182 1_555 1_555
F6 C182 1_555 1_555
N32 C183 1_555 1_555
C183 C184 1_555 1_555
C184 H147 1_555 1_555
H148 C184 1_555 1_555
H149 C184 1_555 1_555
Zn2 O11 1_555 1_555
Zn3 O12 1_555 1_555
Zn5 O13 1_555 1_555
Zn6 O14 1_555 1_555
Zn8 O15 1_555 1_555
Zn9 O16 1_555 1_555
C5 C6 1_555 1_555
C8 C9 1_555 1_555
C12 C13 1_555 1_555
C14 C15 1_555 1_555
C17 C18 1_555 1_555
C18 C19 1_555 1_555
C22 C23 1_555 1_555
C24 C25 1_555 1_555
C27 C28 1_555 1_555
C28 C29 1_555 1_555
C34 C35 1_555 1_555
C41 C42 1_555 1_555
C44 C45 1_555 1_555
C48 C49 1_555 1_555
C50 C51 1_555 1_555
C53 C54 1_555 1_555
C54 C55 1_555 1_555
C58 C59 1_555 1_555
C60 C61 1_555 1_555
C63 C64 1_555 1_555
C64 C65 1_555 1_555
C70 C71 1_555 1_555
C77 C78 1_555 1_555
C80 C81 1_555 1_555
C84 C85 1_555 1_555
C86 C87 1_555 1_555
C89 C90 1_555 1_555
C90 C91 1_555 1_555
C94 C95 1_555 1_555
C96 C97 1_555 1_555
C99 C100 1_555 1_555
C100 C101 1_555 1_555
C106 C107 1_555 1_555
C113 C114 1_555 1_555
C116 C117 1_555 1_555
C120 C121 1_555 1_555
C122 C123 1_555 1_555
C125 C126 1_555 1_555
C126 C127 1_555 1_555
C130 C131 1_555 1_555
C132 C133 1_555 1_555
C135 C136 1_555 1_555
C136 C137 1_555 1_555
C142 C143 1_555 1_555
C149 C150 1_555 1_555
C152 C153 1_555 1_555
C156 C157 1_555 1_555
C158 C159 1_555 1_555
C161 C162 1_555 1_555
C162 C163 1_555 1_555
C166 C167 1_555 1_555
C168 C169 1_555 1_555
C171 C172 1_555 1_555
C172 C173 1_555 1_555
C178 C179 1_555 1_555

#END
