# generated using pymatgen
data_Zn9H189C211N42Cl14O99
_symmetry_space_group_name_H-M   'P 1'
_cell_length_a   19.43100000
_cell_length_b   22.43500000
_cell_length_c   28.80200000
_cell_angle_alpha   81.86000000
_cell_angle_beta   81.60000000
_cell_angle_gamma   75.35000000
_symmetry_Int_Tables_number   1
_chemical_formula_structural   Zn9H189C211N42Cl14O99
_chemical_formula_sum   'Zn18 H378 C422 N84 Cl28 O198'
_cell_volume   11945.22207778
_cell_formula_units_Z   2
loop_
 _symmetry_equiv_pos_site_id
 _symmetry_equiv_pos_as_xyz
  1  'x, y, z'
loop_
 _atom_site_type_symbol
 _atom_site_label
 _atom_site_symmetry_multiplicity
 _atom_site_fract_x
 _atom_site_fract_y
 _atom_site_fract_z
 _atom_site_occupancy
  Zn  Zn1  1  0.741500  0.561080  0.192430  1
  Zn  Zn2  1  0.258500  0.438920  0.807570  1
  Zn  Zn3  1  0.876290  0.423050  0.227840  1
  Zn  Zn4  1  0.123710  0.576950  0.772160  1
  Zn  Zn5  1  0.048100  0.327390  0.192640  1
  Zn  Zn6  1  0.951900  0.672610  0.807360  1
  Zn  Zn7  1  0.230490  0.618590  0.169080  1
  Zn  Zn8  1  0.769510  0.381410  0.830920  1
  Zn  Zn9  1  0.111470  0.659410  0.268560  1
  Zn  Zn10  1  0.888530  0.340590  0.731440  1
  Zn  Zn11  1  0.952580  0.760230  0.315600  1
  Zn  Zn12  1  0.047420  0.239770  0.684400  1
  Zn  Zn13  1  0.330320  0.943330  0.179110  1
  Zn  Zn14  1  0.669680  0.056670  0.820890  1
  Zn  Zn15  1  0.310020  0.919300  0.305940  1
  Zn  Zn16  1  0.689980  0.080700  0.694060  1
  Zn  Zn17  1  0.204900  0.934740  0.415540  1
  Zn  Zn18  1  0.795100  0.065260  0.584460  1
  H  H19  1  0.952000  0.407500  0.158700  1
  H  H20  1  0.048000  0.592500  0.841300  1
  H  H21  1  0.832500  0.482600  0.159600  1
  H  H22  1  0.167500  0.517400  0.840400  1
  H  H23  1  0.030600  0.759000  0.247500  1
  H  H24  1  0.969400  0.241000  0.752500  1
  H  H25  1  0.110400  0.660400  0.186700  1
  H  H26  1  0.889600  0.339600  0.813300  1
  H  H27  1  0.211900  0.997000  0.346700  1
  H  H28  1  0.788100  0.003000  0.653300  1
  H  H29  1  0.248000  0.925900  0.243600  1
  H  H30  1  0.752000  0.074100  0.756400  1
  H  H31  1  0.585200  0.449000  0.243800  1
  H  H32  1  0.414800  0.551000  0.756200  1
  H  H33  1  0.500600  0.422200  0.206700  1
  H  H34  1  0.499400  0.577800  0.793300  1
  H  H35  1  0.488800  0.579100  0.115500  1
  H  H36  1  0.511200  0.420900  0.884500  1
  H  H37  1  0.577400  0.602900  0.151200  1
  H  H38  1  0.422600  0.397100  0.848800  1
  H  H39  1  0.383300  0.553700  0.102200  1
  H  H40  1  0.616700  0.446300  0.897800  1
  H  H41  1  0.380800  0.490200  0.083900  1
  H  H42  1  0.619200  0.509800  0.916100  1
  H  H43  1  0.452200  0.515400  0.072300  1
  H  H44  1  0.547800  0.484600  0.927700  1
  H  H45  1  0.594200  0.527900  0.285300  1
  H  H46  1  0.405800  0.472100  0.714700  1
  H  H47  1  0.632600  0.550200  0.359700  1
  H  H48  1  0.367400  0.449800  0.640300  1
  H  H49  1  0.715500  0.581000  0.396200  1
  H  H50  1  0.284500  0.419000  0.603800  1
  H  H51  1  0.834700  0.591100  0.270400  1
  H  H52  1  0.165300  0.408900  0.729600  1
  H  H53  1  0.841800  0.684700  0.307000  1
  H  H54  1  0.158200  0.315300  0.693000  1
  H  H55  1  0.845100  0.552600  0.416800  1
  H  H56  1  0.154900  0.447400  0.583200  1
  H  H57  1  0.933900  0.587600  0.443700  1
  H  H58  1  0.066100  0.412400  0.556300  1
  H  H59  1  0.019800  0.618000  0.461100  1
  H  H60  1  0.980200  0.382000  0.538900  1
  H  H61  1  0.113500  0.655800  0.477400  1
  H  H62  1  0.886500  0.344200  0.522600  1
  H  H63  1  0.081700  0.781800  0.364800  1
  H  H64  1  0.918300  0.218200  0.635200  1
  H  H65  1  0.118400  0.838000  0.408700  1
  H  H66  1  0.881600  0.162000  0.591300  1
  H  H67  1  0.232700  0.672000  0.460700  1
  H  H68  1  0.767300  0.328000  0.539300  1
  H  H69  1  0.322200  0.720500  0.469500  1
  H  H70  1  0.677800  0.279500  0.530500  1
  H  H71  1  0.369600  0.818300  0.460700  1
  H  H72  1  0.630400  0.181700  0.539300  1
  H  H73  1  0.453100  0.859500  0.438300  1
  H  H74  1  0.546900  0.140500  0.561700  1
  H  H75  1  0.536100  0.921300  0.437400  1
  H  H76  1  0.463900  0.078700  0.562600  1
  H  H77  1  0.376100  0.074500  0.437500  1
  H  H78  1  0.623900  0.925500  0.562500  1
  H  H79  1  0.292500  0.014300  0.436600  1
  H  H80  1  0.707500  0.985700  0.563400  1
  H  H81  1  0.593200  0.990200  0.463200  1
  H  H82  1  0.406800  0.009800  0.536800  1
  H  H83  1  0.606300  0.051400  0.430800  1
  H  H84  1  0.393700  0.948600  0.569200  1
  H  H85  1  0.597200  0.994000  0.407000  1
  H  H86  1  0.402800  0.006000  0.593000  1
  H  H87  1  0.734900  0.450500  0.128300  1
  H  H88  1  0.265100  0.549500  0.871700  1
  H  H89  1  0.680200  0.389100  0.092200  1
  H  H90  1  0.319800  0.610900  0.907800  1
  H  H91  1  0.593900  0.543600  0.006800  1
  H  H92  1  0.406100  0.456400  0.993200  1
  H  H93  1  0.647300  0.602500  0.044600  1
  H  H94  1  0.352700  0.397500  0.955400  1
  H  H95  1  0.647500  0.343200  0.041600  1
  H  H96  1  0.352500  0.656800  0.958400  1
  H  H97  1  0.574400  0.349300  0.019900  1
  H  H98  1  0.425600  0.650700  0.980100  1
  H  H99  1  0.572100  0.365900  0.072400  1
  H  H100  1  0.427900  0.634100  0.927600  1
  H  H101  1  0.747400  0.617900  0.059400  1
  H  H102  1  0.252600  0.382100  0.940600  1
  H  H103  1  0.793400  0.712300  0.059200  1
  H  H104  1  0.206600  0.287700  0.940800  1
  H  H105  1  0.828900  0.781200  0.099600  1
  H  H106  1  0.171100  0.218800  0.900400  1
  H  H107  1  0.786600  0.677400  0.220200  1
  H  H108  1  0.213400  0.322600  0.779800  1
  H  H109  1  0.887000  0.711800  0.236200  1
  H  H110  1  0.113000  0.288200  0.763800  1
  H  H111  1  0.795700  0.858500  0.153200  1
  H  H112  1  0.204300  0.141500  0.846800  1
  H  H113  1  0.825200  0.922700  0.199800  1
  H  H114  1  0.174800  0.077300  0.800200  1
  H  H115  1  0.852700  0.975400  0.246800  1
  H  H116  1  0.147300  0.024600  0.753200  1
  H  H117  1  0.899000  0.028400  0.294700  1
  H  H118  1  0.101000  0.971600  0.705300  1
  H  H119  1  0.989900  0.863700  0.361400  1
  H  H120  1  0.010100  0.136300  0.638600  1
  H  H121  1  0.087300  0.924700  0.347100  1
  H  H122  1  0.912700  0.075300  0.652900  1
  H  H123  1  0.904500  0.047200  0.385200  1
  H  H124  1  0.095500  0.952800  0.614800  1
  H  H125  1  0.961400  0.075200  0.442600  1
  H  H126  1  0.038600  0.924800  0.557400  1
  H  H127  1  0.071800  0.047000  0.489100  1
  H  H128  1  0.928200  0.953000  0.510900  1
  H  H129  1  0.165300  0.078700  0.513600  1
  H  H130  1  0.834700  0.921300  0.486400  1
  H  H131  1  0.212800  0.077300  0.584100  1
  H  H132  1  0.787200  0.922700  0.415900  1
  H  H133  1  0.263400  0.890800  0.599200  1
  H  H134  1  0.736600  0.109200  0.400800  1
  H  H135  1  0.220000  0.892200  0.527100  1
  H  H136  1  0.780000  0.107800  0.472900  1
  H  H137  1  0.254900  0.908300  0.678200  1
  H  H138  1  0.745100  0.091700  0.321800  1
  H  H139  1  0.310000  0.939100  0.696800  1
  H  H140  1  0.690000  0.060900  0.303200  1
  H  H141  1  0.332900  0.904500  0.650100  1
  H  H142  1  0.667100  0.095500  0.349900  1
  H  H143  1  0.578200  0.296000  0.189300  1
  H  H144  1  0.421800  0.704000  0.810700  1
  H  H145  1  0.573400  0.225400  0.191700  1
  H  H146  1  0.426600  0.774600  0.808300  1
  H  H147  1  0.646100  0.245100  0.169800  1
  H  H148  1  0.353900  0.754900  0.830200  1
  H  H149  1  0.806600  0.350400  0.344900  1
  H  H150  1  0.193400  0.649600  0.655100  1
  H  H151  1  0.877100  0.383900  0.399200  1
  H  H152  1  0.122900  0.616100  0.600800  1
  H  H153  1  0.962800  0.436300  0.409300  1
  H  H154  1  0.037200  0.563700  0.590700  1
  H  H155  1  0.980600  0.486100  0.268100  1
  H  H156  1  0.019400  0.513900  0.731900  1
  H  H157  1  0.014300  0.565800  0.286900  1
  H  H158  1  0.985700  0.434200  0.713100  1
  H  H159  1  0.075500  0.449800  0.402400  1
  H  H160  1  0.924500  0.550200  0.597600  1
  H  H161  1  0.163500  0.501900  0.403900  1
  H  H162  1  0.836500  0.498100  0.596100  1
  H  H163  1  0.254900  0.546600  0.395600  1
  H  H164  1  0.745100  0.453400  0.604400  1
  H  H165  1  0.334300  0.610700  0.390700  1
  H  H166  1  0.665700  0.389300  0.609300  1
  H  H167  1  0.233900  0.718700  0.285500  1
  H  H168  1  0.766100  0.281300  0.714500  1
  H  H169  1  0.257300  0.794700  0.318200  1
  H  H170  1  0.742700  0.205300  0.681800  1
  H  H171  1  0.427400  0.658800  0.353400  1
  H  H172  1  0.572600  0.341200  0.646600  1
  H  H173  1  0.494000  0.733400  0.348700  1
  H  H174  1  0.506000  0.266600  0.651300  1
  H  H175  1  0.498700  0.847100  0.328900  1
  H  H176  1  0.501300  0.152900  0.671100  1
  H  H177  1  0.553000  0.917200  0.290000  1
  H  H178  1  0.447000  0.082800  0.710000  1
  H  H179  1  0.601200  0.002900  0.285900  1
  H  H180  1  0.398800  0.997100  0.714100  1
  H  H181  1  0.405900  0.109400  0.321200  1
  H  H182  1  0.594100  0.890600  0.678800  1
  H  H183  1  0.355600  0.025600  0.323100  1
  H  H184  1  0.644400  0.974400  0.676900  1
  H  H185  1  0.467300  0.185800  0.290500  1
  H  H186  1  0.532700  0.814200  0.709500  1
  H  H187  1  0.536600  0.196900  0.308900  1
  H  H188  1  0.463400  0.803100  0.691100  1
  H  H189  1  0.481600  0.165000  0.344400  1
  H  H190  1  0.518400  0.835000  0.655600  1
  H  H191  1  0.957000  0.197100  0.324800  1
  H  H192  1  0.043000  0.802900  0.675200  1
  H  H193  1  0.879100  0.136500  0.317900  1
  H  H194  1  0.120900  0.863500  0.682100  1
  H  H195  1  0.860400  0.209200  0.183800  1
  H  H196  1  0.139600  0.790800  0.816200  1
  H  H197  1  0.932500  0.274400  0.191000  1
  H  H198  1  0.067500  0.725600  0.809000  1
  H  H199  1  0.762700  0.167300  0.200200  1
  H  H200  1  0.237300  0.832700  0.799800  1
  H  H201  1  0.763300  0.095500  0.213400  1
  H  H202  1  0.236700  0.904500  0.786600  1
  H  H203  1  0.831600  0.115400  0.183400  1
  H  H204  1  0.168400  0.884600  0.816600  1
  H  H205  1  0.021200  0.261900  0.321800  1
  H  H206  1  0.978800  0.738100  0.678200  1
  H  H207  1  0.106800  0.308100  0.356400  1
  H  H208  1  0.893200  0.691900  0.643600  1
  H  H209  1  0.184400  0.372200  0.345500  1
  H  H210  1  0.815600  0.627800  0.654500  1
  H  H211  1  0.157300  0.402800  0.207200  1
  H  H212  1  0.842700  0.597200  0.792800  1
  H  H213  1  0.164700  0.502400  0.218000  1
  H  H214  1  0.835300  0.497600  0.782000  1
  H  H215  1  0.297600  0.400300  0.310000  1
  H  H216  1  0.702400  0.599700  0.690000  1
  H  H217  1  0.369400  0.468900  0.291000  1
  H  H218  1  0.630600  0.531100  0.709000  1
  H  H219  1  0.421000  0.545200  0.277400  1
  H  H220  1  0.579000  0.454800  0.722600  1
  H  H221  1  0.469800  0.630700  0.263800  1
  H  H222  1  0.530200  0.369300  0.736200  1
  H  H223  1  0.332300  0.705500  0.168000  1
  H  H224  1  0.667700  0.294500  0.832000  1
  H  H225  1  0.328900  0.795000  0.207400  1
  H  H226  1  0.671100  0.205000  0.792600  1
  H  H227  1  0.535500  0.701500  0.207100  1
  H  H228  1  0.464500  0.298500  0.792900  1
  H  H229  1  0.568200  0.796400  0.190700  1
  H  H230  1  0.431800  0.203600  0.809300  1
  H  H231  1  0.532100  0.911700  0.167700  1
  H  H232  1  0.467900  0.088300  0.832300  1
  H  H233  1  0.430200  0.038900  0.221400  1
  H  H234  1  0.569800  0.961100  0.778600  1
  H  H235  1  0.465500  0.132300  0.207000  1
  H  H236  1  0.534500  0.867700  0.793000  1
  H  H237  1  0.517700  0.106800  0.068300  1
  H  H238  1  0.482300  0.893200  0.931700  1
  H  H239  1  0.482500  0.012900  0.084100  1
  H  H240  1  0.517500  0.987100  0.915900  1
  H  H241  1  0.539500  0.240700  0.065300  1
  H  H242  1  0.460500  0.759300  0.934700  1
  H  H243  1  0.563200  0.168900  0.057200  1
  H  H244  1  0.436800  0.831100  0.942800  1
  H  H245  1  0.480800  0.205100  0.057900  1
  H  H246  1  0.519200  0.794900  0.942100  1
  H  H247  1  0.039700  0.187600  0.103900  1
  H  H248  1  0.960300  0.812400  0.896100  1
  H  H249  1  0.011600  0.092400  0.123200  1
  H  H250  1  0.988400  0.907600  0.876800  1
  H  H251  1  0.089500  0.075900  0.248800  1
  H  H252  1  0.910500  0.924100  0.751200  1
  H  H253  1  0.115500  0.172300  0.229600  1
  H  H254  1  0.884500  0.827700  0.770400  1
  H  H255  1  0.950300  0.013800  0.167000  1
  H  H256  1  0.049700  0.986200  0.833000  1
  H  H257  1  0.999200  0.948400  0.185600  1
  H  H258  1  0.000800  0.051600  0.814400  1
  H  H259  1  0.030000  0.990600  0.142000  1
  H  H260  1  0.970000  0.009400  0.858000  1
  H  H261  1  0.142400  0.232100  0.093000  1
  H  H262  1  0.857600  0.767900  0.907000  1
  H  H263  1  0.203600  0.308200  0.039400  1
  H  H264  1  0.796400  0.691800  0.960600  1
  H  H265  1  0.235600  0.401000  0.025800  1
  H  H266  1  0.764400  0.599000  0.974200  1
  H  H267  1  0.100400  0.454900  0.140500  1
  H  H268  1  0.899600  0.545100  0.859500  1
  H  H269  1  0.205100  0.500100  0.142300  1
  H  H270  1  0.794900  0.499900  0.857700  1
  H  H271  1  0.183100  0.521300  0.004100  1
  H  H272  1  0.816900  0.478700  0.995900  1
  H  H273  1  0.205300  0.619400  0.999000  1
  H  H274  1  0.794700  0.380600  0.001000  1
  H  H275  1  0.206800  0.715100  0.002700  1
  H  H276  1  0.793200  0.284900  0.997300  1
  H  H277  1  0.210200  0.815900  0.010800  1
  H  H278  1  0.789800  0.184100  0.989200  1
  H  H279  1  0.224400  0.763700  0.149400  1
  H  H280  1  0.775600  0.236300  0.850600  1
  H  H281  1  0.299700  0.835600  0.131800  1
  H  H282  1  0.700300  0.164400  0.868200  1
  H  H283  1  0.142900  0.914700  0.048700  1
  H  H284  1  0.857100  0.085300  0.951300  1
  H  H285  1  0.147900  0.010200  0.066800  1
  H  H286  1  0.852100  0.989800  0.933200  1
  H  H287  1  0.200500  0.074300  0.114300  1
  H  H288  1  0.799500  0.925700  0.885700  1
  H  H289  1  0.276900  0.060000  0.239400  1
  H  H290  1  0.723100  0.940000  0.760600  1
  H  H291  1  0.285100  0.148700  0.267400  1
  H  H292  1  0.714900  0.851300  0.732600  1
  H  H293  1  0.290600  0.233300  0.134000  1
  H  H294  1  0.709400  0.766700  0.866000  1
  H  H295  1  0.275200  0.145400  0.106700  1
  H  H296  1  0.724800  0.854600  0.893300  1
  H  H297  1  0.269100  0.236400  0.284800  1
  H  H298  1  0.730900  0.763600  0.715200  1
  H  H299  1  0.301800  0.296100  0.270900  1
  H  H300  1  0.698200  0.703900  0.729100  1
  H  H301  1  0.353400  0.228100  0.270100  1
  H  H302  1  0.646600  0.771900  0.729900  1
  H  H303  1  0.763600  0.281300  0.330300  1
  H  H304  1  0.236400  0.718700  0.669700  1
  H  H305  1  0.686900  0.229400  0.308700  1
  H  H306  1  0.313100  0.770600  0.691300  1
  H  H307  1  0.680800  0.328300  0.181600  1
  H  H308  1  0.319200  0.671700  0.818400  1
  H  H309  1  0.763300  0.380000  0.201600  1
  H  H310  1  0.236700  0.620000  0.798400  1
  H  H311  1  0.638600  0.374200  0.456400  1
  H  H312  1  0.361400  0.625800  0.543600  1
  H  H313  1  0.711900  0.333333  0.433000  1
  H  H314  1  0.288100  0.666667  0.567000  1
  H  H315  1  0.637600  0.316400  0.430000  1
  H  H316  1  0.362400  0.683600  0.570000  1
  H  H317  1  0.305800  0.386900  0.485300  1
  H  H318  1  0.694200  0.613100  0.514700  1
  H  H319  1  0.383100  0.343600  0.471400  1
  H  H320  1  0.616900  0.656400  0.528600  1
  H  H321  1  0.313700  0.331400  0.454100  1
  H  H322  1  0.686300  0.668600  0.545900  1
  H  H323  1  0.455000  0.218300  0.435800  1
  H  H324  1  0.545000  0.781700  0.564200  1
  H  H325  1  0.484000  0.215300  0.485500  1
  H  H326  1  0.516000  0.784700  0.514500  1
  H  H327  1  0.489100  0.152700  0.463300  1
  H  H328  1  0.510900  0.847300  0.536700  1
  H  H329  1  0.224600  0.224300  0.450300  1
  H  H330  1  0.775400  0.775700  0.549700  1
  H  H331  1  0.285100  0.166400  0.468600  1
  H  H332  1  0.714900  0.833600  0.531400  1
  H  H333  1  0.241200  0.160500  0.427200  1
  H  H334  1  0.758800  0.839500  0.572800  1
  H  H335  1  0.700500  0.922800  0.337800  1
  H  H336  1  0.299500  0.077200  0.662200  1
  H  H337  1  0.659300  0.868200  0.350500  1
  H  H338  1  0.340700  0.131800  0.649500  1
  H  H339  1  0.707000  0.874400  0.300600  1
  H  H340  1  0.293000  0.125600  0.699400  1
  H  H341  1  0.725700  0.725900  0.396300  1
  H  H342  1  0.274300  0.274100  0.603700  1
  H  H343  1  0.655100  0.703700  0.419400  1
  H  H344  1  0.344900  0.296300  0.580600  1
  H  H345  1  0.721800  0.691600  0.449000  1
  H  H346  1  0.278200  0.308400  0.551000  1
  H  H347  1  0.995100  0.753600  0.533100  1
  H  H348  1  0.004900  0.246400  0.466900  1
  H  H349  1  0.917700  0.767300  0.515400  1
  H  H350  1  0.082300  0.232700  0.484600  1
  H  H351  1  0.932000  0.808500  0.552400  1
  H  H352  1  0.068000  0.191500  0.447600  1
  H  H353  1  0.527200  0.505100  0.451100  1
  H  H354  1  0.472800  0.494900  0.548900  1
  H  H355  1  0.492400  0.450900  0.442100  1
  H  H356  1  0.507600  0.549100  0.557900  1
  H  H357  1  0.442000  0.515100  0.457100  1
  H  H358  1  0.558000  0.484900  0.542900  1
  H  H359  1  0.427700  0.312700  0.185800  1
  H  H360  1  0.572300  0.687300  0.814200  1
  H  H361  1  0.450100  0.352100  0.137700  1
  H  H362  1  0.549900  0.647900  0.862300  1
  H  H363  1  0.419900  0.292400  0.136200  1
  H  H364  1  0.580100  0.707600  0.863800  1
  H  H365  1  0.524700  0.383900  0.344100  1
  H  H366  1  0.475300  0.616100  0.655900  1
  H  H367  1  0.564200  0.302800  0.345200  1
  H  H368  1  0.435800  0.697200  0.654800  1
  H  H369  1  0.478100  0.329400  0.376600  1
  H  H370  1  0.521900  0.670600  0.623400  1
  H  H371  1  0.518000  0.858100  0.054100  1
  H  H372  1  0.482000  0.141900  0.945900  1
  H  H373  1  0.440300  0.840600  0.088800  1
  H  H374  1  0.559700  0.159400  0.911200  1
  H  H375  1  0.471900  0.904900  0.099500  1
  H  H376  1  0.528100  0.095100  0.900500  1
  H  H377  1  0.947700  0.689100  0.052600  1
  H  H378  1  0.052300  0.310900  0.947400  1
  H  H379  1  0.995200  0.670000  0.996800  1
  H  H380  1  0.004800  0.330000  0.003200  1
  H  H381  1  0.031300  0.633000  0.050000  1
  H  H382  1  0.968700  0.367000  0.950000  1
  H  H383  1  0.496500  0.024300  0.203500  1
  H  H384  1  0.503500  0.975700  0.796500  1
  H  H385  1  0.512800  0.123600  0.177700  1
  H  H386  1  0.487200  0.876400  0.822300  1
  H  H387  1  0.421700  0.124300  0.059400  1
  H  H388  1  0.578300  0.875700  0.940600  1
  H  H389  1  0.406900  0.024400  0.086100  1
  H  H390  1  0.593100  0.975600  0.913900  1
  H  H391  1  0.556700  0.236100  0.078100  1
  H  H392  1  0.443300  0.763900  0.921900  1
  H  H393  1  0.572800  0.182600  0.120900  1
  H  H394  1  0.427200  0.817400  0.879100  1
  H  H395  1  0.578200  0.164900  0.068400  1
  H  H396  1  0.421800  0.835100  0.931600  1
  C  C397  1  0.589000  0.528800  0.201100  1
  C  C398  1  0.411000  0.471200  0.798900  1
  C  C399  1  0.566000  0.475100  0.217500  1
  C  C400  1  0.434000  0.524900  0.782500  1
  C  C401  1  0.515400  0.459500  0.195900  1
  C  C402  1  0.484600  0.540500  0.804100  1
  C  C403  1  0.486100  0.498700  0.158000  1
  C  C404  1  0.513900  0.501300  0.842000  1
  C  C405  1  0.508700  0.552400  0.141300  1
  C  C406  1  0.491300  0.447600  0.858700  1
  C  C407  1  0.560800  0.566600  0.162900  1
  C  C408  1  0.439200  0.433400  0.837100  1
  C  C409  1  0.411100  0.512100  0.095900  1
  C  C410  1  0.588900  0.487900  0.904100  1
  C  C411  1  0.633900  0.541800  0.268200  1
  C  C412  1  0.366100  0.458200  0.731800  1
  C  C413  1  0.684900  0.557100  0.293900  1
  C  C414  1  0.315100  0.442900  0.706100  1
  C  C415  1  0.673900  0.560200  0.341700  1
  C  C416  1  0.326100  0.439800  0.658300  1
  C  C417  1  0.723000  0.577700  0.363200  1
  C  C418  1  0.277000  0.422300  0.636800  1
  C  C419  1  0.783700  0.590800  0.336100  1
  C  C420  1  0.216300  0.409200  0.663900  1
  C  C421  1  0.792100  0.584100  0.288800  1
  C  C422  1  0.207900  0.415900  0.711200  1
  C  C423  1  0.862300  0.663400  0.334500  1
  C  C424  1  0.137700  0.336600  0.665500  1
  C  C425  1  0.837400  0.611700  0.356900  1
  C  C426  1  0.162600  0.388300  0.643100  1
  C  C427  1  0.863100  0.585400  0.398900  1
  C  C428  1  0.136900  0.414600  0.601100  1
  C  C429  1  0.915000  0.606600  0.415200  1
  C  C430  1  0.085000  0.393400  0.584800  1
  C  C431  1  0.939300  0.656100  0.389400  1
  C  C432  1  0.060700  0.343900  0.610600  1
  C  C433  1  0.996800  0.679000  0.403500  1
  C  C434  1  0.003200  0.321000  0.596500  1
  C  C435  1  0.033100  0.652000  0.441500  1
  C  C436  1  0.966900  0.348000  0.558500  1
  C  C437  1  0.088500  0.674300  0.451000  1
  C  C438  1  0.911500  0.325700  0.549000  1
  C  C439  1  0.108300  0.723400  0.422300  1
  C  C440  1  0.891700  0.276600  0.577700  1
  C  C441  1  0.069000  0.748100  0.385100  1
  C  C442  1  0.931000  0.251900  0.614900  1
  C  C443  1  0.160500  0.813400  0.421100  1
  C  C444  1  0.839500  0.186600  0.578900  1
  C  C445  1  0.166600  0.750000  0.431600  1
  C  C446  1  0.833400  0.250000  0.568400  1
  C  C447  1  0.227400  0.715100  0.451300  1
  C  C448  1  0.772600  0.284900  0.548700  1
  C  C449  1  0.279600  0.743900  0.457000  1
  C  C450  1  0.720400  0.256100  0.543000  1
  C  C451  1  0.270000  0.807000  0.444600  1
  C  C452  1  0.730000  0.193000  0.555400  1
  C  C453  1  0.325700  0.840000  0.449200  1
  C  C454  1  0.674300  0.160000  0.550800  1
  C  C455  1  0.366200  0.932100  0.437600  1
  C  C456  1  0.633800  0.067900  0.562400  1
  C  C457  1  0.437300  0.903200  0.437900  1
  C  C458  1  0.562700  0.096800  0.562100  1
  C  C459  1  0.486500  0.940300  0.437500  1
  C  C460  1  0.513500  0.059700  0.562500  1
  C  C461  1  0.462900  0.003700  0.437200  1
  C  C462  1  0.537100  0.996300  0.562800  1
  C  C463  1  0.392100  0.030900  0.437300  1
  C  C464  1  0.607900  0.969100  0.562700  1
  C  C465  1  0.342000  0.995100  0.437100  1
  C  C466  1  0.658000  0.004900  0.562900  1
  C  C467  1  0.581600  0.017700  0.434300  1
  C  C468  1  0.418400  0.982300  0.565700  1
  C  C469  1  0.696100  0.530200  0.091000  1
  C  C470  1  0.303900  0.469800  0.909000  1
  C  C471  1  0.705800  0.469300  0.103900  1
  C  C472  1  0.294200  0.530700  0.896100  1
  C  C473  1  0.673800  0.432100  0.082200  1
  C  C474  1  0.326200  0.567900  0.917800  1
  C  C475  1  0.633100  0.460200  0.046000  1
  C  C476  1  0.366900  0.539800  0.954000  1
  C  C477  1  0.622300  0.524700  0.031500  1
  C  C478  1  0.377700  0.475300  0.968500  1
  C  C479  1  0.653800  0.559300  0.053800  1
  C  C480  1  0.346200  0.440700  0.946200  1
  C  C481  1  0.597900  0.367200  0.040500  1
  C  C482  1  0.402100  0.632800  0.959500  1
  C  C483  1  0.746900  0.612000  0.092700  1
  C  C484  1  0.253100  0.388000  0.907300  1
  C  C485  1  0.771600  0.655000  0.116700  1
  C  C486  1  0.228400  0.345000  0.883300  1
  C  C487  1  0.792900  0.705200  0.092500  1
  C  C488  1  0.207100  0.294800  0.907500  1
  C  C489  1  0.813900  0.746300  0.116500  1
  C  C490  1  0.186100  0.253700  0.883500  1
  C  C491  1  0.812700  0.735500  0.164300  1
  C  C492  1  0.187300  0.264500  0.835700  1
  C  C493  1  0.788500  0.684500  0.186700  1
  C  C494  1  0.211500  0.315500  0.813300  1
  C  C495  1  0.871300  0.755400  0.229400  1
  C  C496  1  0.128700  0.244600  0.770600  1
  C  C497  1  0.833600  0.777400  0.191700  1
  C  C498  1  0.166400  0.222600  0.808300  1
  C  C499  1  0.818800  0.840800  0.180500  1
  C  C500  1  0.181200  0.159200  0.819500  1
  C  C501  1  0.836600  0.879000  0.207700  1
  C  C502  1  0.163400  0.121000  0.792300  1
  C  C503  1  0.871400  0.852700  0.246900  1
  C  C504  1  0.128600  0.147300  0.753100  1
  C  C505  1  0.896600  0.889200  0.276800  1
  C  C506  1  0.103400  0.110800  0.723200  1
  C  C507  1  0.881700  0.953000  0.270300  1
  C  C508  1  0.118300  0.047000  0.729700  1
  C  C509  1  0.909600  0.984400  0.298500  1
  C  C510  1  0.090400  0.015600  0.701500  1
  C  C511  1  0.952900  0.951100  0.332200  1
  C  C512  1  0.047100  0.048900  0.667800  1
  C  C513  1  0.962400  0.887100  0.337400  1
  C  C514  1  0.037600  0.112900  0.662600  1
  C  C515  1  0.060400  0.953800  0.367900  1
  C  C516  1  0.939600  0.046200  0.632100  1
  C  C517  1  0.987800  0.978800  0.362900  1
  C  C518  1  0.012200  0.021200  0.637100  1
  C  C519  1  0.952400  0.026000  0.389800  1
  C  C520  1  0.047600  0.974000  0.610200  1
  C  C521  1  0.985800  0.043100  0.423600  1
  C  C522  1  0.014200  0.956900  0.576400  1
  C  C523  1  0.057000  0.011100  0.428800  1
  C  C524  1  0.943000  0.988900  0.571200  1
  C  C525  1  0.094100  0.017300  0.467700  1
  C  C526  1  0.905900  0.982700  0.532300  1
  C  C527  1  0.187800  0.985700  0.514500  1
  C  C528  1  0.812200  0.014300  0.485500  1
  C  C529  1  0.185600  0.040400  0.530800  1
  C  C530  1  0.814400  0.959600  0.469200  1
  C  C531  1  0.213400  0.039400  0.572800  1
  C  C532  1  0.786600  0.960600  0.427200  1
  C  C533  1  0.241700  0.984400  0.597800  1
  C  C534  1  0.758300  0.015600  0.402200  1
  C  C535  1  0.244100  0.929000  0.581600  1
  C  C536  1  0.755900  0.071000  0.418400  1
  C  C537  1  0.217600  0.930000  0.539200  1
  C  C538  1  0.782400  0.070000  0.460800  1
  C  C539  1  0.293100  0.930300  0.668600  1
  C  C540  1  0.706900  0.069700  0.331400  1
  C  C541  1  0.604800  0.252600  0.194000  1
  C  C542  1  0.395200  0.747400  0.806000  1
  C  C543  1  0.830900  0.371500  0.319300  1
  C  C544  1  0.169100  0.628500  0.680700  1
  C  C545  1  0.882800  0.403900  0.328500  1
  C  C546  1  0.117200  0.596100  0.671500  1
  C  C547  1  0.899700  0.404800  0.372700  1
  C  C548  1  0.100300  0.595200  0.627300  1
  C  C549  1  0.949800  0.436400  0.378800  1
  C  C550  1  0.050200  0.563600  0.621200  1
  C  C551  1  0.981000  0.468400  0.339400  1
  C  C552  1  0.019000  0.531600  0.660600  1
  C  C553  1  0.959300  0.465500  0.295400  1
  C  C554  1  0.040700  0.534500  0.704600  1
  C  C555  1  0.044900  0.552500  0.311100  1
  C  C556  1  0.955100  0.447500  0.688900  1
  C  C557  1  0.035200  0.501900  0.343900  1
  C  C558  1  0.964800  0.498100  0.656100  1
  C  C559  1  0.080600  0.483400  0.379100  1
  C  C560  1  0.919400  0.516600  0.620900  1
  C  C561  1  0.132600  0.514300  0.379700  1
  C  C562  1  0.867400  0.485700  0.620300  1
  C  C563  1  0.141400  0.563000  0.346300  1
  C  C564  1  0.858600  0.437000  0.653700  1
  C  C565  1  0.195600  0.598500  0.344200  1
  C  C566  1  0.804400  0.401500  0.655800  1
  C  C567  1  0.250100  0.582900  0.373700  1
  C  C568  1  0.749900  0.417100  0.626300  1
  C  C569  1  0.297200  0.620800  0.370700  1
  C  C570  1  0.702800  0.379200  0.629300  1
  C  C571  1  0.290200  0.673300  0.338700  1
  C  C572  1  0.709800  0.326700  0.661300  1
  C  C573  1  0.237500  0.683900  0.308800  1
  C  C574  1  0.762500  0.316100  0.691200  1
  C  C575  1  0.305900  0.781500  0.324500  1
  C  C576  1  0.694100  0.218500  0.675500  1
  C  C577  1  0.334100  0.718000  0.336200  1
  C  C578  1  0.665900  0.282000  0.663800  1
  C  C579  1  0.405700  0.701200  0.345200  1
  C  C580  1  0.594300  0.298800  0.654800  1
  C  C581  1  0.445500  0.744900  0.342300  1
  C  C582  1  0.554500  0.255100  0.657700  1
  C  C583  1  0.411700  0.806700  0.329500  1
  C  C584  1  0.588300  0.193300  0.670500  1
  C  C585  1  0.449500  0.856300  0.324400  1
  C  C586  1  0.550500  0.143700  0.675600  1
  C  C587  1  0.448700  0.962400  0.309100  1
  C  C588  1  0.551300  0.037600  0.690900  1
  C  C589  1  0.522700  0.956300  0.296600  1
  C  C590  1  0.477300  0.043700  0.703400  1
  C  C591  1  0.551100  0.007400  0.294000  1
  C  C592  1  0.448900  0.992600  0.706000  1
  C  C593  1  0.508800  0.064400  0.302900  1
  C  C594  1  0.491200  0.935600  0.697100  1
  C  C595  1  0.435900  0.070300  0.314500  1
  C  C596  1  0.564100  0.929700  0.685500  1
  C  C597  1  0.406000  0.020200  0.316500  1
  C  C598  1  0.594000  0.979800  0.683500  1
  C  C599  1  0.504300  0.169000  0.311800  1
  C  C600  1  0.495700  0.831000  0.688200  1
  C  C601  1  0.955100  0.240900  0.256900  1
  C  C602  1  0.044900  0.759100  0.743100  1
  C  C603  1  0.937500  0.199900  0.295900  1
  C  C604  1  0.062500  0.800100  0.704100  1
  C  C605  1  0.891700  0.163900  0.291600  1
  C  C606  1  0.108300  0.836100  0.708400  1
  C  C607  1  0.864400  0.166500  0.251100  1
  C  C608  1  0.135600  0.833500  0.748900  1
  C  C609  1  0.879800  0.207300  0.212600  1
  C  C610  1  0.120200  0.792700  0.787400  1
  C  C611  1  0.923700  0.244800  0.216800  1
  C  C612  1  0.076300  0.755200  0.783200  1
  C  C613  1  0.792600  0.126000  0.208700  1
  C  C614  1  0.207400  0.874000  0.791300  1
  C  C615  1  0.034400  0.282600  0.292000  1
  C  C616  1  0.965600  0.717400  0.708000  1
  C  C617  1  0.085400  0.319400  0.288500  1
  C  C618  1  0.914600  0.680600  0.711500  1
  C  C619  1  0.117100  0.328500  0.325900  1
  C  C620  1  0.882900  0.671500  0.674100  1
  C  C621  1  0.162800  0.366400  0.319400  1
  C  C622  1  0.837200  0.633600  0.680600  1
  C  C623  1  0.178800  0.397600  0.274100  1
  C  C624  1  0.821200  0.602400  0.725900  1
  C  C625  1  0.146700  0.383800  0.238200  1
  C  C626  1  0.853300  0.616200  0.761800  1
  C  C627  1  0.207600  0.494800  0.232300  1
  C  C628  1  0.792400  0.505200  0.767700  1
  C  C629  1  0.224200  0.441600  0.264600  1
  C  C630  1  0.775800  0.558400  0.735400  1
  C  C631  1  0.285300  0.434500  0.286800  1
  C  C632  1  0.714700  0.565500  0.713200  1
  C  C633  1  0.327300  0.475200  0.276000  1
  C  C634  1  0.672700  0.524800  0.724000  1
  C  C635  1  0.309100  0.526900  0.242600  1
  C  C636  1  0.690900  0.473100  0.757400  1
  C  C637  1  0.345700  0.577000  0.231300  1
  C  C638  1  0.654300  0.423000  0.768700  1
  C  C639  1  0.402500  0.579100  0.255400  1
  C  C640  1  0.597500  0.420900  0.744600  1
  C  C641  1  0.431300  0.629400  0.247400  1
  C  C642  1  0.568700  0.370600  0.752600  1
  C  C643  1  0.404300  0.678900  0.215200  1
  C  C644  1  0.595700  0.321100  0.784800  1
  C  C645  1  0.350200  0.672800  0.191000  1
  C  C646  1  0.649800  0.327200  0.809000  1
  C  C647  1  0.378500  0.794400  0.202400  1
  C  C648  1  0.621500  0.205600  0.797600  1
  C  C649  1  0.427900  0.737400  0.207000  1
  C  C650  1  0.572100  0.262600  0.793000  1
  C  C651  1  0.499900  0.739000  0.203000  1
  C  C652  1  0.500100  0.261000  0.797000  1
  C  C653  1  0.519400  0.795100  0.192900  1
  C  C654  1  0.480600  0.204900  0.807100  1
  C  C655  1  0.467500  0.848600  0.185900  1
  C  C656  1  0.532500  0.151400  0.814100  1
  C  C657  1  0.483700  0.908500  0.172400  1
  C  C658  1  0.516300  0.091500  0.827600  1
  C  C659  1  0.452900  0.017600  0.154300  1
  C  C660  1  0.547100  0.982400  0.845700  1
  C  C661  1  0.448000  0.052800  0.190300  1
  C  C662  1  0.552000  0.947200  0.809700  1
  C  C663  1  0.468600  0.108300  0.181800  1
  C  C664  1  0.531400  0.891700  0.818200  1
  C  C665  1  0.494000  0.128700  0.136400  1
  C  C666  1  0.506000  0.871300  0.863600  1
  C  C667  1  0.499800  0.093200  0.099500  1
  C  C668  1  0.500200  0.906800  0.900500  1
  C  C669  1  0.478900  0.037600  0.109000  1
  C  C670  1  0.521100  0.962400  0.891000  1
  C  C671  1  0.525000  0.201000  0.071500  1
  C  C672  1  0.475000  0.799000  0.928500  1
  C  C673  1  0.078200  0.189600  0.165500  1
  C  C674  1  0.921800  0.810400  0.834500  1
  C  C675  1  0.048500  0.165000  0.133700  1
  C  C676  1  0.951500  0.835000  0.866300  1
  C  C677  1  0.032000  0.109000  0.145000  1
  C  C678  1  0.968000  0.891000  0.855000  1
  C  C679  1  0.045400  0.076100  0.188700  1
  C  C680  1  0.954600  0.923900  0.811300  1
  C  C681  1  0.078100  0.099400  0.219600  1
  C  C682  1  0.921900  0.900600  0.780400  1
  C  C683  1  0.093900  0.156100  0.208200  1
  C  C684  1  0.906100  0.843900  0.791800  1
  C  C685  1  0.999300  0.991100  0.172200  1
  C  C686  1  0.000700  0.008900  0.827800  1
  C  C687  1  0.126700  0.262900  0.114200  1
  C  C688  1  0.873300  0.737100  0.885800  1
  C  C689  1  0.141100  0.324000  0.100700  1
  C  C690  1  0.858900  0.676000  0.899300  1
  C  C691  1  0.184800  0.338300  0.061000  1
  C  C692  1  0.815200  0.661700  0.939000  1
  C  C693  1  0.201600  0.393300  0.051800  1
  C  C694  1  0.798400  0.606700  0.948200  1
  C  C695  1  0.168100  0.438900  0.081200  1
  C  C696  1  0.831900  0.561100  0.918800  1
  C  C697  1  0.122900  0.424000  0.120200  1
  C  C698  1  0.877100  0.576000  0.879800  1
  C  C699  1  0.203000  0.525200  0.112800  1
  C  C700  1  0.797000  0.474800  0.887200  1
  C  C701  1  0.187000  0.500400  0.075200  1
  C  C702  1  0.813000  0.499600  0.924800  1
  C  C703  1  0.190100  0.536700  0.031700  1
  C  C704  1  0.809900  0.463300  0.968300  1
  C  C705  1  0.203300  0.594600  0.028600  1
  C  C706  1  0.796700  0.405400  0.971400  1
  C  C707  1  0.213700  0.616300  0.068900  1
  C  C708  1  0.786300  0.383700  0.931100  1
  C  C709  1  0.218600  0.681100  0.071400  1
  C  C710  1  0.781400  0.318900  0.928600  1
  C  C711  1  0.212100  0.725900  0.032500  1
  C  C712  1  0.787900  0.274100  0.967500  1
  C  C713  1  0.213400  0.785200  0.037300  1
  C  C714  1  0.786600  0.214800  0.962700  1
  C  C715  1  0.219700  0.800100  0.081600  1
  C  C716  1  0.780300  0.199900  0.918400  1
  C  C717  1  0.222800  0.753600  0.118700  1
  C  C718  1  0.777200  0.246400  0.881300  1
  C  C719  1  0.267500  0.871600  0.119300  1
  C  C720  1  0.732500  0.128400  0.880700  1
  C  C721  1  0.218600  0.864700  0.089800  1
  C  C722  1  0.781400  0.135300  0.910200  1
  C  C723  1  0.174800  0.917600  0.069900  1
  C  C724  1  0.825200  0.082400  0.930100  1
  C  C725  1  0.177800  0.973700  0.080700  1
  C  C726  1  0.822200  0.026300  0.919300  1
  C  C727  1  0.224300  0.978500  0.112100  1
  C  C728  1  0.775700  0.021500  0.887900  1
  C  C729  1  0.229400  0.036300  0.126700  1
  C  C730  1  0.770600  0.963700  0.873300  1
  C  C731  1  0.276500  0.092300  0.171200  1
  C  C732  1  0.723500  0.907700  0.828800  1
  C  C733  1  0.278900  0.095700  0.217700  1
  C  C734  1  0.721100  0.904300  0.782300  1
  C  C735  1  0.284100  0.148300  0.234600  1
  C  C736  1  0.715900  0.851700  0.765400  1
  C  C737  1  0.287900  0.200600  0.203800  1
  C  C738  1  0.712100  0.799400  0.796200  1
  C  C739  1  0.286300  0.198100  0.155800  1
  C  C740  1  0.713700  0.801900  0.844200  1
  C  C741  1  0.278800  0.145600  0.139300  1
  C  C742  1  0.721200  0.854400  0.860700  1
  C  C743  1  0.305900  0.253600  0.264200  1
  C  C744  1  0.694100  0.746400  0.735800  1
  C  C745  1  0.769400  0.337600  0.267500  1
  C  C746  1  0.230600  0.662400  0.732500  1
  C  C747  1  0.747000  0.291400  0.300100  1
  C  C748  1  0.253000  0.708600  0.699900  1
  C  C749  1  0.701100  0.261500  0.287200  1
  C  C750  1  0.298900  0.738500  0.712800  1
  C  C751  1  0.675000  0.275800  0.245100  1
  C  C752  1  0.325000  0.724200  0.754900  1
  C  C753  1  0.697500  0.319300  0.211800  1
  C  C754  1  0.302500  0.680700  0.788200  1
  C  C755  1  0.746400  0.350100  0.224100  1
  C  C756  1  0.253600  0.649900  0.775900  1
  C  C757  1  0.652900  0.391300  0.385000  1
  C  C758  1  0.347100  0.608700  0.615000  1
  C  C759  1  0.660900  0.350300  0.429900  1
  C  C760  1  0.339100  0.649700  0.570100  1
  C  C761  1  0.345100  0.403400  0.419400  1
  C  C762  1  0.654900  0.596600  0.580600  1
  C  C763  1  0.336300  0.363300  0.460600  1
  C  C764  1  0.663700  0.636700  0.539400  1
  C  C765  1  0.562800  0.199000  0.431700  1
  C  C766  1  0.437200  0.801000  0.568300  1
  C  C767  1  0.491800  0.196100  0.456100  1
  C  C768  1  0.508200  0.803900  0.543900  1
  C  C769  1  0.316300  0.209900  0.405500  1
  C  C770  1  0.683700  0.790100  0.594500  1
  C  C771  1  0.262300  0.188500  0.440800  1
  C  C772  1  0.737700  0.811500  0.559200  1
  C  C773  1  0.764600  0.839900  0.354600  1
  C  C774  1  0.235400  0.160100  0.645400  1
  C  C775  1  0.702900  0.879500  0.334300  1
  C  C776  1  0.297100  0.120500  0.665700  1
  C  C777  1  0.665000  0.780000  0.444100  1
  C  C778  1  0.335000  0.220000  0.555900  1
  C  C779  1  0.694300  0.720400  0.425700  1
  C  C780  1  0.305700  0.279600  0.574300  1
  C  C781  1  0.975600  0.831000  0.484300  1
  C  C782  1  0.024400  0.169000  0.515700  1
  C  C783  1  0.953100  0.786100  0.524900  1
  C  C784  1  0.046900  0.213900  0.475100  1
  C  C785  1  0.485500  0.520600  0.389000  1
  C  C786  1  0.514500  0.479400  0.611000  1
  C  C787  1  0.486900  0.495800  0.439000  1
  C  C788  1  0.513100  0.504200  0.561000  1
  C  C789  1  0.344200  0.366400  0.155000  1
  C  C790  1  0.655800  0.633600  0.845000  1
  C  C791  1  0.416300  0.327800  0.153600  1
  C  C792  1  0.583700  0.672200  0.846400  1
  C  C793  1  0.480100  0.336300  0.302900  1
  C  C794  1  0.519900  0.663700  0.697100  1
  C  C795  1  0.513600  0.338200  0.344400  1
  C  C796  1  0.486400  0.661800  0.655600  1
  C  C797  1  0.420200  0.918400  0.038300  1
  C  C798  1  0.579800  0.081600  0.961700  1
  C  C799  1  0.465000  0.878400  0.072000  1
  C  C800  1  0.535000  0.121600  0.928000  1
  C  C801  1  0.944300  0.602500  0.034400  1
  C  C802  1  0.055700  0.397500  0.965600  1
  C  C803  1  0.981600  0.651200  0.033400  1
  C  C804  1  0.018400  0.348800  0.966600  1
  C  C805  1  0.450300  0.015400  0.147400  1
  C  C806  1  0.549700  0.984600  0.852600  1
  C  C807  1  0.481400  0.044700  0.174200  1
  C  C808  1  0.518600  0.955300  0.825800  1
  C  C809  1  0.490800  0.103700  0.159000  1
  C  C810  1  0.509200  0.896300  0.841000  1
  C  C811  1  0.468000  0.133500  0.116500  1
  C  C812  1  0.532000  0.866500  0.883500  1
  C  C813  1  0.436800  0.104200  0.088700  1
  C  C814  1  0.563200  0.895800  0.911300  1
  C  C815  1  0.428200  0.044900  0.104700  1
  C  C816  1  0.571800  0.955100  0.895300  1
  C  C817  1  0.552000  0.194000  0.091000  1
  C  C818  1  0.448000  0.806000  0.909000  1
  N  N819  1  0.641300  0.546400  0.223800  1
  N  N820  1  0.358700  0.453600  0.776200  1
  N  N821  1  0.744000  0.568200  0.266900  1
  N  N822  1  0.256000  0.431800  0.733100  1
  N  N823  1  0.912200  0.684300  0.349200  1
  N  N824  1  0.087800  0.315700  0.650800  1
  N  N825  1  0.013900  0.727800  0.375600  1
  N  N826  1  0.986100  0.272200  0.624400  1
  N  N827  1  0.210500  0.841500  0.427500  1
  N  N828  1  0.789500  0.158500  0.572500  1
  N  N829  1  0.312500  0.898000  0.437400  1
  N  N830  1  0.687500  0.102000  0.562600  1
  N  N831  1  0.725000  0.567500  0.116500  1
  N  N832  1  0.275000  0.432500  0.883500  1
  N  N833  1  0.768000  0.645400  0.165100  1
  N  N834  1  0.232000  0.354600  0.834900  1
  N  N835  1  0.887900  0.791400  0.257500  1
  N  N836  1  0.112100  0.208600  0.742500  1
  N  N837  1  0.935800  0.856800  0.311200  1
  N  N838  1  0.064200  0.143200  0.688800  1
  N  N839  1  0.093000  0.968700  0.400000  1
  N  N840  1  0.907000  0.031300  0.600000  1
  N  N841  1  0.156300  0.983200  0.473000  1
  N  N842  1  0.843700  0.016800  0.527000  1
  N  N843  1  0.817700  0.370900  0.277800  1
  N  N844  1  0.182300  0.629100  0.722200  1
  N  N845  1  0.910900  0.435700  0.290100  1
  N  N846  1  0.089100  0.564300  0.709900  1
  N  N847  1  0.095900  0.582700  0.312700  1
  N  N848  1  0.904100  0.417300  0.687300  1
  N  N849  1  0.191800  0.648400  0.310700  1
  N  N850  1  0.808200  0.351600  0.689300  1
  N  N851  1  0.343000  0.824000  0.321700  1
  N  N852  1  0.657000  0.176000  0.678300  1
  N  N853  1  0.415600  0.912000  0.313700  1
  N  N854  1  0.584400  0.088000  0.686300  1
  N  N855  1  0.006000  0.277000  0.256200  1
  N  N856  1  0.994000  0.723000  0.743800  1
  N  N857  1  0.102800  0.346700  0.243700  1
  N  N858  1  0.897200  0.653300  0.756300  1
  N  N859  1  0.249200  0.535700  0.220500  1
  N  N860  1  0.750800  0.464300  0.779500  1
  N  N861  1  0.322100  0.623900  0.198300  1
  N  N862  1  0.677900  0.376100  0.801700  1
  N  N863  1  0.397800  0.848200  0.191300  1
  N  N864  1  0.602200  0.151800  0.808700  1
  N  N865  1  0.434200  0.956400  0.167000  1
  N  N866  1  0.565800  0.043600  0.833000  1
  N  N867  1  0.092800  0.250400  0.154600  1
  N  N868  1  0.907200  0.749600  0.845400  1
  N  N869  1  0.109300  0.368000  0.130400  1
  N  N870  1  0.890700  0.632000  0.869600  1
  N  N871  1  0.215200  0.580100  0.110900  1
  N  N872  1  0.784800  0.419900  0.889100  1
  N  N873  1  0.223700  0.696200  0.113600  1
  N  N874  1  0.776300  0.303800  0.886400  1
  N  N875  1  0.270200  0.926800  0.130100  1
  N  N876  1  0.729800  0.073200  0.869900  1
  N  N877  1  0.272200  0.036400  0.155900  1
  N  N878  1  0.727800  0.963600  0.844100  1
  N  N879  1  0.646200  0.420600  0.349900  1
  N  N880  1  0.353800  0.579400  0.650100  1
  N  N881  1  0.351700  0.434900  0.386600  1
  N  N882  1  0.648300  0.565100  0.613400  1
  N  N883  1  0.612800  0.201200  0.404800  1
  N  N884  1  0.387200  0.798800  0.595200  1
  N  N885  1  0.344500  0.240200  0.377300  1
  N  N886  1  0.655500  0.759800  0.622700  1
  N  N887  1  0.813300  0.810600  0.369100  1
  N  N888  1  0.186700  0.189400  0.630900  1
  N  N889  1  0.642900  0.825300  0.458200  1
  N  N890  1  0.357100  0.174700  0.541800  1
  N  N891  1  0.991000  0.864700  0.457500  1
  N  N892  1  0.009000  0.135300  0.542500  1
  N  N893  1  0.484900  0.540200  0.351200  1
  N  N894  1  0.515100  0.459800  0.648800  1
  N  N895  1  0.289000  0.394400  0.158200  1
  N  N896  1  0.711000  0.605600  0.841800  1
  N  N897  1  0.453300  0.334800  0.269600  1
  N  N898  1  0.546700  0.665200  0.730400  1
  N  N899  1  0.384400  0.950500  0.011300  1
  N  N900  1  0.615600  0.049500  0.988700  1
  N  N901  1  0.914400  0.563400  0.035200  1
  N  N902  1  0.085600  0.436600  0.964800  1
  Cl  Cl903  1  0.143570  0.854640  0.245270  1
  Cl  Cl904  1  0.856430  0.145360  0.754730  1
  Cl  Cl905  1  0.495650  0.668640  0.460660  1
  Cl  Cl906  1  0.504350  0.331360  0.539340  1
  Cl  Cl907  1  0.650060  0.752850  0.284880  1
  Cl  Cl908  1  0.349940  0.247150  0.715120  1
  Cl  Cl909  1  0.140300  0.347580  0.464180  1
  Cl  Cl910  1  0.859700  0.652420  0.535820  1
  Cl  Cl911  1  0.169900  0.122640  0.355810  1
  Cl  Cl912  1  0.830100  0.877360  0.644190  1
  Cl  Cl913  1  0.869800  0.228900  0.428530  1
  Cl  Cl914  1  0.130200  0.771100  0.571470  1
  Cl  Cl915  1  0.988500  0.582340  0.182240  1
  Cl  Cl916  1  0.011500  0.417660  0.817760  1
  Cl  Cl917  1  0.743100  0.467090  0.487730  1
  Cl  Cl918  1  0.256900  0.532910  0.512270  1
  Cl  Cl919  1  0.895100  0.331100  0.083500  1
  Cl  Cl920  1  0.104900  0.668900  0.916500  1
  Cl  Cl921  1  0.218500  0.141200  0.007500  1
  Cl  Cl922  1  0.781500  0.858800  0.992500  1
  Cl  Cl923  1  0.431800  0.720300  0.066260  1
  Cl  Cl924  1  0.568200  0.279700  0.933740  1
  Cl  Cl925  1  0.189100  0.915600  0.916900  1
  Cl  Cl926  1  0.810900  0.084400  0.083100  1
  Cl  Cl927  1  0.189100  0.161600  0.004400  1
  Cl  Cl928  1  0.810900  0.838400  0.995600  1
  Cl  Cl929  1  0.310200  0.990500  0.815900  1
  Cl  Cl930  1  0.689800  0.009500  0.184100  1
  O  O931  1  0.959000  0.387100  0.187100  1
  O  O932  1  0.041000  0.612900  0.812900  1
  O  O933  1  0.815400  0.485200  0.189800  1
  O  O934  1  0.184600  0.514800  0.810200  1
  O  O935  1  0.036900  0.730600  0.272500  1
  O  O936  1  0.963100  0.269400  0.727500  1
  O  O937  1  0.144600  0.657300  0.205000  1
  O  O938  1  0.855400  0.342700  0.795000  1
  O  O939  1  0.242200  0.960200  0.351600  1
  O  O940  1  0.757800  0.039800  0.648400  1
  O  O941  1  0.284700  0.942900  0.243700  1
  O  O942  1  0.715300  0.057100  0.756300  1
  O  O943  1  0.514000  0.183600  0.123800  1
  O  O944  1  0.486000  0.816400  0.876200  1
  O  O945  1  0.435800  0.478900  0.138000  1
  O  O946  1  0.564200  0.521100  0.862000  1
  O  O947  1  0.506100  0.043000  0.437200  1
  O  O948  1  0.493900  0.957000  0.562800  1
  O  O949  1  0.597400  0.430300  0.022400  1
  O  O950  1  0.402600  0.569700  0.977600  1
  O  O951  1  0.265900  0.988100  0.640300  1
  O  O952  1  0.734100  0.011900  0.359700  1
  O  O953  1  0.628400  0.240500  0.238300  1
  O  O954  1  0.371600  0.759500  0.761700  1
  O  O955  1  0.544200  0.109400  0.299700  1
  O  O956  1  0.455800  0.890600  0.700300  1
  O  O957  1  0.821400  0.125900  0.250600  1
  O  O958  1  0.178600  0.874100  0.749400  1
  O  O959  1  0.025800  0.020700  0.204100  1
  O  O960  1  0.974200  0.979300  0.795900  1
  O  O961  1  0.295800  0.254100  0.215400  1
  O  O962  1  0.704200  0.745900  0.784600  1
  O  O963  1  0.139800  0.843000  0.295400  1
  O  O964  1  0.860200  0.157000  0.704600  1
  O  O965  1  0.200500  0.807400  0.226800  1
  O  O966  1  0.799500  0.192600  0.773200  1
  O  O967  1  0.077400  0.852700  0.231000  1
  O  O968  1  0.922600  0.147300  0.769000  1
  O  O969  1  0.156700  0.912700  0.227700  1
  O  O970  1  0.843300  0.087300  0.772300  1
  O  O971  1  0.480600  0.733400  0.449000  1
  O  O972  1  0.519400  0.266600  0.551000  1
  O  O973  1  0.557400  0.640500  0.432700  1
  O  O974  1  0.442600  0.359500  0.567300  1
  O  O975  1  0.506900  0.654000  0.509000  1
  O  O976  1  0.493100  0.346000  0.491000  1
  O  O977  1  0.436100  0.645500  0.453400  1
  O  O978  1  0.563900  0.354500  0.546600  1
  O  O979  1  0.634100  0.705500  0.264300  1
  O  O980  1  0.365900  0.294500  0.735700  1
  O  O981  1  0.723900  0.737300  0.292400  1
  O  O982  1  0.276100  0.262700  0.707600  1
  O  O983  1  0.631700  0.810000  0.257600  1
  O  O984  1  0.368300  0.190000  0.742400  1
  O  O985  1  0.610200  0.763600  0.329900  1
  O  O986  1  0.389800  0.236400  0.670100  1
  O  O987  1  0.064600  0.367400  0.464300  1
  O  O988  1  0.935400  0.632600  0.535700  1
  O  O989  1  0.174100  0.320600  0.423100  1
  O  O990  1  0.825900  0.679400  0.576900  1
  O  O991  1  0.166000  0.400400  0.469900  1
  O  O992  1  0.834000  0.599600  0.530100  1
  O  O993  1  0.155600  0.304000  0.504400  1
  O  O994  1  0.844400  0.696000  0.495600  1
  O  O995  1  0.146700  0.182300  0.342600  1
  O  O996  1  0.853300  0.817700  0.657400  1
  O  O997  1  0.159500  0.082100  0.326300  1
  O  O998  1  0.840500  0.917900  0.673700  1
  O  O999  1  0.250800  0.115600  0.349600  1
  O  O1000  1  0.749200  0.884400  0.650400  1
  O  O1001  1  0.161300  0.101500  0.403500  1
  O  O1002  1  0.838700  0.898500  0.596500  1
  O  O1003  1  0.848800  0.287300  0.448200  1
  O  O1004  1  0.151200  0.712700  0.551800  1
  O  O1005  1  0.934100  0.230700  0.398800  1
  O  O1006  1  0.065900  0.769300  0.601200  1
  O  O1007  1  0.815700  0.225900  0.403200  1
  O  O1008  1  0.184300  0.774100  0.596800  1
  O  O1009  1  0.879000  0.183100  0.467900  1
  O  O1010  1  0.121000  0.816900  0.532100  1
  O  O1011  1  0.928700  0.554400  0.183400  1
  O  O1012  1  0.071300  0.445600  0.816600  1
  O  O1013  1  0.969700  0.622600  0.219000  1
  O  O1014  1  0.030300  0.377400  0.781000  1
  O  O1015  1  0.001300  0.614200  0.136300  1
  O  O1016  1  0.998700  0.385800  0.863700  1
  O  O1017  1  0.047000  0.531400  0.194400  1
  O  O1018  1  0.953000  0.468600  0.805600  1
  O  O1019  1  0.698600  0.436900  0.519500  1
  O  O1020  1  0.301400  0.563100  0.480500  1
  O  O1021  1  0.784500  0.433600  0.453200  1
  O  O1022  1  0.215500  0.566400  0.546800  1
  O  O1023  1  0.702900  0.524600  0.470100  1
  O  O1024  1  0.297100  0.475400  0.529900  1
  O  O1025  1  0.790000  0.482300  0.516500  1
  O  O1026  1  0.210000  0.517700  0.483500  1
  O  O1027  1  0.969000  0.311500  0.094800  1
  O  O1028  1  0.031000  0.688500  0.905200  1
  O  O1029  1  0.886600  0.285600  0.049100  1
  O  O1030  1  0.113400  0.714400  0.950900  1
  O  O1031  1  0.885500  0.386500  0.055600  1
  O  O1032  1  0.114500  0.613500  0.944400  1
  O  O1033  1  0.845300  0.332500  0.127100  1
  O  O1034  1  0.154700  0.667500  0.872900  1
  O  O1035  1  0.229700  0.138700  0.956900  1
  O  O1036  1  0.770300  0.861300  0.043100  1
  O  O1037  1  0.152100  0.126800  0.029300  1
  O  O1038  1  0.847900  0.873200  0.970700  1
  O  O1039  1  0.222600  0.202500  0.016100  1
  O  O1040  1  0.777400  0.797500  0.983900  1
  O  O1041  1  0.277500  0.095300  0.027300  1
  O  O1042  1  0.722500  0.904700  0.972700  1
  O  O1043  1  0.409200  0.763100  0.097800  1
  O  O1044  1  0.590800  0.236900  0.902200  1
  O  O1045  1  0.389000  0.674300  0.077300  1
  O  O1046  1  0.611000  0.325700  0.922700  1
  O  O1047  1  0.496800  0.695200  0.090700  1
  O  O1048  1  0.503200  0.304800  0.909300  1
  O  O1049  1  0.463900  0.731800  0.019000  1
  O  O1050  1  0.536100  0.268200  0.981000  1
  O  O1051  1  0.189000  0.938100  0.959700  1
  O  O1052  1  0.811000  0.061900  0.040300  1
  O  O1053  1  0.137500  0.880600  0.921100  1
  O  O1054  1  0.862500  0.119400  0.078900  1
  O  O1055  1  0.176000  0.965800  0.881600  1
  O  O1056  1  0.824000  0.034200  0.118400  1
  O  O1057  1  0.256100  0.875500  0.905900  1
  O  O1058  1  0.743900  0.124500  0.094100  1
  O  O1059  1  0.908000  0.466400  0.106100  1
  O  O1060  1  0.092000  0.533600  0.893900  1
  O  O1061  1  0.040900  0.761200  0.163400  1
  O  O1062  1  0.959100  0.238800  0.836600  1
  O  O1063  1  0.740900  0.254900  0.094100  1
  O  O1064  1  0.259100  0.745100  0.905900  1
  O  O1065  1  0.934300  0.480700  0.492700  1
  O  O1066  1  0.065700  0.519300  0.507300  1
  O  O1067  1  0.607700  0.712700  0.105000  1
  O  O1068  1  0.392300  0.287300  0.895000  1
  O  O1069  1  0.631000  0.849700  0.102100  1
  O  O1070  1  0.369000  0.150300  0.897900  1
  O  O1071  1  0.373000  0.278000  0.036000  1
  O  O1072  1  0.627000  0.722000  0.964000  1
  O  O1073  1  0.397000  0.207000  0.998000  1
  O  O1074  1  0.603000  0.793000  0.002000  1
  O  O1075  1  0.027000  0.842000  0.987000  1
  O  O1076  1  0.973000  0.158000  0.013000  1
  O  O1077  1  0.124000  0.028000  0.932000  1
  O  O1078  1  0.876000  0.972000  0.068000  1
  O  O1079  1  0.472900  0.192400  0.098800  1
  O  O1080  1  0.527100  0.807600  0.901200  1
  O  O1081  1  0.076200  0.343900  0.445100  1
  O  O1082  1  0.923800  0.656100  0.554900  1
  O  O1083  1  0.197600  0.339800  0.425800  1
  O  O1084  1  0.802400  0.660200  0.574200  1
  O  O1085  1  0.127800  0.410200  0.476300  1
  O  O1086  1  0.872200  0.589800  0.523700  1
  O  O1087  1  0.852000  0.285600  0.400200  1
  O  O1088  1  0.148000  0.714400  0.599800  1
  O  O1089  1  0.945100  0.212000  0.430000  1
  O  O1090  1  0.054900  0.788000  0.570000  1
  O  O1091  1  0.831000  0.228000  0.473600  1
  O  O1092  1  0.169000  0.772000  0.526400  1
  O  O1093  1  0.856000  0.182200  0.404600  1
  O  O1094  1  0.144000  0.817800  0.595400  1
  O  O1095  1  0.948000  0.574700  0.146200  1
  O  O1096  1  0.052000  0.425300  0.853800  1
  O  O1097  1  0.942900  0.604800  0.223100  1
  O  O1098  1  0.057100  0.395200  0.776900  1
  O  O1099  1  0.017000  0.632700  0.156800  1
  O  O1100  1  0.983000  0.367300  0.843200  1
  O  O1101  1  0.809400  0.425500  0.481500  1
  O  O1102  1  0.190600  0.574500  0.518500  1
  O  O1103  1  0.747300  0.527700  0.488300  1
  O  O1104  1  0.252700  0.472300  0.511700  1
  O  O1105  1  0.709500  0.469800  0.445100  1
  O  O1106  1  0.290500  0.530200  0.554900  1
  O  O1107  1  0.157500  0.125200  0.043400  1
  O  O1108  1  0.842500  0.874800  0.956600  1
  O  O1109  1  0.142300  0.223800  0.000700  1
  O  O1110  1  0.857700  0.776200  0.999300  1
  O  O1111  1  0.191600  0.136500  0.960700  1
  O  O1112  1  0.808400  0.863500  0.039300  1
  O  O1113  1  0.258200  0.166500  0.014900  1
  O  O1114  1  0.741800  0.833500  0.985100  1
  O  O1115  1  0.502800  0.689200  0.048600  1
  O  O1116  1  0.497200  0.310800  0.951400  1
  O  O1117  1  0.405900  0.758900  0.023700  1
  O  O1118  1  0.594100  0.241100  0.976300  1
  O  O1119  1  0.287900  0.005500  0.771300  1
  O  O1120  1  0.712100  0.994500  0.228700  1
  O  O1121  1  0.350500  0.928600  0.821400  1
  O  O1122  1  0.649500  0.071400  0.178600  1
  O  O1123  1  0.252000  0.993800  0.851400  1
  O  O1124  1  0.748000  0.006200  0.148600  1
  O  O1125  1  0.350800  0.031100  0.822800  1
  O  O1126  1  0.649200  0.968900  0.177200  1
  O  O1127  1  0.341000  0.280400  0.990800  1
  O  O1128  1  0.659000  0.719600  0.009200  1
