
#######################################################################
#
#                 Cambridge Crystallographic Data Centre
#                                CCDC 
#
#######################################################################
#
# If this CIF has been generated from an entry in the Cambridge 
# Structural Database, then it will include bibliographic, chemical, 
# crystal, experimental, refinement or atomic coordinate data resulting 
# from the CCDC's data processing and validation procedures.
#
#######################################################################

data_RUWMON
_chemical_formula_moiety         
'C180 H146 N30 O16 Zn9 12+,10(C2 F6 N1 O4 S2 1-),2(C1 F3 O3 S1 1-)'
_chemical_name_systematic        
"pentakis(\m-3,3':6',2'':5'',3'''-quaterpyridine-6,6'''-diylbis(N-(4-methoxyphenyl)methanimine))-hexakis(\m-hydroxy)-nona-zinc decakis(bis((trifluoromethyl)sulfonyl)azanide) bis(trifluoromethanesulfonate) unknown solvate"
_symmetry_cell_setting           hexagonal
_symmetry_space_group_name_H-M   'P 61 2 2'
_symmetry_Int_Tables_number      178
_space_group_name_Hall           "P 61 2' (0,0,5)"
loop_
_symmetry_equiv_pos_site_id
_symmetry_equiv_pos_as_xyz
1 x,y,z
2 x-y,x,1/6+z
3 -y,x-y,1/3+z
4 -x,-y,1/2+z
5 -x+y,-x,2/3+z
6 y,-x+y,5/6+z
7 -y,-x,5/6-z
8 x-y,-y,-z
9 x,x-y,1/6-z
10 y,x,1/3-z
11 -x+y,y,1/2-z
12 -x,-x+y,2/3-z
_cell_length_a                   36.800(17)
_cell_length_b                   36.800(17)
_cell_length_c                   35.22(2)
_cell_angle_alpha                90
_cell_angle_beta                 90
_cell_angle_gamma                120
_cell_volume                     41306.2
_exptl_crystal_colour            yellow
_exptl_crystal_description       needle
_cell_formula_units_Z            6
_exptl_crystal_recrystallization_method 'acetonitrile/diethyl ether'
loop_
_atom_site_label
_atom_site_type_symbol
_atom_site_fract_x
_atom_site_fract_y
_atom_site_fract_z
Zn1 Zn 0.43536(12) 0.21111(13) 0.27795(12)
Zn2 Zn 0.37941(14) 0.20718(14) 0.36158(13)
Zn3 Zn 0.76061(13) 0.68258(13) 0.41756(13)
Zn4 Zn 0.60531(11) 0.45289(12) 0.32628(12)
Zn5 Zn 0.59373(8) 0.40627(8) 0.4167
O1 O 0.3930(6) 0.2121(6) 0.3096(6)
H1 H 0.3783 0.2149 0.2909
O2 O 0.3444(6) 0.2317(6) 0.3749(5)
H2 H 0.3527 0.2512 0.3568
O3 O 0.5880(6) 0.4349(7) 0.3781(5)
H3 H 0.5610 0.4192 0.3721
O4 O 0.8919(10) 0.9025(9) 0.4281(9)
O5 O 0.2733(7) 0.0116(7) 0.3252(7)
N1 N 0.8154(8) 0.7331(8) 0.3902(8)
N2 N 0.7750(7) 0.6479(7) 0.3753(6)
N3 N 0.6729(7) 0.4850(7) 0.3237(6)
N4 N 0.6190(6) 0.4035(7) 0.3144(6)
N5 N 0.4932(7) 0.2328(7) 0.3041(7)
N6 N 0.4280(7) 0.1539(7) 0.3057(7)
C1 C 0.8346(10) 0.7772(8) 0.3975(7)
C2 C 0.8099(10) 0.7960(10) 0.4017(10)
H4 H 0.7804 0.7794 0.3980
C3 C 0.8271(11) 0.8381(10) 0.4112(10)
H5 H 0.8098 0.8503 0.4143
C4 C 0.8705(11) 0.8618(9) 0.4162(8)
C5 C 0.8958(11) 0.8441(10) 0.4103(10)
H6 H 0.9254 0.8609 0.4127
C6 C 0.8779(10) 0.8021(10) 0.4010(9)
H7 H 0.8953 0.7902 0.3969
C7 C 0.8696(14) 0.9242(14) 0.4364(16)
H8 H 0.8643 0.9349 0.4128
H9 H 0.8864 0.9477 0.4535
H10 H 0.8428 0.9048 0.4485
C8 C 0.8289(9) 0.7188(8) 0.3644(8)
H11 H 0.8529 0.7382 0.3503
C9 C 0.8093(7) 0.6740(7) 0.3551(6)
C10 C 0.8240(9) 0.6591(8) 0.3262(8)
H12 H 0.8488 0.6782 0.3130
C11 C 0.8034(8) 0.6171(8) 0.3162(8)
H13 H 0.8130 0.6073 0.2957
C12 C 0.7679(7) 0.5896(7) 0.3370(7)
C13 C 0.7562(7) 0.6068(8) 0.3663(6)
H14 H 0.7329 0.5880 0.3814
C14 C 0.6989(7) 0.5258(7) 0.3287(6)
H15 H 0.6872 0.5430 0.3344
C15 C 0.7422(7) 0.5447(7) 0.3260(6)
C16 C 0.7582(7) 0.5191(7) 0.3167(6)
H16 H 0.7876 0.5309 0.3134
C17 C 0.7320(7) 0.4767(7) 0.3122(7)
H17 H 0.7433 0.4591 0.3063
C18 C 0.6888(6) 0.4598(6) 0.3162(6)
C19 C 0.6595(6) 0.4141(6) 0.3114(6)
C20 C 0.6721(8) 0.3846(7) 0.3072(8)
H18 H 0.7009 0.3934 0.3039
C21 C 0.6423(7) 0.3419(8) 0.3078(7)
H19 H 0.6510 0.3216 0.3056
C22 C 0.6001(7) 0.3292(7) 0.3117(6)
C23 C 0.5917(8) 0.3620(7) 0.3134(7)
H20 H 0.5628 0.3541 0.3140
C24 C 0.5256(7) 0.2719(8) 0.3016(8)
H21 H 0.5200 0.2928 0.2919
C25 C 0.5666(7) 0.2847(7) 0.3121(7)
C26 C 0.5725(8) 0.2532(7) 0.3273(7)
H22 H 0.5997 0.2600 0.3358
C27 C 0.5400(7) 0.2122(8) 0.3304(7)
H23 H 0.5447 0.1910 0.3406
C28 C 0.5004(7) 0.2029(7) 0.3182(6)
C29 C 0.4629(8) 0.1611(7) 0.3187(8)
H24 H 0.4649 0.1385 0.3294
C30 C 0.3900(7) 0.1163(7) 0.3126(7)
C31 C 0.3858(9) 0.0877(8) 0.3400(8)
H25 H 0.4090 0.0928 0.3556
C32 C 0.3476(9) 0.0515(9) 0.3448(8)
H26 H 0.3446 0.0316 0.3635
C33 C 0.3139(8) 0.0441(8) 0.3223(8)
C34 C 0.3184(8) 0.0729(8) 0.2947(8)
H27 H 0.2951 0.0678 0.2794
C35 C 0.3565(8) 0.1091(8) 0.2894(7)
H28 H 0.3598 0.1287 0.2702
C36 C 0.2659(13) -0.0168(11) 0.3564(10)
H29 H 0.2471 -0.0457 0.3481
H30 H 0.2531 -0.0101 0.3776
H31 H 0.2927 -0.0140 0.3647
O6 O 0.3977(12) 0.0460(11) 0.1469(10)
O7 O 0.8485(14) 0.8604(11) 0.5422(12)
N7 N 0.4307(9) 0.1917(8) 0.2198(8)
N8 N 0.4510(6) 0.2693(7) 0.2456(7)
N9 N 0.5524(6) 0.4338(6) 0.2893(6)
N10 N 0.5952(6) 0.5062(7) 0.3278(6)
N11 N 0.6995(7) 0.6615(7) 0.4041(6)
N12 N 0.7394(8) 0.7207(7) 0.4571(7)
C37 C 0.4235(10) 0.1528(8) 0.2042(8)
C38 C 0.4480(10) 0.1349(10) 0.2135(9)
H32 H 0.4691 0.1475 0.2324
C39 C 0.4415(11) 0.0988(10) 0.1950(10)
H33 H 0.4583 0.0865 0.2006
C40 C 0.4097(11) 0.0813(10) 0.1682(9)
C41 C 0.3845(12) 0.0977(11) 0.1593(10)
H34 H 0.3628 0.0845 0.1410
C42 C 0.3913(11) 0.1339(10) 0.1775(10)
H35 H 0.3742 0.1458 0.1719
C43 C 0.4214(18) 0.0255(17) 0.1524(17)
H36 H 0.4103 0.0007 0.1360
H37 H 0.4509 0.0448 0.1460
H38 H 0.4194 0.0168 0.1790
C44 C 0.4332(9) 0.2196(8) 0.1953(9)
H39 H 0.4289 0.2128 0.1690
C45 C 0.4427(7) 0.2612(8) 0.2083(7)
C46 C 0.4464(9) 0.2922(8) 0.1834(8)
H40 H 0.4383 0.2854 0.1576
C47 C 0.4620(9) 0.3328(9) 0.1961(8)
H41 H 0.4641 0.3540 0.1793
C48 C 0.4745(7) 0.3425(7) 0.2337(7)
C49 C 0.4671(7) 0.3092(8) 0.2570(8)
H42 H 0.4740 0.3150 0.2832
C50 C 0.5311(7) 0.3969(8) 0.2722(7)
H43 H 0.5400 0.3769 0.2758
C51 C 0.4965(7) 0.3860(7) 0.2494(6)
C52 C 0.4856(8) 0.4168(8) 0.2442(8)
H44 H 0.4629 0.4112 0.2278
C53 C 0.5068(7) 0.4550(8) 0.2622(7)
H45 H 0.4985 0.4755 0.2591
C54 C 0.5406(6) 0.4628(6) 0.2850(6)
C55 C 0.5644(6) 0.5035(6) 0.3055(6)
C56 C 0.5555(8) 0.5361(7) 0.3024(8)
H46 H 0.5352 0.5346 0.2849
C57 C 0.5773(7) 0.5706(8) 0.3257(7)
H47 H 0.5712 0.5928 0.3247
C58 C 0.6083(6) 0.5738(6) 0.3508(6)
C59 C 0.6158(7) 0.5405(7) 0.3493(7)
H48 H 0.6376 0.5422 0.3650
C60 C 0.6749(7) 0.6291(7) 0.3816(7)
H49 H 0.6885 0.6159 0.3696
C61 C 0.6329(7) 0.6120(7) 0.3732(6)
C62 C 0.6133(8) 0.6310(8) 0.3919(7)
H50 H 0.5844 0.6211 0.3875
C63 C 0.6355(8) 0.6640(8) 0.4166(7)
H51 H 0.6224 0.6770 0.4296
C64 C 0.6779(8) 0.6774(7) 0.4215(6)
C65 C 0.7021(9) 0.7108(8) 0.4491(7)
H52 H 0.6896 0.7251 0.4611
C66 C 0.7669(9) 0.7542(9) 0.4810(8)
C67 C 0.8053(10) 0.7599(11) 0.4930(10)
H53 H 0.8128 0.7392 0.4873
C68 C 0.8327(11) 0.7950(11) 0.5131(11)
H54 H 0.8589 0.7984 0.5212
C69 C 0.8225(11) 0.8253(11) 0.5217(10)
C70 C 0.7845(12) 0.8203(11) 0.5096(12)
H55 H 0.7776 0.8413 0.5152
C71 C 0.7565(11) 0.7850(11) 0.4895(11)
H56 H 0.7304 0.7817 0.4816
C72 C 0.829(3) 0.883(3) 0.559(3)
H57 H 0.7994 0.8632 0.5642
H58 H 0.8314 0.9046 0.5413
H59 H 0.8434 0.8962 0.5828
O8 O 0.1761(11) 0.0414(12) 0.3497(10)
N13 N 0.3442(9) 0.1470(8) 0.3880(9)
N14 N 0.4265(9) 0.2057(9) 0.3931(8)
N15 N 0.5827(8) 0.3450(8) 0.4181(6)
C73 C 0.3017(9) 0.1171(10) 0.3811(10)
C74 C 0.2853(11) 0.1240(10) 0.3482(10)
H60 H 0.3033 0.1477 0.3331
C75 C 0.2448(11) 0.0989(11) 0.3360(10)
H61 H 0.2354 0.1049 0.3129
C76 C 0.2181(11) 0.0649(10) 0.3576(11)
C77 C 0.2340(11) 0.0573(11) 0.3899(11)
H62 H 0.2159 0.0332 0.4044
C78 C 0.2748(11) 0.0825(10) 0.4028(10)
H63 H 0.2841 0.0762 0.4258
C79 C 0.1529(18) 0.0040(15) 0.3708(16)
H64 H 0.1699 0.0037 0.3921
H65 H 0.1453 -0.0202 0.3544
H66 H 0.1273 0.0026 0.3806
C80 C 0.3683(9) 0.1391(10) 0.4061(10)
H67 H 0.3570 0.1124 0.4179
C81 C 0.4134(9) 0.1686(9) 0.4104(8)
C82 C 0.4412(10) 0.1612(10) 0.4312(9)
H68 H 0.4320 0.1346 0.4425
C83 C 0.4824(10) 0.1932(9) 0.4352(9)
H69 H 0.5012 0.1885 0.4501
C84 C 0.4969(8) 0.2318(8) 0.4180(8)
C85 C 0.4668(9) 0.2353(10) 0.3968(8)
H70 H 0.4757 0.2611 0.3839
C86 C 0.5457(9) 0.3094(8) 0.4196(7)
H71 H 0.5214 0.3120 0.4203
C87 C 0.5395(8) 0.2689(8) 0.4203(7)
C88 C 0.5750(9) 0.2654(9) 0.4215(9)
H72 H 0.5731 0.2388 0.4234
C89 C 0.6134(9) 0.3019(9) 0.4198(9)
H73 H 0.6382 0.2999 0.4201
C90 C 0.6172(8) 0.3412(8) 0.4177(8)
O8F O 0.9586(12) 0.8239(11) 0.4836(10)
N13F N 0.8530(8) 0.6558(9) 0.4453(9)
N14F N 0.7943(9) 0.5735(9) 0.4402(8)
N15F N 0.6550(8) 0.4173(8) 0.4152(6)
C73F C 0.8829(10) 0.6983(9) 0.4522(10)
C74F C 0.8760(10) 0.7147(11) 0.4851(10)
H60F H 0.8523 0.6967 0.5002
C75F C 0.9011(11) 0.7552(11) 0.4973(10)
H61F H 0.8951 0.7646 0.5204
C76F C 0.9351(10) 0.7819(11) 0.4757(11)
C77F C 0.9427(11) 0.7660(11) 0.4434(11)
H62F H 0.9668 0.7841 0.4289
C78F C 0.9175(10) 0.7252(11) 0.4305(10)
H63F H 0.9238 0.7159 0.4075
C79F C 0.9960(15) 0.8471(18) 0.4625(16)
H64F H 0.9963 0.8301 0.4412
H65F H 1.0202 0.8547 0.4789
H66F H 0.9974 0.8727 0.4527
C80F C 0.8609(10) 0.6317(9) 0.4272(10)
H67F H 0.8876 0.6430 0.4154
C81F C 0.8314(9) 0.5866(9) 0.4229(8)
C82F C 0.8388(10) 0.5588(10) 0.4021(9)
H68F H 0.8654 0.5680 0.3908
C83F C 0.8068(9) 0.5176(10) 0.3981(9)
H69F H 0.8115 0.4988 0.3832
C84F C 0.7682(8) 0.5031(8) 0.4153(8)
C85F C 0.7647(10) 0.5332(9) 0.4365(8)
H70F H 0.7389 0.5243 0.4494
C86F C 0.6906(8) 0.4543(9) 0.4137(7)
H71F H 0.6880 0.4786 0.4130
C87F C 0.7311(8) 0.4605(8) 0.4130(7)
C88F C 0.7346(9) 0.4250(9) 0.4118(9)
H72F H 0.7612 0.4269 0.4099
C89F C 0.6981(9) 0.3866(9) 0.4135(9)
H73F H 0.7001 0.3618 0.4132
C90F C 0.6588(8) 0.3828(8) 0.4156(8)
Zn1F Zn 0.78889(13) 0.56464(12) 0.55538(12)
Zn2F Zn 0.79282(14) 0.62059(14) 0.47175(13)
Zn3F Zn 0.31742(13) 0.23939(13) 0.41577(13)
Zn4F Zn 0.54711(12) 0.39469(11) 0.50705(12)
O1F O 0.7879(6) 0.6070(6) 0.5237(6)
H1F H 0.7851 0.6217 0.5424
O2F O 0.7683(6) 0.6556(6) 0.4584(5)
H2F H 0.7488 0.6473 0.4765
O3F O 0.5651(7) 0.4120(6) 0.4552(5)
H3F H 0.5808 0.4390 0.4612
O4F O 0.0975(9) 0.1081(10) 0.4052(9)
O5F O 0.9884(7) 0.7267(7) 0.5081(7)
N1F N 0.2669(8) 0.1846(8) 0.4431(8)
N2F N 0.3521(7) 0.2250(7) 0.4580(6)
N3F N 0.5150(7) 0.3271(7) 0.5096(6)
N4F N 0.5965(7) 0.3810(6) 0.5189(6)
N5F N 0.7672(7) 0.5068(7) 0.5292(7)
N6F N 0.8461(7) 0.5720(7) 0.5276(7)
C1F C 0.2228(8) 0.1654(10) 0.4358(7)
C2F C 0.2040(10) 0.1901(10) 0.4316(10)
H4F H 0.2206 0.2196 0.4353
C3F C 0.1619(10) 0.1729(11) 0.4221(10)
H5F H 0.1497 0.1902 0.4190
C4F C 0.1382(9) 0.1295(11) 0.4171(8)
C5F C 0.1559(10) 0.1042(11) 0.4230(10)
H6F H 0.1391 0.0746 0.4206
C6F C 0.1979(10) 0.1221(10) 0.4323(9)
H7F H 0.2098 0.1047 0.4364
C7F C 0.0758(14) 0.1304(14) 0.3969(16)
H8F H 0.0651 0.1357 0.4205
H9F H 0.0523 0.1136 0.3798
H10F H 0.0952 0.1572 0.3848
C8F C 0.2812(8) 0.1711(9) 0.4689(8)
H11F H 0.2618 0.1471 0.4830
C9F C 0.3260(7) 0.1907(7) 0.4782(6)
C10F C 0.3409(8) 0.1760(9) 0.5071(8)
H12F H 0.3218 0.1512 0.5203
C11F C 0.3829(8) 0.1966(8) 0.5171(8)
H13F H 0.3927 0.1870 0.5376
C12F C 0.4104(7) 0.2321(7) 0.4963(7)
C13F C 0.3932(8) 0.2438(7) 0.4670(6)
H14F H 0.4120 0.2671 0.4519
C14F C 0.4742(7) 0.3011(7) 0.5046(6)
H15F H 0.4570 0.3128 0.4989
C15F C 0.4553(7) 0.2578(7) 0.5073(6)
C16F C 0.4809(7) 0.2418(7) 0.5166(6)
H16F H 0.4691 0.2124 0.5199
C17F C 0.5233(7) 0.2680(7) 0.5211(7)
H17F H 0.5409 0.2567 0.5270
C18F C 0.5402(6) 0.3112(6) 0.5171(6)
C19F C 0.5859(6) 0.3405(6) 0.5219(6)
C20F C 0.6154(7) 0.3279(8) 0.5261(8)
H18F H 0.6066 0.2991 0.5294
C21F C 0.6581(8) 0.3577(7) 0.5255(7)
H19F H 0.6784 0.3490 0.5277
C22F C 0.6708(7) 0.3999(7) 0.5216(6)
C23F C 0.6380(7) 0.4083(8) 0.5199(7)
H20F H 0.6459 0.4372 0.5193
C24F C 0.7281(8) 0.4744(7) 0.5317(8)
H21F H 0.7072 0.4800 0.5414
C25F C 0.7153(7) 0.4334(7) 0.5212(7)
C26F C 0.7468(7) 0.4275(8) 0.5060(7)
H22F H 0.7400 0.4003 0.4975
C27F C 0.7878(8) 0.4600(7) 0.5029(7)
H23F H 0.8090 0.4553 0.4927
C28F C 0.7971(7) 0.4996(7) 0.5151(6)
C29F C 0.8389(7) 0.5371(8) 0.5146(8)
H24F H 0.8615 0.5351 0.5039
C30F C 0.8837(7) 0.6100(7) 0.5207(7)
C31F C 0.9123(8) 0.6142(9) 0.4933(8)
H25F H 0.9072 0.5910 0.4777
C32F C 0.9485(9) 0.6524(9) 0.4885(8)
H26F H 0.9684 0.6554 0.4698
C33F C 0.9559(8) 0.6861(8) 0.5110(8)
C34F C 0.9271(8) 0.6816(8) 0.5386(8)
H27F H 0.9322 0.7049 0.5539
C35F C 0.8909(8) 0.6435(8) 0.5439(7)
H28F H 0.8713 0.6402 0.5631
C36F C 1.0168(11) 0.7341(13) 0.4769(10)
H29F H 1.0457 0.7529 0.4852
H30F H 1.0101 0.7469 0.4557
H31F H 1.0140 0.7073 0.4686
O6F O 0.9540(11) 0.6023(12) 0.6864(10)
O7F O 0.1396(11) 0.1515(14) 0.2911(12)
N7F N 0.8083(8) 0.5693(9) 0.6135(8)
N8F N 0.7307(7) 0.5490(6) 0.5877(7)
N9F N 0.5662(6) 0.4476(6) 0.5440(6)
N10F N 0.4938(7) 0.4048(6) 0.5055(6)
N11F N 0.3385(7) 0.3005(7) 0.4292(6)
N12F N 0.2793(7) 0.2606(8) 0.3762(7)
C37F C 0.8472(8) 0.5765(10) 0.6291(8)
C38F C 0.8651(10) 0.5520(10) 0.6198(9)
H32F H 0.8525 0.5309 0.6009
C39F C 0.9012(10) 0.5585(11) 0.6383(10)
H33F H 0.9135 0.5417 0.6327
C40F C 0.9187(10) 0.5903(11) 0.6651(9)
C41F C 0.9023(11) 0.6155(12) 0.6740(10)
H34F H 0.9155 0.6372 0.6923
C42F C 0.8661(10) 0.6087(11) 0.6558(10)
H35F H 0.8542 0.6258 0.6614
C43F C 0.9745(17) 0.5786(18) 0.6809(17)
H36F H 0.9993 0.5897 0.6973
H37F H 0.9552 0.5491 0.6873
H38F H 0.9832 0.5806 0.6543
C44F C 0.7804(8) 0.5668(9) 0.6380(9)
H39F H 0.7872 0.5711 0.6643
C45F C 0.7388(8) 0.5573(7) 0.6250(7)
C46F C 0.7078(8) 0.5536(9) 0.6499(8)
H40F H 0.7146 0.5617 0.6757
C47F C 0.6672(9) 0.5380(9) 0.6372(8)
H41F H 0.6460 0.5359 0.6540
C48F C 0.6575(7) 0.5255(7) 0.5996(7)
C49F C 0.6908(8) 0.5329(7) 0.5763(8)
H42F H 0.6850 0.5260 0.5501
C50F C 0.6031(8) 0.4689(7) 0.5611(7)
H43F H 0.6231 0.4600 0.5575
C51F C 0.6140(7) 0.5035(7) 0.5839(6)
C52F C 0.5832(8) 0.5144(8) 0.5891(8)
H44F H 0.5888 0.5371 0.6055
C53F C 0.5450(8) 0.4932(7) 0.5711(7)
H45F H 0.5245 0.5015 0.5742
C54F C 0.5372(6) 0.4594(6) 0.5483(6)
C55F C 0.4965(6) 0.4356(6) 0.5278(6)
C56F C 0.4639(7) 0.4445(8) 0.5309(8)
H46F H 0.4654 0.4648 0.5484
C57F C 0.4294(8) 0.4227(7) 0.5076(7)
H47F H 0.4072 0.4288 0.5086
C58F C 0.4262(6) 0.3917(6) 0.4825(6)
C59F C 0.4595(7) 0.3842(7) 0.4840(7)
H48F H 0.4578 0.3624 0.4683
C60F C 0.3709(7) 0.3251(7) 0.4517(7)
H49F H 0.3841 0.3115 0.4637
C61F C 0.3880(7) 0.3671(7) 0.4601(6)
C62F C 0.3690(8) 0.3867(8) 0.4414(7)
H50F H 0.3789 0.4156 0.4458
C63F C 0.3360(8) 0.3645(8) 0.4167(7)
H51F H 0.3230 0.3776 0.4037
C64F C 0.3226(7) 0.3221(8) 0.4118(6)
C65F C 0.2892(8) 0.2979(9) 0.3842(7)
H52F H 0.2749 0.3104 0.3722
C66F C 0.2458(9) 0.2331(9) 0.3523(8)
C67F C 0.2401(11) 0.1947(10) 0.3403(10)
H53F H 0.2608 0.1872 0.3460
C68F C 0.2050(11) 0.1673(11) 0.3202(11)
H54F H 0.2016 0.1411 0.3121
C69F C 0.1747(11) 0.1775(11) 0.3116(10)
C70F C 0.1797(11) 0.2155(12) 0.3237(12)
H55F H 0.1587 0.2224 0.3181
C71F C 0.2150(11) 0.2435(11) 0.3438(11)
H56F H 0.2183 0.2696 0.3517
C72F C 0.117(3) 0.171(3) 0.274(3)
H57F H 0.1368 0.2006 0.2691
H58F H 0.0954 0.1686 0.2920
H59F H 0.1038 0.1566 0.2505
S1 S 0.3572(5) 0.5923(5) 0.1303(4)
S2 S 0.2833(5) 0.5767(5) 0.1726(4)
N16 N 0.3273(7) 0.6062(8) 0.1519(9)
O9 O 0.3880(8) 0.6286(8) 0.1100(7)
O10 O 0.3318(9) 0.5541(7) 0.1095(8)
O11 O 0.2736(10) 0.5977(9) 0.2015(7)
O12 O 0.2778(11) 0.5364(8) 0.1836(9)
C92 C 0.3872(10) 0.5824(11) 0.1661(8)
C93 C 0.2423(9) 0.5630(12) 0.1374(8)
F1 F 0.4096(9) 0.6184(8) 0.1847(7)
F2 F 0.4115(9) 0.5725(9) 0.1465(7)
F3 F 0.3628(8) 0.5540(9) 0.1901(7)
F4 F 0.2051(9) 0.5514(10) 0.1520(9)
F5 F 0.2504(10) 0.5978(10) 0.1201(8)
F6 F 0.2479(10) 0.5439(10) 0.1084(8)
S3 S 0.5989(6) 0.7049(7) 0.0793(7)
S4 S 0.5183(8) 0.6516(8) 0.1106(7)
O13 O 0.5876(14) 0.7367(12) 0.0841(13)
O14 O 0.6112(13) 0.6993(14) 0.0419(9)
O15 O 0.4830(12) 0.6364(15) 0.0867(12)
O16 O 0.5344(15) 0.6834(12) 0.1390(12)
N17 N 0.5595(10) 0.6583(10) 0.0868(12)
C94 C 0.6456(10) 0.7218(13) 0.1083(10)
C95 C 0.5100(14) 0.6087(11) 0.1429(11)
F7 F 0.6743(13) 0.7612(12) 0.1013(12)
F8 F 0.6641(13) 0.6991(13) 0.1010(12)
F9 F 0.6389(13) 0.7208(13) 0.1453(10)
F10 F 0.5471(14) 0.6247(15) 0.1608(13)
F11 F 0.4818(14) 0.6008(15) 0.1697(12)
F12 F 0.5047(16) 0.5752(13) 0.1247(13)
S5 S 0.4681(4) 0.3341(4) 0.3760(4)
C96 C 0.4415(9) 0.3661(9) 0.3537(8)
O17 O 0.4342(11) 0.3004(12) 0.3941(12)
O18 O 0.5008(12) 0.3626(12) 0.4010(11)
O19 O 0.4907(13) 0.3292(14) 0.3445(10)
F13 F 0.4735(11) 0.4032(10) 0.3435(12)
F14 F 0.4161(13) 0.3669(15) 0.3774(10)
F15 F 0.4257(12) 0.3473(13) 0.3200(9)
loop_
_geom_bond_atom_site_label_1
_geom_bond_atom_site_label_2
_geom_bond_site_symmetry_1
_geom_bond_site_symmetry_2
Zn1 O1 1_555 1_555
Zn2 O1 1_555 1_555
Zn3 N1 1_555 1_555
Zn4 O3 1_555 1_555
Zn5 O3 1_555 1_555
O1 H1 1_555 1_555
O2 Zn2 1_555 1_555
H2 O2 1_555 1_555
O3 H3 1_555 1_555
O4 C4 1_555 1_555
O5 C33 1_555 1_555
N1 C1 1_555 1_555
N2 Zn3 1_555 1_555
N3 Zn4 1_555 1_555
N4 Zn4 1_555 1_555
N5 Zn1 1_555 1_555
N6 Zn1 1_555 1_555
C1 C2 1_555 1_555
C2 H4 1_555 1_555
C3 C2 1_555 1_555
H5 C3 1_555 1_555
C4 C3 1_555 1_555
C5 C4 1_555 1_555
H6 C5 1_555 1_555
C6 C1 1_555 1_555
H7 C6 1_555 1_555
C7 O4 1_555 1_555
H8 C7 1_555 1_555
H9 C7 1_555 1_555
H10 C7 1_555 1_555
C8 N1 1_555 1_555
H11 C8 1_555 1_555
C9 N2 1_555 1_555
C10 C9 1_555 1_555
H12 C10 1_555 1_555
C11 C10 1_555 1_555
H13 C11 1_555 1_555
C12 C11 1_555 1_555
C13 N2 1_555 1_555
H14 C13 1_555 1_555
C14 N3 1_555 1_555
H15 C14 1_555 1_555
C15 C12 1_555 1_555
C16 C15 1_555 1_555
H16 C16 1_555 1_555
C17 C16 1_555 1_555
H17 C17 1_555 1_555
C18 N3 1_555 1_555
C19 N4 1_555 1_555
C20 C19 1_555 1_555
H18 C20 1_555 1_555
C21 C20 1_555 1_555
H19 C21 1_555 1_555
C22 C21 1_555 1_555
C23 N4 1_555 1_555
H20 C23 1_555 1_555
C24 N5 1_555 1_555
H21 C24 1_555 1_555
C25 C22 1_555 1_555
C26 C25 1_555 1_555
H22 C26 1_555 1_555
C27 C26 1_555 1_555
H23 C27 1_555 1_555
C28 N5 1_555 1_555
C29 N6 1_555 1_555
H24 C29 1_555 1_555
C30 N6 1_555 1_555
C31 C30 1_555 1_555
H25 C31 1_555 1_555
C32 C31 1_555 1_555
H26 C32 1_555 1_555
C33 C32 1_555 1_555
C34 C33 1_555 1_555
H27 C34 1_555 1_555
C35 C30 1_555 1_555
H28 C35 1_555 1_555
C36 O5 1_555 1_555
H29 C36 1_555 1_555
H30 C36 1_555 1_555
H31 C36 1_555 1_555
O6 C40 1_555 1_555
O7 C69 1_555 1_555
N7 Zn1 1_555 1_555
N8 Zn1 1_555 1_555
N9 Zn4 1_555 1_555
N10 Zn4 1_555 1_555
N11 Zn3 1_555 1_555
N12 Zn3 1_555 1_555
C37 N7 1_555 1_555
C38 C37 1_555 1_555
H32 C38 1_555 1_555
C39 C38 1_555 1_555
H33 C39 1_555 1_555
C40 C39 1_555 1_555
C41 C40 1_555 1_555
H34 C41 1_555 1_555
C42 C37 1_555 1_555
H35 C42 1_555 1_555
C43 O6 1_555 1_555
H36 C43 1_555 1_555
H37 C43 1_555 1_555
H38 C43 1_555 1_555
C44 N7 1_555 1_555
H39 C44 1_555 1_555
C45 N8 1_555 1_555
C46 C45 1_555 1_555
H40 C46 1_555 1_555
C47 C46 1_555 1_555
H41 C47 1_555 1_555
C48 C47 1_555 1_555
C49 N8 1_555 1_555
H42 C49 1_555 1_555
C50 N9 1_555 1_555
H43 C50 1_555 1_555
C51 C48 1_555 1_555
C52 C51 1_555 1_555
H44 C52 1_555 1_555
C53 C52 1_555 1_555
H45 C53 1_555 1_555
C54 N9 1_555 1_555
C55 N10 1_555 1_555
C56 C55 1_555 1_555
H46 C56 1_555 1_555
C57 C56 1_555 1_555
H47 C57 1_555 1_555
C58 C57 1_555 1_555
C59 N10 1_555 1_555
H48 C59 1_555 1_555
C60 N11 1_555 1_555
H49 C60 1_555 1_555
C61 C58 1_555 1_555
C62 C61 1_555 1_555
H50 C62 1_555 1_555
C63 C62 1_555 1_555
H51 C63 1_555 1_555
C64 N11 1_555 1_555
C65 N12 1_555 1_555
H52 C65 1_555 1_555
C66 N12 1_555 1_555
C67 C66 1_555 1_555
H53 C67 1_555 1_555
C68 C67 1_555 1_555
H54 C68 1_555 1_555
C69 C68 1_555 1_555
C70 C69 1_555 1_555
H55 C70 1_555 1_555
C71 C66 1_555 1_555
H56 C71 1_555 1_555
C72 O7 1_555 1_555
H57 C72 1_555 1_555
H58 C72 1_555 1_555
H59 C72 1_555 1_555
O8 C76 1_555 1_555
N13 Zn2 1_555 1_555
N14 Zn2 1_555 1_555
N15 Zn5 1_555 1_555
C73 N13 1_555 1_555
C74 C73 1_555 1_555
H60 C74 1_555 1_555
C75 C74 1_555 1_555
H61 C75 1_555 1_555
C76 C75 1_555 1_555
C77 C76 1_555 1_555
H62 C77 1_555 1_555
C78 C73 1_555 1_555
H63 C78 1_555 1_555
C79 O8 1_555 1_555
H64 C79 1_555 1_555
H65 C79 1_555 1_555
H66 C79 1_555 1_555
C80 N13 1_555 1_555
H67 C80 1_555 1_555
C81 N14 1_555 1_555
C82 C81 1_555 1_555
H68 C82 1_555 1_555
C83 C82 1_555 1_555
H69 C83 1_555 1_555
C84 C83 1_555 1_555
C85 N14 1_555 1_555
H70 C85 1_555 1_555
C86 N15 1_555 1_555
H71 C86 1_555 1_555
C87 C84 1_555 1_555
C88 C87 1_555 1_555
H72 C88 1_555 1_555
C89 C88 1_555 1_555
H73 C89 1_555 1_555
C90 N15 1_555 1_555
S1 N16 1_555 1_555
S2 N16 1_555 1_555
O9 S1 1_555 1_555
O10 S1 1_555 1_555
O11 S2 1_555 1_555
O12 S2 1_555 1_555
C92 S1 1_555 1_555
C93 S2 1_555 1_555
F1 C92 1_555 1_555
F2 C92 1_555 1_555
F3 C92 1_555 1_555
F4 C93 1_555 1_555
F5 C93 1_555 1_555
F6 C93 1_555 1_555
S3 O13 1_555 1_555
S4 O15 1_555 1_555
O14 S3 1_555 1_555
O16 S4 1_555 1_555
N17 S3 1_555 1_555
C94 S3 1_555 1_555
C95 S4 1_555 1_555
F7 C94 1_555 1_555
F8 C94 1_555 1_555
F9 C94 1_555 1_555
F10 C95 1_555 1_555
F11 C95 1_555 1_555
F12 C95 1_555 1_555
S5 C96 1_555 1_555
C96 F13 1_555 1_555
O17 S5 1_555 1_555
O18 S5 1_555 1_555
O19 S5 1_555 1_555
F14 C96 1_555 1_555
F15 C96 1_555 1_555
O8F C76F 1_555 1_555
N13F C73F 1_555 1_555
N14F C81F 1_555 1_555
N15F Zn5 1_555 1_555
C73F C74F 1_555 1_555
C74F H60F 1_555 1_555
C75F C74F 1_555 1_555
H61F C75F 1_555 1_555
C76F C75F 1_555 1_555
C77F C76F 1_555 1_555
H62F C77F 1_555 1_555
C78F C73F 1_555 1_555
H63F C78F 1_555 1_555
C79F O8F 1_555 1_555
H64F C79F 1_555 1_555
H65F C79F 1_555 1_555
H66F C79F 1_555 1_555
C80F N13F 1_555 1_555
H67F C80F 1_555 1_555
C81F C80F 1_555 1_555
C82F C81F 1_555 1_555
H68F C82F 1_555 1_555
C83F C82F 1_555 1_555
H69F C83F 1_555 1_555
C84F C83F 1_555 1_555
C85F N14F 1_555 1_555
H70F C85F 1_555 1_555
C86F N15F 1_555 1_555
H71F C86F 1_555 1_555
C87F C84F 1_555 1_555
C88F C87F 1_555 1_555
H72F C88F 1_555 1_555
C89F C88F 1_555 1_555
H73F C89F 1_555 1_555
C90F C90 1_555 1_555
Zn1F O1F 1_555 1_555
Zn2F N13F 1_555 1_555
Zn3F O2 1_555 1_555
Zn4F O3F 1_555 1_555
O1F Zn2F 1_555 1_555
H1F O1F 1_555 1_555
O2F Zn3 1_555 1_555
H2F O2F 1_555 1_555
O3F Zn5 1_555 1_555
H3F O3F 1_555 1_555
O4F C4F 1_555 1_555
O5F C33F 1_555 1_555
N1F Zn3F 1_555 1_555
N2F Zn3F 1_555 1_555
N3F Zn4F 1_555 1_555
N4F Zn4F 1_555 1_555
N5F Zn1F 1_555 1_555
N6F Zn1F 1_555 1_555
C1F N1F 1_555 1_555
C2F C1F 1_555 1_555
H4F C2F 1_555 1_555
C3F C2F 1_555 1_555
H5F C3F 1_555 1_555
C4F C3F 1_555 1_555
C5F C4F 1_555 1_555
H6F C5F 1_555 1_555
C6F C1F 1_555 1_555
H7F C6F 1_555 1_555
C7F O4F 1_555 1_555
H8F C7F 1_555 1_555
H9F C7F 1_555 1_555
H10F C7F 1_555 1_555
C8F N1F 1_555 1_555
H11F C8F 1_555 1_555
C9F N2F 1_555 1_555
C10F C9F 1_555 1_555
H12F C10F 1_555 1_555
C11F C10F 1_555 1_555
H13F C11F 1_555 1_555
C12F C11F 1_555 1_555
C13F N2F 1_555 1_555
H14F C13F 1_555 1_555
C14F N3F 1_555 1_555
H15F C14F 1_555 1_555
C15F C12F 1_555 1_555
C16F C15F 1_555 1_555
H16F C16F 1_555 1_555
C17F C16F 1_555 1_555
H17F C17F 1_555 1_555
C18F N3F 1_555 1_555
C19F N4F 1_555 1_555
C20F C19F 1_555 1_555
H18F C20F 1_555 1_555
C21F C20F 1_555 1_555
H19F C21F 1_555 1_555
C22F C21F 1_555 1_555
C23F N4F 1_555 1_555
H20F C23F 1_555 1_555
C24F N5F 1_555 1_555
H21F C24F 1_555 1_555
C25F C22F 1_555 1_555
C26F C25F 1_555 1_555
H22F C26F 1_555 1_555
C27F C26F 1_555 1_555
H23F C27F 1_555 1_555
C28F N5F 1_555 1_555
C29F N6F 1_555 1_555
H24F C29F 1_555 1_555
C30F N6F 1_555 1_555
C31F C30F 1_555 1_555
H25F C31F 1_555 1_555
C32F C31F 1_555 1_555
H26F C32F 1_555 1_555
C33F C32F 1_555 1_555
C34F C33F 1_555 1_555
H27F C34F 1_555 1_555
C35F C30F 1_555 1_555
H28F C35F 1_555 1_555
C36F O5F 1_555 1_555
H29F C36F 1_555 1_555
H30F C36F 1_555 1_555
H31F C36F 1_555 1_555
O6F C40F 1_555 1_555
O7F C69F 1_555 1_555
N7F Zn1F 1_555 1_555
N8F Zn1F 1_555 1_555
N9F Zn4F 1_555 1_555
N10F Zn4F 1_555 1_555
N11F Zn3F 1_555 1_555
N12F Zn3F 1_555 1_555
C37F N7F 1_555 1_555
C38F C37F 1_555 1_555
H32F C38F 1_555 1_555
C39F C38F 1_555 1_555
H33F C39F 1_555 1_555
C40F C39F 1_555 1_555
C41F C40F 1_555 1_555
H34F C41F 1_555 1_555
C42F C37F 1_555 1_555
H35F C42F 1_555 1_555
C43F O6F 1_555 1_555
H36F C43F 1_555 1_555
H37F C43F 1_555 1_555
H38F C43F 1_555 1_555
C44F N7F 1_555 1_555
H39F C44F 1_555 1_555
C45F N8F 1_555 1_555
C46F C45F 1_555 1_555
H40F C46F 1_555 1_555
C47F C46F 1_555 1_555
H41F C47F 1_555 1_555
C48F C47F 1_555 1_555
C49F N8F 1_555 1_555
H42F C49F 1_555 1_555
C50F N9F 1_555 1_555
H43F C50F 1_555 1_555
C51F C48F 1_555 1_555
C52F C51F 1_555 1_555
H44F C52F 1_555 1_555
C53F C52F 1_555 1_555
H45F C53F 1_555 1_555
C54F N9F 1_555 1_555
C55F N10F 1_555 1_555
C56F C55F 1_555 1_555
H46F C56F 1_555 1_555
C57F C56F 1_555 1_555
H47F C57F 1_555 1_555
C58F C57F 1_555 1_555
C59F N10F 1_555 1_555
H48F C59F 1_555 1_555
C60F N11F 1_555 1_555
H49F C60F 1_555 1_555
C61F C58F 1_555 1_555
C62F C61F 1_555 1_555
H50F C62F 1_555 1_555
C63F C62F 1_555 1_555
H51F C63F 1_555 1_555
C64F N11F 1_555 1_555
C65F N12F 1_555 1_555
H52F C65F 1_555 1_555
C66F N12F 1_555 1_555
C67F C66F 1_555 1_555
H53F C67F 1_555 1_555
C68F C67F 1_555 1_555
H54F C68F 1_555 1_555
C69F C68F 1_555 1_555
C70F C69F 1_555 1_555
H55F C70F 1_555 1_555
C71F C66F 1_555 1_555
H56F C71F 1_555 1_555
C72F O7F 1_555 1_555
H57F C72F 1_555 1_555
H58F C72F 1_555 1_555
H59F C72F 1_555 1_555
C5 C6 1_555 1_555
C8 C9 1_555 1_555
C12 C13 1_555 1_555
C14 C15 1_555 1_555
C17 C18 1_555 1_555
C18 C19 1_555 1_555
C22 C23 1_555 1_555
C24 C25 1_555 1_555
C27 C28 1_555 1_555
C28 C29 1_555 1_555
C34 C35 1_555 1_555
C41 C42 1_555 1_555
C44 C45 1_555 1_555
C48 C49 1_555 1_555
C50 C51 1_555 1_555
C53 C54 1_555 1_555
C54 C55 1_555 1_555
C58 C59 1_555 1_555
C60 C61 1_555 1_555
C63 C64 1_555 1_555
C64 C65 1_555 1_555
C70 C71 1_555 1_555
C77 C78 1_555 1_555
C80 C81 1_555 1_555
C84 C85 1_555 1_555
C86 C87 1_555 1_555
C89 C90 1_555 1_555
S4 N17 1_555 1_555
N14F Zn2F 1_555 1_555
N15F C90F 1_555 1_555
C77F C78F 1_555 1_555
C84F C85F 1_555 1_555
C86F C87F 1_555 1_555
C89F C90F 1_555 1_555
Zn2F O2F 1_555 1_555
C5F C6F 1_555 1_555
C8F C9F 1_555 1_555
C12F C13F 1_555 1_555
C14F C15F 1_555 1_555
C17F C18F 1_555 1_555
C18F C19F 1_555 1_555
C22F C23F 1_555 1_555
C24F C25F 1_555 1_555
C27F C28F 1_555 1_555
C28F C29F 1_555 1_555
C34F C35F 1_555 1_555
C41F C42F 1_555 1_555
C44F C45F 1_555 1_555
C48F C49F 1_555 1_555
C50F C51F 1_555 1_555
C53F C54F 1_555 1_555
C54F C55F 1_555 1_555
C58F C59F 1_555 1_555
C60F C61F 1_555 1_555
C63F C64F 1_555 1_555
C64F C65F 1_555 1_555
C70F C71F 1_555 1_555

#END
