# generated using pymatgen
data_Zn9H152C194S10N34(O11F9)4
_symmetry_space_group_name_H-M   'P 1'
_cell_length_a   35.22000000
_cell_length_b   36.80000000
_cell_length_c   36.80000000
_cell_angle_alpha   120.00000000
_cell_angle_beta   90.00000000
_cell_angle_gamma   90.00000000
_symmetry_Int_Tables_number   1
_chemical_formula_structural   Zn9H152C194S10N34(O11F9)4
_chemical_formula_sum   'Zn54 H912 C1164 S60 N204 O264 F216'
_cell_volume   41306.23587216
_cell_formula_units_Z   6
loop_
 _symmetry_equiv_pos_site_id
 _symmetry_equiv_pos_as_xyz
  1  'x, y, z'
loop_
 _atom_site_type_symbol
 _atom_site_label
 _atom_site_symmetry_multiplicity
 _atom_site_fract_x
 _atom_site_fract_y
 _atom_site_fract_z
 _atom_site_occupancy
  Zn  Zn1  1  0.583300  0.406270  0.812540  1
  Zn  Zn2  1  0.416633  0.812540  0.406270  1
  Zn  Zn3  1  0.249967  0.406270  0.593730  1
  Zn  Zn4  1  0.083300  0.593730  0.187460  1
  Zn  Zn5  1  0.916633  0.187460  0.593730  1
  Zn  Zn6  1  0.749967  0.593730  0.406270  1
  Zn  Zn7  1  0.722050  0.564640  0.775750  1.0
  Zn  Zn8  1  0.555383  0.775750  0.211110  1.0
  Zn  Zn9  1  0.388717  0.211110  0.435360  1.0
  Zn  Zn10  1  0.222050  0.435360  0.224250  1.0
  Zn  Zn11  1  0.055383  0.224250  0.788890  1.0
  Zn  Zn12  1  0.888717  0.788890  0.564640  1.0
  Zn  Zn13  1  0.444617  0.211110  0.775750  1.0
  Zn  Zn14  1  0.277950  0.775750  0.564640  1.0
  Zn  Zn15  1  0.111283  0.564640  0.788890  1.0
  Zn  Zn16  1  0.944617  0.788890  0.224250  1.0
  Zn  Zn17  1  0.777950  0.224250  0.435360  1.0
  Zn  Zn18  1  0.611283  0.435360  0.211110  1.0
  Zn  Zn19  1  0.638420  0.620590  0.827770  1.0
  Zn  Zn20  1  0.471753  0.827770  0.207180  1.0
  Zn  Zn21  1  0.305087  0.207180  0.379410  1.0
  Zn  Zn22  1  0.138420  0.379410  0.172230  1.0
  Zn  Zn23  1  0.971753  0.172230  0.792820  1.0
  Zn  Zn24  1  0.805087  0.792820  0.620590  1.0
  Zn  Zn25  1  0.528247  0.207180  0.827770  1.0
  Zn  Zn26  1  0.361580  0.827770  0.620590  1.0
  Zn  Zn27  1  0.194913  0.620590  0.792820  1.0
  Zn  Zn28  1  0.028247  0.792820  0.172230  1.0
  Zn  Zn29  1  0.861580  0.172230  0.379410  1.0
  Zn  Zn30  1  0.694913  0.379410  0.207180  1.0
  Zn  Zn31  1  0.582440  0.239390  0.921970  1.0
  Zn  Zn32  1  0.415773  0.921970  0.682580  1.0
  Zn  Zn33  1  0.249107  0.682580  0.760610  1.0
  Zn  Zn34  1  0.082440  0.760610  0.078030  1.0
  Zn  Zn35  1  0.915773  0.078030  0.317420  1.0
  Zn  Zn36  1  0.749107  0.317420  0.239390  1.0
  Zn  Zn37  1  0.584227  0.682580  0.921970  1.0
  Zn  Zn38  1  0.417560  0.921970  0.239390  1.0
  Zn  Zn39  1  0.250893  0.239390  0.317420  1.0
  Zn  Zn40  1  0.084227  0.317420  0.078030  1.0
  Zn  Zn41  1  0.917560  0.078030  0.760610  1.0
  Zn  Zn42  1  0.750893  0.760610  0.682580  1.0
  Zn  Zn43  1  0.673720  0.394690  0.847580  1.0
  Zn  Zn44  1  0.507053  0.847580  0.452890  1.0
  Zn  Zn45  1  0.340387  0.452890  0.605310  1.0
  Zn  Zn46  1  0.173720  0.605310  0.152420  1.0
  Zn  Zn47  1  0.007053  0.152420  0.547110  1.0
  Zn  Zn48  1  0.840387  0.547110  0.394690  1.0
  Zn  Zn49  1  0.492947  0.452890  0.847580  1.0
  Zn  Zn50  1  0.326280  0.847580  0.394690  1.0
  Zn  Zn51  1  0.159613  0.394690  0.547110  1.0
  Zn  Zn52  1  0.992947  0.547110  0.152420  1.0
  Zn  Zn53  1  0.826280  0.152420  0.605310  1.0
  Zn  Zn54  1  0.659613  0.605310  0.452890  1.0
  H  H55  1  0.427600  0.115800  0.960400  1
  H  H56  1  0.260933  0.960400  0.844600  1
  H  H57  1  0.094267  0.844600  0.884200  1
  H  H58  1  0.927600  0.884200  0.039600  1
  H  H59  1  0.760933  0.039600  0.155400  1
  H  H60  1  0.594267  0.155400  0.115800  1
  H  H61  1  0.739067  0.844600  0.960400  1
  H  H62  1  0.572400  0.960400  0.115800  1
  H  H63  1  0.405733  0.115800  0.155400  1
  H  H64  1  0.239067  0.155400  0.039600  1
  H  H65  1  0.072400  0.039600  0.884200  1
  H  H66  1  0.905733  0.884200  0.844600  1
  H  H67  1  0.434100  0.095100  0.989200  1
  H  H68  1  0.267433  0.989200  0.894100  1
  H  H69  1  0.100767  0.894100  0.904900  1
  H  H70  1  0.934100  0.904900  0.010800  1
  H  H71  1  0.767433  0.010800  0.105900  1
  H  H72  1  0.600767  0.105900  0.095100  1
  H  H73  1  0.732567  0.894100  0.989200  1
  H  H74  1  0.565900  0.989200  0.095100  1
  H  H75  1  0.399233  0.095100  0.105900  1
  H  H76  1  0.232567  0.105900  0.010800  1
  H  H77  1  0.065900  0.010800  0.904900  1
  H  H78  1  0.899233  0.904900  0.894100  1
  H  H79  1  0.468100  0.096300  0.960900  1
  H  H80  1  0.301433  0.960900  0.864600  1
  H  H81  1  0.134767  0.864600  0.903700  1
  H  H82  1  0.968100  0.903700  0.039100  1
  H  H83  1  0.801433  0.039100  0.135400  1
  H  H84  1  0.634767  0.135400  0.096300  1
  H  H85  1  0.698567  0.864600  0.960900  1
  H  H86  1  0.531900  0.960900  0.096300  1
  H  H87  1  0.365233  0.096300  0.135400  1
  H  H88  1  0.198567  0.135400  0.039100  1
  H  H89  1  0.031900  0.039100  0.903700  1
  H  H90  1  0.865233  0.903700  0.864600  1
  H  H91  1  0.709100  0.621700  0.836600  1.0
  H  H92  1  0.542433  0.836600  0.214900  1.0
  H  H93  1  0.375767  0.214900  0.378300  1.0
  H  H94  1  0.209100  0.378300  0.163400  1.0
  H  H95  1  0.042433  0.163400  0.785100  1.0
  H  H96  1  0.875767  0.785100  0.621700  1.0
  H  H97  1  0.457567  0.214900  0.836600  1.0
  H  H98  1  0.290900  0.836600  0.621700  1.0
  H  H99  1  0.124233  0.621700  0.785100  1.0
  H  H100  1  0.957567  0.785100  0.163400  1.0
  H  H101  1  0.790900  0.163400  0.378300  1.0
  H  H102  1  0.624233  0.378300  0.214900  1.0
  H  H103  1  0.643200  0.647300  0.898500  1.0
  H  H104  1  0.476533  0.898500  0.251200  1.0
  H  H105  1  0.309867  0.251200  0.352700  1.0
  H  H106  1  0.143200  0.352700  0.101500  1.0
  H  H107  1  0.976533  0.101500  0.748800  1.0
  H  H108  1  0.809867  0.748800  0.647300  1.0
  H  H109  1  0.523467  0.251200  0.898500  1.0
  H  H110  1  0.356800  0.898500  0.647300  1.0
  H  H111  1  0.190133  0.647300  0.748800  1.0
  H  H112  1  0.023467  0.748800  0.101500  1.0
  H  H113  1  0.856800  0.101500  0.352700  1.0
  H  H114  1  0.690133  0.352700  0.251200  1.0
  H  H115  1  0.627900  0.439000  0.858200  1.0
  H  H116  1  0.461233  0.858200  0.419200  1.0
  H  H117  1  0.294567  0.419200  0.561000  1.0
  H  H118  1  0.127900  0.561000  0.141800  1.0
  H  H119  1  0.961233  0.141800  0.580800  1.0
  H  H120  1  0.794567  0.580800  0.439000  1.0
  H  H121  1  0.538767  0.419200  0.858200  1.0
  H  H122  1  0.372100  0.858200  0.439000  1.0
  H  H123  1  0.205433  0.439000  0.580800  1.0
  H  H124  1  0.038767  0.580800  0.141800  1.0
  H  H125  1  0.872100  0.141800  0.561000  1.0
  H  H126  1  0.705433  0.561000  0.419200  1.0
  H  H127  1  0.602000  0.219600  0.999000  1.0
  H  H128  1  0.435333  0.999000  0.779400  1.0
  H  H129  1  0.268667  0.779400  0.780400  1.0
  H  H130  1  0.102000  0.780400  0.001000  1.0
  H  H131  1  0.935333  0.001000  0.220600  1.0
  H  H132  1  0.768667  0.220600  0.219600  1.0
  H  H133  1  0.564667  0.779400  0.999000  1.0
  H  H134  1  0.398000  0.999000  0.219600  1.0
  H  H135  1  0.231333  0.219600  0.220600  1.0
  H  H136  1  0.064667  0.220600  0.001000  1.0
  H  H137  1  0.898000  0.001000  0.780400  1.0
  H  H138  1  0.731333  0.780400  0.779400  1.0
  H  H139  1  0.585700  0.190200  0.040500  1.0
  H  H140  1  0.419033  0.040500  0.850300  1.0
  H  H141  1  0.252367  0.850300  0.809800  1.0
  H  H142  1  0.085700  0.809800  0.959500  1.0
  H  H143  1  0.919033  0.959500  0.149700  1.0
  H  H144  1  0.752367  0.149700  0.190200  1.0
  H  H145  1  0.580967  0.850300  0.040500  1.0
  H  H146  1  0.414300  0.040500  0.190200  1.0
  H  H147  1  0.247633  0.190200  0.149700  1.0
  H  H148  1  0.080967  0.149700  0.959500  1.0
  H  H149  1  0.914300  0.959500  0.809800  1.0
  H  H150  1  0.747633  0.809800  0.850300  1.0
  H  H151  1  0.587300  0.074600  0.935500  1.0
  H  H152  1  0.420633  0.935500  0.860900  1.0
  H  H153  1  0.253967  0.860900  0.925400  1.0
  H  H154  1  0.087300  0.925400  0.064500  1.0
  H  H155  1  0.920633  0.064500  0.139100  1.0
  H  H156  1  0.753967  0.139100  0.074600  1.0
  H  H157  1  0.579367  0.860900  0.935500  1.0
  H  H158  1  0.412700  0.935500  0.074600  1.0
  H  H159  1  0.246033  0.074600  0.139100  1.0
  H  H160  1  0.079367  0.139100  0.064500  1.0
  H  H161  1  0.912700  0.064500  0.925400  1.0
  H  H162  1  0.746033  0.925400  0.860900  1.0
  H  H163  1  0.603100  0.104700  0.894900  1.0
  H  H164  1  0.436433  0.894900  0.790200  1.0
  H  H165  1  0.269767  0.790200  0.895300  1.0
  H  H166  1  0.103100  0.895300  0.105100  1.0
  H  H167  1  0.936433  0.105100  0.209800  1.0
  H  H168  1  0.769767  0.209800  0.104700  1.0
  H  H169  1  0.563567  0.790200  0.894900  1.0
  H  H170  1  0.396900  0.894900  0.104700  1.0
  H  H171  1  0.230233  0.104700  0.209800  1.0
  H  H172  1  0.063567  0.209800  0.105100  1.0
  H  H173  1  0.896900  0.105100  0.895300  1.0
  H  H174  1  0.730233  0.895300  0.790200  1.0
  H  H175  1  0.587200  0.135700  0.070600  1.0
  H  H176  1  0.420533  0.070600  0.934900  1.0
  H  H177  1  0.253867  0.934900  0.864300  1.0
  H  H178  1  0.087200  0.864300  0.929400  1.0
  H  H179  1  0.920533  0.929400  0.065100  1.0
  H  H180  1  0.753867  0.065100  0.135700  1.0
  H  H181  1  0.579467  0.934900  0.070600  1.0
  H  H182  1  0.412800  0.070600  0.135700  1.0
  H  H183  1  0.246133  0.135700  0.065100  1.0
  H  H184  1  0.079467  0.065100  0.929400  1.0
  H  H185  1  0.912800  0.929400  0.864300  1.0
  H  H186  1  0.746133  0.864300  0.934900  1.0
  H  H187  1  0.546500  0.113600  0.061300  1.0
  H  H188  1  0.379833  0.061300  0.947700  1.0
  H  H189  1  0.213167  0.947700  0.886400  1.0
  H  H190  1  0.046500  0.886400  0.938700  1.0
  H  H191  1  0.879833  0.938700  0.052300  1.0
  H  H192  1  0.713167  0.052300  0.113600  1.0
  H  H193  1  0.620167  0.947700  0.061300  1.0
  H  H194  1  0.453500  0.061300  0.113600  1.0
  H  H195  1  0.286833  0.113600  0.052300  1.0
  H  H196  1  0.120167  0.052300  0.938700  1.0
  H  H197  1  0.953500  0.938700  0.886400  1.0
  H  H198  1  0.786833  0.886400  0.947700  1.0
  H  H199  1  0.551500  0.157200  0.062000  1.0
  H  H200  1  0.384833  0.062000  0.904800  1.0
  H  H201  1  0.218167  0.904800  0.842800  1.0
  H  H202  1  0.051500  0.842800  0.938000  1.0
  H  H203  1  0.884833  0.938000  0.095200  1.0
  H  H204  1  0.718167  0.095200  0.157200  1.0
  H  H205  1  0.615167  0.904800  0.062000  1.0
  H  H206  1  0.448500  0.062000  0.157200  1.0
  H  H207  1  0.281833  0.157200  0.095200  1.0
  H  H208  1  0.115167  0.095200  0.938000  1.0
  H  H209  1  0.948500  0.938000  0.842800  1.0
  H  H210  1  0.781833  0.842800  0.904800  1.0
  H  H211  1  0.649700  0.147100  0.885300  1.0
  H  H212  1  0.483033  0.885300  0.738200  1.0
  H  H213  1  0.316367  0.738200  0.852900  1.0
  H  H214  1  0.149700  0.852900  0.114700  1.0
  H  H215  1  0.983033  0.114700  0.261800  1.0
  H  H216  1  0.816367  0.261800  0.147100  1.0
  H  H217  1  0.516967  0.738200  0.885300  1.0
  H  H218  1  0.350300  0.885300  0.147100  1.0
  H  H219  1  0.183633  0.147100  0.261800  1.0
  H  H220  1  0.016967  0.261800  0.114700  1.0
  H  H221  1  0.850300  0.114700  0.852900  1.0
  H  H222  1  0.683633  0.852900  0.738200  1.0
  H  H223  1  0.687000  0.151200  0.829400  1.0
  H  H224  1  0.520333  0.829400  0.678200  1.0
  H  H225  1  0.353667  0.678200  0.848800  1.0
  H  H226  1  0.187000  0.848800  0.170600  1.0
  H  H227  1  0.020333  0.170600  0.321800  1.0
  H  H228  1  0.853667  0.321800  0.151200  1.0
  H  H229  1  0.479667  0.678200  0.829400  1.0
  H  H230  1  0.313000  0.829400  0.151200  1.0
  H  H231  1  0.146333  0.151200  0.321800  1.0
  H  H232  1  0.979667  0.321800  0.170600  1.0
  H  H233  1  0.813000  0.170600  0.848800  1.0
  H  H234  1  0.646333  0.848800  0.678200  1.0
  H  H235  1  0.704300  0.187000  0.794300  1.0
  H  H236  1  0.537633  0.794300  0.607300  1.0
  H  H237  1  0.370967  0.607300  0.813000  1.0
  H  H238  1  0.204300  0.813000  0.205700  1.0
  H  H239  1  0.037633  0.205700  0.392700  1.0
  H  H240  1  0.870967  0.392700  0.187000  1.0
  H  H241  1  0.462367  0.607300  0.794300  1.0
  H  H242  1  0.295700  0.794300  0.187000  1.0
  H  H243  1  0.129033  0.187000  0.392700  1.0
  H  H244  1  0.962367  0.392700  0.205700  1.0
  H  H245  1  0.795700  0.205700  0.813000  1.0
  H  H246  1  0.629033  0.813000  0.607300  1.0
  H  H247  1  0.618600  0.267100  0.855100  1.0
  H  H248  1  0.451933  0.855100  0.588000  1.0
  H  H249  1  0.285267  0.588000  0.732900  1.0
  H  H250  1  0.118600  0.732900  0.144900  1.0
  H  H251  1  0.951933  0.144900  0.412000  1.0
  H  H252  1  0.785267  0.412000  0.267100  1.0
  H  H253  1  0.548067  0.588000  0.855100  1.0
  H  H254  1  0.381400  0.855100  0.267100  1.0
  H  H255  1  0.214733  0.267100  0.412000  1.0
  H  H256  1  0.048067  0.412000  0.144900  1.0
  H  H257  1  0.881400  0.144900  0.732900  1.0
  H  H258  1  0.714733  0.732900  0.588000  1.0
  H  H259  1  0.665600  0.312800  0.855800  1.0
  H  H260  1  0.498933  0.855800  0.543000  1.0
  H  H261  1  0.332267  0.543000  0.687200  1.0
  H  H262  1  0.165600  0.687200  0.144200  1.0
  H  H263  1  0.998933  0.144200  0.457000  1.0
  H  H264  1  0.832267  0.457000  0.312800  1.0
  H  H265  1  0.501067  0.543000  0.855800  1.0
  H  H266  1  0.334400  0.855800  0.312800  1.0
  H  H267  1  0.167733  0.312800  0.457000  1.0
  H  H268  1  0.001067  0.457000  0.144200  1.0
  H  H269  1  0.834400  0.144200  0.687200  1.0
  H  H270  1  0.667733  0.687200  0.543000  1.0
  H  H271  1  0.686600  0.212400  0.743300  1.0
  H  H272  1  0.519933  0.743300  0.530900  1.0
  H  H273  1  0.353267  0.530900  0.787600  1.0
  H  H274  1  0.186600  0.787600  0.256700  1.0
  H  H275  1  0.019933  0.256700  0.469100  1.0
  H  H276  1  0.853267  0.469100  0.212400  1.0
  H  H277  1  0.480067  0.530900  0.743300  1.0
  H  H278  1  0.313400  0.743300  0.212400  1.0
  H  H279  1  0.146733  0.212400  0.469100  1.0
  H  H280  1  0.980067  0.469100  0.256700  1.0
  H  H281  1  0.813400  0.256700  0.787600  1.0
  H  H282  1  0.646733  0.787600  0.530900  1.0
  H  H283  1  0.693700  0.256700  0.715800  1.0
  H  H284  1  0.527033  0.715800  0.459100  1.0
  H  H285  1  0.360367  0.459100  0.743300  1.0
  H  H286  1  0.193700  0.743300  0.284200  1.0
  H  H287  1  0.027033  0.284200  0.540900  1.0
  H  H288  1  0.860367  0.540900  0.256700  1.0
  H  H289  1  0.472967  0.459100  0.715800  1.0
  H  H290  1  0.306300  0.715800  0.256700  1.0
  H  H291  1  0.139633  0.256700  0.540900  1.0
  H  H292  1  0.972967  0.540900  0.284200  1.0
  H  H293  1  0.806300  0.284200  0.743300  1.0
  H  H294  1  0.639633  0.743300  0.459100  1.0
  H  H295  1  0.696100  0.299100  0.692500  1.0
  H  H296  1  0.529433  0.692500  0.393400  1.0
  H  H297  1  0.362767  0.393400  0.700900  1.0
  H  H298  1  0.196100  0.700900  0.307500  1.0
  H  H299  1  0.029433  0.307500  0.606600  1.0
  H  H300  1  0.862767  0.606600  0.299100  1.0
  H  H301  1  0.470567  0.393400  0.692500  1.0
  H  H302  1  0.303900  0.692500  0.299100  1.0
  H  H303  1  0.137233  0.299100  0.606600  1.0
  H  H304  1  0.970567  0.606600  0.307500  1.0
  H  H305  1  0.803900  0.307500  0.700900  1.0
  H  H306  1  0.637233  0.700900  0.393400  1.0
  H  H307  1  0.694400  0.349000  0.670600  1.0
  H  H308  1  0.527733  0.670600  0.321600  1.0
  H  H309  1  0.361067  0.321600  0.651000  1.0
  H  H310  1  0.194400  0.651000  0.329400  1.0
  H  H311  1  0.027733  0.329400  0.678400  1.0
  H  H312  1  0.861067  0.678400  0.349000  1.0
  H  H313  1  0.472267  0.321600  0.670600  1.0
  H  H314  1  0.305600  0.670600  0.349000  1.0
  H  H315  1  0.138933  0.349000  0.678400  1.0
  H  H316  1  0.972267  0.678400  0.329400  1.0
  H  H317  1  0.805600  0.329400  0.651000  1.0
  H  H318  1  0.638933  0.651000  0.321600  1.0
  H  H319  1  0.686000  0.437200  0.791300  1.0
  H  H320  1  0.519333  0.791300  0.354100  1.0
  H  H321  1  0.352667  0.354100  0.562800  1.0
  H  H322  1  0.186000  0.562800  0.208700  1.0
  H  H323  1  0.019333  0.208700  0.645900  1.0
  H  H324  1  0.852667  0.645900  0.437200  1.0
  H  H325  1  0.480667  0.354100  0.791300  1.0
  H  H326  1  0.314000  0.791300  0.437200  1.0
  H  H327  1  0.147333  0.437200  0.645900  1.0
  H  H328  1  0.980667  0.645900  0.208700  1.0
  H  H329  1  0.814000  0.208700  0.562800  1.0
  H  H330  1  0.647333  0.562800  0.354100  1.0
  H  H331  1  0.708100  0.480000  0.772800  1.0
  H  H332  1  0.541433  0.772800  0.292800  1.0
  H  H333  1  0.374767  0.292800  0.520000  1.0
  H  H334  1  0.208100  0.520000  0.227200  1.0
  H  H335  1  0.041433  0.227200  0.707200  1.0
  H  H336  1  0.874767  0.707200  0.480000  1.0
  H  H337  1  0.458567  0.292800  0.772800  1.0
  H  H338  1  0.291900  0.772800  0.480000  1.0
  H  H339  1  0.125233  0.480000  0.707200  1.0
  H  H340  1  0.958567  0.707200  0.227200  1.0
  H  H341  1  0.791900  0.227200  0.520000  1.0
  H  H342  1  0.625233  0.520000  0.292800  1.0
  H  H343  1  0.664200  0.400300  0.660300  1.0
  H  H344  1  0.497533  0.660300  0.260000  1.0
  H  H345  1  0.330867  0.260000  0.599700  1.0
  H  H346  1  0.164200  0.599700  0.339700  1.0
  H  H347  1  0.997533  0.339700  0.740000  1.0
  H  H348  1  0.830867  0.740000  0.400300  1.0
  H  H349  1  0.502467  0.260000  0.660300  1.0
  H  H350  1  0.335800  0.660300  0.400300  1.0
  H  H351  1  0.169133  0.400300  0.740000  1.0
  H  H352  1  0.002467  0.740000  0.339700  1.0
  H  H353  1  0.835800  0.339700  0.599700  1.0
  H  H354  1  0.669133  0.599700  0.260000  1.0
  H  H355  1  0.659400  0.455300  0.646300  1.0
  H  H356  1  0.492733  0.646300  0.191000  1.0
  H  H357  1  0.326067  0.191000  0.544700  1.0
  H  H358  1  0.159400  0.544700  0.353700  1.0
  H  H359  1  0.992733  0.353700  0.809000  1.0
  H  H360  1  0.826067  0.809000  0.455300  1.0
  H  H361  1  0.507267  0.191000  0.646300  1.0
  H  H362  1  0.340600  0.646300  0.455300  1.0
  H  H363  1  0.173933  0.455300  0.809000  1.0
  H  H364  1  0.007267  0.809000  0.353700  1.0
  H  H365  1  0.840600  0.353700  0.544700  1.0
  H  H366  1  0.673933  0.544700  0.191000  1.0
  H  H367  1  0.670600  0.535100  0.673600  1.0
  H  H368  1  0.503933  0.673600  0.138500  1.0
  H  H369  1  0.337267  0.138500  0.464900  1.0
  H  H370  1  0.170600  0.464900  0.326400  1.0
  H  H371  1  0.003933  0.326400  0.861500  1.0
  H  H372  1  0.837267  0.861500  0.535100  1.0
  H  H373  1  0.496067  0.138500  0.673600  1.0
  H  H374  1  0.329400  0.673600  0.535100  1.0
  H  H375  1  0.162733  0.535100  0.861500  1.0
  H  H376  1  0.996067  0.861500  0.326400  1.0
  H  H377  1  0.829400  0.326400  0.464900  1.0
  H  H378  1  0.662733  0.464900  0.138500  1.0
  H  H379  1  0.644400  0.591000  0.683800  1.0
  H  H380  1  0.477733  0.683800  0.092800  1.0
  H  H381  1  0.311067  0.092800  0.409000  1.0
  H  H382  1  0.144400  0.409000  0.316200  1.0
  H  H383  1  0.977733  0.316200  0.907200  1.0
  H  H384  1  0.811067  0.907200  0.591000  1.0
  H  H385  1  0.522267  0.092800  0.683800  1.0
  H  H386  1  0.355600  0.683800  0.591000  1.0
  H  H387  1  0.188933  0.591000  0.907200  1.0
  H  H388  1  0.022267  0.907200  0.316200  1.0
  H  H389  1  0.855600  0.316200  0.409000  1.0
  H  H390  1  0.688933  0.409000  0.092800  1.0
  H  H391  1  0.636500  0.655400  0.687000  1.0
  H  H392  1  0.469833  0.687000  0.031600  1.0
  H  H393  1  0.303167  0.031600  0.344600  1.0
  H  H394  1  0.136500  0.344600  0.313000  1.0
  H  H395  1  0.969833  0.313000  0.968400  1.0
  H  H396  1  0.803167  0.968400  0.655400  1.0
  H  H397  1  0.530167  0.031600  0.687000  1.0
  H  H398  1  0.363500  0.687000  0.655400  1.0
  H  H399  1  0.196833  0.655400  0.968400  1.0
  H  H400  1  0.030167  0.968400  0.313000  1.0
  H  H401  1  0.863500  0.313000  0.344600  1.0
  H  H402  1  0.696833  0.344600  0.031600  1.0
  H  H403  1  0.720600  0.704900  0.772700  1.0
  H  H404  1  0.553933  0.772700  0.067800  1.0
  H  H405  1  0.387267  0.067800  0.295100  1.0
  H  H406  1  0.220600  0.295100  0.227300  1.0
  H  H407  1  0.053933  0.227300  0.932200  1.0
  H  H408  1  0.887267  0.932200  0.704900  1.0
  H  H409  1  0.446067  0.067800  0.772700  1.0
  H  H410  1  0.279400  0.772700  0.704900  1.0
  H  H411  1  0.112733  0.704900  0.932200  1.0
  H  H412  1  0.946067  0.932200  0.227300  1.0
  H  H413  1  0.779400  0.227300  0.295100  1.0
  H  H414  1  0.612733  0.295100  0.067800  1.0
  H  H415  1  0.729800  0.640200  0.768900  1.0
  H  H416  1  0.563133  0.768900  0.128700  1.0
  H  H417  1  0.396467  0.128700  0.359800  1.0
  H  H418  1  0.229800  0.359800  0.231100  1.0
  H  H419  1  0.063133  0.231100  0.871300  1.0
  H  H420  1  0.896467  0.871300  0.640200  1.0
  H  H421  1  0.436867  0.128700  0.768900  1.0
  H  H422  1  0.270200  0.768900  0.640200  1.0
  H  H423  1  0.103533  0.640200  0.871300  1.0
  H  H424  1  0.936867  0.871300  0.231100  1.0
  H  H425  1  0.770200  0.231100  0.359800  1.0
  H  H426  1  0.603533  0.359800  0.128700  1.0
  H  H427  1  0.651900  0.752900  0.707200  1.0
  H  H428  1  0.485233  0.707200  0.954300  1.0
  H  H429  1  0.318567  0.954300  0.247100  1.0
  H  H430  1  0.151900  0.247100  0.292800  1.0
  H  H431  1  0.985233  0.292800  0.045700  1.0
  H  H432  1  0.818567  0.045700  0.752900  1.0
  H  H433  1  0.514767  0.954300  0.707200  1.0
  H  H434  1  0.348100  0.707200  0.752900  1.0
  H  H435  1  0.181433  0.752900  0.045700  1.0
  H  H436  1  0.014767  0.045700  0.292800  1.0
  H  H437  1  0.848100  0.292800  0.247100  1.0
  H  H438  1  0.681433  0.247100  0.954300  1.0
  H  H439  1  0.622400  0.746900  0.736800  1.0
  H  H440  1  0.455733  0.736800  0.989900  1.0
  H  H441  1  0.289067  0.989900  0.253100  1.0
  H  H442  1  0.122400  0.253100  0.263200  1.0
  H  H443  1  0.955733  0.263200  0.010100  1.0
  H  H444  1  0.789067  0.010100  0.746900  1.0
  H  H445  1  0.544267  0.989900  0.736800  1.0
  H  H446  1  0.377600  0.736800  0.746900  1.0
  H  H447  1  0.210933  0.746900  0.010100  1.0
  H  H448  1  0.044267  0.010100  0.263200  1.0
  H  H449  1  0.877600  0.263200  0.253100  1.0
  H  H450  1  0.710933  0.253100  0.989900  1.0
  H  H451  1  0.635300  0.707300  0.693300  1.0
  H  H452  1  0.468633  0.693300  0.986000  1.0
  H  H453  1  0.301967  0.986000  0.292700  1.0
  H  H454  1  0.135300  0.292700  0.306700  1.0
  H  H455  1  0.968633  0.306700  0.014000  1.0
  H  H456  1  0.801967  0.014000  0.707300  1.0
  H  H457  1  0.531367  0.986000  0.693300  1.0
  H  H458  1  0.364700  0.693300  0.707300  1.0
  H  H459  1  0.198033  0.707300  0.014000  1.0
  H  H460  1  0.031367  0.014000  0.306700  1.0
  H  H461  1  0.864700  0.306700  0.292700  1.0
  H  H462  1  0.698033  0.292700  0.986000  1.0
  H  H463  1  0.767600  0.530900  0.678400  1.0
  H  H464  1  0.600933  0.678400  0.147500  1.0
  H  H465  1  0.434267  0.147500  0.469100  1.0
  H  H466  1  0.267600  0.469100  0.321600  1.0
  H  H467  1  0.100933  0.321600  0.852500  1.0
  H  H468  1  0.934267  0.852500  0.530900  1.0
  H  H469  1  0.399067  0.147500  0.678400  1.0
  H  H470  1  0.232400  0.678400  0.530900  1.0
  H  H471  1  0.065733  0.530900  0.852500  1.0
  H  H472  1  0.899067  0.852500  0.321600  1.0
  H  H473  1  0.732400  0.321600  0.469100  1.0
  H  H474  1  0.565733  0.469100  0.147500  1.0
  H  H475  1  0.799400  0.541700  0.628200  1.0
  H  H476  1  0.632733  0.628200  0.086500  1.0
  H  H477  1  0.466067  0.086500  0.458300  1.0
  H  H478  1  0.299400  0.458300  0.371800  1.0
  H  H479  1  0.132733  0.371800  0.913500  1.0
  H  H480  1  0.966067  0.913500  0.541700  1.0
  H  H481  1  0.367267  0.086500  0.628200  1.0
  H  H482  1  0.200600  0.628200  0.541700  1.0
  H  H483  1  0.033933  0.541700  0.913500  1.0
  H  H484  1  0.867267  0.913500  0.371800  1.0
  H  H485  1  0.700600  0.371800  0.458300  1.0
  H  H486  1  0.533933  0.458300  0.086500  1.0
  H  H487  1  0.859000  0.637200  0.721700  1.0
  H  H488  1  0.692333  0.721700  0.084500  1.0
  H  H489  1  0.525667  0.084500  0.362800  1.0
  H  H490  1  0.359000  0.362800  0.278300  1.0
  H  H491  1  0.192333  0.278300  0.915500  1.0
  H  H492  1  0.025667  0.915500  0.637200  1.0
  H  H493  1  0.307667  0.084500  0.721700  1.0
  H  H494  1  0.141000  0.721700  0.637200  1.0
  H  H495  1  0.974333  0.637200  0.915500  1.0
  H  H496  1  0.807667  0.915500  0.278300  1.0
  H  H497  1  0.641000  0.278300  0.362800  1.0
  H  H498  1  0.474333  0.362800  0.084500  1.0
  H  H499  1  0.828100  0.625800  0.771600  1.0
  H  H500  1  0.661433  0.771600  0.145800  1.0
  H  H501  1  0.494767  0.145800  0.374200  1.0
  H  H502  1  0.328100  0.374200  0.228400  1.0
  H  H503  1  0.161433  0.228400  0.854200  1.0
  H  H504  1  0.994767  0.854200  0.625800  1.0
  H  H505  1  0.338567  0.145800  0.771600  1.0
  H  H506  1  0.171900  0.771600  0.625800  1.0
  H  H507  1  0.005233  0.625800  0.854200  1.0
  H  H508  1  0.838567  0.854200  0.228400  1.0
  H  H509  1  0.671900  0.228400  0.374200  1.0
  H  H510  1  0.505233  0.374200  0.145800  1.0
  H  H511  1  0.864000  0.589700  0.590400  1.0
  H  H512  1  0.697333  0.590400  0.000700  1.0
  H  H513  1  0.530667  0.000700  0.410300  1.0
  H  H514  1  0.364000  0.410300  0.409600  1.0
  H  H515  1  0.197333  0.409600  0.999300  1.0
  H  H516  1  0.030667  0.999300  0.589700  1.0
  H  H517  1  0.302667  0.000700  0.590400  1.0
  H  H518  1  0.136000  0.590400  0.589700  1.0
  H  H519  1  0.969333  0.589700  0.999300  1.0
  H  H520  1  0.802667  0.999300  0.409600  1.0
  H  H521  1  0.636000  0.409600  0.410300  1.0
  H  H522  1  0.469333  0.410300  0.000700  1.0
  H  H523  1  0.854000  0.549100  0.593900  1.0
  H  H524  1  0.687333  0.593900  0.044800  1.0
  H  H525  1  0.520667  0.044800  0.450900  1.0
  H  H526  1  0.354000  0.450900  0.406100  1.0
  H  H527  1  0.187333  0.406100  0.955200  1.0
  H  H528  1  0.020667  0.955200  0.549100  1.0
  H  H529  1  0.312667  0.044800  0.593900  1.0
  H  H530  1  0.146000  0.593900  0.549100  1.0
  H  H531  1  0.979333  0.549100  0.955200  1.0
  H  H532  1  0.812667  0.955200  0.406100  1.0
  H  H533  1  0.646000  0.406100  0.450900  1.0
  H  H534  1  0.479333  0.450900  0.044800  1.0
  H  H535  1  0.821000  0.580600  0.597400  1.0
  H  H536  1  0.654333  0.597400  0.016800  1.0
  H  H537  1  0.487667  0.016800  0.419400  1.0
  H  H538  1  0.321000  0.419400  0.402600  1.0
  H  H539  1  0.154333  0.402600  0.983200  1.0
  H  H540  1  0.987667  0.983200  0.580600  1.0
  H  H541  1  0.345667  0.016800  0.597400  1.0
  H  H542  1  0.179000  0.597400  0.580600  1.0
  H  H543  1  0.012333  0.580600  0.983200  1.0
  H  H544  1  0.845667  0.983200  0.402600  1.0
  H  H545  1  0.679000  0.402600  0.419400  1.0
  H  H546  1  0.512333  0.419400  0.016800  1.0
  H  H547  1  0.831000  0.571100  0.783900  1.0
  H  H548  1  0.664333  0.783900  0.212800  1.0
  H  H549  1  0.497667  0.212800  0.428900  1.0
  H  H550  1  0.331000  0.428900  0.216100  1.0
  H  H551  1  0.164333  0.216100  0.787200  1.0
  H  H552  1  0.997667  0.787200  0.571100  1.0
  H  H553  1  0.335667  0.212800  0.783900  1.0
  H  H554  1  0.169000  0.783900  0.571100  1.0
  H  H555  1  0.002333  0.571100  0.787200  1.0
  H  H556  1  0.835667  0.787200  0.216100  1.0
  H  H557  1  0.669000  0.216100  0.428900  1.0
  H  H558  1  0.502333  0.428900  0.212800  1.0
  H  H559  1  0.842400  0.561700  0.847100  1.0
  H  H560  1  0.675733  0.847100  0.285400  1.0
  H  H561  1  0.509067  0.285400  0.438300  1.0
  H  H562  1  0.342400  0.438300  0.152900  1.0
  H  H563  1  0.175733  0.152900  0.714600  1.0
  H  H564  1  0.009067  0.714600  0.561700  1.0
  H  H565  1  0.324267  0.285400  0.847100  1.0
  H  H566  1  0.157600  0.847100  0.561700  1.0
  H  H567  1  0.990933  0.561700  0.714600  1.0
  H  H568  1  0.824267  0.714600  0.152900  1.0
  H  H569  1  0.657600  0.152900  0.438300  1.0
  H  H570  1  0.490933  0.438300  0.285400  1.0
  H  H571  1  0.820700  0.535900  0.889900  1.0
  H  H572  1  0.654033  0.889900  0.354000  1.0
  H  H573  1  0.487367  0.354000  0.464100  1.0
  H  H574  1  0.320700  0.464100  0.110100  1.0
  H  H575  1  0.154033  0.110100  0.646000  1.0
  H  H576  1  0.987367  0.646000  0.535900  1.0
  H  H577  1  0.345967  0.354000  0.889900  1.0
  H  H578  1  0.179300  0.889900  0.535900  1.0
  H  H579  1  0.012633  0.535900  0.646000  1.0
  H  H580  1  0.845967  0.646000  0.110100  1.0
  H  H581  1  0.679300  0.110100  0.464100  1.0
  H  H582  1  0.512633  0.464100  0.354000  1.0
  H  H583  1  0.716800  0.526000  0.841000  1.0
  H  H584  1  0.550133  0.841000  0.315000  1.0
  H  H585  1  0.383467  0.315000  0.474000  1.0
  H  H586  1  0.216800  0.474000  0.159000  1.0
  H  H587  1  0.050133  0.159000  0.685000  1.0
  H  H588  1  0.883467  0.685000  0.526000  1.0
  H  H589  1  0.449867  0.315000  0.841000  1.0
  H  H590  1  0.283200  0.841000  0.526000  1.0
  H  H591  1  0.116533  0.526000  0.685000  1.0
  H  H592  1  0.949867  0.685000  0.159000  1.0
  H  H593  1  0.783200  0.159000  0.474000  1.0
  H  H594  1  0.616533  0.474000  0.315000  1.0
  H  H595  1  0.724200  0.460000  0.836900  1.0
  H  H596  1  0.557533  0.836900  0.376900  1.0
  H  H597  1  0.390867  0.376900  0.540000  1.0
  H  H598  1  0.224200  0.540000  0.163100  1.0
  H  H599  1  0.057533  0.163100  0.623100  1.0
  H  H600  1  0.890867  0.623100  0.460000  1.0
  H  H601  1  0.442467  0.376900  0.836900  1.0
  H  H602  1  0.275800  0.836900  0.460000  1.0
  H  H603  1  0.109133  0.460000  0.623100  1.0
  H  H604  1  0.942467  0.623100  0.163100  1.0
  H  H605  1  0.775800  0.163100  0.540000  1.0
  H  H606  1  0.609133  0.540000  0.376900  1.0
  H  H607  1  0.772200  0.537100  0.948300  1.0
  H  H608  1  0.605533  0.948300  0.411200  1.0
  H  H609  1  0.438867  0.411200  0.462900  1.0
  H  H610  1  0.272200  0.462900  0.051700  1.0
  H  H611  1  0.105533  0.051700  0.588800  1.0
  H  H612  1  0.938867  0.588800  0.537100  1.0
  H  H613  1  0.394467  0.411200  0.948300  1.0
  H  H614  1  0.227800  0.948300  0.537100  1.0
  H  H615  1  0.061133  0.537100  0.588800  1.0
  H  H616  1  0.894467  0.588800  0.051700  1.0
  H  H617  1  0.727800  0.051700  0.462900  1.0
  H  H618  1  0.561133  0.462900  0.411200  1.0
  H  H619  1  0.740900  0.501500  0.977000  1.0
  H  H620  1  0.574233  0.977000  0.475500  1.0
  H  H621  1  0.407567  0.475500  0.498500  1.0
  H  H622  1  0.240900  0.498500  0.023000  1.0
  H  H623  1  0.074233  0.023000  0.524500  1.0
  H  H624  1  0.907567  0.524500  0.501500  1.0
  H  H625  1  0.425767  0.475500  0.977000  1.0
  H  H626  1  0.259100  0.977000  0.501500  1.0
  H  H627  1  0.092433  0.501500  0.524500  1.0
  H  H628  1  0.925767  0.524500  0.023000  1.0
  H  H629  1  0.759100  0.023000  0.498500  1.0
  H  H630  1  0.592433  0.498500  0.475500  1.0
  H  H631  1  0.715100  0.464800  0.999400  1.0
  H  H632  1  0.548433  0.999400  0.534600  1.0
  H  H633  1  0.381767  0.534600  0.535200  1.0
  H  H634  1  0.215100  0.535200  0.000600  1.0
  H  H635  1  0.048433  0.000600  0.465400  1.0
  H  H636  1  0.881767  0.465400  0.464800  1.0
  H  H637  1  0.451567  0.534600  0.999400  1.0
  H  H638  1  0.284900  0.999400  0.464800  1.0
  H  H639  1  0.118233  0.464800  0.465400  1.0
  H  H640  1  0.951567  0.465400  0.000600  1.0
  H  H641  1  0.784900  0.000600  0.535200  1.0
  H  H642  1  0.618233  0.535200  0.534600  1.0
  H  H643  1  0.675300  0.428800  0.021600  1.0
  H  H644  1  0.508633  0.021600  0.592800  1.0
  H  H645  1  0.341967  0.592800  0.571200  1.0
  H  H646  1  0.175300  0.571200  0.978400  1.0
  H  H647  1  0.008633  0.978400  0.407200  1.0
  H  H648  1  0.841967  0.407200  0.428800  1.0
  H  H649  1  0.491367  0.592800  0.021600  1.0
  H  H650  1  0.324700  0.021600  0.428800  1.0
  H  H651  1  0.158033  0.428800  0.407200  1.0
  H  H652  1  0.991367  0.407200  0.978400  1.0
  H  H653  1  0.824700  0.978400  0.571200  1.0
  H  H654  1  0.658033  0.571200  0.592800  1.0
  H  H655  1  0.635000  0.362400  0.904600  1.0
  H  H656  1  0.468333  0.904600  0.542200  1.0
  H  H657  1  0.301667  0.542200  0.637600  1.0
  H  H658  1  0.135000  0.637600  0.095400  1.0
  H  H659  1  0.968333  0.095400  0.457800  1.0
  H  H660  1  0.801667  0.457800  0.362400  1.0
  H  H661  1  0.531667  0.542200  0.904600  1.0
  H  H662  1  0.365000  0.904600  0.362400  1.0
  H  H663  1  0.198333  0.362400  0.457800  1.0
  H  H664  1  0.031667  0.457800  0.095400  1.0
  H  H665  1  0.865000  0.095400  0.637600  1.0
  H  H666  1  0.698333  0.637600  0.542200  1.0
  H  H667  1  0.630400  0.311500  0.927400  1.0
  H  H668  1  0.463733  0.927400  0.615900  1.0
  H  H669  1  0.297067  0.615900  0.688500  1.0
  H  H670  1  0.130400  0.688500  0.072600  1.0
  H  H671  1  0.963733  0.072600  0.384100  1.0
  H  H672  1  0.797067  0.384100  0.311500  1.0
  H  H673  1  0.536267  0.615900  0.927400  1.0
  H  H674  1  0.369600  0.927400  0.311500  1.0
  H  H675  1  0.202933  0.311500  0.384100  1.0
  H  H676  1  0.036267  0.384100  0.072600  1.0
  H  H677  1  0.869600  0.072600  0.688500  1.0
  H  H678  1  0.702933  0.688500  0.615900  1.0
  H  H679  1  0.612500  0.415600  0.036700  1.0
  H  H680  1  0.445833  0.036700  0.621100  1.0
  H  H681  1  0.279167  0.621100  0.584400  1.0
  H  H682  1  0.112500  0.584400  0.963300  1.0
  H  H683  1  0.945833  0.963300  0.378900  1.0
  H  H684  1  0.779167  0.378900  0.415600  1.0
  H  H685  1  0.554167  0.621100  0.036700  1.0
  H  H686  1  0.387500  0.036700  0.415600  1.0
  H  H687  1  0.220833  0.415600  0.378900  1.0
  H  H688  1  0.054167  0.378900  0.963300  1.0
  H  H689  1  0.887500  0.963300  0.584400  1.0
  H  H690  1  0.720833  0.584400  0.621100  1.0
  H  H691  1  0.570400  0.377600  0.054600  1.0
  H  H692  1  0.403733  0.054600  0.677000  1.0
  H  H693  1  0.237067  0.677000  0.622400  1.0
  H  H694  1  0.070400  0.622400  0.945400  1.0
  H  H695  1  0.903733  0.945400  0.323000  1.0
  H  H696  1  0.737067  0.323000  0.377600  1.0
  H  H697  1  0.596267  0.677000  0.054600  1.0
  H  H698  1  0.429600  0.054600  0.377600  1.0
  H  H699  1  0.262933  0.377600  0.323000  1.0
  H  H700  1  0.096267  0.323000  0.945400  1.0
  H  H701  1  0.929600  0.945400  0.622400  1.0
  H  H702  1  0.762933  0.622400  0.677000  1.0
  H  H703  1  0.538900  0.310400  0.035500  1.0
  H  H704  1  0.372233  0.035500  0.725100  1.0
  H  H705  1  0.205567  0.725100  0.689600  1.0
  H  H706  1  0.038900  0.689600  0.964500  1.0
  H  H707  1  0.872233  0.964500  0.274900  1.0
  H  H708  1  0.705567  0.274900  0.310400  1.0
  H  H709  1  0.627767  0.725100  0.035500  1.0
  H  H710  1  0.461100  0.035500  0.310400  1.0
  H  H711  1  0.294433  0.310400  0.274900  1.0
  H  H712  1  0.127767  0.274900  0.964500  1.0
  H  H713  1  0.961100  0.964500  0.689600  1.0
  H  H714  1  0.794433  0.689600  0.725100  1.0
  H  H715  1  0.512700  0.187200  0.926400  1.0
  H  H716  1  0.346033  0.926400  0.739200  1.0
  H  H717  1  0.179367  0.739200  0.812800  1.0
  H  H718  1  0.012700  0.812800  0.073600  1.0
  H  H719  1  0.846033  0.073600  0.260800  1.0
  H  H720  1  0.679367  0.260800  0.187200  1.0
  H  H721  1  0.653967  0.739200  0.926400  1.0
  H  H722  1  0.487300  0.926400  0.187200  1.0
  H  H723  1  0.320633  0.187200  0.260800  1.0
  H  H724  1  0.153967  0.260800  0.073600  1.0
  H  H725  1  0.987300  0.073600  0.812800  1.0
  H  H726  1  0.820633  0.812800  0.739200  1.0
  H  H727  1  0.478800  0.141100  0.939500  1.0
  H  H728  1  0.312133  0.939500  0.798400  1.0
  H  H729  1  0.145467  0.798400  0.858900  1.0
  H  H730  1  0.978800  0.858900  0.060500  1.0
  H  H731  1  0.812133  0.060500  0.201600  1.0
  H  H732  1  0.645467  0.201600  0.141100  1.0
  H  H733  1  0.687867  0.798400  0.939500  1.0
  H  H734  1  0.521200  0.939500  0.141100  1.0
  H  H735  1  0.354533  0.141100  0.201600  1.0
  H  H736  1  0.187867  0.201600  0.060500  1.0
  H  H737  1  0.021200  0.060500  0.858900  1.0
  H  H738  1  0.854533  0.858900  0.798400  1.0
  H  H739  1  0.484800  0.222400  0.063700  1.0
  H  H740  1  0.318133  0.063700  0.841300  1.0
  H  H741  1  0.151467  0.841300  0.777600  1.0
  H  H742  1  0.984800  0.777600  0.936300  1.0
  H  H743  1  0.818133  0.936300  0.158700  1.0
  H  H744  1  0.651467  0.158700  0.222400  1.0
  H  H745  1  0.681867  0.841300  0.063700  1.0
  H  H746  1  0.515200  0.063700  0.222400  1.0
  H  H747  1  0.348533  0.222400  0.158700  1.0
  H  H748  1  0.181867  0.158700  0.936300  1.0
  H  H749  1  0.015200  0.936300  0.777600  1.0
  H  H750  1  0.848533  0.777600  0.841300  1.0
  H  H751  1  0.518400  0.269600  0.051300  1.0
  H  H752  1  0.351733  0.051300  0.781700  1.0
  H  H753  1  0.185067  0.781700  0.730400  1.0
  H  H754  1  0.018400  0.730400  0.948700  1.0
  H  H755  1  0.851733  0.948700  0.218300  1.0
  H  H756  1  0.685067  0.218300  0.269600  1.0
  H  H757  1  0.648267  0.781700  0.051300  1.0
  H  H758  1  0.481600  0.051300  0.269600  1.0
  H  H759  1  0.314933  0.269600  0.218300  1.0
  H  H760  1  0.148267  0.218300  0.948700  1.0
  H  H761  1  0.981600  0.948700  0.730400  1.0
  H  H762  1  0.814933  0.730400  0.781700  1.0
  H  H763  1  0.435800  0.200600  0.063800  1.0
  H  H764  1  0.269133  0.063800  0.863200  1.0
  H  H765  1  0.102467  0.863200  0.799400  1.0
  H  H766  1  0.935800  0.799400  0.936200  1.0
  H  H767  1  0.769133  0.936200  0.136800  1.0
  H  H768  1  0.602467  0.136800  0.200600  1.0
  H  H769  1  0.730867  0.863200  0.063800  1.0
  H  H770  1  0.564200  0.063800  0.200600  1.0
  H  H771  1  0.397533  0.200600  0.136800  1.0
  H  H772  1  0.230867  0.136800  0.936200  1.0
  H  H773  1  0.064200  0.936200  0.799400  1.0
  H  H774  1  0.897533  0.799400  0.863200  1.0
  H  H775  1  0.458700  0.168600  0.073200  1.0
  H  H776  1  0.292033  0.073200  0.904600  1.0
  H  H777  1  0.125367  0.904600  0.831400  1.0
  H  H778  1  0.958700  0.831400  0.926800  1.0
  H  H779  1  0.792033  0.926800  0.095400  1.0
  H  H780  1  0.625367  0.095400  0.168600  1.0
  H  H781  1  0.707967  0.904600  0.073200  1.0
  H  H782  1  0.541300  0.073200  0.168600  1.0
  H  H783  1  0.374633  0.168600  0.095400  1.0
  H  H784  1  0.207967  0.095400  0.926800  1.0
  H  H785  1  0.041300  0.926800  0.831400  1.0
  H  H786  1  0.874633  0.831400  0.904600  1.0
  H  H787  1  0.417200  0.156600  0.052800  1.0
  H  H788  1  0.250533  0.052800  0.896200  1.0
  H  H789  1  0.083867  0.896200  0.843400  1.0
  H  H790  1  0.917200  0.843400  0.947200  1.0
  H  H791  1  0.750533  0.947200  0.103800  1.0
  H  H792  1  0.583867  0.103800  0.156600  1.0
  H  H793  1  0.749467  0.896200  0.052800  1.0
  H  H794  1  0.582800  0.052800  0.156600  1.0
  H  H795  1  0.416133  0.156600  0.103800  1.0
  H  H796  1  0.249467  0.103800  0.947200  1.0
  H  H797  1  0.082800  0.947200  0.843400  1.0
  H  H798  1  0.916133  0.843400  0.896200  1.0
  H  H799  1  0.666900  0.696700  0.844400  1.0
  H  H800  1  0.500233  0.844400  0.147700  1.0
  H  H801  1  0.333567  0.147700  0.303300  1.0
  H  H802  1  0.166900  0.303300  0.155600  1.0
  H  H803  1  0.000233  0.155600  0.852300  1.0
  H  H804  1  0.833567  0.852300  0.696700  1.0
  H  H805  1  0.499767  0.147700  0.844400  1.0
  H  H806  1  0.333100  0.844400  0.696700  1.0
  H  H807  1  0.166433  0.696700  0.852300  1.0
  H  H808  1  0.999767  0.852300  0.155600  1.0
  H  H809  1  0.833100  0.155600  0.303300  1.0
  H  H810  1  0.666433  0.303300  0.147700  1.0
  H  H811  1  0.687100  0.764600  0.869500  1.0
  H  H812  1  0.520433  0.869500  0.104900  1.0
  H  H813  1  0.353767  0.104900  0.235400  1.0
  H  H814  1  0.187100  0.235400  0.130500  1.0
  H  H815  1  0.020433  0.130500  0.895100  1.0
  H  H816  1  0.853767  0.895100  0.764600  1.0
  H  H817  1  0.479567  0.104900  0.869500  1.0
  H  H818  1  0.312900  0.869500  0.764600  1.0
  H  H819  1  0.146233  0.764600  0.895100  1.0
  H  H820  1  0.979567  0.895100  0.130500  1.0
  H  H821  1  0.812900  0.130500  0.235400  1.0
  H  H822  1  0.646233  0.235400  0.104900  1.0
  H  H823  1  0.595600  0.784100  0.817300  1.0
  H  H824  1  0.428933  0.817300  0.033200  1.0
  H  H825  1  0.262267  0.033200  0.215900  1.0
  H  H826  1  0.095600  0.215900  0.182700  1.0
  H  H827  1  0.928933  0.182700  0.966800  1.0
  H  H828  1  0.762267  0.966800  0.784100  1.0
  H  H829  1  0.571067  0.033200  0.817300  1.0
  H  H830  1  0.404400  0.817300  0.784100  1.0
  H  H831  1  0.237733  0.784100  0.966800  1.0
  H  H832  1  0.071067  0.966800  0.182700  1.0
  H  H833  1  0.904400  0.182700  0.215900  1.0
  H  H834  1  0.737733  0.215900  0.033200  1.0
  H  H835  1  0.574200  0.715900  0.792100  1.0
  H  H836  1  0.407533  0.792100  0.076200  1.0
  H  H837  1  0.240867  0.076200  0.284100  1.0
  H  H838  1  0.074200  0.284100  0.207900  1.0
  H  H839  1  0.907533  0.207900  0.923800  1.0
  H  H840  1  0.740867  0.923800  0.715900  1.0
  H  H841  1  0.592467  0.076200  0.792100  1.0
  H  H842  1  0.425800  0.792100  0.715900  1.0
  H  H843  1  0.259133  0.715900  0.923800  1.0
  H  H844  1  0.092467  0.923800  0.207900  1.0
  H  H845  1  0.925800  0.207900  0.284100  1.0
  H  H846  1  0.759133  0.284100  0.076200  1.0
  H  H847  1  0.607900  0.830100  0.833800  1.0
  H  H848  1  0.441233  0.833800  0.003700  1.0
  H  H849  1  0.274567  0.003700  0.169900  1.0
  H  H850  1  0.107900  0.169900  0.166200  1.0
  H  H851  1  0.941233  0.166200  0.996300  1.0
  H  H852  1  0.774567  0.996300  0.830100  1.0
  H  H853  1  0.558767  0.003700  0.833800  1.0
  H  H854  1  0.392100  0.833800  0.830100  1.0
  H  H855  1  0.225433  0.830100  0.996300  1.0
  H  H856  1  0.058767  0.996300  0.166200  1.0
  H  H857  1  0.892100  0.166200  0.169900  1.0
  H  H858  1  0.725433  0.169900  0.003700  1.0
  H  H859  1  0.645600  0.854700  0.834500  1.0
  H  H860  1  0.478933  0.834500  0.979800  1.0
  H  H861  1  0.312267  0.979800  0.145300  1.0
  H  H862  1  0.145600  0.145300  0.165500  1.0
  H  H863  1  0.978933  0.165500  0.020200  1.0
  H  H864  1  0.812267  0.020200  0.854700  1.0
  H  H865  1  0.521067  0.979800  0.834500  1.0
  H  H866  1  0.354400  0.834500  0.854700  1.0
  H  H867  1  0.187733  0.854700  0.020200  1.0
  H  H868  1  0.021067  0.020200  0.165500  1.0
  H  H869  1  0.854400  0.165500  0.145300  1.0
  H  H870  1  0.687733  0.145300  0.979800  1.0
  H  H871  1  0.619400  0.872700  0.875300  1.0
  H  H872  1  0.452733  0.875300  0.002600  1.0
  H  H873  1  0.286067  0.002600  0.127300  1.0
  H  H874  1  0.119400  0.127300  0.124700  1.0
  H  H875  1  0.952733  0.124700  0.997400  1.0
  H  H876  1  0.786067  0.997400  0.872700  1.0
  H  H877  1  0.547267  0.002600  0.875300  1.0
  H  H878  1  0.380600  0.875300  0.872700  1.0
  H  H879  1  0.213933  0.872700  0.997400  1.0
  H  H880  1  0.047267  0.997400  0.124700  1.0
  H  H881  1  0.880600  0.124700  0.127300  1.0
  H  H882  1  0.713933  0.127300  0.002600  1.0
  H  H883  1  0.582100  0.643000  0.755400  1.0
  H  H884  1  0.415433  0.755400  0.112400  1.0
  H  H885  1  0.248767  0.112400  0.357000  1.0
  H  H886  1  0.082100  0.357000  0.244600  1.0
  H  H887  1  0.915433  0.244600  0.887600  1.0
  H  H888  1  0.748767  0.887600  0.643000  1.0
  H  H889  1  0.584567  0.112400  0.755400  1.0
  H  H890  1  0.417900  0.755400  0.643000  1.0
  H  H891  1  0.251233  0.643000  0.887600  1.0
  H  H892  1  0.084567  0.887600  0.244600  1.0
  H  H893  1  0.917900  0.244600  0.357000  1.0
  H  H894  1  0.751233  0.357000  0.112400  1.0
  H  H895  1  0.557500  0.568000  0.702600  1.0
  H  H896  1  0.390833  0.702600  0.134600  1.0
  H  H897  1  0.224167  0.134600  0.432000  1.0
  H  H898  1  0.057500  0.432000  0.297400  1.0
  H  H899  1  0.890833  0.297400  0.865400  1.0
  H  H900  1  0.724167  0.865400  0.568000  1.0
  H  H901  1  0.609167  0.134600  0.702600  1.0
  H  H902  1  0.442500  0.702600  0.568000  1.0
  H  H903  1  0.275833  0.568000  0.865400  1.0
  H  H904  1  0.109167  0.865400  0.297400  1.0
  H  H905  1  0.942500  0.297400  0.432000  1.0
  H  H906  1  0.775833  0.432000  0.134600  1.0
  H  H907  1  0.549900  0.498800  0.687300  1.0
  H  H908  1  0.383233  0.687300  0.188500  1.0
  H  H909  1  0.216567  0.188500  0.501200  1.0
  H  H910  1  0.049900  0.501200  0.312700  1.0
  H  H911  1  0.883233  0.312700  0.811500  1.0
  H  H912  1  0.716567  0.811500  0.498800  1.0
  H  H913  1  0.616767  0.188500  0.687300  1.0
  H  H914  1  0.450100  0.687300  0.498800  1.0
  H  H915  1  0.283433  0.498800  0.811500  1.0
  H  H916  1  0.116767  0.811500  0.312700  1.0
  H  H917  1  0.950100  0.312700  0.501200  1.0
  H  H918  1  0.783433  0.501200  0.188500  1.0
  H  H919  1  0.616100  0.524300  0.785400  1.0
  H  H920  1  0.449433  0.785400  0.261100  1.0
  H  H921  1  0.282767  0.261100  0.475700  1.0
  H  H922  1  0.116100  0.475700  0.214600  1.0
  H  H923  1  0.949433  0.214600  0.738900  1.0
  H  H924  1  0.782767  0.738900  0.524300  1.0
  H  H925  1  0.550567  0.261100  0.785400  1.0
  H  H926  1  0.383900  0.785400  0.524300  1.0
  H  H927  1  0.217233  0.524300  0.738900  1.0
  H  H928  1  0.050567  0.738900  0.214600  1.0
  H  H929  1  0.883900  0.214600  0.475700  1.0
  H  H930  1  0.717233  0.475700  0.261100  1.0
  H  H931  1  0.579700  0.478600  0.790600  1.0
  H  H932  1  0.413033  0.790600  0.312000  1.0
  H  H933  1  0.246367  0.312000  0.521400  1.0
  H  H934  1  0.079700  0.521400  0.209400  1.0
  H  H935  1  0.913033  0.209400  0.688000  1.0
  H  H936  1  0.746367  0.688000  0.478600  1.0
  H  H937  1  0.586967  0.312000  0.790600  1.0
  H  H938  1  0.420300  0.790600  0.478600  1.0
  H  H939  1  0.253633  0.478600  0.688000  1.0
  H  H940  1  0.086967  0.688000  0.209400  1.0
  H  H941  1  0.920300  0.209400  0.521400  1.0
  H  H942  1  0.753633  0.521400  0.312000  1.0
  H  H943  1  0.576600  0.426900  0.665700  1.0
  H  H944  1  0.409933  0.665700  0.238800  1.0
  H  H945  1  0.243267  0.238800  0.573100  1.0
  H  H946  1  0.076600  0.573100  0.334300  1.0
  H  H947  1  0.909933  0.334300  0.761200  1.0
  H  H948  1  0.743267  0.761200  0.426900  1.0
  H  H949  1  0.590067  0.238800  0.665700  1.0
  H  H950  1  0.423400  0.665700  0.426900  1.0
  H  H951  1  0.256733  0.426900  0.761200  1.0
  H  H952  1  0.090067  0.761200  0.334300  1.0
  H  H953  1  0.923400  0.334300  0.573100  1.0
  H  H954  1  0.756733  0.573100  0.238800  1.0
  H  H955  1  0.579900  0.361800  0.661700  1.0
  H  H956  1  0.413233  0.661700  0.299900  1.0
  H  H957  1  0.246567  0.299900  0.638200  1.0
  H  H958  1  0.079900  0.638200  0.338300  1.0
  H  H959  1  0.913233  0.338300  0.700100  1.0
  H  H960  1  0.746567  0.700100  0.361800  1.0
  H  H961  1  0.586767  0.299900  0.661700  1.0
  H  H962  1  0.420100  0.661700  0.361800  1.0
  H  H963  1  0.253433  0.361800  0.700100  1.0
  H  H964  1  0.086767  0.700100  0.338300  1.0
  H  H965  1  0.920100  0.338300  0.638200  1.0
  H  H966  1  0.753433  0.638200  0.299900  1.0
  C  C967  1  0.441000  0.171000  0.054000  1
  C  C968  1  0.274333  0.054000  0.883000  1
  C  C969  1  0.107667  0.883000  0.829000  1
  C  C970  1  0.941000  0.829000  0.946000  1
  C  C971  1  0.774333  0.946000  0.117000  1
  C  C972  1  0.607667  0.117000  0.171000  1
  C  C973  1  0.725667  0.883000  0.054000  1
  C  C974  1  0.559000  0.054000  0.171000  1
  C  C975  1  0.392333  0.171000  0.117000  1
  C  C976  1  0.225667  0.117000  0.946000  1
  C  C977  1  0.059000  0.946000  0.829000  1
  C  C978  1  0.892333  0.829000  0.883000  1
  C  C979  1  0.726000  0.883000  0.054000  1
  C  C980  1  0.559333  0.054000  0.171000  1
  C  C981  1  0.392667  0.171000  0.117000  1
  C  C982  1  0.226000  0.117000  0.946000  1
  C  C983  1  0.059333  0.946000  0.829000  1
  C  C984  1  0.892667  0.829000  0.883000  1
  C  C985  1  0.440667  0.171000  0.054000  1
  C  C986  1  0.274000  0.054000  0.883000  1
  C  C987  1  0.107333  0.883000  0.829000  1
  C  C988  1  0.940667  0.829000  0.946000  1
  C  C989  1  0.774000  0.946000  0.117000  1
  C  C990  1  0.607333  0.117000  0.171000  1
  C  C991  1  0.833900  0.612800  0.195200  1
  C  C992  1  0.667233  0.195200  0.582400  1
  C  C993  1  0.500567  0.582400  0.387200  1
  C  C994  1  0.333900  0.387200  0.804800  1
  C  C995  1  0.167233  0.804800  0.417600  1
  C  C996  1  0.000567  0.417600  0.612800  1
  C  C997  1  0.332767  0.582400  0.195200  1
  C  C998  1  0.166100  0.195200  0.612800  1
  C  C999  1  0.999433  0.612800  0.417600  1
  C  C1000  1  0.832767  0.417600  0.804800  1
  C  C1001  1  0.666100  0.804800  0.387200  1
  C  C1002  1  0.499433  0.387200  0.582400  1
  C  C1003  1  0.862600  0.757700  0.320700  1
  C  C1004  1  0.695933  0.320700  0.563000  1
  C  C1005  1  0.529267  0.563000  0.242300  1
  C  C1006  1  0.362600  0.242300  0.679300  1
  C  C1007  1  0.195933  0.679300  0.437000  1
  C  C1008  1  0.029267  0.437000  0.757700  1
  C  C1009  1  0.304067  0.563000  0.320700  1
  C  C1010  1  0.137400  0.320700  0.757700  1
  C  C1011  1  0.970733  0.757700  0.437000  1
  C  C1012  1  0.804067  0.437000  0.679300  1
  C  C1013  1  0.637400  0.679300  0.242300  1
  C  C1014  1  0.470733  0.242300  0.563000  1
  C  C1015  1  0.891700  0.354400  0.076200  1
  C  C1016  1  0.725033  0.076200  0.721800  1
  C  C1017  1  0.558367  0.721800  0.645600  1
  C  C1018  1  0.391700  0.645600  0.923800  1
  C  C1019  1  0.225033  0.923800  0.278200  1
  C  C1020  1  0.058367  0.278200  0.354400  1
  C  C1021  1  0.274967  0.721800  0.076200  1
  C  C1022  1  0.108300  0.076200  0.354400  1
  C  C1023  1  0.941633  0.354400  0.278200  1
  C  C1024  1  0.774967  0.278200  0.923800  1
  C  C1025  1  0.608300  0.923800  0.645600  1
  C  C1026  1  0.441633  0.645600  0.721800  1
  C  C1027  1  0.857100  0.490000  0.098700  1
  C  C1028  1  0.690433  0.098700  0.608700  1
  C  C1029  1  0.523767  0.608700  0.510000  1
  C  C1030  1  0.357100  0.510000  0.901300  1
  C  C1031  1  0.190433  0.901300  0.391300  1
  C  C1032  1  0.023767  0.391300  0.490000  1
  C  C1033  1  0.309567  0.608700  0.098700  1
  C  C1034  1  0.142900  0.098700  0.490000  1
  C  C1035  1  0.976233  0.490000  0.391300  1
  C  C1036  1  0.809567  0.391300  0.901300  1
  C  C1037  1  0.642900  0.901300  0.510000  1
  C  C1038  1  0.476233  0.510000  0.608700  1
  C  C1039  1  0.646300  0.558500  0.924600  1
  C  C1040  1  0.479633  0.924600  0.366100  1
  C  C1041  1  0.312967  0.366100  0.441500  1
  C  C1042  1  0.146300  0.441500  0.075400  1
  C  C1043  1  0.979633  0.075400  0.633900  1
  C  C1044  1  0.812967  0.633900  0.558500  1
  C  C1045  1  0.520367  0.366100  0.924600  1
  C  C1046  1  0.353700  0.924600  0.558500  1
  C  C1047  1  0.187033  0.558500  0.633900  1
  C  C1048  1  0.020367  0.633900  0.075400  1
  C  C1049  1  0.853700  0.075400  0.441500  1
  C  C1050  1  0.687033  0.441500  0.366100  1
  C  C1051  1  0.446000  0.111500  0.977500  1
  C  C1052  1  0.279333  0.977500  0.866000  1
  C  C1053  1  0.112667  0.866000  0.888500  1
  C  C1054  1  0.946000  0.888500  0.022500  1
  C  C1055  1  0.779333  0.022500  0.134000  1
  C  C1056  1  0.612667  0.134000  0.111500  1
  C  C1057  1  0.720667  0.866000  0.977500  1
  C  C1058  1  0.554000  0.977500  0.111500  1
  C  C1059  1  0.387333  0.111500  0.134000  1
  C  C1060  1  0.220667  0.134000  0.022500  1
  C  C1061  1  0.054000  0.022500  0.888500  1
  C  C1062  1  0.887333  0.888500  0.866000  1
  C  C1063  1  0.602500  0.165400  0.942600  1.0
  C  C1064  1  0.435833  0.942600  0.777200  1.0
  C  C1065  1  0.269167  0.777200  0.834600  1.0
  C  C1066  1  0.102500  0.834600  0.057400  1.0
  C  C1067  1  0.935833  0.057400  0.222800  1.0
  C  C1068  1  0.769167  0.222800  0.165400  1.0
  C  C1069  1  0.564167  0.777200  0.942600  1.0
  C  C1070  1  0.397500  0.942600  0.165400  1.0
  C  C1071  1  0.230833  0.165400  0.222800  1.0
  C  C1072  1  0.064167  0.222800  0.057400  1.0
  C  C1073  1  0.897500  0.057400  0.834600  1.0
  C  C1074  1  0.730833  0.834600  0.777200  1.0
  C  C1075  1  0.598300  0.190100  0.986100  1.0
  C  C1076  1  0.431633  0.986100  0.796000  1.0
  C  C1077  1  0.264967  0.796000  0.809900  1.0
  C  C1078  1  0.098300  0.809900  0.013900  1.0
  C  C1079  1  0.931633  0.013900  0.204000  1.0
  C  C1080  1  0.764967  0.204000  0.190100  1.0
  C  C1081  1  0.568367  0.796000  0.986100  1.0
  C  C1082  1  0.401700  0.986100  0.190100  1.0
  C  C1083  1  0.235033  0.190100  0.204000  1.0
  C  C1084  1  0.068367  0.204000  0.013900  1.0
  C  C1085  1  0.901700  0.013900  0.809900  1.0
  C  C1086  1  0.735033  0.809900  0.796000  1.0
  C  C1087  1  0.588800  0.172900  0.011000  1.0
  C  C1088  1  0.422133  0.011000  0.838100  1.0
  C  C1089  1  0.255467  0.838100  0.827100  1.0
  C  C1090  1  0.088800  0.827100  0.989000  1.0
  C  C1091  1  0.922133  0.989000  0.161900  1.0
  C  C1092  1  0.755467  0.161900  0.172900  1.0
  C  C1093  1  0.577867  0.838100  0.011000  1.0
  C  C1094  1  0.411200  0.011000  0.172900  1.0
  C  C1095  1  0.244533  0.172900  0.161900  1.0
  C  C1096  1  0.077867  0.161900  0.989000  1.0
  C  C1097  1  0.911200  0.989000  0.827100  1.0
  C  C1098  1  0.744533  0.827100  0.838100  1.0
  C  C1099  1  0.583800  0.129500  0.991300  1.0
  C  C1100  1  0.417133  0.991300  0.861800  1.0
  C  C1101  1  0.250467  0.861800  0.870500  1.0
  C  C1102  1  0.083800  0.870500  0.008700  1.0
  C  C1103  1  0.917133  0.008700  0.138200  1.0
  C  C1104  1  0.750467  0.138200  0.129500  1.0
  C  C1105  1  0.582867  0.861800  0.991300  1.0
  C  C1106  1  0.416200  0.991300  0.129500  1.0
  C  C1107  1  0.249533  0.129500  0.138200  1.0
  C  C1108  1  0.082867  0.138200  0.008700  1.0
  C  C1109  1  0.916200  0.008700  0.870500  1.0
  C  C1110  1  0.749533  0.870500  0.861800  1.0
  C  C1111  1  0.589700  0.104200  0.948300  1.0
  C  C1112  1  0.423033  0.948300  0.844100  1.0
  C  C1113  1  0.256367  0.844100  0.895800  1.0
  C  C1114  1  0.089700  0.895800  0.051700  1.0
  C  C1115  1  0.923033  0.051700  0.155900  1.0
  C  C1116  1  0.756367  0.155900  0.104200  1.0
  C  C1117  1  0.576967  0.844100  0.948300  1.0
  C  C1118  1  0.410300  0.948300  0.104200  1.0
  C  C1119  1  0.243633  0.104200  0.155900  1.0
  C  C1120  1  0.076967  0.155900  0.051700  1.0
  C  C1121  1  0.910300  0.051700  0.895800  1.0
  C  C1122  1  0.743633  0.895800  0.844100  1.0
  C  C1123  1  0.599000  0.122100  0.924200  1.0
  C  C1124  1  0.432333  0.924200  0.802100  1.0
  C  C1125  1  0.265667  0.802100  0.877900  1.0
  C  C1126  1  0.099000  0.877900  0.075800  1.0
  C  C1127  1  0.932333  0.075800  0.197900  1.0
  C  C1128  1  0.765667  0.197900  0.122100  1.0
  C  C1129  1  0.567667  0.802100  0.924200  1.0
  C  C1130  1  0.401000  0.924200  0.122100  1.0
  C  C1131  1  0.234333  0.122100  0.197900  1.0
  C  C1132  1  0.067667  0.197900  0.075800  1.0
  C  C1133  1  0.901000  0.075800  0.877900  1.0
  C  C1134  1  0.734333  0.877900  0.802100  1.0
  C  C1135  1  0.563600  0.130400  0.054600  1.0
  C  C1136  1  0.396933  0.054600  0.924200  1.0
  C  C1137  1  0.230267  0.924200  0.869600  1.0
  C  C1138  1  0.063600  0.869600  0.945400  1.0
  C  C1139  1  0.896933  0.945400  0.075800  1.0
  C  C1140  1  0.730267  0.075800  0.130400  1.0
  C  C1141  1  0.603067  0.924200  0.054600  1.0
  C  C1142  1  0.436400  0.054600  0.130400  1.0
  C  C1143  1  0.269733  0.130400  0.075800  1.0
  C  C1144  1  0.103067  0.075800  0.945400  1.0
  C  C1145  1  0.936400  0.945400  0.869600  1.0
  C  C1146  1  0.769733  0.869600  0.924200  1.0
  C  C1147  1  0.635600  0.171100  0.889900  1.0
  C  C1148  1  0.468933  0.889900  0.718800  1.0
  C  C1149  1  0.302267  0.718800  0.828900  1.0
  C  C1150  1  0.135600  0.828900  0.110100  1.0
  C  C1151  1  0.968933  0.110100  0.281200  1.0
  C  C1152  1  0.802267  0.281200  0.171100  1.0
  C  C1153  1  0.531067  0.718800  0.889900  1.0
  C  C1154  1  0.364400  0.889900  0.171100  1.0
  C  C1155  1  0.197733  0.171100  0.281200  1.0
  C  C1156  1  0.031067  0.281200  0.110100  1.0
  C  C1157  1  0.864400  0.110100  0.828900  1.0
  C  C1158  1  0.697733  0.828900  0.718800  1.0
  C  C1159  1  0.644900  0.190700  0.864700  1.0
  C  C1160  1  0.478233  0.864700  0.674000  1.0
  C  C1161  1  0.311567  0.674000  0.809300  1.0
  C  C1162  1  0.144900  0.809300  0.135300  1.0
  C  C1163  1  0.978233  0.135300  0.326000  1.0
  C  C1164  1  0.811567  0.326000  0.190700  1.0
  C  C1165  1  0.521767  0.674000  0.864700  1.0
  C  C1166  1  0.355100  0.864700  0.190700  1.0
  C  C1167  1  0.188433  0.190700  0.326000  1.0
  C  C1168  1  0.021767  0.326000  0.135300  1.0
  C  C1169  1  0.855100  0.135300  0.809300  1.0
  C  C1170  1  0.688433  0.809300  0.674000  1.0
  C  C1171  1  0.673800  0.176000  0.835100  1.0
  C  C1172  1  0.507133  0.835100  0.659100  1.0
  C  C1173  1  0.340467  0.659100  0.824000  1.0
  C  C1174  1  0.173800  0.824000  0.164900  1.0
  C  C1175  1  0.007133  0.164900  0.340900  1.0
  C  C1176  1  0.840467  0.340900  0.176000  1.0
  C  C1177  1  0.492867  0.659100  0.835100  1.0
  C  C1178  1  0.326200  0.835100  0.176000  1.0
  C  C1179  1  0.159533  0.176000  0.340900  1.0
  C  C1180  1  0.992867  0.340900  0.164900  1.0
  C  C1181  1  0.826200  0.164900  0.824000  1.0
  C  C1182  1  0.659533  0.824000  0.659100  1.0
  C  C1183  1  0.683800  0.196600  0.813700  1.0
  C  C1184  1  0.517133  0.813700  0.617100  1.0
  C  C1185  1  0.350467  0.617100  0.803400  1.0
  C  C1186  1  0.183800  0.803400  0.186300  1.0
  C  C1187  1  0.017133  0.186300  0.382900  1.0
  C  C1188  1  0.850467  0.382900  0.196600  1.0
  C  C1189  1  0.482867  0.617100  0.813700  1.0
  C  C1190  1  0.316200  0.813700  0.196600  1.0
  C  C1191  1  0.149533  0.196600  0.382900  1.0
  C  C1192  1  0.982867  0.382900  0.186300  1.0
  C  C1193  1  0.816200  0.186300  0.803400  1.0
  C  C1194  1  0.649533  0.803400  0.617100  1.0
  C  C1195  1  0.663000  0.232100  0.821700  1.0
  C  C1196  1  0.496333  0.821700  0.589600  1.0
  C  C1197  1  0.329667  0.589600  0.767900  1.0
  C  C1198  1  0.163000  0.767900  0.178300  1.0
  C  C1199  1  0.996333  0.178300  0.410400  1.0
  C  C1200  1  0.829667  0.410400  0.232100  1.0
  C  C1201  1  0.503667  0.589600  0.821700  1.0
  C  C1202  1  0.337000  0.821700  0.232100  1.0
  C  C1203  1  0.170333  0.232100  0.410400  1.0
  C  C1204  1  0.003667  0.410400  0.178300  1.0
  C  C1205  1  0.837000  0.178300  0.767900  1.0
  C  C1206  1  0.670333  0.767900  0.589600  1.0
  C  C1207  1  0.633700  0.243800  0.850600  1.0
  C  C1208  1  0.467033  0.850600  0.606800  1.0
  C  C1209  1  0.300367  0.606800  0.756200  1.0
  C  C1210  1  0.133700  0.756200  0.149400  1.0
  C  C1211  1  0.967033  0.149400  0.393200  1.0
  C  C1212  1  0.800367  0.393200  0.243800  1.0
  C  C1213  1  0.532967  0.606800  0.850600  1.0
  C  C1214  1  0.366300  0.850600  0.243800  1.0
  C  C1215  1  0.199633  0.243800  0.393200  1.0
  C  C1216  1  0.032967  0.393200  0.149400  1.0
  C  C1217  1  0.866300  0.149400  0.756200  1.0
  C  C1218  1  0.699633  0.756200  0.606800  1.0
  C  C1219  1  0.671300  0.301100  0.826900  1.0
  C  C1220  1  0.504633  0.826900  0.525800  1.0
  C  C1221  1  0.337967  0.525800  0.698900  1.0
  C  C1222  1  0.171300  0.698900  0.173100  1.0
  C  C1223  1  0.004633  0.173100  0.474200  1.0
  C  C1224  1  0.837967  0.474200  0.301100  1.0
  C  C1225  1  0.495367  0.525800  0.826900  1.0
  C  C1226  1  0.328700  0.826900  0.301100  1.0
  C  C1227  1  0.162033  0.301100  0.474200  1.0
  C  C1228  1  0.995367  0.474200  0.173100  1.0
  C  C1229  1  0.828700  0.173100  0.698900  1.0
  C  C1230  1  0.662033  0.698900  0.525800  1.0
  C  C1231  1  0.674000  0.257800  0.802500  1.0
  C  C1232  1  0.507333  0.802500  0.544700  1.0
  C  C1233  1  0.340667  0.544700  0.742200  1.0
  C  C1234  1  0.174000  0.742200  0.197500  1.0
  C  C1235  1  0.007333  0.197500  0.455300  1.0
  C  C1236  1  0.840667  0.455300  0.257800  1.0
  C  C1237  1  0.492667  0.544700  0.802500  1.0
  C  C1238  1  0.326000  0.802500  0.257800  1.0
  C  C1239  1  0.159333  0.257800  0.455300  1.0
  C  C1240  1  0.992667  0.455300  0.197500  1.0
  C  C1241  1  0.826000  0.197500  0.742200  1.0
  C  C1242  1  0.659333  0.742200  0.544700  1.0
  C  C1243  1  0.683300  0.241800  0.760900  1.0
  C  C1244  1  0.516633  0.760900  0.519100  1.0
  C  C1245  1  0.349967  0.519100  0.758200  1.0
  C  C1246  1  0.183300  0.758200  0.239100  1.0
  C  C1247  1  0.016633  0.239100  0.480900  1.0
  C  C1248  1  0.849967  0.480900  0.241800  1.0
  C  C1249  1  0.483367  0.519100  0.760900  1.0
  C  C1250  1  0.316700  0.760900  0.241800  1.0
  C  C1251  1  0.150033  0.241800  0.480900  1.0
  C  C1252  1  0.983367  0.480900  0.239100  1.0
  C  C1253  1  0.816700  0.239100  0.758200  1.0
  C  C1254  1  0.650033  0.758200  0.519100  1.0
  C  C1255  1  0.687800  0.268000  0.744700  1.0
  C  C1256  1  0.521133  0.744700  0.476700  1.0
  C  C1257  1  0.354467  0.476700  0.732000  1.0
  C  C1258  1  0.187800  0.732000  0.255300  1.0
  C  C1259  1  0.021133  0.255300  0.523300  1.0
  C  C1260  1  0.854467  0.523300  0.268000  1.0
  C  C1261  1  0.478867  0.476700  0.744700  1.0
  C  C1262  1  0.312200  0.744700  0.268000  1.0
  C  C1263  1  0.145533  0.268000  0.523300  1.0
  C  C1264  1  0.978867  0.523300  0.255300  1.0
  C  C1265  1  0.812200  0.255300  0.732000  1.0
  C  C1266  1  0.645533  0.732000  0.476700  1.0
  C  C1267  1  0.683800  0.311200  0.771000  1.0
  C  C1268  1  0.517133  0.771000  0.459800  1.0
  C  C1269  1  0.350467  0.459800  0.688800  1.0
  C  C1270  1  0.183800  0.688800  0.229000  1.0
  C  C1271  1  0.017133  0.229000  0.540200  1.0
  C  C1272  1  0.850467  0.540200  0.311200  1.0
  C  C1273  1  0.482867  0.459800  0.771000  1.0
  C  C1274  1  0.316200  0.771000  0.311200  1.0
  C  C1275  1  0.149533  0.311200  0.540200  1.0
  C  C1276  1  0.982867  0.540200  0.229000  1.0
  C  C1277  1  0.816200  0.229000  0.688800  1.0
  C  C1278  1  0.649533  0.688800  0.459800  1.0
  C  C1279  1  0.688600  0.340500  0.754600  1.0
  C  C1280  1  0.521933  0.754600  0.414100  1.0
  C  C1281  1  0.355267  0.414100  0.659500  1.0
  C  C1282  1  0.188600  0.659500  0.245400  1.0
  C  C1283  1  0.021933  0.245400  0.585900  1.0
  C  C1284  1  0.855267  0.585900  0.340500  1.0
  C  C1285  1  0.478067  0.414100  0.754600  1.0
  C  C1286  1  0.311400  0.754600  0.340500  1.0
  C  C1287  1  0.144733  0.340500  0.585900  1.0
  C  C1288  1  0.978067  0.585900  0.245400  1.0
  C  C1289  1  0.811400  0.245400  0.659500  1.0
  C  C1290  1  0.644733  0.659500  0.414100  1.0
  C  C1291  1  0.692800  0.327900  0.712500  1.0
  C  C1292  1  0.526133  0.712500  0.384600  1.0
  C  C1293  1  0.359467  0.384600  0.672100  1.0
  C  C1294  1  0.192800  0.672100  0.287500  1.0
  C  C1295  1  0.026133  0.287500  0.615400  1.0
  C  C1296  1  0.859467  0.615400  0.327900  1.0
  C  C1297  1  0.473867  0.384600  0.712500  1.0
  C  C1298  1  0.307200  0.712500  0.327900  1.0
  C  C1299  1  0.140533  0.327900  0.615400  1.0
  C  C1300  1  0.973867  0.615400  0.287500  1.0
  C  C1301  1  0.807200  0.287500  0.672100  1.0
  C  C1302  1  0.640533  0.672100  0.384600  1.0
  C  C1303  1  0.692200  0.357700  0.699600  1.0
  C  C1304  1  0.525533  0.699600  0.341900  1.0
  C  C1305  1  0.358867  0.341900  0.642300  1.0
  C  C1306  1  0.192200  0.642300  0.300400  1.0
  C  C1307  1  0.025533  0.300400  0.658100  1.0
  C  C1308  1  0.858867  0.658100  0.357700  1.0
  C  C1309  1  0.474467  0.341900  0.699600  1.0
  C  C1310  1  0.307800  0.699600  0.357700  1.0
  C  C1311  1  0.141133  0.357700  0.658100  1.0
  C  C1312  1  0.974467  0.658100  0.300400  1.0
  C  C1313  1  0.807800  0.300400  0.642300  1.0
  C  C1314  1  0.641133  0.642300  0.341900  1.0
  C  C1315  1  0.688300  0.399900  0.729100  1.0
  C  C1316  1  0.521633  0.729100  0.329200  1.0
  C  C1317  1  0.354967  0.329200  0.600100  1.0
  C  C1318  1  0.188300  0.600100  0.270900  1.0
  C  C1319  1  0.021633  0.270900  0.670800  1.0
  C  C1320  1  0.854967  0.670800  0.399900  1.0
  C  C1321  1  0.478367  0.329200  0.729100  1.0
  C  C1322  1  0.311700  0.729100  0.399900  1.0
  C  C1323  1  0.145033  0.399900  0.670800  1.0
  C  C1324  1  0.978367  0.670800  0.270900  1.0
  C  C1325  1  0.811700  0.270900  0.600100  1.0
  C  C1326  1  0.645033  0.600100  0.329200  1.0
  C  C1327  1  0.686600  0.408300  0.770300  1.0
  C  C1328  1  0.519933  0.770300  0.362000  1.0
  C  C1329  1  0.353267  0.362000  0.591700  1.0
  C  C1330  1  0.186600  0.591700  0.229700  1.0
  C  C1331  1  0.019933  0.229700  0.638000  1.0
  C  C1332  1  0.853267  0.638000  0.408300  1.0
  C  C1333  1  0.480067  0.362000  0.770300  1.0
  C  C1334  1  0.313400  0.770300  0.408300  1.0
  C  C1335  1  0.146733  0.408300  0.638000  1.0
  C  C1336  1  0.980067  0.638000  0.229700  1.0
  C  C1337  1  0.813400  0.229700  0.591700  1.0
  C  C1338  1  0.646733  0.591700  0.362000  1.0
  C  C1339  1  0.698400  0.474400  0.746300  1.0
  C  C1340  1  0.531733  0.746300  0.271900  1.0
  C  C1341  1  0.365067  0.271900  0.525600  1.0
  C  C1342  1  0.198400  0.525600  0.253700  1.0
  C  C1343  1  0.031733  0.253700  0.728100  1.0
  C  C1344  1  0.865067  0.728100  0.474400  1.0
  C  C1345  1  0.468267  0.271900  0.746300  1.0
  C  C1346  1  0.301600  0.746300  0.474400  1.0
  C  C1347  1  0.134933  0.474400  0.728100  1.0
  C  C1348  1  0.968267  0.728100  0.253700  1.0
  C  C1349  1  0.801600  0.253700  0.525600  1.0
  C  C1350  1  0.634933  0.525600  0.271900  1.0
  C  C1351  1  0.687900  0.433400  0.718100  1.0
  C  C1352  1  0.521233  0.718100  0.284700  1.0
  C  C1353  1  0.354567  0.284700  0.566600  1.0
  C  C1354  1  0.187900  0.566600  0.281900  1.0
  C  C1355  1  0.021233  0.281900  0.715300  1.0
  C  C1356  1  0.854567  0.715300  0.433400  1.0
  C  C1357  1  0.478767  0.284700  0.718100  1.0
  C  C1358  1  0.312100  0.718100  0.433400  1.0
  C  C1359  1  0.145433  0.433400  0.715300  1.0
  C  C1360  1  0.978767  0.715300  0.281900  1.0
  C  C1361  1  0.812100  0.281900  0.566600  1.0
  C  C1362  1  0.645433  0.566600  0.284700  1.0
  C  C1363  1  0.672700  0.427500  0.680700  1.0
  C  C1364  1  0.506033  0.680700  0.253200  1.0
  C  C1365  1  0.339367  0.253200  0.572500  1.0
  C  C1366  1  0.172700  0.572500  0.319300  1.0
  C  C1367  1  0.006033  0.319300  0.746800  1.0
  C  C1368  1  0.839367  0.746800  0.427500  1.0
  C  C1369  1  0.493967  0.253200  0.680700  1.0
  C  C1370  1  0.327300  0.680700  0.427500  1.0
  C  C1371  1  0.160633  0.427500  0.746800  1.0
  C  C1372  1  0.993967  0.746800  0.319300  1.0
  C  C1373  1  0.827300  0.319300  0.572500  1.0
  C  C1374  1  0.660633  0.572500  0.253200  1.0
  C  C1375  1  0.669600  0.460000  0.672200  1.0
  C  C1376  1  0.502933  0.672200  0.212200  1.0
  C  C1377  1  0.336267  0.212200  0.540000  1.0
  C  C1378  1  0.169600  0.540000  0.327800  1.0
  C  C1379  1  0.002933  0.327800  0.787800  1.0
  C  C1380  1  0.836267  0.787800  0.460000  1.0
  C  C1381  1  0.497067  0.212200  0.672200  1.0
  C  C1382  1  0.330400  0.672200  0.460000  1.0
  C  C1383  1  0.163733  0.460000  0.787800  1.0
  C  C1384  1  0.997067  0.787800  0.327800  1.0
  C  C1385  1  0.830400  0.327800  0.540000  1.0
  C  C1386  1  0.663733  0.540000  0.212200  1.0
  C  C1387  1  0.681800  0.499600  0.702500  1.0
  C  C1388  1  0.515133  0.702500  0.202900  1.0
  C  C1389  1  0.348467  0.202900  0.500400  1.0
  C  C1390  1  0.181800  0.500400  0.297500  1.0
  C  C1391  1  0.015133  0.297500  0.797100  1.0
  C  C1392  1  0.848467  0.797100  0.499600  1.0
  C  C1393  1  0.484867  0.202900  0.702500  1.0
  C  C1394  1  0.318200  0.702500  0.499600  1.0
  C  C1395  1  0.151533  0.499600  0.797100  1.0
  C  C1396  1  0.984867  0.797100  0.297500  1.0
  C  C1397  1  0.818200  0.297500  0.500400  1.0
  C  C1398  1  0.651533  0.500400  0.202900  1.0
  C  C1399  1  0.681300  0.537100  0.698200  1.0
  C  C1400  1  0.514633  0.698200  0.161100  1.0
  C  C1401  1  0.347967  0.161100  0.462900  1.0
  C  C1402  1  0.181300  0.462900  0.301800  1.0
  C  C1403  1  0.014633  0.301800  0.838900  1.0
  C  C1404  1  0.847967  0.838900  0.537100  1.0
  C  C1405  1  0.485367  0.161100  0.698200  1.0
  C  C1406  1  0.318700  0.698200  0.537100  1.0
  C  C1407  1  0.152033  0.537100  0.838900  1.0
  C  C1408  1  0.985367  0.838900  0.301800  1.0
  C  C1409  1  0.818700  0.301800  0.462900  1.0
  C  C1410  1  0.652033  0.462900  0.161100  1.0
  C  C1411  1  0.687400  0.610000  0.726300  1.0
  C  C1412  1  0.520733  0.726300  0.116300  1.0
  C  C1413  1  0.354067  0.116300  0.390000  1.0
  C  C1414  1  0.187400  0.390000  0.273700  1.0
  C  C1415  1  0.020733  0.273700  0.883700  1.0
  C  C1416  1  0.854067  0.883700  0.610000  1.0
  C  C1417  1  0.479267  0.116300  0.726300  1.0
  C  C1418  1  0.312600  0.726300  0.610000  1.0
  C  C1419  1  0.145933  0.610000  0.883700  1.0
  C  C1420  1  0.979267  0.883700  0.273700  1.0
  C  C1421  1  0.812600  0.273700  0.390000  1.0
  C  C1422  1  0.645933  0.390000  0.116300  1.0
  C  C1423  1  0.660000  0.614200  0.701900  1.0
  C  C1424  1  0.493333  0.701900  0.087700  1.0
  C  C1425  1  0.326667  0.087700  0.385800  1.0
  C  C1426  1  0.160000  0.385800  0.298100  1.0
  C  C1427  1  0.993333  0.298100  0.912300  1.0
  C  C1428  1  0.826667  0.912300  0.614200  1.0
  C  C1429  1  0.506667  0.087700  0.701900  1.0
  C  C1430  1  0.340000  0.701900  0.614200  1.0
  C  C1431  1  0.173333  0.614200  0.912300  1.0
  C  C1432  1  0.006667  0.912300  0.298100  1.0
  C  C1433  1  0.840000  0.298100  0.385800  1.0
  C  C1434  1  0.673333  0.385800  0.087700  1.0
  C  C1435  1  0.655200  0.652400  0.703900  1.0
  C  C1436  1  0.488533  0.703900  0.051500  1.0
  C  C1437  1  0.321867  0.051500  0.347600  1.0
  C  C1438  1  0.155200  0.347600  0.296100  1.0
  C  C1439  1  0.988533  0.296100  0.948500  1.0
  C  C1440  1  0.821867  0.948500  0.652400  1.0
  C  C1441  1  0.511467  0.051500  0.703900  1.0
  C  C1442  1  0.344800  0.703900  0.652400  1.0
  C  C1443  1  0.178133  0.652400  0.948500  1.0
  C  C1444  1  0.011467  0.948500  0.296100  1.0
  C  C1445  1  0.844800  0.296100  0.347600  1.0
  C  C1446  1  0.678133  0.347600  0.051500  1.0
  C  C1447  1  0.677700  0.686100  0.730200  1.0
  C  C1448  1  0.511033  0.730200  0.044100  1.0
  C  C1449  1  0.344367  0.044100  0.313900  1.0
  C  C1450  1  0.177700  0.313900  0.269800  1.0
  C  C1451  1  0.011033  0.269800  0.955900  1.0
  C  C1452  1  0.844367  0.955900  0.686100  1.0
  C  C1453  1  0.488967  0.044100  0.730200  1.0
  C  C1454  1  0.322300  0.730200  0.686100  1.0
  C  C1455  1  0.155633  0.686100  0.955900  1.0
  C  C1456  1  0.988967  0.955900  0.269800  1.0
  C  C1457  1  0.822300  0.269800  0.313900  1.0
  C  C1458  1  0.655633  0.313900  0.044100  1.0
  C  C1459  1  0.705300  0.681600  0.754500  1.0
  C  C1460  1  0.538633  0.754500  0.072900  1.0
  C  C1461  1  0.371967  0.072900  0.318400  1.0
  C  C1462  1  0.205300  0.318400  0.245500  1.0
  C  C1463  1  0.038633  0.245500  0.927100  1.0
  C  C1464  1  0.871967  0.927100  0.681600  1.0
  C  C1465  1  0.461367  0.072900  0.754500  1.0
  C  C1466  1  0.294700  0.754500  0.681600  1.0
  C  C1467  1  0.128033  0.681600  0.927100  1.0
  C  C1468  1  0.961367  0.927100  0.245500  1.0
  C  C1469  1  0.794700  0.245500  0.318400  1.0
  C  C1470  1  0.628033  0.318400  0.072900  1.0
  C  C1471  1  0.710600  0.643500  0.752600  1.0
  C  C1472  1  0.543933  0.752600  0.109100  1.0
  C  C1473  1  0.377267  0.109100  0.356500  1.0
  C  C1474  1  0.210600  0.356500  0.247400  1.0
  C  C1475  1  0.043933  0.247400  0.890900  1.0
  C  C1476  1  0.877267  0.890900  0.643500  1.0
  C  C1477  1  0.456067  0.109100  0.752600  1.0
  C  C1478  1  0.289400  0.752600  0.643500  1.0
  C  C1479  1  0.122733  0.643500  0.890900  1.0
  C  C1480  1  0.956067  0.890900  0.247400  1.0
  C  C1481  1  0.789400  0.247400  0.356500  1.0
  C  C1482  1  0.622733  0.356500  0.109100  1.0
  C  C1483  1  0.643600  0.734100  0.717300  1.0
  C  C1484  1  0.476933  0.717300  0.983200  1.0
  C  C1485  1  0.310267  0.983200  0.265900  1.0
  C  C1486  1  0.143600  0.265900  0.282700  1.0
  C  C1487  1  0.976933  0.282700  0.016800  1.0
  C  C1488  1  0.810267  0.016800  0.734100  1.0
  C  C1489  1  0.523067  0.983200  0.717300  1.0
  C  C1490  1  0.356400  0.717300  0.734100  1.0
  C  C1491  1  0.189733  0.734100  0.016800  1.0
  C  C1492  1  0.023067  0.016800  0.282700  1.0
  C  C1493  1  0.856400  0.282700  0.265900  1.0
  C  C1494  1  0.689733  0.265900  0.983200  1.0
  C  C1495  1  0.795800  0.576500  0.729300  1.0
  C  C1496  1  0.629133  0.729300  0.152800  1.0
  C  C1497  1  0.462467  0.152800  0.423500  1.0
  C  C1498  1  0.295800  0.423500  0.270700  1.0
  C  C1499  1  0.129133  0.270700  0.847200  1.0
  C  C1500  1  0.962467  0.847200  0.576500  1.0
  C  C1501  1  0.370867  0.152800  0.729300  1.0
  C  C1502  1  0.204200  0.729300  0.576500  1.0
  C  C1503  1  0.037533  0.576500  0.847200  1.0
  C  C1504  1  0.870867  0.847200  0.270700  1.0
  C  C1505  1  0.704200  0.270700  0.423500  1.0
  C  C1506  1  0.537533  0.423500  0.152800  1.0
  C  C1507  1  0.786500  0.552000  0.686900  1.0
  C  C1508  1  0.619833  0.686900  0.134900  1.0
  C  C1509  1  0.453167  0.134900  0.448000  1.0
  C  C1510  1  0.286500  0.448000  0.313100  1.0
  C  C1511  1  0.119833  0.313100  0.865100  1.0
  C  C1512  1  0.953167  0.865100  0.552000  1.0
  C  C1513  1  0.380167  0.134900  0.686900  1.0
  C  C1514  1  0.213500  0.686900  0.552000  1.0
  C  C1515  1  0.046833  0.552000  0.865100  1.0
  C  C1516  1  0.880167  0.865100  0.313100  1.0
  C  C1517  1  0.713500  0.313100  0.448000  1.0
  C  C1518  1  0.546833  0.448000  0.134900  1.0
  C  C1519  1  0.805000  0.558500  0.657300  1.0
  C  C1520  1  0.638333  0.657300  0.098800  1.0
  C  C1521  1  0.471667  0.098800  0.441500  1.0
  C  C1522  1  0.305000  0.441500  0.342700  1.0
  C  C1523  1  0.138333  0.342700  0.901200  1.0
  C  C1524  1  0.971667  0.901200  0.558500  1.0
  C  C1525  1  0.361667  0.098800  0.657300  1.0
  C  C1526  1  0.195000  0.657300  0.558500  1.0
  C  C1527  1  0.028333  0.558500  0.901200  1.0
  C  C1528  1  0.861667  0.901200  0.342700  1.0
  C  C1529  1  0.695000  0.342700  0.441500  1.0
  C  C1530  1  0.528333  0.441500  0.098800  1.0
  C  C1531  1  0.831800  0.590300  0.671600  1.0
  C  C1532  1  0.665133  0.671600  0.081300  1.0
  C  C1533  1  0.498467  0.081300  0.409700  1.0
  C  C1534  1  0.331800  0.409700  0.328400  1.0
  C  C1535  1  0.165133  0.328400  0.918700  1.0
  C  C1536  1  0.998467  0.918700  0.590300  1.0
  C  C1537  1  0.334867  0.081300  0.671600  1.0
  C  C1538  1  0.168200  0.671600  0.590300  1.0
  C  C1539  1  0.001533  0.590300  0.918700  1.0
  C  C1540  1  0.834867  0.918700  0.328400  1.0
  C  C1541  1  0.668200  0.328400  0.409700  1.0
  C  C1542  1  0.501533  0.409700  0.081300  1.0
  C  C1543  1  0.840700  0.615500  0.713200  1.0
  C  C1544  1  0.674033  0.713200  0.097700  1.0
  C  C1545  1  0.507367  0.097700  0.384500  1.0
  C  C1546  1  0.340700  0.384500  0.286800  1.0
  C  C1547  1  0.174033  0.286800  0.902300  1.0
  C  C1548  1  0.007367  0.902300  0.615500  1.0
  C  C1549  1  0.325967  0.097700  0.713200  1.0
  C  C1550  1  0.159300  0.713200  0.615500  1.0
  C  C1551  1  0.992633  0.615500  0.902300  1.0
  C  C1552  1  0.825967  0.902300  0.286800  1.0
  C  C1553  1  0.659300  0.286800  0.384500  1.0
  C  C1554  1  0.492633  0.384500  0.097700  1.0
  C  C1555  1  0.822500  0.608700  0.742600  1.0
  C  C1556  1  0.655833  0.742600  0.133900  1.0
  C  C1557  1  0.489167  0.133900  0.391300  1.0
  C  C1558  1  0.322500  0.391300  0.257400  1.0
  C  C1559  1  0.155833  0.257400  0.866100  1.0
  C  C1560  1  0.989167  0.866100  0.608700  1.0
  C  C1561  1  0.344167  0.133900  0.742600  1.0
  C  C1562  1  0.177500  0.742600  0.608700  1.0
  C  C1563  1  0.010833  0.608700  0.866100  1.0
  C  C1564  1  0.844167  0.866100  0.257400  1.0
  C  C1565  1  0.677500  0.257400  0.391300  1.0
  C  C1566  1  0.510833  0.391300  0.133900  1.0
  C  C1567  1  0.847600  0.578600  0.604100  1.0
  C  C1568  1  0.680933  0.604100  0.025500  1.0
  C  C1569  1  0.514267  0.025500  0.421400  1.0
  C  C1570  1  0.347600  0.421400  0.395900  1.0
  C  C1571  1  0.180933  0.395900  0.974500  1.0
  C  C1572  1  0.014267  0.974500  0.578600  1.0
  C  C1573  1  0.319067  0.025500  0.604100  1.0
  C  C1574  1  0.152400  0.604100  0.578600  1.0
  C  C1575  1  0.985733  0.578600  0.974500  1.0
  C  C1576  1  0.819067  0.974500  0.395900  1.0
  C  C1577  1  0.652400  0.395900  0.421400  1.0
  C  C1578  1  0.485733  0.421400  0.025500  1.0
  C  C1579  1  0.804700  0.566800  0.786400  1.0
  C  C1580  1  0.638033  0.786400  0.219600  1.0
  C  C1581  1  0.471367  0.219600  0.433200  1.0
  C  C1582  1  0.304700  0.433200  0.213600  1.0
  C  C1583  1  0.138033  0.213600  0.780400  1.0
  C  C1584  1  0.971367  0.780400  0.566800  1.0
  C  C1585  1  0.361967  0.219600  0.786400  1.0
  C  C1586  1  0.195300  0.786400  0.566800  1.0
  C  C1587  1  0.028633  0.566800  0.780400  1.0
  C  C1588  1  0.861967  0.780400  0.213600  1.0
  C  C1589  1  0.695300  0.213600  0.433200  1.0
  C  C1590  1  0.528633  0.433200  0.219600  1.0
  C  C1591  1  0.791700  0.557300  0.818500  1.0
  C  C1592  1  0.625033  0.818500  0.261200  1.0
  C  C1593  1  0.458367  0.261200  0.442700  1.0
  C  C1594  1  0.291700  0.442700  0.181500  1.0
  C  C1595  1  0.125033  0.181500  0.738800  1.0
  C  C1596  1  0.958367  0.738800  0.557300  1.0
  C  C1597  1  0.374967  0.261200  0.818500  1.0
  C  C1598  1  0.208300  0.818500  0.557300  1.0
  C  C1599  1  0.041633  0.557300  0.738800  1.0
  C  C1600  1  0.874967  0.738800  0.181500  1.0
  C  C1601  1  0.708300  0.181500  0.442700  1.0
  C  C1602  1  0.541633  0.442700  0.261200  1.0
  C  C1603  1  0.816600  0.553600  0.845800  1.0
  C  C1604  1  0.649933  0.845800  0.292200  1.0
  C  C1605  1  0.483267  0.292200  0.446400  1.0
  C  C1606  1  0.316600  0.446400  0.154200  1.0
  C  C1607  1  0.149933  0.154200  0.707800  1.0
  C  C1608  1  0.983267  0.707800  0.553600  1.0
  C  C1609  1  0.350067  0.292200  0.845800  1.0
  C  C1610  1  0.183400  0.845800  0.553600  1.0
  C  C1611  1  0.016733  0.553600  0.707800  1.0
  C  C1612  1  0.850067  0.707800  0.154200  1.0
  C  C1613  1  0.683400  0.154200  0.446400  1.0
  C  C1614  1  0.516733  0.446400  0.292200  1.0
  C  C1615  1  0.803900  0.538000  0.870800  1.0
  C  C1616  1  0.637233  0.870800  0.332800  1.0
  C  C1617  1  0.470567  0.332800  0.462000  1.0
  C  C1618  1  0.303900  0.462000  0.129200  1.0
  C  C1619  1  0.137233  0.129200  0.667200  1.0
  C  C1620  1  0.970567  0.667200  0.538000  1.0
  C  C1621  1  0.362767  0.332800  0.870800  1.0
  C  C1622  1  0.196100  0.870800  0.538000  1.0
  C  C1623  1  0.029433  0.538000  0.667200  1.0
  C  C1624  1  0.862767  0.667200  0.129200  1.0
  C  C1625  1  0.696100  0.129200  0.462000  1.0
  C  C1626  1  0.529433  0.462000  0.332800  1.0
  C  C1627  1  0.766300  0.525500  0.868000  1.0
  C  C1628  1  0.599633  0.868000  0.342500  1.0
  C  C1629  1  0.432967  0.342500  0.474500  1.0
  C  C1630  1  0.266300  0.474500  0.132000  1.0
  C  C1631  1  0.099633  0.132000  0.657500  1.0
  C  C1632  1  0.932967  0.657500  0.525500  1.0
  C  C1633  1  0.400367  0.342500  0.868000  1.0
  C  C1634  1  0.233700  0.868000  0.525500  1.0
  C  C1635  1  0.067033  0.525500  0.657500  1.0
  C  C1636  1  0.900367  0.657500  0.132000  1.0
  C  C1637  1  0.733700  0.132000  0.474500  1.0
  C  C1638  1  0.567033  0.474500  0.342500  1.0
  C  C1639  1  0.743000  0.532900  0.842100  1.0
  C  C1640  1  0.576333  0.842100  0.309200  1.0
  C  C1641  1  0.409667  0.309200  0.467100  1.0
  C  C1642  1  0.243000  0.467100  0.157900  1.0
  C  C1643  1  0.076333  0.157900  0.690800  1.0
  C  C1644  1  0.909667  0.690800  0.532900  1.0
  C  C1645  1  0.423667  0.309200  0.842100  1.0
  C  C1646  1  0.257000  0.842100  0.532900  1.0
  C  C1647  1  0.090333  0.532900  0.690800  1.0
  C  C1648  1  0.923667  0.690800  0.157900  1.0
  C  C1649  1  0.757000  0.157900  0.467100  1.0
  C  C1650  1  0.590333  0.467100  0.309200  1.0
  C  C1651  1  0.727800  0.468900  0.865800  1.0
  C  C1652  1  0.561133  0.865800  0.396900  1.0
  C  C1653  1  0.394467  0.396900  0.531100  1.0
  C  C1654  1  0.227800  0.531100  0.134200  1.0
  C  C1655  1  0.061133  0.134200  0.603100  1.0
  C  C1656  1  0.894467  0.603100  0.468900  1.0
  C  C1657  1  0.438867  0.396900  0.865800  1.0
  C  C1658  1  0.272200  0.865800  0.468900  1.0
  C  C1659  1  0.105533  0.468900  0.603100  1.0
  C  C1660  1  0.938867  0.603100  0.134200  1.0
  C  C1661  1  0.772200  0.134200  0.531100  1.0
  C  C1662  1  0.605533  0.531100  0.396900  1.0
  C  C1663  1  0.750600  0.503500  0.889500  1.0
  C  C1664  1  0.583933  0.889500  0.386000  1.0
  C  C1665  1  0.417267  0.386000  0.496500  1.0
  C  C1666  1  0.250600  0.496500  0.110500  1.0
  C  C1667  1  0.083933  0.110500  0.614000  1.0
  C  C1668  1  0.917267  0.614000  0.503500  1.0
  C  C1669  1  0.416067  0.386000  0.889500  1.0
  C  C1670  1  0.249400  0.889500  0.503500  1.0
  C  C1671  1  0.082733  0.503500  0.614000  1.0
  C  C1672  1  0.916067  0.614000  0.110500  1.0
  C  C1673  1  0.749400  0.110500  0.496500  1.0
  C  C1674  1  0.582733  0.496500  0.386000  1.0
  C  C1675  1  0.755800  0.514400  0.931200  1.0
  C  C1676  1  0.589133  0.931200  0.416800  1.0
  C  C1677  1  0.422467  0.416800  0.485600  1.0
  C  C1678  1  0.255800  0.485600  0.068800  1.0
  C  C1679  1  0.089133  0.068800  0.583200  1.0
  C  C1680  1  0.922467  0.583200  0.514400  1.0
  C  C1681  1  0.410867  0.416800  0.931200  1.0
  C  C1682  1  0.244200  0.931200  0.514400  1.0
  C  C1683  1  0.077533  0.514400  0.583200  1.0
  C  C1684  1  0.910867  0.583200  0.068800  1.0
  C  C1685  1  0.744200  0.068800  0.485600  1.0
  C  C1686  1  0.577533  0.485600  0.416800  1.0
  C  C1687  1  0.737800  0.493200  0.948200  1.0
  C  C1688  1  0.571133  0.948200  0.455000  1.0
  C  C1689  1  0.404467  0.455000  0.506800  1.0
  C  C1690  1  0.237800  0.506800  0.051800  1.0
  C  C1691  1  0.071133  0.051800  0.545000  1.0
  C  C1692  1  0.904467  0.545000  0.493200  1.0
  C  C1693  1  0.428867  0.455000  0.948200  1.0
  C  C1694  1  0.262200  0.948200  0.493200  1.0
  C  C1695  1  0.095533  0.493200  0.545000  1.0
  C  C1696  1  0.928867  0.545000  0.051800  1.0
  C  C1697  1  0.762200  0.051800  0.506800  1.0
  C  C1698  1  0.595533  0.506800  0.455000  1.0
  C  C1699  1  0.715000  0.459400  0.922200  1.0
  C  C1700  1  0.548333  0.922200  0.462800  1.0
  C  C1701  1  0.381667  0.462800  0.540600  1.0
  C  C1702  1  0.215000  0.540600  0.077800  1.0
  C  C1703  1  0.048333  0.077800  0.537200  1.0
  C  C1704  1  0.881667  0.537200  0.459400  1.0
  C  C1705  1  0.451667  0.462800  0.922200  1.0
  C  C1706  1  0.285000  0.922200  0.459400  1.0
  C  C1707  1  0.118333  0.459400  0.537200  1.0
  C  C1708  1  0.951667  0.537200  0.077800  1.0
  C  C1709  1  0.785000  0.077800  0.540600  1.0
  C  C1710  1  0.618333  0.540600  0.462800  1.0
  C  C1711  1  0.694500  0.435600  0.939100  1.0
  C  C1712  1  0.527833  0.939100  0.503500  1.0
  C  C1713  1  0.361167  0.503500  0.564400  1.0
  C  C1714  1  0.194500  0.564400  0.060900  1.0
  C  C1715  1  0.027833  0.060900  0.496500  1.0
  C  C1716  1  0.861167  0.496500  0.435600  1.0
  C  C1717  1  0.472167  0.503500  0.939100  1.0
  C  C1718  1  0.305500  0.939100  0.435600  1.0
  C  C1719  1  0.138833  0.435600  0.496500  1.0
  C  C1720  1  0.972167  0.496500  0.060900  1.0
  C  C1721  1  0.805500  0.060900  0.564400  1.0
  C  C1722  1  0.638833  0.564400  0.503500  1.0
  C  C1723  1  0.697600  0.444500  0.980600  1.0
  C  C1724  1  0.530933  0.980600  0.536100  1.0
  C  C1725  1  0.364267  0.536100  0.555500  1.0
  C  C1726  1  0.197600  0.555500  0.019400  1.0
  C  C1727  1  0.030933  0.019400  0.463900  1.0
  C  C1728  1  0.864267  0.463900  0.444500  1.0
  C  C1729  1  0.469067  0.536100  0.980600  1.0
  C  C1730  1  0.302400  0.980600  0.444500  1.0
  C  C1731  1  0.135733  0.444500  0.463900  1.0
  C  C1732  1  0.969067  0.463900  0.019400  1.0
  C  C1733  1  0.802400  0.019400  0.555500  1.0
  C  C1734  1  0.635733  0.555500  0.536100  1.0
  C  C1735  1  0.674300  0.422700  0.993300  1.0
  C  C1736  1  0.507633  0.993300  0.570600  1.0
  C  C1737  1  0.340967  0.570600  0.577300  1.0
  C  C1738  1  0.174300  0.577300  0.006700  1.0
  C  C1739  1  0.007633  0.006700  0.429400  1.0
  C  C1740  1  0.840967  0.429400  0.422700  1.0
  C  C1741  1  0.492367  0.570600  0.993300  1.0
  C  C1742  1  0.325700  0.993300  0.422700  1.0
  C  C1743  1  0.159033  0.422700  0.429400  1.0
  C  C1744  1  0.992367  0.429400  0.006700  1.0
  C  C1745  1  0.825700  0.006700  0.577300  1.0
  C  C1746  1  0.659033  0.577300  0.570600  1.0
  C  C1747  1  0.649200  0.391700  0.965500  1.0
  C  C1748  1  0.482533  0.965500  0.573800  1.0
  C  C1749  1  0.315867  0.573800  0.608300  1.0
  C  C1750  1  0.149200  0.608300  0.034500  1.0
  C  C1751  1  0.982533  0.034500  0.426200  1.0
  C  C1752  1  0.815867  0.426200  0.391700  1.0
  C  C1753  1  0.517467  0.573800  0.965500  1.0
  C  C1754  1  0.350800  0.965500  0.391700  1.0
  C  C1755  1  0.184133  0.391700  0.426200  1.0
  C  C1756  1  0.017467  0.426200  0.034500  1.0
  C  C1757  1  0.850800  0.034500  0.608300  1.0
  C  C1758  1  0.684133  0.608300  0.573800  1.0
  C  C1759  1  0.650700  0.384200  0.924700  1.0
  C  C1760  1  0.484033  0.924700  0.540500  1.0
  C  C1761  1  0.317367  0.540500  0.615800  1.0
  C  C1762  1  0.150700  0.615800  0.075300  1.0
  C  C1763  1  0.984033  0.075300  0.459500  1.0
  C  C1764  1  0.817367  0.459500  0.384200  1.0
  C  C1765  1  0.515967  0.540500  0.924700  1.0
  C  C1766  1  0.349300  0.924700  0.384200  1.0
  C  C1767  1  0.182633  0.384200  0.459500  1.0
  C  C1768  1  0.015967  0.459500  0.075300  1.0
  C  C1769  1  0.849300  0.075300  0.615800  1.0
  C  C1770  1  0.682633  0.615800  0.540500  1.0
  C  C1771  1  0.618400  0.325100  0.954200  1.0
  C  C1772  1  0.451733  0.954200  0.629100  1.0
  C  C1773  1  0.285067  0.629100  0.674900  1.0
  C  C1774  1  0.118400  0.674900  0.045800  1.0
  C  C1775  1  0.951733  0.045800  0.370900  1.0
  C  C1776  1  0.785067  0.370900  0.325100  1.0
  C  C1777  1  0.548267  0.629100  0.954200  1.0
  C  C1778  1  0.381600  0.954200  0.325100  1.0
  C  C1779  1  0.214933  0.325100  0.370900  1.0
  C  C1780  1  0.048267  0.370900  0.045800  1.0
  C  C1781  1  0.881600  0.045800  0.674900  1.0
  C  C1782  1  0.714933  0.674900  0.629100  1.0
  C  C1783  1  0.626800  0.367100  0.979100  1.0
  C  C1784  1  0.460133  0.979100  0.612000  1.0
  C  C1785  1  0.293467  0.612000  0.632900  1.0
  C  C1786  1  0.126800  0.632900  0.020900  1.0
  C  C1787  1  0.960133  0.020900  0.388000  1.0
  C  C1788  1  0.793467  0.388000  0.367100  1.0
  C  C1789  1  0.539867  0.612000  0.979100  1.0
  C  C1790  1  0.373200  0.979100  0.367100  1.0
  C  C1791  1  0.206533  0.367100  0.388000  1.0
  C  C1792  1  0.039867  0.388000  0.020900  1.0
  C  C1793  1  0.873200  0.020900  0.632900  1.0
  C  C1794  1  0.706533  0.632900  0.612000  1.0
  C  C1795  1  0.608100  0.386700  0.017700  1.0
  C  C1796  1  0.441433  0.017700  0.631000  1.0
  C  C1797  1  0.274767  0.631000  0.613300  1.0
  C  C1798  1  0.108100  0.613300  0.982300  1.0
  C  C1799  1  0.941433  0.982300  0.369000  1.0
  C  C1800  1  0.774767  0.369000  0.386700  1.0
  C  C1801  1  0.558567  0.631000  0.017700  1.0
  C  C1802  1  0.391900  0.017700  0.386700  1.0
  C  C1803  1  0.225233  0.386700  0.369000  1.0
  C  C1804  1  0.058567  0.369000  0.982300  1.0
  C  C1805  1  0.891900  0.982300  0.613300  1.0
  C  C1806  1  0.725233  0.613300  0.631000  1.0
  C  C1807  1  0.583400  0.364500  0.028500  1.0
  C  C1808  1  0.416733  0.028500  0.664000  1.0
  C  C1809  1  0.250067  0.664000  0.635500  1.0
  C  C1810  1  0.083400  0.635500  0.971500  1.0
  C  C1811  1  0.916733  0.971500  0.336000  1.0
  C  C1812  1  0.750067  0.336000  0.364500  1.0
  C  C1813  1  0.583267  0.664000  0.028500  1.0
  C  C1814  1  0.416600  0.028500  0.364500  1.0
  C  C1815  1  0.249933  0.364500  0.336000  1.0
  C  C1816  1  0.083267  0.336000  0.971500  1.0
  C  C1817  1  0.916600  0.971500  0.635500  1.0
  C  C1818  1  0.749933  0.635500  0.664000  1.0
  C  C1819  1  0.578500  0.322100  0.999500  1.0
  C  C1820  1  0.411833  0.999500  0.677400  1.0
  C  C1821  1  0.245167  0.677400  0.677900  1.0
  C  C1822  1  0.078500  0.677900  0.000500  1.0
  C  C1823  1  0.911833  0.000500  0.322600  1.0
  C  C1824  1  0.745167  0.322600  0.322100  1.0
  C  C1825  1  0.588167  0.677400  0.999500  1.0
  C  C1826  1  0.421500  0.999500  0.322100  1.0
  C  C1827  1  0.254833  0.322100  0.322600  1.0
  C  C1828  1  0.088167  0.322600  0.000500  1.0
  C  C1829  1  0.921500  0.000500  0.677900  1.0
  C  C1830  1  0.754833  0.677900  0.677400  1.0
  C  C1831  1  0.550900  0.297900  0.008700  1.0
  C  C1832  1  0.384233  0.008700  0.710800  1.0
  C  C1833  1  0.217567  0.710800  0.702100  1.0
  C  C1834  1  0.050900  0.702100  0.991300  1.0
  C  C1835  1  0.884233  0.991300  0.289200  1.0
  C  C1836  1  0.717567  0.289200  0.297900  1.0
  C  C1837  1  0.615767  0.710800  0.008700  1.0
  C  C1838  1  0.449100  0.008700  0.297900  1.0
  C  C1839  1  0.282433  0.297900  0.289200  1.0
  C  C1840  1  0.115767  0.289200  0.991300  1.0
  C  C1841  1  0.949100  0.991300  0.702100  1.0
  C  C1842  1  0.782433  0.702100  0.710800  1.0
  C  C1843  1  0.519000  0.233100  0.987300  1.0
  C  C1844  1  0.352333  0.987300  0.754200  1.0
  C  C1845  1  0.185667  0.754200  0.766900  1.0
  C  C1846  1  0.019000  0.766900  0.012700  1.0
  C  C1847  1  0.852333  0.012700  0.245800  1.0
  C  C1848  1  0.685667  0.245800  0.233100  1.0
  C  C1849  1  0.647667  0.754200  0.987300  1.0
  C  C1850  1  0.481000  0.987300  0.233100  1.0
  C  C1851  1  0.314333  0.233100  0.245800  1.0
  C  C1852  1  0.147667  0.245800  0.012700  1.0
  C  C1853  1  0.981000  0.012700  0.766900  1.0
  C  C1854  1  0.814333  0.766900  0.754200  1.0
  C  C1855  1  0.507000  0.194700  0.954600  1.0
  C  C1856  1  0.340333  0.954600  0.759900  1.0
  C  C1857  1  0.173667  0.759900  0.805300  1.0
  C  C1858  1  0.007000  0.805300  0.045400  1.0
  C  C1859  1  0.840333  0.045400  0.240100  1.0
  C  C1860  1  0.673667  0.240100  0.194700  1.0
  C  C1861  1  0.659667  0.759900  0.954600  1.0
  C  C1862  1  0.493000  0.954600  0.194700  1.0
  C  C1863  1  0.326333  0.194700  0.240100  1.0
  C  C1864  1  0.159667  0.240100  0.045400  1.0
  C  C1865  1  0.993000  0.045400  0.805300  1.0
  C  C1866  1  0.826333  0.805300  0.759900  1.0
  C  C1867  1  0.486900  0.167300  0.962300  1.0
  C  C1868  1  0.320233  0.962300  0.795000  1.0
  C  C1869  1  0.153567  0.795000  0.832700  1.0
  C  C1870  1  0.986900  0.832700  0.037700  1.0
  C  C1871  1  0.820233  0.037700  0.205000  1.0
  C  C1872  1  0.653567  0.205000  0.167300  1.0
  C  C1873  1  0.679767  0.795000  0.962300  1.0
  C  C1874  1  0.513100  0.962300  0.167300  1.0
  C  C1875  1  0.346433  0.167300  0.205000  1.0
  C  C1876  1  0.179767  0.205000  0.037700  1.0
  C  C1877  1  0.013100  0.037700  0.832700  1.0
  C  C1878  1  0.846433  0.832700  0.795000  1.0
  C  C1879  1  0.478300  0.177500  0.002800  1.0
  C  C1880  1  0.311633  0.002800  0.825300  1.0
  C  C1881  1  0.144967  0.825300  0.822500  1.0
  C  C1882  1  0.978300  0.822500  0.997200  1.0
  C  C1883  1  0.811633  0.997200  0.174700  1.0
  C  C1884  1  0.644967  0.174700  0.177500  1.0
  C  C1885  1  0.688367  0.825300  0.002800  1.0
  C  C1886  1  0.521700  0.002800  0.177500  1.0
  C  C1887  1  0.355033  0.177500  0.174700  1.0
  C  C1888  1  0.188367  0.174700  0.997200  1.0
  C  C1889  1  0.021700  0.997200  0.822500  1.0
  C  C1890  1  0.855033  0.822500  0.825300  1.0
  C  C1891  1  0.490400  0.215500  0.035800  1.0
  C  C1892  1  0.323733  0.035800  0.820300  1.0
  C  C1893  1  0.157067  0.820300  0.784500  1.0
  C  C1894  1  0.990400  0.784500  0.964200  1.0
  C  C1895  1  0.823733  0.964200  0.179700  1.0
  C  C1896  1  0.657067  0.179700  0.215500  1.0
  C  C1897  1  0.676267  0.820300  0.035800  1.0
  C  C1898  1  0.509600  0.035800  0.215500  1.0
  C  C1899  1  0.342933  0.215500  0.179700  1.0
  C  C1900  1  0.176267  0.179700  0.964200  1.0
  C  C1901  1  0.009600  0.964200  0.784500  1.0
  C  C1902  1  0.842933  0.784500  0.820300  1.0
  C  C1903  1  0.510500  0.243500  0.028500  1.0
  C  C1904  1  0.343833  0.028500  0.785000  1.0
  C  C1905  1  0.177167  0.785000  0.756500  1.0
  C  C1906  1  0.010500  0.756500  0.971500  1.0
  C  C1907  1  0.843833  0.971500  0.215000  1.0
  C  C1908  1  0.677167  0.215000  0.243500  1.0
  C  C1909  1  0.656167  0.785000  0.028500  1.0
  C  C1910  1  0.489500  0.028500  0.243500  1.0
  C  C1911  1  0.322833  0.243500  0.215000  1.0
  C  C1912  1  0.156167  0.215000  0.971500  1.0
  C  C1913  1  0.989500  0.971500  0.756500  1.0
  C  C1914  1  0.822833  0.756500  0.785000  1.0
  C  C1915  1  0.618900  0.698300  0.815400  1.0
  C  C1916  1  0.452233  0.815400  0.117100  1.0
  C  C1917  1  0.285567  0.117100  0.301700  1.0
  C  C1918  1  0.118900  0.301700  0.184600  1.0
  C  C1919  1  0.952233  0.184600  0.882900  1.0
  C  C1920  1  0.785567  0.882900  0.698300  1.0
  C  C1921  1  0.547767  0.117100  0.815400  1.0
  C  C1922  1  0.381100  0.815400  0.698300  1.0
  C  C1923  1  0.214433  0.698300  0.882900  1.0
  C  C1924  1  0.047767  0.882900  0.184600  1.0
  C  C1925  1  0.881100  0.184600  0.301700  1.0
  C  C1926  1  0.714433  0.301700  0.117100  1.0
  C  C1927  1  0.651800  0.714700  0.838700  1.0
  C  C1928  1  0.485133  0.838700  0.124000  1.0
  C  C1929  1  0.318467  0.124000  0.285300  1.0
  C  C1930  1  0.151800  0.285300  0.161300  1.0
  C  C1931  1  0.985133  0.161300  0.876000  1.0
  C  C1932  1  0.818467  0.876000  0.714700  1.0
  C  C1933  1  0.514867  0.124000  0.838700  1.0
  C  C1934  1  0.348200  0.838700  0.714700  1.0
  C  C1935  1  0.181533  0.714700  0.876000  1.0
  C  C1936  1  0.014867  0.876000  0.161300  1.0
  C  C1937  1  0.848200  0.161300  0.285300  1.0
  C  C1938  1  0.681533  0.285300  0.124000  1.0
  C  C1939  1  0.664000  0.755200  0.854100  1.0
  C  C1940  1  0.497333  0.854100  0.098900  1.0
  C  C1941  1  0.330667  0.098900  0.244800  1.0
  C  C1942  1  0.164000  0.244800  0.145900  1.0
  C  C1943  1  0.997333  0.145900  0.901100  1.0
  C  C1944  1  0.830667  0.901100  0.755200  1.0
  C  C1945  1  0.502667  0.098900  0.854100  1.0
  C  C1946  1  0.336000  0.854100  0.755200  1.0
  C  C1947  1  0.169333  0.755200  0.901100  1.0
  C  C1948  1  0.002667  0.901100  0.145900  1.0
  C  C1949  1  0.836000  0.145900  0.244800  1.0
  C  C1950  1  0.669333  0.244800  0.098900  1.0
  C  C1951  1  0.642400  0.781900  0.846800  1.0
  C  C1952  1  0.475733  0.846800  0.064900  1.0
  C  C1953  1  0.309067  0.064900  0.218100  1.0
  C  C1954  1  0.142400  0.218100  0.153200  1.0
  C  C1955  1  0.975733  0.153200  0.935100  1.0
  C  C1956  1  0.809067  0.935100  0.781900  1.0
  C  C1957  1  0.524267  0.064900  0.846800  1.0
  C  C1958  1  0.357600  0.846800  0.781900  1.0
  C  C1959  1  0.190933  0.781900  0.935100  1.0
  C  C1960  1  0.024267  0.935100  0.153200  1.0
  C  C1961  1  0.857600  0.153200  0.218100  1.0
  C  C1962  1  0.690933  0.218100  0.064900  1.0
  C  C1963  1  0.610100  0.766000  0.823300  1.0
  C  C1964  1  0.443433  0.823300  0.057300  1.0
  C  C1965  1  0.276767  0.057300  0.234000  1.0
  C  C1966  1  0.110100  0.234000  0.176700  1.0
  C  C1967  1  0.943433  0.176700  0.942700  1.0
  C  C1968  1  0.776767  0.942700  0.766000  1.0
  C  C1969  1  0.556567  0.057300  0.823300  1.0
  C  C1970  1  0.389900  0.823300  0.766000  1.0
  C  C1971  1  0.223233  0.766000  0.942700  1.0
  C  C1972  1  0.056567  0.942700  0.176700  1.0
  C  C1973  1  0.889900  0.176700  0.234000  1.0
  C  C1974  1  0.723233  0.234000  0.057300  1.0
  C  C1975  1  0.597200  0.725200  0.807700  1.0
  C  C1976  1  0.430533  0.807700  0.082500  1.0
  C  C1977  1  0.263867  0.082500  0.274800  1.0
  C  C1978  1  0.097200  0.274800  0.192300  1.0
  C  C1979  1  0.930533  0.192300  0.917500  1.0
  C  C1980  1  0.763867  0.917500  0.725200  1.0
  C  C1981  1  0.569467  0.082500  0.807700  1.0
  C  C1982  1  0.402800  0.807700  0.725200  1.0
  C  C1983  1  0.236133  0.725200  0.917500  1.0
  C  C1984  1  0.069467  0.917500  0.192300  1.0
  C  C1985  1  0.902800  0.192300  0.274800  1.0
  C  C1986  1  0.736133  0.274800  0.082500  1.0
  C  C1987  1  0.629200  0.847100  0.851100  1.0
  C  C1988  1  0.462533  0.851100  0.004000  1.0
  C  C1989  1  0.295867  0.004000  0.152900  1.0
  C  C1990  1  0.129200  0.152900  0.148900  1.0
  C  C1991  1  0.962533  0.148900  0.996000  1.0
  C  C1992  1  0.795867  0.996000  0.847100  1.0
  C  C1993  1  0.537467  0.004000  0.851100  1.0
  C  C1994  1  0.370800  0.851100  0.847100  1.0
  C  C1995  1  0.204133  0.847100  0.996000  1.0
  C  C1996  1  0.037467  0.996000  0.148900  1.0
  C  C1997  1  0.870800  0.148900  0.152900  1.0
  C  C1998  1  0.704133  0.152900  0.004000  1.0
  C  C1999  1  0.593900  0.631700  0.770800  1.0
  C  C2000  1  0.427233  0.770800  0.139100  1.0
  C  C2001  1  0.260567  0.139100  0.368300  1.0
  C  C2002  1  0.093900  0.368300  0.229200  1.0
  C  C2003  1  0.927233  0.229200  0.860900  1.0
  C  C2004  1  0.760567  0.860900  0.631700  1.0
  C  C2005  1  0.572767  0.139100  0.770800  1.0
  C  C2006  1  0.406100  0.770800  0.631700  1.0
  C  C2007  1  0.239433  0.631700  0.860900  1.0
  C  C2008  1  0.072767  0.860900  0.229200  1.0
  C  C2009  1  0.906100  0.229200  0.368300  1.0
  C  C2010  1  0.739433  0.368300  0.139100  1.0
  C  C2011  1  0.589600  0.586600  0.755200  1.0
  C  C2012  1  0.422933  0.755200  0.168600  1.0
  C  C2013  1  0.256267  0.168600  0.413400  1.0
  C  C2014  1  0.089600  0.413400  0.244800  1.0
  C  C2015  1  0.922933  0.244800  0.831400  1.0
  C  C2016  1  0.756267  0.831400  0.586600  1.0
  C  C2017  1  0.577067  0.168600  0.755200  1.0
  C  C2018  1  0.410400  0.755200  0.586600  1.0
  C  C2019  1  0.243733  0.586600  0.831400  1.0
  C  C2020  1  0.077067  0.831400  0.244800  1.0
  C  C2021  1  0.910400  0.244800  0.413400  1.0
  C  C2022  1  0.743733  0.413400  0.168600  1.0
  C  C2023  1  0.568800  0.558800  0.720000  1.0
  C  C2024  1  0.402133  0.720000  0.161200  1.0
  C  C2025  1  0.235467  0.161200  0.441200  1.0
  C  C2026  1  0.068800  0.441200  0.280000  1.0
  C  C2027  1  0.902133  0.280000  0.838800  1.0
  C  C2028  1  0.735467  0.838800  0.558800  1.0
  C  C2029  1  0.597867  0.161200  0.720000  1.0
  C  C2030  1  0.431200  0.720000  0.558800  1.0
  C  C2031  1  0.264533  0.558800  0.838800  1.0
  C  C2032  1  0.097867  0.838800  0.280000  1.0
  C  C2033  1  0.931200  0.280000  0.441200  1.0
  C  C2034  1  0.764533  0.441200  0.161200  1.0
  C  C2035  1  0.564800  0.517600  0.710800  1.0
  C  C2036  1  0.398133  0.710800  0.193200  1.0
  C  C2037  1  0.231467  0.193200  0.482400  1.0
  C  C2038  1  0.064800  0.482400  0.289200  1.0
  C  C2039  1  0.898133  0.289200  0.806800  1.0
  C  C2040  1  0.731467  0.806800  0.517600  1.0
  C  C2041  1  0.601867  0.193200  0.710800  1.0
  C  C2042  1  0.435200  0.710800  0.517600  1.0
  C  C2043  1  0.268533  0.517600  0.806800  1.0
  C  C2044  1  0.101867  0.806800  0.289200  1.0
  C  C2045  1  0.935200  0.289200  0.482400  1.0
  C  C2046  1  0.768533  0.482400  0.193200  1.0
  C  C2047  1  0.582000  0.503100  0.734900  1.0
  C  C2048  1  0.415333  0.734900  0.231800  1.0
  C  C2049  1  0.248667  0.231800  0.496900  1.0
  C  C2050  1  0.082000  0.496900  0.265100  1.0
  C  C2051  1  0.915333  0.265100  0.768200  1.0
  C  C2052  1  0.748667  0.768200  0.503100  1.0
  C  C2053  1  0.584667  0.231800  0.734900  1.0
  C  C2054  1  0.418000  0.734900  0.503100  1.0
  C  C2055  1  0.251333  0.503100  0.768200  1.0
  C  C2056  1  0.084667  0.768200  0.265100  1.0
  C  C2057  1  0.918000  0.265100  0.496900  1.0
  C  C2058  1  0.751333  0.496900  0.231800  1.0
  C  C2059  1  0.603200  0.533200  0.768500  1.0
  C  C2060  1  0.436533  0.768500  0.235300  1.0
  C  C2061  1  0.269867  0.235300  0.466800  1.0
  C  C2062  1  0.103200  0.466800  0.231500  1.0
  C  C2063  1  0.936533  0.231500  0.764700  1.0
  C  C2064  1  0.769867  0.764700  0.533200  1.0
  C  C2065  1  0.563467  0.235300  0.768500  1.0
  C  C2066  1  0.396800  0.768500  0.533200  1.0
  C  C2067  1  0.230133  0.533200  0.764700  1.0
  C  C2068  1  0.063467  0.764700  0.231500  1.0
  C  C2069  1  0.896800  0.231500  0.466800  1.0
  C  C2070  1  0.730133  0.466800  0.235300  1.0
  C  C2071  1  0.580400  0.454300  0.763700  1.0
  C  C2072  1  0.413733  0.763700  0.309400  1.0
  C  C2073  1  0.247067  0.309400  0.545700  1.0
  C  C2074  1  0.080400  0.545700  0.236300  1.0
  C  C2075  1  0.913733  0.236300  0.690600  1.0
  C  C2076  1  0.747067  0.690600  0.454300  1.0
  C  C2077  1  0.586267  0.309400  0.763700  1.0
  C  C2078  1  0.419600  0.763700  0.454300  1.0
  C  C2079  1  0.252933  0.454300  0.690600  1.0
  C  C2080  1  0.086267  0.690600  0.236300  1.0
  C  C2081  1  0.919600  0.236300  0.545700  1.0
  C  C2082  1  0.752933  0.545700  0.309400  1.0
  C  C2083  1  0.579700  0.460500  0.729400  1.0
  C  C2084  1  0.413033  0.729400  0.268900  1.0
  C  C2085  1  0.246367  0.268900  0.539500  1.0
  C  C2086  1  0.079700  0.539500  0.270600  1.0
  C  C2087  1  0.913033  0.270600  0.731100  1.0
  C  C2088  1  0.746367  0.731100  0.460500  1.0
  C  C2089  1  0.586967  0.268900  0.729400  1.0
  C  C2090  1  0.420300  0.729400  0.460500  1.0
  C  C2091  1  0.253633  0.460500  0.731100  1.0
  C  C2092  1  0.086967  0.731100  0.270600  1.0
  C  C2093  1  0.920300  0.270600  0.539500  1.0
  C  C2094  1  0.753633  0.539500  0.268900  1.0
  C  C2095  1  0.578500  0.425000  0.690400  1.0
  C  C2096  1  0.411833  0.690400  0.265400  1.0
  C  C2097  1  0.245167  0.265400  0.575000  1.0
  C  C2098  1  0.078500  0.575000  0.309600  1.0
  C  C2099  1  0.911833  0.309600  0.734600  1.0
  C  C2100  1  0.745167  0.734600  0.425000  1.0
  C  C2101  1  0.588167  0.265400  0.690400  1.0
  C  C2102  1  0.421500  0.690400  0.425000  1.0
  C  C2103  1  0.254833  0.425000  0.734600  1.0
  C  C2104  1  0.088167  0.734600  0.309600  1.0
  C  C2105  1  0.921500  0.309600  0.575000  1.0
  C  C2106  1  0.754833  0.575000  0.265400  1.0
  C  C2107  1  0.580200  0.386600  0.688500  1.0
  C  C2108  1  0.413533  0.688500  0.301900  1.0
  C  C2109  1  0.246867  0.301900  0.613400  1.0
  C  C2110  1  0.080200  0.613400  0.311500  1.0
  C  C2111  1  0.913533  0.311500  0.698100  1.0
  C  C2112  1  0.746867  0.698100  0.386600  1.0
  C  C2113  1  0.586467  0.301900  0.688500  1.0
  C  C2114  1  0.419800  0.688500  0.386600  1.0
  C  C2115  1  0.253133  0.386600  0.698100  1.0
  C  C2116  1  0.086467  0.698100  0.311500  1.0
  C  C2117  1  0.919800  0.311500  0.613400  1.0
  C  C2118  1  0.753133  0.613400  0.301900  1.0
  C  C2119  1  0.582300  0.382800  0.724000  1.0
  C  C2120  1  0.415633  0.724000  0.341200  1.0
  C  C2121  1  0.248967  0.341200  0.617200  1.0
  C  C2122  1  0.082300  0.617200  0.276000  1.0
  C  C2123  1  0.915633  0.276000  0.658800  1.0
  C  C2124  1  0.748967  0.658800  0.382800  1.0
  C  C2125  1  0.584367  0.341200  0.724000  1.0
  C  C2126  1  0.417700  0.724000  0.382800  1.0
  C  C2127  1  0.251033  0.382800  0.658800  1.0
  C  C2128  1  0.084367  0.658800  0.276000  1.0
  C  C2129  1  0.917700  0.276000  0.617200  1.0
  C  C2130  1  0.751033  0.617200  0.341200  1.0
  S  S2131  1  0.869700  0.642800  0.235100  1
  S  S2132  1  0.703033  0.235100  0.592300  1
  S  S2133  1  0.536367  0.592300  0.357200  1
  S  S2134  1  0.369700  0.357200  0.764900  1
  S  S2135  1  0.203033  0.764900  0.407700  1
  S  S2136  1  0.036367  0.407700  0.642800  1
  S  S2137  1  0.296967  0.592300  0.235100  1
  S  S2138  1  0.130300  0.235100  0.642800  1
  S  S2139  1  0.963633  0.642800  0.407700  1
  S  S2140  1  0.796967  0.407700  0.764900  1
  S  S2141  1  0.630300  0.764900  0.357200  1
  S  S2142  1  0.463633  0.357200  0.592300  1
  S  S2143  1  0.827400  0.716700  0.293400  1
  S  S2144  1  0.660733  0.293400  0.576700  1
  S  S2145  1  0.494067  0.576700  0.283300  1
  S  S2146  1  0.327400  0.283300  0.706600  1
  S  S2147  1  0.160733  0.706600  0.423300  1
  S  S2148  1  0.994067  0.423300  0.716700  1
  S  S2149  1  0.339267  0.576700  0.293400  1
  S  S2150  1  0.172600  0.293400  0.716700  1
  S  S2151  1  0.005933  0.716700  0.423300  1
  S  S2152  1  0.839267  0.423300  0.706600  1
  S  S2153  1  0.672600  0.706600  0.283300  1
  S  S2154  1  0.505933  0.283300  0.576700  1
  S  S2155  1  0.920700  0.401100  0.106000  1
  S  S2156  1  0.754033  0.106000  0.704900  1
  S  S2157  1  0.587367  0.704900  0.598900  1
  S  S2158  1  0.420700  0.598900  0.894000  1
  S  S2159  1  0.254033  0.894000  0.295100  1
  S  S2160  1  0.087367  0.295100  0.401100  1
  S  S2161  1  0.245967  0.704900  0.106000  1
  S  S2162  1  0.079300  0.106000  0.401100  1
  S  S2163  1  0.912633  0.401100  0.295100  1
  S  S2164  1  0.745967  0.295100  0.894000  1
  S  S2165  1  0.579300  0.894000  0.598900  1
  S  S2166  1  0.412633  0.598900  0.704900  1
  S  S2167  1  0.889400  0.481700  0.133300  1
  S  S2168  1  0.722733  0.133300  0.651600  1
  S  S2169  1  0.556067  0.651600  0.518300  1
  S  S2170  1  0.389400  0.518300  0.866700  1
  S  S2171  1  0.222733  0.866700  0.348400  1
  S  S2172  1  0.056067  0.348400  0.481700  1
  S  S2173  1  0.277267  0.651600  0.133300  1
  S  S2174  1  0.110600  0.133300  0.481700  1
  S  S2175  1  0.943933  0.481700  0.348400  1
  S  S2176  1  0.777267  0.348400  0.866700  1
  S  S2177  1  0.610600  0.866700  0.518300  1
  S  S2178  1  0.443933  0.518300  0.651600  1
  S  S2179  1  0.624000  0.531900  0.866000  1
  S  S2180  1  0.457333  0.866000  0.334100  1
  S  S2181  1  0.290667  0.334100  0.468100  1
  S  S2182  1  0.124000  0.468100  0.134000  1
  S  S2183  1  0.957333  0.134000  0.665900  1
  S  S2184  1  0.790667  0.665900  0.531900  1
  S  S2185  1  0.542667  0.334100  0.866000  1
  S  S2186  1  0.376000  0.866000  0.531900  1
  S  S2187  1  0.209333  0.531900  0.665900  1
  S  S2188  1  0.042667  0.665900  0.134000  1
  S  S2189  1  0.876000  0.134000  0.468100  1
  S  S2190  1  0.709333  0.468100  0.334100  1
  N  N2191  1  0.848100  0.672700  0.278900  1
  N  N2192  1  0.681433  0.278900  0.606200  1
  N  N2193  1  0.514767  0.606200  0.327300  1
  N  N2194  1  0.348100  0.327300  0.721100  1
  N  N2195  1  0.181433  0.721100  0.393800  1
  N  N2196  1  0.014767  0.393800  0.672700  1
  N  N2197  1  0.318567  0.606200  0.278900  1
  N  N2198  1  0.151900  0.278900  0.672700  1
  N  N2199  1  0.985233  0.672700  0.393800  1
  N  N2200  1  0.818567  0.393800  0.721100  1
  N  N2201  1  0.651900  0.721100  0.327300  1
  N  N2202  1  0.485233  0.327300  0.606200  1
  N  N2203  1  0.913200  0.440500  0.098800  1
  N  N2204  1  0.746533  0.098800  0.658300  1
  N  N2205  1  0.579867  0.658300  0.559500  1
  N  N2206  1  0.413200  0.559500  0.901200  1
  N  N2207  1  0.246533  0.901200  0.341700  1
  N  N2208  1  0.079867  0.341700  0.440500  1
  N  N2209  1  0.253467  0.658300  0.098800  1
  N  N2210  1  0.086800  0.098800  0.440500  1
  N  N2211  1  0.920133  0.440500  0.341700  1
  N  N2212  1  0.753467  0.341700  0.901200  1
  N  N2213  1  0.586800  0.901200  0.559500  1
  N  N2214  1  0.420133  0.559500  0.658300  1
  N  N2215  1  0.609800  0.184600  0.917700  1.0
  N  N2216  1  0.443133  0.917700  0.733100  1.0
  N  N2217  1  0.276467  0.733100  0.815400  1.0
  N  N2218  1  0.109800  0.815400  0.082300  1.0
  N  N2219  1  0.943133  0.082300  0.266900  1.0
  N  N2220  1  0.776467  0.266900  0.184600  1.0
  N  N2221  1  0.556867  0.733100  0.917700  1.0
  N  N2222  1  0.390200  0.917700  0.184600  1.0
  N  N2223  1  0.223533  0.184600  0.266900  1.0
  N  N2224  1  0.056867  0.266900  0.082300  1.0
  N  N2225  1  0.890200  0.082300  0.815400  1.0
  N  N2226  1  0.723533  0.815400  0.733100  1.0
  N  N2227  1  0.624700  0.225000  0.872900  1.0
  N  N2228  1  0.458033  0.872900  0.647900  1.0
  N  N2229  1  0.291367  0.647900  0.775000  1.0
  N  N2230  1  0.124700  0.775000  0.127100  1.0
  N  N2231  1  0.958033  0.127100  0.352100  1.0
  N  N2232  1  0.791367  0.352100  0.225000  1.0
  N  N2233  1  0.541967  0.647900  0.872900  1.0
  N  N2234  1  0.375300  0.872900  0.225000  1.0
  N  N2235  1  0.208633  0.225000  0.352100  1.0
  N  N2236  1  0.041967  0.352100  0.127100  1.0
  N  N2237  1  0.875300  0.127100  0.775000  1.0
  N  N2238  1  0.708633  0.775000  0.647900  1.0
  N  N2239  1  0.676300  0.327100  0.812100  1.0
  N  N2240  1  0.509633  0.812100  0.485000  1.0
  N  N2241  1  0.342967  0.485000  0.672900  1.0
  N  N2242  1  0.176300  0.672900  0.187900  1.0
  N  N2243  1  0.009633  0.187900  0.515000  1.0
  N  N2244  1  0.842967  0.515000  0.327100  1.0
  N  N2245  1  0.490367  0.485000  0.812100  1.0
  N  N2246  1  0.323700  0.812100  0.327100  1.0
  N  N2247  1  0.157033  0.327100  0.515000  1.0
  N  N2248  1  0.990367  0.515000  0.187900  1.0
  N  N2249  1  0.823700  0.187900  0.672900  1.0
  N  N2250  1  0.657033  0.672900  0.485000  1.0
  N  N2251  1  0.685600  0.381000  0.784500  1.0
  N  N2252  1  0.518933  0.784500  0.403500  1.0
  N  N2253  1  0.352267  0.403500  0.619000  1.0
  N  N2254  1  0.185600  0.619000  0.215500  1.0
  N  N2255  1  0.018933  0.215500  0.596500  1.0
  N  N2256  1  0.852267  0.596500  0.381000  1.0
  N  N2257  1  0.481067  0.403500  0.784500  1.0
  N  N2258  1  0.314400  0.784500  0.381000  1.0
  N  N2259  1  0.147733  0.381000  0.596500  1.0
  N  N2260  1  0.981067  0.596500  0.215500  1.0
  N  N2261  1  0.814400  0.215500  0.619000  1.0
  N  N2262  1  0.647733  0.619000  0.403500  1.0
  N  N2263  1  0.695900  0.506800  0.739600  1.0
  N  N2264  1  0.529233  0.739600  0.232800  1.0
  N  N2265  1  0.362567  0.232800  0.493200  1.0
  N  N2266  1  0.195900  0.493200  0.260400  1.0
  N  N2267  1  0.029233  0.260400  0.767200  1.0
  N  N2268  1  0.862567  0.767200  0.506800  1.0
  N  N2269  1  0.470767  0.232800  0.739600  1.0
  N  N2270  1  0.304100  0.739600  0.506800  1.0
  N  N2271  1  0.137433  0.506800  0.767200  1.0
  N  N2272  1  0.970767  0.767200  0.260400  1.0
  N  N2273  1  0.804100  0.260400  0.493200  1.0
  N  N2274  1  0.637433  0.493200  0.232800  1.0
  N  N2275  1  0.694300  0.572000  0.725900  1.0
  N  N2276  1  0.527633  0.725900  0.153900  1.0
  N  N2277  1  0.360967  0.153900  0.428000  1.0
  N  N2278  1  0.194300  0.428000  0.274100  1.0
  N  N2279  1  0.027633  0.274100  0.846100  1.0
  N  N2280  1  0.860967  0.846100  0.572000  1.0
  N  N2281  1  0.472367  0.153900  0.725900  1.0
  N  N2282  1  0.305700  0.725900  0.572000  1.0
  N  N2283  1  0.139033  0.572000  0.846100  1.0
  N  N2284  1  0.972367  0.846100  0.274100  1.0
  N  N2285  1  0.805700  0.274100  0.428000  1.0
  N  N2286  1  0.639033  0.428000  0.153900  1.0
  N  N2287  1  0.780200  0.569300  0.761000  1.0
  N  N2288  1  0.613533  0.761000  0.191700  1.0
  N  N2289  1  0.446867  0.191700  0.430700  1.0
  N  N2290  1  0.280200  0.430700  0.239000  1.0
  N  N2291  1  0.113533  0.239000  0.808300  1.0
  N  N2292  1  0.946867  0.808300  0.569300  1.0
  N  N2293  1  0.386467  0.191700  0.761000  1.0
  N  N2294  1  0.219800  0.761000  0.569300  1.0
  N  N2295  1  0.053133  0.569300  0.808300  1.0
  N  N2296  1  0.886467  0.808300  0.239000  1.0
  N  N2297  1  0.719800  0.239000  0.430700  1.0
  N  N2298  1  0.553133  0.430700  0.191700  1.0
  N  N2299  1  0.754400  0.549000  0.818300  1.0
  N  N2300  1  0.587733  0.818300  0.269300  1.0
  N  N2301  1  0.421067  0.269300  0.451000  1.0
  N  N2302  1  0.254400  0.451000  0.181700  1.0
  N  N2303  1  0.087733  0.181700  0.730700  1.0
  N  N2304  1  0.921067  0.730700  0.549000  1.0
  N  N2305  1  0.412267  0.269300  0.818300  1.0
  N  N2306  1  0.245600  0.818300  0.549000  1.0
  N  N2307  1  0.078933  0.549000  0.730700  1.0
  N  N2308  1  0.912267  0.730700  0.181700  1.0
  N  N2309  1  0.745600  0.181700  0.451000  1.0
  N  N2310  1  0.578933  0.451000  0.269300  1.0
  N  N2311  1  0.710700  0.447600  0.881400  1.0
  N  N2312  1  0.544033  0.881400  0.433800  1.0
  N  N2313  1  0.377367  0.433800  0.552400  1.0
  N  N2314  1  0.210700  0.552400  0.118600  1.0
  N  N2315  1  0.044033  0.118600  0.566200  1.0
  N  N2316  1  0.877367  0.566200  0.447600  1.0
  N  N2317  1  0.455967  0.433800  0.881400  1.0
  N  N2318  1  0.289300  0.881400  0.447600  1.0
  N  N2319  1  0.122633  0.447600  0.566200  1.0
  N  N2320  1  0.955967  0.566200  0.118600  1.0
  N  N2321  1  0.789300  0.118600  0.552400  1.0
  N  N2322  1  0.622633  0.552400  0.433800  1.0
  N  N2323  1  0.672200  0.404800  0.911000  1.0
  N  N2324  1  0.505533  0.911000  0.506200  1.0
  N  N2325  1  0.338867  0.506200  0.595200  1.0
  N  N2326  1  0.172200  0.595200  0.089000  1.0
  N  N2327  1  0.005533  0.089000  0.493800  1.0
  N  N2328  1  0.838867  0.493800  0.404800  1.0
  N  N2329  1  0.494467  0.506200  0.911000  1.0
  N  N2330  1  0.327800  0.911000  0.404800  1.0
  N  N2331  1  0.161133  0.404800  0.493800  1.0
  N  N2332  1  0.994467  0.493800  0.089000  1.0
  N  N2333  1  0.827800  0.089000  0.595200  1.0
  N  N2334  1  0.661133  0.595200  0.506200  1.0
  N  N2335  1  0.595900  0.300500  0.962000  1.0
  N  N2336  1  0.429233  0.962000  0.661500  1.0
  N  N2337  1  0.262567  0.661500  0.699500  1.0
  N  N2338  1  0.095900  0.699500  0.038000  1.0
  N  N2339  1  0.929233  0.038000  0.338500  1.0
  N  N2340  1  0.762567  0.338500  0.300500  1.0
  N  N2341  1  0.570767  0.661500  0.962000  1.0
  N  N2342  1  0.404100  0.962000  0.300500  1.0
  N  N2343  1  0.237433  0.300500  0.338500  1.0
  N  N2344  1  0.070767  0.338500  0.038000  1.0
  N  N2345  1  0.904100  0.038000  0.699500  1.0
  N  N2346  1  0.737433  0.699500  0.661500  1.0
  N  N2347  1  0.542900  0.260600  0.981300  1.0
  N  N2348  1  0.376233  0.981300  0.720700  1.0
  N  N2349  1  0.209567  0.720700  0.739400  1.0
  N  N2350  1  0.042900  0.739400  0.018700  1.0
  N  N2351  1  0.876233  0.018700  0.279300  1.0
  N  N2352  1  0.709567  0.279300  0.260600  1.0
  N  N2353  1  0.623767  0.720700  0.981300  1.0
  N  N2354  1  0.457100  0.981300  0.260600  1.0
  N  N2355  1  0.290433  0.260600  0.279300  1.0
  N  N2356  1  0.123767  0.279300  0.018700  1.0
  N  N2357  1  0.957100  0.018700  0.739400  1.0
  N  N2358  1  0.790433  0.739400  0.720700  1.0
  N  N2359  1  0.612000  0.655800  0.802800  1.0
  N  N2360  1  0.445333  0.802800  0.147000  1.0
  N  N2361  1  0.278667  0.147000  0.344200  1.0
  N  N2362  1  0.112000  0.344200  0.197200  1.0
  N  N2363  1  0.945333  0.197200  0.853000  1.0
  N  N2364  1  0.778667  0.853000  0.655800  1.0
  N  N2365  1  0.554667  0.147000  0.802800  1.0
  N  N2366  1  0.388000  0.802800  0.655800  1.0
  N  N2367  1  0.221333  0.655800  0.853000  1.0
  N  N2368  1  0.054667  0.853000  0.197200  1.0
  N  N2369  1  0.888000  0.197200  0.344200  1.0
  N  N2370  1  0.721333  0.344200  0.147000  1.0
  N  N2371  1  0.606900  0.573500  0.779200  1.0
  N  N2372  1  0.440233  0.779200  0.205700  1.0
  N  N2373  1  0.273567  0.205700  0.426500  1.0
  N  N2374  1  0.106900  0.426500  0.220800  1.0
  N  N2375  1  0.940233  0.220800  0.794300  1.0
  N  N2376  1  0.773567  0.794300  0.573500  1.0
  N  N2377  1  0.559767  0.205700  0.779200  1.0
  N  N2378  1  0.393100  0.779200  0.573500  1.0
  N  N2379  1  0.226433  0.573500  0.794300  1.0
  N  N2380  1  0.059767  0.794300  0.220800  1.0
  N  N2381  1  0.893100  0.220800  0.426500  1.0
  N  N2382  1  0.726433  0.426500  0.205700  1.0
  N  N2383  1  0.581900  0.417300  0.762300  1.0
  N  N2384  1  0.415233  0.762300  0.345000  1.0
  N  N2385  1  0.248567  0.345000  0.582700  1.0
  N  N2386  1  0.081900  0.582700  0.237700  1.0
  N  N2387  1  0.915233  0.237700  0.655000  1.0
  N  N2388  1  0.748567  0.655000  0.417300  1.0
  N  N2389  1  0.584767  0.345000  0.762300  1.0
  N  N2390  1  0.418100  0.762300  0.417300  1.0
  N  N2391  1  0.251433  0.417300  0.655000  1.0
  N  N2392  1  0.084767  0.655000  0.237700  1.0
  N  N2393  1  0.918100  0.237700  0.582700  1.0
  N  N2394  1  0.751433  0.582700  0.345000  1.0
  O  O2395  1  0.890000  0.612000  0.240600  1
  O  O2396  1  0.723333  0.240600  0.628600  1
  O  O2397  1  0.556667  0.628600  0.388000  1
  O  O2398  1  0.390000  0.388000  0.759400  1
  O  O2399  1  0.223333  0.759400  0.371400  1
  O  O2400  1  0.056667  0.371400  0.612000  1
  O  O2401  1  0.276667  0.628600  0.240600  1
  O  O2402  1  0.110000  0.240600  0.612000  1
  O  O2403  1  0.943333  0.612000  0.371400  1
  O  O2404  1  0.776667  0.371400  0.759400  1
  O  O2405  1  0.610000  0.759400  0.388000  1
  O  O2406  1  0.443333  0.388000  0.628600  1
  O  O2407  1  0.890500  0.668200  0.222300  1
  O  O2408  1  0.723833  0.222300  0.554100  1
  O  O2409  1  0.557167  0.554100  0.331800  1
  O  O2410  1  0.390500  0.331800  0.777700  1
  O  O2411  1  0.223833  0.777700  0.445900  1
  O  O2412  1  0.057167  0.445900  0.668200  1
  O  O2413  1  0.276167  0.554100  0.222300  1
  O  O2414  1  0.109500  0.222300  0.668200  1
  O  O2415  1  0.942833  0.668200  0.445900  1
  O  O2416  1  0.776167  0.445900  0.777700  1
  O  O2417  1  0.609500  0.777700  0.331800  1
  O  O2418  1  0.442833  0.331800  0.554100  1
  O  O2419  1  0.798500  0.726400  0.324100  1
  O  O2420  1  0.631833  0.324100  0.597700  1
  O  O2421  1  0.465167  0.597700  0.273600  1
  O  O2422  1  0.298500  0.273600  0.675900  1
  O  O2423  1  0.131833  0.675900  0.402300  1
  O  O2424  1  0.965167  0.402300  0.726400  1
  O  O2425  1  0.368167  0.597700  0.324100  1
  O  O2426  1  0.201500  0.324100  0.726400  1
  O  O2427  1  0.034833  0.726400  0.402300  1
  O  O2428  1  0.868167  0.402300  0.675900  1
  O  O2429  1  0.701500  0.675900  0.273600  1
  O  O2430  1  0.534833  0.273600  0.597700  1
  O  O2431  1  0.816400  0.722200  0.258600  1
  O  O2432  1  0.649733  0.258600  0.536400  1
  O  O2433  1  0.483067  0.536400  0.277800  1
  O  O2434  1  0.316400  0.277800  0.741400  1
  O  O2435  1  0.149733  0.741400  0.463600  1
  O  O2436  1  0.983067  0.463600  0.722200  1
  O  O2437  1  0.350267  0.536400  0.258600  1
  O  O2438  1  0.183600  0.258600  0.722200  1
  O  O2439  1  0.016933  0.722200  0.463600  1
  O  O2440  1  0.850267  0.463600  0.741400  1
  O  O2441  1  0.683600  0.741400  0.277800  1
  O  O2442  1  0.516933  0.277800  0.536400  1
  O  O2443  1  0.915900  0.412400  0.149100  1
  O  O2444  1  0.749233  0.149100  0.736700  1
  O  O2445  1  0.582567  0.736700  0.587600  1
  O  O2446  1  0.415900  0.587600  0.850900  1
  O  O2447  1  0.249233  0.850900  0.263300  1
  O  O2448  1  0.082567  0.263300  0.412400  1
  O  O2449  1  0.250767  0.736700  0.149100  1
  O  O2450  1  0.084100  0.149100  0.412400  1
  O  O2451  1  0.917433  0.412400  0.263300  1
  O  O2452  1  0.750767  0.263300  0.850900  1
  O  O2453  1  0.584100  0.850900  0.587600  1
  O  O2454  1  0.417433  0.587600  0.736700  1
  O  O2455  1  0.958100  0.388800  0.088100  1
  O  O2456  1  0.791433  0.088100  0.699300  1
  O  O2457  1  0.624767  0.699300  0.611200  1
  O  O2458  1  0.458100  0.611200  0.911900  1
  O  O2459  1  0.291433  0.911900  0.300700  1
  O  O2460  1  0.124767  0.300700  0.388800  1
  O  O2461  1  0.208567  0.699300  0.088100  1
  O  O2462  1  0.041900  0.088100  0.388800  1
  O  O2463  1  0.875233  0.388800  0.300700  1
  O  O2464  1  0.708567  0.300700  0.911900  1
  O  O2465  1  0.541900  0.911900  0.611200  1
  O  O2466  1  0.375233  0.611200  0.699300  1
  O  O2467  1  0.913300  0.517000  0.153400  1
  O  O2468  1  0.746633  0.153400  0.636400  1
  O  O2469  1  0.579967  0.636400  0.483000  1
  O  O2470  1  0.413300  0.483000  0.846600  1
  O  O2471  1  0.246633  0.846600  0.363600  1
  O  O2472  1  0.079967  0.363600  0.517000  1
  O  O2473  1  0.253367  0.636400  0.153400  1
  O  O2474  1  0.086700  0.153400  0.517000  1
  O  O2475  1  0.920033  0.517000  0.363600  1
  O  O2476  1  0.753367  0.363600  0.846600  1
  O  O2477  1  0.586700  0.846600  0.483000  1
  O  O2478  1  0.420033  0.483000  0.636400  1
  O  O2479  1  0.861000  0.465600  0.149000  1
  O  O2480  1  0.694333  0.149000  0.683400  1
  O  O2481  1  0.527667  0.683400  0.534400  1
  O  O2482  1  0.361000  0.534400  0.851000  1
  O  O2483  1  0.194333  0.851000  0.316600  1
  O  O2484  1  0.027667  0.316600  0.465600  1
  O  O2485  1  0.305667  0.683400  0.149000  1
  O  O2486  1  0.139000  0.149000  0.465600  1
  O  O2487  1  0.972333  0.465600  0.316600  1
  O  O2488  1  0.805667  0.316600  0.851000  1
  O  O2489  1  0.639000  0.851000  0.534400  1
  O  O2490  1  0.472333  0.534400  0.683400  1
  O  O2491  1  0.605900  0.565800  0.866200  1
  O  O2492  1  0.439233  0.866200  0.300400  1
  O  O2493  1  0.272567  0.300400  0.434200  1
  O  O2494  1  0.105900  0.434200  0.133800  1
  O  O2495  1  0.939233  0.133800  0.699600  1
  O  O2496  1  0.772567  0.699600  0.565800  1
  O  O2497  1  0.560767  0.300400  0.866200  1
  O  O2498  1  0.394100  0.866200  0.565800  1
  O  O2499  1  0.227433  0.565800  0.699600  1
  O  O2500  1  0.060767  0.699600  0.133800  1
  O  O2501  1  0.894100  0.133800  0.434200  1
  O  O2502  1  0.727433  0.434200  0.300400  1
  O  O2503  1  0.599000  0.499200  0.861800  1
  O  O2504  1  0.432333  0.861800  0.362600  1
  O  O2505  1  0.265667  0.362600  0.500800  1
  O  O2506  1  0.099000  0.500800  0.138200  1
  O  O2507  1  0.932333  0.138200  0.637400  1
  O  O2508  1  0.765667  0.637400  0.499200  1
  O  O2509  1  0.567667  0.362600  0.861800  1
  O  O2510  1  0.401000  0.861800  0.499200  1
  O  O2511  1  0.234333  0.499200  0.637400  1
  O  O2512  1  0.067667  0.637400  0.138200  1
  O  O2513  1  0.901000  0.138200  0.500800  1
  O  O2514  1  0.734333  0.500800  0.362600  1
  O  O2515  1  0.655500  0.509300  0.838500  1
  O  O2516  1  0.488833  0.838500  0.329200  1
  O  O2517  1  0.322167  0.329200  0.490700  1
  O  O2518  1  0.155500  0.490700  0.161500  1
  O  O2519  1  0.988833  0.161500  0.670800  1
  O  O2520  1  0.822167  0.670800  0.509300  1
  O  O2521  1  0.511167  0.329200  0.838500  1
  O  O2522  1  0.344500  0.838500  0.509300  1
  O  O2523  1  0.177833  0.509300  0.670800  1
  O  O2524  1  0.011167  0.670800  0.161500  1
  O  O2525  1  0.844500  0.161500  0.490700  1
  O  O2526  1  0.677833  0.490700  0.329200  1
  O  O2527  1  0.585000  0.539700  0.869800  1
  O  O2528  1  0.418333  0.869800  0.330100  1
  O  O2529  1  0.251667  0.330100  0.460300  1
  O  O2530  1  0.085000  0.460300  0.130200  1
  O  O2531  1  0.918333  0.130200  0.669900  1
  O  O2532  1  0.751667  0.669900  0.539700  1
  O  O2533  1  0.581667  0.330100  0.869800  1
  O  O2534  1  0.415000  0.869800  0.539700  1
  O  O2535  1  0.248333  0.539700  0.669900  1
  O  O2536  1  0.081667  0.669900  0.130200  1
  O  O2537  1  0.915000  0.130200  0.460300  1
  O  O2538  1  0.748333  0.460300  0.330100  1
  O  O2539  1  0.635400  0.489700  0.847700  1
  O  O2540  1  0.468733  0.847700  0.358000  1
  O  O2541  1  0.302067  0.358000  0.510300  1
  O  O2542  1  0.135400  0.510300  0.152300  1
  O  O2543  1  0.968733  0.152300  0.642000  1
  O  O2544  1  0.802067  0.642000  0.489700  1
  O  O2545  1  0.531267  0.358000  0.847700  1
  O  O2546  1  0.364600  0.847700  0.489700  1
  O  O2547  1  0.197933  0.489700  0.642000  1
  O  O2548  1  0.031267  0.642000  0.152300  1
  O  O2549  1  0.864600  0.152300  0.510300  1
  O  O2550  1  0.697933  0.510300  0.358000  1
  O  O2551  1  0.645300  0.556800  0.852200  1
  O  O2552  1  0.478633  0.852200  0.295400  1
  O  O2553  1  0.311967  0.295400  0.443200  1
  O  O2554  1  0.145300  0.443200  0.147800  1
  O  O2555  1  0.978633  0.147800  0.704600  1
  O  O2556  1  0.811967  0.704600  0.556800  1
  O  O2557  1  0.521367  0.295400  0.852200  1
  O  O2558  1  0.354700  0.852200  0.556800  1
  O  O2559  1  0.188033  0.556800  0.704600  1
  O  O2560  1  0.021367  0.704600  0.147800  1
  O  O2561  1  0.854700  0.147800  0.443200  1
  O  O2562  1  0.688033  0.443200  0.295400  1
  O  O2563  1  0.690400  0.607000  0.819100  1.0
  O  O2564  1  0.523733  0.819100  0.212100  1.0
  O  O2565  1  0.357067  0.212100  0.393000  1.0
  O  O2566  1  0.190400  0.393000  0.180900  1.0
  O  O2567  1  0.023733  0.180900  0.787900  1.0
  O  O2568  1  0.857067  0.787900  0.607000  1.0
  O  O2569  1  0.476267  0.212100  0.819100  1.0
  O  O2570  1  0.309600  0.819100  0.607000  1.0
  O  O2571  1  0.142933  0.607000  0.787900  1.0
  O  O2572  1  0.976267  0.787900  0.180900  1.0
  O  O2573  1  0.809600  0.180900  0.393000  1.0
  O  O2574  1  0.642933  0.393000  0.212100  1.0
  O  O2575  1  0.625100  0.655600  0.887300  1.0
  O  O2576  1  0.458433  0.887300  0.231700  1.0
  O  O2577  1  0.291767  0.231700  0.344400  1.0
  O  O2578  1  0.125100  0.344400  0.112700  1.0
  O  O2579  1  0.958433  0.112700  0.768300  1.0
  O  O2580  1  0.791767  0.768300  0.655600  1.0
  O  O2581  1  0.541567  0.231700  0.887300  1.0
  O  O2582  1  0.374900  0.887300  0.655600  1.0
  O  O2583  1  0.208233  0.655600  0.768300  1.0
  O  O2584  1  0.041567  0.768300  0.112700  1.0
  O  O2585  1  0.874900  0.112700  0.344400  1.0
  O  O2586  1  0.708233  0.344400  0.231700  1.0
  O  O2587  1  0.621900  0.412000  0.846900  1.0
  O  O2588  1  0.455233  0.846900  0.434900  1.0
  O  O2589  1  0.288567  0.434900  0.588000  1.0
  O  O2590  1  0.121900  0.588000  0.153100  1.0
  O  O2591  1  0.955233  0.153100  0.565100  1.0
  O  O2592  1  0.788567  0.565100  0.412000  1.0
  O  O2593  1  0.544767  0.434900  0.846900  1.0
  O  O2594  1  0.378100  0.846900  0.412000  1.0
  O  O2595  1  0.211433  0.412000  0.565100  1.0
  O  O2596  1  0.044767  0.565100  0.153100  1.0
  O  O2597  1  0.878100  0.153100  0.588000  1.0
  O  O2598  1  0.711433  0.588000  0.434900  1.0
  O  O2599  1  0.571900  0.108100  0.010600  1.0
  O  O2600  1  0.405233  0.010600  0.902500  1.0
  O  O2601  1  0.238567  0.902500  0.891900  1.0
  O  O2602  1  0.071900  0.891900  0.989400  1.0
  O  O2603  1  0.905233  0.989400  0.097500  1.0
  O  O2604  1  0.738567  0.097500  0.108100  1.0
  O  O2605  1  0.594767  0.902500  0.010600  1.0
  O  O2606  1  0.428100  0.010600  0.108100  1.0
  O  O2607  1  0.261433  0.108100  0.097500  1.0
  O  O2608  1  0.094767  0.097500  0.989400  1.0
  O  O2609  1  0.928100  0.989400  0.891900  1.0
  O  O2610  1  0.761433  0.891900  0.902500  1.0
  O  O2611  1  0.674800  0.726700  0.738300  1.0
  O  O2612  1  0.508133  0.738300  0.011600  1.0
  O  O2613  1  0.341467  0.011600  0.273300  1.0
  O  O2614  1  0.174800  0.273300  0.261700  1.0
  O  O2615  1  0.008133  0.261700  0.988400  1.0
  O  O2616  1  0.841467  0.988400  0.726700  1.0
  O  O2617  1  0.491867  0.011600  0.738300  1.0
  O  O2618  1  0.325200  0.738300  0.726700  1.0
  O  O2619  1  0.158533  0.726700  0.988400  1.0
  O  O2620  1  0.991867  0.988400  0.261700  1.0
  O  O2621  1  0.825200  0.261700  0.273300  1.0
  O  O2622  1  0.658533  0.273300  0.011600  1.0
  O  O2623  1  0.853100  0.602300  0.648300  1.0
  O  O2624  1  0.686433  0.648300  0.046000  1.0
  O  O2625  1  0.519767  0.046000  0.397700  1.0
  O  O2626  1  0.353100  0.397700  0.351700  1.0
  O  O2627  1  0.186433  0.351700  0.954000  1.0
  O  O2628  1  0.019767  0.954000  0.602300  1.0
  O  O2629  1  0.313567  0.046000  0.648300  1.0
  O  O2630  1  0.146900  0.648300  0.602300  1.0
  O  O2631  1  0.980233  0.602300  0.954000  1.0
  O  O2632  1  0.813567  0.954000  0.351700  1.0
  O  O2633  1  0.646900  0.351700  0.397700  1.0
  O  O2634  1  0.480233  0.397700  0.046000  1.0
  O  O2635  1  0.457800  0.151500  0.011900  1.0
  O  O2636  1  0.291133  0.011900  0.860400  1.0
  O  O2637  1  0.124467  0.860400  0.848500  1.0
  O  O2638  1  0.957800  0.848500  0.988100  1.0
  O  O2639  1  0.791133  0.988100  0.139600  1.0
  O  O2640  1  0.624467  0.139600  0.151500  1.0
  O  O2641  1  0.708867  0.860400  0.011900  1.0
  O  O2642  1  0.542200  0.011900  0.151500  1.0
  O  O2643  1  0.375533  0.151500  0.139600  1.0
  O  O2644  1  0.208867  0.139600  0.988100  1.0
  O  O2645  1  0.042200  0.988100  0.848500  1.0
  O  O2646  1  0.875533  0.848500  0.860400  1.0
  O  O2647  1  0.650300  0.823900  0.865300  1.0
  O  O2648  1  0.483633  0.865300  0.041400  1.0
  O  O2649  1  0.316967  0.041400  0.176100  1.0
  O  O2650  1  0.150300  0.176100  0.134700  1.0
  O  O2651  1  0.983633  0.134700  0.958600  1.0
  O  O2652  1  0.816967  0.958600  0.823900  1.0
  O  O2653  1  0.516367  0.041400  0.865300  1.0
  O  O2654  1  0.349700  0.865300  0.823900  1.0
  O  O2655  1  0.183033  0.823900  0.958600  1.0
  O  O2656  1  0.016367  0.958600  0.134700  1.0
  O  O2657  1  0.849700  0.134700  0.176100  1.0
  O  O2658  1  0.683033  0.176100  0.041400  1.0
  F  F2659  1  0.815300  0.590400  0.208800  1
  F  F2660  1  0.648633  0.208800  0.618400  1
  F  F2661  1  0.481967  0.618400  0.409600  1
  F  F2662  1  0.315300  0.409600  0.791200  1
  F  F2663  1  0.148633  0.791200  0.381600  1
  F  F2664  1  0.981967  0.381600  0.590400  1
  F  F2665  1  0.351367  0.618400  0.208800  1
  F  F2666  1  0.184700  0.208800  0.590400  1
  F  F2667  1  0.018033  0.590400  0.381600  1
  F  F2668  1  0.851367  0.381600  0.791200  1
  F  F2669  1  0.684700  0.791200  0.409600  1
  F  F2670  1  0.518033  0.409600  0.618400  1
  F  F2671  1  0.853500  0.588500  0.161000  1
  F  F2672  1  0.686833  0.161000  0.572500  1
  F  F2673  1  0.520167  0.572500  0.411500  1
  F  F2674  1  0.353500  0.411500  0.839000  1
  F  F2675  1  0.186833  0.839000  0.427500  1
  F  F2676  1  0.020167  0.427500  0.588500  1
  F  F2677  1  0.313167  0.572500  0.161000  1
  F  F2678  1  0.146500  0.161000  0.588500  1
  F  F2679  1  0.979833  0.588500  0.427500  1
  F  F2680  1  0.813167  0.427500  0.839000  1
  F  F2681  1  0.646500  0.839000  0.411500  1
  F  F2682  1  0.479833  0.411500  0.572500  1
  F  F2683  1  0.809900  0.637200  0.191200  1
  F  F2684  1  0.643233  0.191200  0.554000  1
  F  F2685  1  0.476567  0.554000  0.362800  1
  F  F2686  1  0.309900  0.362800  0.808800  1
  F  F2687  1  0.143233  0.808800  0.446000  1
  F  F2688  1  0.976567  0.446000  0.637200  1
  F  F2689  1  0.356767  0.554000  0.191200  1
  F  F2690  1  0.190100  0.191200  0.637200  1
  F  F2691  1  0.023433  0.637200  0.446000  1
  F  F2692  1  0.856767  0.446000  0.808800  1
  F  F2693  1  0.690100  0.808800  0.362800  1
  F  F2694  1  0.523433  0.362800  0.554000  1
  F  F2695  1  0.848000  0.794900  0.346300  1
  F  F2696  1  0.681333  0.346300  0.551400  1
  F  F2697  1  0.514667  0.551400  0.205100  1
  F  F2698  1  0.348000  0.205100  0.653700  1
  F  F2699  1  0.181333  0.653700  0.448600  1
  F  F2700  1  0.014667  0.448600  0.794900  1
  F  F2701  1  0.318667  0.551400  0.346300  1
  F  F2702  1  0.152000  0.346300  0.794900  1
  F  F2703  1  0.985333  0.794900  0.448600  1
  F  F2704  1  0.818667  0.448600  0.653700  1
  F  F2705  1  0.652000  0.653700  0.205100  1
  F  F2706  1  0.485333  0.205100  0.551400  1
  F  F2707  1  0.879900  0.749600  0.347400  1
  F  F2708  1  0.713233  0.347400  0.597800  1
  F  F2709  1  0.546567  0.597800  0.250400  1
  F  F2710  1  0.379900  0.250400  0.652600  1
  F  F2711  1  0.213233  0.652600  0.402200  1
  F  F2712  1  0.046567  0.402200  0.749600  1
  F  F2713  1  0.286767  0.597800  0.347400  1
  F  F2714  1  0.120100  0.347400  0.749600  1
  F  F2715  1  0.953433  0.749600  0.402200  1
  F  F2716  1  0.786767  0.402200  0.652600  1
  F  F2717  1  0.620100  0.652600  0.250400  1
  F  F2718  1  0.453433  0.250400  0.597800  1
  F  F2719  1  0.891600  0.752100  0.296000  1
  F  F2720  1  0.724933  0.296000  0.543900  1
  F  F2721  1  0.558267  0.543900  0.247900  1
  F  F2722  1  0.391600  0.247900  0.704000  1
  F  F2723  1  0.224933  0.704000  0.456100  1
  F  F2724  1  0.058267  0.456100  0.752100  1
  F  F2725  1  0.275067  0.543900  0.296000  1
  F  F2726  1  0.108400  0.296000  0.752100  1
  F  F2727  1  0.941733  0.752100  0.456100  1
  F  F2728  1  0.775067  0.456100  0.704000  1
  F  F2729  1  0.608400  0.704000  0.247900  1
  F  F2730  1  0.441733  0.247900  0.543900  1
  F  F2731  1  0.898700  0.325700  0.086900  1
  F  F2732  1  0.732033  0.086900  0.761200  1
  F  F2733  1  0.565367  0.761200  0.674300  1
  F  F2734  1  0.398700  0.674300  0.913100  1
  F  F2735  1  0.232033  0.913100  0.238800  1
  F  F2736  1  0.065367  0.238800  0.325700  1
  F  F2737  1  0.267967  0.761200  0.086900  1
  F  F2738  1  0.101300  0.086900  0.325700  1
  F  F2739  1  0.934633  0.325700  0.238800  1
  F  F2740  1  0.767967  0.238800  0.913100  1
  F  F2741  1  0.601300  0.913100  0.674300  1
  F  F2742  1  0.434633  0.674300  0.761200  1
  F  F2743  1  0.899000  0.335900  0.035000  1
  F  F2744  1  0.732333  0.035000  0.699100  1
  F  F2745  1  0.565667  0.699100  0.664100  1
  F  F2746  1  0.399000  0.664100  0.965000  1
  F  F2747  1  0.232333  0.965000  0.300900  1
  F  F2748  1  0.065667  0.300900  0.335900  1
  F  F2749  1  0.267667  0.699100  0.035000  1
  F  F2750  1  0.101000  0.035000  0.335900  1
  F  F2751  1  0.934333  0.335900  0.300900  1
  F  F2752  1  0.767667  0.300900  0.965000  1
  F  F2753  1  0.601000  0.965000  0.664100  1
  F  F2754  1  0.434333  0.664100  0.699100  1
  F  F2755  1  0.854700  0.361100  0.081900  1
  F  F2756  1  0.688033  0.081900  0.720800  1
  F  F2757  1  0.521367  0.720800  0.638900  1
  F  F2758  1  0.354700  0.638900  0.918100  1
  F  F2759  1  0.188033  0.918100  0.279200  1
  F  F2760  1  0.021367  0.279200  0.361100  1
  F  F2761  1  0.311967  0.720800  0.081900  1
  F  F2762  1  0.145300  0.081900  0.361100  1
  F  F2763  1  0.978633  0.361100  0.279200  1
  F  F2764  1  0.811967  0.279200  0.918100  1
  F  F2765  1  0.645300  0.918100  0.638900  1
  F  F2766  1  0.478633  0.638900  0.720800  1
  F  F2767  1  0.839200  0.452900  0.077600  1
  F  F2768  1  0.672533  0.077600  0.624700  1
  F  F2769  1  0.505867  0.624700  0.547100  1
  F  F2770  1  0.339200  0.547100  0.922400  1
  F  F2771  1  0.172533  0.922400  0.375300  1
  F  F2772  1  0.005867  0.375300  0.452900  1
  F  F2773  1  0.327467  0.624700  0.077600  1
  F  F2774  1  0.160800  0.077600  0.452900  1
  F  F2775  1  0.994133  0.452900  0.375300  1
  F  F2776  1  0.827467  0.375300  0.922400  1
  F  F2777  1  0.660800  0.922400  0.547100  1
  F  F2778  1  0.494133  0.547100  0.624700  1
  F  F2779  1  0.830300  0.518200  0.119000  1
  F  F2780  1  0.663633  0.119000  0.600800  1
  F  F2781  1  0.496967  0.600800  0.481800  1
  F  F2782  1  0.330300  0.481800  0.881000  1
  F  F2783  1  0.163633  0.881000  0.399200  1
  F  F2784  1  0.996967  0.399200  0.518200  1
  F  F2785  1  0.336367  0.600800  0.119000  1
  F  F2786  1  0.169700  0.119000  0.518200  1
  F  F2787  1  0.003033  0.518200  0.399200  1
  F  F2788  1  0.836367  0.399200  0.881000  1
  F  F2789  1  0.669700  0.881000  0.481800  1
  F  F2790  1  0.503033  0.481800  0.600800  1
  F  F2791  1  0.875300  0.495300  0.070500  1
  F  F2792  1  0.708633  0.070500  0.575200  1
  F  F2793  1  0.541967  0.575200  0.504700  1
  F  F2794  1  0.375300  0.504700  0.929500  1
  F  F2795  1  0.208633  0.929500  0.424800  1
  F  F2796  1  0.041967  0.424800  0.495300  1
  F  F2797  1  0.291367  0.575200  0.070500  1
  F  F2798  1  0.124700  0.070500  0.495300  1
  F  F2799  1  0.958033  0.495300  0.424800  1
  F  F2800  1  0.791367  0.424800  0.929500  1
  F  F2801  1  0.624700  0.929500  0.504700  1
  F  F2802  1  0.458033  0.504700  0.575200  1
  F  F2803  1  0.656500  0.526500  0.929700  1
  F  F2804  1  0.489833  0.929700  0.403200  1
  F  F2805  1  0.323167  0.403200  0.473500  1
  F  F2806  1  0.156500  0.473500  0.070300  1
  F  F2807  1  0.989833  0.070300  0.596800  1
  F  F2808  1  0.823167  0.596800  0.526500  1
  F  F2809  1  0.510167  0.403200  0.929700  1
  F  F2810  1  0.343500  0.929700  0.526500  1
  F  F2811  1  0.176833  0.526500  0.596800  1
  F  F2812  1  0.010167  0.596800  0.070300  1
  F  F2813  1  0.843500  0.070300  0.473500  1
  F  F2814  1  0.676833  0.473500  0.403200  1
  F  F2815  1  0.622600  0.583900  0.950800  1
  F  F2816  1  0.455933  0.950800  0.366900  1
  F  F2817  1  0.289267  0.366900  0.416100  1
  F  F2818  1  0.122600  0.416100  0.049200  1
  F  F2819  1  0.955933  0.049200  0.633100  1
  F  F2820  1  0.789267  0.633100  0.583900  1
  F  F2821  1  0.544067  0.366900  0.950800  1
  F  F2822  1  0.377400  0.950800  0.583900  1
  F  F2823  1  0.210733  0.583900  0.633100  1
  F  F2824  1  0.044067  0.633100  0.049200  1
  F  F2825  1  0.877400  0.049200  0.416100  1
  F  F2826  1  0.710733  0.416100  0.366900  1
  F  F2827  1  0.680000  0.574300  0.921600  1
  F  F2828  1  0.513333  0.921600  0.347300  1
  F  F2829  1  0.346667  0.347300  0.425700  1
  F  F2830  1  0.180000  0.425700  0.078400  1
  F  F2831  1  0.013333  0.078400  0.652700  1
  F  F2832  1  0.846667  0.652700  0.574300  1
  F  F2833  1  0.486667  0.347300  0.921600  1
  F  F2834  1  0.320000  0.921600  0.574300  1
  F  F2835  1  0.153333  0.574300  0.652700  1
  F  F2836  1  0.986667  0.652700  0.078400  1
  F  F2837  1  0.820000  0.078400  0.425700  1
  F  F2838  1  0.653333  0.425700  0.347300  1
  F  F2839  1  0.622000  0.549500  0.946800  1
  F  F2840  1  0.455333  0.946800  0.397300  1
  F  F2841  1  0.288667  0.397300  0.450500  1
  F  F2842  1  0.122000  0.450500  0.053200  1
  F  F2843  1  0.955333  0.053200  0.602700  1
  F  F2844  1  0.788667  0.602700  0.549500  1
  F  F2845  1  0.544667  0.397300  0.946800  1
  F  F2846  1  0.378000  0.946800  0.549500  1
  F  F2847  1  0.211333  0.549500  0.602700  1
  F  F2848  1  0.044667  0.602700  0.053200  1
  F  F2849  1  0.878000  0.053200  0.450500  1
  F  F2850  1  0.711333  0.450500  0.397300  1
  F  F2851  1  0.639500  0.600500  0.942500  1
  F  F2852  1  0.472833  0.942500  0.342000  1
  F  F2853  1  0.306167  0.342000  0.399500  1
  F  F2854  1  0.139500  0.399500  0.057500  1
  F  F2855  1  0.972833  0.057500  0.658000  1
  F  F2856  1  0.806167  0.658000  0.600500  1
  F  F2857  1  0.527167  0.342000  0.942500  1
  F  F2858  1  0.360500  0.942500  0.600500  1
  F  F2859  1  0.193833  0.600500  0.658000  1
  F  F2860  1  0.027167  0.658000  0.057500  1
  F  F2861  1  0.860500  0.057500  0.399500  1
  F  F2862  1  0.693833  0.399500  0.342000  1
  F  F2863  1  0.681700  0.551800  0.927700  1
  F  F2864  1  0.515033  0.927700  0.375900  1
  F  F2865  1  0.348367  0.375900  0.448200  1
  F  F2866  1  0.181700  0.448200  0.072300  1
  F  F2867  1  0.015033  0.072300  0.624100  1
  F  F2868  1  0.848367  0.624100  0.551800  1
  F  F2869  1  0.484967  0.375900  0.927700  1
  F  F2870  1  0.318300  0.927700  0.551800  1
  F  F2871  1  0.151633  0.551800  0.624100  1
  F  F2872  1  0.984967  0.624100  0.072300  1
  F  F2873  1  0.818300  0.072300  0.448200  1
  F  F2874  1  0.651633  0.448200  0.375900  1
