# generated using pymatgen
data_Zn9H164C214S15N37(O23F18)2
_symmetry_space_group_name_H-M   'P 1'
_cell_length_a   15.84160000
_cell_length_b   33.87500000
_cell_length_c   55.35600000
_cell_angle_alpha   90.00000000
_cell_angle_beta   90.00000000
_cell_angle_gamma   90.22900000
_symmetry_Int_Tables_number   1
_chemical_formula_structural   Zn9H164C214S15N37(O23F18)2
_chemical_formula_sum   'Zn36 H656 C856 S60 N148 O184 F144'
_cell_volume   29705.68550774
_cell_formula_units_Z   4
loop_
 _symmetry_equiv_pos_site_id
 _symmetry_equiv_pos_as_xyz
  1  'x, y, z'
loop_
 _atom_site_type_symbol
 _atom_site_label
 _atom_site_symmetry_multiplicity
 _atom_site_fract_x
 _atom_site_fract_y
 _atom_site_fract_z
 _atom_site_occupancy
  Zn  Zn1  1  0.637400  0.262510  0.894210  1
  Zn  Zn2  1  0.862600  0.237490  0.394210  1
  Zn  Zn3  1  0.362600  0.737490  0.105790  1
  Zn  Zn4  1  0.137400  0.762510  0.605790  1
  Zn  Zn5  1  0.515500  0.350770  0.902320  1
  Zn  Zn6  1  0.984500  0.149230  0.402320  1
  Zn  Zn7  1  0.484500  0.649230  0.097680  1
  Zn  Zn8  1  0.015500  0.850770  0.597680  1
  Zn  Zn9  1  0.324100  0.404190  0.904820  1
  Zn  Zn10  1  0.175900  0.095810  0.404820  1
  Zn  Zn11  1  0.675900  0.595810  0.095180  1
  Zn  Zn12  1  0.824100  0.904190  0.595180  1
  Zn  Zn13  1  0.672520  0.338400  0.755460  1
  Zn  Zn14  1  0.827480  0.161600  0.255460  1
  Zn  Zn15  1  0.327480  0.661600  0.244540  1
  Zn  Zn16  1  0.172520  0.838400  0.744540  1
  Zn  Zn17  1  0.466000  0.371310  0.761910  1
  Zn  Zn18  1  0.034000  0.128690  0.261910  1
  Zn  Zn19  1  0.534000  0.628690  0.238090  1
  Zn  Zn20  1  0.966000  0.871310  0.738090  1
  Zn  Zn21  1  0.250300  0.345400  0.764100  1
  Zn  Zn22  1  0.249700  0.154600  0.264100  1
  Zn  Zn23  1  0.749700  0.654600  0.235900  1
  Zn  Zn24  1  0.750300  0.845400  0.735900  1
  Zn  Zn25  1  0.612100  0.409260  0.615630  1
  Zn  Zn26  1  0.887900  0.090740  0.115630  1
  Zn  Zn27  1  0.387900  0.590740  0.384370  1
  Zn  Zn28  1  0.112100  0.909260  0.884370  1
  Zn  Zn29  1  0.411300  0.364320  0.619880  1
  Zn  Zn30  1  0.088700  0.135680  0.119880  1
  Zn  Zn31  1  0.588700  0.635680  0.380120  1
  Zn  Zn32  1  0.911300  0.864320  0.880120  1
  Zn  Zn33  1  0.274700  0.280010  0.623200  1
  Zn  Zn34  1  0.225300  0.219990  0.123200  1
  Zn  Zn35  1  0.725300  0.719990  0.376800  1
  Zn  Zn36  1  0.774700  0.780010  0.876800  1
  H  H37  1  0.499200  0.282100  0.909300  1
  H  H38  1  0.000800  0.217900  0.409300  1
  H  H39  1  0.500800  0.717900  0.090700  1
  H  H40  1  0.999200  0.782100  0.590700  1
  H  H41  1  0.379400  0.342300  0.918700  1
  H  H42  1  0.120600  0.157700  0.418700  1
  H  H43  1  0.620600  0.657700  0.081300  1
  H  H44  1  0.879400  0.842300  0.581300  1
  H  H45  1  0.545300  0.313800  0.753300  1
  H  H46  1  0.954700  0.186200  0.253300  1
  H  H47  1  0.454700  0.686200  0.246700  1
  H  H48  1  0.045300  0.813800  0.746700  1
  H  H49  1  0.377000  0.320200  0.768900  1
  H  H50  1  0.123000  0.179800  0.268900  1
  H  H51  1  0.623000  0.679800  0.231100  1
  H  H52  1  0.877000  0.820200  0.731100  1
  H  H53  1  0.547700  0.354900  0.597900  1
  H  H54  1  0.952300  0.145100  0.097900  1
  H  H55  1  0.452300  0.645100  0.402100  1
  H  H56  1  0.047700  0.854900  0.902100  1
  H  H57  1  0.414500  0.294400  0.618000  1
  H  H58  1  0.085500  0.205600  0.118000  1
  H  H59  1  0.585500  0.705600  0.382000  1
  H  H60  1  0.914500  0.794400  0.882000  1
  H  H61  1  0.539400  0.254100  0.945300  1
  H  H62  1  0.960600  0.245900  0.445300  1
  H  H63  1  0.460600  0.745900  0.054700  1
  H  H64  1  0.039400  0.754100  0.554700  1
  H  H65  1  0.517500  0.240700  0.985800  1
  H  H66  1  0.982500  0.259300  0.485800  1
  H  H67  1  0.482500  0.759300  0.014200  1
  H  H68  1  0.017500  0.740700  0.514200  1
  H  H69  1  0.549700  0.124800  0.972500  1
  H  H70  1  0.950300  0.375200  0.472500  1
  H  H71  1  0.450300  0.875200  0.027500  1
  H  H72  1  0.049700  0.624800  0.527500  1
  H  H73  1  0.577100  0.138800  0.932200  1
  H  H74  1  0.922900  0.361200  0.432200  1
  H  H75  1  0.422900  0.861200  0.067800  1
  H  H76  1  0.077100  0.638800  0.567800  1
  H  H77  1  0.531700  0.135500  0.034800  1
  H  H78  1  0.968300  0.364500  0.534800  1
  H  H79  1  0.468300  0.864500  0.965200  1
  H  H80  1  0.031700  0.635500  0.465200  1
  H  H81  1  0.581600  0.120600  0.011400  1
  H  H82  1  0.918400  0.379400  0.511400  1
  H  H83  1  0.418400  0.879400  0.988600  1
  H  H84  1  0.081600  0.620600  0.488600  1
  H  H85  1  0.480600  0.119500  0.011900  1
  H  H86  1  0.019400  0.380500  0.511900  1
  H  H87  1  0.519400  0.880500  0.988100  1
  H  H88  1  0.980600  0.619500  0.488100  1
  H  H89  1  0.537000  0.158100  0.897100  1
  H  H90  1  0.963000  0.341900  0.397100  1
  H  H91  1  0.463000  0.841900  0.102900  1
  H  H92  1  0.037000  0.658100  0.602900  1
  H  H93  1  0.538400  0.140800  0.852100  1
  H  H94  1  0.961600  0.359200  0.352100  1
  H  H95  1  0.461600  0.859200  0.147900  1
  H  H96  1  0.038400  0.640800  0.647900  1
  H  H97  1  0.578600  0.157700  0.812700  1
  H  H98  1  0.921400  0.342300  0.312700  1
  H  H99  1  0.421400  0.842300  0.187300  1
  H  H100  1  0.078600  0.657700  0.687300  1
  H  H101  1  0.669800  0.260200  0.838800  1
  H  H102  1  0.830200  0.239800  0.338800  1
  H  H103  1  0.330200  0.739800  0.161200  1
  H  H104  1  0.169800  0.760200  0.661200  1
  H  H105  1  0.638100  0.282800  0.802700  1
  H  H106  1  0.861900  0.217200  0.302700  1
  H  H107  1  0.361900  0.717200  0.197300  1
  H  H108  1  0.138100  0.782800  0.697300  1
  H  H109  1  0.675000  0.169500  0.782800  1
  H  H110  1  0.825000  0.330500  0.282800  1
  H  H111  1  0.325000  0.830500  0.217200  1
  H  H112  1  0.175000  0.669500  0.717200  1
  H  H113  1  0.712000  0.192100  0.744200  1
  H  H114  1  0.788000  0.307900  0.244200  1
  H  H115  1  0.288000  0.807900  0.255800  1
  H  H116  1  0.212000  0.692100  0.755800  1
  H  H117  1  0.739400  0.216300  0.708400  1
  H  H118  1  0.760600  0.283700  0.208400  1
  H  H119  1  0.260600  0.783700  0.291600  1
  H  H120  1  0.239400  0.716300  0.791600  1
  H  H121  1  0.763000  0.246100  0.671300  1
  H  H122  1  0.737000  0.253900  0.171300  1
  H  H123  1  0.237000  0.753900  0.328700  1
  H  H124  1  0.263000  0.746100  0.828700  1
  H  H125  1  0.719000  0.349100  0.703000  1
  H  H126  1  0.781000  0.150900  0.203000  1
  H  H127  1  0.281000  0.650900  0.297000  1
  H  H128  1  0.219000  0.849100  0.797000  1
  H  H129  1  0.641500  0.349700  0.658700  1
  H  H130  1  0.858500  0.150300  0.158700  1
  H  H131  1  0.358500  0.650300  0.341300  1
  H  H132  1  0.141500  0.849700  0.841300  1
  H  H133  1  0.870800  0.304000  0.651500  1
  H  H134  1  0.629200  0.196000  0.151500  1
  H  H135  1  0.129200  0.696000  0.348500  1
  H  H136  1  0.370800  0.804000  0.848500  1
  H  H137  1  0.887900  0.341000  0.616400  1
  H  H138  1  0.612100  0.159000  0.116400  1
  H  H139  1  0.112100  0.659000  0.383600  1
  H  H140  1  0.387900  0.841000  0.883600  1
  H  H141  1  0.824100  0.392600  0.587300  1
  H  H142  1  0.675900  0.107400  0.087300  1
  H  H143  1  0.175900  0.607400  0.412700  1
  H  H144  1  0.324100  0.892600  0.912700  1
  H  H145  1  0.684200  0.500300  0.585200  1
  H  H146  1  0.815800  0.999700  0.085200  1
  H  H147  1  0.315800  0.499700  0.414800  1
  H  H148  1  0.184200  0.000300  0.914800  1
  H  H149  1  0.709300  0.534400  0.549700  1
  H  H150  1  0.790700  0.965600  0.049700  1
  H  H151  1  0.290700  0.465600  0.450300  1
  H  H152  1  0.209300  0.034400  0.950300  1
  H  H153  1  0.795600  0.434500  0.518900  1
  H  H154  1  0.704400  0.065500  0.018900  1
  H  H155  1  0.204400  0.565500  0.481100  1
  H  H156  1  0.295600  0.934500  0.981100  1
  H  H157  1  0.774400  0.401400  0.554700  1
  H  H158  1  0.725600  0.098600  0.054700  1
  H  H159  1  0.225600  0.598600  0.445300  1
  H  H160  1  0.274400  0.901400  0.945300  1
  H  H161  1  0.715600  0.543700  0.495100  1
  H  H162  1  0.784400  0.956300  0.995100  1
  H  H163  1  0.284400  0.456300  0.504900  1
  H  H164  1  0.215600  0.043700  0.004900  1
  H  H165  1  0.794300  0.531100  0.478800  1
  H  H166  1  0.705700  0.968900  0.978800  1
  H  H167  1  0.205700  0.468900  0.521200  1
  H  H168  1  0.294300  0.031100  0.021200  1
  H  H169  1  0.809500  0.555100  0.503300  1
  H  H170  1  0.690500  0.944900  0.003300  1
  H  H171  1  0.190500  0.444900  0.496700  1
  H  H172  1  0.309500  0.055100  0.996700  1
  H  H173  1  0.781500  0.190800  0.911500  1
  H  H174  1  0.718500  0.309200  0.411500  1
  H  H175  1  0.218500  0.809200  0.088500  1
  H  H176  1  0.281500  0.690800  0.588500  1
  H  H177  1  0.808200  0.142600  0.940800  1
  H  H178  1  0.691800  0.357400  0.440800  1
  H  H179  1  0.191800  0.857400  0.059200  1
  H  H180  1  0.308200  0.642600  0.559200  1
  H  H181  1  0.772500  0.224600  0.993300  1
  H  H182  1  0.727500  0.275400  0.493300  1
  H  H183  1  0.227500  0.775400  0.006700  1
  H  H184  1  0.272500  0.724600  0.506700  1
  H  H185  1  0.744000  0.272600  0.963800  1
  H  H186  1  0.756000  0.227400  0.463800  1
  H  H187  1  0.256000  0.727400  0.036200  1
  H  H188  1  0.244000  0.772600  0.536200  1
  H  H189  1  0.881100  0.116600  0.969800  1
  H  H190  1  0.618900  0.383400  0.469800  1
  H  H191  1  0.118900  0.883400  0.030200  1
  H  H192  1  0.381100  0.616600  0.530200  1
  H  H193  1  0.785800  0.101800  0.973500  1
  H  H194  1  0.714200  0.398200  0.473500  1
  H  H195  1  0.214200  0.898200  0.026500  1
  H  H196  1  0.285800  0.601800  0.526500  1
  H  H197  1  0.850800  0.100500  0.995600  1
  H  H198  1  0.649200  0.399500  0.495600  1
  H  H199  1  0.149200  0.899500  0.004400  1
  H  H200  1  0.350800  0.600500  0.504400  1
  H  H201  1  0.836300  0.294900  0.924000  1
  H  H202  1  0.663700  0.205100  0.424000  1
  H  H203  1  0.163700  0.705100  0.076000  1
  H  H204  1  0.336300  0.794900  0.576000  1
  H  H205  1  0.879800  0.356900  0.900300  1
  H  H206  1  0.620200  0.143100  0.400300  1
  H  H207  1  0.120200  0.643100  0.099700  1
  H  H208  1  0.379800  0.856900  0.599700  1
  H  H209  1  0.867100  0.392100  0.864100  1
  H  H210  1  0.632900  0.107900  0.364100  1
  H  H211  1  0.132900  0.607900  0.135900  1
  H  H212  1  0.367100  0.892100  0.635900  1
  H  H213  1  0.660600  0.328000  0.848800  1
  H  H214  1  0.839400  0.172000  0.348800  1
  H  H215  1  0.339400  0.672000  0.151200  1
  H  H216  1  0.160600  0.828000  0.651200  1
  H  H217  1  0.721400  0.331100  0.809900  1
  H  H218  1  0.778600  0.168900  0.309900  1
  H  H219  1  0.278600  0.668900  0.190100  1
  H  H220  1  0.221400  0.831100  0.690100  1
  H  H221  1  0.789900  0.436900  0.835700  1
  H  H222  1  0.710100  0.063100  0.335700  1
  H  H223  1  0.210100  0.563100  0.164300  1
  H  H224  1  0.289900  0.936900  0.664300  1
  H  H225  1  0.768200  0.462100  0.797000  1
  H  H226  1  0.731800  0.037900  0.297000  1
  H  H227  1  0.231800  0.537900  0.203000  1
  H  H228  1  0.268200  0.962100  0.703000  1
  H  H229  1  0.726100  0.486700  0.763100  1
  H  H230  1  0.773900  0.013300  0.263100  1
  H  H231  1  0.273900  0.513300  0.236900  1
  H  H232  1  0.226100  0.986700  0.736900  1
  H  H233  1  0.677600  0.506100  0.725200  1
  H  H234  1  0.822400  0.993900  0.225200  1
  H  H235  1  0.322400  0.493900  0.274800  1
  H  H236  1  0.177600  0.006100  0.774800  1
  H  H237  1  0.632400  0.392400  0.708700  1
  H  H238  1  0.867600  0.107600  0.208700  1
  H  H239  1  0.367600  0.607600  0.291300  1
  H  H240  1  0.132400  0.892400  0.791300  1
  H  H241  1  0.645300  0.410800  0.671100  1
  H  H242  1  0.854700  0.089200  0.171100  1
  H  H243  1  0.354700  0.589200  0.328900  1
  H  H244  1  0.145300  0.910800  0.828900  1
  H  H245  1  0.582600  0.517700  0.696000  1
  H  H246  1  0.917400  0.982300  0.196000  1
  H  H247  1  0.417400  0.482300  0.304000  1
  H  H248  1  0.082600  0.017700  0.804000  1
  H  H249  1  0.528700  0.531800  0.657700  1
  H  H250  1  0.971300  0.968200  0.157700  1
  H  H251  1  0.471300  0.468200  0.342300  1
  H  H252  1  0.028700  0.031800  0.842300  1
  H  H253  1  0.499000  0.509100  0.613400  1
  H  H254  1  0.001000  0.990900  0.113400  1
  H  H255  1  0.501000  0.490900  0.386600  1
  H  H256  1  0.999000  0.009100  0.886600  1
  H  H257  1  0.543500  0.409300  0.565400  1
  H  H258  1  0.956500  0.090700  0.065400  1
  H  H259  1  0.456500  0.590700  0.434600  1
  H  H260  1  0.043500  0.909300  0.934600  1
  H  H261  1  0.493000  0.416700  0.526200  1
  H  H262  1  0.007000  0.083300  0.026200  1
  H  H263  1  0.507000  0.583300  0.473800  1
  H  H264  1  0.993000  0.916700  0.973800  1
  H  H265  1  0.399800  0.523900  0.545100  1
  H  H266  1  0.100200  0.976100  0.045100  1
  H  H267  1  0.600200  0.476100  0.454900  1
  H  H268  1  0.899800  0.023900  0.954900  1
  H  H269  1  0.454500  0.516400  0.584000  1
  H  H270  1  0.045500  0.983600  0.084000  1
  H  H271  1  0.545500  0.483600  0.416000  1
  H  H272  1  0.954500  0.016400  0.916000  1
  H  H273  1  0.425800  0.451400  0.477400  1
  H  H274  1  0.074200  0.048600  0.977400  1
  H  H275  1  0.574200  0.548600  0.522600  1
  H  H276  1  0.925800  0.951400  0.022600  1
  H  H277  1  0.375300  0.422500  0.495200  1
  H  H278  1  0.124700  0.077500  0.995200  1
  H  H279  1  0.624700  0.577500  0.504800  1
  H  H280  1  0.875300  0.922500  0.004800  1
  H  H281  1  0.474600  0.429100  0.498700  1
  H  H282  1  0.025400  0.070900  0.998700  1
  H  H283  1  0.525400  0.570900  0.501300  1
  H  H284  1  0.974600  0.929100  0.001300  1
  H  H285  1  0.511400  0.329800  0.955200  1
  H  H286  1  0.988600  0.170200  0.455200  1
  H  H287  1  0.488600  0.670200  0.044800  1
  H  H288  1  0.011400  0.829800  0.544800  1
  H  H289  1  0.539800  0.308100  0.994400  1
  H  H290  1  0.960200  0.191900  0.494400  1
  H  H291  1  0.460200  0.691900  0.005600  1
  H  H292  1  0.039800  0.808100  0.505600  1
  H  H293  1  0.766600  0.363300  0.993500  1
  H  H294  1  0.733400  0.136700  0.493500  1
  H  H295  1  0.233400  0.636700  0.006500  1
  H  H296  1  0.266600  0.863300  0.506500  1
  H  H297  1  0.738900  0.384600  0.954200  1
  H  H298  1  0.761100  0.115400  0.454200  1
  H  H299  1  0.261100  0.615400  0.045800  1
  H  H300  1  0.238900  0.884600  0.545800  1
  H  H301  1  0.748700  0.325100  0.049200  1
  H  H302  1  0.751300  0.174900  0.549200  1
  H  H303  1  0.251300  0.674900  0.950800  1
  H  H304  1  0.248700  0.825100  0.450800  1
  H  H305  1  0.796900  0.325800  0.023800  1
  H  H306  1  0.703100  0.174200  0.523800  1
  H  H307  1  0.203100  0.674200  0.976200  1
  H  H308  1  0.296900  0.825800  0.476200  1
  H  H309  1  0.750300  0.364600  0.033400  1
  H  H310  1  0.749700  0.135400  0.533400  1
  H  H311  1  0.249700  0.635400  0.966600  1
  H  H312  1  0.250300  0.864600  0.466600  1
  H  H313  1  0.682500  0.419900  0.929200  1
  H  H314  1  0.817500  0.080100  0.429200  1
  H  H315  1  0.317500  0.580100  0.070800  1
  H  H316  1  0.182500  0.919900  0.570800  1
  H  H317  1  0.695500  0.469000  0.893200  1
  H  H318  1  0.804500  0.031000  0.393200  1
  H  H319  1  0.304500  0.531000  0.106800  1
  H  H320  1  0.195500  0.969000  0.606800  1
  H  H321  1  0.653800  0.485000  0.853900  1
  H  H322  1  0.846200  0.015000  0.353900  1
  H  H323  1  0.346200  0.515000  0.146100  1
  H  H324  1  0.153800  0.985000  0.646100  1
  H  H325  1  0.504700  0.389000  0.853200  1
  H  H326  1  0.995300  0.111000  0.353200  1
  H  H327  1  0.495300  0.611000  0.146800  1
  H  H328  1  0.004700  0.889000  0.646800  1
  H  H329  1  0.535800  0.389200  0.813800  1
  H  H330  1  0.964200  0.110800  0.313800  1
  H  H331  1  0.464200  0.610800  0.186200  1
  H  H332  1  0.035800  0.889200  0.686200  1
  H  H333  1  0.565900  0.506000  0.823400  1
  H  H334  1  0.934100  0.994000  0.323400  1
  H  H335  1  0.434100  0.494000  0.176600  1
  H  H336  1  0.065900  0.006000  0.676600  1
  H  H337  1  0.524700  0.515500  0.783300  1
  H  H338  1  0.975300  0.984500  0.283300  1
  H  H339  1  0.475300  0.484500  0.216700  1
  H  H340  1  0.024700  0.015500  0.716700  1
  H  H341  1  0.462100  0.517600  0.744900  1
  H  H342  1  0.037900  0.982400  0.244900  1
  H  H343  1  0.537900  0.482400  0.255100  1
  H  H344  1  0.962100  0.017600  0.755100  1
  H  H345  1  0.401400  0.513100  0.706700  1
  H  H346  1  0.098600  0.986900  0.206700  1
  H  H347  1  0.598600  0.486900  0.293300  1
  H  H348  1  0.901400  0.013100  0.793300  1
  H  H349  1  0.405000  0.395200  0.713800  1
  H  H350  1  0.095000  0.104800  0.213800  1
  H  H351  1  0.595000  0.604800  0.286200  1
  H  H352  1  0.905000  0.895200  0.786200  1
  H  H353  1  0.433400  0.398300  0.672900  1
  H  H354  1  0.066600  0.101700  0.172900  1
  H  H355  1  0.566600  0.601700  0.327100  1
  H  H356  1  0.933400  0.898300  0.827100  1
  H  H357  1  0.310800  0.501700  0.677400  1
  H  H358  1  0.189200  0.998300  0.177400  1
  H  H359  1  0.689200  0.498300  0.322600  1
  H  H360  1  0.810800  0.001700  0.822600  1
  H  H361  1  0.262000  0.491300  0.637900  1
  H  H362  1  0.238000  0.008700  0.137900  1
  H  H363  1  0.738000  0.508700  0.362100  1
  H  H364  1  0.762000  0.991300  0.862100  1
  H  H365  1  0.255200  0.445800  0.600900  1
  H  H366  1  0.244800  0.054200  0.100900  1
  H  H367  1  0.744800  0.554200  0.399100  1
  H  H368  1  0.755200  0.945800  0.899100  1
  H  H369  1  0.191100  0.425000  0.575500  1
  H  H370  1  0.308900  0.075000  0.075500  1
  H  H371  1  0.808900  0.575000  0.424500  1
  H  H372  1  0.691100  0.925000  0.924500  1
  H  H373  1  0.145400  0.408000  0.536700  1
  H  H374  1  0.354600  0.092000  0.036700  1
  H  H375  1  0.854600  0.592000  0.463300  1
  H  H376  1  0.645400  0.908000  0.963300  1
  H  H377  1  0.342600  0.333333  0.529200  1
  H  H378  1  0.157400  0.166667  0.029200  1
  H  H379  1  0.657400  0.666667  0.470800  1
  H  H380  1  0.842600  0.833333  0.970800  1
  H  H381  1  0.389600  0.350700  0.567900  1
  H  H382  1  0.110400  0.149300  0.067900  1
  H  H383  1  0.610400  0.649300  0.432100  1
  H  H384  1  0.889600  0.850700  0.932100  1
  H  H385  1  0.230700  0.320000  0.479900  1
  H  H386  1  0.269300  0.180000  0.979900  1
  H  H387  1  0.769300  0.680000  0.520100  1
  H  H388  1  0.730700  0.820000  0.020100  1
  H  H389  1  0.315500  0.337000  0.491800  1
  H  H390  1  0.184500  0.163000  0.991800  1
  H  H391  1  0.684500  0.663000  0.508200  1
  H  H392  1  0.815500  0.837000  0.008200  1
  H  H393  1  0.264000  0.302400  0.505000  1
  H  H394  1  0.236000  0.197600  0.005000  1
  H  H395  1  0.736000  0.697600  0.495000  1
  H  H396  1  0.764000  0.802400  0.995000  1
  H  H397  1  0.360800  0.409400  0.956300  1
  H  H398  1  0.139200  0.090600  0.456300  1
  H  H399  1  0.639200  0.590600  0.043700  1
  H  H400  1  0.860800  0.909400  0.543700  1
  H  H401  1  0.408300  0.407700  0.996200  1
  H  H402  1  0.091700  0.092300  0.496200  1
  H  H403  1  0.591700  0.592300  0.003800  1
  H  H404  1  0.908300  0.907700  0.503800  1
  H  H405  1  0.598500  0.481900  0.976500  1
  H  H406  1  0.901500  0.018100  0.476500  1
  H  H407  1  0.401500  0.518100  0.023500  1
  H  H408  1  0.098500  0.981900  0.523500  1
  H  H409  1  0.548100  0.484100  0.936900  1
  H  H410  1  0.951900  0.015900  0.436900  1
  H  H411  1  0.451900  0.515900  0.063100  1
  H  H412  1  0.048100  0.984100  0.563100  1
  H  H413  1  0.615500  0.488700  0.012700  1
  H  H414  1  0.884500  0.011300  0.512700  1
  H  H415  1  0.384500  0.511300  0.987300  1
  H  H416  1  0.115500  0.988700  0.487300  1
  H  H417  1  0.664900  0.447700  0.011100  1
  H  H418  1  0.835100  0.052300  0.511100  1
  H  H419  1  0.335100  0.552300  0.988900  1
  H  H420  1  0.164900  0.947700  0.488900  1
  H  H421  1  0.623800  0.461200  0.036100  1
  H  H422  1  0.876200  0.038800  0.536100  1
  H  H423  1  0.376200  0.538800  0.963900  1
  H  H424  1  0.123800  0.961200  0.463900  1
  H  H425  1  0.461900  0.496000  0.908700  1
  H  H426  1  0.038100  0.004000  0.408700  1
  H  H427  1  0.538100  0.504000  0.091300  1
  H  H428  1  0.961900  0.996000  0.591300  1
  H  H429  1  0.436700  0.525600  0.865900  1
  H  H430  1  0.063300  0.974400  0.365900  1
  H  H431  1  0.563300  0.474400  0.134100  1
  H  H432  1  0.936700  0.025600  0.634100  1
  H  H433  1  0.378600  0.516300  0.827600  1
  H  H434  1  0.121400  0.983700  0.327600  1
  H  H435  1  0.621400  0.483700  0.172400  1
  H  H436  1  0.878600  0.016300  0.672400  1
  H  H437  1  0.275400  0.414100  0.849900  1
  H  H438  1  0.224600  0.085900  0.349900  1
  H  H439  1  0.724600  0.585900  0.150100  1
  H  H440  1  0.775400  0.914100  0.650100  1
  H  H441  1  0.305500  0.395100  0.811700  1
  H  H442  1  0.194500  0.104900  0.311700  1
  H  H443  1  0.694500  0.604900  0.188300  1
  H  H444  1  0.805500  0.895100  0.688300  1
  H  H445  1  0.267800  0.510100  0.798400  1
  H  H446  1  0.232200  0.989900  0.298400  1
  H  H447  1  0.732200  0.489900  0.201600  1
  H  H448  1  0.767800  0.010100  0.701600  1
  H  H449  1  0.217400  0.493000  0.760100  1
  H  H450  1  0.282600  0.007000  0.260100  1
  H  H451  1  0.782600  0.507000  0.239900  1
  H  H452  1  0.717400  0.993000  0.739900  1
  H  H453  1  0.177200  0.474600  0.725700  1
  H  H454  1  0.322800  0.025400  0.225700  1
  H  H455  1  0.822800  0.525400  0.274300  1
  H  H456  1  0.677200  0.974600  0.774300  1
  H  H457  1  0.143400  0.450700  0.687200  1
  H  H458  1  0.356600  0.049300  0.187200  1
  H  H459  1  0.856600  0.549300  0.312800  1
  H  H460  1  0.643400  0.950700  0.812800  1
  H  H461  1  0.201800  0.342000  0.710300  1
  H  H462  1  0.298200  0.158000  0.210300  1
  H  H463  1  0.798200  0.658000  0.289700  1
  H  H464  1  0.701800  0.842000  0.789700  1
  H  H465  1  0.258100  0.338400  0.672400  1
  H  H466  1  0.241900  0.161600  0.172400  1
  H  H467  1  0.741900  0.661600  0.327600  1
  H  H468  1  0.758100  0.838400  0.827600  1
  H  H469  1  0.075900  0.416900  0.656400  1
  H  H470  1  0.424100  0.083100  0.156400  1
  H  H471  1  0.924100  0.583100  0.343600  1
  H  H472  1  0.575900  0.916900  0.843600  1
  H  H473  1  0.059600  0.385400  0.618700  1
  H  H474  1  0.440400  0.114600  0.118700  1
  H  H475  1  0.940400  0.614600  0.381300  1
  H  H476  1  0.559600  0.885400  0.881300  1
  H  H477  1  0.098400  0.329300  0.591400  1
  H  H478  1  0.401600  0.170700  0.091400  1
  H  H479  1  0.901600  0.670700  0.408600  1
  H  H480  1  0.598400  0.829300  0.908600  1
  H  H481  1  0.124500  0.309400  0.556300  1
  H  H482  1  0.375500  0.190600  0.056300  1
  H  H483  1  0.875500  0.690600  0.443700  1
  H  H484  1  0.624500  0.809400  0.943700  1
  H  H485  1  0.083400  0.269100  0.524100  1
  H  H486  1  0.416600  0.230900  0.024100  1
  H  H487  1  0.916600  0.730900  0.475900  1
  H  H488  1  0.583400  0.769100  0.975900  1
  H  H489  1  0.132400  0.172900  0.564900  1
  H  H490  1  0.367600  0.327100  0.064900  1
  H  H491  1  0.867600  0.827100  0.435100  1
  H  H492  1  0.632400  0.672900  0.935100  1
  H  H493  1  0.177800  0.213000  0.596700  1
  H  H494  1  0.322200  0.287000  0.096700  1
  H  H495  1  0.822200  0.787000  0.403300  1
  H  H496  1  0.677800  0.713000  0.903300  1
  H  H497  1  0.114700  0.144700  0.539600  1
  H  H498  1  0.385300  0.355300  0.039600  1
  H  H499  1  0.885300  0.855300  0.460400  1
  H  H500  1  0.614700  0.644700  0.960400  1
  H  H501  1  0.094900  0.139600  0.511400  1
  H  H502  1  0.405100  0.360400  0.011400  1
  H  H503  1  0.905100  0.860400  0.488600  1
  H  H504  1  0.594900  0.639600  0.988600  1
  H  H505  1  0.019100  0.140800  0.530500  1
  H  H506  1  0.480900  0.359200  0.030500  1
  H  H507  1  0.980900  0.859200  0.469500  1
  H  H508  1  0.519100  0.640800  0.969500  1
  H  H509  1  0.180600  0.407300  0.974100  1
  H  H510  1  0.319400  0.092700  0.474100  1
  H  H511  1  0.819400  0.592700  0.025900  1
  H  H512  1  0.680600  0.907300  0.525900  1
  H  H513  1  0.158000  0.455200  0.003300  1
  H  H514  1  0.342000  0.044800  0.503300  1
  H  H515  1  0.842000  0.544800  0.996700  1
  H  H516  1  0.658000  0.955200  0.496700  1
  H  H517  1  0.215400  0.539300  0.954300  1
  H  H518  1  0.284600  0.960700  0.454300  1
  H  H519  1  0.784600  0.460700  0.045700  1
  H  H520  1  0.715400  0.039300  0.545700  1
  H  H521  1  0.233900  0.491600  0.924900  1
  H  H522  1  0.266100  0.008400  0.424900  1
  H  H523  1  0.766100  0.508400  0.075100  1
  H  H524  1  0.733900  0.991600  0.575100  1
  H  H525  1  0.138600  0.561600  0.025500  1
  H  H526  1  0.361400  0.938400  0.525500  1
  H  H527  1  0.861400  0.438400  0.974500  1
  H  H528  1  0.638600  0.061600  0.474500  1
  H  H529  1  0.084800  0.522900  0.019100  1
  H  H530  1  0.415200  0.977100  0.519100  1
  H  H531  1  0.915200  0.477100  0.980900  1
  H  H532  1  0.584800  0.022900  0.480900  1
  H  H533  1  0.178800  0.518800  0.029300  1
  H  H534  1  0.321200  0.981200  0.529300  1
  H  H535  1  0.821200  0.481200  0.970700  1
  H  H536  1  0.678800  0.018800  0.470700  1
  H  H537  1  0.108400  0.392900  0.932400  1
  H  H538  1  0.391600  0.107100  0.432400  1
  H  H539  1  0.891600  0.607100  0.067600  1
  H  H540  1  0.608400  0.892900  0.567600  1
  H  H541  1  0.042500  0.340100  0.906400  1
  H  H542  1  0.457500  0.159900  0.406400  1
  H  H543  1  0.957500  0.659900  0.093600  1
  H  H544  1  0.542500  0.840100  0.593600  1
  H  H545  1  0.044300  0.305700  0.869600  1
  H  H546  1  0.455700  0.194300  0.369600  1
  H  H547  1  0.955700  0.694300  0.130400  1
  H  H548  1  0.544300  0.805700  0.630400  1
  H  H549  1  0.282500  0.345400  0.858700  1
  H  H550  1  0.217500  0.154600  0.358700  1
  H  H551  1  0.717500  0.654600  0.141300  1
  H  H552  1  0.782500  0.845400  0.641300  1
  H  H553  1  0.202300  0.354600  0.818400  1
  H  H554  1  0.297700  0.145400  0.318400  1
  H  H555  1  0.797700  0.645400  0.181600  1
  H  H556  1  0.702300  0.854600  0.681600  1
  H  H557  1  0.142900  0.247500  0.844800  1
  H  H558  1  0.357100  0.252500  0.344800  1
  H  H559  1  0.857100  0.752500  0.155200  1
  H  H560  1  0.642900  0.747500  0.655200  1
  H  H561  1  0.161100  0.221700  0.806000  1
  H  H562  1  0.338900  0.278300  0.306000  1
  H  H563  1  0.838900  0.778300  0.194000  1
  H  H564  1  0.661100  0.721700  0.694000  1
  H  H565  1  0.182800  0.200800  0.771200  1
  H  H566  1  0.317200  0.299200  0.271200  1
  H  H567  1  0.817200  0.799200  0.228800  1
  H  H568  1  0.682800  0.700800  0.728800  1
  H  H569  1  0.223000  0.180500  0.732400  1
  H  H570  1  0.277000  0.319500  0.232400  1
  H  H571  1  0.777000  0.819500  0.267600  1
  H  H572  1  0.723000  0.680500  0.767600  1
  H  H573  1  0.273000  0.293400  0.715900  1
  H  H574  1  0.227000  0.206600  0.215900  1
  H  H575  1  0.727000  0.706600  0.284100  1
  H  H576  1  0.773000  0.793400  0.784100  1
  H  H577  1  0.247800  0.275200  0.678800  1
  H  H578  1  0.252200  0.224800  0.178800  1
  H  H579  1  0.752200  0.724800  0.321200  1
  H  H580  1  0.747800  0.775200  0.821200  1
  H  H581  1  0.306700  0.166300  0.701200  1
  H  H582  1  0.193300  0.333700  0.201200  1
  H  H583  1  0.693300  0.833700  0.298800  1
  H  H584  1  0.806700  0.666300  0.798800  1
  H  H585  1  0.347900  0.151600  0.661700  1
  H  H586  1  0.152100  0.348400  0.161700  1
  H  H587  1  0.652100  0.848400  0.338300  1
  H  H588  1  0.847900  0.651600  0.838300  1
  H  H589  1  0.354900  0.173500  0.617000  1
  H  H590  1  0.145100  0.326500  0.117000  1
  H  H591  1  0.645100  0.826500  0.383000  1
  H  H592  1  0.854900  0.673500  0.883000  1
  H  H593  1  0.352100  0.274800  0.569300  1
  H  H594  1  0.147900  0.225200  0.069300  1
  H  H595  1  0.647900  0.725200  0.430700  1
  H  H596  1  0.852100  0.774800  0.930700  1
  H  H597  1  0.377600  0.260100  0.529000  1
  H  H598  1  0.122400  0.239900  0.029000  1
  H  H599  1  0.622400  0.739900  0.471000  1
  H  H600  1  0.877600  0.760100  0.971000  1
  H  H601  1  0.364900  0.143700  0.545100  1
  H  H602  1  0.135100  0.356300  0.045100  1
  H  H603  1  0.635100  0.856300  0.454900  1
  H  H604  1  0.864900  0.643700  0.954900  1
  H  H605  1  0.341800  0.159300  0.585300  1
  H  H606  1  0.158200  0.340700  0.085300  1
  H  H607  1  0.658200  0.840700  0.414700  1
  H  H608  1  0.841800  0.659300  0.914700  1
  H  H609  1  0.359400  0.237000  0.491500  1
  H  H610  1  0.140600  0.263000  0.991500  1
  H  H611  1  0.640600  0.763000  0.508500  1
  H  H612  1  0.859400  0.737000  0.008500  1
  H  H613  1  0.423200  0.208500  0.477500  1
  H  H614  1  0.076800  0.291500  0.977500  1
  H  H615  1  0.576800  0.791500  0.522500  1
  H  H616  1  0.923200  0.708500  0.022500  1
  H  H617  1  0.457000  0.235900  0.499000  1
  H  H618  1  0.043000  0.264100  0.999000  1
  H  H619  1  0.543000  0.764100  0.501000  1
  H  H620  1  0.957000  0.735900  0.001000  1
  H  H621  1  0.040700  0.358400  0.744700  1
  H  H622  1  0.459300  0.141600  0.244700  1
  H  H623  1  0.959300  0.641600  0.255300  1
  H  H624  1  0.540700  0.858400  0.755300  1
  H  H625  1  0.047200  0.330300  0.767800  1
  H  H626  1  0.452800  0.169700  0.267800  1
  H  H627  1  0.952800  0.669700  0.232200  1
  H  H628  1  0.547200  0.830300  0.732200  1
  H  H629  1  0.021500  0.375600  0.771000  1
  H  H630  1  0.478500  0.124400  0.271000  1
  H  H631  1  0.978500  0.624400  0.229000  1
  H  H632  1  0.521500  0.875600  0.729000  1
  H  H633  1  0.507400  0.263000  0.655300  1
  H  H634  1  0.992600  0.237000  0.155300  1
  H  H635  1  0.492600  0.737000  0.344700  1
  H  H636  1  0.007400  0.763000  0.844700  1
  H  H637  1  0.483200  0.270800  0.728100  1
  H  H638  1  0.016800  0.229200  0.228100  1
  H  H639  1  0.516800  0.729200  0.271900  1
  H  H640  1  0.983200  0.770800  0.771900  1
  H  H641  1  0.510800  0.203200  0.731500  1
  H  H642  1  0.989200  0.296800  0.231500  1
  H  H643  1  0.489200  0.796800  0.268500  1
  H  H644  1  0.010800  0.703200  0.768500  1
  H  H645  1  0.539200  0.200500  0.636800  1
  H  H646  1  0.960800  0.299500  0.136800  1
  H  H647  1  0.460800  0.799500  0.363200  1
  H  H648  1  0.039200  0.700500  0.863200  1
  H  H649  1  0.566700  0.132900  0.640300  1
  H  H650  1  0.933300  0.367100  0.140300  1
  H  H651  1  0.433300  0.867100  0.359700  1
  H  H652  1  0.066700  0.632900  0.859700  1
  H  H653  1  0.568400  0.103000  0.678400  1
  H  H654  1  0.931600  0.397000  0.178400  1
  H  H655  1  0.431600  0.897000  0.321600  1
  H  H656  1  0.068400  0.603000  0.821600  1
  H  H657  1  0.542500  0.140700  0.713000  1
  H  H658  1  0.957500  0.359300  0.213000  1
  H  H659  1  0.457500  0.859300  0.287000  1
  H  H660  1  0.042500  0.640700  0.787000  1
  H  H661  1  0.396500  0.256400  0.856200  1
  H  H662  1  0.103500  0.243600  0.356200  1
  H  H663  1  0.603500  0.743600  0.143800  1
  H  H664  1  0.896500  0.756400  0.643800  1
  H  H665  1  0.436300  0.274700  0.784800  1
  H  H666  1  0.063700  0.225300  0.284800  1
  H  H667  1  0.563700  0.725300  0.215200  1
  H  H668  1  0.936300  0.774700  0.715200  1
  H  H669  1  0.412000  0.207200  0.777500  1
  H  H670  1  0.088000  0.292800  0.277500  1
  H  H671  1  0.588000  0.792800  0.222500  1
  H  H672  1  0.912000  0.707200  0.722500  1
  H  H673  1  0.400800  0.187600  0.870200  1
  H  H674  1  0.099200  0.312400  0.370200  1
  H  H675  1  0.599200  0.812400  0.129800  1
  H  H676  1  0.900800  0.687600  0.629800  1
  H  H677  1  0.347100  0.123600  0.863700  1
  H  H678  1  0.152900  0.376400  0.363700  1
  H  H679  1  0.652900  0.876400  0.136300  1
  H  H680  1  0.847100  0.623600  0.636300  1
  H  H681  1  0.327400  0.102200  0.823700  1
  H  H682  1  0.172600  0.397800  0.323700  1
  H  H683  1  0.672600  0.897800  0.176300  1
  H  H684  1  0.827400  0.602200  0.676300  1
  H  H685  1  0.367400  0.143300  0.791600  1
  H  H686  1  0.132600  0.356700  0.291600  1
  H  H687  1  0.632600  0.856700  0.208400  1
  H  H688  1  0.867400  0.643300  0.708400  1
  H  H689  1  0.372700  0.330200  0.748000  1
  H  H690  1  0.127300  0.169800  0.248000  1
  H  H691  1  0.627300  0.669800  0.252000  1
  H  H692  1  0.872700  0.830200  0.752000  1
  C  C693  1  0.562000  0.198200  0.934500  1
  C  C694  1  0.938000  0.301800  0.434500  1
  C  C695  1  0.438000  0.801800  0.065500  1
  C  C696  1  0.062000  0.698200  0.565500  1
  C  C697  1  0.543200  0.227700  0.950900  1
  C  C698  1  0.956800  0.272300  0.450900  1
  C  C699  1  0.456800  0.772300  0.049100  1
  C  C700  1  0.043200  0.727700  0.549100  1
  C  C701  1  0.529800  0.219800  0.975000  1
  C  C702  1  0.970200  0.280200  0.475000  1
  C  C703  1  0.470200  0.780200  0.025000  1
  C  C704  1  0.029800  0.719800  0.525000  1
  C  C705  1  0.534100  0.181400  0.983400  1
  C  C706  1  0.965900  0.318600  0.483400  1
  C  C707  1  0.465900  0.818600  0.016600  1
  C  C708  1  0.034100  0.681400  0.516600  1
  C  C709  1  0.549500  0.151400  0.967100  1
  C  C710  1  0.950500  0.348600  0.467100  1
  C  C711  1  0.450500  0.848600  0.032900  1
  C  C712  1  0.049500  0.651400  0.532900  1
  C  C713  1  0.564700  0.159700  0.943000  1
  C  C714  1  0.935300  0.340300  0.443000  1
  C  C715  1  0.435300  0.840300  0.057000  1
  C  C716  1  0.064700  0.659700  0.557000  1
  C  C717  1  0.531000  0.134100  0.017200  1
  C  C718  1  0.969000  0.365900  0.517200  1
  C  C719  1  0.469000  0.865900  0.982800  1
  C  C720  1  0.031000  0.634100  0.482800  1
  C  C721  1  0.563500  0.182400  0.893100  1
  C  C722  1  0.936500  0.317600  0.393100  1
  C  C723  1  0.436500  0.817600  0.106900  1
  C  C724  1  0.063500  0.682400  0.606900  1
  C  C725  1  0.584200  0.191100  0.867800  1
  C  C726  1  0.915800  0.308900  0.367800  1
  C  C727  1  0.415800  0.808900  0.132200  1
  C  C728  1  0.084200  0.691100  0.632200  1
  C  C729  1  0.566200  0.165200  0.849000  1
  C  C730  1  0.933800  0.334800  0.349000  1
  C  C731  1  0.433800  0.834800  0.151000  1
  C  C732  1  0.066200  0.665200  0.651000  1
  C  C733  1  0.589300  0.175200  0.825700  1
  C  C734  1  0.910700  0.324800  0.325700  1
  C  C735  1  0.410700  0.824800  0.174300  1
  C  C736  1  0.089300  0.675200  0.674300  1
  C  C737  1  0.628400  0.211500  0.821600  1
  C  C738  1  0.871600  0.288500  0.321600  1
  C  C739  1  0.371600  0.788500  0.178400  1
  C  C740  1  0.128400  0.711500  0.678400  1
  C  C741  1  0.643000  0.235500  0.841500  1
  C  C742  1  0.857000  0.264500  0.341500  1
  C  C743  1  0.357000  0.764500  0.158500  1
  C  C744  1  0.143000  0.735500  0.658500  1
  C  C745  1  0.653700  0.264100  0.790800  1
  C  C746  1  0.846300  0.235900  0.290800  1
  C  C747  1  0.346300  0.735900  0.209200  1
  C  C748  1  0.153700  0.764100  0.709200  1
  C  C749  1  0.652100  0.224200  0.796800  1
  C  C750  1  0.847900  0.275800  0.296800  1
  C  C751  1  0.347900  0.775800  0.203200  1
  C  C752  1  0.152100  0.724200  0.703200  1
  C  C753  1  0.674700  0.196900  0.779300  1
  C  C754  1  0.825300  0.303100  0.279300  1
  C  C755  1  0.325300  0.803100  0.220700  1
  C  C756  1  0.174700  0.696900  0.720700  1
  C  C757  1  0.697000  0.210300  0.756600  1
  C  C758  1  0.803000  0.289700  0.256600  1
  C  C759  1  0.303000  0.789700  0.243400  1
  C  C760  1  0.197000  0.710300  0.743400  1
  C  C761  1  0.697200  0.250500  0.751800  1
  C  C762  1  0.802800  0.249500  0.251800  1
  C  C763  1  0.302800  0.749500  0.248200  1
  C  C764  1  0.197200  0.750500  0.748200  1
  C  C765  1  0.716300  0.266400  0.727400  1
  C  C766  1  0.783700  0.233600  0.227400  1
  C  C767  1  0.283700  0.733600  0.272600  1
  C  C768  1  0.216300  0.766400  0.772600  1
  C  C769  1  0.735900  0.244200  0.707100  1
  C  C770  1  0.764100  0.255800  0.207100  1
  C  C771  1  0.264100  0.755800  0.292900  1
  C  C772  1  0.235900  0.744200  0.792900  1
  C  C773  1  0.750200  0.261900  0.685000  1
  C  C774  1  0.749800  0.238100  0.185000  1
  C  C775  1  0.249800  0.738100  0.315000  1
  C  C776  1  0.250200  0.761900  0.815000  1
  C  C777  1  0.746200  0.302900  0.682800  1
  C  C778  1  0.753800  0.197100  0.182800  1
  C  C779  1  0.253800  0.697100  0.317200  1
  C  C780  1  0.246200  0.802900  0.817200  1
  C  C781  1  0.724500  0.321300  0.704000  1
  C  C782  1  0.775500  0.178700  0.204000  1
  C  C783  1  0.275500  0.678700  0.296000  1
  C  C784  1  0.224500  0.821300  0.796000  1
  C  C785  1  0.692500  0.347300  0.649800  1
  C  C786  1  0.807500  0.152700  0.149800  1
  C  C787  1  0.307500  0.652700  0.350200  1
  C  C788  1  0.192500  0.847300  0.850200  1
  C  C789  1  0.751300  0.321900  0.659200  1
  C  C790  1  0.748700  0.178100  0.159200  1
  C  C791  1  0.248700  0.678100  0.340800  1
  C  C792  1  0.251300  0.821900  0.840800  1
  C  C793  1  0.826200  0.320500  0.646100  1
  C  C794  1  0.673800  0.179500  0.146100  1
  C  C795  1  0.173800  0.679500  0.353900  1
  C  C796  1  0.326200  0.820500  0.853900  1
  C  C797  1  0.836900  0.342400  0.625400  1
  C  C798  1  0.663100  0.157600  0.125400  1
  C  C799  1  0.163100  0.657600  0.374600  1
  C  C800  1  0.336900  0.842400  0.874600  1
  C  C801  1  0.771700  0.366500  0.617900  1
  C  C802  1  0.728300  0.133500  0.117900  1
  C  C803  1  0.228300  0.633500  0.382100  1
  C  C804  1  0.271700  0.866500  0.882100  1
  C  C805  1  0.776800  0.394400  0.597800  1
  C  C806  1  0.723200  0.105600  0.097800  1
  C  C807  1  0.223200  0.605600  0.402200  1
  C  C808  1  0.276800  0.894400  0.902200  1
  C  C809  1  0.729400  0.447500  0.574400  1
  C  C810  1  0.770600  0.052500  0.074400  1
  C  C811  1  0.270600  0.552500  0.425600  1
  C  C812  1  0.229400  0.947500  0.925600  1
  C  C813  1  0.708800  0.486800  0.572000  1
  C  C814  1  0.791200  0.013200  0.072000  1
  C  C815  1  0.291200  0.513200  0.428000  1
  C  C816  1  0.208800  0.986800  0.928000  1
  C  C817  1  0.723100  0.507200  0.550600  1
  C  C818  1  0.776900  0.992800  0.050600  1
  C  C819  1  0.276900  0.492800  0.449400  1
  C  C820  1  0.223100  0.007200  0.949400  1
  C  C821  1  0.757100  0.488400  0.530800  1
  C  C822  1  0.742900  0.011600  0.030800  1
  C  C823  1  0.242900  0.511600  0.469200  1
  C  C824  1  0.257100  0.988400  0.969200  1
  C  C825  1  0.774500  0.448400  0.532500  1
  C  C826  1  0.725500  0.051600  0.032500  1
  C  C827  1  0.225500  0.551600  0.467500  1
  C  C828  1  0.274500  0.948400  0.967500  1
  C  C829  1  0.761300  0.428700  0.553900  1
  C  C830  1  0.738700  0.071300  0.053900  1
  C  C831  1  0.238700  0.571300  0.446100  1
  C  C832  1  0.261300  0.928700  0.946100  1
  C  C833  1  0.774000  0.535000  0.495400  1
  C  C834  1  0.726000  0.965000  0.995400  1
  C  C835  1  0.226000  0.465000  0.504600  1
  C  C836  1  0.274000  0.035000  0.004600  1
  C  C837  1  0.758800  0.235800  0.935000  1
  C  C838  1  0.741200  0.264200  0.435000  1
  C  C839  1  0.241200  0.764200  0.065000  1
  C  C840  1  0.258800  0.735800  0.565000  1
  C  C841  1  0.778900  0.197400  0.928200  1
  C  C842  1  0.721100  0.302600  0.428200  1
  C  C843  1  0.221100  0.802600  0.071800  1
  C  C844  1  0.278900  0.697400  0.571800  1
  C  C845  1  0.795200  0.168900  0.945400  1
  C  C846  1  0.704800  0.331100  0.445400  1
  C  C847  1  0.204800  0.831100  0.054600  1
  C  C848  1  0.295200  0.668900  0.554600  1
  C  C849  1  0.792100  0.179800  0.969400  1
  C  C850  1  0.707900  0.320200  0.469400  1
  C  C851  1  0.207900  0.820200  0.030600  1
  C  C852  1  0.292100  0.679800  0.530600  1
  C  C853  1  0.773600  0.217900  0.976700  1
  C  C854  1  0.726400  0.282100  0.476700  1
  C  C855  1  0.226400  0.782100  0.023300  1
  C  C856  1  0.273600  0.717900  0.523300  1
  C  C857  1  0.756800  0.246300  0.959200  1
  C  C858  1  0.743200  0.253700  0.459200  1
  C  C859  1  0.243200  0.753700  0.040800  1
  C  C860  1  0.256800  0.746300  0.540800  1
  C  C861  1  0.834000  0.115200  0.981200  1
  C  C862  1  0.666000  0.384800  0.481200  1
  C  C863  1  0.166000  0.884800  0.018800  1
  C  C864  1  0.334000  0.615200  0.518800  1
  C  C865  1  0.789900  0.291900  0.913300  1
  C  C866  1  0.710100  0.208100  0.413300  1
  C  C867  1  0.210100  0.708100  0.086700  1
  C  C868  1  0.289900  0.791900  0.586700  1
  C  C869  1  0.779500  0.320600  0.893700  1
  C  C870  1  0.720500  0.179400  0.393700  1
  C  C871  1  0.220500  0.679400  0.106300  1
  C  C872  1  0.279500  0.820600  0.606300  1
  C  C873  1  0.836300  0.350700  0.889100  1
  C  C874  1  0.663700  0.149300  0.389100  1
  C  C875  1  0.163700  0.649300  0.110900  1
  C  C876  1  0.336300  0.850700  0.610900  1
  C  C877  1  0.828200  0.371600  0.867800  1
  C  C878  1  0.671800  0.128400  0.367800  1
  C  C879  1  0.171800  0.628400  0.132200  1
  C  C880  1  0.328200  0.871600  0.632200  1
  C  C881  1  0.763400  0.362600  0.851700  1
  C  C882  1  0.736600  0.137400  0.351700  1
  C  C883  1  0.236600  0.637400  0.148300  1
  C  C884  1  0.263400  0.862600  0.648300  1
  C  C885  1  0.707200  0.333500  0.859100  1
  C  C886  1  0.792800  0.166500  0.359100  1
  C  C887  1  0.292800  0.666500  0.140900  1
  C  C888  1  0.207200  0.833500  0.640900  1
  C  C889  1  0.729400  0.358600  0.807400  1
  C  C890  1  0.770600  0.141400  0.307400  1
  C  C891  1  0.270600  0.641400  0.192600  1
  C  C892  1  0.229400  0.858600  0.692600  1
  C  C893  1  0.755600  0.380500  0.827300  1
  C  C894  1  0.744400  0.119500  0.327300  1
  C  C895  1  0.244400  0.619500  0.172700  1
  C  C896  1  0.255600  0.880500  0.672700  1
  C  C897  1  0.770600  0.420200  0.823100  1
  C  C898  1  0.729400  0.079800  0.323100  1
  C  C899  1  0.229400  0.579800  0.176900  1
  C  C900  1  0.270600  0.920200  0.676900  1
  C  C901  1  0.757000  0.435100  0.800200  1
  C  C902  1  0.743000  0.064900  0.300200  1
  C  C903  1  0.243000  0.564900  0.199800  1
  C  C904  1  0.257000  0.935100  0.699800  1
  C  C905  1  0.727200  0.411100  0.781700  1
  C  C906  1  0.772800  0.088900  0.281700  1
  C  C907  1  0.272800  0.588900  0.218300  1
  C  C908  1  0.227200  0.911100  0.718300  1
  C  C909  1  0.703600  0.427500  0.757700  1
  C  C910  1  0.796400  0.072500  0.257700  1
  C  C911  1  0.296400  0.572500  0.242300  1
  C  C912  1  0.203600  0.927500  0.742300  1
  C  C913  1  0.705600  0.467700  0.751900  1
  C  C914  1  0.794400  0.032300  0.251900  1
  C  C915  1  0.294400  0.532300  0.248100  1
  C  C916  1  0.205600  0.967700  0.748100  1
  C  C917  1  0.676900  0.478900  0.729400  1
  C  C918  1  0.823100  0.021100  0.229400  1
  C  C919  1  0.323100  0.521100  0.270600  1
  C  C920  1  0.176900  0.978900  0.770600  1
  C  C921  1  0.646800  0.451300  0.712800  1
  C  C922  1  0.853200  0.048700  0.212800  1
  C  C923  1  0.353200  0.548700  0.287200  1
  C  C924  1  0.146800  0.951300  0.787200  1
  C  C925  1  0.649800  0.412100  0.719900  1
  C  C926  1  0.850200  0.087900  0.219900  1
  C  C927  1  0.350200  0.587900  0.280100  1
  C  C928  1  0.149800  0.912100  0.780100  1
  C  C929  1  0.622800  0.436400  0.668300  1
  C  C930  1  0.877200  0.063600  0.168300  1
  C  C931  1  0.377200  0.563600  0.331700  1
  C  C932  1  0.122800  0.936400  0.831700  1
  C  C933  1  0.621400  0.461800  0.687900  1
  C  C934  1  0.878600  0.038200  0.187900  1
  C  C935  1  0.378600  0.538200  0.312100  1
  C  C936  1  0.121400  0.961800  0.812100  1
  C  C937  1  0.585500  0.498500  0.683500  1
  C  C938  1  0.914500  0.001500  0.183500  1
  C  C939  1  0.414500  0.501500  0.316500  1
  C  C940  1  0.085500  0.998500  0.816500  1
  C  C941  1  0.554200  0.507000  0.660700  1
  C  C942  1  0.945800  0.993000  0.160700  1
  C  C943  1  0.445800  0.493000  0.339300  1
  C  C944  1  0.054200  0.007000  0.839300  1
  C  C945  1  0.559600  0.479400  0.642300  1
  C  C946  1  0.940400  0.020600  0.142300  1
  C  C947  1  0.440400  0.520600  0.357700  1
  C  C948  1  0.059600  0.979400  0.857700  1
  C  C949  1  0.526500  0.485300  0.617700  1
  C  C950  1  0.973500  0.014700  0.117700  1
  C  C951  1  0.473500  0.514700  0.382300  1
  C  C952  1  0.026500  0.985300  0.882300  1
  C  C953  1  0.504200  0.461800  0.578500  1
  C  C954  1  0.995800  0.038200  0.078500  1
  C  C955  1  0.495800  0.538200  0.421500  1
  C  C956  1  0.004200  0.961800  0.921500  1
  C  C957  1  0.514400  0.432800  0.561200  1
  C  C958  1  0.985600  0.067200  0.061200  1
  C  C959  1  0.485600  0.567200  0.438800  1
  C  C960  1  0.014400  0.932800  0.938800  1
  C  C961  1  0.484000  0.436600  0.538000  1
  C  C962  1  0.016000  0.063400  0.038000  1
  C  C963  1  0.516000  0.563400  0.462000  1
  C  C964  1  0.984000  0.936600  0.962000  1
  C  C965  1  0.439800  0.470700  0.532600  1
  C  C966  1  0.060200  0.029300  0.032600  1
  C  C967  1  0.560200  0.529300  0.467400  1
  C  C968  1  0.939800  0.970700  0.967400  1
  C  C969  1  0.429100  0.500500  0.549300  1
  C  C970  1  0.070900  0.999500  0.049300  1
  C  C971  1  0.570900  0.499500  0.450700  1
  C  C972  1  0.929100  0.000500  0.950700  1
  C  C973  1  0.461500  0.496000  0.572400  1
  C  C974  1  0.038500  0.004000  0.072400  1
  C  C975  1  0.538500  0.504000  0.427600  1
  C  C976  1  0.961500  0.996000  0.927600  1
  C  C977  1  0.421000  0.441700  0.494100  1
  C  C978  1  0.079000  0.058300  0.994100  1
  C  C979  1  0.579000  0.558300  0.505900  1
  C  C980  1  0.921000  0.941700  0.005900  1
  C  C981  1  0.622500  0.359900  0.951100  1
  C  C982  1  0.877500  0.140100  0.451100  1
  C  C983  1  0.377500  0.640100  0.048900  1
  C  C984  1  0.122500  0.859900  0.548900  1
  C  C985  1  0.562900  0.336800  0.962900  1
  C  C986  1  0.937100  0.163200  0.462900  1
  C  C987  1  0.437100  0.663200  0.037100  1
  C  C988  1  0.062900  0.836800  0.537100  1
  C  C989  1  0.580000  0.324100  0.986100  1
  C  C990  1  0.920000  0.175900  0.486100  1
  C  C991  1  0.420000  0.675900  0.013900  1
  C  C992  1  0.080000  0.824100  0.513900  1
  C  C993  1  0.654900  0.334300  0.997700  1
  C  C994  1  0.845100  0.165700  0.497700  1
  C  C995  1  0.345100  0.665700  0.002300  1
  C  C996  1  0.154900  0.834300  0.502300  1
  C  C997  1  0.714800  0.356700  0.985800  1
  C  C998  1  0.785200  0.143300  0.485800  1
  C  C999  1  0.285200  0.643300  0.014200  1
  C  C1000  1  0.214800  0.856700  0.514200  1
  C  C1001  1  0.697900  0.369200  0.962600  1
  C  C1002  1  0.802100  0.130800  0.462600  1
  C  C1003  1  0.302100  0.630800  0.037400  1
  C  C1004  1  0.197900  0.869200  0.537400  1
  C  C1005  1  0.748000  0.335700  0.032800  1
  C  C1006  1  0.752000  0.164300  0.532800  1
  C  C1007  1  0.252000  0.664300  0.967200  1
  C  C1008  1  0.248000  0.835700  0.467200  1
  C  C1009  1  0.643100  0.405700  0.919600  1
  C  C1010  1  0.856900  0.094300  0.419600  1
  C  C1011  1  0.356900  0.594300  0.080400  1
  C  C1012  1  0.143100  0.905700  0.580400  1
  C  C1013  1  0.622600  0.419200  0.895100  1
  C  C1014  1  0.877400  0.080800  0.395100  1
  C  C1015  1  0.377400  0.580800  0.104900  1
  C  C1016  1  0.122600  0.919200  0.604900  1
  C  C1017  1  0.656600  0.452800  0.884600  1
  C  C1018  1  0.843400  0.047200  0.384600  1
  C  C1019  1  0.343400  0.547200  0.115400  1
  C  C1020  1  0.156600  0.952800  0.615400  1
  C  C1021  1  0.632100  0.461900  0.861400  1
  C  C1022  1  0.867900  0.038100  0.361400  1
  C  C1023  1  0.367900  0.538100  0.138600  1
  C  C1024  1  0.132100  0.961900  0.638600  1
  C  C1025  1  0.576200  0.437900  0.848800  1
  C  C1026  1  0.923800  0.062100  0.348800  1
  C  C1027  1  0.423800  0.562100  0.151200  1
  C  C1028  1  0.076200  0.937900  0.651200  1
  C  C1029  1  0.544600  0.405400  0.861300  1
  C  C1030  1  0.955400  0.094600  0.361300  1
  C  C1031  1  0.455400  0.594600  0.138700  1
  C  C1032  1  0.044600  0.905400  0.638700  1
  C  C1033  1  0.532200  0.415500  0.807800  1
  C  C1034  1  0.967800  0.084500  0.307800  1
  C  C1035  1  0.467800  0.584500  0.192200  1
  C  C1036  1  0.032200  0.915500  0.692200  1
  C  C1037  1  0.553500  0.446100  0.823300  1
  C  C1038  1  0.946500  0.053900  0.323300  1
  C  C1039  1  0.446500  0.553900  0.176700  1
  C  C1040  1  0.053500  0.946100  0.676700  1
  C  C1041  1  0.550700  0.484000  0.813700  1
  C  C1042  1  0.949300  0.016000  0.313700  1
  C  C1043  1  0.449300  0.516000  0.186300  1
  C  C1044  1  0.050700  0.984000  0.686300  1
  C  C1045  1  0.525700  0.489700  0.790000  1
  C  C1046  1  0.974300  0.010300  0.290000  1
  C  C1047  1  0.474300  0.510300  0.210000  1
  C  C1048  1  0.025700  0.989700  0.710000  1
  C  C1049  1  0.502200  0.457300  0.776200  1
  C  C1050  1  0.997800  0.042700  0.276200  1
  C  C1051  1  0.497800  0.542700  0.223800  1
  C  C1052  1  0.002200  0.957300  0.723800  1
  C  C1053  1  0.465800  0.458600  0.751500  1
  C  C1054  1  0.034200  0.041400  0.251500  1
  C  C1055  1  0.534200  0.541400  0.248500  1
  C  C1056  1  0.965800  0.958600  0.748500  1
  C  C1057  1  0.449300  0.492500  0.738200  1
  C  C1058  1  0.050700  0.007500  0.238200  1
  C  C1059  1  0.550700  0.507500  0.261800  1
  C  C1060  1  0.949300  0.992500  0.761800  1
  C  C1061  1  0.414300  0.489800  0.715500  1
  C  C1062  1  0.085700  0.010200  0.215500  1
  C  C1063  1  0.585700  0.510200  0.284500  1
  C  C1064  1  0.914300  0.989800  0.784500  1
  C  C1065  1  0.397900  0.452600  0.705400  1
  C  C1066  1  0.102100  0.047400  0.205400  1
  C  C1067  1  0.602100  0.547400  0.294600  1
  C  C1068  1  0.897900  0.952600  0.794600  1
  C  C1069  1  0.416000  0.420800  0.720200  1
  C  C1070  1  0.084000  0.079200  0.220200  1
  C  C1071  1  0.584000  0.579200  0.279800  1
  C  C1072  1  0.916000  0.920800  0.779800  1
  C  C1073  1  0.398600  0.417800  0.665600  1
  C  C1074  1  0.101400  0.082200  0.165600  1
  C  C1075  1  0.601400  0.582200  0.334400  1
  C  C1076  1  0.898600  0.917800  0.834400  1
  C  C1077  1  0.377400  0.450100  0.679500  1
  C  C1078  1  0.122600  0.049900  0.179500  1
  C  C1079  1  0.622600  0.549900  0.320500  1
  C  C1080  1  0.877400  0.950100  0.820500  1
  C  C1081  1  0.326100  0.478600  0.668800  1
  C  C1082  1  0.173900  0.021400  0.168800  1
  C  C1083  1  0.673900  0.521400  0.331200  1
  C  C1084  1  0.826100  0.978600  0.831200  1
  C  C1085  1  0.298000  0.472700  0.645400  1
  C  C1086  1  0.202000  0.027300  0.145400  1
  C  C1087  1  0.702000  0.527300  0.354600  1
  C  C1088  1  0.798000  0.972700  0.854600  1
  C  C1089  1  0.323500  0.439000  0.633400  1
  C  C1090  1  0.176500  0.061000  0.133400  1
  C  C1091  1  0.676500  0.561000  0.366600  1
  C  C1092  1  0.823500  0.939000  0.866600  1
  C  C1093  1  0.295600  0.429600  0.608800  1
  C  C1094  1  0.204400  0.070400  0.108800  1
  C  C1095  1  0.704400  0.570400  0.391200  1
  C  C1096  1  0.795600  0.929600  0.891200  1
  C  C1097  1  0.294100  0.388900  0.575300  1
  C  C1098  1  0.205900  0.111100  0.075300  1
  C  C1099  1  0.705900  0.611100  0.424700  1
  C  C1100  1  0.794100  0.888900  0.924700  1
  C  C1101  1  0.221600  0.406300  0.566100  1
  C  C1102  1  0.278400  0.093700  0.066100  1
  C  C1103  1  0.778400  0.593700  0.433900  1
  C  C1104  1  0.721600  0.906300  0.933900  1
  C  C1105  1  0.194500  0.396100  0.543300  1
  C  C1106  1  0.305500  0.103900  0.043300  1
  C  C1107  1  0.805500  0.603900  0.456700  1
  C  C1108  1  0.694500  0.896100  0.956700  1
  C  C1109  1  0.238600  0.368500  0.529900  1
  C  C1110  1  0.261400  0.131500  0.029900  1
  C  C1111  1  0.761400  0.631500  0.470100  1
  C  C1112  1  0.738600  0.868500  0.970100  1
  C  C1113  1  0.311800  0.351700  0.538700  1
  C  C1114  1  0.188200  0.148300  0.038700  1
  C  C1115  1  0.688200  0.648300  0.461300  1
  C  C1116  1  0.811800  0.851700  0.961300  1
  C  C1117  1  0.339500  0.362000  0.561600  1
  C  C1118  1  0.160500  0.138000  0.061600  1
  C  C1119  1  0.660500  0.638000  0.438400  1
  C  C1120  1  0.839500  0.862000  0.938400  1
  C  C1121  1  0.259000  0.326400  0.495200  1
  C  C1122  1  0.241000  0.173600  0.995200  1
  C  C1123  1  0.741000  0.673600  0.504800  1
  C  C1124  1  0.759000  0.826400  0.004800  1
  C  C1125  1  0.448700  0.446600  0.942700  1
  C  C1126  1  0.051300  0.053400  0.442700  1
  C  C1127  1  0.551300  0.553400  0.057300  1
  C  C1128  1  0.948700  0.946600  0.557300  1
  C  C1129  1  0.409500  0.424400  0.960600  1
  C  C1130  1  0.090500  0.075600  0.460600  1
  C  C1131  1  0.590500  0.575600  0.039400  1
  C  C1132  1  0.909500  0.924400  0.539400  1
  C  C1133  1  0.437000  0.422800  0.984200  1
  C  C1134  1  0.063000  0.077200  0.484200  1
  C  C1135  1  0.563000  0.577200  0.015800  1
  C  C1136  1  0.937000  0.922800  0.515800  1
  C  C1137  1  0.509000  0.444600  0.989600  1
  C  C1138  1  0.991000  0.055400  0.489600  1
  C  C1139  1  0.491000  0.555400  0.010400  1
  C  C1140  1  0.009000  0.944600  0.510400  1
  C  C1141  1  0.549600  0.467100  0.972200  1
  C  C1142  1  0.950400  0.032900  0.472200  1
  C  C1143  1  0.450400  0.532900  0.027800  1
  C  C1144  1  0.049600  0.967100  0.527800  1
  C  C1145  1  0.520100  0.468500  0.948700  1
  C  C1146  1  0.979900  0.031500  0.448700  1
  C  C1147  1  0.479900  0.531500  0.051300  1
  C  C1148  1  0.020100  0.968500  0.551300  1
  C  C1149  1  0.617000  0.461400  0.018500  1
  C  C1150  1  0.883000  0.038600  0.518500  1
  C  C1151  1  0.383000  0.538600  0.981500  1
  C  C1152  1  0.117000  0.961400  0.481500  1
  C  C1153  1  0.426600  0.474500  0.904200  1
  C  C1154  1  0.073400  0.025500  0.404200  1
  C  C1155  1  0.573400  0.525500  0.095800  1
  C  C1156  1  0.926600  0.974500  0.595800  1
  C  C1157  1  0.389300  0.473900  0.879900  1
  C  C1158  1  0.110700  0.026100  0.379900  1
  C  C1159  1  0.610700  0.526100  0.120100  1
  C  C1160  1  0.889300  0.973900  0.620100  1
  C  C1161  1  0.404100  0.502700  0.862400  1
  C  C1162  1  0.095900  0.997300  0.362400  1
  C  C1163  1  0.595900  0.497300  0.137600  1
  C  C1164  1  0.904100  0.002700  0.637600  1
  C  C1165  1  0.369800  0.496900  0.839700  1
  C  C1166  1  0.130200  0.003100  0.339700  1
  C  C1167  1  0.630200  0.503100  0.160300  1
  C  C1168  1  0.869800  0.996900  0.660300  1
  C  C1169  1  0.322700  0.463400  0.834200  1
  C  C1170  1  0.177300  0.036600  0.334200  1
  C  C1171  1  0.677300  0.536600  0.165800  1
  C  C1172  1  0.822700  0.963400  0.665800  1
  C  C1173  1  0.309000  0.436900  0.853000  1
  C  C1174  1  0.191000  0.063100  0.353000  1
  C  C1175  1  0.691000  0.563100  0.147000  1
  C  C1176  1  0.809000  0.936900  0.647000  1
  C  C1177  1  0.287500  0.415600  0.801100  1
  C  C1178  1  0.212500  0.084400  0.301100  1
  C  C1179  1  0.712500  0.584400  0.198900  1
  C  C1180  1  0.787500  0.915600  0.698900  1
  C  C1181  1  0.291400  0.454000  0.809700  1
  C  C1182  1  0.208600  0.046000  0.309700  1
  C  C1183  1  0.708600  0.546000  0.190300  1
  C  C1184  1  0.791400  0.954000  0.690300  1
  C  C1185  1  0.265500  0.483100  0.793700  1
  C  C1186  1  0.234500  0.016900  0.293700  1
  C  C1187  1  0.734500  0.516900  0.206300  1
  C  C1188  1  0.765500  0.983100  0.706300  1
  C  C1189  1  0.236400  0.473100  0.770900  1
  C  C1190  1  0.263600  0.026900  0.270900  1
  C  C1191  1  0.763600  0.526900  0.229100  1
  C  C1192  1  0.736400  0.973100  0.729100  1
  C  C1193  1  0.235300  0.433800  0.764100  1
  C  C1194  1  0.264700  0.066200  0.264100  1
  C  C1195  1  0.764700  0.566200  0.235900  1
  C  C1196  1  0.735300  0.933800  0.735900  1
  C  C1197  1  0.207400  0.420500  0.739800  1
  C  C1198  1  0.292600  0.079500  0.239800  1
  C  C1199  1  0.792600  0.579500  0.260200  1
  C  C1200  1  0.707400  0.920500  0.760200  1
  C  C1201  1  0.181600  0.447200  0.722200  1
  C  C1202  1  0.318400  0.052800  0.222200  1
  C  C1203  1  0.818400  0.552800  0.277800  1
  C  C1204  1  0.681600  0.947200  0.777800  1
  C  C1205  1  0.162600  0.433100  0.699400  1
  C  C1206  1  0.337400  0.066900  0.199400  1
  C  C1207  1  0.837400  0.566900  0.300600  1
  C  C1208  1  0.662600  0.933100  0.800600  1
  C  C1209  1  0.171800  0.393000  0.694200  1
  C  C1210  1  0.328200  0.107000  0.194200  1
  C  C1211  1  0.828200  0.607000  0.305800  1
  C  C1212  1  0.671800  0.893000  0.805800  1
  C  C1213  1  0.196100  0.369400  0.713400  1
  C  C1214  1  0.303900  0.130600  0.213400  1
  C  C1215  1  0.803900  0.630600  0.286600  1
  C  C1216  1  0.696100  0.869400  0.786600  1
  C  C1217  1  0.216700  0.347900  0.661500  1
  C  C1218  1  0.283300  0.152100  0.161500  1
  C  C1219  1  0.783300  0.652100  0.338500  1
  C  C1220  1  0.716700  0.847900  0.838500  1
  C  C1221  1  0.168600  0.380000  0.668700  1
  C  C1222  1  0.331400  0.120000  0.168700  1
  C  C1223  1  0.831400  0.620000  0.331300  1
  C  C1224  1  0.668600  0.880000  0.831300  1
  C  C1225  1  0.109200  0.394600  0.652400  1
  C  C1226  1  0.390800  0.105400  0.152400  1
  C  C1227  1  0.890800  0.605400  0.347600  1
  C  C1228  1  0.609200  0.894600  0.847600  1
  C  C1229  1  0.099400  0.376000  0.630200  1
  C  C1230  1  0.400600  0.124000  0.130200  1
  C  C1231  1  0.900600  0.624000  0.369800  1
  C  C1232  1  0.599400  0.876000  0.869800  1
  C  C1233  1  0.149100  0.343600  0.625300  1
  C  C1234  1  0.350900  0.156400  0.125300  1
  C  C1235  1  0.850900  0.656400  0.374700  1
  C  C1236  1  0.649100  0.843600  0.874700  1
  C  C1237  1  0.135500  0.319800  0.603600  1
  C  C1238  1  0.364500  0.180200  0.103600  1
  C  C1239  1  0.864500  0.680200  0.396400  1
  C  C1240  1  0.635500  0.819800  0.896400  1
  C  C1241  1  0.155400  0.265100  0.579300  1
  C  C1242  1  0.344600  0.234900  0.079300  1
  C  C1243  1  0.844600  0.734900  0.420700  1
  C  C1244  1  0.655400  0.765100  0.920700  1
  C  C1245  1  0.126800  0.281500  0.557900  1
  C  C1246  1  0.373200  0.218500  0.057900  1
  C  C1247  1  0.873200  0.718500  0.442100  1
  C  C1248  1  0.626800  0.781500  0.942100  1
  C  C1249  1  0.101500  0.257700  0.538900  1
  C  C1250  1  0.398500  0.242300  0.038900  1
  C  C1251  1  0.898500  0.742300  0.461100  1
  C  C1252  1  0.601500  0.757700  0.961100  1
  C  C1253  1  0.103000  0.217100  0.541800  1
  C  C1254  1  0.397000  0.282900  0.041800  1
  C  C1255  1  0.897000  0.782900  0.458200  1
  C  C1256  1  0.603000  0.717100  0.958200  1
  C  C1257  1  0.131300  0.200800  0.563200  1
  C  C1258  1  0.368700  0.299200  0.063200  1
  C  C1259  1  0.868700  0.799200  0.436800  1
  C  C1260  1  0.631300  0.700800  0.936800  1
  C  C1261  1  0.158000  0.224400  0.582100  1
  C  C1262  1  0.342000  0.275600  0.082100  1
  C  C1263  1  0.842000  0.775600  0.417900  1
  C  C1264  1  0.658000  0.724400  0.917900  1
  C  C1265  1  0.075000  0.151300  0.526600  1
  C  C1266  1  0.425000  0.348700  0.026600  1
  C  C1267  1  0.925000  0.848700  0.473400  1
  C  C1268  1  0.575000  0.651300  0.973400  1
  C  C1269  1  0.208200  0.444300  0.946400  1
  C  C1270  1  0.291800  0.055700  0.446400  1
  C  C1271  1  0.791800  0.555700  0.053600  1
  C  C1272  1  0.708200  0.944300  0.553600  1
  C  C1273  1  0.187000  0.434300  0.969900  1
  C  C1274  1  0.313000  0.065700  0.469900  1
  C  C1275  1  0.813000  0.565700  0.030100  1
  C  C1276  1  0.687000  0.934300  0.530100  1
  C  C1277  1  0.174000  0.462800  0.987400  1
  C  C1278  1  0.326000  0.037200  0.487400  1
  C  C1279  1  0.826000  0.537200  0.012600  1
  C  C1280  1  0.674000  0.962800  0.512600  1
  C  C1281  1  0.184600  0.502200  0.981700  1
  C  C1282  1  0.315400  0.997800  0.481700  1
  C  C1283  1  0.815400  0.497800  0.018300  1
  C  C1284  1  0.684600  0.002200  0.518300  1
  C  C1285  1  0.207000  0.512300  0.958400  1
  C  C1286  1  0.293000  0.987700  0.458400  1
  C  C1287  1  0.793000  0.487700  0.041600  1
  C  C1288  1  0.707000  0.012300  0.541600  1
  C  C1289  1  0.219000  0.484000  0.940800  1
  C  C1290  1  0.281000  0.016000  0.440800  1
  C  C1291  1  0.781000  0.516000  0.059200  1
  C  C1292  1  0.719000  0.984000  0.559200  1
  C  C1293  1  0.141000  0.534700  0.019100  1
  C  C1294  1  0.359000  0.965300  0.519100  1
  C  C1295  1  0.859000  0.465300  0.980900  1
  C  C1296  1  0.641000  0.034700  0.480900  1
  C  C1297  1  0.157400  0.392600  0.922500  1
  C  C1298  1  0.342600  0.107400  0.422500  1
  C  C1299  1  0.842600  0.607400  0.077500  1
  C  C1300  1  0.657400  0.892600  0.577500  1
  C  C1301  1  0.159500  0.364600  0.902300  1
  C  C1302  1  0.340500  0.135400  0.402300  1
  C  C1303  1  0.840500  0.635400  0.097700  1
  C  C1304  1  0.659500  0.864600  0.597700  1
  C  C1305  1  0.090200  0.341600  0.896000  1
  C  C1306  1  0.409800  0.158400  0.396000  1
  C  C1307  1  0.909800  0.658400  0.104000  1
  C  C1308  1  0.590200  0.841600  0.604000  1
  C  C1309  1  0.091800  0.321000  0.874500  1
  C  C1310  1  0.408200  0.179000  0.374500  1
  C  C1311  1  0.908200  0.679000  0.125500  1
  C  C1312  1  0.591800  0.821000  0.625500  1
  C  C1313  1  0.163300  0.322800  0.859900  1
  C  C1314  1  0.336700  0.177200  0.359900  1
  C  C1315  1  0.836700  0.677200  0.140100  1
  C  C1316  1  0.663300  0.822800  0.640100  1
  C  C1317  1  0.232400  0.344900  0.868100  1
  C  C1318  1  0.267600  0.155100  0.368100  1
  C  C1319  1  0.767600  0.655100  0.131900  1
  C  C1320  1  0.732400  0.844900  0.631900  1
  C  C1321  1  0.194200  0.327100  0.815900  1
  C  C1322  1  0.305800  0.172900  0.315900  1
  C  C1323  1  0.805800  0.672900  0.184100  1
  C  C1324  1  0.694200  0.827100  0.684100  1
  C  C1325  1  0.171500  0.304300  0.835700  1
  C  C1326  1  0.328500  0.195700  0.335700  1
  C  C1327  1  0.828500  0.695700  0.164300  1
  C  C1328  1  0.671500  0.804300  0.664300  1
  C  C1329  1  0.158900  0.264300  0.831800  1
  C  C1330  1  0.341100  0.235700  0.331800  1
  C  C1331  1  0.841100  0.735700  0.168200  1
  C  C1332  1  0.658900  0.764300  0.668200  1
  C  C1333  1  0.169900  0.249100  0.808900  1
  C  C1334  1  0.330100  0.250900  0.308900  1
  C  C1335  1  0.830100  0.750900  0.191100  1
  C  C1336  1  0.669900  0.749100  0.691100  1
  C  C1337  1  0.194000  0.274200  0.790300  1
  C  C1338  1  0.306000  0.225800  0.290300  1
  C  C1339  1  0.806000  0.725800  0.209700  1
  C  C1340  1  0.694000  0.774200  0.709700  1
  C  C1341  1  0.210900  0.259100  0.765600  1
  C  C1342  1  0.289100  0.240900  0.265600  1
  C  C1343  1  0.789100  0.740900  0.234400  1
  C  C1344  1  0.710900  0.759100  0.734400  1
  C  C1345  1  0.203200  0.219400  0.759700  1
  C  C1346  1  0.296800  0.280600  0.259700  1
  C  C1347  1  0.796800  0.780600  0.240300  1
  C  C1348  1  0.703200  0.719400  0.740300  1
  C  C1349  1  0.226300  0.207600  0.736700  1
  C  C1350  1  0.273700  0.292400  0.236700  1
  C  C1351  1  0.773700  0.792400  0.263300  1
  C  C1352  1  0.726300  0.707600  0.763300  1
  C  C1353  1  0.254300  0.235100  0.719700  1
  C  C1354  1  0.245700  0.264900  0.219700  1
  C  C1355  1  0.745700  0.764900  0.280300  1
  C  C1356  1  0.754300  0.735100  0.780300  1
  C  C1357  1  0.256100  0.274000  0.727400  1
  C  C1358  1  0.243900  0.226000  0.227400  1
  C  C1359  1  0.743900  0.726000  0.272600  1
  C  C1360  1  0.756100  0.774000  0.772600  1
  C  C1361  1  0.266900  0.249300  0.675300  1
  C  C1362  1  0.233100  0.250700  0.175300  1
  C  C1363  1  0.733100  0.750700  0.324700  1
  C  C1364  1  0.766900  0.749300  0.824700  1
  C  C1365  1  0.271300  0.223100  0.694400  1
  C  C1366  1  0.228700  0.276900  0.194400  1
  C  C1367  1  0.728700  0.776900  0.305600  1
  C  C1368  1  0.771300  0.723100  0.805600  1
  C  C1369  1  0.302000  0.185700  0.688900  1
  C  C1370  1  0.198000  0.314300  0.188900  1
  C  C1371  1  0.698000  0.814300  0.311100  1
  C  C1372  1  0.802000  0.685700  0.811100  1
  C  C1373  1  0.325600  0.176800  0.665500  1
  C  C1374  1  0.174400  0.323200  0.165500  1
  C  C1375  1  0.674400  0.823200  0.334500  1
  C  C1376  1  0.825600  0.676800  0.834500  1
  C  C1377  1  0.316300  0.205100  0.647700  1
  C  C1378  1  0.183700  0.294900  0.147700  1
  C  C1379  1  0.683700  0.794900  0.352300  1
  C  C1380  1  0.816300  0.705100  0.852300  1
  C  C1381  1  0.336000  0.198800  0.622100  1
  C  C1382  1  0.164000  0.301200  0.122100  1
  C  C1383  1  0.664000  0.801200  0.377900  1
  C  C1384  1  0.836000  0.698800  0.877900  1
  C  C1385  1  0.345500  0.219000  0.581800  1
  C  C1386  1  0.154500  0.281000  0.081800  1
  C  C1387  1  0.654500  0.781000  0.418200  1
  C  C1388  1  0.845500  0.719000  0.918200  1
  C  C1389  1  0.355500  0.247900  0.564500  1
  C  C1390  1  0.144500  0.252100  0.064500  1
  C  C1391  1  0.644500  0.752100  0.435500  1
  C  C1392  1  0.855500  0.747900  0.935500  1
  C  C1393  1  0.370200  0.239400  0.540500  1
  C  C1394  1  0.129800  0.260600  0.040500  1
  C  C1395  1  0.629800  0.760600  0.459500  1
  C  C1396  1  0.870200  0.739400  0.959500  1
  C  C1397  1  0.374100  0.200200  0.533400  1
  C  C1398  1  0.125900  0.299800  0.033400  1
  C  C1399  1  0.625900  0.799800  0.466600  1
  C  C1400  1  0.874100  0.700200  0.966600  1
  C  C1401  1  0.363000  0.170600  0.550000  1
  C  C1402  1  0.137000  0.329400  0.050000  1
  C  C1403  1  0.637000  0.829400  0.450000  1
  C  C1404  1  0.863000  0.670600  0.950000  1
  C  C1405  1  0.349200  0.180000  0.573900  1
  C  C1406  1  0.150800  0.320000  0.073900  1
  C  C1407  1  0.650800  0.820000  0.426100  1
  C  C1408  1  0.849200  0.680000  0.926100  1
  C  C1409  1  0.409000  0.220100  0.493200  1
  C  C1410  1  0.091000  0.279900  0.993200  1
  C  C1411  1  0.591000  0.779900  0.506800  1
  C  C1412  1  0.909000  0.720100  0.006800  1
  C  C1413  1  0.925000  0.341400  0.757800  1
  C  C1414  1  0.575000  0.158600  0.257800  1
  C  C1415  1  0.075000  0.658600  0.242200  1
  C  C1416  1  0.425000  0.841400  0.742200  1
  C  C1417  1  0.017000  0.352400  0.760600  1
  C  C1418  1  0.483000  0.147600  0.260600  1
  C  C1419  1  0.983000  0.647600  0.239400  1
  C  C1420  1  0.517000  0.852400  0.739400  1
  C  C1421  1  0.508100  0.250900  0.670800  1
  C  C1422  1  0.991900  0.249100  0.170800  1
  C  C1423  1  0.491900  0.749100  0.329200  1
  C  C1424  1  0.008100  0.750900  0.829200  1
  C  C1425  1  0.492700  0.273200  0.691400  1
  C  C1426  1  0.007300  0.226800  0.191400  1
  C  C1427  1  0.507300  0.726800  0.308600  1
  C  C1428  1  0.992700  0.773200  0.808600  1
  C  C1429  1  0.493700  0.255500  0.714000  1
  C  C1430  1  0.006300  0.244500  0.214000  1
  C  C1431  1  0.506300  0.744500  0.286000  1
  C  C1432  1  0.993700  0.755500  0.786000  1
  C  C1433  1  0.510100  0.215300  0.716100  1
  C  C1434  1  0.989900  0.284700  0.216100  1
  C  C1435  1  0.489900  0.784700  0.283900  1
  C  C1436  1  0.010100  0.715300  0.783900  1
  C  C1437  1  0.525500  0.193000  0.695500  1
  C  C1438  1  0.974500  0.307000  0.195500  1
  C  C1439  1  0.474500  0.807000  0.304500  1
  C  C1440  1  0.025500  0.693000  0.804500  1
  C  C1441  1  0.524500  0.210700  0.672900  1
  C  C1442  1  0.975500  0.289300  0.172900  1
  C  C1443  1  0.475500  0.789300  0.327100  1
  C  C1444  1  0.024500  0.710700  0.827100  1
  C  C1445  1  0.539800  0.188400  0.652300  1
  C  C1446  1  0.960200  0.311600  0.152300  1
  C  C1447  1  0.460200  0.811600  0.347700  1
  C  C1448  1  0.039800  0.688400  0.847700  1
  C  C1449  1  0.556200  0.148200  0.654300  1
  C  C1450  1  0.943800  0.351800  0.154300  1
  C  C1451  1  0.443800  0.851800  0.345700  1
  C  C1452  1  0.056200  0.648200  0.845700  1
  C  C1453  1  0.557200  0.130500  0.677000  1
  C  C1454  1  0.942800  0.369500  0.177000  1
  C  C1455  1  0.442800  0.869500  0.323000  1
  C  C1456  1  0.057200  0.630500  0.823000  1
  C  C1457  1  0.541900  0.152800  0.697500  1
  C  C1458  1  0.958100  0.347200  0.197500  1
  C  C1459  1  0.458100  0.847200  0.302500  1
  C  C1460  1  0.041900  0.652800  0.802500  1
  C  C1461  1  0.401000  0.246400  0.840200  1
  C  C1462  1  0.099000  0.253600  0.340200  1
  C  C1463  1  0.599000  0.753600  0.159800  1
  C  C1464  1  0.901000  0.746400  0.659800  1
  C  C1465  1  0.423700  0.271300  0.821400  1
  C  C1466  1  0.076300  0.228700  0.321400  1
  C  C1467  1  0.576300  0.728700  0.178600  1
  C  C1468  1  0.923700  0.771300  0.678600  1
  C  C1469  1  0.423700  0.257300  0.797800  1
  C  C1470  1  0.076300  0.242700  0.297800  1
  C  C1471  1  0.576300  0.742700  0.202200  1
  C  C1472  1  0.923700  0.757300  0.702200  1
  C  C1473  1  0.405000  0.217700  0.793300  1
  C  C1474  1  0.095000  0.282300  0.293300  1
  C  C1475  1  0.595000  0.782300  0.206700  1
  C  C1476  1  0.905000  0.717700  0.706700  1
  C  C1477  1  0.377000  0.193600  0.811900  1
  C  C1478  1  0.123000  0.306400  0.311900  1
  C  C1479  1  0.623000  0.806400  0.188100  1
  C  C1480  1  0.877000  0.693600  0.688100  1
  C  C1481  1  0.384000  0.206700  0.835700  1
  C  C1482  1  0.116000  0.293300  0.335700  1
  C  C1483  1  0.616000  0.793300  0.164300  1
  C  C1484  1  0.884000  0.706700  0.664300  1
  C  C1485  1  0.383000  0.179600  0.854500  1
  C  C1486  1  0.117000  0.320400  0.354500  1
  C  C1487  1  0.617000  0.820400  0.145500  1
  C  C1488  1  0.883000  0.679600  0.645500  1
  C  C1489  1  0.357000  0.140900  0.850500  1
  C  C1490  1  0.143000  0.359100  0.350500  1
  C  C1491  1  0.643000  0.859100  0.149500  1
  C  C1492  1  0.857000  0.640900  0.649500  1
  C  C1493  1  0.347000  0.128300  0.826800  1
  C  C1494  1  0.153000  0.371700  0.326800  1
  C  C1495  1  0.653000  0.871700  0.173200  1
  C  C1496  1  0.847000  0.628300  0.673200  1
  C  C1497  1  0.364000  0.153400  0.807600  1
  C  C1498  1  0.136000  0.346600  0.307600  1
  C  C1499  1  0.636000  0.846600  0.192400  1
  C  C1500  1  0.864000  0.653400  0.692400  1
  C  C1501  1  0.405700  0.727000  0.698300  1
  C  C1502  1  0.094300  0.773000  0.198300  1
  C  C1503  1  0.594300  0.273000  0.301700  1
  C  C1504  1  0.905700  0.227000  0.801700  1
  C  C1505  1  0.469300  0.689200  0.628600  1
  C  C1506  1  0.030700  0.810800  0.128600  1
  C  C1507  1  0.530700  0.310800  0.371400  1
  C  C1508  1  0.969300  0.189200  0.871400  1
  C  C1509  1  0.000500  0.231500  0.714500  1
  C  C1510  1  0.499500  0.268500  0.214500  1
  C  C1511  1  0.999500  0.768500  0.285500  1
  C  C1512  1  0.500500  0.731500  0.785500  1
  C  C1513  1  0.952700  0.205000  0.638000  1
  C  C1514  1  0.547300  0.295000  0.138000  1
  C  C1515  1  0.047300  0.795000  0.362000  1
  C  C1516  1  0.452700  0.705000  0.862000  1
  C  C1517  1  0.292500  0.600800  0.771800  1
  C  C1518  1  0.207500  0.899200  0.271800  1
  C  C1519  1  0.707500  0.399200  0.228200  1
  C  C1520  1  0.792500  0.100800  0.728200  1
  C  C1521  1  0.067900  0.564500  0.703900  1
  C  C1522  1  0.432100  0.935500  0.203900  1
  C  C1523  1  0.932100  0.435500  0.296100  1
  C  C1524  1  0.567900  0.064500  0.796100  1
  C  C1525  1  0.015900  0.113600  0.776600  1
  C  C1526  1  0.484100  0.386400  0.276600  1
  C  C1527  1  0.984100  0.886400  0.223400  1
  C  C1528  1  0.515900  0.613600  0.723400  1
  C  C1529  1  0.310600  0.071200  0.744200  1
  C  C1530  1  0.189400  0.428800  0.244200  1
  C  C1531  1  0.689400  0.928800  0.255800  1
  C  C1532  1  0.810600  0.571200  0.755800  1
  C  C1533  1  0.236400  0.228500  0.902500  1
  C  C1534  1  0.263600  0.271500  0.402500  1
  C  C1535  1  0.763600  0.771500  0.097500  1
  C  C1536  1  0.736400  0.728500  0.597500  1
  C  C1537  1  0.319700  0.299000  0.979800  1
  C  C1538  1  0.180300  0.201000  0.479800  1
  C  C1539  1  0.680300  0.701000  0.020200  1
  C  C1540  1  0.819700  0.799000  0.520200  1
  C  C1541  1  0.694800  0.245000  0.608400  1
  C  C1542  1  0.805200  0.255000  0.108400  1
  C  C1543  1  0.305200  0.755000  0.391600  1
  C  C1544  1  0.194800  0.745000  0.891600  1
  C  C1545  1  0.578200  0.325900  0.536000  1
  C  C1546  1  0.921800  0.174100  0.036000  1
  C  C1547  1  0.421800  0.674100  0.464000  1
  C  C1548  1  0.078200  0.825900  0.964000  1
  S  S1549  1  0.469900  0.323700  0.687920  1
  S  S1550  1  0.030100  0.176300  0.187920  1
  S  S1551  1  0.530100  0.676300  0.312080  1
  S  S1552  1  0.969900  0.823700  0.812080  1
  S  S1553  1  0.454600  0.320200  0.828120  1
  S  S1554  1  0.045400  0.179800  0.328120  1
  S  S1555  1  0.545400  0.679800  0.171880  1
  S  S1556  1  0.954600  0.820200  0.671880  1
  S  S1557  1  0.407400  0.770200  0.678370  1
  S  S1558  1  0.092600  0.729800  0.178370  1
  S  S1559  1  0.592600  0.229800  0.321630  1
  S  S1560  1  0.907400  0.270200  0.821630  1
  S  S1561  1  0.409600  0.735200  0.631310  1
  S  S1562  1  0.090400  0.764800  0.131310  1
  S  S1563  1  0.590400  0.264800  0.368690  1
  S  S1564  1  0.909600  0.235200  0.868690  1
  S  S1565  1  0.005000  0.277200  0.696900  1
  S  S1566  1  0.495000  0.222800  0.196900  1
  S  S1567  1  0.995000  0.722800  0.303100  1
  S  S1568  1  0.505000  0.777200  0.803100  1
  S  S1569  1  0.016100  0.248700  0.645600  1
  S  S1570  1  0.483900  0.251300  0.145600  1
  S  S1571  1  0.983900  0.751300  0.354400  1
  S  S1572  1  0.516100  0.748700  0.854400  1
  S  S1573  1  0.191000  0.585800  0.759100  1
  S  S1574  1  0.309000  0.914200  0.259100  1
  S  S1575  1  0.809000  0.414200  0.240900  1
  S  S1576  1  0.691000  0.085800  0.740900  1
  S  S1577  1  0.181500  0.570800  0.708200  1
  S  S1578  1  0.318500  0.929200  0.208200  1
  S  S1579  1  0.818500  0.429200  0.291800  1
  S  S1580  1  0.681500  0.070800  0.791800  1
  S  S1581  1  0.129700  0.113700  0.782400  1
  S  S1582  1  0.370300  0.386300  0.282400  1
  S  S1583  1  0.870300  0.886300  0.217600  1
  S  S1584  1  0.629700  0.613700  0.717600  1
  S  S1585  1  0.204700  0.088300  0.736700  1
  S  S1586  1  0.295300  0.411700  0.236700  1
  S  S1587  1  0.795300  0.911700  0.263300  1
  S  S1588  1  0.704700  0.588300  0.763300  1
  S  S1589  1  0.326800  0.243700  0.921100  1
  S  S1590  1  0.173200  0.256300  0.421100  1
  S  S1591  1  0.673200  0.756300  0.078900  1
  S  S1592  1  0.826800  0.743700  0.578900  1
  S  S1593  1  0.247800  0.300000  0.953900  1
  S  S1594  1  0.252200  0.200000  0.453900  1
  S  S1595  1  0.752200  0.700000  0.046100  1
  S  S1596  1  0.747800  0.800000  0.546100  1
  S  S1597  1  0.595000  0.252100  0.592100  1
  S  S1598  1  0.905000  0.247900  0.092100  1
  S  S1599  1  0.405000  0.747900  0.407900  1
  S  S1600  1  0.095000  0.752100  0.907900  1
  S  S1601  1  0.658900  0.306800  0.556600  1
  S  S1602  1  0.841100  0.193200  0.056600  1
  S  S1603  1  0.341100  0.693200  0.443400  1
  S  S1604  1  0.158900  0.806800  0.943400  1
  S  S1605  1  0.047000  0.250500  0.687100  1
  S  S1606  1  0.453000  0.249500  0.187100  1
  S  S1607  1  0.953000  0.749500  0.312900  1
  S  S1608  1  0.547000  0.750500  0.812900  1
  N  N1609  1  0.580900  0.207400  0.910000  1
  N  N1610  1  0.919100  0.292600  0.410000  1
  N  N1611  1  0.419100  0.792600  0.090000  1
  N  N1612  1  0.080900  0.707400  0.590000  1
  N  N1613  1  0.622100  0.226200  0.864100  1
  N  N1614  1  0.877900  0.273800  0.364100  1
  N  N1615  1  0.377900  0.773800  0.135900  1
  N  N1616  1  0.122100  0.726200  0.635900  1
  N  N1617  1  0.676300  0.277000  0.768900  1
  N  N1618  1  0.823700  0.223000  0.268900  1
  N  N1619  1  0.323700  0.723000  0.231100  1
  N  N1620  1  0.176300  0.777000  0.731100  1
  N  N1621  1  0.710100  0.306000  0.725800  1
  N  N1622  1  0.789900  0.194000  0.225800  1
  N  N1623  1  0.289900  0.694000  0.274200  1
  N  N1624  1  0.210100  0.806000  0.774200  1
  N  N1625  1  0.698000  0.369000  0.629900  1
  N  N1626  1  0.802000  0.131000  0.129900  1
  N  N1627  1  0.302000  0.631000  0.370100  1
  N  N1628  1  0.198000  0.869000  0.870100  1
  N  N1629  1  0.724500  0.419900  0.593600  1
  N  N1630  1  0.775500  0.080100  0.093600  1
  N  N1631  1  0.275500  0.580100  0.406400  1
  N  N1632  1  0.224500  0.919900  0.906400  1
  N  N1633  1  0.740000  0.263500  0.916400  1
  N  N1634  1  0.760000  0.236500  0.416400  1
  N  N1635  1  0.260000  0.736500  0.083600  1
  N  N1636  1  0.240000  0.763500  0.583600  1
  N  N1637  1  0.713300  0.312500  0.879400  1
  N  N1638  1  0.786700  0.187500  0.379400  1
  N  N1639  1  0.286700  0.687500  0.120600  1
  N  N1640  1  0.213300  0.812500  0.620600  1
  N  N1641  1  0.714300  0.372200  0.785100  1
  N  N1642  1  0.785700  0.127800  0.285100  1
  N  N1643  1  0.285700  0.627800  0.214900  1
  N  N1644  1  0.214300  0.872200  0.714900  1
  N  N1645  1  0.675900  0.400700  0.741700  1
  N  N1646  1  0.824100  0.099300  0.241700  1
  N  N1647  1  0.324100  0.599300  0.258300  1
  N  N1648  1  0.175900  0.900700  0.758300  1
  N  N1649  1  0.595900  0.444000  0.645900  1
  N  N1650  1  0.904100  0.056000  0.145900  1
  N  N1651  1  0.404100  0.556000  0.354100  1
  N  N1652  1  0.095900  0.944000  0.854100  1
  N  N1653  1  0.535800  0.457200  0.602200  1
  N  N1654  1  0.964200  0.042800  0.102200  1
  N  N1655  1  0.464200  0.542800  0.397800  1
  N  N1656  1  0.035800  0.957200  0.897800  1
  N  N1657  1  0.607700  0.374900  0.927700  1
  N  N1658  1  0.892300  0.125100  0.427700  1
  N  N1659  1  0.392300  0.625100  0.072300  1
  N  N1660  1  0.107700  0.874900  0.572300  1
  N  N1661  1  0.566400  0.395700  0.883800  1
  N  N1662  1  0.933600  0.104300  0.383800  1
  N  N1663  1  0.433600  0.604300  0.116200  1
  N  N1664  1  0.066400  0.895700  0.616200  1
  N  N1665  1  0.506900  0.420400  0.785000  1
  N  N1666  1  0.993100  0.079600  0.285000  1
  N  N1667  1  0.493100  0.579600  0.215000  1
  N  N1668  1  0.006900  0.920400  0.715000  1
  N  N1669  1  0.447400  0.422800  0.742400  1
  N  N1670  1  0.052600  0.077200  0.242400  1
  N  N1671  1  0.552600  0.577200  0.257600  1
  N  N1672  1  0.947400  0.922800  0.757600  1
  N  N1673  1  0.374700  0.411300  0.642800  1
  N  N1674  1  0.125300  0.088700  0.142800  1
  N  N1675  1  0.625300  0.588700  0.357200  1
  N  N1676  1  0.874700  0.911300  0.857200  1
  N  N1677  1  0.326000  0.399600  0.598200  1
  N  N1678  1  0.174000  0.100400  0.098200  1
  N  N1679  1  0.674000  0.600400  0.401800  1
  N  N1680  1  0.826000  0.899600  0.901800  1
  N  N1681  1  0.412700  0.446800  0.919300  1
  N  N1682  1  0.087300  0.053200  0.419300  1
  N  N1683  1  0.587300  0.553200  0.080700  1
  N  N1684  1  0.912700  0.946800  0.580700  1
  N  N1685  1  0.341000  0.442000  0.875100  1
  N  N1686  1  0.159000  0.058000  0.375100  1
  N  N1687  1  0.659000  0.558000  0.124900  1
  N  N1688  1  0.841000  0.942000  0.624900  1
  N  N1689  1  0.260400  0.405100  0.779200  1
  N  N1690  1  0.239600  0.094900  0.279200  1
  N  N1691  1  0.739600  0.594900  0.220800  1
  N  N1692  1  0.760400  0.905100  0.720800  1
  N  N1693  1  0.212300  0.381500  0.735900  1
  N  N1694  1  0.287700  0.118500  0.235900  1
  N  N1695  1  0.787700  0.618500  0.264100  1
  N  N1696  1  0.712300  0.881500  0.764100  1
  N  N1697  1  0.208700  0.329400  0.640300  1
  N  N1698  1  0.291300  0.170600  0.140300  1
  N  N1699  1  0.791300  0.670600  0.359700  1
  N  N1700  1  0.708700  0.829400  0.859700  1
  N  N1701  1  0.171200  0.287100  0.600500  1
  N  N1702  1  0.328800  0.212900  0.100500  1
  N  N1703  1  0.828800  0.712900  0.399500  1
  N  N1704  1  0.671200  0.787100  0.899500  1
  N  N1705  1  0.216200  0.416200  0.927600  1
  N  N1706  1  0.283800  0.083800  0.427600  1
  N  N1707  1  0.783800  0.583800  0.072400  1
  N  N1708  1  0.716200  0.916200  0.572400  1
  N  N1709  1  0.230200  0.365300  0.888800  1
  N  N1710  1  0.269800  0.134700  0.388800  1
  N  N1711  1  0.769800  0.634700  0.111200  1
  N  N1712  1  0.730200  0.865300  0.611200  1
  N  N1713  1  0.205500  0.313200  0.793500  1
  N  N1714  1  0.294500  0.186800  0.293500  1
  N  N1715  1  0.794500  0.686800  0.206500  1
  N  N1716  1  0.705500  0.813200  0.706500  1
  N  N1717  1  0.236000  0.286600  0.749600  1
  N  N1718  1  0.264000  0.213400  0.249600  1
  N  N1719  1  0.764000  0.713400  0.250400  1
  N  N1720  1  0.736000  0.786600  0.750400  1
  N  N1721  1  0.286800  0.241400  0.652500  1
  N  N1722  1  0.213200  0.258600  0.152500  1
  N  N1723  1  0.713200  0.758600  0.347500  1
  N  N1724  1  0.786800  0.741400  0.847500  1
  N  N1725  1  0.328500  0.226300  0.606500  1
  N  N1726  1  0.171500  0.273700  0.106500  1
  N  N1727  1  0.671500  0.773700  0.393500  1
  N  N1728  1  0.828500  0.726300  0.893500  1
  N  N1729  1  0.850000  0.338200  0.755500  1
  N  N1730  1  0.650000  0.161800  0.255500  1
  N  N1731  1  0.150000  0.661800  0.244500  1
  N  N1732  1  0.350000  0.838200  0.744500  1
  N  N1733  1  0.456300  0.757900  0.653800  1
  N  N1734  1  0.043700  0.742100  0.153800  1
  N  N1735  1  0.543700  0.242100  0.346200  1
  N  N1736  1  0.956300  0.257900  0.846200  1
  N  N1737  1  0.972600  0.267600  0.669500  1
  N  N1738  1  0.527400  0.232400  0.169500  1
  N  N1739  1  0.027400  0.732400  0.330500  1
  N  N1740  1  0.472600  0.767600  0.830500  1
  N  N1741  1  0.212000  0.558600  0.735300  1
  N  N1742  1  0.288000  0.941400  0.235300  1
  N  N1743  1  0.788000  0.441400  0.264700  1
  N  N1744  1  0.712000  0.058600  0.764700  1
  N  N1745  1  0.179000  0.122400  0.756800  1
  N  N1746  1  0.321000  0.377600  0.256800  1
  N  N1747  1  0.821000  0.877600  0.243200  1
  N  N1748  1  0.679000  0.622400  0.743200  1
  N  N1749  1  0.307900  0.288600  0.930700  1
  N  N1750  1  0.192100  0.211400  0.430700  1
  N  N1751  1  0.692100  0.711400  0.069300  1
  N  N1752  1  0.807900  0.788600  0.569300  1
  N  N1753  1  0.624000  0.263000  0.564400  1
  N  N1754  1  0.876000  0.237000  0.064400  1
  N  N1755  1  0.376000  0.737000  0.435600  1
  N  N1756  1  0.124000  0.763000  0.935600  1
  O  O1757  1  0.542200  0.294200  0.902000  1
  O  O1758  1  0.957800  0.205800  0.402000  1
  O  O1759  1  0.457800  0.705800  0.098000  1
  O  O1760  1  0.042200  0.794200  0.598000  1
  O  O1761  1  0.406400  0.361100  0.910500  1
  O  O1762  1  0.093600  0.138900  0.410500  1
  O  O1763  1  0.593600  0.638900  0.089500  1
  O  O1764  1  0.906400  0.861100  0.589500  1
  O  O1765  1  0.557600  0.338900  0.756500  1
  O  O1766  1  0.942400  0.161100  0.256500  1
  O  O1767  1  0.442400  0.661100  0.243500  1
  O  O1768  1  0.057600  0.838900  0.743500  1
  O  O1769  1  0.369400  0.343600  0.761800  1
  O  O1770  1  0.130600  0.156400  0.261800  1
  O  O1771  1  0.630600  0.656400  0.238200  1
  O  O1772  1  0.869400  0.843600  0.738200  1
  O  O1773  1  0.522800  0.370500  0.608700  1
  O  O1774  1  0.977200  0.129500  0.108700  1
  O  O1775  1  0.477200  0.629500  0.391300  1
  O  O1776  1  0.022800  0.870500  0.891300  1
  O  O1777  1  0.372500  0.311600  0.616700  1
  O  O1778  1  0.127500  0.188400  0.116700  1
  O  O1779  1  0.627500  0.688400  0.383300  1
  O  O1780  1  0.872500  0.811600  0.883300  1
  O  O1781  1  0.528700  0.172800  0.007500  1
  O  O1782  1  0.971300  0.327200  0.507500  1
  O  O1783  1  0.471300  0.827200  0.992500  1
  O  O1784  1  0.028700  0.672800  0.492500  1
  O  O1785  1  0.780400  0.499700  0.508000  1
  O  O1786  1  0.719600  0.000300  0.008000  1
  O  O1787  1  0.219600  0.500300  0.492000  1
  O  O1788  1  0.280400  0.999700  0.992000  1
  O  O1789  1  0.809600  0.154100  0.987900  1
  O  O1790  1  0.690400  0.345900  0.487900  1
  O  O1791  1  0.190400  0.845900  0.012100  1
  O  O1792  1  0.309600  0.654100  0.512100  1
  O  O1793  1  0.404900  0.474100  0.510000  1
  O  O1794  1  0.095100  0.025900  0.010000  1
  O  O1795  1  0.595100  0.525900  0.490000  1
  O  O1796  1  0.904900  0.974100  0.990000  1
  O  O1797  1  0.672700  0.323600  0.021000  1
  O  O1798  1  0.827300  0.176400  0.521000  1
  O  O1799  1  0.327300  0.676400  0.979000  1
  O  O1800  1  0.172700  0.823600  0.479000  1
  O  O1801  1  0.211100  0.355000  0.507900  1
  O  O1802  1  0.288900  0.145000  0.007900  1
  O  O1803  1  0.788900  0.645000  0.492100  1
  O  O1804  1  0.711100  0.855000  0.992100  1
  O  O1805  1  0.542000  0.442100  0.012300  1
  O  O1806  1  0.958000  0.057900  0.512300  1
  O  O1807  1  0.458000  0.557900  0.987700  1
  O  O1808  1  0.042000  0.942100  0.487700  1
  O  O1809  1  0.070800  0.193300  0.524100  1
  O  O1810  1  0.429200  0.306700  0.024100  1
  O  O1811  1  0.929200  0.806700  0.475900  1
  O  O1812  1  0.570800  0.693300  0.975900  1
  O  O1813  1  0.173500  0.535700  0.995300  1
  O  O1814  1  0.326500  0.964300  0.495300  1
  O  O1815  1  0.826500  0.464300  0.004700  1
  O  O1816  1  0.673500  0.035700  0.504700  1
  O  O1817  1  0.391600  0.189500  0.510100  1
  O  O1818  1  0.108400  0.310500  0.010100  1
  O  O1819  1  0.608400  0.810500  0.489900  1
  O  O1820  1  0.891600  0.689500  0.989900  1
  O  O1821  1  0.476600  0.331100  0.662200  1
  O  O1822  1  0.023400  0.168900  0.162200  1
  O  O1823  1  0.523400  0.668900  0.337800  1
  O  O1824  1  0.976600  0.831100  0.837800  1
  O  O1825  1  0.533500  0.344500  0.701400  1
  O  O1826  1  0.966500  0.155500  0.201400  1
  O  O1827  1  0.466500  0.655500  0.298600  1
  O  O1828  1  0.033500  0.844500  0.798600  1
  O  O1829  1  0.382900  0.327800  0.695400  1
  O  O1830  1  0.117100  0.172200  0.195400  1
  O  O1831  1  0.617100  0.672200  0.304600  1
  O  O1832  1  0.882900  0.827800  0.804600  1
  O  O1833  1  0.401300  0.345000  0.813700  1
  O  O1834  1  0.098700  0.155000  0.313700  1
  O  O1835  1  0.598700  0.655000  0.186300  1
  O  O1836  1  0.901300  0.845000  0.686300  1
  O  O1837  1  0.542900  0.322600  0.822200  1
  O  O1838  1  0.957100  0.177400  0.322200  1
  O  O1839  1  0.457100  0.677400  0.177800  1
  O  O1840  1  0.042900  0.822600  0.677800  1
  O  O1841  1  0.435000  0.324500  0.853600  1
  O  O1842  1  0.065000  0.175500  0.353600  1
  O  O1843  1  0.565000  0.675500  0.146400  1
  O  O1844  1  0.935000  0.824500  0.646400  1
  O  O1845  1  0.462400  0.797000  0.690900  1
  O  O1846  1  0.037600  0.703000  0.190900  1
  O  O1847  1  0.537600  0.203000  0.309100  1
  O  O1848  1  0.962400  0.297000  0.809100  1
  O  O1849  1  0.321500  0.781000  0.674900  1
  O  O1850  1  0.178500  0.719000  0.174900  1
  O  O1851  1  0.678500  0.219000  0.325100  1
  O  O1852  1  0.821500  0.281000  0.825100  1
  O  O1853  1  0.430600  0.758700  0.610800  1
  O  O1854  1  0.069400  0.741300  0.110800  1
  O  O1855  1  0.569400  0.241300  0.389200  1
  O  O1856  1  0.930600  0.258700  0.889200  1
  O  O1857  1  0.326400  0.720700  0.635900  1
  O  O1858  1  0.173600  0.779300  0.135900  1
  O  O1859  1  0.673600  0.279300  0.364100  1
  O  O1860  1  0.826400  0.220700  0.864100  1
  O  O1861  1  0.092800  0.288800  0.696200  1
  O  O1862  1  0.407200  0.211200  0.196200  1
  O  O1863  1  0.907200  0.711200  0.303800  1
  O  O1864  1  0.592800  0.788800  0.803800  1
  O  O1865  1  0.944100  0.302000  0.708200  1
  O  O1866  1  0.555900  0.198000  0.208200  1
  O  O1867  1  0.055900  0.698000  0.291800  1
  O  O1868  1  0.444100  0.802000  0.791800  1
  O  O1869  1  0.100700  0.236000  0.648600  1
  O  O1870  1  0.399300  0.264000  0.148600  1
  O  O1871  1  0.899300  0.764000  0.351400  1
  O  O1872  1  0.600700  0.736000  0.851400  1
  O  O1873  1  0.996300  0.272500  0.625000  1
  O  O1874  1  0.503700  0.227500  0.125000  1
  O  O1875  1  0.003700  0.727500  0.375000  1
  O  O1876  1  0.496300  0.772500  0.875000  1
  O  O1877  1  0.148000  0.620400  0.751000  1
  O  O1878  1  0.352000  0.879600  0.251000  1
  O  O1879  1  0.852000  0.379600  0.249000  1
  O  O1880  1  0.648000  0.120400  0.749000  1
  O  O1881  1  0.156000  0.560600  0.777300  1
  O  O1882  1  0.344000  0.939400  0.277300  1
  O  O1883  1  0.844000  0.439400  0.222700  1
  O  O1884  1  0.656000  0.060600  0.722700  1
  O  O1885  1  0.220000  0.543300  0.692100  1
  O  O1886  1  0.280000  0.956700  0.192100  1
  O  O1887  1  0.780000  0.456700  0.307900  1
  O  O1888  1  0.720000  0.043300  0.807900  1
  O  O1889  1  0.194000  0.612000  0.704000  1
  O  O1890  1  0.306000  0.888000  0.204000  1
  O  O1891  1  0.806000  0.388000  0.296000  1
  O  O1892  1  0.694000  0.112000  0.796000  1
  O  O1893  1  0.141000  0.146200  0.798500  1
  O  O1894  1  0.359000  0.353800  0.298500  1
  O  O1895  1  0.859000  0.853800  0.201500  1
  O  O1896  1  0.641000  0.646200  0.701500  1
  O  O1897  1  0.145000  0.073700  0.789300  1
  O  O1898  1  0.355000  0.426300  0.289300  1
  O  O1899  1  0.855000  0.926300  0.210700  1
  O  O1900  1  0.645000  0.573700  0.710700  1
  O  O1901  1  0.211000  0.107500  0.713700  1
  O  O1902  1  0.289000  0.392500  0.213700  1
  O  O1903  1  0.789000  0.892500  0.286300  1
  O  O1904  1  0.711000  0.607500  0.786300  1
  O  O1905  1  0.149000  0.055800  0.740300  1
  O  O1906  1  0.351000  0.444200  0.240300  1
  O  O1907  1  0.851000  0.944200  0.259700  1
  O  O1908  1  0.649000  0.555800  0.759700  1
  O  O1909  1  0.393000  0.248700  0.903800  1
  O  O1910  1  0.107000  0.251300  0.403800  1
  O  O1911  1  0.607000  0.751300  0.096200  1
  O  O1912  1  0.893000  0.748700  0.596200  1
  O  O1913  1  0.333000  0.214800  0.939800  1
  O  O1914  1  0.167000  0.285200  0.439800  1
  O  O1915  1  0.667000  0.785200  0.060200  1
  O  O1916  1  0.833000  0.714800  0.560200  1
  O  O1917  1  0.180400  0.273500  0.959400  1
  O  O1918  1  0.319600  0.226500  0.459400  1
  O  O1919  1  0.819600  0.726500  0.040600  1
  O  O1920  1  0.680400  0.773500  0.540600  1
  O  O1921  1  0.232000  0.341600  0.951900  1
  O  O1922  1  0.268000  0.158400  0.451900  1
  O  O1923  1  0.768000  0.658400  0.048100  1
  O  O1924  1  0.732000  0.841600  0.548100  1
  O  O1925  1  0.553300  0.281600  0.605700  1
  O  O1926  1  0.946700  0.218400  0.105700  1
  O  O1927  1  0.446700  0.718400  0.394300  1
  O  O1928  1  0.053300  0.781600  0.894300  1
  O  O1929  1  0.561000  0.212900  0.589500  1
  O  O1930  1  0.939000  0.287100  0.089500  1
  O  O1931  1  0.439000  0.787100  0.410500  1
  O  O1932  1  0.061000  0.712900  0.910500  1
  O  O1933  1  0.660000  0.334500  0.575900  1
  O  O1934  1  0.840000  0.165500  0.075900  1
  O  O1935  1  0.340000  0.665500  0.424100  1
  O  O1936  1  0.160000  0.834500  0.924100  1
  O  O1937  1  0.732300  0.301700  0.541700  1
  O  O1938  1  0.767700  0.198300  0.041700  1
  O  O1939  1  0.267700  0.698300  0.458300  1
  O  O1940  1  0.232300  0.801700  0.958300  1
  F  F1941  1  0.380400  0.737300  0.719900  1
  F  F1942  1  0.119600  0.762700  0.219900  1
  F  F1943  1  0.619600  0.262700  0.280100  1
  F  F1944  1  0.880400  0.237300  0.780100  1
  F  F1945  1  0.483500  0.713300  0.699800  1
  F  F1946  1  0.016500  0.786700  0.199800  1
  F  F1947  1  0.516500  0.286700  0.300200  1
  F  F1948  1  0.983500  0.213300  0.800200  1
  F  F1949  1  0.355100  0.699500  0.689600  1
  F  F1950  1  0.144900  0.800500  0.189600  1
  F  F1951  1  0.644900  0.300500  0.310400  1
  F  F1952  1  0.855100  0.199500  0.810400  1
  F  F1953  1  0.459400  0.668400  0.648600  1
  F  F1954  1  0.040600  0.831600  0.148600  1
  F  F1955  1  0.540600  0.331600  0.351400  1
  F  F1956  1  0.959400  0.168400  0.851400  1
  F  F1957  1  0.448700  0.670200  0.608800  1
  F  F1958  1  0.051300  0.829800  0.108800  1
  F  F1959  1  0.551300  0.329800  0.391200  1
  F  F1960  1  0.948700  0.170200  0.891200  1
  F  F1961  1  0.551800  0.698800  0.627700  1
  F  F1962  1  0.948200  0.801200  0.127700  1
  F  F1963  1  0.448200  0.301200  0.372300  1
  F  F1964  1  0.051800  0.198800  0.872300  1
  F  F1965  1  0.049700  0.207600  0.701800  1
  F  F1966  1  0.450300  0.292400  0.201800  1
  F  F1967  1  0.950300  0.792400  0.298200  1
  F  F1968  1  0.549700  0.707600  0.798200  1
  F  F1969  1  0.020400  0.239000  0.736900  1
  F  F1970  1  0.479600  0.261000  0.236900  1
  F  F1971  1  0.979600  0.761000  0.263100  1
  F  F1972  1  0.520400  0.739000  0.763100  1
  F  F1973  1  0.922400  0.216700  0.714400  1
  F  F1974  1  0.577600  0.283300  0.214400  1
  F  F1975  1  0.077600  0.783300  0.285600  1
  F  F1976  1  0.422400  0.716700  0.785600  1
  F  F1977  1  0.871100  0.215800  0.636800  1
  F  F1978  1  0.628900  0.284200  0.136800  1
  F  F1979  1  0.128900  0.784200  0.363200  1
  F  F1980  1  0.371100  0.715800  0.863200  1
  F  F1981  1  0.970800  0.190800  0.616700  1
  F  F1982  1  0.529200  0.309200  0.116700  1
  F  F1983  1  0.029200  0.809200  0.383300  1
  F  F1984  1  0.470800  0.690800  0.883300  1
  F  F1985  1  0.953900  0.177400  0.654800  1
  F  F1986  1  0.546100  0.322600  0.154800  1
  F  F1987  1  0.046100  0.822600  0.345200  1
  F  F1988  1  0.453900  0.677400  0.845200  1
  F  F1989  1  0.287000  0.605100  0.795400  1
  F  F1990  1  0.213000  0.894900  0.295400  1
  F  F1991  1  0.713000  0.394900  0.204600  1
  F  F1992  1  0.787000  0.105100  0.704600  1
  F  F1993  1  0.325000  0.633800  0.763200  1
  F  F1994  1  0.175000  0.866200  0.263200  1
  F  F1995  1  0.675000  0.366200  0.236800  1
  F  F1996  1  0.825000  0.133800  0.736800  1
  F  F1997  1  0.345000  0.571400  0.766300  1
  F  F1998  1  0.155000  0.928600  0.266300  1
  F  F1999  1  0.655000  0.428600  0.233700  1
  F  F2000  1  0.845000  0.071400  0.733700  1
  F  F2001  1  0.026000  0.588200  0.718400  1
  F  F2002  1  0.474000  0.911800  0.218400  1
  F  F2003  1  0.974000  0.411800  0.281600  1
  F  F2004  1  0.526000  0.088200  0.781600  1
  F  F2005  1  0.045000  0.527600  0.708000  1
  F  F2006  1  0.455000  0.972400  0.208000  1
  F  F2007  1  0.955000  0.472400  0.292000  1
  F  F2008  1  0.545000  0.027600  0.792000  1
  F  F2009  1  0.050000  0.573400  0.681000  1
  F  F2010  1  0.450000  0.926600  0.181000  1
  F  F2011  1  0.950000  0.426600  0.319000  1
  F  F2012  1  0.550000  0.073400  0.819000  1
  F  F2013  1  0.999000  0.083600  0.762000  1
  F  F2014  1  0.501000  0.416400  0.262000  1
  F  F2015  1  0.001000  0.916400  0.238000  1
  F  F2016  1  0.499000  0.583600  0.738000  1
  F  F2017  1  0.995000  0.146700  0.766000  1
  F  F2018  1  0.505000  0.353300  0.266000  1
  F  F2019  1  0.005000  0.853300  0.234000  1
  F  F2020  1  0.495000  0.646700  0.734000  1
  F  F2021  1  0.974000  0.111000  0.797000  1
  F  F2022  1  0.526000  0.389000  0.297000  1
  F  F2023  1  0.026000  0.889000  0.203000  1
  F  F2024  1  0.474000  0.611000  0.703000  1
  F  F2025  1  0.312000  0.058300  0.766700  1
  F  F2026  1  0.188000  0.441700  0.266700  1
  F  F2027  1  0.688000  0.941700  0.233300  1
  F  F2028  1  0.812000  0.558300  0.733300  1
  F  F2029  1  0.364000  0.101100  0.743900  1
  F  F2030  1  0.136000  0.398900  0.243900  1
  F  F2031  1  0.636000  0.898900  0.256100  1
  F  F2032  1  0.864000  0.601100  0.756100  1
  F  F2033  1  0.338000  0.044200  0.729100  1
  F  F2034  1  0.162000  0.455800  0.229100  1
  F  F2035  1  0.662000  0.955800  0.270900  1
  F  F2036  1  0.838000  0.544200  0.770900  1
  F  F2037  1  0.239000  0.191200  0.896000  1
  F  F2038  1  0.261000  0.308800  0.396000  1
  F  F2039  1  0.761000  0.808800  0.104000  1
  F  F2040  1  0.739000  0.691200  0.604000  1
  F  F2041  1  0.164500  0.233300  0.914300  1
  F  F2042  1  0.335500  0.266700  0.414300  1
  F  F2043  1  0.835500  0.766700  0.085700  1
  F  F2044  1  0.664500  0.733300  0.585700  1
  F  F2045  1  0.238400  0.250200  0.882700  1
  F  F2046  1  0.261600  0.249800  0.382700  1
  F  F2047  1  0.761600  0.749800  0.117300  1
  F  F2048  1  0.738400  0.750200  0.617300  1
  F  F2049  1  0.382000  0.324300  0.974700  1
  F  F2050  1  0.118000  0.175700  0.474700  1
  F  F2051  1  0.618000  0.675700  0.025300  1
  F  F2052  1  0.882000  0.824300  0.525300  1
  F  F2053  1  0.279000  0.311600  0.998900  1
  F  F2054  1  0.221000  0.188400  0.498900  1
  F  F2055  1  0.721000  0.688400  0.001100  1
  F  F2056  1  0.779000  0.811600  0.501100  1
  F  F2057  1  0.354000  0.264500  0.983200  1
  F  F2058  1  0.146000  0.235500  0.483200  1
  F  F2059  1  0.646000  0.735500  0.016800  1
  F  F2060  1  0.854000  0.764500  0.516800  1
  F  F2061  1  0.680100  0.240700  0.631400  1
  F  F2062  1  0.819900  0.259300  0.131400  1
  F  F2063  1  0.319900  0.759300  0.368600  1
  F  F2064  1  0.180100  0.740700  0.868600  1
  F  F2065  1  0.737000  0.213600  0.600300  1
  F  F2066  1  0.763000  0.286400  0.100300  1
  F  F2067  1  0.263000  0.786400  0.399700  1
  F  F2068  1  0.237000  0.713600  0.899700  1
  F  F2069  1  0.744500  0.276400  0.605900  1
  F  F2070  1  0.755500  0.223600  0.105900  1
  F  F2071  1  0.255500  0.723600  0.394100  1
  F  F2072  1  0.244500  0.776400  0.894100  1
  F  F2073  1  0.507000  0.332900  0.547700  1
  F  F2074  1  0.993000  0.167100  0.047700  1
  F  F2075  1  0.493000  0.667100  0.452300  1
  F  F2076  1  0.007000  0.832900  0.952300  1
  F  F2077  1  0.566000  0.299500  0.518400  1
  F  F2078  1  0.934000  0.200500  0.018400  1
  F  F2079  1  0.434000  0.700500  0.481600  1
  F  F2080  1  0.066000  0.799500  0.981600  1
  F  F2081  1  0.602000  0.360100  0.527000  1
  F  F2082  1  0.898000  0.139900  0.027000  1
  F  F2083  1  0.398000  0.639900  0.473000  1
  F  F2084  1  0.102000  0.860100  0.973000  1
