# generated using pymatgen
data_Zn9Re8H166C199S2N32O47F6
_symmetry_space_group_name_H-M   'P 1'
_cell_length_a   22.23300000
_cell_length_b   33.83180000
_cell_length_c   38.48110000
_cell_angle_alpha   115.63600000
_cell_angle_beta   90.00000000
_cell_angle_gamma   90.00000000
_symmetry_Int_Tables_number   1
_chemical_formula_structural   Zn9Re8H166C199S2N32O47F6
_chemical_formula_sum   'Zn36 Re32 H664 C796 S8 N128 O188 F24'
_cell_volume   26095.50468041
_cell_formula_units_Z   4
loop_
 _symmetry_equiv_pos_site_id
 _symmetry_equiv_pos_as_xyz
  1  'x, y, z'
loop_
 _atom_site_type_symbol
 _atom_site_label
 _atom_site_symmetry_multiplicity
 _atom_site_fract_x
 _atom_site_fract_y
 _atom_site_fract_z
 _atom_site_occupancy
  Zn  Zn1  1  0.110600  0.398290  0.142810  1
  Zn  Zn2  1  0.610600  0.101710  0.857190  1
  Zn  Zn3  1  0.889400  0.601710  0.857190  1
  Zn  Zn4  1  0.389400  0.898290  0.142810  1
  Zn  Zn5  1  0.982420  0.339390  0.085420  1
  Zn  Zn6  1  0.482420  0.160610  0.914580  1
  Zn  Zn7  1  0.017580  0.660610  0.914580  1
  Zn  Zn8  1  0.517580  0.839390  0.085420  1
  Zn  Zn9  1  0.909800  0.243430  0.020350  1
  Zn  Zn10  1  0.409800  0.256570  0.979650  1
  Zn  Zn11  1  0.090200  0.756570  0.979650  1
  Zn  Zn12  1  0.590200  0.743430  0.020350  1
  Zn  Zn13  1  0.012810  0.349990  0.325740  1
  Zn  Zn14  1  0.512810  0.150010  0.674260  1
  Zn  Zn15  1  0.987190  0.650010  0.674260  1
  Zn  Zn16  1  0.487190  0.849990  0.325740  1
  Zn  Zn17  1  0.982940  0.249680  0.247330  1
  Zn  Zn18  1  0.482940  0.250320  0.752670  1
  Zn  Zn19  1  0.017060  0.750320  0.752670  1
  Zn  Zn20  1  0.517060  0.749680  0.247330  1
  Zn  Zn21  1  0.023460  0.152000  0.169140  1
  Zn  Zn22  1  0.523460  0.348000  0.830860  1
  Zn  Zn23  1  0.976540  0.848000  0.830860  1
  Zn  Zn24  1  0.476540  0.652000  0.169140  1
  Zn  Zn25  1  0.936470  0.251120  0.475840  1
  Zn  Zn26  1  0.436470  0.248880  0.524160  1
  Zn  Zn27  1  0.063530  0.748880  0.524160  1
  Zn  Zn28  1  0.563530  0.751120  0.475840  1
  Zn  Zn29  1  0.017280  0.161090  0.408730  1
  Zn  Zn30  1  0.517280  0.338910  0.591270  1
  Zn  Zn31  1  0.982720  0.838910  0.591270  1
  Zn  Zn32  1  0.482720  0.661090  0.408730  1
  Zn  Zn33  1  0.146310  0.108620  0.349840  1
  Zn  Zn34  1  0.646310  0.391380  0.650160  1
  Zn  Zn35  1  0.853690  0.891380  0.650160  1
  Zn  Zn36  1  0.353690  0.608620  0.349840  1
  Re  Re37  1  0.076480  0.269780  0.150040  1
  Re  Re38  1  0.576480  0.230220  0.849960  1
  Re  Re39  1  0.923520  0.730220  0.849960  1
  Re  Re40  1  0.423520  0.769780  0.150040  1
  Re  Re41  1  0.092290  0.236650  0.342620  1
  Re  Re42  1  0.592290  0.263350  0.657380  1
  Re  Re43  1  0.907710  0.763350  0.657380  1
  Re  Re44  1  0.407710  0.736650  0.342620  1
  Re  Re45  1  0.159610  0.286930  0.504120  1
  Re  Re46  1  0.659610  0.213070  0.495880  1
  Re  Re47  1  0.840390  0.713070  0.495880  1
  Re  Re48  1  0.340390  0.786930  0.504120  1
  Re  Re49  1  0.125200  0.211800  0.973600  1
  Re  Re50  1  0.625200  0.288200  0.026400  1
  Re  Re51  1  0.874800  0.788200  0.026400  1
  Re  Re52  1  0.374800  0.711800  0.973600  1
  Re  Re53  1  0.089000  0.246900  0.554900  1
  Re  Re54  1  0.589000  0.253100  0.445100  1
  Re  Re55  1  0.911000  0.753100  0.445100  1
  Re  Re56  1  0.411000  0.746900  0.554900  1
  Re  Re57  1  0.126700  0.230900  0.987700  1
  Re  Re58  1  0.626700  0.269100  0.012300  1
  Re  Re59  1  0.873300  0.769100  0.012300  1
  Re  Re60  1  0.373300  0.730900  0.987700  1
  Re  Re61  1  0.151300  0.232500  0.017100  1
  Re  Re62  1  0.651300  0.267500  0.982900  1
  Re  Re63  1  0.848700  0.767500  0.982900  1
  Re  Re64  1  0.348700  0.732500  0.017100  1
  Re  Re65  1  0.171100  0.273900  0.485500  1
  Re  Re66  1  0.671100  0.226100  0.514500  1
  Re  Re67  1  0.828900  0.726100  0.514500  1
  Re  Re68  1  0.328900  0.773900  0.485500  1
  H  H69  1  0.918100  0.211400  0.898000  1
  H  H70  1  0.418100  0.288600  0.102000  1
  H  H71  1  0.081900  0.788600  0.102000  1
  H  H72  1  0.581900  0.711400  0.898000  1
  H  H73  1  0.856800  0.237500  0.863000  1
  H  H74  1  0.356800  0.262500  0.137000  1
  H  H75  1  0.143200  0.762500  0.137000  1
  H  H76  1  0.643200  0.737500  0.863000  1
  H  H77  1  0.717400  0.248200  0.934400  1
  H  H78  1  0.217400  0.251800  0.065600  1
  H  H79  1  0.282600  0.751800  0.065600  1
  H  H80  1  0.782600  0.748200  0.934400  1
  H  H81  1  0.778700  0.222100  0.969400  1
  H  H82  1  0.278700  0.277900  0.030600  1
  H  H83  1  0.221300  0.777900  0.030600  1
  H  H84  1  0.721300  0.722100  0.969400  1
  H  H85  1  0.734000  0.278700  0.835200  1
  H  H86  1  0.234000  0.221300  0.164800  1
  H  H87  1  0.266000  0.721300  0.164800  1
  H  H88  1  0.766000  0.778700  0.835200  1
  H  H89  1  0.799500  0.285600  0.854200  1
  H  H90  1  0.299500  0.214400  0.145800  1
  H  H91  1  0.200500  0.714400  0.145800  1
  H  H92  1  0.700500  0.785600  0.854200  1
  H  H93  1  0.776100  0.237200  0.826900  1
  H  H94  1  0.276100  0.262800  0.173100  1
  H  H95  1  0.223900  0.762800  0.173100  1
  H  H96  1  0.723900  0.737200  0.826900  1
  H  H97  1  0.926200  0.151200  0.921100  1
  H  H98  1  0.426200  0.348800  0.078900  1
  H  H99  1  0.073800  0.848800  0.078900  1
  H  H100  1  0.573800  0.651200  0.921100  1
  H  H101  1  0.003400  0.101300  0.932100  1
  H  H102  1  0.503400  0.398700  0.067900  1
  H  H103  1  0.996600  0.898700  0.067900  1
  H  H104  1  0.496600  0.601300  0.932100  1
  H  H105  1  0.060200  0.086100  0.975700  1
  H  H106  1  0.560200  0.413900  0.024300  1
  H  H107  1  0.939800  0.913900  0.024300  1
  H  H108  1  0.439800  0.586100  0.975700  1
  H  H109  1  0.005000  0.201400  0.059300  1
  H  H110  1  0.505000  0.298600  0.940700  1
  H  H111  1  0.995000  0.798600  0.940700  1
  H  H112  1  0.495000  0.701400  0.059300  1
  H  H113  1  0.996400  0.145300  0.087800  1
  H  H114  1  0.496400  0.354700  0.912200  1
  H  H115  1  0.003600  0.854700  0.912200  1
  H  H116  1  0.503600  0.645300  0.087800  1
  H  H117  1  0.151300  0.116100  0.028000  1
  H  H118  1  0.651300  0.383900  0.972000  1
  H  H119  1  0.848700  0.883900  0.972000  1
  H  H120  1  0.348700  0.616100  0.028000  1
  H  H121  1  0.198300  0.113300  0.079900  1
  H  H122  1  0.698300  0.386700  0.920100  1
  H  H123  1  0.801700  0.886700  0.920100  1
  H  H124  1  0.301700  0.613300  0.079900  1
  H  H125  1  0.235700  0.105400  0.129900  1
  H  H126  1  0.735700  0.394600  0.870100  1
  H  H127  1  0.764300  0.894600  0.870100  1
  H  H128  1  0.264300  0.605400  0.129900  1
  H  H129  1  0.273400  0.107400  0.186000  1
  H  H130  1  0.773400  0.392600  0.814000  1
  H  H131  1  0.726600  0.892600  0.814000  1
  H  H132  1  0.226600  0.607400  0.186000  1
  H  H133  1  0.111900  0.153600  0.235400  1
  H  H134  1  0.611900  0.346400  0.764600  1
  H  H135  1  0.888100  0.846400  0.764600  1
  H  H136  1  0.388100  0.653600  0.235400  1
  H  H137  1  0.143400  0.108900  0.268100  1
  H  H138  1  0.643400  0.391100  0.731900  1
  H  H139  1  0.856600  0.891100  0.731900  1
  H  H140  1  0.356600  0.608900  0.268100  1
  H  H141  1  0.299100  0.162000  0.255800  1
  H  H142  1  0.799100  0.338000  0.744200  1
  H  H143  1  0.700900  0.838000  0.744200  1
  H  H144  1  0.200900  0.662000  0.255800  1
  H  H145  1  0.329700  0.167200  0.315400  1
  H  H146  1  0.829700  0.332800  0.684600  1
  H  H147  1  0.670300  0.832800  0.684600  1
  H  H148  1  0.170300  0.667200  0.315400  1
  H  H149  1  0.307100  0.155700  0.373900  1
  H  H150  1  0.807100  0.344300  0.626100  1
  H  H151  1  0.692900  0.844300  0.626100  1
  H  H152  1  0.192900  0.655700  0.373900  1
  H  H153  1  0.334700  0.112100  0.401800  1
  H  H154  1  0.834700  0.387900  0.598200  1
  H  H155  1  0.665300  0.887900  0.598200  1
  H  H156  1  0.165300  0.612100  0.401800  1
  H  H157  1  0.363500  0.113500  0.460800  1
  H  H158  1  0.863500  0.386500  0.539200  1
  H  H159  1  0.636500  0.886500  0.539200  1
  H  H160  1  0.136500  0.613500  0.460800  1
  H  H161  1  0.196100  0.153900  0.503000  1
  H  H162  1  0.696100  0.346100  0.497000  1
  H  H163  1  0.803900  0.846100  0.497000  1
  H  H164  1  0.303900  0.653900  0.503000  1
  H  H165  1  0.167300  0.152400  0.444000  1
  H  H166  1  0.667300  0.347600  0.556000  1
  H  H167  1  0.832700  0.847600  0.556000  1
  H  H168  1  0.332700  0.652400  0.444000  1
  H  H169  1  0.271300  0.132500  0.569400  1
  H  H170  1  0.771300  0.367500  0.430600  1
  H  H171  1  0.728700  0.867500  0.430600  1
  H  H172  1  0.228700  0.632500  0.569400  1
  H  H173  1  0.231500  0.161300  0.554300  1
  H  H174  1  0.731500  0.338700  0.445700  1
  H  H175  1  0.768500  0.838700  0.445700  1
  H  H176  1  0.268500  0.661300  0.554300  1
  H  H177  1  0.226700  0.109000  0.533600  1
  H  H178  1  0.726700  0.391000  0.466400  1
  H  H179  1  0.773300  0.891000  0.466400  1
  H  H180  1  0.273300  0.609000  0.533600  1
  H  H181  1  0.757800  0.353500  0.035900  1
  H  H182  1  0.257800  0.146500  0.964100  1
  H  H183  1  0.242200  0.646500  0.964100  1
  H  H184  1  0.742200  0.853500  0.035900  1
  H  H185  1  0.747000  0.391400  0.997800  1
  H  H186  1  0.247000  0.108600  0.002200  1
  H  H187  1  0.253000  0.608600  0.002200  1
  H  H188  1  0.753000  0.891400  0.997800  1
  H  H189  1  0.901500  0.336700  0.941600  1
  H  H190  1  0.401500  0.163300  0.058400  1
  H  H191  1  0.098500  0.663300  0.058400  1
  H  H192  1  0.598500  0.836700  0.941600  1
  H  H193  1  0.912200  0.298800  0.979700  1
  H  H194  1  0.412200  0.201200  0.020300  1
  H  H195  1  0.087800  0.701200  0.020300  1
  H  H196  1  0.587800  0.798800  0.979700  1
  H  H197  1  0.835900  0.390500  0.894800  1
  H  H198  1  0.335900  0.109500  0.105200  1
  H  H199  1  0.164100  0.609500  0.105200  1
  H  H200  1  0.664100  0.890500  0.894800  1
  H  H201  1  0.866700  0.351700  0.901700  1
  H  H202  1  0.366700  0.148300  0.098300  1
  H  H203  1  0.133300  0.648300  0.098300  1
  H  H204  1  0.633300  0.851700  0.901700  1
  H  H205  1  0.891400  0.400800  0.923900  1
  H  H206  1  0.391400  0.099200  0.076100  1
  H  H207  1  0.108600  0.599200  0.076100  1
  H  H208  1  0.608600  0.900800  0.923900  1
  H  H209  1  0.766700  0.313000  0.059900  1
  H  H210  1  0.266700  0.187000  0.940100  1
  H  H211  1  0.233300  0.687000  0.940100  1
  H  H212  1  0.733300  0.813000  0.059900  1
  H  H213  1  0.733300  0.282000  0.106200  1
  H  H214  1  0.233300  0.218000  0.893800  1
  H  H215  1  0.266700  0.718000  0.893800  1
  H  H216  1  0.766700  0.782000  0.106200  1
  H  H217  1  0.750200  0.236200  0.136600  1
  H  H218  1  0.250200  0.263800  0.863400  1
  H  H219  1  0.249800  0.763800  0.863400  1
  H  H220  1  0.749800  0.736200  0.136600  1
  H  H221  1  0.902600  0.196400  0.074200  1
  H  H222  1  0.402600  0.303600  0.925800  1
  H  H223  1  0.097400  0.803600  0.925800  1
  H  H224  1  0.597400  0.696400  0.074200  1
  H  H225  1  0.938500  0.199200  0.131200  1
  H  H226  1  0.438500  0.300800  0.868800  1
  H  H227  1  0.061500  0.800800  0.868800  1
  H  H228  1  0.561500  0.699200  0.131200  1
  H  H229  1  0.767200  0.166200  0.140000  1
  H  H230  1  0.267200  0.333800  0.860000  1
  H  H231  1  0.232800  0.833800  0.860000  1
  H  H232  1  0.732800  0.666200  0.140000  1
  H  H233  1  0.800600  0.123700  0.169300  1
  H  H234  1  0.300600  0.376300  0.830700  1
  H  H235  1  0.199400  0.876300  0.830700  1
  H  H236  1  0.699400  0.623700  0.169300  1
  H  H237  1  0.837800  0.084600  0.195400  1
  H  H238  1  0.337800  0.415400  0.804600  1
  H  H239  1  0.162200  0.915400  0.804600  1
  H  H240  1  0.662200  0.584600  0.195400  1
  H  H241  1  0.878000  0.059500  0.236000  1
  H  H242  1  0.378000  0.440500  0.764000  1
  H  H243  1  0.122000  0.940500  0.764000  1
  H  H244  1  0.622000  0.559500  0.236000  1
  H  H245  1  0.041200  0.103700  0.221500  1
  H  H246  1  0.541200  0.396300  0.778500  1
  H  H247  1  0.958800  0.896300  0.778500  1
  H  H248  1  0.458800  0.603700  0.221500  1
  H  H249  1  0.044900  0.119400  0.289700  1
  H  H250  1  0.544900  0.380600  0.710300  1
  H  H251  1  0.955100  0.880600  0.710300  1
  H  H252  1  0.455100  0.619400  0.289700  1
  H  H253  1  0.945200  0.009200  0.248800  1
  H  H254  1  0.445200  0.490800  0.751200  1
  H  H255  1  0.054800  0.990800  0.751200  1
  H  H256  1  0.554800  0.509200  0.248800  1
  H  H257  1  0.999200  0.986000  0.288200  1
  H  H258  1  0.499200  0.514000  0.711800  1
  H  H259  1  0.000800  0.014000  0.711800  1
  H  H260  1  0.500800  0.486000  0.288200  1
  H  H261  1  0.082700  0.998600  0.334300  1
  H  H262  1  0.582700  0.501400  0.665700  1
  H  H263  1  0.917300  0.001400  0.665700  1
  H  H264  1  0.417300  0.498600  0.334300  1
  H  H265  1  0.098700  0.017700  0.399300  1
  H  H266  1  0.598700  0.482300  0.600700  1
  H  H267  1  0.901300  0.982300  0.600700  1
  H  H268  1  0.401300  0.517700  0.399300  1
  H  H269  1  0.154200  0.991300  0.436500  1
  H  H270  1  0.654200  0.508700  0.563500  1
  H  H271  1  0.845800  0.008700  0.563500  1
  H  H272  1  0.345800  0.491300  0.436500  1
  H  H273  1  0.308900  0.012500  0.391400  1
  H  H274  1  0.808900  0.487500  0.608600  1
  H  H275  1  0.691100  0.987500  0.608600  1
  H  H276  1  0.191100  0.512500  0.391400  1
  H  H277  1  0.253400  0.039000  0.354300  1
  H  H278  1  0.753400  0.461000  0.645700  1
  H  H279  1  0.746600  0.961000  0.645700  1
  H  H280  1  0.246600  0.539000  0.354300  1
  H  H281  1  0.259400  0.960200  0.478300  1
  H  H282  1  0.759400  0.539800  0.521700  1
  H  H283  1  0.740600  0.039800  0.521700  1
  H  H284  1  0.240600  0.460200  0.478300  1
  H  H285  1  0.210700  0.997100  0.483300  1
  H  H286  1  0.710700  0.502900  0.516700  1
  H  H287  1  0.789300  0.002900  0.516700  1
  H  H288  1  0.289300  0.497100  0.483300  1
  H  H289  1  0.203000  0.948500  0.449700  1
  H  H290  1  0.703000  0.551500  0.550300  1
  H  H291  1  0.797000  0.051500  0.550300  1
  H  H292  1  0.297000  0.448500  0.449700  1
  H  H293  1  0.877000  0.451500  0.068400  1
  H  H294  1  0.377000  0.048500  0.931600  1
  H  H295  1  0.123000  0.548500  0.931600  1
  H  H296  1  0.623000  0.951500  0.068400  1
  H  H297  1  0.897500  0.474500  0.020400  1
  H  H298  1  0.397500  0.025500  0.979600  1
  H  H299  1  0.102500  0.525500  0.979600  1
  H  H300  1  0.602500  0.974500  0.020400  1
  H  H301  1  0.041100  0.392800  0.985800  1
  H  H302  1  0.541100  0.107200  0.014200  1
  H  H303  1  0.958900  0.607200  0.014200  1
  H  H304  1  0.458900  0.892800  0.985800  1
  H  H305  1  0.020600  0.369800  0.033900  1
  H  H306  1  0.520600  0.130200  0.966100  1
  H  H307  1  0.979400  0.630200  0.966100  1
  H  H308  1  0.479400  0.869800  0.033900  1
  H  H309  1  0.066300  0.447700  0.959600  1
  H  H310  1  0.566300  0.052300  0.040400  1
  H  H311  1  0.933700  0.552300  0.040400  1
  H  H312  1  0.433700  0.947700  0.959600  1
  H  H313  1  0.023600  0.446900  0.925800  1
  H  H314  1  0.523600  0.053100  0.074200  1
  H  H315  1  0.976400  0.553100  0.074200  1
  H  H316  1  0.476400  0.946900  0.925800  1
  H  H317  1  0.030100  0.404100  0.933300  1
  H  H318  1  0.530100  0.095900  0.066700  1
  H  H319  1  0.969900  0.595900  0.066700  1
  H  H320  1  0.469900  0.904100  0.933300  1
  H  H321  1  0.863300  0.423100  0.106100  1
  H  H322  1  0.363300  0.076900  0.893900  1
  H  H323  1  0.136700  0.576900  0.893900  1
  H  H324  1  0.636700  0.923100  0.106100  1
  H  H325  1  0.803600  0.412700  0.157000  1
  H  H326  1  0.303600  0.087300  0.843000  1
  H  H327  1  0.196400  0.587300  0.843000  1
  H  H328  1  0.696400  0.912700  0.157000  1
  H  H329  1  0.792200  0.378000  0.197700  1
  H  H330  1  0.292200  0.122000  0.802300  1
  H  H331  1  0.207800  0.622000  0.802300  1
  H  H332  1  0.707800  0.878000  0.197700  1
  H  H333  1  0.938000  0.305200  0.145500  1
  H  H334  1  0.438000  0.194800  0.854500  1
  H  H335  1  0.062000  0.694800  0.854500  1
  H  H336  1  0.562000  0.805200  0.145500  1
  H  H337  1  0.947900  0.303000  0.202200  1
  H  H338  1  0.447900  0.197000  0.797800  1
  H  H339  1  0.052100  0.697000  0.797800  1
  H  H340  1  0.552100  0.803000  0.202200  1
  H  H341  1  0.768000  0.309600  0.203200  1
  H  H342  1  0.268000  0.190400  0.796800  1
  H  H343  1  0.232000  0.690400  0.796800  1
  H  H344  1  0.732000  0.809600  0.203200  1
  H  H345  1  0.764400  0.267200  0.236700  1
  H  H346  1  0.264400  0.232800  0.763300  1
  H  H347  1  0.235600  0.732800  0.763300  1
  H  H348  1  0.735600  0.767200  0.236700  1
  H  H349  1  0.770200  0.219400  0.264100  1
  H  H350  1  0.270200  0.280600  0.735900  1
  H  H351  1  0.229800  0.780600  0.735900  1
  H  H352  1  0.729800  0.719400  0.264100  1
  H  H353  1  0.783800  0.173200  0.291400  1
  H  H354  1  0.283800  0.326800  0.708600  1
  H  H355  1  0.216200  0.826800  0.708600  1
  H  H356  1  0.716200  0.673200  0.291400  1
  H  H357  1  0.962500  0.192600  0.290800  1
  H  H358  1  0.462500  0.307400  0.709200  1
  H  H359  1  0.037500  0.807400  0.709200  1
  H  H360  1  0.537500  0.692600  0.290800  1
  H  H361  1  0.958600  0.194200  0.350600  1
  H  H362  1  0.458600  0.305800  0.649400  1
  H  H363  1  0.041400  0.805800  0.649400  1
  H  H364  1  0.541400  0.694200  0.350600  1
  H  H365  1  0.819500  0.112400  0.301800  1
  H  H366  1  0.319500  0.387600  0.698200  1
  H  H367  1  0.180500  0.887600  0.698200  1
  H  H368  1  0.680500  0.612400  0.301800  1
  H  H369  1  0.842000  0.078000  0.340500  1
  H  H370  1  0.342000  0.422000  0.659500  1
  H  H371  1  0.158000  0.922000  0.659500  1
  H  H372  1  0.658000  0.578000  0.340500  1
  H  H373  1  0.907600  0.071200  0.390900  1
  H  H374  1  0.407600  0.428800  0.609100  1
  H  H375  1  0.092400  0.928800  0.609100  1
  H  H376  1  0.592400  0.571200  0.390900  1
  H  H377  1  0.942600  0.035700  0.417900  1
  H  H378  1  0.442600  0.464300  0.582100  1
  H  H379  1  0.057400  0.964300  0.582100  1
  H  H380  1  0.557400  0.535700  0.417900  1
  H  H381  1  0.980100  0.006500  0.458700  1
  H  H382  1  0.480100  0.493500  0.541300  1
  H  H383  1  0.019900  0.993500  0.541300  1
  H  H384  1  0.519900  0.506500  0.458700  1
  H  H385  1  0.106100  0.102400  0.498700  1
  H  H386  1  0.606100  0.397600  0.501300  1
  H  H387  1  0.893900  0.897600  0.501300  1
  H  H388  1  0.393900  0.602400  0.498700  1
  H  H389  1  0.068600  0.131600  0.457900  1
  H  H390  1  0.568600  0.368400  0.542100  1
  H  H391  1  0.931400  0.868400  0.542100  1
  H  H392  1  0.431400  0.631600  0.457900  1
  H  H393  1  0.146200  0.055600  0.512700  1
  H  H394  1  0.646200  0.444400  0.487300  1
  H  H395  1  0.853800  0.944400  0.487300  1
  H  H396  1  0.353800  0.555600  0.512700  1
  H  H397  1  0.128500  0.033300  0.540400  1
  H  H398  1  0.628500  0.466700  0.459600  1
  H  H399  1  0.871500  0.966700  0.459600  1
  H  H400  1  0.371500  0.533300  0.540400  1
  H  H401  1  0.103900  0.081100  0.549200  1
  H  H402  1  0.603900  0.418900  0.450800  1
  H  H403  1  0.896100  0.918900  0.450800  1
  H  H404  1  0.396100  0.581100  0.549200  1
  H  H405  1  0.033900  0.476900  0.089100  1
  H  H406  1  0.533900  0.023100  0.910900  1
  H  H407  1  0.966100  0.523100  0.910900  1
  H  H408  1  0.466100  0.976900  0.089100  1
  H  H409  1  0.074400  0.494600  0.041500  1
  H  H410  1  0.574400  0.005400  0.958500  1
  H  H411  1  0.925600  0.505400  0.958500  1
  H  H412  1  0.425600  0.994600  0.041500  1
  H  H413  1  0.242200  0.491900  0.081600  1
  H  H414  1  0.742200  0.008100  0.918400  1
  H  H415  1  0.757800  0.508100  0.918400  1
  H  H416  1  0.257800  0.991900  0.081600  1
  H  H417  1  0.201700  0.474200  0.129200  1
  H  H418  1  0.701700  0.025800  0.870800  1
  H  H419  1  0.798300  0.525800  0.870800  1
  H  H420  1  0.298300  0.974200  0.129200  1
  H  H421  1  0.263500  0.515900  0.010000  1
  H  H422  1  0.763500  0.984100  0.990000  1
  H  H423  1  0.736500  0.484100  0.990000  1
  H  H424  1  0.236500  0.015900  0.010000  1
  H  H425  1  0.263800  0.529600  0.055400  1
  H  H426  1  0.763800  0.970400  0.944600  1
  H  H427  1  0.736200  0.470400  0.944600  1
  H  H428  1  0.236200  0.029600  0.055400  1
  H  H429  1  0.266200  0.479000  0.025400  1
  H  H430  1  0.766200  0.021000  0.974600  1
  H  H431  1  0.733800  0.521000  0.974600  1
  H  H432  1  0.233800  0.979000  0.025400  1
  H  H433  1  0.032000  0.503100  0.157700  1
  H  H434  1  0.532000  0.996900  0.842300  1
  H  H435  1  0.968000  0.496900  0.842300  1
  H  H436  1  0.468000  0.003100  0.157700  1
  H  H437  1  0.949100  0.510200  0.204200  1
  H  H438  1  0.449100  0.989800  0.795800  1
  H  H439  1  0.050900  0.489800  0.795800  1
  H  H440  1  0.550900  0.010200  0.204200  1
  H  H441  1  0.906300  0.487500  0.247400  1
  H  H442  1  0.406300  0.012500  0.752600  1
  H  H443  1  0.093700  0.512500  0.752600  1
  H  H444  1  0.593700  0.987500  0.247400  1
  H  H445  1  0.014800  0.382900  0.204900  1
  H  H446  1  0.514800  0.117100  0.795100  1
  H  H447  1  0.985200  0.617100  0.795100  1
  H  H448  1  0.485200  0.882900  0.204900  1
  H  H449  1  0.015600  0.397200  0.271200  1
  H  H450  1  0.515600  0.102800  0.728800  1
  H  H451  1  0.984400  0.602800  0.728800  1
  H  H452  1  0.484400  0.897200  0.271200  1
  H  H453  1  0.847600  0.434300  0.260900  1
  H  H454  1  0.347600  0.065700  0.739100  1
  H  H455  1  0.152400  0.565700  0.739100  1
  H  H456  1  0.652400  0.934300  0.260900  1
  H  H457  1  0.815300  0.403000  0.300400  1
  H  H458  1  0.315300  0.097000  0.699600  1
  H  H459  1  0.184700  0.597000  0.699600  1
  H  H460  1  0.684700  0.903000  0.300400  1
  H  H461  1  0.787700  0.361200  0.327500  1
  H  H462  1  0.287700  0.138800  0.672500  1
  H  H463  1  0.212300  0.638800  0.672500  1
  H  H464  1  0.712300  0.861200  0.327500  1
  H  H465  1  0.764600  0.320300  0.359700  1
  H  H466  1  0.264600  0.179700  0.640300  1
  H  H467  1  0.235400  0.679700  0.640300  1
  H  H468  1  0.735400  0.820300  0.359700  1
  H  H469  1  0.942200  0.295800  0.363600  1
  H  H470  1  0.442200  0.204200  0.636400  1
  H  H471  1  0.057800  0.704200  0.636400  1
  H  H472  1  0.557800  0.795800  0.363600  1
  H  H473  1  0.909800  0.300400  0.423300  1
  H  H474  1  0.409800  0.199600  0.576700  1
  H  H475  1  0.090200  0.699600  0.576700  1
  H  H476  1  0.590200  0.800400  0.423300  1
  H  H477  1  0.760200  0.247700  0.363200  1
  H  H478  1  0.260200  0.252300  0.636800  1
  H  H479  1  0.239800  0.752300  0.636800  1
  H  H480  1  0.739800  0.747700  0.363200  1
  H  H481  1  0.754300  0.203600  0.395000  1
  H  H482  1  0.254300  0.296400  0.605000  1
  H  H483  1  0.245700  0.796400  0.605000  1
  H  H484  1  0.745700  0.703600  0.395000  1
  H  H485  1  0.803100  0.174400  0.439000  1
  H  H486  1  0.303100  0.325600  0.561000  1
  H  H487  1  0.196900  0.825600  0.561000  1
  H  H488  1  0.696900  0.674400  0.439000  1
  H  H489  1  0.803000  0.133700  0.463900  1
  H  H490  1  0.303000  0.366300  0.536100  1
  H  H491  1  0.197000  0.866300  0.536100  1
  H  H492  1  0.697000  0.633700  0.463900  1
  H  H493  1  0.812300  0.087800  0.494800  1
  H  H494  1  0.312300  0.412200  0.505200  1
  H  H495  1  0.187700  0.912200  0.505200  1
  H  H496  1  0.687700  0.587800  0.494800  1
  H  H497  1  0.967600  0.148900  0.544500  1
  H  H498  1  0.467600  0.351100  0.455500  1
  H  H499  1  0.032400  0.851100  0.455500  1
  H  H500  1  0.532400  0.648900  0.544500  1
  H  H501  1  0.958300  0.194800  0.513500  1
  H  H502  1  0.458300  0.305200  0.486500  1
  H  H503  1  0.041700  0.805200  0.486500  1
  H  H504  1  0.541700  0.694800  0.513500  1
  H  H505  1  0.932700  0.078200  0.582000  1
  H  H506  1  0.432700  0.421800  0.418000  1
  H  H507  1  0.067300  0.921800  0.418000  1
  H  H508  1  0.567300  0.578200  0.582000  1
  H  H509  1  0.962100  0.116000  0.573100  1
  H  H510  1  0.462100  0.384000  0.426900  1
  H  H511  1  0.037900  0.884000  0.426900  1
  H  H512  1  0.537900  0.616000  0.573100  1
  H  H513  1  0.974600  0.065600  0.544900  1
  H  H514  1  0.474600  0.434400  0.455100  1
  H  H515  1  0.025400  0.934400  0.455100  1
  H  H516  1  0.525400  0.565600  0.544900  1
  H  H517  1  0.126500  0.365000  0.051800  1
  H  H518  1  0.626500  0.135000  0.948200  1
  H  H519  1  0.873500  0.635000  0.948200  1
  H  H520  1  0.373500  0.865000  0.051800  1
  H  H521  1  0.148900  0.364500  0.992200  1
  H  H522  1  0.648900  0.135500  0.007800  1
  H  H523  1  0.851100  0.635500  0.007800  1
  H  H524  1  0.351100  0.864500  0.992200  1
  H  H525  1  0.323100  0.392300  0.024500  1
  H  H526  1  0.823100  0.107700  0.975500  1
  H  H527  1  0.676900  0.607700  0.975500  1
  H  H528  1  0.176900  0.892300  0.024500  1
  H  H529  1  0.300700  0.392800  0.084100  1
  H  H530  1  0.800700  0.107200  0.915900  1
  H  H531  1  0.699300  0.607200  0.915900  1
  H  H532  1  0.199300  0.892800  0.084100  1
  H  H533  1  0.185200  0.351500  0.938200  1
  H  H534  1  0.685200  0.148500  0.061800  1
  H  H535  1  0.814800  0.648500  0.061800  1
  H  H536  1  0.314800  0.851500  0.938200  1
  H  H537  1  0.228300  0.374700  0.919300  1
  H  H538  1  0.728300  0.125300  0.080700  1
  H  H539  1  0.771700  0.625300  0.080700  1
  H  H540  1  0.271700  0.874700  0.919300  1
  H  H541  1  0.185500  0.403700  0.954600  1
  H  H542  1  0.685500  0.096300  0.045400  1
  H  H543  1  0.814500  0.596300  0.045400  1
  H  H544  1  0.314500  0.903700  0.954600  1
  H  H545  1  0.273400  0.359200  0.118100  1
  H  H546  1  0.773400  0.140800  0.881900  1
  H  H547  1  0.726600  0.640800  0.881900  1
  H  H548  1  0.226600  0.859200  0.118100  1
  H  H549  1  0.303100  0.349300  0.175900  1
  H  H550  1  0.803100  0.150700  0.824100  1
  H  H551  1  0.696900  0.650700  0.824100  1
  H  H552  1  0.196900  0.849300  0.175900  1
  H  H553  1  0.279500  0.355400  0.237000  1
  H  H554  1  0.779500  0.144600  0.763000  1
  H  H555  1  0.720500  0.644600  0.763000  1
  H  H556  1  0.220500  0.855400  0.237000  1
  H  H557  1  0.116800  0.398200  0.225300  1
  H  H558  1  0.616800  0.101800  0.774700  1
  H  H559  1  0.883200  0.601800  0.774700  1
  H  H560  1  0.383200  0.898200  0.225300  1
  H  H561  1  0.094500  0.354700  0.258900  1
  H  H562  1  0.594500  0.145300  0.741100  1
  H  H563  1  0.905500  0.645300  0.741100  1
  H  H564  1  0.405500  0.854700  0.258900  1
  H  H565  1  0.252800  0.409200  0.306200  1
  H  H566  1  0.752800  0.090800  0.693800  1
  H  H567  1  0.747200  0.590800  0.693800  1
  H  H568  1  0.247200  0.909200  0.306200  1
  H  H569  1  0.220600  0.411700  0.364200  1
  H  H570  1  0.720600  0.088300  0.635800  1
  H  H571  1  0.779400  0.588300  0.635800  1
  H  H572  1  0.279400  0.911700  0.364200  1
  H  H573  1  0.186000  0.407300  0.415000  1
  H  H574  1  0.686000  0.092700  0.585000  1
  H  H575  1  0.814000  0.592700  0.585000  1
  H  H576  1  0.314000  0.907300  0.415000  1
  H  H577  1  0.151300  0.395900  0.465500  1
  H  H578  1  0.651300  0.104100  0.534500  1
  H  H579  1  0.848700  0.604100  0.534500  1
  H  H580  1  0.348700  0.895900  0.465500  1
  H  H581  1  0.996100  0.352200  0.406100  1
  H  H582  1  0.496100  0.147800  0.593900  1
  H  H583  1  0.003900  0.647800  0.593900  1
  H  H584  1  0.503900  0.852200  0.406100  1
  H  H585  1  0.016700  0.300000  0.435500  1
  H  H586  1  0.516700  0.200000  0.564500  1
  H  H587  1  0.983300  0.700000  0.564500  1
  H  H588  1  0.483300  0.800000  0.435500  1
  H  H589  1  0.060700  0.418400  0.518800  1
  H  H590  1  0.560700  0.081600  0.481200  1
  H  H591  1  0.939300  0.581600  0.481200  1
  H  H592  1  0.439300  0.918400  0.518800  1
  H  H593  1  0.019700  0.396900  0.563700  1
  H  H594  1  0.519700  0.103100  0.436300  1
  H  H595  1  0.980300  0.603100  0.436300  1
  H  H596  1  0.480300  0.896900  0.563700  1
  H  H597  1  0.954500  0.342300  0.575800  1
  H  H598  1  0.454500  0.157700  0.424200  1
  H  H599  1  0.045500  0.657700  0.424200  1
  H  H600  1  0.545500  0.842300  0.575800  1
  H  H601  1  0.817500  0.259400  0.533400  1
  H  H602  1  0.317500  0.240600  0.466600  1
  H  H603  1  0.182500  0.740600  0.466600  1
  H  H604  1  0.682500  0.759400  0.533400  1
  H  H605  1  0.769500  0.232700  0.573100  1
  H  H606  1  0.269500  0.267300  0.426900  1
  H  H607  1  0.230500  0.767300  0.426900  1
  H  H608  1  0.730500  0.732700  0.573100  1
  H  H609  1  0.917700  0.261000  0.641000  1
  H  H610  1  0.417700  0.239000  0.359000  1
  H  H611  1  0.082300  0.739000  0.359000  1
  H  H612  1  0.582300  0.761000  0.641000  1
  H  H613  1  0.965600  0.287700  0.601300  1
  H  H614  1  0.465600  0.212300  0.398700  1
  H  H615  1  0.034400  0.712300  0.398700  1
  H  H616  1  0.534400  0.787700  0.601300  1
  H  H617  1  0.749400  0.184700  0.633200  1
  H  H618  1  0.249400  0.315300  0.366800  1
  H  H619  1  0.250600  0.815300  0.366800  1
  H  H620  1  0.750600  0.684700  0.633200  1
  H  H621  1  0.729600  0.212300  0.610200  1
  H  H622  1  0.229600  0.287700  0.389800  1
  H  H623  1  0.270400  0.787700  0.389800  1
  H  H624  1  0.770400  0.712300  0.610200  1
  H  H625  1  0.774400  0.171600  0.590600  1
  H  H626  1  0.274400  0.328400  0.409400  1
  H  H627  1  0.225600  0.828400  0.409400  1
  H  H628  1  0.725600  0.671600  0.590600  1
  H  H629  1  0.083600  0.329000  0.088300  1
  H  H630  1  0.583600  0.171000  0.911700  1
  H  H631  1  0.916400  0.671000  0.911700  1
  H  H632  1  0.416400  0.829000  0.088300  1
  H  H633  1  0.006200  0.284500  0.027200  1
  H  H634  1  0.506200  0.215500  0.972800  1
  H  H635  1  0.993800  0.715500  0.972800  1
  H  H636  1  0.493800  0.784500  0.027200  1
  H  H637  1  0.058600  0.273300  0.289100  1
  H  H638  1  0.558600  0.226700  0.710900  1
  H  H639  1  0.941400  0.726700  0.710900  1
  H  H640  1  0.441400  0.773300  0.289100  1
  H  H641  1  0.064300  0.213700  0.217200  1
  H  H642  1  0.564300  0.286300  0.782800  1
  H  H643  1  0.935700  0.786300  0.782800  1
  H  H644  1  0.435700  0.713700  0.217200  1
  H  H645  1  0.034400  0.233600  0.457200  1
  H  H646  1  0.534400  0.266400  0.542800  1
  H  H647  1  0.965600  0.766400  0.542800  1
  H  H648  1  0.465600  0.733600  0.457200  1
  H  H649  1  0.101900  0.175600  0.382400  1
  H  H650  1  0.601900  0.324400  0.617600  1
  H  H651  1  0.898100  0.824400  0.617600  1
  H  H652  1  0.398100  0.675600  0.382400  1
  H  H653  1  0.244800  0.283700  0.306500  1
  H  H654  1  0.744800  0.216300  0.693500  1
  H  H655  1  0.755200  0.716300  0.693500  1
  H  H656  1  0.255200  0.783700  0.306500  1
  H  H657  1  0.277000  0.293400  0.273800  1
  H  H658  1  0.777000  0.206600  0.726200  1
  H  H659  1  0.723000  0.706600  0.726200  1
  H  H660  1  0.223000  0.793400  0.273800  1
  H  H661  1  0.279700  0.245300  0.272000  1
  H  H662  1  0.779700  0.254700  0.728000  1
  H  H663  1  0.720300  0.754700  0.728000  1
  H  H664  1  0.220300  0.745300  0.272000  1
  H  H665  1  0.354300  0.985100  0.450100  1
  H  H666  1  0.854300  0.514900  0.549900  1
  H  H667  1  0.645700  0.014900  0.549900  1
  H  H668  1  0.145700  0.485100  0.450100  1
  H  H669  1  0.340100  0.982000  0.408200  1
  H  H670  1  0.840100  0.518000  0.591800  1
  H  H671  1  0.659900  0.018000  0.591800  1
  H  H672  1  0.159900  0.482000  0.408200  1
  H  H673  1  0.331000  0.027400  0.445600  1
  H  H674  1  0.831000  0.472600  0.554400  1
  H  H675  1  0.669000  0.972600  0.554400  1
  H  H676  1  0.169000  0.527400  0.445600  1
  H  H677  1  0.057100  0.477700  0.085600  1
  H  H678  1  0.557100  0.022300  0.914400  1
  H  H679  1  0.942900  0.522300  0.914400  1
  H  H680  1  0.442900  0.977700  0.085600  1
  H  H681  1  0.115900  0.501400  0.047900  1
  H  H682  1  0.615900  0.998600  0.952100  1
  H  H683  1  0.884100  0.498600  0.952100  1
  H  H684  1  0.384100  0.001400  0.047900  1
  H  H685  1  0.263900  0.499700  0.108700  1
  H  H686  1  0.763900  0.000300  0.891300  1
  H  H687  1  0.736100  0.500300  0.891300  1
  H  H688  1  0.236100  0.999700  0.108700  1
  H  H689  1  0.205100  0.475900  0.146400  1
  H  H690  1  0.705100  0.024100  0.853600  1
  H  H691  1  0.794900  0.524100  0.853600  1
  H  H692  1  0.294900  0.975900  0.146400  1
  H  H693  1  0.257100  0.531100  0.013200  1
  H  H694  1  0.757100  0.968900  0.986800  1
  H  H695  1  0.742900  0.468900  0.986800  1
  H  H696  1  0.242900  0.031100  0.013200  1
  H  H697  1  0.225400  0.484600  0.001700  1
  H  H698  1  0.725400  0.015400  0.998300  1
  H  H699  1  0.774600  0.515400  0.998300  1
  H  H700  1  0.274600  0.984600  0.001700  1
  H  H701  1  0.185800  0.528500  0.017900  1
  H  H702  1  0.685800  0.971500  0.982100  1
  H  H703  1  0.814200  0.471500  0.982100  1
  H  H704  1  0.314200  0.028500  0.017900  1
  H  H705  1  0.799400  0.261700  0.519300  1
  H  H706  1  0.299400  0.238300  0.480700  1
  H  H707  1  0.200600  0.738300  0.480700  1
  H  H708  1  0.700600  0.761700  0.519300  1
  H  H709  1  0.745200  0.235000  0.556700  1
  H  H710  1  0.245200  0.265000  0.443300  1
  H  H711  1  0.254800  0.765000  0.443300  1
  H  H712  1  0.754800  0.735000  0.556700  1
  H  H713  1  0.886800  0.261000  0.629600  1
  H  H714  1  0.386800  0.239000  0.370400  1
  H  H715  1  0.113200  0.739000  0.370400  1
  H  H716  1  0.613200  0.761000  0.629600  1
  H  H717  1  0.941000  0.287800  0.592200  1
  H  H718  1  0.441000  0.212200  0.407800  1
  H  H719  1  0.059000  0.712200  0.407800  1
  H  H720  1  0.559000  0.787800  0.592200  1
  H  H721  1  0.709300  0.195400  0.620100  1
  H  H722  1  0.209300  0.304600  0.379900  1
  H  H723  1  0.290700  0.804600  0.379900  1
  H  H724  1  0.790700  0.695400  0.620100  1
  H  H725  1  0.702100  0.212900  0.587800  1
  H  H726  1  0.202100  0.287100  0.412200  1
  H  H727  1  0.297900  0.787100  0.412200  1
  H  H728  1  0.797900  0.712900  0.587800  1
  H  H729  1  0.748600  0.174200  0.581500  1
  H  H730  1  0.248600  0.325800  0.418500  1
  H  H731  1  0.251400  0.825800  0.418500  1
  H  H732  1  0.751400  0.674200  0.581500  1
  C  C733  1  0.854100  0.214300  0.937000  1
  C  C734  1  0.354100  0.285700  0.063000  1
  C  C735  1  0.145900  0.785700  0.063000  1
  C  C736  1  0.645900  0.714300  0.937000  1
  C  C737  1  0.877300  0.218900  0.905300  1
  C  C738  1  0.377300  0.281100  0.094700  1
  C  C739  1  0.122700  0.781100  0.094700  1
  C  C740  1  0.622700  0.718900  0.905300  1
  C  C741  1  0.840900  0.234400  0.884600  1
  C  C742  1  0.340900  0.265600  0.115400  1
  C  C743  1  0.159100  0.765600  0.115400  1
  C  C744  1  0.659100  0.734400  0.884600  1
  C  C745  1  0.781400  0.245300  0.895400  1
  C  C746  1  0.281400  0.254700  0.104600  1
  C  C747  1  0.218600  0.754700  0.104600  1
  C  C748  1  0.718600  0.745300  0.895400  1
  C  C749  1  0.758100  0.240700  0.927000  1
  C  C750  1  0.258100  0.259300  0.073000  1
  C  C751  1  0.241900  0.759300  0.073000  1
  C  C752  1  0.741900  0.740700  0.927000  1
  C  C753  1  0.794500  0.225200  0.947800  1
  C  C754  1  0.294500  0.274800  0.052200  1
  C  C755  1  0.205500  0.774800  0.052200  1
  C  C756  1  0.705500  0.725200  0.947800  1
  C  C757  1  0.764200  0.266400  0.846300  1
  C  C758  1  0.264200  0.233600  0.153700  1
  C  C759  1  0.235800  0.733600  0.153700  1
  C  C760  1  0.735800  0.766400  0.846300  1
  C  C761  1  0.926100  0.168700  0.948200  1
  C  C762  1  0.426100  0.331300  0.051800  1
  C  C763  1  0.073900  0.831300  0.051800  1
  C  C764  1  0.573900  0.668700  0.948200  1
  C  C765  1  0.964000  0.156500  0.971900  1
  C  C766  1  0.464000  0.343500  0.028100  1
  C  C767  1  0.036000  0.843500  0.028100  1
  C  C768  1  0.536000  0.656500  0.971900  1
  C  C769  1  0.001600  0.120300  0.958900  1
  C  C770  1  0.501600  0.379700  0.041100  1
  C  C771  1  0.998400  0.879700  0.041100  1
  C  C772  1  0.498400  0.620300  0.958900  1
  C  C773  1  0.036100  0.111800  0.984400  1
  C  C774  1  0.536100  0.388200  0.015600  1
  C  C775  1  0.963900  0.888200  0.015600  1
  C  C776  1  0.463900  0.611800  0.984400  1
  C  C777  1  0.035600  0.141400  0.023400  1
  C  C778  1  0.535600  0.358600  0.976600  1
  C  C779  1  0.964400  0.858600  0.976600  1
  C  C780  1  0.464400  0.641400  0.023400  1
  C  C781  1  0.002200  0.179400  0.033500  1
  C  C782  1  0.502200  0.320600  0.966500  1
  C  C783  1  0.997800  0.820600  0.966500  1
  C  C784  1  0.497800  0.679400  0.033500  1
  C  C785  1  0.038100  0.138800  0.085900  1
  C  C786  1  0.538100  0.361200  0.914100  1
  C  C787  1  0.961900  0.861200  0.914100  1
  C  C788  1  0.461900  0.638800  0.085900  1
  C  C789  1  0.067400  0.133600  0.052700  1
  C  C790  1  0.567400  0.366400  0.947300  1
  C  C791  1  0.932600  0.866400  0.947300  1
  C  C792  1  0.432600  0.633600  0.052700  1
  C  C793  1  0.129000  0.122000  0.050800  1
  C  C794  1  0.629000  0.378000  0.949200  1
  C  C795  1  0.871000  0.878000  0.949200  1
  C  C796  1  0.371000  0.622000  0.050800  1
  C  C797  1  0.156400  0.119400  0.081100  1
  C  C798  1  0.656400  0.380600  0.918900  1
  C  C799  1  0.843600  0.880600  0.918900  1
  C  C800  1  0.343600  0.619400  0.081100  1
  C  C801  1  0.124600  0.125500  0.113900  1
  C  C802  1  0.624600  0.374500  0.886100  1
  C  C803  1  0.875400  0.874500  0.886100  1
  C  C804  1  0.375400  0.625500  0.113900  1
  C  C805  1  0.150100  0.125000  0.148500  1
  C  C806  1  0.650100  0.375000  0.851500  1
  C  C807  1  0.849900  0.875000  0.851500  1
  C  C808  1  0.349900  0.625000  0.148500  1
  C  C809  1  0.210300  0.114300  0.151800  1
  C  C810  1  0.710300  0.385700  0.848200  1
  C  C811  1  0.789700  0.885700  0.848200  1
  C  C812  1  0.289700  0.614300  0.151800  1
  C  C813  1  0.233200  0.116200  0.184900  1
  C  C814  1  0.733200  0.383800  0.815100  1
  C  C815  1  0.766800  0.883800  0.815100  1
  C  C816  1  0.266800  0.616200  0.184900  1
  C  C817  1  0.196200  0.131700  0.217800  1
  C  C818  1  0.696200  0.368300  0.782200  1
  C  C819  1  0.803800  0.868300  0.782200  1
  C  C820  1  0.303800  0.631700  0.217800  1
  C  C821  1  0.137100  0.142200  0.213300  1
  C  C822  1  0.637100  0.357800  0.786700  1
  C  C823  1  0.862900  0.857800  0.786700  1
  C  C824  1  0.362900  0.642200  0.213300  1
  C  C825  1  0.181600  0.121200  0.277800  1
  C  C826  1  0.681600  0.378800  0.722200  1
  C  C827  1  0.818400  0.878800  0.722200  1
  C  C828  1  0.318400  0.621200  0.277800  1
  C  C829  1  0.217100  0.135400  0.255000  1
  C  C830  1  0.717100  0.364600  0.745000  1
  C  C831  1  0.782900  0.864600  0.745000  1
  C  C832  1  0.282900  0.635400  0.255000  1
  C  C833  1  0.273000  0.152400  0.270100  1
  C  C834  1  0.773000  0.347600  0.729900  1
  C  C835  1  0.727000  0.847600  0.729900  1
  C  C836  1  0.227000  0.652400  0.270100  1
  C  C837  1  0.291200  0.155500  0.305500  1
  C  C838  1  0.791200  0.344500  0.694500  1
  C  C839  1  0.708800  0.844500  0.694500  1
  C  C840  1  0.208800  0.655500  0.305500  1
  C  C841  1  0.253000  0.141600  0.326800  1
  C  C842  1  0.753000  0.358400  0.673200  1
  C  C843  1  0.747000  0.858400  0.673200  1
  C  C844  1  0.247000  0.641600  0.326800  1
  C  C845  1  0.269000  0.144200  0.363000  1
  C  C846  1  0.769000  0.355800  0.637000  1
  C  C847  1  0.731000  0.855800  0.637000  1
  C  C848  1  0.231000  0.644200  0.363000  1
  C  C849  1  0.248300  0.132200  0.417400  1
  C  C850  1  0.748300  0.367800  0.582600  1
  C  C851  1  0.751700  0.867800  0.582600  1
  C  C852  1  0.251700  0.632200  0.417400  1
  C  C853  1  0.306600  0.120600  0.422400  1
  C  C854  1  0.806600  0.379400  0.577600  1
  C  C855  1  0.693400  0.879400  0.577600  1
  C  C856  1  0.193400  0.620600  0.422400  1
  C  C857  1  0.323600  0.121400  0.457400  1
  C  C858  1  0.823600  0.378600  0.542600  1
  C  C859  1  0.676400  0.878600  0.542600  1
  C  C860  1  0.176400  0.621400  0.457400  1
  C  C861  1  0.282500  0.133800  0.487500  1
  C  C862  1  0.782500  0.366200  0.512500  1
  C  C863  1  0.717500  0.866200  0.512500  1
  C  C864  1  0.217500  0.633800  0.487500  1
  C  C865  1  0.224200  0.145400  0.482500  1
  C  C866  1  0.724200  0.354600  0.517500  1
  C  C867  1  0.775800  0.854600  0.517500  1
  C  C868  1  0.275800  0.645400  0.482500  1
  C  C869  1  0.207100  0.144500  0.447400  1
  C  C870  1  0.707100  0.355500  0.552600  1
  C  C871  1  0.792900  0.855500  0.552600  1
  C  C872  1  0.292900  0.644500  0.447400  1
  C  C873  1  0.254000  0.133900  0.546500  1
  C  C874  1  0.754000  0.366100  0.453500  1
  C  C875  1  0.746000  0.866100  0.453500  1
  C  C876  1  0.246000  0.633900  0.546500  1
  C  C877  1  0.836000  0.322600  0.011400  1
  C  C878  1  0.336000  0.177400  0.988600  1
  C  C879  1  0.164000  0.677400  0.988600  1
  C  C880  1  0.664000  0.822600  0.011400  1
  C  C881  1  0.786900  0.350100  0.016700  1
  C  C882  1  0.286900  0.149900  0.983300  1
  C  C883  1  0.213100  0.649900  0.983300  1
  C  C884  1  0.713100  0.850100  0.016700  1
  C  C885  1  0.780600  0.372600  0.994100  1
  C  C886  1  0.280600  0.127400  0.005900  1
  C  C887  1  0.219400  0.627400  0.005900  1
  C  C888  1  0.719400  0.872600  0.994100  1
  C  C889  1  0.823300  0.367600  0.966100  1
  C  C890  1  0.323300  0.132400  0.033900  1
  C  C891  1  0.176700  0.632400  0.033900  1
  C  C892  1  0.676700  0.867600  0.966100  1
  C  C893  1  0.872300  0.340100  0.960800  1
  C  C894  1  0.372300  0.159900  0.039200  1
  C  C895  1  0.127700  0.659900  0.039200  1
  C  C896  1  0.627700  0.840100  0.960800  1
  C  C897  1  0.878700  0.317600  0.983400  1
  C  C898  1  0.378700  0.182400  0.016600  1
  C  C899  1  0.121300  0.682400  0.016600  1
  C  C900  1  0.621300  0.817600  0.983400  1
  C  C901  1  0.855300  0.382800  0.913900  1
  C  C902  1  0.355300  0.117200  0.086100  1
  C  C903  1  0.144700  0.617200  0.086100  1
  C  C904  1  0.644700  0.882800  0.913900  1
  C  C905  1  0.800600  0.294100  0.054300  1
  C  C906  1  0.300600  0.205900  0.945700  1
  C  C907  1  0.199400  0.705900  0.945700  1
  C  C908  1  0.699400  0.794100  0.054300  1
  C  C909  1  0.807300  0.265700  0.073000  1
  C  C910  1  0.307300  0.234300  0.927000  1
  C  C911  1  0.192700  0.734300  0.927000  1
  C  C912  1  0.692700  0.765700  0.073000  1
  C  C913  1  0.768400  0.264300  0.100000  1
  C  C914  1  0.268400  0.235700  0.900000  1
  C  C915  1  0.231600  0.735700  0.900000  1
  C  C916  1  0.731600  0.764300  0.100000  1
  C  C917  1  0.778700  0.237800  0.118800  1
  C  C918  1  0.278700  0.262200  0.881200  1
  C  C919  1  0.221300  0.762200  0.881200  1
  C  C920  1  0.721300  0.737800  0.118800  1
  C  C921  1  0.831800  0.213700  0.110800  1
  C  C922  1  0.331800  0.286300  0.889200  1
  C  C923  1  0.168200  0.786300  0.889200  1
  C  C924  1  0.668200  0.713700  0.110800  1
  C  C925  1  0.867600  0.214200  0.081100  1
  C  C926  1  0.367600  0.285800  0.918900  1
  C  C927  1  0.132400  0.785800  0.918900  1
  C  C928  1  0.632400  0.714200  0.081100  1
  C  C929  1  0.909900  0.183000  0.138100  1
  C  C930  1  0.409900  0.317000  0.861900  1
  C  C931  1  0.090100  0.817000  0.861900  1
  C  C932  1  0.590100  0.683000  0.138100  1
  C  C933  1  0.850200  0.186100  0.129400  1
  C  C934  1  0.350200  0.313900  0.870600  1
  C  C935  1  0.149800  0.813900  0.870600  1
  C  C936  1  0.649800  0.686100  0.129400  1
  C  C937  1  0.809200  0.163800  0.143300  1
  C  C938  1  0.309200  0.336200  0.856700  1
  C  C939  1  0.190800  0.836200  0.856700  1
  C  C940  1  0.690800  0.663800  0.143300  1
  C  C941  1  0.828400  0.139300  0.161200  1
  C  C942  1  0.328400  0.360700  0.838800  1
  C  C943  1  0.171600  0.860700  0.838800  1
  C  C944  1  0.671600  0.639300  0.161200  1
  C  C945  1  0.890400  0.137600  0.167400  1
  C  C946  1  0.390400  0.362400  0.832600  1
  C  C947  1  0.109600  0.862400  0.832600  1
  C  C948  1  0.609600  0.637600  0.167400  1
  C  C949  1  0.914000  0.113700  0.187600  1
  C  C950  1  0.414000  0.386300  0.812400  1
  C  C951  1  0.086000  0.886300  0.812400  1
  C  C952  1  0.586000  0.613700  0.187600  1
  C  C953  1  0.879100  0.089700  0.202200  1
  C  C954  1  0.379100  0.410300  0.797800  1
  C  C955  1  0.120900  0.910300  0.797800  1
  C  C956  1  0.620900  0.589700  0.202200  1
  C  C957  1  0.903100  0.074200  0.225400  1
  C  C958  1  0.403100  0.425800  0.774600  1
  C  C959  1  0.096900  0.925800  0.774600  1
  C  C960  1  0.596900  0.574200  0.225400  1
  C  C961  1  0.964800  0.078800  0.234700  1
  C  C962  1  0.464800  0.421200  0.765300  1
  C  C963  1  0.035200  0.921200  0.765300  1
  C  C964  1  0.535200  0.578800  0.234700  1
  C  C965  1  0.999000  0.100900  0.217300  1
  C  C966  1  0.499000  0.399100  0.782700  1
  C  C967  1  0.001000  0.899100  0.782700  1
  C  C968  1  0.501000  0.600900  0.217300  1
  C  C969  1  0.037800  0.090900  0.287800  1
  C  C970  1  0.537800  0.409100  0.712200  1
  C  C971  1  0.962200  0.909100  0.712200  1
  C  C972  1  0.462200  0.590900  0.287800  1
  C  C973  1  0.994700  0.065000  0.261500  1
  C  C974  1  0.494700  0.435000  0.738500  1
  C  C975  1  0.005300  0.935000  0.738500  1
  C  C976  1  0.505300  0.565000  0.261500  1
  C  C977  1  0.977900  0.026100  0.263700  1
  C  C978  1  0.477900  0.473900  0.736300  1
  C  C979  1  0.022100  0.973900  0.736300  1
  C  C980  1  0.522100  0.526100  0.263700  1
  C  C981  1  0.009100  0.012900  0.287300  1
  C  C982  1  0.509100  0.487100  0.712700  1
  C  C983  1  0.990900  0.987100  0.712700  1
  C  C984  1  0.490900  0.512900  0.287300  1
  C  C985  1  0.055500  0.039100  0.310100  1
  C  C986  1  0.555500  0.460900  0.689900  1
  C  C987  1  0.944500  0.960900  0.689900  1
  C  C988  1  0.444500  0.539100  0.310100  1
  C  C989  1  0.092100  0.025100  0.332600  1
  C  C990  1  0.592100  0.474900  0.667400  1
  C  C991  1  0.907900  0.974900  0.667400  1
  C  C992  1  0.407900  0.525100  0.332600  1
  C  C993  1  0.170800  0.030900  0.373300  1
  C  C994  1  0.670800  0.469100  0.626700  1
  C  C995  1  0.829200  0.969100  0.626700  1
  C  C996  1  0.329200  0.530900  0.373300  1
  C  C997  1  0.141400  0.016700  0.397700  1
  C  C998  1  0.641400  0.483300  0.602300  1
  C  C999  1  0.858600  0.983300  0.602300  1
  C  C1000  1  0.358600  0.516700  0.397700  1
  C  C1001  1  0.174300  0.000900  0.419800  1
  C  C1002  1  0.674300  0.499100  0.580200  1
  C  C1003  1  0.825700  0.999100  0.580200  1
  C  C1004  1  0.325700  0.500900  0.419800  1
  C  C1005  1  0.236700  0.999400  0.417400  1
  C  C1006  1  0.736700  0.500600  0.582600  1
  C  C1007  1  0.763300  0.000600  0.582600  1
  C  C1008  1  0.263300  0.499400  0.417400  1
  C  C1009  1  0.266200  0.013600  0.393000  1
  C  C1010  1  0.766200  0.486400  0.607000  1
  C  C1011  1  0.733800  0.986400  0.607000  1
  C  C1012  1  0.233800  0.513600  0.393000  1
  C  C1013  1  0.233200  0.029300  0.371000  1
  C  C1014  1  0.733200  0.470700  0.629000  1
  C  C1015  1  0.766800  0.970700  0.629000  1
  C  C1016  1  0.266800  0.529300  0.371000  1
  C  C1017  1  0.232100  0.971300  0.464600  1
  C  C1018  1  0.732100  0.528700  0.535400  1
  C  C1019  1  0.767900  0.028700  0.535400  1
  C  C1020  1  0.267900  0.471300  0.464600  1
  C  C1021  1  0.946900  0.408500  0.055700  1
  C  C1022  1  0.446900  0.091500  0.944300  1
  C  C1023  1  0.053100  0.591500  0.944300  1
  C  C1024  1  0.553100  0.908500  0.055700  1
  C  C1025  1  0.910300  0.439600  0.051700  1
  C  C1026  1  0.410300  0.060400  0.948300  1
  C  C1027  1  0.089700  0.560400  0.948300  1
  C  C1028  1  0.589700  0.939600  0.051700  1
  C  C1029  1  0.922500  0.453300  0.023100  1
  C  C1030  1  0.422500  0.046700  0.976900  1
  C  C1031  1  0.077500  0.546700  0.976900  1
  C  C1032  1  0.577500  0.953300  0.023100  1
  C  C1033  1  0.971300  0.435800  0.998600  1
  C  C1034  1  0.471300  0.064200  0.001400  1
  C  C1035  1  0.028700  0.564200  0.001400  1
  C  C1036  1  0.528700  0.935800  0.998600  1
  C  C1037  1  0.007800  0.404700  0.002600  1
  C  C1038  1  0.507800  0.095300  0.997400  1
  C  C1039  1  0.992200  0.595300  0.997400  1
  C  C1040  1  0.492200  0.904700  0.002600  1
  C  C1041  1  0.995600  0.391100  0.031200  1
  C  C1042  1  0.495600  0.108900  0.968800  1
  C  C1043  1  0.004400  0.608900  0.968800  1
  C  C1044  1  0.504400  0.891100  0.031200  1
  C  C1045  1  0.028700  0.436200  0.945600  1
  C  C1046  1  0.528700  0.063800  0.054400  1
  C  C1047  1  0.971300  0.563800  0.054400  1
  C  C1048  1  0.471300  0.936200  0.945600  1
  C  C1049  1  0.890100  0.400900  0.105500  1
  C  C1050  1  0.390100  0.099100  0.894500  1
  C  C1051  1  0.109900  0.599100  0.894500  1
  C  C1052  1  0.609900  0.900900  0.105500  1
  C  C1053  1  0.878900  0.380300  0.129700  1
  C  C1054  1  0.378900  0.119700  0.870300  1
  C  C1055  1  0.121100  0.619700  0.870300  1
  C  C1056  1  0.621100  0.880300  0.129700  1
  C  C1057  1  0.831400  0.390700  0.155500  1
  C  C1058  1  0.331400  0.109300  0.844500  1
  C  C1059  1  0.168600  0.609300  0.844500  1
  C  C1060  1  0.668600  0.890700  0.155500  1
  C  C1061  1  0.823600  0.369700  0.179100  1
  C  C1062  1  0.323600  0.130300  0.820900  1
  C  C1063  1  0.176400  0.630300  0.820900  1
  C  C1064  1  0.676400  0.869700  0.179100  1
  C  C1065  1  0.863600  0.335500  0.174800  1
  C  C1066  1  0.363600  0.164500  0.825200  1
  C  C1067  1  0.136400  0.664500  0.825200  1
  C  C1068  1  0.636400  0.835500  0.174800  1
  C  C1069  1  0.909800  0.327400  0.148000  1
  C  C1070  1  0.409800  0.172600  0.852000  1
  C  C1071  1  0.090200  0.672600  0.852000  1
  C  C1072  1  0.590200  0.827400  0.148000  1
  C  C1073  1  0.909800  0.296100  0.209300  1
  C  C1074  1  0.409800  0.203900  0.790700  1
  C  C1075  1  0.090200  0.703900  0.790700  1
  C  C1076  1  0.590200  0.796100  0.209300  1
  C  C1077  1  0.859600  0.311500  0.198100  1
  C  C1078  1  0.359600  0.188500  0.801900  1
  C  C1079  1  0.140400  0.688500  0.801900  1
  C  C1080  1  0.640400  0.811500  0.198100  1
  C  C1081  1  0.804600  0.299800  0.209600  1
  C  C1082  1  0.304600  0.200200  0.790400  1
  C  C1083  1  0.195400  0.700200  0.790400  1
  C  C1084  1  0.695400  0.799800  0.209600  1
  C  C1085  1  0.802100  0.274900  0.229600  1
  C  C1086  1  0.302100  0.225100  0.770400  1
  C  C1087  1  0.197900  0.725100  0.770400  1
  C  C1088  1  0.697900  0.774900  0.229600  1
  C  C1089  1  0.855800  0.260900  0.239500  1
  C  C1090  1  0.355800  0.239100  0.760500  1
  C  C1091  1  0.144200  0.739100  0.760500  1
  C  C1092  1  0.644200  0.760900  0.239500  1
  C  C1093  1  0.858400  0.231900  0.258300  1
  C  C1094  1  0.358400  0.268100  0.741700  1
  C  C1095  1  0.141600  0.768100  0.741700  1
  C  C1096  1  0.641600  0.731900  0.258300  1
  C  C1097  1  0.809900  0.213200  0.269400  1
  C  C1098  1  0.309900  0.286800  0.730600  1
  C  C1099  1  0.190100  0.786800  0.730600  1
  C  C1100  1  0.690100  0.713200  0.269400  1
  C  C1101  1  0.817400  0.187500  0.286800  1
  C  C1102  1  0.317400  0.312500  0.713200  1
  C  C1103  1  0.182600  0.812500  0.713200  1
  C  C1104  1  0.682600  0.687500  0.286800  1
  C  C1105  1  0.874200  0.181400  0.298200  1
  C  C1106  1  0.374200  0.318600  0.701800  1
  C  C1107  1  0.125800  0.818600  0.701800  1
  C  C1108  1  0.625800  0.681400  0.298200  1
  C  C1109  1  0.922700  0.198600  0.285500  1
  C  C1110  1  0.422700  0.301400  0.714500  1
  C  C1111  1  0.077300  0.801400  0.714500  1
  C  C1112  1  0.577300  0.698600  0.285500  1
  C  C1113  1  0.934600  0.169800  0.347800  1
  C  C1114  1  0.434600  0.330200  0.652200  1
  C  C1115  1  0.065400  0.830200  0.652200  1
  C  C1116  1  0.565400  0.669800  0.347800  1
  C  C1117  1  0.886300  0.158400  0.321900  1
  C  C1118  1  0.386300  0.341600  0.678100  1
  C  C1119  1  0.113700  0.841600  0.678100  1
  C  C1120  1  0.613700  0.658400  0.321900  1
  C  C1121  1  0.852400  0.122400  0.319200  1
  C  C1122  1  0.352400  0.377600  0.680800  1
  C  C1123  1  0.147600  0.877600  0.680800  1
  C  C1124  1  0.647600  0.622400  0.319200  1
  C  C1125  1  0.866700  0.101400  0.341600  1
  C  C1126  1  0.366700  0.398600  0.658400  1
  C  C1127  1  0.133300  0.898600  0.658400  1
  C  C1128  1  0.633300  0.601400  0.341600  1
  C  C1129  1  0.916200  0.113600  0.365600  1
  C  C1130  1  0.416200  0.386400  0.634400  1
  C  C1131  1  0.083800  0.886400  0.634400  1
  C  C1132  1  0.583800  0.613600  0.365600  1
  C  C1133  1  0.932600  0.093500  0.389800  1
  C  C1134  1  0.432600  0.406500  0.610200  1
  C  C1135  1  0.067400  0.906500  0.610200  1
  C  C1136  1  0.567400  0.593500  0.389800  1
  C  C1137  1  0.002100  0.086400  0.434100  1
  C  C1138  1  0.502100  0.413600  0.565900  1
  C  C1139  1  0.997900  0.913600  0.565900  1
  C  C1140  1  0.497900  0.586400  0.434100  1
  C  C1141  1  0.975800  0.049300  0.434300  1
  C  C1142  1  0.475800  0.450700  0.565700  1
  C  C1143  1  0.024200  0.950700  0.565700  1
  C  C1144  1  0.524200  0.549300  0.434300  1
  C  C1145  1  0.998000  0.031900  0.458500  1
  C  C1146  1  0.498000  0.468100  0.541500  1
  C  C1147  1  0.002000  0.968100  0.541500  1
  C  C1148  1  0.502000  0.531900  0.458500  1
  C  C1149  1  0.046600  0.051700  0.482500  1
  C  C1150  1  0.546600  0.448300  0.517500  1
  C  C1151  1  0.953400  0.948300  0.517500  1
  C  C1152  1  0.453400  0.551700  0.482500  1
  C  C1153  1  0.072900  0.088900  0.482300  1
  C  C1154  1  0.572900  0.411100  0.517700  1
  C  C1155  1  0.927100  0.911100  0.517700  1
  C  C1156  1  0.427100  0.588900  0.482300  1
  C  C1157  1  0.050700  0.106200  0.458100  1
  C  C1158  1  0.550700  0.393800  0.541900  1
  C  C1159  1  0.949300  0.893800  0.541900  1
  C  C1160  1  0.449300  0.606200  0.458100  1
  C  C1161  1  0.114300  0.052300  0.528800  1
  C  C1162  1  0.614300  0.447700  0.471200  1
  C  C1163  1  0.885700  0.947700  0.471200  1
  C  C1164  1  0.385700  0.552300  0.528800  1
  C  C1165  1  0.114000  0.473800  0.113600  1
  C  C1166  1  0.614000  0.026200  0.886400  1
  C  C1167  1  0.886000  0.526200  0.886400  1
  C  C1168  1  0.386000  0.973800  0.113600  1
  C  C1169  1  0.076200  0.479900  0.087600  1
  C  C1170  1  0.576200  0.020100  0.912400  1
  C  C1171  1  0.923800  0.520100  0.912400  1
  C  C1172  1  0.423800  0.979900  0.087600  1
  C  C1173  1  0.100300  0.490400  0.059300  1
  C  C1174  1  0.600300  0.009600  0.940700  1
  C  C1175  1  0.899700  0.509600  0.940700  1
  C  C1176  1  0.399700  0.990400  0.059300  1
  C  C1177  1  0.162100  0.494900  0.057100  1
  C  C1178  1  0.662100  0.005100  0.942900  1
  C  C1179  1  0.837900  0.505100  0.942900  1
  C  C1180  1  0.337900  0.994900  0.057100  1
  C  C1181  1  0.199900  0.488800  0.083100  1
  C  C1182  1  0.699900  0.011200  0.916900  1
  C  C1183  1  0.800100  0.511200  0.916900  1
  C  C1184  1  0.300100  0.988800  0.083100  1
  C  C1185  1  0.175800  0.478300  0.111400  1
  C  C1186  1  0.675800  0.021700  0.888600  1
  C  C1187  1  0.824200  0.521700  0.888600  1
  C  C1188  1  0.324200  0.978300  0.111400  1
  C  C1189  1  0.249800  0.507800  0.030200  1
  C  C1190  1  0.749800  0.992200  0.969800  1
  C  C1191  1  0.750200  0.492200  0.969800  1
  C  C1192  1  0.250200  0.007800  0.030200  1
  C  C1193  1  0.045500  0.477400  0.159600  1
  C  C1194  1  0.545500  0.022600  0.840400  1
  C  C1195  1  0.954500  0.522600  0.840400  1
  C  C1196  1  0.454500  0.977400  0.159600  1
  C  C1197  1  0.012700  0.462400  0.183200  1
  C  C1198  1  0.512700  0.037600  0.816800  1
  C  C1199  1  0.987300  0.537600  0.816800  1
  C  C1200  1  0.487300  0.962400  0.183200  1
  C  C1201  1  0.964400  0.485000  0.206100  1
  C  C1202  1  0.464400  0.015000  0.793900  1
  C  C1203  1  0.035600  0.515000  0.793900  1
  C  C1204  1  0.535600  0.985000  0.206100  1
  C  C1205  1  0.938500  0.471300  0.231300  1
  C  C1206  1  0.438500  0.028700  0.768700  1
  C  C1207  1  0.061500  0.528700  0.768700  1
  C  C1208  1  0.561500  0.971300  0.231300  1
  C  C1209  1  0.959600  0.433800  0.233200  1
  C  C1210  1  0.459600  0.066200  0.766800  1
  C  C1211  1  0.040400  0.566200  0.766800  1
  C  C1212  1  0.540400  0.933800  0.233200  1
  C  C1213  1  0.004200  0.410900  0.206800  1
  C  C1214  1  0.504200  0.089100  0.793200  1
  C  C1215  1  0.995800  0.589100  0.793200  1
  C  C1216  1  0.495800  0.910900  0.206800  1
  C  C1217  1  0.973800  0.398100  0.276800  1
  C  C1218  1  0.473800  0.101900  0.723200  1
  C  C1219  1  0.026200  0.601900  0.723200  1
  C  C1220  1  0.526200  0.898100  0.276800  1
  C  C1221  1  0.936700  0.417700  0.260000  1
  C  C1222  1  0.436700  0.082300  0.740000  1
  C  C1223  1  0.063300  0.582300  0.740000  1
  C  C1224  1  0.563300  0.917700  0.260000  1
  C  C1225  1  0.875600  0.419800  0.270100  1
  C  C1226  1  0.375600  0.080200  0.729900  1
  C  C1227  1  0.124400  0.580200  0.729900  1
  C  C1228  1  0.624400  0.919800  0.270100  1
  C  C1229  1  0.856500  0.400900  0.293200  1
  C  C1230  1  0.356500  0.099100  0.706800  1
  C  C1231  1  0.143500  0.599100  0.706800  1
  C  C1232  1  0.643500  0.900900  0.293200  1
  C  C1233  1  0.896500  0.378900  0.306400  1
  C  C1234  1  0.396500  0.121100  0.693600  1
  C  C1235  1  0.103500  0.621100  0.693600  1
  C  C1236  1  0.603500  0.878900  0.306400  1
  C  C1237  1  0.878500  0.355200  0.328900  1
  C  C1238  1  0.378500  0.144800  0.671100  1
  C  C1239  1  0.121500  0.644800  0.671100  1
  C  C1240  1  0.621500  0.855200  0.328900  1
  C  C1241  1  0.819100  0.348400  0.335900  1
  C  C1242  1  0.319100  0.151600  0.664100  1
  C  C1243  1  0.180900  0.651600  0.664100  1
  C  C1244  1  0.680900  0.848400  0.335900  1
  C  C1245  1  0.805500  0.323700  0.354400  1
  C  C1246  1  0.305500  0.176300  0.645600  1
  C  C1247  1  0.194500  0.676300  0.645600  1
  C  C1248  1  0.694500  0.823700  0.354400  1
  C  C1249  1  0.850300  0.303200  0.365800  1
  C  C1250  1  0.350300  0.196800  0.634200  1
  C  C1251  1  0.149700  0.696800  0.634200  1
  C  C1252  1  0.649700  0.803200  0.365800  1
  C  C1253  1  0.910300  0.310000  0.357100  1
  C  C1254  1  0.410300  0.190000  0.642900  1
  C  C1255  1  0.089700  0.690000  0.642900  1
  C  C1256  1  0.589700  0.810000  0.357100  1
  C  C1257  1  0.879000  0.278900  0.415900  1
  C  C1258  1  0.379000  0.221100  0.584100  1
  C  C1259  1  0.121000  0.721100  0.584100  1
  C  C1260  1  0.621000  0.778900  0.415900  1
  C  C1261  1  0.839700  0.277100  0.386900  1
  C  C1262  1  0.339700  0.222900  0.613100  1
  C  C1263  1  0.160300  0.722900  0.613100  1
  C  C1264  1  0.660300  0.777100  0.386900  1
  C  C1265  1  0.791100  0.248800  0.380600  1
  C  C1266  1  0.291100  0.251200  0.619400  1
  C  C1267  1  0.208900  0.751200  0.619400  1
  C  C1268  1  0.708900  0.748800  0.380600  1
  C  C1269  1  0.787800  0.222600  0.399400  1
  C  C1270  1  0.287800  0.277400  0.600600  1
  C  C1271  1  0.212200  0.777400  0.600600  1
  C  C1272  1  0.712200  0.722600  0.399400  1
  C  C1273  1  0.832900  0.223300  0.425200  1
  C  C1274  1  0.332900  0.276700  0.574800  1
  C  C1275  1  0.167100  0.776700  0.574800  1
  C  C1276  1  0.667100  0.723300  0.425200  1
  C  C1277  1  0.834400  0.195200  0.443800  1
  C  C1278  1  0.334400  0.304800  0.556200  1
  C  C1279  1  0.165600  0.804800  0.556200  1
  C  C1280  1  0.665600  0.695200  0.443800  1
  C  C1281  1  0.879700  0.168600  0.485800  1
  C  C1282  1  0.379700  0.331400  0.514200  1
  C  C1283  1  0.120300  0.831400  0.514200  1
  C  C1284  1  0.620300  0.668600  0.485800  1
  C  C1285  1  0.836400  0.136800  0.480200  1
  C  C1286  1  0.336400  0.363200  0.519800  1
  C  C1287  1  0.163600  0.863200  0.519800  1
  C  C1288  1  0.663600  0.636800  0.480200  1
  C  C1289  1  0.841900  0.109600  0.498600  1
  C  C1290  1  0.341900  0.390400  0.501400  1
  C  C1291  1  0.158100  0.890400  0.501400  1
  C  C1292  1  0.658100  0.609600  0.498600  1
  C  C1293  1  0.890800  0.114100  0.522600  1
  C  C1294  1  0.390800  0.385900  0.477400  1
  C  C1295  1  0.109200  0.885900  0.477400  1
  C  C1296  1  0.609200  0.614100  0.522600  1
  C  C1297  1  0.934200  0.145800  0.528100  1
  C  C1298  1  0.434200  0.354200  0.471900  1
  C  C1299  1  0.065800  0.854200  0.471900  1
  C  C1300  1  0.565800  0.645800  0.528100  1
  C  C1301  1  0.928600  0.173100  0.509700  1
  C  C1302  1  0.428600  0.326900  0.490300  1
  C  C1303  1  0.071400  0.826900  0.490300  1
  C  C1304  1  0.571400  0.673100  0.509700  1
  C  C1305  1  0.944700  0.086500  0.561600  1
  C  C1306  1  0.444700  0.413500  0.438400  1
  C  C1307  1  0.055300  0.913500  0.438400  1
  C  C1308  1  0.555300  0.586500  0.561600  1
  C  C1309  1  0.211500  0.378900  0.073600  1
  C  C1310  1  0.711500  0.121100  0.926400  1
  C  C1311  1  0.788500  0.621100  0.926400  1
  C  C1312  1  0.288500  0.878900  0.073600  1
  C  C1313  1  0.166400  0.370600  0.046200  1
  C  C1314  1  0.666400  0.129400  0.953800  1
  C  C1315  1  0.833600  0.629400  0.953800  1
  C  C1316  1  0.333600  0.870600  0.046200  1
  C  C1317  1  0.179700  0.370300  0.010800  1
  C  C1318  1  0.679700  0.129700  0.989200  1
  C  C1319  1  0.820300  0.629700  0.989200  1
  C  C1320  1  0.320300  0.870300  0.010800  1
  C  C1321  1  0.238100  0.378400  0.002800  1
  C  C1322  1  0.738100  0.121600  0.997200  1
  C  C1323  1  0.761900  0.621600  0.997200  1
  C  C1324  1  0.261900  0.878400  0.002800  1
  C  C1325  1  0.283200  0.386800  0.030100  1
  C  C1326  1  0.783200  0.113200  0.969900  1
  C  C1327  1  0.716800  0.613200  0.969900  1
  C  C1328  1  0.216800  0.886800  0.030100  1
  C  C1329  1  0.269900  0.387000  0.065500  1
  C  C1330  1  0.769900  0.113000  0.934500  1
  C  C1331  1  0.730100  0.613000  0.934500  1
  C  C1332  1  0.230100  0.887000  0.065500  1
  C  C1333  1  0.210300  0.377200  0.943400  1
  C  C1334  1  0.710300  0.122800  0.056600  1
  C  C1335  1  0.789700  0.622800  0.056600  1
  C  C1336  1  0.289700  0.877200  0.943400  1
  C  C1337  1  0.235000  0.369200  0.129300  1
  C  C1338  1  0.735000  0.130800  0.870700  1
  C  C1339  1  0.765000  0.630800  0.870700  1
  C  C1340  1  0.265000  0.869200  0.129300  1
  C  C1341  1  0.223600  0.371200  0.166000  1
  C  C1342  1  0.723600  0.128800  0.834000  1
  C  C1343  1  0.776400  0.628800  0.834000  1
  C  C1344  1  0.276400  0.871200  0.166000  1
  C  C1345  1  0.264600  0.359700  0.186600  1
  C  C1346  1  0.764600  0.140300  0.813400  1
  C  C1347  1  0.735400  0.640300  0.813400  1
  C  C1348  1  0.235400  0.859700  0.186600  1
  C  C1349  1  0.250800  0.363200  0.222700  1
  C  C1350  1  0.750800  0.136800  0.777300  1
  C  C1351  1  0.749200  0.636800  0.777300  1
  C  C1352  1  0.249200  0.863200  0.222700  1
  C  C1353  1  0.194700  0.378100  0.237600  1
  C  C1354  1  0.694700  0.121900  0.762400  1
  C  C1355  1  0.805300  0.621900  0.762400  1
  C  C1356  1  0.305300  0.878100  0.237600  1
  C  C1357  1  0.155800  0.388300  0.215000  1
  C  C1358  1  0.655800  0.111700  0.785000  1
  C  C1359  1  0.844200  0.611700  0.785000  1
  C  C1360  1  0.344200  0.888300  0.215000  1
  C  C1361  1  0.120200  0.367500  0.280700  1
  C  C1362  1  0.620200  0.132500  0.719300  1
  C  C1363  1  0.879800  0.632500  0.719300  1
  C  C1364  1  0.379800  0.867500  0.280700  1
  C  C1365  1  0.176100  0.381600  0.275200  1
  C  C1366  1  0.676100  0.118400  0.724800  1
  C  C1367  1  0.823900  0.618400  0.724800  1
  C  C1368  1  0.323900  0.881600  0.275200  1
  C  C1369  1  0.213800  0.398800  0.308100  1
  C  C1370  1  0.713800  0.101200  0.691900  1
  C  C1371  1  0.786200  0.601200  0.691900  1
  C  C1372  1  0.286200  0.898800  0.308100  1
  C  C1373  1  0.194800  0.400700  0.342400  1
  C  C1374  1  0.694800  0.099300  0.657600  1
  C  C1375  1  0.805200  0.599300  0.657600  1
  C  C1376  1  0.305200  0.900700  0.342400  1
  C  C1377  1  0.136800  0.386200  0.345100  1
  C  C1378  1  0.636800  0.113800  0.654900  1
  C  C1379  1  0.863200  0.613800  0.654900  1
  C  C1380  1  0.363200  0.886200  0.345100  1
  C  C1381  1  0.113600  0.385000  0.380500  1
  C  C1382  1  0.613600  0.115000  0.619500  1
  C  C1383  1  0.886400  0.615000  0.619500  1
  C  C1384  1  0.386400  0.885000  0.380500  1
  C  C1385  1  0.146900  0.395400  0.413500  1
  C  C1386  1  0.646900  0.104600  0.586500  1
  C  C1387  1  0.853100  0.604600  0.586500  1
  C  C1388  1  0.353100  0.895400  0.413500  1
  C  C1389  1  0.126700  0.389400  0.443500  1
  C  C1390  1  0.626700  0.110600  0.556500  1
  C  C1391  1  0.873300  0.610600  0.556500  1
  C  C1392  1  0.373300  0.889400  0.443500  1
  C  C1393  1  0.067700  0.373100  0.441800  1
  C  C1394  1  0.567700  0.126900  0.558200  1
  C  C1395  1  0.932300  0.626900  0.558200  1
  C  C1396  1  0.432300  0.873100  0.441800  1
  C  C1397  1  0.035600  0.363600  0.408000  1
  C  C1398  1  0.535600  0.136400  0.592000  1
  C  C1399  1  0.964400  0.636400  0.592000  1
  C  C1400  1  0.464400  0.863600  0.408000  1
  C  C1401  1  0.014500  0.321400  0.461500  1
  C  C1402  1  0.514500  0.178600  0.538500  1
  C  C1403  1  0.985500  0.678600  0.538500  1
  C  C1404  1  0.485500  0.821400  0.461500  1
  C  C1405  1  0.042600  0.361500  0.471300  1
  C  C1406  1  0.542600  0.138500  0.528700  1
  C  C1407  1  0.957400  0.638500  0.528700  1
  C  C1408  1  0.457400  0.861500  0.471300  1
  C  C1409  1  0.042400  0.390400  0.510400  1
  C  C1410  1  0.542400  0.109600  0.489600  1
  C  C1411  1  0.957600  0.609600  0.489600  1
  C  C1412  1  0.457600  0.890400  0.510400  1
  C  C1413  1  0.016000  0.378500  0.536900  1
  C  C1414  1  0.516000  0.121500  0.463100  1
  C  C1415  1  0.984000  0.621500  0.463100  1
  C  C1416  1  0.484000  0.878500  0.536900  1
  C  C1417  1  0.983300  0.338900  0.524200  1
  C  C1418  1  0.483300  0.161100  0.475800  1
  C  C1419  1  0.016700  0.661100  0.475800  1
  C  C1420  1  0.516700  0.838900  0.524200  1
  C  C1421  1  0.953100  0.324600  0.548700  1
  C  C1422  1  0.453100  0.175400  0.451300  1
  C  C1423  1  0.046900  0.675400  0.451300  1
  C  C1424  1  0.546900  0.824600  0.548700  1
  C  C1425  1  0.896000  0.276100  0.563600  1
  C  C1426  1  0.396000  0.223900  0.436400  1
  C  C1427  1  0.104000  0.723900  0.436400  1
  C  C1428  1  0.604000  0.776100  0.563600  1
  C  C1429  1  0.837800  0.259700  0.555300  1
  C  C1430  1  0.337800  0.240300  0.444700  1
  C  C1431  1  0.162200  0.740300  0.444700  1
  C  C1432  1  0.662200  0.759700  0.555300  1
  C  C1433  1  0.809300  0.243900  0.578800  1
  C  C1434  1  0.309300  0.256100  0.421200  1
  C  C1435  1  0.190700  0.756100  0.421200  1
  C  C1436  1  0.690700  0.743900  0.578800  1
  C  C1437  1  0.839100  0.244400  0.610800  1
  C  C1438  1  0.339100  0.255600  0.389200  1
  C  C1439  1  0.160900  0.755600  0.389200  1
  C  C1440  1  0.660900  0.744400  0.610800  1
  C  C1441  1  0.897400  0.260700  0.619100  1
  C  C1442  1  0.397400  0.239300  0.380900  1
  C  C1443  1  0.102600  0.739300  0.380900  1
  C  C1444  1  0.602600  0.760700  0.619100  1
  C  C1445  1  0.925800  0.276600  0.595600  1
  C  C1446  1  0.425800  0.223400  0.404400  1
  C  C1447  1  0.074200  0.723400  0.404400  1
  C  C1448  1  0.574200  0.776600  0.595600  1
  C  C1449  1  0.762600  0.196100  0.615000  1
  C  C1450  1  0.262600  0.303900  0.385000  1
  C  C1451  1  0.237400  0.803900  0.385000  1
  C  C1452  1  0.737400  0.696100  0.615000  1
  C  C1453  1  0.440100  0.397600  0.198500  1
  C  C1454  1  0.940100  0.102400  0.801500  1
  C  C1455  1  0.559900  0.602400  0.801500  1
  C  C1456  1  0.059900  0.897600  0.198500  1
  C  C1457  1  0.311400  0.498200  0.219400  1
  C  C1458  1  0.811400  0.001800  0.780600  1
  C  C1459  1  0.688600  0.501800  0.780600  1
  C  C1460  1  0.188600  0.998200  0.219400  1
  C  C1461  1  0.193200  0.258600  0.253700  1
  C  C1462  1  0.693200  0.241400  0.746300  1
  C  C1463  1  0.806800  0.741400  0.746300  1
  C  C1464  1  0.306800  0.758600  0.253700  1
  C  C1465  1  0.254800  0.271500  0.279000  1
  C  C1466  1  0.754800  0.228500  0.721000  1
  C  C1467  1  0.745200  0.728500  0.721000  1
  C  C1468  1  0.245200  0.771500  0.279000  1
  C  C1469  1  0.327900  0.995500  0.435300  1
  C  C1470  1  0.827900  0.504500  0.564700  1
  C  C1471  1  0.672100  0.004500  0.564700  1
  C  C1472  1  0.172100  0.495500  0.435300  1
  C  C1473  1  0.125600  0.474500  0.119600  1
  C  C1474  1  0.625600  0.025500  0.880400  1
  C  C1475  1  0.874400  0.525500  0.880400  1
  C  C1476  1  0.374400  0.974500  0.119600  1
  C  C1477  1  0.099100  0.482100  0.090300  1
  C  C1478  1  0.599100  0.017900  0.909700  1
  C  C1479  1  0.900900  0.517900  0.909700  1
  C  C1480  1  0.400900  0.982100  0.090300  1
  C  C1481  1  0.134000  0.496200  0.067900  1
  C  C1482  1  0.634000  0.003800  0.932100  1
  C  C1483  1  0.866000  0.503800  0.932100  1
  C  C1484  1  0.366000  0.996200  0.067900  1
  C  C1485  1  0.195400  0.502800  0.074700  1
  C  C1486  1  0.695400  0.997200  0.925300  1
  C  C1487  1  0.804600  0.497200  0.925300  1
  C  C1488  1  0.304600  0.002800  0.074700  1
  C  C1489  1  0.221900  0.495200  0.104000  1
  C  C1490  1  0.721900  0.004800  0.896000  1
  C  C1491  1  0.778100  0.504800  0.896000  1
  C  C1492  1  0.278100  0.995200  0.104000  1
  C  C1493  1  0.187000  0.481100  0.126400  1
  C  C1494  1  0.687000  0.018900  0.873600  1
  C  C1495  1  0.813000  0.518900  0.873600  1
  C  C1496  1  0.313000  0.981100  0.126400  1
  C  C1497  1  0.224700  0.515800  0.019700  1
  C  C1498  1  0.724700  0.984200  0.980300  1
  C  C1499  1  0.775300  0.484200  0.980300  1
  C  C1500  1  0.275300  0.015800  0.019700  1
  C  C1501  1  0.875300  0.277300  0.552200  1
  C  C1502  1  0.375300  0.222700  0.447800  1
  C  C1503  1  0.124700  0.722700  0.447800  1
  C  C1504  1  0.624700  0.777300  0.552200  1
  C  C1505  1  0.817100  0.261600  0.541700  1
  C  C1506  1  0.317100  0.238400  0.458300  1
  C  C1507  1  0.182900  0.738400  0.458300  1
  C  C1508  1  0.682900  0.761600  0.541700  1
  C  C1509  1  0.784900  0.245700  0.563900  1
  C  C1510  1  0.284900  0.254300  0.436100  1
  C  C1511  1  0.215100  0.754300  0.436100  1
  C  C1512  1  0.715100  0.745700  0.563900  1
  C  C1513  1  0.810900  0.245500  0.596700  1
  C  C1514  1  0.310900  0.254500  0.403300  1
  C  C1515  1  0.189100  0.754500  0.403300  1
  C  C1516  1  0.689100  0.745500  0.596700  1
  C  C1517  1  0.869100  0.261200  0.607200  1
  C  C1518  1  0.369100  0.238800  0.392800  1
  C  C1519  1  0.130900  0.738800  0.392800  1
  C  C1520  1  0.630900  0.761200  0.607200  1
  C  C1521  1  0.901300  0.277100  0.585000  1
  C  C1522  1  0.401300  0.222900  0.415000  1
  C  C1523  1  0.098700  0.722900  0.415000  1
  C  C1524  1  0.598700  0.777100  0.585000  1
  C  C1525  1  0.730600  0.201400  0.600600  1
  C  C1526  1  0.230600  0.298600  0.399400  1
  C  C1527  1  0.269400  0.798600  0.399400  1
  C  C1528  1  0.769400  0.701400  0.600600  1
  S  S1529  1  0.424500  0.417920  0.162260  1
  S  S1530  1  0.924500  0.082080  0.837740  1
  S  S1531  1  0.575500  0.582080  0.837740  1
  S  S1532  1  0.075500  0.917920  0.162260  1
  S  S1533  1  0.366700  0.499230  0.185000  1
  S  S1534  1  0.866700  0.000770  0.815000  1
  S  S1535  1  0.633300  0.500770  0.815000  1
  S  S1536  1  0.133300  0.999230  0.185000  1
  N  N1537  1  0.892000  0.202400  0.962200  1
  N  N1538  1  0.392000  0.297600  0.037800  1
  N  N1539  1  0.108000  0.797600  0.037800  1
  N  N1540  1  0.608000  0.702400  0.962200  1
  N  N1541  1  0.966500  0.187000  0.009200  1
  N  N1542  1  0.466500  0.313000  0.990800  1
  N  N1543  1  0.033500  0.813000  0.990800  1
  N  N1544  1  0.533500  0.687000  0.009200  1
  N  N1545  1  0.064400  0.135200  0.116100  1
  N  N1546  1  0.564400  0.364800  0.883900  1
  N  N1547  1  0.935600  0.864800  0.883900  1
  N  N1548  1  0.435600  0.635200  0.116100  1
  N  N1549  1  0.114200  0.137200  0.180000  1
  N  N1550  1  0.614200  0.362800  0.820000  1
  N  N1551  1  0.885800  0.862800  0.820000  1
  N  N1552  1  0.385800  0.637200  0.180000  1
  N  N1553  1  0.198000  0.124000  0.311700  1
  N  N1554  1  0.698000  0.376000  0.688300  1
  N  N1555  1  0.802000  0.876000  0.688300  1
  N  N1556  1  0.302000  0.624000  0.311700  1
  N  N1557  1  0.231700  0.131000  0.381200  1
  N  N1558  1  0.731700  0.369000  0.618800  1
  N  N1559  1  0.768300  0.869000  0.618800  1
  N  N1560  1  0.268300  0.631000  0.381200  1
  N  N1561  1  0.840200  0.294100  0.030000  1
  N  N1562  1  0.340200  0.205900  0.970000  1
  N  N1563  1  0.159800  0.705900  0.970000  1
  N  N1564  1  0.659800  0.794100  0.030000  1
  N  N1565  1  0.856100  0.238000  0.061800  1
  N  N1566  1  0.356100  0.262000  0.938200  1
  N  N1567  1  0.143900  0.762000  0.938200  1
  N  N1568  1  0.643900  0.738000  0.061800  1
  N  N1569  1  0.930600  0.159300  0.155400  1
  N  N1570  1  0.430600  0.340700  0.844600  1
  N  N1571  1  0.069400  0.840700  0.844600  1
  N  N1572  1  0.569400  0.659300  0.155400  1
  N  N1573  1  0.974000  0.117500  0.195800  1
  N  N1574  1  0.474000  0.382500  0.804200  1
  N  N1575  1  0.026000  0.882500  0.804200  1
  N  N1576  1  0.526000  0.617500  0.195800  1
  N  N1577  1  0.069000  0.078500  0.310200  1
  N  N1578  1  0.569000  0.421500  0.689800  1
  N  N1579  1  0.931000  0.921500  0.689800  1
  N  N1580  1  0.431000  0.578500  0.310200  1
  N  N1581  1  0.138000  0.047700  0.350900  1
  N  N1582  1  0.638000  0.452300  0.649100  1
  N  N1583  1  0.862000  0.952300  0.649100  1
  N  N1584  1  0.362000  0.547700  0.350900  1
  N  N1585  1  0.935100  0.390900  0.082700  1
  N  N1586  1  0.435100  0.109100  0.917300  1
  N  N1587  1  0.064900  0.609100  0.917300  1
  N  N1588  1  0.564900  0.890900  0.082700  1
  N  N1589  1  0.918000  0.347500  0.126100  1
  N  N1590  1  0.418000  0.152500  0.873900  1
  N  N1591  1  0.082000  0.652500  0.873900  1
  N  N1592  1  0.582000  0.847500  0.126100  1
  N  N1593  1  0.909300  0.272600  0.229200  1
  N  N1594  1  0.409300  0.227400  0.770800  1
  N  N1595  1  0.090700  0.727400  0.770800  1
  N  N1596  1  0.590700  0.772600  0.229200  1
  N  N1597  1  0.914700  0.222500  0.266800  1
  N  N1598  1  0.414700  0.277500  0.733200  1
  N  N1599  1  0.085300  0.777500  0.733200  1
  N  N1600  1  0.585300  0.722500  0.266800  1
  N  N1601  1  0.948500  0.148700  0.368400  1
  N  N1602  1  0.448500  0.351300  0.631600  1
  N  N1603  1  0.051500  0.851300  0.631600  1
  N  N1604  1  0.551500  0.648700  0.368400  1
  N  N1605  1  0.980200  0.104800  0.410200  1
  N  N1606  1  0.480200  0.395200  0.589800  1
  N  N1607  1  0.019800  0.895200  0.589800  1
  N  N1608  1  0.519800  0.604800  0.410200  1
  N  N1609  1  0.092200  0.458000  0.140900  1
  N  N1610  1  0.592200  0.042000  0.859100  1
  N  N1611  1  0.907800  0.542000  0.859100  1
  N  N1612  1  0.407800  0.958000  0.140900  1
  N  N1613  1  0.033400  0.424700  0.183900  1
  N  N1614  1  0.533400  0.075300  0.816100  1
  N  N1615  1  0.966600  0.575300  0.816100  1
  N  N1616  1  0.466600  0.924700  0.183900  1
  N  N1617  1  0.956000  0.380300  0.300100  1
  N  N1618  1  0.456000  0.119700  0.699900  1
  N  N1619  1  0.044000  0.619700  0.699900  1
  N  N1620  1  0.544000  0.880300  0.300100  1
  N  N1621  1  0.922900  0.335800  0.340100  1
  N  N1622  1  0.422900  0.164200  0.659900  1
  N  N1623  1  0.077100  0.664200  0.659900  1
  N  N1624  1  0.577100  0.835800  0.340100  1
  N  N1625  1  0.877300  0.253100  0.434000  1
  N  N1626  1  0.377300  0.246900  0.566000  1
  N  N1627  1  0.122700  0.746900  0.566000  1
  N  N1628  1  0.622700  0.753100  0.434000  1
  N  N1629  1  0.877200  0.197100  0.467100  1
  N  N1630  1  0.377200  0.302900  0.532900  1
  N  N1631  1  0.122800  0.802900  0.532900  1
  N  N1632  1  0.622800  0.697100  0.467100  1
  N  N1633  1  0.196600  0.380100  0.110300  1
  N  N1634  1  0.696600  0.119900  0.889700  1
  N  N1635  1  0.803400  0.619900  0.889700  1
  N  N1636  1  0.303400  0.880100  0.110300  1
  N  N1637  1  0.167100  0.385800  0.180300  1
  N  N1638  1  0.667100  0.114200  0.819700  1
  N  N1639  1  0.832900  0.614200  0.819700  1
  N  N1640  1  0.332900  0.885800  0.180300  1
  N  N1641  1  0.099500  0.370500  0.314300  1
  N  N1642  1  0.599500  0.129500  0.685700  1
  N  N1643  1  0.900500  0.629500  0.685700  1
  N  N1644  1  0.400500  0.870500  0.314300  1
  N  N1645  1  0.056600  0.369600  0.378300  1
  N  N1646  1  0.556600  0.130400  0.621700  1
  N  N1647  1  0.943400  0.630400  0.621700  1
  N  N1648  1  0.443400  0.869600  0.378300  1
  N  N1649  1  0.984700  0.311200  0.486400  1
  N  N1650  1  0.484700  0.188800  0.513600  1
  N  N1651  1  0.015300  0.688800  0.513600  1
  N  N1652  1  0.515300  0.811200  0.486400  1
  N  N1653  1  0.923700  0.288600  0.535700  1
  N  N1654  1  0.423700  0.211400  0.464300  1
  N  N1655  1  0.076300  0.711400  0.464300  1
  N  N1656  1  0.576300  0.788600  0.535700  1
  N  N1657  1  0.424800  0.469700  0.186100  1
  N  N1658  1  0.924800  0.030300  0.813900  1
  N  N1659  1  0.575200  0.530300  0.813900  1
  N  N1660  1  0.075200  0.969700  0.186100  1
  N  N1661  1  0.149100  0.253500  0.244400  1
  N  N1662  1  0.649100  0.246500  0.755600  1
  N  N1663  1  0.850900  0.746500  0.755600  1
  N  N1664  1  0.350900  0.753500  0.244400  1
  O  O1665  1  0.740200  0.262900  0.877900  1
  O  O1666  1  0.240200  0.237100  0.122100  1
  O  O1667  1  0.259800  0.737100  0.122100  1
  O  O1668  1  0.759800  0.762900  0.877900  1
  O  O1669  1  0.301500  0.132100  0.520500  1
  O  O1670  1  0.801500  0.367900  0.479500  1
  O  O1671  1  0.698500  0.867900  0.479500  1
  O  O1672  1  0.198500  0.632100  0.520500  1
  O  O1673  1  0.814400  0.390400  0.944900  1
  O  O1674  1  0.314400  0.109600  0.055100  1
  O  O1675  1  0.185600  0.609600  0.055100  1
  O  O1676  1  0.685600  0.890400  0.944900  1
  O  O1677  1  0.266800  0.983500  0.438500  1
  O  O1678  1  0.766800  0.516500  0.561500  1
  O  O1679  1  0.733200  0.016500  0.561500  1
  O  O1680  1  0.233200  0.483500  0.438500  1
  O  O1681  1  0.980700  0.450200  0.971200  1
  O  O1682  1  0.480700  0.049800  0.028800  1
  O  O1683  1  0.019300  0.549800  0.028800  1
  O  O1684  1  0.519300  0.950200  0.971200  1
  O  O1685  1  0.062300  0.033100  0.505600  1
  O  O1686  1  0.562300  0.466900  0.494400  1
  O  O1687  1  0.937700  0.966900  0.494400  1
  O  O1688  1  0.437700  0.533100  0.505600  1
  O  O1689  1  0.185800  0.506000  0.030100  1
  O  O1690  1  0.685800  0.994000  0.969900  1
  O  O1691  1  0.814200  0.494000  0.969900  1
  O  O1692  1  0.314200  0.006000  0.030100  1
  O  O1693  1  0.892900  0.086100  0.539100  1
  O  O1694  1  0.392900  0.413900  0.460900  1
  O  O1695  1  0.107100  0.913900  0.460900  1
  O  O1696  1  0.607100  0.586100  0.539100  1
  O  O1697  1  0.256300  0.379700  0.969600  1
  O  O1698  1  0.756300  0.120300  0.030400  1
  O  O1699  1  0.743700  0.620300  0.030400  1
  O  O1700  1  0.243700  0.879700  0.969600  1
  O  O1701  1  0.812800  0.224600  0.630700  1
  O  O1702  1  0.312800  0.275400  0.369300  1
  O  O1703  1  0.187200  0.775400  0.369300  1
  O  O1704  1  0.687200  0.724600  0.630700  1
  O  O1705  1  0.062200  0.351900  0.104300  1
  O  O1706  1  0.562200  0.148100  0.895700  1
  O  O1707  1  0.937800  0.648100  0.895700  1
  O  O1708  1  0.437800  0.851900  0.104300  1
  O  O1709  1  0.974500  0.286000  0.041900  1
  O  O1710  1  0.474500  0.214000  0.958100  1
  O  O1711  1  0.025500  0.714000  0.958100  1
  O  O1712  1  0.525500  0.786000  0.041900  1
  O  O1713  1  0.026600  0.289300  0.289500  1
  O  O1714  1  0.526600  0.210700  0.710500  1
  O  O1715  1  0.973400  0.710700  0.710500  1
  O  O1716  1  0.473400  0.789300  0.289500  1
  O  O1717  1  0.029700  0.212700  0.205300  1
  O  O1718  1  0.529700  0.287300  0.794700  1
  O  O1719  1  0.970300  0.787300  0.794700  1
  O  O1720  1  0.470300  0.712700  0.205300  1
  O  O1721  1  0.005500  0.214000  0.453700  1
  O  O1722  1  0.505500  0.286000  0.546300  1
  O  O1723  1  0.994500  0.786000  0.546300  1
  O  O1724  1  0.494500  0.714000  0.453700  1
  O  O1725  1  0.096900  0.153200  0.388300  1
  O  O1726  1  0.596900  0.346800  0.611700  1
  O  O1727  1  0.903100  0.846800  0.611700  1
  O  O1728  1  0.403100  0.653200  0.388300  1
  O  O1729  1  0.119400  0.291300  0.125900  1
  O  O1730  1  0.619400  0.208700  0.874100  1
  O  O1731  1  0.880600  0.708700  0.874100  1
  O  O1732  1  0.380600  0.791300  0.125900  1
  O  O1733  1  0.057600  0.309400  0.193600  1
  O  O1734  1  0.557600  0.190600  0.806400  1
  O  O1735  1  0.942400  0.690600  0.806400  1
  O  O1736  1  0.442400  0.809400  0.193600  1
  O  O1737  1  0.116200  0.229600  0.155800  1
  O  O1738  1  0.616200  0.270400  0.844200  1
  O  O1739  1  0.883800  0.770400  0.844200  1
  O  O1740  1  0.383800  0.729600  0.155800  1
  O  O1741  1  0.010400  0.248200  0.125200  1
  O  O1742  1  0.510400  0.251800  0.874800  1
  O  O1743  1  0.989600  0.751800  0.874800  1
  O  O1744  1  0.489600  0.748200  0.125200  1
  O  O1745  1  0.140200  0.219700  0.366600  1
  O  O1746  1  0.640200  0.280300  0.633400  1
  O  O1747  1  0.859800  0.780300  0.633400  1
  O  O1748  1  0.359800  0.719700  0.366600  1
  O  O1749  1  0.073900  0.194100  0.299300  1
  O  O1750  1  0.573900  0.305900  0.700700  1
  O  O1751  1  0.926100  0.805900  0.700700  1
  O  O1752  1  0.426100  0.694100  0.299300  1
  O  O1753  1  0.126100  0.278700  0.335800  1
  O  O1754  1  0.626100  0.221300  0.664200  1
  O  O1755  1  0.873900  0.721300  0.664200  1
  O  O1756  1  0.373900  0.778700  0.335800  1
  O  O1757  1  0.027800  0.254700  0.368700  1
  O  O1758  1  0.527800  0.245300  0.631300  1
  O  O1759  1  0.972200  0.745300  0.631300  1
  O  O1760  1  0.472200  0.754700  0.368700  1
  O  O1761  1  0.223600  0.264400  0.512700  1
  O  O1762  1  0.723600  0.235600  0.487300  1
  O  O1763  1  0.776400  0.735600  0.487300  1
  O  O1764  1  0.276400  0.764400  0.512700  1
  O  O1765  1  0.121500  0.247800  0.468400  1
  O  O1766  1  0.621500  0.252200  0.531600  1
  O  O1767  1  0.878500  0.752200  0.531600  1
  O  O1768  1  0.378500  0.747800  0.468400  1
  O  O1769  1  0.177800  0.330200  0.492900  1
  O  O1770  1  0.677800  0.169800  0.507100  1
  O  O1771  1  0.822200  0.669800  0.507100  1
  O  O1772  1  0.322200  0.830200  0.492900  1
  O  O1773  1  0.111100  0.310600  0.541500  1
  O  O1774  1  0.611100  0.189400  0.458500  1
  O  O1775  1  0.888900  0.689400  0.458500  1
  O  O1776  1  0.388900  0.810600  0.541500  1
  O  O1777  1  0.057000  0.193300  0.952400  1
  O  O1778  1  0.557000  0.306700  0.047600  1
  O  O1779  1  0.943000  0.806700  0.047600  1
  O  O1780  1  0.443000  0.693300  0.952400  1
  O  O1781  1  0.138000  0.193600  0.008300  1
  O  O1782  1  0.638000  0.306400  0.991700  1
  O  O1783  1  0.862000  0.806400  0.991700  1
  O  O1784  1  0.362000  0.693600  0.008300  1
  O  O1785  1  0.137700  0.264400  0.985500  1
  O  O1786  1  0.637700  0.235600  0.014500  1
  O  O1787  1  0.862300  0.735600  0.014500  1
  O  O1788  1  0.362300  0.764400  0.985500  1
  O  O1789  1  0.164300  0.178300  0.933700  1
  O  O1790  1  0.664300  0.321700  0.066300  1
  O  O1791  1  0.835700  0.821700  0.066300  1
  O  O1792  1  0.335700  0.678300  0.933700  1
  O  O1793  1  0.371300  0.397000  0.144400  1
  O  O1794  1  0.871300  0.103000  0.855600  1
  O  O1795  1  0.628700  0.603000  0.855600  1
  O  O1796  1  0.128700  0.897000  0.144400  1
  O  O1797  1  0.479700  0.408100  0.139500  1
  O  O1798  1  0.979700  0.091900  0.860500  1
  O  O1799  1  0.520300  0.591900  0.860500  1
  O  O1800  1  0.020300  0.908100  0.139500  1
  O  O1801  1  0.386900  0.543000  0.207700  1
  O  O1802  1  0.886900  0.957000  0.792300  1
  O  O1803  1  0.613100  0.457000  0.792300  1
  O  O1804  1  0.113100  0.043000  0.207700  1
  O  O1805  1  0.335200  0.482800  0.150000  1
  O  O1806  1  0.835200  0.017200  0.850000  1
  O  O1807  1  0.664800  0.517200  0.850000  1
  O  O1808  1  0.164800  0.982800  0.150000  1
  O  O1809  1  0.232900  0.520300  0.057400  1
  O  O1810  1  0.732900  0.979700  0.942600  1
  O  O1811  1  0.767100  0.479700  0.942600  1
  O  O1812  1  0.267100  0.020300  0.057400  1
  O  O1813  1  0.776800  0.233000  0.618800  1
  O  O1814  1  0.276800  0.267000  0.381200  1
  O  O1815  1  0.223200  0.767000  0.381200  1
  O  O1816  1  0.723200  0.733000  0.618800  1
  O  O1817  1  0.089500  0.193800  0.544400  1
  O  O1818  1  0.589500  0.306200  0.455600  1
  O  O1819  1  0.910500  0.806200  0.455600  1
  O  O1820  1  0.410500  0.693800  0.544400  1
  O  O1821  1  0.140700  0.265400  0.532900  1
  O  O1822  1  0.640700  0.234600  0.467100  1
  O  O1823  1  0.859300  0.734600  0.467100  1
  O  O1824  1  0.359300  0.765400  0.532900  1
  O  O1825  1  0.093400  0.268700  0.604600  1
  O  O1826  1  0.593400  0.231300  0.395400  1
  O  O1827  1  0.906600  0.731300  0.395400  1
  O  O1828  1  0.406600  0.768700  0.604600  1
  O  O1829  1  0.024900  0.263100  0.541700  1
  O  O1830  1  0.524900  0.236900  0.458300  1
  O  O1831  1  0.975100  0.736900  0.458300  1
  O  O1832  1  0.475100  0.763100  0.541700  1
  O  O1833  1  0.085800  0.243300  0.954200  1
  O  O1834  1  0.585800  0.256700  0.045800  1
  O  O1835  1  0.914200  0.756700  0.045800  1
  O  O1836  1  0.414200  0.743300  0.954200  1
  O  O1837  1  0.090900  0.269100  0.027400  1
  O  O1838  1  0.590900  0.230900  0.972600  1
  O  O1839  1  0.909100  0.730900  0.972600  1
  O  O1840  1  0.409100  0.769100  0.027400  1
  O  O1841  1  0.194400  0.255800  0.987500  1
  O  O1842  1  0.694400  0.244200  0.012500  1
  O  O1843  1  0.805600  0.744200  0.012500  1
  O  O1844  1  0.305600  0.755800  0.987500  1
  O  O1845  1  0.136700  0.178100  0.974600  1
  O  O1846  1  0.636700  0.321900  0.025400  1
  O  O1847  1  0.863300  0.821900  0.025400  1
  O  O1848  1  0.363300  0.678100  0.974600  1
  O  O1849  1  0.050400  0.267700  0.948300  1
  O  O1850  1  0.550400  0.232300  0.051700  1
  O  O1851  1  0.949600  0.732300  0.051700  1
  O  O1852  1  0.449600  0.767700  0.948300  1
  F  F1853  1  0.490600  0.414500  0.218900  1
  F  F1854  1  0.990600  0.085500  0.781100  1
  F  F1855  1  0.509400  0.585500  0.781100  1
  F  F1856  1  0.009400  0.914500  0.218900  1
  F  F1857  1  0.397700  0.406700  0.223400  1
  F  F1858  1  0.897700  0.093300  0.776600  1
  F  F1859  1  0.602300  0.593300  0.776600  1
  F  F1860  1  0.102300  0.906700  0.223400  1
  F  F1861  1  0.444300  0.354500  0.183300  1
  F  F1862  1  0.944300  0.145500  0.816700  1
  F  F1863  1  0.555700  0.645500  0.816700  1
  F  F1864  1  0.055700  0.854500  0.183300  1
  F  F1865  1  0.330700  0.511700  0.255400  1
  F  F1866  1  0.830700  0.988300  0.744600  1
  F  F1867  1  0.669300  0.488300  0.744600  1
  F  F1868  1  0.169300  0.011700  0.255400  1
  F  F1869  1  0.266800  0.528200  0.219600  1
  F  F1870  1  0.766800  0.971800  0.780400  1
  F  F1871  1  0.733200  0.471800  0.780400  1
  F  F1872  1  0.233200  0.028200  0.219600  1
  F  F1873  1  0.286500  0.459400  0.208200  1
  F  F1874  1  0.786500  0.040600  0.791800  1
  F  F1875  1  0.713500  0.540600  0.791800  1
  F  F1876  1  0.213500  0.959400  0.208200  1
