
#######################################################################
#
#                 Cambridge Crystallographic Data Centre
#                                CCDC 
#
#######################################################################
#
# If this CIF has been generated from an entry in the Cambridge 
# Structural Database, then it will include bibliographic, chemical, 
# crystal, experimental, refinement or atomic coordinate data resulting 
# from the CCDC's data processing and validation procedures.
#
#######################################################################

data_SAKTUU
_chemical_formula_moiety         'C108 H90 Cu3 N12 O18 S6,C5 H5 N1'
_chemical_name_systematic        
"bis(\m~3~-1,3,5-tris(4-(Sulfonato)phenyl)benzene-O,O',O'')-dodecakis(pyridine)-tri-copper(ii) pyridine clathrate"
_symmetry_cell_setting           rhombohedral
_symmetry_space_group_name_H-M   'R -3 c'
_symmetry_Int_Tables_number      167
_space_group_name_Hall           '-R 3 2"c'
loop_
_symmetry_equiv_pos_site_id
_symmetry_equiv_pos_as_xyz
1 x,y,z
2 -y,x-y,z
3 -x+y,-x,z
4 y,x,1/2-z
5 2/3+x,1/3+y,1/3+z
6 2/3-y,1/3+x-y,1/3+z
7 2/3-x+y,1/3-x,1/3+z
8 2/3+y,1/3+x,5/6-z
9 1/3+x,2/3+y,2/3+z
10 1/3+y,2/3+x,1/6-z
11 -x+y,y,1/2+z
12 x,x-y,1/2+z
13 2/3+y,1/3-x+y,1/3-z
14 2/3+x-y,1/3+x,1/3-z
15 2/3-x+y,1/3+y,5/6+z
16 2/3+x,1/3+x-y,5/6+z
17 1/3-x+y,2/3+y,1/6+z
18 1/3+x,2/3+x-y,1/6+z
19 -x,-y,-z
20 y,-x+y,-z
21 x-y,x,-z
22 -y,-x,1/2+z
23 1/3-x,2/3-y,2/3-z
24 1/3+y,2/3-x+y,2/3-z
25 1/3+x-y,2/3+x,2/3-z
26 1/3-y,2/3-x,1/6+z
27 2/3-x,1/3-y,1/3-z
28 2/3-y,1/3-x,5/6+z
29 x-y,-y,1/2-z
30 -x,-x+y,1/2-z
31 1/3-y,2/3+x-y,2/3+z
32 1/3-x+y,2/3-x,2/3+z
33 1/3+x-y,2/3-y,1/6-z
34 1/3-x,2/3-x+y,1/6-z
35 2/3+x-y,1/3-y,5/6-z
36 2/3-x,1/3-x+y,5/6-z
_cell_length_a                   20.324(5)
_cell_length_b                   20.324(5)
_cell_length_c                   47.623(5)
_cell_angle_alpha                90
_cell_angle_beta                 90
_cell_angle_gamma                120.000(5)
_cell_volume                     17035.9
_exptl_crystal_colour            'dark blue'
_exptl_crystal_description       cube
_cell_formula_units_Z            6
loop_
_atom_site_label
_atom_site_type_symbol
_atom_site_fract_x
_atom_site_fract_y
_atom_site_fract_z
C9 C 0.0000 0.068(2) 0.2500
H6 H 0.0000 0.1133 0.2500
C10 C -0.067(3) 0.0000 0.2500
H7 H -0.1124 0.0000 0.2500
C9A C -0.068(2) -0.0680(20) 0.2500
H6A H -0.1133 -0.1133 0.2500
C10A C 0.0000 -0.0670(30) 0.2500
C9B C 0.0680(20) 0.0000 0.2500
H6B H 0.1133 0.0000 0.2500
C10B C 0.0670(30) 0.067(3) 0.2500
H7B H 0.1124 0.1124 0.2500
H7A H 0.0000 -0.1124 0.2500
C1 C 0.7216(4) 0.0050(4) 0.16463(14)
C2 C 0.7894(5) 0.0693(5) 0.1575(2)
H1 H 0.7896 0.1138 0.1528
C3 C 0.8575(5) 0.0679(5) 0.1572(2)
H2 H 0.9024 0.1114 0.1522
C4 C 0.8588(4) 0.0030(4) 0.16425(15)
C5 C 0.7890(5) -0.0625(4) 0.17007(19)
H3 H 0.7881 -0.1077 0.1742
C6 C 0.7210(5) -0.0613(4) 0.16974(19)
H4 H 0.6752 -0.1057 0.1730
C7 C 0.9315(4) 0.0012(4) 0.16474(14)
C8 C 0.9302(4) -0.0678(4) 0.16489(14)
H5 H 0.8840 -0.1131 0.1651
C11 C 0.7855(5) 0.0822(6) 0.2344(2)
H8 H 0.7706 0.0432 0.2213
C12 C 0.8614(7) 0.1400(8) 0.2358(3)
H9 H 0.8968 0.1424 0.2228
C13 C 0.8825(8) 0.1929(7) 0.2566(3)
H10 H 0.9333 0.2304 0.2584
C14 C 0.8301(9) 0.1913(7) 0.2749(3)
H11 H 0.8442 0.2275 0.2890
C15 C 0.7579(6) 0.1363(5) 0.2719(2)
H12 H 0.7221 0.1350 0.2844
C16 C 0.4709(6) -0.0721(7) 0.22553(19)
H13 H 0.4940 -0.0298 0.2139
C17 C 0.3964(6) -0.1244(9) 0.2214(3)
H14 H 0.3695 -0.1184 0.2068
C18 C 0.3602(7) -0.1883(9) 0.2394(3)
H15 H 0.3096 -0.2253 0.2369
C19 C 0.4022(6) -0.1934(7) 0.2606(2)
H16 H 0.3797 -0.2332 0.2733
C20 C 0.4780(5) -0.1395(6) 0.26316(18)
H17 H 0.5062 -0.1451 0.2774
N1 N 0.7342(4) 0.0829(4) 0.25195(14)
N2 N 0.5122(4) -0.0800(5) 0.24612(14)
O1 O 0.5756(3) -0.0619(4) 0.16186(13)
O2 O 0.6374(4) 0.0254(4) 0.19907(12)
O3 O 0.6479(4) 0.0728(4) 0.15171(14)
S1 S 0.63893(10) 0.01211(11) 0.16950(4)
Cu1 Cu 0.62378(7) 0.0000 0.2500
N1BA N 0.6513(6) -0.0829(4) 0.24805(14)
C11BA C 0.7033(8) -0.0822(6) 0.2656(2)
H8BA H 0.7274 -0.0432 0.2787
C12BA C 0.7214(11) -0.1400(8) 0.2642(3)
H9BA H 0.7544 -0.1424 0.2772
C13BA C 0.6896(11) -0.1929(7) 0.2434(3)
H10BA H 0.7029 -0.2304 0.2416
C14BA C 0.6388(11) -0.1913(7) 0.2251(3)
H11BA H 0.6167 -0.2275 0.2110
C15BA C 0.6216(8) -0.1363(5) 0.2281(2)
H12BA H 0.5871 -0.1350 0.2156
N2BA N 0.5922(6) 0.0800(5) 0.25388(14)
C16BA C 0.5430(9) 0.0721(7) 0.27447(19)
H13BA H 0.5238 0.0298 0.2861
C17BA C 0.5208(11) 0.1244(9) 0.2786(3)
H14BA H 0.4879 0.1184 0.2932
C18BA C 0.5485(11) 0.1883(9) 0.2606(3)
H15BA H 0.5349 0.2253 0.2631
C19BA C 0.5956(9) 0.1934(7) 0.2394(2)
H16BA H 0.6129 0.2332 0.2267
C20BA C 0.6175(8) 0.1395(6) 0.23684(18)
H17BA H 0.6513 0.1451 0.2226
O2BA O 0.6120(6) -0.0254(4) 0.30093(12)
S1BA S 0.62682(15) -0.01211(11) 0.33050(4)
C1BA C 0.7166(6) -0.0050(4) 0.33537(14)
C2BA C 0.7201(7) -0.0693(5) 0.3425(2)
H1BA H 0.6758 -0.1138 0.3472
C3BA C 0.7896(7) -0.0679(5) 0.3428(2)
H2BA H 0.7910 -0.1114 0.3478
C4BA C 0.8558(6) -0.0030(4) 0.33575(15)
C5BA C 0.8515(6) 0.0625(4) 0.32993(19)
H3BA H 0.8958 0.1077 0.3258
C6BA C 0.7823(6) 0.0613(4) 0.33026(19)
H4BA H 0.7809 0.1057 0.3270
C7BA C 0.9303(6) -0.0012(4) 0.33526(14)
C8BA C 0.9980(6) 0.0678(4) 0.33511(14)
C7CA C 1.0685(4) 0.0697(6) 0.33526(14)
C4CA C 1.1412(4) 0.1442(6) 0.33575(15)
C3CA C 1.1425(5) 0.2104(7) 0.3428(2)
C2CA C 1.2106(5) 0.2799(7) 0.3425(2)
C1CA C 1.2784(4) 0.2834(6) 0.33537(14)
C6CA C 1.2790(5) 0.2177(6) 0.33026(19)
C5CA C 1.2110(5) 0.1485(6) 0.32993(19)
H3CA H 1.2119 0.1042 0.3258
H4CA H 1.3248 0.2191 0.3270
S1CA S 1.36107(10) 0.37318(15) 0.33050(4)
O1CA O 1.4244(3) 0.3625(5) 0.33814(13)
O2CA O 1.3626(4) 0.3880(6) 0.30093(12)
Cu1CA Cu 1.37622(7) 0.37622(7) 0.2500
N1CA N 1.2658(4) 0.3487(6) 0.24805(14)
C11CA C 1.2145(5) 0.2967(8) 0.2656(2)
H8CA H 1.2294 0.2726 0.2787
C12CA C 1.1386(7) 0.2786(11) 0.2642(3)
H9CA H 1.1032 0.2456 0.2772
C13CA C 1.1175(8) 0.3104(11) 0.2434(3)
H10CA H 1.0667 0.2971 0.2416
C14CA C 1.1699(9) 0.3612(11) 0.2251(3)
H11CA H 1.1558 0.3833 0.2110
C15CA C 1.2421(6) 0.3784(8) 0.2281(2)
H12CA H 1.2779 0.4129 0.2156
N1B N 1.3487(6) 0.2658(4) 0.25195(14)
C11B C 1.2967(8) 0.2145(5) 0.2344(2)
H8B H 1.2726 0.2294 0.2213
C12B C 1.2786(11) 0.1386(7) 0.2358(3)
H9B H 1.2456 0.1032 0.2228
C13B C 1.3104(11) 0.1175(8) 0.2566(3)
H10B H 1.2971 0.0667 0.2584
C14B C 1.3612(11) 0.1699(9) 0.2749(3)
H11B H 1.3833 0.1558 0.2890
C15B C 1.3784(8) 0.2421(6) 0.2719(2)
H12B H 1.4129 0.2779 0.2844
N2CA N 1.4878(4) 0.4078(6) 0.25388(14)
C16CA C 1.5291(6) 0.4570(9) 0.27447(19)
H13CA H 1.5060 0.4762 0.2861
C17CA C 1.6036(6) 0.4792(11) 0.2786(3)
H14CA H 1.6305 0.5121 0.2932
C18CA C 1.6398(7) 0.4515(11) 0.2606(3)
H15CA H 1.6904 0.4651 0.2631
C19CA C 1.5978(6) 0.4044(9) 0.2394(2)
H16CA H 1.6203 0.3871 0.2267
C20CA C 1.5220(5) 0.3825(8) 0.23684(18)
H17CA H 1.4938 0.3487 0.2226
N2B N 1.4078(6) 0.4878(4) 0.24612(14)
C16B C 1.4570(9) 0.5291(6) 0.22553(19)
H13B H 1.4762 0.5060 0.2139
C17B C 1.4792(11) 0.6036(6) 0.2214(3)
H14B H 1.5121 0.6305 0.2068
C18B C 1.4515(11) 0.6398(7) 0.2394(3)
H15B H 1.4651 0.6904 0.2369
C19B C 1.4044(9) 0.5978(6) 0.2606(2)
H16B H 1.3871 0.6203 0.2733
C20B C 1.3825(8) 0.5220(5) 0.26316(18)
H17B H 1.3487 0.4938 0.2774
O2B O 1.3880(6) 0.3626(4) 0.19907(12)
S1B S 1.37318(15) 0.36107(10) 0.16950(4)
C1B C 1.2834(6) 0.2784(4) 0.16463(14)
C2B C 1.2799(7) 0.2106(5) 0.1575(2)
H1B H 1.3242 0.2104 0.1528
C3B C 1.2104(7) 0.1425(5) 0.1572(2)
H2B H 1.2090 0.0976 0.1522
C4B C 1.1442(6) 0.1412(4) 0.16425(15)
C5B C 1.1485(6) 0.2110(5) 0.17007(19)
H3B H 1.1042 0.2119 0.1742
C6B C 1.2177(6) 0.2790(5) 0.16974(19)
H4B H 1.2191 0.3248 0.1730
C7B C 1.0697(6) 0.0685(4) 0.16474(14)
C8B C 1.0020(6) 0.0698(4) 0.16489(14)
C7A C 0.9988(4) -0.0697(6) 0.16474(14)
C4A C 0.9970(4) -0.1442(6) 0.16425(15)
C3A C 0.9321(5) -0.2104(7) 0.1572(2)
C2A C 0.9307(5) -0.2799(7) 0.1575(2)
C1A C 0.9950(4) -0.2834(6) 0.16463(14)
C6A C 1.0613(4) -0.2177(6) 0.16974(19)
C5A C 1.0625(4) -0.1485(6) 0.17007(19)
H3A H 1.1077 -0.1042 0.1742
H4A H 1.1057 -0.2191 0.1730
S1A S 0.98789(11) -0.37318(15) 0.16950(4)
O1A O 1.0619(4) -0.3625(5) 0.16186(13)
O2A O 0.9746(4) -0.3880(6) 0.19907(12)
Cu1A Cu 1.0000 -0.37622(7) 0.2500
N1A N 0.9171(4) -0.3487(6) 0.25195(14)
C11A C 0.9178(6) -0.2967(8) 0.2344(2)
H8A H 0.9568 -0.2726 0.2213
C12A C 0.8600(8) -0.2786(11) 0.2358(3)
H9A H 0.8576 -0.2456 0.2228
C13A C 0.8071(7) -0.3104(11) 0.2566(3)
H10A H 0.7696 -0.2971 0.2584
C14A C 0.8087(7) -0.3612(11) 0.2749(3)
H11A H 0.7725 -0.3833 0.2890
C15A C 0.8637(5) -0.3784(8) 0.2719(2)
H12A H 0.8650 -0.4129 0.2844
N1C N 1.0829(4) -0.2658(4) 0.24805(14)
C11C C 1.0822(6) -0.2145(5) 0.2656(2)
H8C H 1.0432 -0.2294 0.2787
C12C C 1.1400(8) -0.1386(7) 0.2642(3)
H9C H 1.1424 -0.1032 0.2772
C13C C 1.1929(7) -0.1175(8) 0.2434(3)
H10C H 1.2304 -0.0667 0.2416
C14C C 1.1913(7) -0.1699(9) 0.2251(3)
H11C H 1.2275 -0.1558 0.2110
C15C C 1.1363(5) -0.2421(6) 0.2281(2)
H12C H 1.1350 -0.2779 0.2156
N2A N 1.0800(5) -0.4078(6) 0.24612(14)
C16A C 1.0721(7) -0.4570(9) 0.22553(19)
H13A H 1.0298 -0.4762 0.2139
C17A C 1.1244(9) -0.4792(11) 0.2214(3)
H14A H 1.1184 -0.5121 0.2068
C18A C 1.1883(9) -0.4515(11) 0.2394(3)
H15A H 1.2253 -0.4651 0.2369
C19A C 1.1934(7) -0.4044(9) 0.2606(2)
H16A H 1.2332 -0.3871 0.2733
C20A C 1.1395(6) -0.3825(8) 0.26316(18)
H17A H 1.1451 -0.3487 0.2774
N2C N 0.9200(5) -0.4878(4) 0.25388(14)
C16C C 0.9279(7) -0.5291(6) 0.27447(19)
H13C H 0.9702 -0.5060 0.2861
C17C C 0.8756(9) -0.6036(6) 0.2786(3)
H14C H 0.8816 -0.6305 0.2932
C18C C 0.8117(9) -0.6398(7) 0.2606(3)
H15C H 0.7747 -0.6904 0.2631
C19C C 0.8066(7) -0.5978(6) 0.2394(2)
H16C H 0.7668 -0.6203 0.2267
C20C C 0.8605(6) -0.5220(5) 0.23684(18)
H17C H 0.8549 -0.4938 0.2226
O2C O 1.0254(4) -0.3626(4) 0.30093(12)
S1C S 1.01211(11) -0.36107(10) 0.33050(4)
C1C C 1.0050(4) -0.2784(4) 0.33537(14)
C2C C 1.0693(5) -0.2106(5) 0.3425(2)
H1C H 1.1138 -0.2104 0.3472
C3C C 1.0679(5) -0.1425(5) 0.3428(2)
H2C H 1.1114 -0.0976 0.3478
C4C C 1.0030(4) -0.1412(4) 0.33575(15)
C5C C 0.9375(4) -0.2110(5) 0.32993(19)
H3C H 0.8923 -0.2119 0.3258
C6C C 0.9387(4) -0.2790(5) 0.33026(19)
H4C H 0.8943 -0.3248 0.3270
C7C C 1.0012(4) -0.0685(4) 0.33526(14)
C8C C 0.9322(4) -0.0698(4) 0.33511(14)
H5C H 0.8869 -0.1160 0.3349
C8CA C 1.0698(4) 0.0020(6) 0.33511(14)
H5CA H 1.1160 0.0029 0.3349
O1C O 0.9381(4) -0.4244(3) 0.33814(13)
O3C O 1.0728(4) -0.3521(4) 0.34829(14)
O3A O 0.9272(4) -0.4249(6) 0.15171(14)
H1A H 0.8862 -0.3242 0.1528
H2A H 0.8886 -0.2090 0.1522
C8A C 1.0678(4) -0.0020(6) 0.16489(14)
H5A H 1.1131 -0.0029 0.1651
H5B H 1.0029 0.1160 0.1651
O1B O 1.3625(5) 0.4244(3) 0.16186(13)
O3B O 1.4249(6) 0.3521(4) 0.15171(14)
O3CA O 1.3521(4) 0.4249(6) 0.34829(14)
H1CA H 1.2104 0.3242 0.3472
H2CA H 1.0976 0.2090 0.3478
H5BA H 0.9971 0.1131 0.3349
O1BA O 0.6375(5) 0.0619(4) 0.33814(13)
O3BA O 0.5751(6) -0.0728(4) 0.34829(14)
loop_
_geom_bond_atom_site_label_1
_geom_bond_atom_site_label_2
_geom_bond_site_symmetry_1
_geom_bond_site_symmetry_2
C1 C2 1_555 1_555
C2 H1 1_555 1_555
C3 C2 1_555 1_555
H2 C3 1_555 1_555
C4 C3 1_555 1_555
C5 C4 1_555 1_555
H3 C5 1_555 1_555
C6 C1 1_555 1_555
H4 C6 1_555 1_555
C7 C4 1_555 1_555
C8 C7 1_555 1_555
H5 C8 1_555 1_555
C9 H6 1_555 1_555
C10 C9 1_555 1_555
H7 C10 1_555 1_555
C11 H8 1_555 1_555
C12 C11 1_555 1_555
H9 C12 1_555 1_555
C13 C12 1_555 1_555
H10 C13 1_555 1_555
C14 C13 1_555 1_555
H11 C14 1_555 1_555
C15 C14 1_555 1_555
H12 C15 1_555 1_555
C16 H13 1_555 1_555
C17 C16 1_555 1_555
H14 C17 1_555 1_555
C18 C17 1_555 1_555
H15 C18 1_555 1_555
C19 C18 1_555 1_555
H16 C19 1_555 1_555
C20 C19 1_555 1_555
H17 C20 1_555 1_555
N1 C11 1_555 1_555
N2 C16 1_555 1_555
O1 S1 1_555 1_555
O2 S1 1_555 1_555
O3 S1 1_555 1_555
S1 C1 1_555 1_555
Cu1 N1 1_555 1_555
N1BA Cu1 1_555 1_555
C11BA N1BA 1_555 1_555
H8BA C11BA 1_555 1_555
C12BA C11BA 1_555 1_555
H9BA C12BA 1_555 1_555
C13BA C12BA 1_555 1_555
H10BA C13BA 1_555 1_555
C14BA C13BA 1_555 1_555
H11BA C14BA 1_555 1_555
C15BA N1BA 1_555 1_555
H12BA C15BA 1_555 1_555
N2BA Cu1 1_555 1_555
C16BA N2BA 1_555 1_555
H13BA C16BA 1_555 1_555
C17BA C16BA 1_555 1_555
H14BA C17BA 1_555 1_555
C18BA C17BA 1_555 1_555
H15BA C18BA 1_555 1_555
C19BA C18BA 1_555 1_555
H16BA C19BA 1_555 1_555
C20BA N2BA 1_555 1_555
H17BA C20BA 1_555 1_555
O2BA Cu1 1_555 1_555
S1BA O2BA 1_555 1_555
C1BA S1BA 1_555 1_555
C2BA C1BA 1_555 1_555
H1BA C2BA 1_555 1_555
C3BA C2BA 1_555 1_555
H2BA C3BA 1_555 1_555
C4BA C3BA 1_555 1_555
C5BA C4BA 1_555 1_555
H3BA C5BA 1_555 1_555
C6BA C1BA 1_555 1_555
H4BA C6BA 1_555 1_555
C7BA C4BA 1_555 1_555
C8BA C7BA 1_555 1_555
C7CA C8BA 1_555 1_555
C4CA C7CA 1_555 1_555
C3CA C4CA 1_555 1_555
C2CA C3CA 1_555 1_555
C1CA C2CA 1_555 1_555
C6CA C1CA 1_555 1_555
C5CA C4CA 1_555 1_555
H3CA C5CA 1_555 1_555
H4CA C6CA 1_555 1_555
S1CA C1CA 1_555 1_555
O1CA S1CA 1_555 1_555
O2CA S1CA 1_555 1_555
Cu1CA O2CA 1_555 1_555
N1CA Cu1CA 1_555 1_555
C11CA N1CA 1_555 1_555
H8CA C11CA 1_555 1_555
C12CA C11CA 1_555 1_555
H9CA C12CA 1_555 1_555
C13CA C12CA 1_555 1_555
H10CA C13CA 1_555 1_555
C14CA C13CA 1_555 1_555
H11CA C14CA 1_555 1_555
C15CA N1CA 1_555 1_555
H12CA C15CA 1_555 1_555
N1B Cu1CA 1_555 1_555
C11B N1B 1_555 1_555
H8B C11B 1_555 1_555
C12B C11B 1_555 1_555
H9B C12B 1_555 1_555
C13B C12B 1_555 1_555
H10B C13B 1_555 1_555
C14B C13B 1_555 1_555
H11B C14B 1_555 1_555
C15B N1B 1_555 1_555
H12B C15B 1_555 1_555
N2CA Cu1CA 1_555 1_555
C16CA N2CA 1_555 1_555
H13CA C16CA 1_555 1_555
C17CA C16CA 1_555 1_555
H14CA C17CA 1_555 1_555
C18CA C17CA 1_555 1_555
H15CA C18CA 1_555 1_555
C19CA C18CA 1_555 1_555
H16CA C19CA 1_555 1_555
C20CA N2CA 1_555 1_555
H17CA C20CA 1_555 1_555
N2B Cu1CA 1_555 1_555
C16B N2B 1_555 1_555
H13B C16B 1_555 1_555
C17B C16B 1_555 1_555
H14B C17B 1_555 1_555
C18B C17B 1_555 1_555
H15B C18B 1_555 1_555
C19B C18B 1_555 1_555
H16B C19B 1_555 1_555
C20B N2B 1_555 1_555
H17B C20B 1_555 1_555
O2B Cu1CA 1_555 1_555
S1B O2B 1_555 1_555
C1B S1B 1_555 1_555
C2B C1B 1_555 1_555
H1B C2B 1_555 1_555
C3B C2B 1_555 1_555
H2B C3B 1_555 1_555
C4B C3B 1_555 1_555
C5B C4B 1_555 1_555
H3B C5B 1_555 1_555
C6B C1B 1_555 1_555
H4B C6B 1_555 1_555
C7B C4B 1_555 1_555
C8B C7 1_555 1_555
C7A C8 1_555 1_555
C4A C7A 1_555 1_555
C3A C4A 1_555 1_555
C2A C3A 1_555 1_555
C1A C2A 1_555 1_555
C6A C1A 1_555 1_555
C5A C4A 1_555 1_555
H3A C5A 1_555 1_555
H4A C6A 1_555 1_555
S1A C1A 1_555 1_555
O1A S1A 1_555 1_555
O2A S1A 1_555 1_555
Cu1A O2A 1_555 1_555
N1A Cu1A 1_555 1_555
C11A N1A 1_555 1_555
H8A C11A 1_555 1_555
C12A C11A 1_555 1_555
H9A C12A 1_555 1_555
C13A C12A 1_555 1_555
H10A C13A 1_555 1_555
C14A C13A 1_555 1_555
H11A C14A 1_555 1_555
C15A N1A 1_555 1_555
H12A C15A 1_555 1_555
N1C Cu1A 1_555 1_555
C11C N1C 1_555 1_555
H8C C11C 1_555 1_555
C12C C11C 1_555 1_555
H9C C12C 1_555 1_555
C13C C12C 1_555 1_555
H10C C13C 1_555 1_555
C14C C13C 1_555 1_555
H11C C14C 1_555 1_555
C15C N1C 1_555 1_555
H12C C15C 1_555 1_555
N2A Cu1A 1_555 1_555
C16A N2A 1_555 1_555
H13A C16A 1_555 1_555
C17A C16A 1_555 1_555
H14A C17A 1_555 1_555
C18A C17A 1_555 1_555
H15A C18A 1_555 1_555
C19A C18A 1_555 1_555
H16A C19A 1_555 1_555
C20A N2A 1_555 1_555
H17A C20A 1_555 1_555
N2C Cu1A 1_555 1_555
C16C N2C 1_555 1_555
H13C C16C 1_555 1_555
C17C C16C 1_555 1_555
H14C C17C 1_555 1_555
C18C C17C 1_555 1_555
H15C C18C 1_555 1_555
C19C C18C 1_555 1_555
H16C C19C 1_555 1_555
C20C N2C 1_555 1_555
H17C C20C 1_555 1_555
O2C Cu1A 1_555 1_555
S1C O2C 1_555 1_555
C1C S1C 1_555 1_555
C2C C1C 1_555 1_555
H1C C2C 1_555 1_555
C3C C2C 1_555 1_555
H2C C3C 1_555 1_555
C4C C3C 1_555 1_555
C5C C4C 1_555 1_555
H3C C5C 1_555 1_555
C6C C1C 1_555 1_555
H4C C6C 1_555 1_555
C7C C4C 1_555 1_555
C8C C7BA 1_555 1_555
H5C C8C 1_555 1_555
C8CA C7CA 1_555 1_555
H5CA C8CA 1_555 1_555
O1C S1C 1_555 1_555
O3C S1C 1_555 1_555
O3A S1A 1_555 1_555
H1A C2A 1_555 1_555
H2A C3A 1_555 1_555
C8A C7B 1_555 1_555
H5A C8A 1_555 1_555
H5B C8B 1_555 1_555
O1B S1B 1_555 1_555
O3B S1B 1_555 1_555
O3CA S1CA 1_555 1_555
H1CA C2CA 1_555 1_555
H2CA C3CA 1_555 1_555
H5BA C8BA 1_555 1_555
O1BA S1BA 1_555 1_555
O3BA S1BA 1_555 1_555
C9A C10 1_555 1_555
H6A C9A 1_555 1_555
C10A C9A 1_555 1_555
C9B C10A 1_555 1_555
H6B C9B 1_555 1_555
C10B C9 1_555 1_555
H7B C10B 1_555 1_555
H7A C10A 1_555 1_555
C5 C6 1_555 1_555
C15 N1 1_555 1_555
C20 N2 1_555 1_555
N2 Cu1 1_555 1_555
O2 Cu1 1_555 1_555
C14BA C15BA 1_555 1_555
C19BA C20BA 1_555 1_555
C5BA C6BA 1_555 1_555
C6CA C5CA 1_555 1_555
C14CA C15CA 1_555 1_555
C14B C15B 1_555 1_555
C19CA C20CA 1_555 1_555
C19B C20B 1_555 1_555
C5B C6B 1_555 1_555
C7B C8B 1_555 1_555
C7A C8A 1_555 1_555
C6A C5A 1_555 1_555
C14A C15A 1_555 1_555
C14C C15C 1_555 1_555
C19A C20A 1_555 1_555
C19C C20C 1_555 1_555
C5C C6C 1_555 1_555
C7C C8C 1_555 1_555
C7C C8CA 1_555 1_555
C9B C10B 1_555 1_555

#END
