
#######################################################################
#
#                 Cambridge Crystallographic Data Centre
#                                CCDC 
#
#######################################################################
#
# If this CIF has been generated from an entry in the Cambridge 
# Structural Database, then it will include bibliographic, chemical, 
# crystal, experimental, refinement or atomic coordinate data resulting 
# from the CCDC's data processing and validation procedures.
#
#######################################################################

data_SAPWIR
_chemical_formula_moiety         
'C66 H58 N4 O2 P2 Rh1 1+,B1 F4 1-,1.75(C1 H2 Cl2)'
_chemical_name_systematic        
"((2,3,5,6-\h)-Bicyclo[2.2.1]hepta-2,5-diene)-(N,N'-(propane-1,1-diylbis(3-methyl-1H-indole-2,7-diyl))bis(4-(diphenylphosphino)benzamide))-rhodium tetrafluoroborate dichloromethane solvate"
_symmetry_cell_setting           triclinic
_symmetry_space_group_name_H-M   'P -1'
_symmetry_Int_Tables_number      2
_space_group_name_Hall           '-P 1'
loop_
_symmetry_equiv_pos_site_id
_symmetry_equiv_pos_as_xyz
1 x,y,z
2 -x,-y,-z
_cell_length_a                   13.2305(9)
_cell_length_b                   19.0703(16)
_cell_length_c                   26.5694(17)
_cell_angle_alpha                78.993(3)
_cell_angle_beta                 83.285(3)
_cell_angle_gamma                82.354(3)
_cell_volume                     6492.96
_exptl_crystal_colour            red
_exptl_crystal_description       block
_cell_formula_units_Z            4
loop_
_atom_site_label
_atom_site_type_symbol
_atom_site_fract_x
_atom_site_fract_y
_atom_site_fract_z
Rh1 Rh 0.14710(4) 0.16967(3) 0.38180(3)
P1 P 0.29778(14) 0.22247(11) 0.35956(9)
P2 P 0.22079(14) 0.05015(11) 0.39486(9)
O1 O 0.6392(4) 0.2254(3) 0.5303(2)
O2 O 0.2606(5) -0.1372(3) 0.6383(3)
N1 N 0.5003(5) 0.2040(4) 0.5880(3)
H1 H 0.4339 0.2018 0.5901
N2 N 0.3739(5) 0.1931(4) 0.6898(3)
H2 H 0.3313 0.2008 0.6658
N3 N 0.1865(5) -0.0316(3) 0.6599(3)
H3 H 0.1626 0.0128 0.6473
N4 N 0.2067(5) 0.0725(4) 0.7277(3)
H4 H 0.2130 0.0953 0.6956
C1 C 0.2376(6) 0.1785(5) 0.7651(4)
H5 H 0.2342 0.1892 0.8007
C2 C 0.1601(6) 0.2339(5) 0.7369(4)
H6 H 0.1632 0.2265 0.7008
H7 H 0.0904 0.2262 0.7534
C3 C 0.1789(7) 0.3102(6) 0.7370(5)
H8 H 0.1807 0.3168 0.7725
H9 H 0.1236 0.3435 0.7212
H10 H 0.2445 0.3197 0.7173
C4 C 0.4368(8) 0.1601(6) 0.8253(4)
H11 H 0.3877 0.1958 0.8400
H12 H 0.5060 0.1649 0.8329
H13 H 0.4194 0.1117 0.8405
C5 C 0.4324(6) 0.1724(4) 0.7683(4)
C6 C 0.3464(6) 0.1822(5) 0.7426(4)
C7 C 0.4790(5) 0.1896(4) 0.6814(3)
C8 C 0.5170(6) 0.1765(4) 0.7299(4)
C9 C 0.6249(6) 0.1685(5) 0.7325(4)
H14 H 0.6529 0.1597 0.7647
C10 C 0.6868(6) 0.1737(5) 0.6878(4)
H15 H 0.7589 0.1684 0.6894
C11 C 0.6486(6) 0.1868(5) 0.6390(4)
H16 H 0.6948 0.1904 0.6087
C12 C 0.5432(6) 0.1945(4) 0.6352(3)
C13 C 0.5487(6) 0.2163(4) 0.5397(3)
C14 C 0.4857(6) 0.2154(4) 0.4964(3)
C15 C 0.4027(6) 0.1752(4) 0.5024(3)
H17 H 0.3835 0.1468 0.5347
C16 C 0.3489(6) 0.1776(4) 0.4599(3)
H18 H 0.2918 0.1510 0.4638
C17 C 0.3766(5) 0.2178(4) 0.4122(3)
C18 C 0.4595(6) 0.2584(5) 0.4068(3)
H19 H 0.4786 0.2872 0.3747
C19 C 0.5132(6) 0.2556(5) 0.4490(4)
H20 H 0.5703 0.2822 0.4452
C20 C 0.2760(6) 0.3189(4) 0.3382(3)
C21 C 0.2709(6) 0.3499(5) 0.2861(3)
H21 H 0.2826 0.3199 0.2609
C22 C 0.2491(7) 0.4235(5) 0.2708(4)
H22 H 0.2456 0.4434 0.2353
C23 C 0.2326(7) 0.4675(5) 0.3067(4)
H23 H 0.2198 0.5181 0.2961
C24 C 0.2346(8) 0.4388(5) 0.3581(5)
H24 H 0.2211 0.4694 0.3830
C25 C 0.2563(7) 0.3645(4) 0.3741(4)
H25 H 0.2577 0.3451 0.4097
C26 C 0.3763(6) 0.1913(5) 0.3056(3)
C27 C 0.4831(6) 0.1799(5) 0.3012(4)
H26 H 0.5194 0.1870 0.3282
C28 C 0.5367(7) 0.1582(5) 0.2577(4)
H27 H 0.6093 0.1490 0.2556
C29 C 0.4839(8) 0.1502(6) 0.2173(4)
H28 H 0.5206 0.1373 0.1868
C30 C 0.3785(8) 0.1607(6) 0.2214(4)
H29 H 0.3423 0.1546 0.1940
C31 C 0.3257(7) 0.1801(5) 0.2651(4)
H30 H 0.2530 0.1861 0.2679
C32 C 0.1974(13) 0.0577(9) 0.8702(5)
H31 H 0.2231 0.1028 0.8725
H32 H 0.2414 0.0171 0.8877
H33 H 0.1272 0.0573 0.8867
C33 C 0.1985(9) 0.0516(7) 0.8136(4)
C34 C 0.2112(7) 0.1022(5) 0.7710(4)
C35 C 0.1905(6) 0.0018(5) 0.7431(4)
C36 C 0.1839(8) -0.0133(6) 0.7975(4)
C37 C 0.1709(10) -0.0834(7) 0.8234(4)
H34 H 0.1693 -0.0952 0.8599
C38 C 0.1608(9) -0.1336(6) 0.7954(4)
H35 H 0.1492 -0.1807 0.8127
C39 C 0.1668(7) -0.1184(5) 0.7412(4)
H36 H 0.1603 -0.1554 0.7228
C40 C 0.1818(6) -0.0514(5) 0.7146(3)
C41 C 0.2240(5) -0.0746(4) 0.6255(3)
C42 C 0.2180(5) -0.0430(4) 0.5697(3)
C43 C 0.2692(5) -0.0823(4) 0.5331(4)
H37 H 0.3048 -0.1284 0.5440
C44 C 0.2682(5) -0.0549(4) 0.4816(4)
H38 H 0.3035 -0.0826 0.4574
C45 C 0.2167(5) 0.0127(4) 0.4634(3)
C46 C 0.1658(5) 0.0506(4) 0.5004(3)
H39 H 0.1303 0.0967 0.4895
C47 C 0.1650(5) 0.0236(4) 0.5522(3)
H40 H 0.1279 0.0507 0.5763
C48 C 0.1468(6) -0.0062(4) 0.3681(4)
C49 C 0.1196(6) 0.0202(5) 0.3175(4)
H41 H 0.1394 0.0649 0.2993
C50 C 0.0640(6) -0.0196(6) 0.2945(4)
H42 H 0.0466 -0.0027 0.2603
C51 C 0.0338(6) -0.0837(6) 0.3216(5)
H43 H -0.0052 -0.1104 0.3058
C52 C 0.0592(6) -0.1100(5) 0.3713(5)
H44 H 0.0383 -0.1545 0.3893
C53 C 0.1162(5) -0.0705(4) 0.3949(4)
H45 H 0.1337 -0.0879 0.4291
C54 C 0.3544(5) 0.0236(4) 0.3722(4)
C55 C 0.4309(6) 0.0263(4) 0.4037(4)
H46 H 0.4141 0.0407 0.4362
C56 C 0.5324(7) 0.0074(5) 0.3862(5)
H47 H 0.5853 0.0084 0.4072
C57 C 0.5568(7) -0.0126(5) 0.3392(6)
H48 H 0.6265 -0.0254 0.3280
C58 C 0.4817(7) -0.0147(5) 0.3076(5)
H49 H 0.4995 -0.0278 0.2747
C59 C 0.3797(6) 0.0028(4) 0.3248(4)
H50 H 0.3272 0.0005 0.3038
C60 C 0.0456(6) 0.2716(4) 0.3685(4)
H51 H 0.0880 0.2997 0.3434
C61 C 0.0569(6) 0.2513(4) 0.4202(4)
H52 H 0.1091 0.2631 0.4378
C62 C -0.0295(6) 0.2063(4) 0.4442(4)
H53 H -0.0450 0.1995 0.4824
C63 C -0.0019(5) 0.1378(4) 0.4199(3)
H54 H 0.0192 0.0907 0.4372
C64 C -0.0138(5) 0.1586(4) 0.3682(4)
H55 H -0.0016 0.1288 0.3428
C65 C -0.0505(6) 0.2391(4) 0.3597(4)
H56 H -0.0836 0.2600 0.3273
C66 C -0.1156(6) 0.2445(5) 0.4110(4)
H57 H -0.1762 0.2176 0.4159
H58 H -0.1365 0.2947 0.4158
Rh2 Rh 0.19532(4) 0.51555(4) 0.85125(2)
P3 P 0.35904(14) 0.53786(11) 0.81556(8)
P4 P 0.24446(16) 0.43135(16) 0.92203(8)
O3 O 0.6802(6) 0.7271(4) 0.9026(3)
O4 O 0.2207(5) 0.5307(5) 1.1559(2)
N5 N 0.5307(7) 0.7708(4) 0.9428(3)
H59 H 0.4640 0.7697 0.9449
N6 N 0.3887(8) 0.8598(5) 1.0086(3)
H60 H 0.3515 0.8366 0.9933
N7 N 0.1569(6) 0.6356(7) 1.1114(3)
H61 H 0.1396 0.6587 1.0812
N8 N 0.1976(8) 0.7876(7) 1.0963(4)
H62 H 0.2123 0.7729 1.0666
C67 C 0.2374(13) 0.9161(9) 1.0622(6)
H63 H 0.2268 0.9608 1.0776
C68 C 0.1663(14) 0.9300(12) 1.0158(8)
H64 H 0.1819 0.9738 0.9910
H65 H 0.1773 0.8887 0.9974
C69 C 0.0569(15) 0.939(2) 1.0400(12)
H66 H 0.0339 0.9903 1.0388
H67 H 0.0536 0.9142 1.0759
H68 H 0.0125 0.9186 1.0210
C70 C 0.4221(14) 0.9863(6) 1.0938(5)
H69 H 0.3635 1.0226 1.0863
H70 H 0.4850 1.0097 1.0889
H71 H 0.4121 0.9612 1.1295
C71 C 0.4310(13) 0.9325(6) 1.0577(4)
C72 C 0.3480(13) 0.9054(7) 1.0437(4)
C73 C 0.4934(10) 0.8561(5) 1.0012(4)
C74 C 0.5229(11) 0.9020(5) 1.0326(4)
C75 C 0.6282(12) 0.9061(6) 1.0335(4)
H72 H 0.6501 0.9365 1.0535
C76 C 0.6977(11) 0.8667(6) 1.0057(4)
H73 H 0.7686 0.8686 1.0073
C77 C 0.6670(9) 0.8224(5) 0.9744(4)
H74 H 0.7173 0.7958 0.9548
C78 C 0.5659(9) 0.8177(5) 0.9721(3)
C79 C 0.5880(9) 0.7286(5) 0.9128(4)
C80 C 0.5283(7) 0.6809(5) 0.8909(3)
C81 C 0.4391(7) 0.6550(6) 0.9157(4)
H75 H 0.4116 0.6675 0.9479
C82 C 0.3897(7) 0.6101(5) 0.8929(4)
H76 H 0.3278 0.5930 0.9094
C83 C 0.4299(6) 0.5905(5) 0.8467(3)
C84 C 0.5197(6) 0.6172(5) 0.8219(3)
H77 H 0.5468 0.6058 0.7894
C85 C 0.5684(7) 0.6603(5) 0.8452(3)
H78 H 0.6314 0.6762 0.8292
C86 C 0.3547(5) 0.5931(4) 0.7521(3)
C87 C 0.3666(6) 0.5631(5) 0.7073(3)
H79 H 0.3855 0.5129 0.7093
C88 C 0.3509(7) 0.6062(7) 0.6603(4)
H80 H 0.3596 0.5866 0.6296
C89 C 0.3211(7) 0.6813(8) 0.6592(6)
H81 H 0.3079 0.7121 0.6275
C90 C 0.3116(7) 0.7092(6) 0.7032(6)
H82 H 0.2931 0.7593 0.7017
C91 C 0.3278(6) 0.6669(5) 0.7487(5)
H83 H 0.3208 0.6875 0.7789
C92 C 0.4410(5) 0.4588(4) 0.8037(3)
C93 C 0.5462(6) 0.4462(4) 0.8088(3)
H84 H 0.5780 0.4793 0.8226
C94 C 0.6039(6) 0.3875(5) 0.7944(3)
H85 H 0.6752 0.3801 0.7981
C95 C 0.5595(7) 0.3383(5) 0.7743(4)
H86 H 0.6003 0.2979 0.7637
C96 C 0.4559(7) 0.3486(5) 0.7698(4)
H87 H 0.4251 0.3148 0.7563
C97 C 0.3966(6) 0.4072(4) 0.7846(3)
H88 H 0.3248 0.4130 0.7820
C98 C 0.1692(13) 0.9267(10) 1.1804(6)
H89 H 0.0985 0.9499 1.1809
H90 H 0.2150 0.9599 1.1597
H91 H 0.1891 0.9139 1.2157
C99 C 0.1771(10) 0.8584(10) 1.1568(5)
C100 C 0.2064(11) 0.8577(9) 1.1031(5)
C101 C 0.1630(8) 0.7435(10) 1.1420(4)
C102 C 0.1536(9) 0.7887(10) 1.1809(6)
C103 C 0.1229(8) 0.7572(11) 1.2318(4)
H92 H 0.1145 0.7846 1.2587
C104 C 0.1053(9) 0.6868(11) 1.2419(6)
H93 H 0.0868 0.6643 1.2763
C105 C 0.1142(7) 0.6484(9) 1.2027(4)
H94 H 0.0974 0.6003 1.2111
C106 C 0.1451(7) 0.6737(9) 1.1529(4)
C107 C 0.1937(7) 0.5653(8) 1.1161(4)
C108 C 0.1987(6) 0.5337(7) 1.0677(3)
C109 C 0.2433(7) 0.4646(8) 1.0705(4)
H95 H 0.2666 0.4383 1.1019
C110 C 0.2544(7) 0.4329(7) 1.0269(4)
H96 H 0.2860 0.3849 1.0287
C111 C 0.2201(6) 0.4703(6) 0.9806(3)
C112 C 0.1745(6) 0.5387(7) 0.9787(3)
H97 H 0.1505 0.5644 0.9473
C113 C 0.1619(6) 0.5722(6) 1.0217(3)
H98 H 0.1292 0.6200 1.0198
C114 C 0.1687(6) 0.3554(6) 0.9333(4)
C115 C 0.1616(7) 0.3228(7) 0.8918(4)
H99 H 0.1962 0.3401 0.8593
C116 C 0.1046(8) 0.2652(6) 0.8969(5)
H100 H 0.1006 0.2432 0.8681
C117 C 0.0545(9) 0.2402(8) 0.9435(6)
H101 H 0.0150 0.2011 0.9470
C118 C 0.0612(8) 0.2715(8) 0.9851(6)
H102 H 0.0272 0.2527 1.0174
C119 C 0.1181(7) 0.3318(7) 0.9813(4)
H103 H 0.1209 0.3543 1.0100
C120 C 0.3767(6) 0.3900(6) 0.9271(3)
C121 C 0.4456(6) 0.4290(7) 0.9430(3)
H104 H 0.4229 0.4748 0.9521
C122 C 0.5473(7) 0.4003(8) 0.9454(4)
H105 H 0.5941 0.4266 0.9564
C123 C 0.5810(8) 0.3356(7) 0.9323(4)
H106 H 0.6509 0.3167 0.9340
C124 C 0.5127(7) 0.2967(6) 0.9165(4)
H107 H 0.5359 0.2514 0.9069
C125 C 0.4115(7) 0.3240(6) 0.9147(4)
H108 H 0.3648 0.2966 0.9047
C126 C 0.1168(6) 0.5774(5) 0.7843(3)
H109 H 0.1698 0.5752 0.7571
C127 C 0.1097(6) 0.6182(6) 0.8224(4)
H110 H 0.1573 0.6492 0.8267
C128 C 0.0099(6) 0.6039(7) 0.8566(4)
H111 H -0.0190 0.6398 0.8790
C129 C 0.0325(6) 0.5257(7) 0.8829(4)
H112 H 0.0401 0.5083 0.9184
C130 C 0.0393(6) 0.4864(7) 0.8447(4)
H113 H 0.0528 0.4355 0.8490
C131 C 0.0223(7) 0.5361(6) 0.7945(3)
H114 H 0.0044 0.5145 0.7657
C132 C -0.0566(7) 0.5935(7) 0.8142(4)
H115 H -0.1224 0.5752 0.8286
H116 H -0.0686 0.6375 0.7879
F1 F 0.1638(4) 0.2021(3) 0.5436(2)
F2 F 0.2654(3) 0.2394(3) 0.5952(2)
F3 F 0.0946(4) 0.2386(3) 0.6180(3)
F4 F 0.1995(4) 0.1343(3) 0.6210(2)
B1 B 0.1788(7) 0.2041(6) 0.5938(5)
F5 F 0.1183(5) 0.8167(5) 0.9402(3)
F6 F 0.1971(5) 0.7370(4) 1.0013(2)
F7 F 0.1920(5) 0.7103(4) 0.9215(2)
F8 F 0.2906(4) 0.7956(4) 0.9339(2)
B2 B 0.1995(10) 0.7627(9) 0.9481(5)
Cl1 Cl 0.0663(3) 0.2108(3) 0.21519(18)
Cl2 Cl 0.1479(5) 0.1096(3) 0.1514(3)
C133 C 0.0980(15) 0.1953(6) 0.1541(5)
H117 H 0.0361 0.2067 0.1351
H118 H 0.1485 0.2280 0.1365
Cl3 Cl 0.0064(5) 0.4380(3) 0.6235(3)
Cl4 Cl 0.1153(5) 0.5401(4) 0.6543(2)
C134 C 0.0425(17) 0.5213(8) 0.6116(7)
H119 H -0.0199 0.5563 0.6102
H120 H 0.0810 0.5288 0.5771
Cl5 Cl 0.4181(4) 0.5495(3) 0.3649(3)
Cl6 Cl 0.6051(5) 0.6094(4) 0.3643(2)
C135 C 0.4757(8) 0.6197(9) 0.3730(10)
H121 H 0.4546 0.6292 0.4083
H122 H 0.4502 0.6627 0.3486
Cl7 Cl 0.3447(5) 0.3976(5) 0.4955(3)
Cl8 Cl 0.1330(5) 0.4487(5) 0.4895(3)
C136 C 0.2250(8) 0.4026(13) 0.5259(6)
H123 H 0.2070 0.3531 0.5386
H124 H 0.2252 0.4255 0.5563
Cl9 Cl 0.1094(7) 0.6654(5) 0.4689(4)
Cl10 Cl 0.2734(7) 0.5965(5) 0.5284(3)
C137 C 0.2345(10) 0.6347(13) 0.4697(5)
H125 H 0.2749 0.6753 0.4552
H126 H 0.2508 0.5988 0.4467
C138? C 0.111(6) 1.005(2) 1.015(3)
H127? H 0.2084 0.9266 0.9828
H128? H 0.1165 0.8941 1.0216
H129? H 0.0401 1.0020 1.0296
H130? H 0.1112 1.0306 0.9788
H131? H 0.1458 1.0313 1.0345
loop_
_geom_bond_atom_site_label_1
_geom_bond_atom_site_label_2
_geom_bond_site_symmetry_1
_geom_bond_site_symmetry_2
Rh1 P1 1_555 1_555
P1 C17 1_555 1_555
P2 Rh1 1_555 1_555
O1 C13 1_555 1_555
O2 C41 1_555 1_555
N1 H1 1_555 1_555
N2 H2 1_555 1_555
N3 H3 1_555 1_555
N4 H4 1_555 1_555
C1 H5 1_555 1_555
C2 C1 1_555 1_555
H6 C2 1_555 1_555
H7 C2 1_555 1_555
C3 C2 1_555 1_555
H8 C3 1_555 1_555
H9 C3 1_555 1_555
H10 C3 1_555 1_555
C4 H11 1_555 1_555
H12 C4 1_555 1_555
H13 C4 1_555 1_555
C5 C4 1_555 1_555
C6 N2 1_555 1_555
C7 N2 1_555 1_555
C8 C5 1_555 1_555
C9 C8 1_555 1_555
H14 C9 1_555 1_555
C10 C9 1_555 1_555
H15 C10 1_555 1_555
C11 C10 1_555 1_555
H16 C11 1_555 1_555
C12 N1 1_555 1_555
C13 N1 1_555 1_555
C14 C13 1_555 1_555
C15 C14 1_555 1_555
H17 C15 1_555 1_555
C16 C15 1_555 1_555
H18 C16 1_555 1_555
C17 C16 1_555 1_555
C18 C17 1_555 1_555
H19 C18 1_555 1_555
C19 C14 1_555 1_555
H20 C19 1_555 1_555
C20 P1 1_555 1_555
C21 C20 1_555 1_555
H21 C21 1_555 1_555
C22 C21 1_555 1_555
H22 C22 1_555 1_555
C23 C22 1_555 1_555
H23 C23 1_555 1_555
C24 C23 1_555 1_555
H24 C24 1_555 1_555
C25 C20 1_555 1_555
H25 C25 1_555 1_555
C26 P1 1_555 1_555
C27 C26 1_555 1_555
H26 C27 1_555 1_555
C28 C27 1_555 1_555
H27 C28 1_555 1_555
C29 C28 1_555 1_555
H28 C29 1_555 1_555
C30 C29 1_555 1_555
H29 C30 1_555 1_555
C31 C26 1_555 1_555
H30 C31 1_555 1_555
C32 H31 1_555 1_555
H32 C32 1_555 1_555
H33 C32 1_555 1_555
C33 C32 1_555 1_555
C34 N4 1_555 1_555
C35 N4 1_555 1_555
C36 C33 1_555 1_555
C37 C36 1_555 1_555
H34 C37 1_555 1_555
C38 C37 1_555 1_555
H35 C38 1_555 1_555
C39 C38 1_555 1_555
H36 C39 1_555 1_555
C40 N3 1_555 1_555
C41 N3 1_555 1_555
C42 C41 1_555 1_555
C43 C42 1_555 1_555
H37 C43 1_555 1_555
C44 C43 1_555 1_555
H38 C44 1_555 1_555
C45 P2 1_555 1_555
C46 C45 1_555 1_555
H39 C46 1_555 1_555
C47 C42 1_555 1_555
H40 C47 1_555 1_555
C48 P2 1_555 1_555
C49 C48 1_555 1_555
H41 C49 1_555 1_555
C50 C49 1_555 1_555
H42 C50 1_555 1_555
C51 C50 1_555 1_555
H43 C51 1_555 1_555
C52 C51 1_555 1_555
H44 C52 1_555 1_555
C53 C48 1_555 1_555
H45 C53 1_555 1_555
C54 P2 1_555 1_555
C55 C54 1_555 1_555
H46 C55 1_555 1_555
C56 C55 1_555 1_555
H47 C56 1_555 1_555
C57 C56 1_555 1_555
H48 C57 1_555 1_555
C58 C57 1_555 1_555
H49 C58 1_555 1_555
C59 C54 1_555 1_555
H50 C59 1_555 1_555
C60 Rh1 1_555 1_555
H51 C60 1_555 1_555
C61 Rh1 1_555 1_555
H52 C61 1_555 1_555
C62 C61 1_555 1_555
H53 C62 1_555 1_555
C63 Rh1 1_555 1_555
H54 C63 1_555 1_555
C64 Rh1 1_555 1_555
H55 C64 1_555 1_555
C65 C60 1_555 1_555
H56 C65 1_555 1_555
C66 C62 1_555 1_555
H57 C66 1_555 1_555
H58 C66 1_555 1_555
Rh2 P3 1_555 1_555
P3 C83 1_555 1_555
P4 Rh2 1_555 1_555
O3 C79 1_555 1_555
O4 C107 1_555 1_555
N5 H59 1_555 1_555
N6 H60 1_555 1_555
N7 H61 1_555 1_555
N8 H62 1_555 1_555
C67 H63 1_555 1_555
C68 C67 1_555 1_555
H64 C68 1_555 1_555
H65 C68 1_555 1_555
C69 C68 1_555 1_555
H66 C69 1_555 1_555
H67 C69 1_555 1_555
H68 C69 1_555 1_555
C70 H69 1_555 1_555
H70 C70 1_555 1_555
H71 C70 1_555 1_555
C71 C70 1_555 1_555
C72 N6 1_555 1_555
C73 N6 1_555 1_555
C74 C71 1_555 1_555
C75 C74 1_555 1_555
H72 C75 1_555 1_555
C76 C75 1_555 1_555
H73 C76 1_555 1_555
C77 C76 1_555 1_555
H74 C77 1_555 1_555
C78 N5 1_555 1_555
C79 N5 1_555 1_555
C80 C79 1_555 1_555
C81 C80 1_555 1_555
H75 C81 1_555 1_555
C82 C81 1_555 1_555
H76 C82 1_555 1_555
C83 C82 1_555 1_555
C84 C83 1_555 1_555
H77 C84 1_555 1_555
C85 C80 1_555 1_555
H78 C85 1_555 1_555
C86 P3 1_555 1_555
C87 C86 1_555 1_555
H79 C87 1_555 1_555
C88 C87 1_555 1_555
H80 C88 1_555 1_555
C89 C88 1_555 1_555
H81 C89 1_555 1_555
C90 C89 1_555 1_555
H82 C90 1_555 1_555
C91 C86 1_555 1_555
H83 C91 1_555 1_555
C92 P3 1_555 1_555
C93 C92 1_555 1_555
H84 C93 1_555 1_555
C94 C93 1_555 1_555
H85 C94 1_555 1_555
C95 C94 1_555 1_555
H86 C95 1_555 1_555
C96 C95 1_555 1_555
H87 C96 1_555 1_555
C97 C92 1_555 1_555
H88 C97 1_555 1_555
C98 H89 1_555 1_555
H90 C98 1_555 1_555
H91 C98 1_555 1_555
C99 C98 1_555 1_555
C100 N8 1_555 1_555
C101 N8 1_555 1_555
C102 C99 1_555 1_555
C103 C102 1_555 1_555
H92 C103 1_555 1_555
C104 C103 1_555 1_555
H93 C104 1_555 1_555
C105 C104 1_555 1_555
H94 C105 1_555 1_555
C106 N7 1_555 1_555
C107 N7 1_555 1_555
C108 C107 1_555 1_555
C109 C108 1_555 1_555
H95 C109 1_555 1_555
C110 C109 1_555 1_555
H96 C110 1_555 1_555
C111 P4 1_555 1_555
C112 C111 1_555 1_555
H97 C112 1_555 1_555
C113 C108 1_555 1_555
H98 C113 1_555 1_555
C114 P4 1_555 1_555
C115 C114 1_555 1_555
H99 C115 1_555 1_555
C116 C115 1_555 1_555
H100 C116 1_555 1_555
C117 C116 1_555 1_555
H101 C117 1_555 1_555
C118 C117 1_555 1_555
H102 C118 1_555 1_555
C119 C114 1_555 1_555
H103 C119 1_555 1_555
C120 P4 1_555 1_555
C121 C120 1_555 1_555
H104 C121 1_555 1_555
C122 C121 1_555 1_555
H105 C122 1_555 1_555
C123 C122 1_555 1_555
H106 C123 1_555 1_555
C124 C123 1_555 1_555
H107 C124 1_555 1_555
C125 C120 1_555 1_555
H108 C125 1_555 1_555
C126 Rh2 1_555 1_555
H109 C126 1_555 1_555
C127 Rh2 1_555 1_555
H110 C127 1_555 1_555
C128 C127 1_555 1_555
H111 C128 1_555 1_555
C129 Rh2 1_555 1_555
H112 C129 1_555 1_555
C130 Rh2 1_555 1_555
H113 C130 1_555 1_555
C131 C126 1_555 1_555
H114 C131 1_555 1_555
C132 C128 1_555 1_555
H115 C132 1_555 1_555
H116 C132 1_555 1_555
F1 B1 1_555 1_555
F2 B1 1_555 1_555
F3 B1 1_555 1_555
F4 B1 1_555 1_555
F5 B2 1_555 1_555
F6 B2 1_555 1_555
F7 B2 1_555 1_555
F8 B2 1_555 1_555
Cl1 C133 1_555 1_555
Cl2 C133 1_555 1_555
C133 H117 1_555 1_555
H118 C133 1_555 1_555
Cl3 C134 1_555 1_555
Cl4 C134 1_555 1_555
C134 H119 1_555 1_555
H120 C134 1_555 1_555
Cl5 C135 1_555 1_555
Cl6 C135 1_555 1_555
C135 H121 1_555 1_555
H122 C135 1_555 1_555
Cl7 C136 1_555 1_555
Cl8 C136 1_555 1_555
C136 H123 1_555 1_555
H124 C136 1_555 1_555
Cl9 C137 1_555 1_555
Cl10 C137 1_555 1_555
C137 H125 1_555 1_555
H126 C137 1_555 1_555
C1 C6 1_555 1_555
C1 C34 1_555 1_555
C5 C6 1_555 1_555
C7 C8 1_555 1_555
C7 C12 1_555 1_555
C11 C12 1_555 1_555
C18 C19 1_555 1_555
C24 C25 1_555 1_555
C30 C31 1_555 1_555
C33 C34 1_555 1_555
C35 C36 1_555 1_555
C35 C40 1_555 1_555
C39 C40 1_555 1_555
C44 C45 1_555 1_555
C46 C47 1_555 1_555
C52 C53 1_555 1_555
C58 C59 1_555 1_555
C60 C61 1_555 1_555
C62 C63 1_555 1_555
C63 C64 1_555 1_555
C64 C65 1_555 1_555
C65 C66 1_555 1_555
C67 C72 1_555 1_555
C67 C100 1_555 1_555
C71 C72 1_555 1_555
C73 C74 1_555 1_555
C73 C78 1_555 1_555
C77 C78 1_555 1_555
C84 C85 1_555 1_555
C90 C91 1_555 1_555
C96 C97 1_555 1_555
C99 C100 1_555 1_555
C101 C102 1_555 1_555
C101 C106 1_555 1_555
C105 C106 1_555 1_555
C110 C111 1_555 1_555
C112 C113 1_555 1_555
C118 C119 1_555 1_555
C124 C125 1_555 1_555
C126 C127 1_555 1_555
C128 C129 1_555 1_555
C129 C130 1_555 1_555
C130 C131 1_555 1_555
C131 C132 1_555 1_555

#END
