
#######################################################################
#
#                 Cambridge Crystallographic Data Centre
#                                CCDC 
#
#######################################################################
#
# If this CIF has been generated from an entry in the Cambridge 
# Structural Database, then it will include bibliographic, chemical, 
# crystal, experimental, refinement or atomic coordinate data resulting 
# from the CCDC's data processing and validation procedures.
#
#######################################################################

data_SATWOA
_chemical_formula_moiety         'C84 H136 O8 P8 Pt4,2(C1 H2 Cl2)'
_chemical_name_systematic        
"bis((\m~2~-Anthracene-1,8-diyl)-(\m~2~-1,2-squarato-O,O')-bis(bis(triethylphosphine)-platinum(ii))) dichloromethane solvate"
_symmetry_cell_setting           monoclinic
_symmetry_space_group_name_H-M   'P 21/n'
_symmetry_Int_Tables_number      14
_space_group_name_Hall           '-P 2yn'
loop_
_symmetry_equiv_pos_site_id
_symmetry_equiv_pos_as_xyz
1 x,y,z
2 1/2-x,1/2+y,1/2-z
3 -x,-y,-z
4 1/2+x,1/2-y,1/2+z
_cell_length_a                   17.5260(3)
_cell_length_b                   14.8251(3)
_cell_length_c                   18.8229(3)
_cell_angle_alpha                90
_cell_angle_beta                 104.6539(10)
_cell_angle_gamma                90
_cell_volume                     4731.57
_exptl_crystal_colour            yellow
_exptl_crystal_description       prism
_cell_formula_units_Z            2
_exptl_crystal_recrystallization_method acetone/chloroform/dichloromethane
loop_
_atom_site_label
_atom_site_type_symbol
_atom_site_fract_x
_atom_site_fract_y
_atom_site_fract_z
Pt1 Pt 0.029959(11) 0.469196(14) 0.229638(10)
Pt2 Pt 0.260410(11) 0.535265(14) -0.041887(10)
P1 P 0.00519(9) 0.32899(10) 0.17566(8)
P2 P 0.05549(9) 0.61310(10) 0.27809(8)
P3 P 0.23901(9) 0.38345(10) -0.06321(8)
P4 P 0.29482(10) 0.68242(11) -0.01042(9)
O1 O 0.0959(2) 0.4976(3) 0.15182(19)
O2 O 0.2522(3) 0.4479(3) 0.2843(2)
O3 O 0.3609(3) 0.4797(4) 0.1688(3)
O4 O 0.1987(2) 0.5239(3) 0.0411(2)
C1 C 0.1702(3) 0.4903(4) 0.1597(3)
C2 C 0.2402(3) 0.4686(4) 0.2193(3)
C3 C 0.2905(4) 0.4827(4) 0.1661(3)
C4 C 0.2173(3) 0.5025(4) 0.1085(3)
C5 C 0.3044(3) 0.5488(4) -0.1301(3)
C6 C 0.3845(3) 0.5502(4) -0.1235(3)
H1 H 0.4191 0.5431 -0.0760
C7 C 0.4177(3) 0.5615(4) -0.1841(3)
H2 H 0.4734 0.5614 -0.1767
C8 C 0.3700(3) 0.5725(4) -0.2530(3)
H3 H 0.3925 0.5812 -0.2934
C9 C 0.2864(3) 0.5709(4) -0.2646(3)
C10 C 0.2365(3) 0.5808(4) -0.3346(3)
H4 H 0.2594 0.5895 -0.3748
C11 C 0.1541(3) 0.5786(4) -0.3486(3)
C12 C 0.1058(3) 0.5922(4) -0.4207(3)
H5 H 0.1292 0.6014 -0.4604
C13 C 0.0258(3) 0.5918(4) -0.4327(3)
H6 H -0.0063 0.6019 -0.4809
C14 C -0.0097(3) 0.5768(4) -0.3747(3)
H7 H -0.0656 0.5783 -0.3850
C15 C -0.0327(3) 0.4402(4) 0.3033(3)
C16 C 0.1186(3) 0.5634(4) -0.2883(3)
C17 C 0.1700(3) 0.5534(4) -0.2176(3)
H8 H 0.1473 0.5430 -0.1775
C18 C 0.2523(3) 0.5579(4) -0.2033(3)
C19 C -0.0430(4) 0.2483(4) 0.2222(4)
H9 H -0.0136 0.2463 0.2745
H10 H -0.0967 0.2710 0.2202
C20 C -0.0507(4) 0.1514(4) 0.1925(4)
H11 H -0.0773 0.1141 0.2218
H12 H 0.0020 0.1268 0.1955
H13 H -0.0815 0.1515 0.1412
C21 C 0.0900(4) 0.2718(4) 0.1588(4)
H14 H 0.0718 0.2199 0.1258
H15 H 0.1184 0.3137 0.1335
C22 C 0.1462(4) 0.2384(6) 0.2286(4)
H16 H 0.1911 0.2083 0.2165
H17 H 0.1188 0.1956 0.2532
H18 H 0.1651 0.2896 0.2612
C23 C -0.0612(4) 0.3363(4) 0.0822(3)
H19 H -0.0734 0.2745 0.0627
H20 H -0.1114 0.3647 0.0853
C24 C -0.0275(4) 0.3890(5) 0.0295(3)
H21 H -0.0656 0.3903 -0.0187
H22 H 0.0214 0.3604 0.0248
H23 H -0.0163 0.4508 0.0477
C25 C -0.0297(4) 0.6881(5) 0.2686(4)
H24 H -0.0106 0.7511 0.2723
H25 H -0.0646 0.6800 0.2187
C26 C -0.0786(4) 0.6750(5) 0.3235(4)
H26 H -0.1224 0.7181 0.3132
H27 H -0.0456 0.6850 0.3732
H28 H -0.0996 0.6134 0.3195
C27 C 0.1032(3) 0.6195(5) 0.3757(3)
H29 H 0.1065 0.6835 0.3911
H30 H 0.0703 0.5874 0.4032
C28 C 0.1862(4) 0.5786(5) 0.3956(4)
H31 H 0.2088 0.5838 0.4487
H32 H 0.2196 0.6110 0.3695
H33 H 0.1833 0.5149 0.3815
C29 C 0.1188(4) 0.6782(4) 0.2340(4)
H34 H 0.1667 0.6422 0.2351
H35 H 0.0907 0.6873 0.1819
C30 C 0.1442(5) 0.7696(6) 0.2681(5)
H36 H 0.1782 0.7993 0.2412
H37 H 0.1732 0.7616 0.3196
H38 H 0.0974 0.8070 0.2657
C31 C 0.1425(4) 0.3500(5) -0.0512(4)
H39 H 0.1358 0.3778 -0.0054
H40 H 0.1014 0.3758 -0.0923
C32 C 0.1272(5) 0.2479(5) -0.0478(5)
H41 H 0.0741 0.2379 -0.0413
H42 H 0.1662 0.2214 -0.0063
H43 H 0.1316 0.2194 -0.0935
C33 C 0.3094(4) 0.3182(4) 0.0064(4)
H44 H 0.2918 0.3181 0.0523
H45 H 0.3092 0.2550 -0.0106
C34 C 0.3939(4) 0.3544(5) 0.0228(4)
H46 H 0.4283 0.3167 0.0604
H47 H 0.3949 0.4166 0.0407
H48 H 0.4124 0.3531 -0.0221
C35 C 0.2384(4) 0.3337(4) -0.1526(3)
H49 H 0.2134 0.2735 -0.1552
H50 H 0.2043 0.3715 -0.1912
C36 C 0.3181(4) 0.3224(5) -0.1716(4)
H51 H 0.3097 0.2951 -0.2204
H52 H 0.3524 0.2833 -0.1351
H53 H 0.3431 0.3816 -0.1714
C37 C 0.4016(4) 0.6999(5) 0.0184(4)
H54 H 0.4241 0.6904 -0.0243
H55 H 0.4124 0.7631 0.0348
C38 C 0.4424(4) 0.6366(6) 0.0804(4)
H56 H 0.4993 0.6487 0.0938
H57 H 0.4330 0.5739 0.0641
H58 H 0.4212 0.6466 0.1232
C39 C 0.2583(10) 0.7575(10) -0.0953(12)
H59 H 0.2835 0.7354 -0.1335
H60 H 0.2009 0.7468 -0.1139
C40 C 0.2706(12) 0.8586(12) -0.0898(11)
H61 H 0.2484 0.8862 -0.1379
H62 H 0.3271 0.8718 -0.0739
H63 H 0.2442 0.8833 -0.0540
C41 C 0.2485(8) 0.7232(9) 0.0570(8)
H64 H 0.1908 0.7246 0.0352
H65 H 0.2584 0.6795 0.0981
C42 C 0.2743(9) 0.8161(8) 0.0883(7)
H66 H 0.2464 0.8313 0.1257
H67 H 0.2618 0.8609 0.0487
H68 H 0.3312 0.8159 0.1104
Pt1B Pt -0.029959(11) 0.530804(14) -0.229638(10)
Pt2B Pt -0.260410(11) 0.464735(14) 0.041887(10)
P1B P -0.00519(9) 0.67101(10) -0.17566(8)
P2B P -0.05549(9) 0.38690(10) -0.27809(8)
P3B P -0.23901(9) 0.61655(10) 0.06321(8)
P4B P -0.29482(10) 0.31758(11) 0.01042(9)
O1B O -0.0959(2) 0.5024(3) -0.15182(19)
O2B O -0.2522(3) 0.5521(3) -0.2843(2)
O3B O -0.3609(3) 0.5203(4) -0.1688(3)
O4B O -0.1987(2) 0.4761(3) -0.0411(2)
C1B C -0.1702(3) 0.5097(4) -0.1597(3)
C2B C -0.2402(3) 0.5314(4) -0.2193(3)
C3B C -0.2905(4) 0.5173(4) -0.1661(3)
C4B C -0.2173(3) 0.4975(4) -0.1085(3)
C5B C -0.3044(3) 0.4512(4) 0.1301(3)
C6B C -0.3845(3) 0.4498(4) 0.1235(3)
H1B H -0.4191 0.4569 0.0760
C7B C -0.4177(3) 0.4385(4) 0.1841(3)
H2B H -0.4734 0.4386 0.1767
C8B C -0.3700(3) 0.4275(4) 0.2530(3)
H3B H -0.3925 0.4188 0.2934
C9B C -0.2864(3) 0.4291(4) 0.2646(3)
C10B C -0.2365(3) 0.4192(4) 0.3346(3)
H4B H -0.2594 0.4105 0.3748
C11B C -0.1541(3) 0.4214(4) 0.3486(3)
C12B C -0.1058(3) 0.4078(4) 0.4207(3)
H5B H -0.1292 0.3986 0.4604
C13B C -0.0258(3) 0.4082(4) 0.4327(3)
H6B H 0.0063 0.3981 0.4809
C14B C 0.0097(3) 0.4232(4) 0.3747(3)
H7B H 0.0656 0.4217 0.3850
C15B C 0.0327(3) 0.5598(4) -0.3033(3)
C16B C -0.1186(3) 0.4366(4) 0.2883(3)
C17B C -0.1700(3) 0.4466(4) 0.2176(3)
H8B H -0.1473 0.4570 0.1775
C18B C -0.2523(3) 0.4421(4) 0.2033(3)
C19B C 0.0430(4) 0.7517(4) -0.2222(4)
H9B H 0.0136 0.7537 -0.2745
H10B H 0.0967 0.7290 -0.2202
C20B C 0.0507(4) 0.8486(4) -0.1925(4)
H11B H 0.0773 0.8859 -0.2218
H12B H -0.0020 0.8732 -0.1955
H13B H 0.0815 0.8485 -0.1412
C21B C -0.0900(4) 0.7282(4) -0.1588(4)
H14B H -0.0718 0.7801 -0.1258
H15B H -0.1184 0.6863 -0.1335
C22B C -0.1462(4) 0.7616(6) -0.2286(4)
H16B H -0.1911 0.7917 -0.2165
H17B H -0.1188 0.8044 -0.2532
H18B H -0.1651 0.7104 -0.2612
C23B C 0.0612(4) 0.6637(4) -0.0822(3)
H19B H 0.0734 0.7255 -0.0627
H20B H 0.1114 0.6353 -0.0853
C24B C 0.0275(4) 0.6110(5) -0.0295(3)
H21B H 0.0656 0.6097 0.0187
H22B H -0.0214 0.6396 -0.0248
H23B H 0.0163 0.5492 -0.0477
C25B C 0.0297(4) 0.3119(5) -0.2686(4)
H24B H 0.0106 0.2489 -0.2723
H25B H 0.0646 0.3200 -0.2187
C26B C 0.0786(4) 0.3250(5) -0.3235(4)
H26B H 0.1224 0.2819 -0.3132
H27B H 0.0456 0.3150 -0.3732
H28B H 0.0996 0.3866 -0.3195
C27B C -0.1032(3) 0.3805(5) -0.3757(3)
H29B H -0.1065 0.3165 -0.3911
H30B H -0.0703 0.4126 -0.4032
C28B C -0.1862(4) 0.4214(5) -0.3956(4)
H31B H -0.2088 0.4162 -0.4487
H32B H -0.2196 0.3890 -0.3695
H33B H -0.1833 0.4851 -0.3815
C29B C -0.1188(4) 0.3218(4) -0.2340(4)
H34B H -0.1667 0.3578 -0.2351
H35B H -0.0907 0.3127 -0.1819
C30B C -0.1442(5) 0.2304(6) -0.2681(5)
H36B H -0.1782 0.2007 -0.2412
H37B H -0.1732 0.2384 -0.3196
H38B H -0.0974 0.1930 -0.2657
C31B C -0.1425(4) 0.6500(5) 0.0512(4)
H39B H -0.1358 0.6222 0.0054
H40B H -0.1014 0.6242 0.0923
C32B C -0.1272(5) 0.7521(5) 0.0478(5)
H41B H -0.0741 0.7621 0.0413
H42B H -0.1662 0.7786 0.0063
H43B H -0.1316 0.7806 0.0935
C33B C -0.3094(4) 0.6818(4) -0.0064(4)
H44B H -0.2918 0.6819 -0.0523
H45B H -0.3092 0.7450 0.0106
C34B C -0.3939(4) 0.6456(5) -0.0228(4)
H46B H -0.4283 0.6833 -0.0604
H47B H -0.3949 0.5834 -0.0407
H48B H -0.4124 0.6469 0.0221
C35B C -0.2384(4) 0.6663(4) 0.1526(3)
H49B H -0.2134 0.7265 0.1552
H50B H -0.2043 0.6285 0.1912
C36B C -0.3181(4) 0.6776(5) 0.1716(4)
H51B H -0.3097 0.7049 0.2204
H52B H -0.3524 0.7167 0.1351
H53B H -0.3431 0.6184 0.1714
C37B C -0.4016(4) 0.3001(5) -0.0184(4)
H54B H -0.4241 0.3096 0.0243
H55B H -0.4124 0.2369 -0.0348
C38B C -0.4424(4) 0.3634(6) -0.0804(4)
H56B H -0.4993 0.3513 -0.0938
H57B H -0.4330 0.4261 -0.0641
H58B H -0.4212 0.3534 -0.1232
C39B C -0.2583(10) 0.2425(10) 0.0953(12)
H59B H -0.2835 0.2646 0.1335
H60B H -0.2009 0.2532 0.1139
C40B C -0.2706(12) 0.1414(12) 0.0898(11)
H61B H -0.2484 0.1138 0.1379
H62B H -0.3271 0.1282 0.0739
H63B H -0.2442 0.1167 0.0540
C41B C -0.2485(8) 0.2768(9) -0.0570(8)
H64B H -0.1908 0.2754 -0.0352
H65B H -0.2584 0.3205 -0.0981
C42B C -0.2743(9) 0.1839(8) -0.0883(7)
H66B H -0.2464 0.1687 -0.1257
H67B H -0.2618 0.1391 -0.0487
H68B H -0.3312 0.1841 -0.1104
C47 C 0.0638(8) 0.9299(9) 0.0604(7)
H79 H 0.1021 0.8794 0.0696
H80 H 0.0219 0.9165 0.0155
Cl1 Cl 0.0218(4) 0.9459(5) 0.1386(4)
Cl2 Cl 0.1095(6) 1.0287(6) 0.0512(5)
C43? C 0.2619(19) 0.769(2) -0.0718(14)
H69? H 0.2735 0.7523 -0.1189
H70? H 0.2037 0.7718 -0.0809
C44? C 0.2941(14) 0.8673(16) -0.0525(13)
H71? H 0.2718 0.9077 -0.0938
H72? H 0.3518 0.8671 -0.0430
H73? H 0.2790 0.8885 -0.0087
C45? C 0.2790(11) 0.7241(13) 0.0810(10)
H74? H 0.2968 0.6768 0.1187
H75? H 0.3121 0.7782 0.0968
C46? C 0.1946(9) 0.7472(13) 0.0771(9)
H76? H 0.1898 0.7656 0.1258
H77? H 0.1612 0.6943 0.0607
H78? H 0.1775 0.7969 0.0423
C48? C 0.0970(11) 0.9358(11) 0.0989(9)
H81? H 0.0872 0.8833 0.0653
H82? H 0.1461 0.9240 0.1373
Cl3? Cl 0.0439(6) 0.8802(8) 0.0071(6)
Cl4? Cl 0.0764(5) 0.8446(6) 0.0450(5)
loop_
_geom_bond_atom_site_label_1
_geom_bond_atom_site_label_2
_geom_bond_site_symmetry_1
_geom_bond_site_symmetry_2
Pt1 P1 1_555 1_555
Pt2 P3 1_555 1_555
P1 C19 1_555 1_555
P2 Pt1 1_555 1_555
P3 C31 1_555 1_555
P4 Pt2 1_555 1_555
O1 Pt1 1_555 1_555
O2 C2 1_555 1_555
O3 C3 1_555 1_555
O4 Pt2 1_555 1_555
C1 O1 1_555 1_555
C2 C1 1_555 1_555
C3 C2 1_555 1_555
C4 O4 1_555 1_555
C5 Pt2 1_555 1_555
C6 C5 1_555 1_555
H1 C6 1_555 1_555
C7 C6 1_555 1_555
H2 C7 1_555 1_555
C8 C7 1_555 1_555
H3 C8 1_555 1_555
C9 C8 1_555 1_555
C10 C9 1_555 1_555
H4 C10 1_555 1_555
C11 C10 1_555 1_555
C12 C11 1_555 1_555
H5 C12 1_555 1_555
C13 C12 1_555 1_555
H6 C13 1_555 1_555
C14 C13 1_555 1_555
H7 C14 1_555 1_555
C15 Pt1 1_555 1_555
C16 C11 1_555 1_555
C17 C16 1_555 1_555
H8 C17 1_555 1_555
C18 C5 1_555 1_555
C19 H9 1_555 1_555
H10 C19 1_555 1_555
C20 C19 1_555 1_555
H11 C20 1_555 1_555
H12 C20 1_555 1_555
H13 C20 1_555 1_555
C21 P1 1_555 1_555
H14 C21 1_555 1_555
H15 C21 1_555 1_555
C22 C21 1_555 1_555
H16 C22 1_555 1_555
H17 C22 1_555 1_555
H18 C22 1_555 1_555
C23 P1 1_555 1_555
H19 C23 1_555 1_555
H20 C23 1_555 1_555
C24 C23 1_555 1_555
H21 C24 1_555 1_555
H22 C24 1_555 1_555
H23 C24 1_555 1_555
C25 P2 1_555 1_555
H24 C25 1_555 1_555
H25 C25 1_555 1_555
C26 C25 1_555 1_555
H26 C26 1_555 1_555
H27 C26 1_555 1_555
H28 C26 1_555 1_555
C27 P2 1_555 1_555
H29 C27 1_555 1_555
H30 C27 1_555 1_555
C28 C27 1_555 1_555
H31 C28 1_555 1_555
H32 C28 1_555 1_555
H33 C28 1_555 1_555
C29 P2 1_555 1_555
H34 C29 1_555 1_555
H35 C29 1_555 1_555
C30 C29 1_555 1_555
H36 C30 1_555 1_555
H37 C30 1_555 1_555
H38 C30 1_555 1_555
C31 H39 1_555 1_555
H40 C31 1_555 1_555
C32 C31 1_555 1_555
H41 C32 1_555 1_555
H42 C32 1_555 1_555
H43 C32 1_555 1_555
C33 P3 1_555 1_555
H44 C33 1_555 1_555
H45 C33 1_555 1_555
C34 C33 1_555 1_555
H46 C34 1_555 1_555
H47 C34 1_555 1_555
H48 C34 1_555 1_555
C35 P3 1_555 1_555
H49 C35 1_555 1_555
H50 C35 1_555 1_555
C36 C35 1_555 1_555
H51 C36 1_555 1_555
H52 C36 1_555 1_555
H53 C36 1_555 1_555
C37 P4 1_555 1_555
H54 C37 1_555 1_555
H55 C37 1_555 1_555
C38 C37 1_555 1_555
H56 C38 1_555 1_555
H57 C38 1_555 1_555
H58 C38 1_555 1_555
C39 P4 1_555 1_555
H59 C39 1_555 1_555
H60 C39 1_555 1_555
C40 C39 1_555 1_555
H61 C40 1_555 1_555
H62 C40 1_555 1_555
H63 C40 1_555 1_555
C41 P4 1_555 1_555
H64 C41 1_555 1_555
H65 C41 1_555 1_555
C42 C41 1_555 1_555
H66 C42 1_555 1_555
H67 C42 1_555 1_555
H68 C42 1_555 1_555
C47 H79 1_555 1_555
H80 C47 1_555 1_555
Cl1 C47 1_555 1_555
Cl2 C47 1_555 1_555
Pt1B P1B 1_555 1_555
Pt2B P3B 1_555 1_555
P1B C19B 1_555 1_555
P2B Pt1B 1_555 1_555
P3B C31B 1_555 1_555
P4B Pt2B 1_555 1_555
O1B Pt1B 1_555 1_555
O2B C2B 1_555 1_555
O3B C3B 1_555 1_555
O4B Pt2B 1_555 1_555
C1B O1B 1_555 1_555
C2B C1B 1_555 1_555
C3B C2B 1_555 1_555
C4B O4B 1_555 1_555
C5B Pt2B 1_555 1_555
C6B C5B 1_555 1_555
H1B C6B 1_555 1_555
C7B C6B 1_555 1_555
H2B C7B 1_555 1_555
C8B C7B 1_555 1_555
H3B C8B 1_555 1_555
C9B C8B 1_555 1_555
C10B C9B 1_555 1_555
H4B C10B 1_555 1_555
C11B C10B 1_555 1_555
C12B C11B 1_555 1_555
H5B C12B 1_555 1_555
C13B C12B 1_555 1_555
H6B C13B 1_555 1_555
C14B C15 1_555 1_555
H7B C14B 1_555 1_555
C15B C14 1_555 1_555
C16B C15 1_555 1_555
C17B C16B 1_555 1_555
H8B C17B 1_555 1_555
C18B C5B 1_555 1_555
C19B H9B 1_555 1_555
H10B C19B 1_555 1_555
C20B C19B 1_555 1_555
H11B C20B 1_555 1_555
H12B C20B 1_555 1_555
H13B C20B 1_555 1_555
C21B P1B 1_555 1_555
H14B C21B 1_555 1_555
H15B C21B 1_555 1_555
C22B C21B 1_555 1_555
H16B C22B 1_555 1_555
H17B C22B 1_555 1_555
H18B C22B 1_555 1_555
C23B P1B 1_555 1_555
H19B C23B 1_555 1_555
H20B C23B 1_555 1_555
C24B C23B 1_555 1_555
H21B C24B 1_555 1_555
H22B C24B 1_555 1_555
H23B C24B 1_555 1_555
C25B P2B 1_555 1_555
H24B C25B 1_555 1_555
H25B C25B 1_555 1_555
C26B C25B 1_555 1_555
H26B C26B 1_555 1_555
H27B C26B 1_555 1_555
H28B C26B 1_555 1_555
C27B P2B 1_555 1_555
H29B C27B 1_555 1_555
H30B C27B 1_555 1_555
C28B C27B 1_555 1_555
H31B C28B 1_555 1_555
H32B C28B 1_555 1_555
H33B C28B 1_555 1_555
C29B P2B 1_555 1_555
H34B C29B 1_555 1_555
H35B C29B 1_555 1_555
C30B C29B 1_555 1_555
H36B C30B 1_555 1_555
H37B C30B 1_555 1_555
H38B C30B 1_555 1_555
C31B H39B 1_555 1_555
H40B C31B 1_555 1_555
C32B C31B 1_555 1_555
H41B C32B 1_555 1_555
H42B C32B 1_555 1_555
H43B C32B 1_555 1_555
C33B P3B 1_555 1_555
H44B C33B 1_555 1_555
H45B C33B 1_555 1_555
C34B C33B 1_555 1_555
H46B C34B 1_555 1_555
H47B C34B 1_555 1_555
H48B C34B 1_555 1_555
C35B P3B 1_555 1_555
H49B C35B 1_555 1_555
H50B C35B 1_555 1_555
C36B C35B 1_555 1_555
H51B C36B 1_555 1_555
H52B C36B 1_555 1_555
H53B C36B 1_555 1_555
C37B P4B 1_555 1_555
H54B C37B 1_555 1_555
H55B C37B 1_555 1_555
C38B C37B 1_555 1_555
H56B C38B 1_555 1_555
H57B C38B 1_555 1_555
H58B C38B 1_555 1_555
C39B P4B 1_555 1_555
H59B C39B 1_555 1_555
H60B C39B 1_555 1_555
C40B C39B 1_555 1_555
H61B C40B 1_555 1_555
H62B C40B 1_555 1_555
H63B C40B 1_555 1_555
C41B P4B 1_555 1_555
H64B C41B 1_555 1_555
H65B C41B 1_555 1_555
C42B C41B 1_555 1_555
H66B C42B 1_555 1_555
H67B C42B 1_555 1_555
H68B C42B 1_555 1_555
C1 C4 1_555 1_555
C3 C4 1_555 1_555
C9 C18 1_555 1_555
C16 C15B 1_555 1_555
C17 C18 1_555 1_555
Pt1B C15B 1_555 1_555
C1B C4B 1_555 1_555
C3B C4B 1_555 1_555
C9B C18B 1_555 1_555
C11B C16B 1_555 1_555
C13B C14B 1_555 1_555
C17B C18B 1_555 1_555

#END
