# generated using pymatgen
data_P4H100Pt2C51Cl6O5
_symmetry_space_group_name_H-M   'P 1'
_cell_length_a   15.07150000
_cell_length_b   23.84970000
_cell_length_c   27.40520000
_cell_angle_alpha   99.27020000
_cell_angle_beta   90.00000000
_cell_angle_gamma   90.00000000
_symmetry_Int_Tables_number   1
_chemical_formula_structural   P4H100Pt2C51Cl6O5
_chemical_formula_sum   'P32 H800 Pt16 C408 Cl48 O40'
_cell_volume   9722.16448310
_cell_formula_units_Z   8
loop_
 _symmetry_equiv_pos_site_id
 _symmetry_equiv_pos_as_xyz
  1  'x, y, z'
loop_
 _atom_site_type_symbol
 _atom_site_label
 _atom_site_symmetry_multiplicity
 _atom_site_fract_x
 _atom_site_fract_y
 _atom_site_fract_z
 _atom_site_occupancy
  P  P1  1  0.447030  0.123400  0.838060  1.0
  P  P2  1  0.947030  0.123400  0.338060  1.0
  P  P3  1  0.447030  0.376600  0.161940  1.0
  P  P4  1  0.947030  0.376600  0.661940  1.0
  P  P5  1  0.552970  0.876600  0.161940  1.0
  P  P6  1  0.052970  0.876600  0.661940  1.0
  P  P7  1  0.552970  0.623400  0.838060  1.0
  P  P8  1  0.052970  0.623400  0.338060  1.0
  P  P9  1  0.149240  0.157220  0.867060  1.0
  P  P10  1  0.649240  0.157220  0.367060  1.0
  P  P11  1  0.149240  0.342780  0.132940  1.0
  P  P12  1  0.649240  0.342780  0.632940  1.0
  P  P13  1  0.850760  0.842780  0.132940  1.0
  P  P14  1  0.350760  0.842780  0.632940  1.0
  P  P15  1  0.850760  0.657220  0.867060  1.0
  P  P16  1  0.350760  0.657220  0.367060  1.0
  P  P17  1  0.421010  0.144610  0.102160  1.0
  P  P18  1  0.921010  0.144610  0.602160  1.0
  P  P19  1  0.421010  0.355390  0.897840  1.0
  P  P20  1  0.921010  0.355390  0.397840  1.0
  P  P21  1  0.578990  0.855390  0.897840  1.0
  P  P22  1  0.078990  0.855390  0.397840  1.0
  P  P23  1  0.578990  0.644610  0.102160  1.0
  P  P24  1  0.078990  0.644610  0.602160  1.0
  P  P25  1  0.126480  0.094130  0.108140  1.0
  P  P26  1  0.626480  0.094130  0.608140  1.0
  P  P27  1  0.126480  0.405870  0.891860  1.0
  P  P28  1  0.626480  0.405870  0.391860  1.0
  P  P29  1  0.873520  0.905870  0.891860  1.0
  P  P30  1  0.373520  0.905870  0.391860  1.0
  P  P31  1  0.873520  0.594130  0.108140  1.0
  P  P32  1  0.373520  0.594130  0.608140  1.0
  H  H33  1  0.745500  0.117200  0.003600  1
  H  H34  1  0.245500  0.117200  0.503600  1
  H  H35  1  0.745500  0.382800  0.996400  1
  H  H36  1  0.245500  0.382800  0.496400  1
  H  H37  1  0.254500  0.882800  0.996400  1
  H  H38  1  0.754500  0.882800  0.496400  1
  H  H39  1  0.254500  0.617200  0.003600  1
  H  H40  1  0.754500  0.617200  0.503600  1
  H  H41  1  0.475500  0.126800  0.921900  1
  H  H42  1  0.975500  0.126800  0.421900  1
  H  H43  1  0.475500  0.373200  0.078100  1
  H  H44  1  0.975500  0.373200  0.578100  1
  H  H45  1  0.524500  0.873200  0.078100  1
  H  H46  1  0.024500  0.873200  0.578100  1
  H  H47  1  0.524500  0.626800  0.921900  1
  H  H48  1  0.024500  0.626800  0.421900  1
  H  H49  1  0.486800  0.063700  0.893600  1
  H  H50  1  0.986800  0.063700  0.393600  1
  H  H51  1  0.486800  0.436300  0.106400  1
  H  H52  1  0.986800  0.436300  0.606400  1
  H  H53  1  0.513200  0.936300  0.106400  1
  H  H54  1  0.013200  0.936300  0.606400  1
  H  H55  1  0.513200  0.563700  0.893600  1
  H  H56  1  0.013200  0.563700  0.393600  1
  H  H57  1  0.160300  0.185200  0.952300  1
  H  H58  1  0.660300  0.185200  0.452300  1
  H  H59  1  0.160300  0.314800  0.047700  1
  H  H60  1  0.660300  0.314800  0.547700  1
  H  H61  1  0.839700  0.814800  0.047700  1
  H  H62  1  0.339700  0.814800  0.547700  1
  H  H63  1  0.839700  0.685200  0.952300  1
  H  H64  1  0.339700  0.685200  0.452300  1
  H  H65  1  0.156200  0.239800  0.925500  1
  H  H66  1  0.656200  0.239800  0.425500  1
  H  H67  1  0.156200  0.260200  0.074500  1
  H  H68  1  0.656200  0.260200  0.574500  1
  H  H69  1  0.843800  0.760200  0.074500  1
  H  H70  1  0.343800  0.760200  0.574500  1
  H  H71  1  0.843800  0.739800  0.925500  1
  H  H72  1  0.343800  0.739800  0.425500  1
  H  H73  1  0.111200  0.221600  0.814300  1
  H  H74  1  0.611200  0.221600  0.314300  1
  H  H75  1  0.111200  0.278400  0.185700  1
  H  H76  1  0.611200  0.278400  0.685700  1
  H  H77  1  0.888800  0.778400  0.185700  1
  H  H78  1  0.388800  0.778400  0.685700  1
  H  H79  1  0.888800  0.721600  0.814300  1
  H  H80  1  0.388800  0.721600  0.314300  1
  H  H81  1  0.083300  0.158700  0.789900  1
  H  H82  1  0.583300  0.158700  0.289900  1
  H  H83  1  0.083300  0.341300  0.210100  1
  H  H84  1  0.583300  0.341300  0.710100  1
  H  H85  1  0.916700  0.841300  0.210100  1
  H  H86  1  0.416700  0.841300  0.710100  1
  H  H87  1  0.916700  0.658700  0.789900  1
  H  H88  1  0.416700  0.658700  0.289900  1
  H  H89  1  0.390500  0.210200  0.049100  1
  H  H90  1  0.890500  0.210200  0.549100  1
  H  H91  1  0.390500  0.289800  0.950900  1
  H  H92  1  0.890500  0.289800  0.450900  1
  H  H93  1  0.609500  0.789800  0.950900  1
  H  H94  1  0.109500  0.789800  0.450900  1
  H  H95  1  0.609500  0.710200  0.049100  1
  H  H96  1  0.109500  0.710200  0.549100  1
  H  H97  1  0.412100  0.243100  0.103500  1
  H  H98  1  0.912100  0.243100  0.603500  1
  H  H99  1  0.412100  0.256900  0.896500  1
  H  H100  1  0.912100  0.256900  0.396500  1
  H  H101  1  0.587900  0.756900  0.896500  1
  H  H102  1  0.087900  0.756900  0.396500  1
  H  H103  1  0.587900  0.743100  0.103500  1
  H  H104  1  0.087900  0.743100  0.603500  1
  H  H105  1  0.086600  0.170700  0.169300  1
  H  H106  1  0.586600  0.170700  0.669300  1
  H  H107  1  0.086600  0.329300  0.830700  1
  H  H108  1  0.586600  0.329300  0.330700  1
  H  H109  1  0.913400  0.829300  0.830700  1
  H  H110  1  0.413400  0.829300  0.330700  1
  H  H111  1  0.913400  0.670700  0.169300  1
  H  H112  1  0.413400  0.670700  0.669300  1
  H  H113  1  0.061800  0.184700  0.115300  1
  H  H114  1  0.561800  0.184700  0.615300  1
  H  H115  1  0.061800  0.315300  0.884700  1
  H  H116  1  0.561800  0.315300  0.384700  1
  H  H117  1  0.938200  0.815300  0.884700  1
  H  H118  1  0.438200  0.815300  0.384700  1
  H  H119  1  0.938200  0.684700  0.115300  1
  H  H120  1  0.438200  0.684700  0.615300  1
  H  H121  1  0.079500  0.099700  0.028100  1
  H  H122  1  0.579500  0.099700  0.528100  1
  H  H123  1  0.079500  0.400300  0.971900  1
  H  H124  1  0.579500  0.400300  0.471900  1
  H  H125  1  0.920500  0.900300  0.971900  1
  H  H126  1  0.420500  0.900300  0.471900  1
  H  H127  1  0.920500  0.599700  0.028100  1
  H  H128  1  0.420500  0.599700  0.528100  1
  H  H129  1  0.105100  0.035800  0.032300  1
  H  H130  1  0.605100  0.035800  0.532300  1
  H  H131  1  0.105100  0.464200  0.967700  1
  H  H132  1  0.605100  0.464200  0.467700  1
  H  H133  1  0.894900  0.964200  0.967700  1
  H  H134  1  0.394900  0.964200  0.467700  1
  H  H135  1  0.894900  0.535800  0.032300  1
  H  H136  1  0.394900  0.535800  0.532300  1
  H  H137  1  0.610100  0.095400  0.930600  1
  H  H138  1  0.110100  0.095400  0.430600  1
  H  H139  1  0.610100  0.404600  0.069400  1
  H  H140  1  0.110100  0.404600  0.569400  1
  H  H141  1  0.389900  0.904600  0.069400  1
  H  H142  1  0.889900  0.904600  0.569400  1
  H  H143  1  0.389900  0.595400  0.930600  1
  H  H144  1  0.889900  0.595400  0.430600  1
  H  H145  1  0.612900  0.147300  0.900100  1
  H  H146  1  0.112900  0.147300  0.400100  1
  H  H147  1  0.612900  0.352700  0.099900  1
  H  H148  1  0.112900  0.352700  0.599900  1
  H  H149  1  0.387100  0.852700  0.099900  1
  H  H150  1  0.887100  0.852700  0.599900  1
  H  H151  1  0.387100  0.647300  0.900100  1
  H  H152  1  0.887100  0.647300  0.400100  1
  H  H153  1  0.624200  0.083500  0.871900  1
  H  H154  1  0.124200  0.083500  0.371900  1
  H  H155  1  0.624200  0.416500  0.128100  1
  H  H156  1  0.124200  0.416500  0.628100  1
  H  H157  1  0.375800  0.916500  0.128100  1
  H  H158  1  0.875800  0.916500  0.628100  1
  H  H159  1  0.375800  0.583500  0.871900  1
  H  H160  1  0.875800  0.583500  0.371900  1
  H  H161  1  0.030900  0.234300  0.972400  1
  H  H162  1  0.530900  0.234300  0.472400  1
  H  H163  1  0.030900  0.265700  0.027600  1
  H  H164  1  0.530900  0.265700  0.527600  1
  H  H165  1  0.969100  0.765700  0.027600  1
  H  H166  1  0.469100  0.765700  0.527600  1
  H  H167  1  0.969100  0.734300  0.972400  1
  H  H168  1  0.469100  0.734300  0.472400  1
  H  H169  1  0.008400  0.173100  0.941800  1
  H  H170  1  0.508400  0.173100  0.441800  1
  H  H171  1  0.008400  0.326900  0.058200  1
  H  H172  1  0.508400  0.326900  0.558200  1
  H  H173  1  0.991600  0.826900  0.058200  1
  H  H174  1  0.491600  0.826900  0.558200  1
  H  H175  1  0.991600  0.673100  0.941800  1
  H  H176  1  0.491600  0.673100  0.441800  1
  H  H177  1  0.004500  0.228100  0.915200  1
  H  H178  1  0.504500  0.228100  0.415200  1
  H  H179  1  0.004500  0.271900  0.084800  1
  H  H180  1  0.504500  0.271900  0.584800  1
  H  H181  1  0.995500  0.771900  0.084800  1
  H  H182  1  0.495500  0.771900  0.584800  1
  H  H183  1  0.995500  0.728100  0.915200  1
  H  H184  1  0.495500  0.728100  0.415200  1
  H  H185  1  0.949300  0.215500  0.810100  1
  H  H186  1  0.449300  0.215500  0.310100  1
  H  H187  1  0.949300  0.284500  0.189900  1
  H  H188  1  0.449300  0.284500  0.689900  1
  H  H189  1  0.050700  0.784500  0.189900  1
  H  H190  1  0.550700  0.784500  0.689900  1
  H  H191  1  0.050700  0.715500  0.810100  1
  H  H192  1  0.550700  0.715500  0.310100  1
  H  H193  1  0.977900  0.228400  0.867100  1
  H  H194  1  0.477900  0.228400  0.367100  1
  H  H195  1  0.977900  0.271600  0.132900  1
  H  H196  1  0.477900  0.271600  0.632900  1
  H  H197  1  0.022100  0.771600  0.132900  1
  H  H198  1  0.522100  0.771600  0.632900  1
  H  H199  1  0.022100  0.728400  0.867100  1
  H  H200  1  0.522100  0.728400  0.367100  1
  H  H201  1  0.950000  0.165400  0.842600  1
  H  H202  1  0.450000  0.165400  0.342600  1
  H  H203  1  0.950000  0.334600  0.157400  1
  H  H204  1  0.450000  0.334600  0.657400  1
  H  H205  1  0.050000  0.834600  0.157400  1
  H  H206  1  0.550000  0.834600  0.657400  1
  H  H207  1  0.050000  0.665400  0.842600  1
  H  H208  1  0.550000  0.665400  0.342600  1
  H  H209  1  0.532400  0.258300  0.048400  1
  H  H210  1  0.032400  0.258300  0.548400  1
  H  H211  1  0.532400  0.241700  0.951600  1
  H  H212  1  0.032400  0.241700  0.451600  1
  H  H213  1  0.467600  0.741700  0.951600  1
  H  H214  1  0.967600  0.741700  0.451600  1
  H  H215  1  0.467600  0.758300  0.048400  1
  H  H216  1  0.967600  0.758300  0.548400  1
  H  H217  1  0.548000  0.191200  0.034900  1
  H  H218  1  0.048000  0.191200  0.534900  1
  H  H219  1  0.548000  0.308800  0.965100  1
  H  H220  1  0.048000  0.308800  0.465100  1
  H  H221  1  0.452000  0.808800  0.965100  1
  H  H222  1  0.952000  0.808800  0.465100  1
  H  H223  1  0.452000  0.691200  0.034900  1
  H  H224  1  0.952000  0.691200  0.534900  1
  H  H225  1  0.569800  0.223600  0.089400  1
  H  H226  1  0.069800  0.223600  0.589400  1
  H  H227  1  0.569800  0.276400  0.910600  1
  H  H228  1  0.069800  0.276400  0.410600  1
  H  H229  1  0.430200  0.776400  0.910600  1
  H  H230  1  0.930200  0.776400  0.410600  1
  H  H231  1  0.430200  0.723600  0.089400  1
  H  H232  1  0.930200  0.723600  0.589400  1
  H  H233  1  0.924200  0.159100  0.156200  1
  H  H234  1  0.424200  0.159100  0.656200  1
  H  H235  1  0.924200  0.340900  0.843800  1
  H  H236  1  0.424200  0.340900  0.343800  1
  H  H237  1  0.075800  0.840900  0.843800  1
  H  H238  1  0.575800  0.840900  0.343800  1
  H  H239  1  0.075800  0.659100  0.156200  1
  H  H240  1  0.575800  0.659100  0.656200  1
  H  H241  1  0.966700  0.099000  0.161800  1
  H  H242  1  0.466700  0.099000  0.661800  1
  H  H243  1  0.966700  0.401000  0.838200  1
  H  H244  1  0.466700  0.401000  0.338200  1
  H  H245  1  0.033300  0.901000  0.838200  1
  H  H246  1  0.533300  0.901000  0.338200  1
  H  H247  1  0.033300  0.599000  0.161800  1
  H  H248  1  0.533300  0.599000  0.661800  1
  H  H249  1  0.942200  0.112800  0.108200  1
  H  H250  1  0.442200  0.112800  0.608200  1
  H  H251  1  0.942200  0.387200  0.891800  1
  H  H252  1  0.442200  0.387200  0.391800  1
  H  H253  1  0.057800  0.887200  0.891800  1
  H  H254  1  0.557800  0.887200  0.391800  1
  H  H255  1  0.057800  0.612800  0.108200  1
  H  H256  1  0.557800  0.612800  0.608200  1
  H  H257  1  0.949300  0.040700  0.016800  1
  H  H258  1  0.449300  0.040700  0.516800  1
  H  H259  1  0.949300  0.459300  0.983200  1
  H  H260  1  0.449300  0.459300  0.483200  1
  H  H261  1  0.050700  0.959300  0.983200  1
  H  H262  1  0.550700  0.959300  0.483200  1
  H  H263  1  0.050700  0.540700  0.016800  1
  H  H264  1  0.550700  0.540700  0.516800  1
  H  H265  1  0.936700  0.087600  0.065000  1
  H  H266  1  0.436700  0.087600  0.565000  1
  H  H267  1  0.936700  0.412400  0.935000  1
  H  H268  1  0.436700  0.412400  0.435000  1
  H  H269  1  0.063300  0.912400  0.935000  1
  H  H270  1  0.563300  0.912400  0.435000  1
  H  H271  1  0.063300  0.587600  0.065000  1
  H  H272  1  0.563300  0.587600  0.565000  1
  H  H273  1  0.962400  0.023800  0.070500  1
  H  H274  1  0.462400  0.023800  0.570500  1
  H  H275  1  0.962400  0.476200  0.929500  1
  H  H276  1  0.462400  0.476200  0.429500  1
  H  H277  1  0.037600  0.976200  0.929500  1
  H  H278  1  0.537600  0.976200  0.429500  1
  H  H279  1  0.037600  0.523800  0.070500  1
  H  H280  1  0.537600  0.523800  0.570500  1
  H  H281  1  0.806100  0.101100  0.996100  1
  H  H282  1  0.306100  0.101100  0.496100  1
  H  H283  1  0.806100  0.398900  0.003900  1
  H  H284  1  0.306100  0.398900  0.503900  1
  H  H285  1  0.193900  0.898900  0.003900  1
  H  H286  1  0.693900  0.898900  0.503900  1
  H  H287  1  0.193900  0.601100  0.996100  1
  H  H288  1  0.693900  0.601100  0.496100  1
  H  H289  1  0.292100  0.042300  0.178900  1.0
  H  H290  1  0.792100  0.042300  0.678900  1.0
  H  H291  1  0.292100  0.457700  0.821100  1.0
  H  H292  1  0.792100  0.457700  0.321100  1.0
  H  H293  1  0.707900  0.957700  0.821100  1.0
  H  H294  1  0.207900  0.957700  0.321100  1.0
  H  H295  1  0.707900  0.542300  0.178900  1.0
  H  H296  1  0.207900  0.542300  0.678900  1.0
  H  H297  1  0.290900  0.042100  0.264500  1.0
  H  H298  1  0.790900  0.042100  0.764500  1.0
  H  H299  1  0.290900  0.457900  0.735500  1.0
  H  H300  1  0.790900  0.457900  0.235500  1.0
  H  H301  1  0.709100  0.957900  0.735500  1.0
  H  H302  1  0.209100  0.957900  0.235500  1.0
  H  H303  1  0.709100  0.542100  0.264500  1.0
  H  H304  1  0.209100  0.542100  0.764500  1.0
  H  H305  1  0.268300  0.125000  0.318500  1.0
  H  H306  1  0.768300  0.125000  0.818500  1.0
  H  H307  1  0.268300  0.375000  0.681500  1.0
  H  H308  1  0.768300  0.375000  0.181500  1.0
  H  H309  1  0.731700  0.875000  0.681500  1.0
  H  H310  1  0.231700  0.875000  0.181500  1.0
  H  H311  1  0.731700  0.625000  0.318500  1.0
  H  H312  1  0.231700  0.625000  0.818500  1.0
  H  H313  1  0.249900  0.227400  0.333333  1.0
  H  H314  1  0.749900  0.227400  0.833333  1.0
  H  H315  1  0.249900  0.272600  0.666667  1.0
  H  H316  1  0.749900  0.272600  0.166667  1.0
  H  H317  1  0.750100  0.772600  0.666667  1.0
  H  H318  1  0.250100  0.772600  0.166667  1.0
  H  H319  1  0.750100  0.727400  0.333333  1.0
  H  H320  1  0.250100  0.727400  0.833333  1.0
  H  H321  1  0.237200  0.331300  0.352300  1.0
  H  H322  1  0.737200  0.331300  0.852300  1.0
  H  H323  1  0.237200  0.168700  0.647700  1.0
  H  H324  1  0.737200  0.168700  0.147700  1.0
  H  H325  1  0.762800  0.668700  0.647700  1.0
  H  H326  1  0.262800  0.668700  0.147700  1.0
  H  H327  1  0.762800  0.831300  0.352300  1.0
  H  H328  1  0.262800  0.831300  0.852300  1.0
  H  H329  1  0.243900  0.417900  0.326500  1.0
  H  H330  1  0.743900  0.417900  0.826500  1.0
  H  H331  1  0.243900  0.082100  0.673500  1.0
  H  H332  1  0.743900  0.082100  0.173500  1.0
  H  H333  1  0.756100  0.582100  0.673500  1.0
  H  H334  1  0.256100  0.582100  0.173500  1.0
  H  H335  1  0.756100  0.917900  0.326500  1.0
  H  H336  1  0.256100  0.917900  0.826500  1.0
  H  H337  1  0.274500  0.424200  0.243400  1.0
  H  H338  1  0.774500  0.424200  0.743400  1.0
  H  H339  1  0.274500  0.075800  0.756600  1.0
  H  H340  1  0.774500  0.075800  0.256600  1.0
  H  H341  1  0.725500  0.575800  0.756600  1.0
  H  H342  1  0.225500  0.575800  0.256600  1.0
  H  H343  1  0.725500  0.924200  0.243400  1.0
  H  H344  1  0.225500  0.924200  0.743400  1.0
  H  H345  1  0.280700  0.234900  0.164700  1.0
  H  H346  1  0.780700  0.234900  0.664700  1.0
  H  H347  1  0.280700  0.265100  0.835300  1.0
  H  H348  1  0.780700  0.265100  0.335300  1.0
  H  H349  1  0.719300  0.765100  0.835300  1.0
  H  H350  1  0.219300  0.765100  0.335300  1.0
  H  H351  1  0.719300  0.734900  0.164700  1.0
  H  H352  1  0.219300  0.734900  0.664700  1.0
  H  H353  1  0.520500  0.210600  0.844500  1.0
  H  H354  1  0.020500  0.210600  0.344500  1.0
  H  H355  1  0.520500  0.289400  0.155500  1.0
  H  H356  1  0.020500  0.289400  0.655500  1.0
  H  H357  1  0.479500  0.789400  0.155500  1.0
  H  H358  1  0.979500  0.789400  0.655500  1.0
  H  H359  1  0.479500  0.710600  0.844500  1.0
  H  H360  1  0.979500  0.710600  0.344500  1.0
  H  H361  1  0.585200  0.160500  0.821100  1.0
  H  H362  1  0.085200  0.160500  0.321100  1.0
  H  H363  1  0.585200  0.339500  0.178900  1.0
  H  H364  1  0.085200  0.339500  0.678900  1.0
  H  H365  1  0.414800  0.839500  0.178900  1.0
  H  H366  1  0.914800  0.839500  0.678900  1.0
  H  H367  1  0.414800  0.660500  0.821100  1.0
  H  H368  1  0.914800  0.660500  0.321100  1.0
  H  H369  1  0.553600  0.219000  0.762500  1.0
  H  H370  1  0.053600  0.219000  0.262500  1.0
  H  H371  1  0.553600  0.281000  0.237500  1.0
  H  H372  1  0.053600  0.281000  0.737500  1.0
  H  H373  1  0.446400  0.781000  0.237500  1.0
  H  H374  1  0.946400  0.781000  0.737500  1.0
  H  H375  1  0.446400  0.719000  0.762500  1.0
  H  H376  1  0.946400  0.719000  0.262500  1.0
  H  H377  1  0.449700  0.207200  0.767200  1.0
  H  H378  1  0.949700  0.207200  0.267200  1.0
  H  H379  1  0.449700  0.292800  0.232800  1.0
  H  H380  1  0.949700  0.292800  0.732800  1.0
  H  H381  1  0.550300  0.792800  0.232800  1.0
  H  H382  1  0.050300  0.792800  0.732800  1.0
  H  H383  1  0.550300  0.707200  0.767200  1.0
  H  H384  1  0.050300  0.707200  0.267200  1.0
  H  H385  1  0.514600  0.156900  0.743800  1.0
  H  H386  1  0.014600  0.156900  0.243800  1.0
  H  H387  1  0.514600  0.343100  0.256200  1.0
  H  H388  1  0.014600  0.343100  0.756200  1.0
  H  H389  1  0.485400  0.843100  0.256200  1.0
  H  H390  1  0.985400  0.843100  0.756200  1.0
  H  H391  1  0.485400  0.656900  0.743800  1.0
  H  H392  1  0.985400  0.656900  0.243800  1.0
  H  H393  1  0.419100  0.030900  0.799000  1.0
  H  H394  1  0.919100  0.030900  0.299000  1.0
  H  H395  1  0.419100  0.469100  0.201000  1.0
  H  H396  1  0.919100  0.469100  0.701000  1.0
  H  H397  1  0.580900  0.969100  0.201000  1.0
  H  H398  1  0.080900  0.969100  0.701000  1.0
  H  H399  1  0.580900  0.530900  0.799000  1.0
  H  H400  1  0.080900  0.530900  0.299000  1.0
  H  H401  1  0.435900  0.071200  0.758800  1.0
  H  H402  1  0.935900  0.071200  0.258800  1.0
  H  H403  1  0.435900  0.428800  0.241200  1.0
  H  H404  1  0.935900  0.428800  0.741200  1.0
  H  H405  1  0.564100  0.928800  0.241200  1.0
  H  H406  1  0.064100  0.928800  0.741200  1.0
  H  H407  1  0.564100  0.571200  0.758800  1.0
  H  H408  1  0.064100  0.571200  0.258800  1.0
  H  H409  1  0.546600  0.002600  0.754000  1.0
  H  H410  1  0.046600  0.002600  0.254000  1.0
  H  H411  1  0.546600  0.497400  0.246000  1.0
  H  H412  1  0.046600  0.497400  0.746000  1.0
  H  H413  1  0.453400  0.997400  0.246000  1.0
  H  H414  1  0.953400  0.997400  0.746000  1.0
  H  H415  1  0.453400  0.502600  0.754000  1.0
  H  H416  1  0.953400  0.502600  0.254000  1.0
  H  H417  1  0.572900  0.023800  0.810500  1.0
  H  H418  1  0.072900  0.023800  0.310500  1.0
  H  H419  1  0.572900  0.476200  0.189500  1.0
  H  H420  1  0.072900  0.476200  0.689500  1.0
  H  H421  1  0.427100  0.976200  0.189500  1.0
  H  H422  1  0.927100  0.976200  0.689500  1.0
  H  H423  1  0.427100  0.523800  0.810500  1.0
  H  H424  1  0.927100  0.523800  0.310500  1.0
  H  H425  1  0.589800  0.064200  0.770100  1.0
  H  H426  1  0.089800  0.064200  0.270100  1.0
  H  H427  1  0.589800  0.435800  0.229900  1.0
  H  H428  1  0.089800  0.435800  0.729900  1.0
  H  H429  1  0.410200  0.935800  0.229900  1.0
  H  H430  1  0.910200  0.935800  0.729900  1.0
  H  H431  1  0.410200  0.564200  0.770100  1.0
  H  H432  1  0.910200  0.564200  0.270100  1.0
  H  H433  1  0.466400  0.073700  0.903700  1.0
  H  H434  1  0.966400  0.073700  0.403700  1.0
  H  H435  1  0.466400  0.426300  0.096300  1.0
  H  H436  1  0.966400  0.426300  0.596300  1.0
  H  H437  1  0.533600  0.926300  0.096300  1.0
  H  H438  1  0.033600  0.926300  0.596300  1.0
  H  H439  1  0.533600  0.573700  0.903700  1.0
  H  H440  1  0.033600  0.573700  0.403700  1.0
  H  H441  1  0.559900  0.085700  0.880800  1.0
  H  H442  1  0.059900  0.085700  0.380800  1.0
  H  H443  1  0.559900  0.414300  0.119200  1.0
  H  H444  1  0.059900  0.414300  0.619200  1.0
  H  H445  1  0.440100  0.914300  0.119200  1.0
  H  H446  1  0.940100  0.914300  0.619200  1.0
  H  H447  1  0.440100  0.585700  0.880800  1.0
  H  H448  1  0.940100  0.585700  0.380800  1.0
  H  H449  1  0.552100  0.125500  0.959800  1.0
  H  H450  1  0.052100  0.125500  0.459800  1.0
  H  H451  1  0.552100  0.374500  0.040200  1.0
  H  H452  1  0.052100  0.374500  0.540200  1.0
  H  H453  1  0.447900  0.874500  0.040200  1.0
  H  H454  1  0.947900  0.874500  0.540200  1.0
  H  H455  1  0.447900  0.625500  0.959800  1.0
  H  H456  1  0.947900  0.625500  0.459800  1.0
  H  H457  1  0.467100  0.161800  0.949000  1.0
  H  H458  1  0.967100  0.161800  0.449000  1.0
  H  H459  1  0.467100  0.338200  0.051000  1.0
  H  H460  1  0.967100  0.338200  0.551000  1.0
  H  H461  1  0.532900  0.838200  0.051000  1.0
  H  H462  1  0.032900  0.838200  0.551000  1.0
  H  H463  1  0.532900  0.661800  0.949000  1.0
  H  H464  1  0.032900  0.661800  0.449000  1.0
  H  H465  1  0.561300  0.173900  0.925800  1.0
  H  H466  1  0.061300  0.173900  0.425800  1.0
  H  H467  1  0.561300  0.326100  0.074200  1.0
  H  H468  1  0.061300  0.326100  0.574200  1.0
  H  H469  1  0.438700  0.826100  0.074200  1.0
  H  H470  1  0.938700  0.826100  0.574200  1.0
  H  H471  1  0.438700  0.673900  0.925800  1.0
  H  H472  1  0.938700  0.673900  0.425800  1.0
  H  H473  1  0.123700  0.073400  0.899800  1.0
  H  H474  1  0.623700  0.073400  0.399800  1.0
  H  H475  1  0.123700  0.426600  0.100200  1.0
  H  H476  1  0.623700  0.426600  0.600200  1.0
  H  H477  1  0.876300  0.926600  0.100200  1.0
  H  H478  1  0.376300  0.926600  0.600200  1.0
  H  H479  1  0.876300  0.573400  0.899800  1.0
  H  H480  1  0.376300  0.573400  0.399800  1.0
  H  H481  1  0.033000  0.095100  0.878900  1.0
  H  H482  1  0.533000  0.095100  0.378900  1.0
  H  H483  1  0.033000  0.404900  0.121100  1.0
  H  H484  1  0.533000  0.404900  0.621100  1.0
  H  H485  1  0.967000  0.904900  0.121100  1.0
  H  H486  1  0.467000  0.904900  0.621100  1.0
  H  H487  1  0.967000  0.595100  0.878900  1.0
  H  H488  1  0.467000  0.595100  0.378900  1.0
  H  H489  1  0.079400  0.010300  0.828400  1.0
  H  H490  1  0.579400  0.010300  0.328400  1.0
  H  H491  1  0.079400  0.489700  0.171600  1.0
  H  H492  1  0.579400  0.489700  0.671600  1.0
  H  H493  1  0.920600  0.989700  0.171600  1.0
  H  H494  1  0.420600  0.989700  0.671600  1.0
  H  H495  1  0.920600  0.510300  0.828400  1.0
  H  H496  1  0.420600  0.510300  0.328400  1.0
  H  H497  1  0.171500  0.039500  0.817800  1.0
  H  H498  1  0.671500  0.039500  0.317800  1.0
  H  H499  1  0.171500  0.460500  0.182200  1.0
  H  H500  1  0.671500  0.460500  0.682200  1.0
  H  H501  1  0.828500  0.960500  0.182200  1.0
  H  H502  1  0.328500  0.960500  0.682200  1.0
  H  H503  1  0.828500  0.539500  0.817800  1.0
  H  H504  1  0.328500  0.539500  0.317800  1.0
  H  H505  1  0.080900  0.061200  0.796800  1.0
  H  H506  1  0.580900  0.061200  0.296800  1.0
  H  H507  1  0.080900  0.438800  0.203200  1.0
  H  H508  1  0.580900  0.438800  0.703200  1.0
  H  H509  1  0.919100  0.938800  0.203200  1.0
  H  H510  1  0.419100  0.938800  0.703200  1.0
  H  H511  1  0.919100  0.561200  0.796800  1.0
  H  H512  1  0.419100  0.561200  0.296800  1.0
  H  H513  1  0.067400  0.215700  0.926500  1.0
  H  H514  1  0.567400  0.215700  0.426500  1.0
  H  H515  1  0.067400  0.284300  0.073500  1.0
  H  H516  1  0.567400  0.284300  0.573500  1.0
  H  H517  1  0.932600  0.784300  0.073500  1.0
  H  H518  1  0.432600  0.784300  0.573500  1.0
  H  H519  1  0.932600  0.715700  0.926500  1.0
  H  H520  1  0.432600  0.715700  0.426500  1.0
  H  H521  1  0.134300  0.177900  0.952400  1.0
  H  H522  1  0.634300  0.177900  0.452400  1.0
  H  H523  1  0.134300  0.322100  0.047600  1.0
  H  H524  1  0.634300  0.322100  0.547600  1.0
  H  H525  1  0.865700  0.822100  0.047600  1.0
  H  H526  1  0.365700  0.822100  0.547600  1.0
  H  H527  1  0.865700  0.677900  0.952400  1.0
  H  H528  1  0.365700  0.677900  0.452400  1.0
  H  H529  1  0.172600  0.274600  0.973700  1.0
  H  H530  1  0.672600  0.274600  0.473700  1.0
  H  H531  1  0.172600  0.225400  0.026300  1.0
  H  H532  1  0.672600  0.225400  0.526300  1.0
  H  H533  1  0.827400  0.725400  0.026300  1.0
  H  H534  1  0.327400  0.725400  0.526300  1.0
  H  H535  1  0.827400  0.774600  0.973700  1.0
  H  H536  1  0.327400  0.774600  0.473700  1.0
  H  H537  1  0.184300  0.280200  0.916700  1.0
  H  H538  1  0.684300  0.280200  0.416700  1.0
  H  H539  1  0.184300  0.219800  0.083300  1.0
  H  H540  1  0.684300  0.219800  0.583300  1.0
  H  H541  1  0.815700  0.719800  0.083300  1.0
  H  H542  1  0.315700  0.719800  0.583300  1.0
  H  H543  1  0.815700  0.780200  0.916700  1.0
  H  H544  1  0.315700  0.780200  0.416700  1.0
  H  H545  1  0.252000  0.242100  0.942200  1.0
  H  H546  1  0.752000  0.242100  0.442200  1.0
  H  H547  1  0.252000  0.257900  0.057800  1.0
  H  H548  1  0.752000  0.257900  0.557800  1.0
  H  H549  1  0.748000  0.757900  0.057800  1.0
  H  H550  1  0.248000  0.757900  0.557800  1.0
  H  H551  1  0.748000  0.742100  0.942200  1.0
  H  H552  1  0.248000  0.742100  0.442200  1.0
  H  H553  1  0.082200  0.228100  0.829800  1.0
  H  H554  1  0.582200  0.228100  0.329800  1.0
  H  H555  1  0.082200  0.271900  0.170200  1.0
  H  H556  1  0.582200  0.271900  0.670200  1.0
  H  H557  1  0.917800  0.771900  0.170200  1.0
  H  H558  1  0.417800  0.771900  0.670200  1.0
  H  H559  1  0.917800  0.728100  0.829800  1.0
  H  H560  1  0.417800  0.728100  0.329800  1.0
  H  H561  1  0.112200  0.176600  0.788500  1.0
  H  H562  1  0.612200  0.176600  0.288500  1.0
  H  H563  1  0.112200  0.323400  0.211500  1.0
  H  H564  1  0.612200  0.323400  0.711500  1.0
  H  H565  1  0.887800  0.823400  0.211500  1.0
  H  H566  1  0.387800  0.823400  0.711500  1.0
  H  H567  1  0.887800  0.676600  0.788500  1.0
  H  H568  1  0.387800  0.676600  0.288500  1.0
  H  H569  1  0.955900  0.182900  0.790100  1.0
  H  H570  1  0.455900  0.182900  0.290100  1.0
  H  H571  1  0.955900  0.317100  0.209900  1.0
  H  H572  1  0.455900  0.317100  0.709900  1.0
  H  H573  1  0.044100  0.817100  0.209900  1.0
  H  H574  1  0.544100  0.817100  0.709900  1.0
  H  H575  1  0.044100  0.682900  0.790100  1.0
  H  H576  1  0.544100  0.682900  0.290100  1.0
  H  H577  1  0.954700  0.175900  0.847200  1.0
  H  H578  1  0.454700  0.175900  0.347200  1.0
  H  H579  1  0.954700  0.324100  0.152800  1.0
  H  H580  1  0.454700  0.324100  0.652800  1.0
  H  H581  1  0.045300  0.824100  0.152800  1.0
  H  H582  1  0.545300  0.824100  0.652800  1.0
  H  H583  1  0.045300  0.675900  0.847200  1.0
  H  H584  1  0.545300  0.675900  0.347200  1.0
  H  H585  1  0.984800  0.123900  0.806200  1.0
  H  H586  1  0.484800  0.123900  0.306200  1.0
  H  H587  1  0.984800  0.376100  0.193800  1.0
  H  H588  1  0.484800  0.376100  0.693800  1.0
  H  H589  1  0.015200  0.876100  0.193800  1.0
  H  H590  1  0.515200  0.876100  0.693800  1.0
  H  H591  1  0.015200  0.623900  0.806200  1.0
  H  H592  1  0.515200  0.623900  0.306200  1.0
  H  H593  1  0.463200  0.095100  0.024700  1.0
  H  H594  1  0.963200  0.095100  0.524700  1.0
  H  H595  1  0.463200  0.404900  0.975300  1.0
  H  H596  1  0.963200  0.404900  0.475300  1.0
  H  H597  1  0.536800  0.904900  0.975300  1.0
  H  H598  1  0.036800  0.904900  0.475300  1.0
  H  H599  1  0.536800  0.595100  0.024700  1.0
  H  H600  1  0.036800  0.595100  0.524700  1.0
  H  H601  1  0.547600  0.104700  0.060400  1.0
  H  H602  1  0.047600  0.104700  0.560400  1.0
  H  H603  1  0.547600  0.395300  0.939600  1.0
  H  H604  1  0.047600  0.395300  0.439600  1.0
  H  H605  1  0.452400  0.895300  0.939600  1.0
  H  H606  1  0.952400  0.895300  0.439600  1.0
  H  H607  1  0.452400  0.604700  0.060400  1.0
  H  H608  1  0.952400  0.604700  0.560400  1.0
  H  H609  1  0.510600  0.007200  0.044400  1.0
  H  H610  1  0.010600  0.007200  0.544400  1.0
  H  H611  1  0.510600  0.492800  0.955600  1.0
  H  H612  1  0.010600  0.492800  0.455600  1.0
  H  H613  1  0.489400  0.992800  0.955600  1.0
  H  H614  1  0.989400  0.992800  0.455600  1.0
  H  H615  1  0.489400  0.507200  0.044400  1.0
  H  H616  1  0.989400  0.507200  0.544400  1.0
  H  H617  1  0.413400  0.021100  0.066600  1.0
  H  H618  1  0.913400  0.021100  0.566600  1.0
  H  H619  1  0.413400  0.478900  0.933400  1.0
  H  H620  1  0.913400  0.478900  0.433400  1.0
  H  H621  1  0.586600  0.978900  0.933400  1.0
  H  H622  1  0.086600  0.978900  0.433400  1.0
  H  H623  1  0.586600  0.521100  0.066600  1.0
  H  H624  1  0.086600  0.521100  0.566600  1.0
  H  H625  1  0.498200  0.030600  0.102100  1.0
  H  H626  1  0.998200  0.030600  0.602100  1.0
  H  H627  1  0.498200  0.469400  0.897900  1.0
  H  H628  1  0.998200  0.469400  0.397900  1.0
  H  H629  1  0.501800  0.969400  0.897900  1.0
  H  H630  1  0.001800  0.969400  0.397900  1.0
  H  H631  1  0.501800  0.530600  0.102100  1.0
  H  H632  1  0.001800  0.530600  0.602100  1.0
  H  H633  1  0.542500  0.178700  0.150900  1.0
  H  H634  1  0.042500  0.178700  0.650900  1.0
  H  H635  1  0.542500  0.321300  0.849100  1.0
  H  H636  1  0.042500  0.321300  0.349100  1.0
  H  H637  1  0.457500  0.821300  0.849100  1.0
  H  H638  1  0.957500  0.821300  0.349100  1.0
  H  H639  1  0.457500  0.678700  0.150900  1.0
  H  H640  1  0.957500  0.678700  0.650900  1.0
  H  H641  1  0.454100  0.185600  0.183300  1.0
  H  H642  1  0.954100  0.185600  0.683300  1.0
  H  H643  1  0.454100  0.314400  0.816700  1.0
  H  H644  1  0.954100  0.314400  0.316700  1.0
  H  H645  1  0.545900  0.814400  0.816700  1.0
  H  H646  1  0.045900  0.814400  0.316700  1.0
  H  H647  1  0.545900  0.685600  0.183300  1.0
  H  H648  1  0.045900  0.685600  0.683300  1.0
  H  H649  1  0.550000  0.121800  0.212600  1.0
  H  H650  1  0.050000  0.121800  0.712600  1.0
  H  H651  1  0.550000  0.378200  0.787400  1.0
  H  H652  1  0.050000  0.378200  0.287400  1.0
  H  H653  1  0.450000  0.878200  0.787400  1.0
  H  H654  1  0.950000  0.878200  0.287400  1.0
  H  H655  1  0.450000  0.621800  0.212600  1.0
  H  H656  1  0.950000  0.621800  0.712600  1.0
  H  H657  1  0.550500  0.082000  0.159700  1.0
  H  H658  1  0.050500  0.082000  0.659700  1.0
  H  H659  1  0.550500  0.418000  0.840300  1.0
  H  H660  1  0.050500  0.418000  0.340300  1.0
  H  H661  1  0.449500  0.918000  0.840300  1.0
  H  H662  1  0.949500  0.918000  0.340300  1.0
  H  H663  1  0.449500  0.582000  0.159700  1.0
  H  H664  1  0.949500  0.582000  0.659700  1.0
  H  H665  1  0.461700  0.088900  0.192100  1.0
  H  H666  1  0.961700  0.088900  0.692100  1.0
  H  H667  1  0.461700  0.411100  0.807900  1.0
  H  H668  1  0.961700  0.411100  0.307900  1.0
  H  H669  1  0.538300  0.911100  0.807900  1.0
  H  H670  1  0.038300  0.911100  0.307900  1.0
  H  H671  1  0.538300  0.588900  0.192100  1.0
  H  H672  1  0.038300  0.588900  0.692100  1.0
  H  H673  1  0.424000  0.242200  0.106300  1.0
  H  H674  1  0.924000  0.242200  0.606300  1.0
  H  H675  1  0.424000  0.257800  0.893700  1.0
  H  H676  1  0.924000  0.257800  0.393700  1.0
  H  H677  1  0.576000  0.757800  0.893700  1.0
  H  H678  1  0.076000  0.757800  0.393700  1.0
  H  H679  1  0.576000  0.742200  0.106300  1.0
  H  H680  1  0.076000  0.742200  0.606300  1.0
  H  H681  1  0.492700  0.213200  0.066000  1.0
  H  H682  1  0.992700  0.213200  0.566000  1.0
  H  H683  1  0.492700  0.286800  0.934000  1.0
  H  H684  1  0.992700  0.286800  0.434000  1.0
  H  H685  1  0.507300  0.786800  0.934000  1.0
  H  H686  1  0.007300  0.786800  0.434000  1.0
  H  H687  1  0.507300  0.713200  0.066000  1.0
  H  H688  1  0.007300  0.713200  0.566000  1.0
  H  H689  1  0.385600  0.264300  0.028600  1.0
  H  H690  1  0.885600  0.264300  0.528600  1.0
  H  H691  1  0.385600  0.235700  0.971400  1.0
  H  H692  1  0.885600  0.235700  0.471400  1.0
  H  H693  1  0.614400  0.735700  0.971400  1.0
  H  H694  1  0.114400  0.735700  0.471400  1.0
  H  H695  1  0.614400  0.764300  0.028600  1.0
  H  H696  1  0.114400  0.764300  0.528600  1.0
  H  H697  1  0.307500  0.226900  0.046400  1.0
  H  H698  1  0.807500  0.226900  0.546400  1.0
  H  H699  1  0.307500  0.273100  0.953600  1.0
  H  H700  1  0.807500  0.273100  0.453600  1.0
  H  H701  1  0.692500  0.773100  0.953600  1.0
  H  H702  1  0.192500  0.773100  0.453600  1.0
  H  H703  1  0.692500  0.726900  0.046400  1.0
  H  H704  1  0.192500  0.726900  0.546400  1.0
  H  H705  1  0.377300  0.198400  0.005800  1.0
  H  H706  1  0.877300  0.198400  0.505800  1.0
  H  H707  1  0.377300  0.301600  0.994200  1.0
  H  H708  1  0.877300  0.301600  0.494200  1.0
  H  H709  1  0.622700  0.801600  0.994200  1.0
  H  H710  1  0.122700  0.801600  0.494200  1.0
  H  H711  1  0.622700  0.698400  0.005800  1.0
  H  H712  1  0.122700  0.698400  0.505800  1.0
  H  H713  1  0.122400  0.050100  0.179100  1.0
  H  H714  1  0.622400  0.050100  0.679100  1.0
  H  H715  1  0.122400  0.449900  0.820900  1.0
  H  H716  1  0.622400  0.449900  0.320900  1.0
  H  H717  1  0.877600  0.949900  0.820900  1.0
  H  H718  1  0.377600  0.949900  0.320900  1.0
  H  H719  1  0.877600  0.550100  0.179100  1.0
  H  H720  1  0.377600  0.550100  0.679100  1.0
  H  H721  1  0.034200  0.035300  0.147300  1.0
  H  H722  1  0.534200  0.035300  0.647300  1.0
  H  H723  1  0.034200  0.464700  0.852700  1.0
  H  H724  1  0.534200  0.464700  0.352700  1.0
  H  H725  1  0.965800  0.964700  0.852700  1.0
  H  H726  1  0.465800  0.964700  0.352700  1.0
  H  H727  1  0.965800  0.535300  0.147300  1.0
  H  H728  1  0.465800  0.535300  0.647300  1.0
  H  H729  1  0.119600  0.953200  0.146400  1.0
  H  H730  1  0.619600  0.953200  0.646400  1.0
  H  H731  1  0.119600  0.546800  0.853600  1.0
  H  H732  1  0.619600  0.546800  0.353600  1.0
  H  H733  1  0.880400  0.046800  0.853600  1.0
  H  H734  1  0.380400  0.046800  0.353600  1.0
  H  H735  1  0.880400  0.453200  0.146400  1.0
  H  H736  1  0.380400  0.453200  0.646400  1.0
  H  H737  1  0.201700  0.982600  0.123400  1.0
  H  H738  1  0.701700  0.982600  0.623400  1.0
  H  H739  1  0.201700  0.517400  0.876600  1.0
  H  H740  1  0.701700  0.517400  0.376600  1.0
  H  H741  1  0.798300  0.017400  0.876600  1.0
  H  H742  1  0.298300  0.017400  0.376600  1.0
  H  H743  1  0.798300  0.482600  0.123400  1.0
  H  H744  1  0.298300  0.482600  0.623400  1.0
  H  H745  1  0.113300  0.967800  0.091500  1.0
  H  H746  1  0.613300  0.967800  0.591500  1.0
  H  H747  1  0.113300  0.532200  0.908500  1.0
  H  H748  1  0.613300  0.532200  0.408500  1.0
  H  H749  1  0.886700  0.032200  0.908500  1.0
  H  H750  1  0.386700  0.032200  0.408500  1.0
  H  H751  1  0.886700  0.467800  0.091500  1.0
  H  H752  1  0.386700  0.467800  0.591500  1.0
  H  H753  1  0.085700  0.162300  0.170600  1.0
  H  H754  1  0.585700  0.162300  0.670600  1.0
  H  H755  1  0.085700  0.337700  0.829400  1.0
  H  H756  1  0.585700  0.337700  0.329400  1.0
  H  H757  1  0.914300  0.837700  0.829400  1.0
  H  H758  1  0.414300  0.837700  0.329400  1.0
  H  H759  1  0.914300  0.662300  0.170600  1.0
  H  H760  1  0.414300  0.662300  0.670600  1.0
  H  H761  1  0.085700  0.186000  0.120300  1.0
  H  H762  1  0.585700  0.186000  0.620300  1.0
  H  H763  1  0.085700  0.314000  0.879700  1.0
  H  H764  1  0.585700  0.314000  0.379700  1.0
  H  H765  1  0.914300  0.814000  0.879700  1.0
  H  H766  1  0.414300  0.814000  0.379700  1.0
  H  H767  1  0.914300  0.686000  0.120300  1.0
  H  H768  1  0.414300  0.686000  0.620300  1.0
  H  H769  1  0.955000  0.208000  0.160900  1.0
  H  H770  1  0.455000  0.208000  0.660900  1.0
  H  H771  1  0.955000  0.292000  0.839100  1.0
  H  H772  1  0.455000  0.292000  0.339100  1.0
  H  H773  1  0.045000  0.792000  0.839100  1.0
  H  H774  1  0.545000  0.792000  0.339100  1.0
  H  H775  1  0.045000  0.708000  0.160900  1.0
  H  H776  1  0.545000  0.708000  0.660900  1.0
  H  H777  1  0.933700  0.142500  0.162100  1.0
  H  H778  1  0.433700  0.142500  0.662100  1.0
  H  H779  1  0.933700  0.357500  0.837900  1.0
  H  H780  1  0.433700  0.357500  0.337900  1.0
  H  H781  1  0.066300  0.857500  0.837900  1.0
  H  H782  1  0.566300  0.857500  0.337900  1.0
  H  H783  1  0.066300  0.642500  0.162100  1.0
  H  H784  1  0.566300  0.642500  0.662100  1.0
  H  H785  1  0.933400  0.166000  0.110600  1.0
  H  H786  1  0.433400  0.166000  0.610600  1.0
  H  H787  1  0.933400  0.334000  0.889400  1.0
  H  H788  1  0.433400  0.334000  0.389400  1.0
  H  H789  1  0.066600  0.834000  0.889400  1.0
  H  H790  1  0.566600  0.834000  0.389400  1.0
  H  H791  1  0.066600  0.666000  0.110600  1.0
  H  H792  1  0.566600  0.666000  0.610600  1.0
  H  H793  1  0.105600  0.035700  0.033000  1.0
  H  H794  1  0.605600  0.035700  0.533000  1.0
  H  H795  1  0.105600  0.464300  0.967000  1.0
  H  H796  1  0.605600  0.464300  0.467000  1.0
  H  H797  1  0.894400  0.964300  0.967000  1.0
  H  H798  1  0.394400  0.964300  0.467000  1.0
  H  H799  1  0.894400  0.535700  0.033000  1.0
  H  H800  1  0.394400  0.535700  0.533000  1.0
  H  H801  1  0.012500  0.056800  0.056300  1.0
  H  H802  1  0.512500  0.056800  0.556300  1.0
  H  H803  1  0.012500  0.443200  0.943700  1.0
  H  H804  1  0.512500  0.443200  0.443700  1.0
  H  H805  1  0.987500  0.943200  0.943700  1.0
  H  H806  1  0.487500  0.943200  0.443700  1.0
  H  H807  1  0.987500  0.556800  0.056300  1.0
  H  H808  1  0.487500  0.556800  0.556300  1.0
  H  H809  1  0.034900  0.082500  0.985800  1.0
  H  H810  1  0.534900  0.082500  0.485800  1.0
  H  H811  1  0.034900  0.417500  0.014200  1.0
  H  H812  1  0.534900  0.417500  0.514200  1.0
  H  H813  1  0.965100  0.917500  0.014200  1.0
  H  H814  1  0.465100  0.917500  0.514200  1.0
  H  H815  1  0.965100  0.582500  0.985800  1.0
  H  H816  1  0.465100  0.582500  0.485800  1.0
  H  H817  1  0.122400  0.116300  0.006300  1.0
  H  H818  1  0.622400  0.116300  0.506300  1.0
  H  H819  1  0.122400  0.383700  0.993700  1.0
  H  H820  1  0.622400  0.383700  0.493700  1.0
  H  H821  1  0.877600  0.883700  0.993700  1.0
  H  H822  1  0.377600  0.883700  0.493700  1.0
  H  H823  1  0.877600  0.616300  0.006300  1.0
  H  H824  1  0.377600  0.616300  0.506300  1.0
  H  H825  1  0.027400  0.136300  0.028800  1.0
  H  H826  1  0.527400  0.136300  0.528800  1.0
  H  H827  1  0.027400  0.363700  0.971200  1.0
  H  H828  1  0.527400  0.363700  0.471200  1.0
  H  H829  1  0.972600  0.863700  0.971200  1.0
  H  H830  1  0.472600  0.863700  0.471200  1.0
  H  H831  1  0.972600  0.636300  0.028800  1.0
  H  H832  1  0.472600  0.636300  0.528800  1.0
  Pt  Pt833  1  0.298473  0.145373  0.852585  1.0
  Pt  Pt834  1  0.798473  0.145373  0.352585  1.0
  Pt  Pt835  1  0.298473  0.354627  0.147415  1.0
  Pt  Pt836  1  0.798473  0.354627  0.647415  1.0
  Pt  Pt837  1  0.701527  0.854627  0.147415  1.0
  Pt  Pt838  1  0.201527  0.854627  0.647415  1.0
  Pt  Pt839  1  0.701527  0.645373  0.852585  1.0
  Pt  Pt840  1  0.201527  0.645373  0.352585  1.0
  Pt  Pt841  1  0.274886  0.118120  0.105859  1.0
  Pt  Pt842  1  0.774886  0.118120  0.605859  1.0
  Pt  Pt843  1  0.274886  0.381880  0.894141  1.0
  Pt  Pt844  1  0.774886  0.381880  0.394141  1.0
  Pt  Pt845  1  0.725114  0.881880  0.894141  1.0
  Pt  Pt846  1  0.225114  0.881880  0.394141  1.0
  Pt  Pt847  1  0.725114  0.618120  0.105859  1.0
  Pt  Pt848  1  0.225114  0.618120  0.605859  1.0
  C  C849  1  0.755400  0.157900  0.000400  1
  C  C850  1  0.255400  0.157900  0.500400  1
  C  C851  1  0.755400  0.342100  0.999600  1
  C  C852  1  0.255400  0.342100  0.499600  1
  C  C853  1  0.244600  0.842100  0.999600  1
  C  C854  1  0.744600  0.842100  0.499600  1
  C  C855  1  0.244600  0.657900  0.000400  1
  C  C856  1  0.744600  0.657900  0.500400  1
  C  C857  1  0.594300  0.107800  0.899300  1
  C  C858  1  0.094300  0.107800  0.399300  1
  C  C859  1  0.594300  0.392200  0.100700  1
  C  C860  1  0.094300  0.392200  0.600700  1
  C  C861  1  0.405700  0.892200  0.100700  1
  C  C862  1  0.905700  0.892200  0.600700  1
  C  C863  1  0.405700  0.607800  0.899300  1
  C  C864  1  0.905700  0.607800  0.399300  1
  C  C865  1  0.035500  0.210000  0.940100  1
  C  C866  1  0.535500  0.210000  0.440100  1
  C  C867  1  0.035500  0.290000  0.059900  1
  C  C868  1  0.535500  0.290000  0.559900  1
  C  C869  1  0.964500  0.790000  0.059900  1
  C  C870  1  0.464500  0.790000  0.559900  1
  C  C871  1  0.964500  0.710000  0.940100  1
  C  C872  1  0.464500  0.710000  0.440100  1
  C  C873  1  0.979700  0.200300  0.836800  1
  C  C874  1  0.479700  0.200300  0.336800  1
  C  C875  1  0.979700  0.299700  0.163200  1
  C  C876  1  0.479700  0.299700  0.663200  1
  C  C877  1  0.020300  0.799700  0.163200  1
  C  C878  1  0.520300  0.799700  0.663200  1
  C  C879  1  0.020300  0.700300  0.836800  1
  C  C880  1  0.520300  0.700300  0.336800  1
  C  C881  1  0.529800  0.222100  0.061000  1
  C  C882  1  0.029800  0.222100  0.561000  1
  C  C883  1  0.529800  0.277900  0.939000  1
  C  C884  1  0.029800  0.277900  0.439000  1
  C  C885  1  0.470200  0.777900  0.939000  1
  C  C886  1  0.970200  0.777900  0.439000  1
  C  C887  1  0.470200  0.722100  0.061000  1
  C  C888  1  0.970200  0.722100  0.561000  1
  C  C889  1  0.964200  0.128800  0.141100  1
  C  C890  1  0.464200  0.128800  0.641100  1
  C  C891  1  0.964200  0.371200  0.858900  1
  C  C892  1  0.464200  0.371200  0.358900  1
  C  C893  1  0.035800  0.871200  0.858900  1
  C  C894  1  0.535800  0.871200  0.358900  1
  C  C895  1  0.035800  0.628800  0.141100  1
  C  C896  1  0.535800  0.628800  0.641100  1
  C  C897  1  0.970500  0.054000  0.050500  1
  C  C898  1  0.470500  0.054000  0.550500  1
  C  C899  1  0.970500  0.446000  0.949500  1
  C  C900  1  0.470500  0.446000  0.449500  1
  C  C901  1  0.029500  0.946000  0.949500  1
  C  C902  1  0.529500  0.946000  0.449500  1
  C  C903  1  0.029500  0.554000  0.050500  1
  C  C904  1  0.529500  0.554000  0.550500  1
  C  C905  1  0.813200  0.140000  0.987200  1
  C  C906  1  0.313200  0.140000  0.487200  1
  C  C907  1  0.813200  0.360000  0.012800  1
  C  C908  1  0.313200  0.360000  0.512800  1
  C  C909  1  0.186800  0.860000  0.012800  1
  C  C910  1  0.686800  0.860000  0.512800  1
  C  C911  1  0.186800  0.640000  0.987200  1
  C  C912  1  0.686800  0.640000  0.487200  1
  C  C913  1  0.296800  0.080700  0.941270  1.0
  C  C914  1  0.796800  0.080700  0.441270  1.0
  C  C915  1  0.296800  0.419300  0.058730  1.0
  C  C916  1  0.796800  0.419300  0.558730  1.0
  C  C917  1  0.703200  0.919300  0.058730  1.0
  C  C918  1  0.203200  0.919300  0.558730  1.0
  C  C919  1  0.703200  0.580700  0.941270  1.0
  C  C920  1  0.203200  0.580700  0.441270  1.0
  C  C921  1  0.301100  0.024900  0.909720  1.0
  C  C922  1  0.801100  0.024900  0.409720  1.0
  C  C923  1  0.301100  0.475100  0.090280  1.0
  C  C924  1  0.801100  0.475100  0.590280  1.0
  C  C925  1  0.698900  0.975100  0.090280  1.0
  C  C926  1  0.198900  0.975100  0.590280  1.0
  C  C927  1  0.698900  0.524900  0.909720  1.0
  C  C928  1  0.198900  0.524900  0.409720  1.0
  C  C929  1  0.287700  0.981000  0.942400  1.0
  C  C930  1  0.787700  0.981000  0.442400  1.0
  C  C931  1  0.287700  0.519000  0.057600  1.0
  C  C932  1  0.787700  0.519000  0.557600  1.0
  C  C933  1  0.712300  0.019000  0.057600  1.0
  C  C934  1  0.212300  0.019000  0.557600  1.0
  C  C935  1  0.712300  0.481000  0.942400  1.0
  C  C936  1  0.212300  0.481000  0.442400  1.0
  C  C937  1  0.276100  0.011900  0.994000  1.0
  C  C938  1  0.776100  0.011900  0.494000  1.0
  C  C939  1  0.276100  0.488100  0.006000  1.0
  C  C940  1  0.776100  0.488100  0.506000  1.0
  C  C941  1  0.723900  0.988100  0.006000  1.0
  C  C942  1  0.223900  0.988100  0.506000  1.0
  C  C943  1  0.723900  0.511900  0.994000  1.0
  C  C944  1  0.223900  0.511900  0.494000  1.0
  C  C945  1  0.283100  0.072200  0.991570  1.0
  C  C946  1  0.783100  0.072200  0.491570  1.0
  C  C947  1  0.283100  0.427800  0.008430  1.0
  C  C948  1  0.783100  0.427800  0.508430  1.0
  C  C949  1  0.716900  0.927800  0.008430  1.0
  C  C950  1  0.216900  0.927800  0.508430  1.0
  C  C951  1  0.716900  0.572200  0.991570  1.0
  C  C952  1  0.216900  0.572200  0.491570  1.0
  C  C953  1  0.278000  0.126100  0.179840  1.0
  C  C954  1  0.778000  0.126100  0.679840  1.0
  C  C955  1  0.278000  0.373900  0.820160  1.0
  C  C956  1  0.778000  0.373900  0.320160  1.0
  C  C957  1  0.722000  0.873900  0.820160  1.0
  C  C958  1  0.222000  0.873900  0.320160  1.0
  C  C959  1  0.722000  0.626100  0.179840  1.0
  C  C960  1  0.222000  0.626100  0.679840  1.0
  C  C961  1  0.285500  0.077400  0.200440  1.0
  C  C962  1  0.785500  0.077400  0.700440  1.0
  C  C963  1  0.285500  0.422600  0.799560  1.0
  C  C964  1  0.785500  0.422600  0.299560  1.0
  C  C965  1  0.714500  0.922600  0.799560  1.0
  C  C966  1  0.214500  0.922600  0.299560  1.0
  C  C967  1  0.714500  0.577400  0.200440  1.0
  C  C968  1  0.214500  0.577400  0.700440  1.0
  C  C969  1  0.283900  0.076900  0.252200  1.0
  C  C970  1  0.783900  0.076900  0.752200  1.0
  C  C971  1  0.283900  0.423100  0.747800  1.0
  C  C972  1  0.783900  0.423100  0.247800  1.0
  C  C973  1  0.716100  0.923100  0.747800  1.0
  C  C974  1  0.216100  0.923100  0.247800  1.0
  C  C975  1  0.716100  0.576900  0.252200  1.0
  C  C976  1  0.216100  0.576900  0.752200  1.0
  C  C977  1  0.272500  0.125800  0.284000  1.0
  C  C978  1  0.772500  0.125800  0.784000  1.0
  C  C979  1  0.272500  0.374200  0.716000  1.0
  C  C980  1  0.772500  0.374200  0.216000  1.0
  C  C981  1  0.727500  0.874200  0.716000  1.0
  C  C982  1  0.227500  0.874200  0.216000  1.0
  C  C983  1  0.727500  0.625800  0.284000  1.0
  C  C984  1  0.227500  0.625800  0.784000  1.0
  C  C985  1  0.266500  0.178800  0.266480  1.0
  C  C986  1  0.766500  0.178800  0.766480  1.0
  C  C987  1  0.266500  0.321200  0.733520  1.0
  C  C988  1  0.766500  0.321200  0.233520  1.0
  C  C989  1  0.733500  0.821200  0.733520  1.0
  C  C990  1  0.233500  0.821200  0.233520  1.0
  C  C991  1  0.733500  0.678800  0.266480  1.0
  C  C992  1  0.233500  0.678800  0.766480  1.0
  C  C993  1  0.257300  0.229000  0.299100  1.0
  C  C994  1  0.757300  0.229000  0.799100  1.0
  C  C995  1  0.257300  0.271000  0.700900  1.0
  C  C996  1  0.757300  0.271000  0.200900  1.0
  C  C997  1  0.742700  0.771000  0.700900  1.0
  C  C998  1  0.242700  0.771000  0.200900  1.0
  C  C999  1  0.742700  0.729000  0.299100  1.0
  C  C1000  1  0.242700  0.729000  0.799100  1.0
  C  C1001  1  0.258400  0.282000  0.283770  1.0
  C  C1002  1  0.758400  0.282000  0.783770  1.0
  C  C1003  1  0.258400  0.218000  0.716230  1.0
  C  C1004  1  0.758400  0.218000  0.216230  1.0
  C  C1005  1  0.741600  0.718000  0.716230  1.0
  C  C1006  1  0.241600  0.718000  0.216230  1.0
  C  C1007  1  0.741600  0.782000  0.283770  1.0
  C  C1008  1  0.241600  0.782000  0.783770  1.0
  C  C1009  1  0.247700  0.333200  0.318430  1.0
  C  C1010  1  0.747700  0.333200  0.818430  1.0
  C  C1011  1  0.247700  0.166800  0.681570  1.0
  C  C1012  1  0.747700  0.166800  0.181570  1.0
  C  C1013  1  0.752300  0.666800  0.681570  1.0
  C  C1014  1  0.252300  0.666800  0.181570  1.0
  C  C1015  1  0.752300  0.833200  0.318430  1.0
  C  C1016  1  0.252300  0.833200  0.818430  1.0
  C  C1017  1  0.252400  0.384200  0.303370  1.0
  C  C1018  1  0.752400  0.384200  0.803370  1.0
  C  C1019  1  0.252400  0.115800  0.696630  1.0
  C  C1020  1  0.752400  0.115800  0.196630  1.0
  C  C1021  1  0.747600  0.615800  0.696630  1.0
  C  C1022  1  0.247600  0.615800  0.196630  1.0
  C  C1023  1  0.747600  0.884200  0.303370  1.0
  C  C1024  1  0.247600  0.884200  0.803370  1.0
  C  C1025  1  0.270000  0.387700  0.252850  1.0
  C  C1026  1  0.770000  0.387700  0.752850  1.0
  C  C1027  1  0.270000  0.112300  0.747150  1.0
  C  C1028  1  0.770000  0.112300  0.247150  1.0
  C  C1029  1  0.730000  0.612300  0.747150  1.0
  C  C1030  1  0.230000  0.612300  0.247150  1.0
  C  C1031  1  0.730000  0.887700  0.252850  1.0
  C  C1032  1  0.230000  0.887700  0.752850  1.0
  C  C1033  1  0.280900  0.159300  0.782870  1.0
  C  C1034  1  0.780900  0.159300  0.282870  1.0
  C  C1035  1  0.280900  0.340700  0.217130  1.0
  C  C1036  1  0.780900  0.340700  0.717130  1.0
  C  C1037  1  0.719100  0.840700  0.217130  1.0
  C  C1038  1  0.219100  0.840700  0.717130  1.0
  C  C1039  1  0.719100  0.659300  0.782870  1.0
  C  C1040  1  0.219100  0.659300  0.282870  1.0
  C  C1041  1  0.271800  0.285000  0.232100  1.0
  C  C1042  1  0.771800  0.285000  0.732100  1.0
  C  C1043  1  0.271800  0.215000  0.767900  1.0
  C  C1044  1  0.771800  0.215000  0.267900  1.0
  C  C1045  1  0.728200  0.715000  0.767900  1.0
  C  C1046  1  0.228200  0.715000  0.267900  1.0
  C  C1047  1  0.728200  0.785000  0.232100  1.0
  C  C1048  1  0.228200  0.785000  0.732100  1.0
  C  C1049  1  0.275700  0.233400  0.199060  1.0
  C  C1050  1  0.775700  0.233400  0.699060  1.0
  C  C1051  1  0.275700  0.266600  0.800940  1.0
  C  C1052  1  0.775700  0.266600  0.300940  1.0
  C  C1053  1  0.724300  0.766600  0.800940  1.0
  C  C1054  1  0.224300  0.766600  0.300940  1.0
  C  C1055  1  0.724300  0.733400  0.199060  1.0
  C  C1056  1  0.224300  0.733400  0.699060  1.0
  C  C1057  1  0.272800  0.180000  0.213890  1.0
  C  C1058  1  0.772800  0.180000  0.713890  1.0
  C  C1059  1  0.272800  0.320000  0.786110  1.0
  C  C1060  1  0.772800  0.320000  0.286110  1.0
  C  C1061  1  0.727200  0.820000  0.786110  1.0
  C  C1062  1  0.227200  0.820000  0.286110  1.0
  C  C1063  1  0.727200  0.680000  0.213890  1.0
  C  C1064  1  0.227200  0.680000  0.713890  1.0
  C  C1065  1  0.524200  0.175500  0.819800  1.0
  C  C1066  1  0.024200  0.175500  0.319800  1.0
  C  C1067  1  0.524200  0.324500  0.180200  1.0
  C  C1068  1  0.024200  0.324500  0.680200  1.0
  C  C1069  1  0.475800  0.824500  0.180200  1.0
  C  C1070  1  0.975800  0.824500  0.680200  1.0
  C  C1071  1  0.475800  0.675500  0.819800  1.0
  C  C1072  1  0.975800  0.675500  0.319800  1.0
  C  C1073  1  0.509200  0.191000  0.768800  1.0
  C  C1074  1  0.009200  0.191000  0.268800  1.0
  C  C1075  1  0.509200  0.309000  0.231200  1.0
  C  C1076  1  0.009200  0.309000  0.731200  1.0
  C  C1077  1  0.490800  0.809000  0.231200  1.0
  C  C1078  1  0.990800  0.809000  0.731200  1.0
  C  C1079  1  0.490800  0.691000  0.768800  1.0
  C  C1080  1  0.990800  0.691000  0.268800  1.0
  C  C1081  1  0.458400  0.061000  0.790100  1.0
  C  C1082  1  0.958400  0.061000  0.290100  1.0
  C  C1083  1  0.458400  0.439000  0.209900  1.0
  C  C1084  1  0.958400  0.439000  0.709900  1.0
  C  C1085  1  0.541600  0.939000  0.209900  1.0
  C  C1086  1  0.041600  0.939000  0.709900  1.0
  C  C1087  1  0.541600  0.561000  0.790100  1.0
  C  C1088  1  0.041600  0.561000  0.290100  1.0
  C  C1089  1  0.550000  0.035700  0.780300  1.0
  C  C1090  1  0.050000  0.035700  0.280300  1.0
  C  C1091  1  0.550000  0.464300  0.219700  1.0
  C  C1092  1  0.050000  0.464300  0.719700  1.0
  C  C1093  1  0.450000  0.964300  0.219700  1.0
  C  C1094  1  0.950000  0.964300  0.719700  1.0
  C  C1095  1  0.450000  0.535700  0.780300  1.0
  C  C1096  1  0.950000  0.535700  0.280300  1.0
  C  C1097  1  0.502900  0.103700  0.892500  1.0
  C  C1098  1  0.002900  0.103700  0.392500  1.0
  C  C1099  1  0.502900  0.396300  0.107500  1.0
  C  C1100  1  0.002900  0.396300  0.607500  1.0
  C  C1101  1  0.497100  0.896300  0.107500  1.0
  C  C1102  1  0.997100  0.896300  0.607500  1.0
  C  C1103  1  0.497100  0.603700  0.892500  1.0
  C  C1104  1  0.997100  0.603700  0.392500  1.0
  C  C1105  1  0.522400  0.144400  0.935100  1.0
  C  C1106  1  0.022400  0.144400  0.435100  1.0
  C  C1107  1  0.522400  0.355600  0.064900  1.0
  C  C1108  1  0.022400  0.355600  0.564900  1.0
  C  C1109  1  0.477600  0.855600  0.064900  1.0
  C  C1110  1  0.977600  0.855600  0.564900  1.0
  C  C1111  1  0.477600  0.644400  0.935100  1.0
  C  C1112  1  0.977600  0.644400  0.435100  1.0
  C  C1113  1  0.097000  0.089000  0.871900  1.0
  C  C1114  1  0.597000  0.089000  0.371900  1.0
  C  C1115  1  0.097000  0.411000  0.128100  1.0
  C  C1116  1  0.597000  0.411000  0.628100  1.0
  C  C1117  1  0.903000  0.911000  0.128100  1.0
  C  C1118  1  0.403000  0.911000  0.628100  1.0
  C  C1119  1  0.903000  0.589000  0.871900  1.0
  C  C1120  1  0.403000  0.589000  0.371900  1.0
  C  C1121  1  0.108200  0.046200  0.824500  1.0
  C  C1122  1  0.608200  0.046200  0.324500  1.0
  C  C1123  1  0.108200  0.453800  0.175500  1.0
  C  C1124  1  0.608200  0.453800  0.675500  1.0
  C  C1125  1  0.891800  0.953800  0.175500  1.0
  C  C1126  1  0.391800  0.953800  0.675500  1.0
  C  C1127  1  0.891800  0.546200  0.824500  1.0
  C  C1128  1  0.391800  0.546200  0.324500  1.0
  C  C1129  1  0.129400  0.202100  0.926300  1.0
  C  C1130  1  0.629400  0.202100  0.426300  1.0
  C  C1131  1  0.129400  0.297900  0.073700  1.0
  C  C1132  1  0.629400  0.297900  0.573700  1.0
  C  C1133  1  0.870600  0.797900  0.073700  1.0
  C  C1134  1  0.370600  0.797900  0.573700  1.0
  C  C1135  1  0.870600  0.702100  0.926300  1.0
  C  C1136  1  0.370600  0.702100  0.426300  1.0
  C  C1137  1  0.190200  0.254600  0.941100  1.0
  C  C1138  1  0.690200  0.254600  0.441100  1.0
  C  C1139  1  0.190200  0.245400  0.058900  1.0
  C  C1140  1  0.690200  0.245400  0.558900  1.0
  C  C1141  1  0.809800  0.745400  0.058900  1.0
  C  C1142  1  0.309800  0.745400  0.558900  1.0
  C  C1143  1  0.809800  0.754600  0.941100  1.0
  C  C1144  1  0.309800  0.754600  0.441100  1.0
  C  C1145  1  0.082600  0.186200  0.821000  1.0
  C  C1146  1  0.582600  0.186200  0.321000  1.0
  C  C1147  1  0.082600  0.313800  0.179000  1.0
  C  C1148  1  0.582600  0.313800  0.679000  1.0
  C  C1149  1  0.917400  0.813800  0.179000  1.0
  C  C1150  1  0.417400  0.813800  0.679000  1.0
  C  C1151  1  0.917400  0.686200  0.821000  1.0
  C  C1152  1  0.417400  0.686200  0.321000  1.0
  C  C1153  1  0.985600  0.165300  0.815700  1.0
  C  C1154  1  0.485600  0.165300  0.315700  1.0
  C  C1155  1  0.985600  0.334700  0.184300  1.0
  C  C1156  1  0.485600  0.334700  0.684300  1.0
  C  C1157  1  0.014400  0.834700  0.184300  1.0
  C  C1158  1  0.514400  0.834700  0.684300  1.0
  C  C1159  1  0.014400  0.665300  0.815700  1.0
  C  C1160  1  0.514400  0.665300  0.315700  1.0
  C  C1161  1  0.484200  0.093600  0.058600  1.0
  C  C1162  1  0.984200  0.093600  0.558600  1.0
  C  C1163  1  0.484200  0.406400  0.941400  1.0
  C  C1164  1  0.984200  0.406400  0.441400  1.0
  C  C1165  1  0.515800  0.906400  0.941400  1.0
  C  C1166  1  0.015800  0.906400  0.441400  1.0
  C  C1167  1  0.515800  0.593600  0.058600  1.0
  C  C1168  1  0.015800  0.593600  0.558600  1.0
  C  C1169  1  0.475900  0.032600  0.068900  1.0
  C  C1170  1  0.975900  0.032600  0.568900  1.0
  C  C1171  1  0.475900  0.467400  0.931100  1.0
  C  C1172  1  0.975900  0.467400  0.431100  1.0
  C  C1173  1  0.524100  0.967400  0.931100  1.0
  C  C1174  1  0.024100  0.967400  0.431100  1.0
  C  C1175  1  0.524100  0.532600  0.068900  1.0
  C  C1176  1  0.024100  0.532600  0.568900  1.0
  C  C1177  1  0.487700  0.158900  0.158600  1.0
  C  C1178  1  0.987700  0.158900  0.658600  1.0
  C  C1179  1  0.487700  0.341100  0.841400  1.0
  C  C1180  1  0.987700  0.341100  0.341400  1.0
  C  C1181  1  0.512300  0.841100  0.841400  1.0
  C  C1182  1  0.012300  0.841100  0.341400  1.0
  C  C1183  1  0.512300  0.658900  0.158600  1.0
  C  C1184  1  0.012300  0.658900  0.658600  1.0
  C  C1185  1  0.514900  0.108400  0.182900  1.0
  C  C1186  1  0.014900  0.108400  0.682900  1.0
  C  C1187  1  0.514900  0.391600  0.817100  1.0
  C  C1188  1  0.014900  0.391600  0.317100  1.0
  C  C1189  1  0.485100  0.891600  0.817100  1.0
  C  C1190  1  0.985100  0.891600  0.317100  1.0
  C  C1191  1  0.485100  0.608400  0.182900  1.0
  C  C1192  1  0.985100  0.608400  0.682900  1.0
  C  C1193  1  0.430800  0.211200  0.077800  1.0
  C  C1194  1  0.930800  0.211200  0.577800  1.0
  C  C1195  1  0.430800  0.288800  0.922200  1.0
  C  C1196  1  0.930800  0.288800  0.422200  1.0
  C  C1197  1  0.569200  0.788800  0.922200  1.0
  C  C1198  1  0.069200  0.788800  0.422200  1.0
  C  C1199  1  0.569200  0.711200  0.077800  1.0
  C  C1200  1  0.069200  0.711200  0.577800  1.0
  C  C1201  1  0.369600  0.226600  0.035700  1.0
  C  C1202  1  0.869600  0.226600  0.535700  1.0
  C  C1203  1  0.369600  0.273400  0.964300  1.0
  C  C1204  1  0.869600  0.273400  0.464300  1.0
  C  C1205  1  0.630400  0.773400  0.964300  1.0
  C  C1206  1  0.130400  0.773400  0.464300  1.0
  C  C1207  1  0.630400  0.726600  0.035700  1.0
  C  C1208  1  0.130400  0.726600  0.535700  1.0
  C  C1209  1  0.099500  0.038400  0.145100  1.0
  C  C1210  1  0.599500  0.038400  0.645100  1.0
  C  C1211  1  0.099500  0.461600  0.854900  1.0
  C  C1212  1  0.599500  0.461600  0.354900  1.0
  C  C1213  1  0.900500  0.961600  0.854900  1.0
  C  C1214  1  0.400500  0.961600  0.354900  1.0
  C  C1215  1  0.900500  0.538400  0.145100  1.0
  C  C1216  1  0.400500  0.538400  0.645100  1.0
  C  C1217  1  0.136800  0.980400  0.124800  1.0
  C  C1218  1  0.636800  0.980400  0.624800  1.0
  C  C1219  1  0.136800  0.519600  0.875200  1.0
  C  C1220  1  0.636800  0.519600  0.375200  1.0
  C  C1221  1  0.863200  0.019600  0.875200  1.0
  C  C1222  1  0.363200  0.019600  0.375200  1.0
  C  C1223  1  0.863200  0.480400  0.124800  1.0
  C  C1224  1  0.363200  0.480400  0.624800  1.0
  C  C1225  1  0.062500  0.154700  0.136400  1.0
  C  C1226  1  0.562500  0.154700  0.636400  1.0
  C  C1227  1  0.062500  0.345300  0.863600  1.0
  C  C1228  1  0.562500  0.345300  0.363600  1.0
  C  C1229  1  0.937500  0.845300  0.863600  1.0
  C  C1230  1  0.437500  0.845300  0.363600  1.0
  C  C1231  1  0.937500  0.654700  0.136400  1.0
  C  C1232  1  0.437500  0.654700  0.636400  1.0
  C  C1233  1  0.961800  0.169100  0.143100  1.0
  C  C1234  1  0.461800  0.169100  0.643100  1.0
  C  C1235  1  0.961800  0.330900  0.856900  1.0
  C  C1236  1  0.461800  0.330900  0.356900  1.0
  C  C1237  1  0.038200  0.830900  0.856900  1.0
  C  C1238  1  0.538200  0.830900  0.356900  1.0
  C  C1239  1  0.038200  0.669100  0.143100  1.0
  C  C1240  1  0.538200  0.669100  0.643100  1.0
  C  C1241  1  0.072800  0.069700  0.048900  1.0
  C  C1242  1  0.572800  0.069700  0.548900  1.0
  C  C1243  1  0.072800  0.430300  0.951100  1.0
  C  C1244  1  0.572800  0.430300  0.451100  1.0
  C  C1245  1  0.927200  0.930300  0.951100  1.0
  C  C1246  1  0.427200  0.930300  0.451100  1.0
  C  C1247  1  0.927200  0.569700  0.048900  1.0
  C  C1248  1  0.427200  0.569700  0.548900  1.0
  C  C1249  1  0.063800  0.103400  0.015300  1.0
  C  C1250  1  0.563800  0.103400  0.515300  1.0
  C  C1251  1  0.063800  0.396600  0.984700  1.0
  C  C1252  1  0.563800  0.396600  0.484700  1.0
  C  C1253  1  0.936200  0.896600  0.984700  1.0
  C  C1254  1  0.436200  0.896600  0.484700  1.0
  C  C1255  1  0.936200  0.603400  0.015300  1.0
  C  C1256  1  0.436200  0.603400  0.515300  1.0
  Cl  Cl1257  1  0.664200  0.199630  0.020970  1
  Cl  Cl1258  1  0.164200  0.199630  0.520970  1
  Cl  Cl1259  1  0.664200  0.300370  0.979030  1
  Cl  Cl1260  1  0.164200  0.300370  0.479030  1
  Cl  Cl1261  1  0.335800  0.800370  0.979030  1
  Cl  Cl1262  1  0.835800  0.800370  0.479030  1
  Cl  Cl1263  1  0.335800  0.699630  0.020970  1
  Cl  Cl1264  1  0.835800  0.699630  0.520970  1
  Cl  Cl1265  1  0.842300  0.194200  0.049200  1
  Cl  Cl1266  1  0.342300  0.194200  0.549200  1
  Cl  Cl1267  1  0.842300  0.305800  0.950800  1
  Cl  Cl1268  1  0.342300  0.305800  0.450800  1
  Cl  Cl1269  1  0.157700  0.805800  0.950800  1
  Cl  Cl1270  1  0.657700  0.805800  0.450800  1
  Cl  Cl1271  1  0.157700  0.694200  0.049200  1
  Cl  Cl1272  1  0.657700  0.694200  0.549200  1
  Cl  Cl1273  1  0.803200  0.163900  0.947900  1
  Cl  Cl1274  1  0.303200  0.163900  0.447900  1
  Cl  Cl1275  1  0.803200  0.336100  0.052100  1
  Cl  Cl1276  1  0.303200  0.336100  0.552100  1
  Cl  Cl1277  1  0.196800  0.836100  0.052100  1
  Cl  Cl1278  1  0.696800  0.836100  0.552100  1
  Cl  Cl1279  1  0.196800  0.663900  0.947900  1
  Cl  Cl1280  1  0.696800  0.663900  0.447900  1
  Cl  Cl1281  1  0.918900  0.150300  0.973400  1
  Cl  Cl1282  1  0.418900  0.150300  0.473400  1
  Cl  Cl1283  1  0.918900  0.349700  0.026600  1
  Cl  Cl1284  1  0.418900  0.349700  0.526600  1
  Cl  Cl1285  1  0.081100  0.849700  0.026600  1
  Cl  Cl1286  1  0.581100  0.849700  0.526600  1
  Cl  Cl1287  1  0.081100  0.650300  0.973400  1
  Cl  Cl1288  1  0.581100  0.650300  0.473400  1
  Cl  Cl1289  1  0.750300  0.143800  0.926200  1
  Cl  Cl1290  1  0.250300  0.143800  0.426200  1
  Cl  Cl1291  1  0.750300  0.356200  0.073800  1
  Cl  Cl1292  1  0.250300  0.356200  0.573800  1
  Cl  Cl1293  1  0.249700  0.856200  0.073800  1
  Cl  Cl1294  1  0.749700  0.856200  0.573800  1
  Cl  Cl1295  1  0.249700  0.643800  0.926200  1
  Cl  Cl1296  1  0.749700  0.643800  0.426200  1
  Cl  Cl1297  1  0.767800  0.186000  0.029200  1
  Cl  Cl1298  1  0.267800  0.186000  0.529200  1
  Cl  Cl1299  1  0.767800  0.314000  0.970800  1
  Cl  Cl1300  1  0.267800  0.314000  0.470800  1
  Cl  Cl1301  1  0.232200  0.814000  0.970800  1
  Cl  Cl1302  1  0.732200  0.814000  0.470800  1
  Cl  Cl1303  1  0.232200  0.686000  0.029200  1
  Cl  Cl1304  1  0.732200  0.686000  0.529200  1
  O  O1305  1  0.304100  0.129080  0.927630  1.0
  O  O1306  1  0.804100  0.129080  0.427630  1.0
  O  O1307  1  0.304100  0.370920  0.072370  1.0
  O  O1308  1  0.804100  0.370920  0.572370  1.0
  O  O1309  1  0.695900  0.870920  0.072370  1.0
  O  O1310  1  0.195900  0.870920  0.572370  1.0
  O  O1311  1  0.695900  0.629080  0.927630  1.0
  O  O1312  1  0.195900  0.629080  0.427630  1.0
  O  O1313  1  0.314900  0.015620  0.864900  1.0
  O  O1314  1  0.814900  0.015620  0.364900  1.0
  O  O1315  1  0.314900  0.484380  0.135100  1.0
  O  O1316  1  0.814900  0.484380  0.635100  1.0
  O  O1317  1  0.685100  0.984380  0.135100  1.0
  O  O1318  1  0.185100  0.984380  0.635100  1.0
  O  O1319  1  0.685100  0.515620  0.864900  1.0
  O  O1320  1  0.185100  0.515620  0.364900  1.0
  O  O1321  1  0.286600  0.929600  0.929350  1.0
  O  O1322  1  0.786600  0.929600  0.429350  1.0
  O  O1323  1  0.286600  0.570400  0.070650  1.0
  O  O1324  1  0.786600  0.570400  0.570650  1.0
  O  O1325  1  0.713400  0.070400  0.070650  1.0
  O  O1326  1  0.213400  0.070400  0.570650  1.0
  O  O1327  1  0.713400  0.429600  0.929350  1.0
  O  O1328  1  0.213400  0.429600  0.429350  1.0
  O  O1329  1  0.263700  0.989600  0.030650  1.0
  O  O1330  1  0.763700  0.989600  0.530650  1.0
  O  O1331  1  0.263700  0.510400  0.969350  1.0
  O  O1332  1  0.763700  0.510400  0.469350  1.0
  O  O1333  1  0.736300  0.010400  0.969350  1.0
  O  O1334  1  0.236300  0.010400  0.469350  1.0
  O  O1335  1  0.736300  0.489600  0.030650  1.0
  O  O1336  1  0.236300  0.489600  0.530650  1.0
  O  O1337  1  0.275100  0.114330  0.027540  1.0
  O  O1338  1  0.775100  0.114330  0.527540  1.0
  O  O1339  1  0.275100  0.385670  0.972460  1.0
  O  O1340  1  0.775100  0.385670  0.472460  1.0
  O  O1341  1  0.724900  0.885670  0.972460  1.0
  O  O1342  1  0.224900  0.885670  0.472460  1.0
  O  O1343  1  0.724900  0.614330  0.027540  1.0
  O  O1344  1  0.224900  0.614330  0.527540  1.0
