
#######################################################################
#
#                 Cambridge Crystallographic Data Centre
#                                CCDC 
#
#######################################################################
#
# If this CIF has been generated from an entry in the Cambridge 
# Structural Database, then it will include bibliographic, chemical, 
# crystal, experimental, refinement or atomic coordinate data resulting 
# from the CCDC's data processing and validation procedures.
#
#######################################################################

data_SATXAN
_chemical_formula_moiety         'C86 H136 O10 P8 Pt4,4(C1 H1 Cl3)'
_chemical_name_systematic        
"bis((\m~2~-Phenanthrene-3,6-diyl)-(\m~2~-1,3-croconato-O,O')-bis(bis(triethylphosphine)-platinum(ii))) chloroform solvate"
_symmetry_cell_setting           monoclinic
_symmetry_space_group_name_H-M   'P 21/n'
_symmetry_Int_Tables_number      14
_space_group_name_Hall           '-P 2yn'
loop_
_symmetry_equiv_pos_site_id
_symmetry_equiv_pos_as_xyz
1 x,y,z
2 1/2-x,1/2+y,1/2-z
3 -x,-y,-z
4 1/2+x,1/2-y,1/2+z
_cell_length_a                   19.7622(3)
_cell_length_b                   14.1900(2)
_cell_length_c                   19.9798(2)
_cell_angle_alpha                90
_cell_angle_beta                 97.2834(8)
_cell_angle_gamma                90
_cell_volume                     5557.64
_exptl_crystal_colour            yellow
_exptl_crystal_description       prism
_cell_formula_units_Z            2
_exptl_crystal_recrystallization_method acetone/chloroform/dichloromethane
loop_
_atom_site_label
_atom_site_type_symbol
_atom_site_fract_x
_atom_site_fract_y
_atom_site_fract_z
Pt1 Pt 0.221109(8) 0.195883(11) -0.112578(7)
Pt2 Pt 0.112684(8) 0.053697(14) 0.261561(8)
P1 P 0.24225(6) 0.03666(8) -0.11266(5)
P2 P 0.20550(6) 0.35613(8) -0.11672(6)
P3 P 0.14941(6) -0.08900(10) 0.22510(6)
P4 P 0.08075(6) 0.19617(10) 0.30258(6)
O1 O 0.24979(15) 0.1990(2) -0.00628(13)
O2 O 0.09705(16) 0.2064(3) -0.01843(16)
O3 O 0.05815(15) 0.1516(3) 0.11253(16)
O4 O 0.18584(15) 0.1170(3) 0.20525(14)
O5 O 0.29958(17) 0.1513(4) 0.13066(16)
C1 C 0.2115(2) 0.1834(3) 0.0386(2)
C2 C 0.1365(2) 0.1858(3) 0.0319(2)
C3 C 0.1168(2) 0.1586(3) 0.0987(2)
C4 C 0.1801(2) 0.1425(3) 0.1447(2)
C5 C 0.2386(2) 0.1594(4) 0.1081(2)
C6 C 0.0537(2) -0.0117(3) 0.3210(2)
C7 C 0.0746(2) -0.0206(4) 0.3911(2)
H1 H 0.1183 0.0016 0.4096
C8 C 0.0325(2) -0.0611(3) 0.4329(2)
H2 H 0.0473 -0.0648 0.4800
C9 C -0.0320(2) -0.0971(3) 0.4075(2)
C10 C -0.0778(2) -0.1331(3) 0.4509(2)
H3 H -0.0641 -0.1342 0.4983
C11 C -0.1401(2) -0.1656(3) 0.4263(2)
H4 H -0.1705 -0.1859 0.4566
C12 C -0.1613(2) -0.1700(3) 0.3548(2)
C13 C -0.2258(2) -0.2059(3) 0.3279(2)
H5 H -0.2571 -0.2250 0.3576
C14 C -0.2437(2) -0.2136(3) 0.2589(2)
H6 H -0.2876 -0.2371 0.2420
C15 C 0.1979(2) 0.1870(3) -0.2131(2)
C16 C 0.1356(2) 0.1508(3) -0.23991(19)
H7 H 0.1041 0.1332 -0.2099
C17 C -0.1165(2) -0.1387(3) 0.30948(19)
C18 C -0.0516(2) -0.0951(3) 0.33689(19)
C19 C -0.0083(2) -0.0506(3) 0.2958(2)
H8 H -0.0224 -0.0472 0.2486
C20 C 0.2784(3) -0.0065(4) -0.0295(2)
H9 H 0.3188 0.0323 -0.0133
H10 H 0.2443 0.0031 0.0022
C21 C 0.2997(4) -0.1103(4) -0.0268(3)
H11 H 0.3182 -0.1270 0.0196
H12 H 0.3347 -0.1205 -0.0567
H13 H 0.2599 -0.1498 -0.0415
C22 C 0.3022(2) 0.0018(4) -0.1705(2)
H14 H 0.3092 -0.0672 -0.1674
H15 H 0.2820 0.0166 -0.2173
C23 C 0.3708(3) 0.0507(4) -0.1561(3)
H16 H 0.4008 0.0294 -0.1885
H17 H 0.3915 0.0353 -0.1102
H18 H 0.3644 0.1191 -0.1602
C24 C 0.1674(3) -0.0382(3) -0.1378(2)
H19 H 0.1503 -0.0260 -0.1858
H20 H 0.1813 -0.1052 -0.1336
C25 C 0.1103(3) -0.0206(5) -0.0952(3)
H21 H 0.0717 -0.0620 -0.1104
H22 H 0.0957 0.0453 -0.0999
H23 H 0.1267 -0.0338 -0.0477
C26 C 0.2775(2) 0.4174(3) -0.1453(2)
H24 H 0.2818 0.3981 -0.1922
H25 H 0.2688 0.4861 -0.1454
C27 C 0.3441(3) 0.3969(4) -0.1010(3)
H26 H 0.3813 0.4312 -0.1183
H27 H 0.3535 0.3291 -0.1014
H28 H 0.3406 0.4173 -0.0547
C28 C 0.1326(2) 0.3991(4) -0.1734(3)
H29 H 0.1330 0.4689 -0.1730
H30 H 0.1372 0.3783 -0.2199
C29 C 0.0642(3) 0.3646(5) -0.1545(3)
H31 H 0.0270 0.3899 -0.1867
H32 H 0.0587 0.3863 -0.1089
H33 H 0.0629 0.2956 -0.1558
C30 C 0.1976(3) 0.4071(4) -0.0339(3)
H34 H 0.1544 0.3844 -0.0193
H35 H 0.2354 0.3829 -0.0013
C31 C 0.1982(4) 0.5134(4) -0.0304(4)
H36 H 0.1939 0.5334 0.0158
H37 H 0.1600 0.5386 -0.0612
H38 H 0.2413 0.5371 -0.0434
C32 C 0.1113(3) -0.1960(4) 0.2537(3)
H39 H 0.1210 -0.1987 0.3035
H40 H 0.0612 -0.1914 0.2421
C33 C 0.1350(3) -0.2894(4) 0.2250(3)
H41 H 0.1115 -0.3421 0.2437
H42 H 0.1843 -0.2963 0.2371
H43 H 0.1242 -0.2892 0.1757
C34 C 0.2402(3) -0.1013(5) 0.2519(3)
H44 H 0.2553 -0.1643 0.2383
H45 H 0.2651 -0.0534 0.2285
C35 C 0.2587(3) -0.0899(5) 0.3283(3)
H46 H 0.3081 -0.0968 0.3401
H47 H 0.2352 -0.1383 0.3517
H48 H 0.2445 -0.0274 0.3420
C36 C 0.1405(3) -0.0980(4) 0.1330(2)
H49 H 0.1662 -0.0462 0.1146
H50 H 0.1603 -0.1584 0.1201
C37 C 0.0650(3) -0.0927(4) 0.1022(3)
H51 H 0.0618 -0.0977 0.0530
H52 H 0.0456 -0.0324 0.1143
H53 H 0.0396 -0.1445 0.1198
C38 C 0.1321(3) 0.2264(5) 0.3823(3)
H54 H 0.1244 0.2936 0.3923
H55 H 0.1160 0.1885 0.4187
C39 C 0.2073(3) 0.2107(5) 0.3834(3)
H56 H 0.2310 0.2289 0.4275
H57 H 0.2241 0.2489 0.3481
H58 H 0.2158 0.1439 0.3752
C40 C 0.0887(3) 0.2946(4) 0.2450(3)
H59 H 0.1361 0.2956 0.2339
H60 H 0.0584 0.2820 0.2026
C41 C 0.0721(4) 0.3921(5) 0.2697(4)
H61 H 0.0779 0.4388 0.2347
H62 H 0.1028 0.4072 0.3107
H63 H 0.0248 0.3934 0.2796
C42 C -0.0058(3) 0.2030(4) 0.3237(3)
H64 H -0.0129 0.1523 0.3562
H65 H -0.0122 0.2642 0.3459
C43 C -0.0593(3) 0.1935(5) 0.2616(3)
H66 H -0.1051 0.1977 0.2754
H67 H -0.0540 0.1324 0.2400
H68 H -0.0532 0.2442 0.2296
Pt1B Pt -0.221109(8) -0.195883(11) 0.112578(7)
Pt2B Pt -0.112684(8) -0.053697(14) -0.261561(8)
P1B P -0.24225(6) -0.03666(8) 0.11266(5)
P2B P -0.20550(6) -0.35613(8) 0.11672(6)
P3B P -0.14941(6) 0.08900(10) -0.22510(6)
P4B P -0.08075(6) -0.19617(10) -0.30258(6)
O1B O -0.24979(15) -0.1990(2) 0.00628(13)
O2B O -0.09705(16) -0.2064(3) 0.01843(16)
O3B O -0.05815(15) -0.1516(3) -0.11253(16)
O4B O -0.18584(15) -0.1170(3) -0.20525(14)
O5B O -0.29958(17) -0.1513(4) -0.13066(16)
C1B C -0.2115(2) -0.1834(3) -0.0386(2)
C2B C -0.1365(2) -0.1858(3) -0.0319(2)
C3B C -0.1168(2) -0.1586(3) -0.0987(2)
C4B C -0.1801(2) -0.1425(3) -0.1447(2)
C5B C -0.2386(2) -0.1594(4) -0.1081(2)
C6B C -0.0537(2) 0.0117(3) -0.3210(2)
C7B C -0.0746(2) 0.0206(4) -0.3911(2)
H1B H -0.1183 -0.0016 -0.4096
C8B C -0.0325(2) 0.0611(3) -0.4329(2)
H2B H -0.0473 0.0648 -0.4800
C9B C 0.0320(2) 0.0971(3) -0.4075(2)
C10B C 0.0778(2) 0.1331(3) -0.4509(2)
H3B H 0.0641 0.1342 -0.4983
C11B C 0.1401(2) 0.1656(3) -0.4263(2)
H4B H 0.1705 0.1859 -0.4566
C12B C 0.1613(2) 0.1700(3) -0.3548(2)
C13B C 0.2258(2) 0.2059(3) -0.3279(2)
H5B H 0.2571 0.2250 -0.3576
C14B C 0.2437(2) 0.2136(3) -0.2589(2)
H6B H 0.2876 0.2371 -0.2420
C15B C -0.1979(2) -0.1870(3) 0.2131(2)
C16B C -0.1356(2) -0.1508(3) 0.23991(19)
H7B H -0.1041 -0.1332 0.2099
C17B C 0.1165(2) 0.1387(3) -0.30948(19)
C18B C 0.0516(2) 0.0951(3) -0.33689(19)
C19B C 0.0083(2) 0.0506(3) -0.2958(2)
H8B H 0.0224 0.0472 -0.2486
C20B C -0.2784(3) 0.0065(4) 0.0295(2)
H9B H -0.3188 -0.0323 0.0133
H10B H -0.2443 -0.0031 -0.0022
C21B C -0.2997(4) 0.1103(4) 0.0268(3)
H11B H -0.3182 0.1270 -0.0196
H12B H -0.3347 0.1205 0.0567
H13B H -0.2599 0.1498 0.0415
C22B C -0.3022(2) -0.0018(4) 0.1705(2)
H14B H -0.3092 0.0672 0.1674
H15B H -0.2820 -0.0166 0.2173
C23B C -0.3708(3) -0.0507(4) 0.1561(3)
H16B H -0.4008 -0.0294 0.1885
H17B H -0.3915 -0.0353 0.1102
H18B H -0.3644 -0.1191 0.1602
C24B C -0.1674(3) 0.0382(3) 0.1378(2)
H19B H -0.1503 0.0260 0.1858
H20B H -0.1813 0.1052 0.1336
C25B C -0.1103(3) 0.0206(5) 0.0952(3)
H21B H -0.0717 0.0620 0.1104
H22B H -0.0957 -0.0453 0.0999
H23B H -0.1267 0.0338 0.0477
C26B C -0.2775(2) -0.4174(3) 0.1453(2)
H24B H -0.2818 -0.3981 0.1922
H25B H -0.2688 -0.4861 0.1454
C27B C -0.3441(3) -0.3969(4) 0.1010(3)
H26B H -0.3813 -0.4312 0.1183
H27B H -0.3535 -0.3291 0.1014
H28B H -0.3406 -0.4173 0.0547
C28B C -0.1326(2) -0.3991(4) 0.1734(3)
H29B H -0.1330 -0.4689 0.1730
H30B H -0.1372 -0.3783 0.2199
C29B C -0.0642(3) -0.3646(5) 0.1545(3)
H31B H -0.0270 -0.3899 0.1867
H32B H -0.0587 -0.3863 0.1089
H33B H -0.0629 -0.2956 0.1558
C30B C -0.1976(3) -0.4071(4) 0.0339(3)
H34B H -0.1544 -0.3844 0.0193
H35B H -0.2354 -0.3829 0.0013
C31B C -0.1982(4) -0.5134(4) 0.0304(4)
H36B H -0.1939 -0.5334 -0.0158
H37B H -0.1600 -0.5386 0.0612
H38B H -0.2413 -0.5371 0.0434
C32B C -0.1113(3) 0.1960(4) -0.2537(3)
H39B H -0.1210 0.1987 -0.3035
H40B H -0.0612 0.1914 -0.2421
C33B C -0.1350(3) 0.2894(4) -0.2250(3)
H41B H -0.1115 0.3421 -0.2437
H42B H -0.1843 0.2963 -0.2371
H43B H -0.1242 0.2892 -0.1757
C34B C -0.2402(3) 0.1013(5) -0.2519(3)
H44B H -0.2553 0.1643 -0.2383
H45B H -0.2651 0.0534 -0.2285
C35B C -0.2587(3) 0.0899(5) -0.3283(3)
H46B H -0.3081 0.0968 -0.3401
H47B H -0.2352 0.1383 -0.3517
H48B H -0.2445 0.0274 -0.3420
C36B C -0.1405(3) 0.0980(4) -0.1330(2)
H49B H -0.1662 0.0462 -0.1146
H50B H -0.1603 0.1584 -0.1201
C37B C -0.0650(3) 0.0927(4) -0.1022(3)
H51B H -0.0618 0.0977 -0.0530
H52B H -0.0456 0.0324 -0.1143
H53B H -0.0396 0.1445 -0.1198
C38B C -0.1321(3) -0.2264(5) -0.3823(3)
H54B H -0.1244 -0.2936 -0.3923
H55B H -0.1160 -0.1885 -0.4187
C39B C -0.2073(3) -0.2107(5) -0.3834(3)
H56B H -0.2310 -0.2289 -0.4275
H57B H -0.2241 -0.2489 -0.3481
H58B H -0.2158 -0.1439 -0.3752
C40B C -0.0887(3) -0.2946(4) -0.2450(3)
H59B H -0.1361 -0.2956 -0.2339
H60B H -0.0584 -0.2820 -0.2026
C41B C -0.0721(4) -0.3921(5) -0.2697(4)
H61B H -0.0779 -0.4388 -0.2347
H62B H -0.1028 -0.4072 -0.3107
H63B H -0.0248 -0.3934 -0.2796
C42B C 0.0058(3) -0.2030(4) -0.3237(3)
H64B H 0.0129 -0.1523 -0.3562
H65B H 0.0122 -0.2642 -0.3459
C43B C 0.0593(3) -0.1935(5) -0.2616(3)
H66B H 0.1051 -0.1977 -0.2754
H67B H 0.0540 -0.1324 -0.2400
H68B H 0.0532 -0.2442 -0.2296
Cl1 Cl 0.42938(10) 0.15992(17) 0.45423(9)
Cl2 Cl 0.4069(2) 0.2225(3) 0.5883(3)
Cl3 Cl 0.5204(2) 0.10333(17) 0.56815(17)
C44 C 0.4655(3) 0.1958(4) 0.5345(3)
H69 H 0.4938 0.2531 0.5294
Cl6 Cl 0.44649(12) 0.18866(15) 0.00361(10)
Cl7 Cl 0.44662(11) 0.00641(14) 0.06667(11)
Cl8 Cl 0.50231(11) 0.16457(16) 0.14356(9)
C45 C 0.4404(3) 0.1273(5) 0.0790(3)
H70 H 0.3946 0.1407 0.0931
loop_
_geom_bond_atom_site_label_1
_geom_bond_atom_site_label_2
_geom_bond_site_symmetry_1
_geom_bond_site_symmetry_2
Pt1 P1 1_555 1_555
Pt2 P3 1_555 1_555
Cl1 C44 1_555 1_555
Cl2 C44 1_555 1_555
Cl3 C44 1_555 1_555
Cl6 C45 1_555 1_555
Cl7 C45 1_555 1_555
Cl8 C45 1_555 1_555
P1 C20 1_555 1_555
P2 Pt1 1_555 1_555
P3 C32 1_555 1_555
P4 Pt2 1_555 1_555
O1 Pt1 1_555 1_555
O2 C2 1_555 1_555
O3 C3 1_555 1_555
O4 Pt2 1_555 1_555
O5 C5 1_555 1_555
C1 O1 1_555 1_555
C2 C1 1_555 1_555
C3 C2 1_555 1_555
C4 O4 1_555 1_555
C5 C1 1_555 1_555
C6 Pt2 1_555 1_555
C7 C6 1_555 1_555
H1 C7 1_555 1_555
C8 C7 1_555 1_555
H2 C8 1_555 1_555
C9 C8 1_555 1_555
C10 C9 1_555 1_555
H3 C10 1_555 1_555
C11 C10 1_555 1_555
H4 C11 1_555 1_555
C12 C11 1_555 1_555
C13 C12 1_555 1_555
H5 C13 1_555 1_555
C14 C13 1_555 1_555
H6 C14 1_555 1_555
C15 Pt1 1_555 1_555
C16 C15 1_555 1_555
H7 C16 1_555 1_555
C17 C12 1_555 1_555
C18 C9 1_555 1_555
C19 C6 1_555 1_555
H8 C19 1_555 1_555
C20 H9 1_555 1_555
H10 C20 1_555 1_555
C21 C20 1_555 1_555
H11 C21 1_555 1_555
H12 C21 1_555 1_555
H13 C21 1_555 1_555
C22 P1 1_555 1_555
H14 C22 1_555 1_555
H15 C22 1_555 1_555
C23 C22 1_555 1_555
H16 C23 1_555 1_555
H17 C23 1_555 1_555
H18 C23 1_555 1_555
C24 P1 1_555 1_555
H19 C24 1_555 1_555
H20 C24 1_555 1_555
C25 C24 1_555 1_555
H21 C25 1_555 1_555
H22 C25 1_555 1_555
H23 C25 1_555 1_555
C26 P2 1_555 1_555
H24 C26 1_555 1_555
H25 C26 1_555 1_555
C27 C26 1_555 1_555
H26 C27 1_555 1_555
H27 C27 1_555 1_555
H28 C27 1_555 1_555
C28 P2 1_555 1_555
H29 C28 1_555 1_555
H30 C28 1_555 1_555
C29 C28 1_555 1_555
H31 C29 1_555 1_555
H32 C29 1_555 1_555
H33 C29 1_555 1_555
C30 P2 1_555 1_555
H34 C30 1_555 1_555
H35 C30 1_555 1_555
C31 C30 1_555 1_555
H36 C31 1_555 1_555
H37 C31 1_555 1_555
H38 C31 1_555 1_555
C32 H39 1_555 1_555
H40 C32 1_555 1_555
C33 C32 1_555 1_555
H41 C33 1_555 1_555
H42 C33 1_555 1_555
H43 C33 1_555 1_555
C34 P3 1_555 1_555
H44 C34 1_555 1_555
H45 C34 1_555 1_555
C35 C34 1_555 1_555
H46 C35 1_555 1_555
H47 C35 1_555 1_555
H48 C35 1_555 1_555
C36 P3 1_555 1_555
H49 C36 1_555 1_555
H50 C36 1_555 1_555
C37 C36 1_555 1_555
H51 C37 1_555 1_555
H52 C37 1_555 1_555
H53 C37 1_555 1_555
C38 P4 1_555 1_555
H54 C38 1_555 1_555
H55 C38 1_555 1_555
C39 C38 1_555 1_555
H56 C39 1_555 1_555
H57 C39 1_555 1_555
H58 C39 1_555 1_555
C40 P4 1_555 1_555
H59 C40 1_555 1_555
H60 C40 1_555 1_555
C41 C40 1_555 1_555
H61 C41 1_555 1_555
H62 C41 1_555 1_555
H63 C41 1_555 1_555
C42 P4 1_555 1_555
H64 C42 1_555 1_555
H65 C42 1_555 1_555
C43 C42 1_555 1_555
H66 C43 1_555 1_555
H67 C43 1_555 1_555
H68 C43 1_555 1_555
C44 H69 1_555 1_555
C45 H70 1_555 1_555
Pt1B P1B 1_555 1_555
Pt2B P3B 1_555 1_555
P1B C20B 1_555 1_555
P2B Pt1B 1_555 1_555
P3B C32B 1_555 1_555
P4B Pt2B 1_555 1_555
O1B Pt1B 1_555 1_555
O2B C2B 1_555 1_555
O3B C3B 1_555 1_555
O4B Pt2B 1_555 1_555
O5B C5B 1_555 1_555
C1B O1B 1_555 1_555
C2B C1B 1_555 1_555
C3B C2B 1_555 1_555
C4B O4B 1_555 1_555
C5B C1B 1_555 1_555
C6B Pt2B 1_555 1_555
C7B C6B 1_555 1_555
H1B C7B 1_555 1_555
C8B C7B 1_555 1_555
H2B C8B 1_555 1_555
C9B C8B 1_555 1_555
C10B C9B 1_555 1_555
H3B C10B 1_555 1_555
C11B C10B 1_555 1_555
H4B C11B 1_555 1_555
C12B C11B 1_555 1_555
C13B C12B 1_555 1_555
H5B C13B 1_555 1_555
C14B C15 1_555 1_555
H6B C14B 1_555 1_555
C15B C14 1_555 1_555
C16B C17 1_555 1_555
H7B C16B 1_555 1_555
C17B C16 1_555 1_555
C18B C9B 1_555 1_555
C19B C6B 1_555 1_555
H8B C19B 1_555 1_555
C20B H9B 1_555 1_555
H10B C20B 1_555 1_555
C21B C20B 1_555 1_555
H11B C21B 1_555 1_555
H12B C21B 1_555 1_555
H13B C21B 1_555 1_555
C22B P1B 1_555 1_555
H14B C22B 1_555 1_555
H15B C22B 1_555 1_555
C23B C22B 1_555 1_555
H16B C23B 1_555 1_555
H17B C23B 1_555 1_555
H18B C23B 1_555 1_555
C24B P1B 1_555 1_555
H19B C24B 1_555 1_555
H20B C24B 1_555 1_555
C25B C24B 1_555 1_555
H21B C25B 1_555 1_555
H22B C25B 1_555 1_555
H23B C25B 1_555 1_555
C26B P2B 1_555 1_555
H24B C26B 1_555 1_555
H25B C26B 1_555 1_555
C27B C26B 1_555 1_555
H26B C27B 1_555 1_555
H27B C27B 1_555 1_555
H28B C27B 1_555 1_555
C28B P2B 1_555 1_555
H29B C28B 1_555 1_555
H30B C28B 1_555 1_555
C29B C28B 1_555 1_555
H31B C29B 1_555 1_555
H32B C29B 1_555 1_555
H33B C29B 1_555 1_555
C30B P2B 1_555 1_555
H34B C30B 1_555 1_555
H35B C30B 1_555 1_555
C31B C30B 1_555 1_555
H36B C31B 1_555 1_555
H37B C31B 1_555 1_555
H38B C31B 1_555 1_555
C32B H39B 1_555 1_555
H40B C32B 1_555 1_555
C33B C32B 1_555 1_555
H41B C33B 1_555 1_555
H42B C33B 1_555 1_555
H43B C33B 1_555 1_555
C34B P3B 1_555 1_555
H44B C34B 1_555 1_555
H45B C34B 1_555 1_555
C35B C34B 1_555 1_555
H46B C35B 1_555 1_555
H47B C35B 1_555 1_555
H48B C35B 1_555 1_555
C36B P3B 1_555 1_555
H49B C36B 1_555 1_555
H50B C36B 1_555 1_555
C37B C36B 1_555 1_555
H51B C37B 1_555 1_555
H52B C37B 1_555 1_555
H53B C37B 1_555 1_555
C38B P4B 1_555 1_555
H54B C38B 1_555 1_555
H55B C38B 1_555 1_555
C39B C38B 1_555 1_555
H56B C39B 1_555 1_555
H57B C39B 1_555 1_555
H58B C39B 1_555 1_555
C40B P4B 1_555 1_555
H59B C40B 1_555 1_555
H60B C40B 1_555 1_555
C41B C40B 1_555 1_555
H61B C41B 1_555 1_555
H62B C41B 1_555 1_555
H63B C41B 1_555 1_555
C42B P4B 1_555 1_555
H64B C42B 1_555 1_555
H65B C42B 1_555 1_555
C43B C42B 1_555 1_555
H66B C43B 1_555 1_555
H67B C43B 1_555 1_555
H68B C43B 1_555 1_555
C3 C4 1_555 1_555
C4 C5 1_555 1_555
C17 C18 1_555 1_555
C18 C19 1_555 1_555
Pt1B C15B 1_555 1_555
C3B C4B 1_555 1_555
C4B C5B 1_555 1_555
C12B C17B 1_555 1_555
C13B C14B 1_555 1_555
C15B C16B 1_555 1_555
C17B C18B 1_555 1_555
C18B C19B 1_555 1_555

#END
