
#######################################################################
#
#                 Cambridge Crystallographic Data Centre
#                                CCDC 
#
#######################################################################
#
# If this CIF has been generated from an entry in the Cambridge 
# Structural Database, then it will include bibliographic, chemical, 
# crystal, experimental, refinement or atomic coordinate data resulting 
# from the CCDC's data processing and validation procedures.
#
#######################################################################

data_SATXER
_chemical_formula_moiety         'C80 H136 O8 P8 Pt4,4(C1 H1 Cl3)'
_chemical_name_systematic        
"bis((\m~2~-Anthracene-1,8-diyl)-(\m~2~-oxalato-O,O')-bis(bis(triethylphosphine)-platinum(ii))) chloroform solvate"
_symmetry_cell_setting           tetragonal
_symmetry_space_group_name_H-M   'P 42 21 2'
_symmetry_Int_Tables_number      94
_space_group_name_Hall           'P 4n 2n'
loop_
_symmetry_equiv_pos_site_id
_symmetry_equiv_pos_as_xyz
1 x,y,z
2 -x,-y,z
3 1/2+x,1/2-y,1/2-z
4 1/2-x,1/2+y,1/2-z
5 -y,-x,-z
6 y,x,-z
7 1/2+y,1/2-x,1/2+z
8 1/2-y,1/2+x,1/2+z
_cell_length_a                   14.8806(4)
_cell_length_b                   14.8806(4)
_cell_length_c                   23.7853(7)
_cell_angle_alpha                90
_cell_angle_beta                 90
_cell_angle_gamma                90
_cell_volume                     5266.83
_exptl_crystal_colour            yellow
_exptl_crystal_description       prism
_cell_formula_units_Z            2
_exptl_crystal_recrystallization_method acetone/chloroform/dichloromethane
loop_
_atom_site_label
_atom_site_type_symbol
_atom_site_fract_x
_atom_site_fract_y
_atom_site_fract_z
Pt1 Pt 0.65151(3) 0.61190(3) 0.644574(19)
P1 P 0.7096(4) 0.4768(3) 0.61660(15)
P2 P 0.6180(2) 0.75487(19) 0.67565(11)
O1 O 0.6421(5) 0.6555(5) 0.5598(3)
O2 O 0.7824(8) 0.6874(11) 0.5440(5)
C1 C 0.7062(8) 0.6829(8) 0.5292(4)
C2 C 0.6536(9) 0.5726(7) 0.7255(5)
C3 C 0.7276(10) 0.5880(8) 0.7570(5)
H1 H 0.7804 0.6094 0.7390
C4 C 0.7292(10) 0.5732(8) 0.8165(5)
H2 H 0.7839 0.5814 0.8365
C5 C 0.6567(10) 0.5484(7) 0.8441(4)
H3 H 0.6581 0.5446 0.8839
C6 C 0.5767(11) 0.5273(8) 0.8147(5)
C7 C 0.5766(10) 0.5331(7) 0.7543(4)
C8 C 0.5000 0.5000 0.8424(6)
H4 H 0.5000 0.5000 0.8824
C9 C 0.5000 0.5000 0.7268(6)
H5 H 0.5000 0.5000 0.6868
C10 C 0.6910(15) 0.3859(10) 0.6567(8)
H6 H 0.7168 0.3992 0.6942
H7 H 0.6252 0.3813 0.6618
C11 C 0.7238(11) 0.2931(9) 0.6404(8)
H8 H 0.7071 0.2499 0.6698
H9 H 0.7893 0.2940 0.6363
H10 H 0.6962 0.2752 0.6047
C12 C 0.7363(14) 0.4599(12) 0.5489(8)
H11 H 0.6774 0.4491 0.5308
H12 H 0.7552 0.5202 0.5358
C13 C 0.797(2) 0.398(3) 0.5186(12)
H13 H 0.7924 0.4090 0.4780
H14 H 0.7811 0.3361 0.5270
H15 H 0.8595 0.4095 0.5306
C14 C 0.8384(17) 0.4642(14) 0.6496(14)
H16 H 0.8370 0.4645 0.6913
H17 H 0.8673 0.4080 0.6366
C15 C 0.8859(15) 0.5429(16) 0.6281(12)
H18 H 0.9479 0.5426 0.6420
H19 H 0.8555 0.5976 0.6409
H20 H 0.8861 0.5413 0.5869
C16 C 0.5669(18) 0.7683(15) 0.7455(11)
H24 H 0.6015 0.7335 0.7735
H25 H 0.5684 0.8324 0.7566
C17 C 0.4712(19) 0.736(2) 0.7442(14)
H26 H 0.4444 0.7426 0.7816
H27 H 0.4700 0.6723 0.7333
H28 H 0.4368 0.7712 0.7169
C18 C 0.7175(13) 0.8132(10) 0.6970(8)
H29 H 0.7006 0.8757 0.7066
H30 H 0.7402 0.7846 0.7318
C19 C 0.7928(11) 0.8167(12) 0.6556(12)
H31 H 0.8433 0.8500 0.6719
H32 H 0.7725 0.8471 0.6213
H33 H 0.8120 0.7555 0.6464
C20 C 0.5745(12) 0.8284(10) 0.6246(5)
H34 H 0.6226 0.8394 0.5967
H35 H 0.5256 0.7963 0.6047
C21 C 0.539(2) 0.9153(15) 0.6418(13)
H38 H 0.5186 0.9483 0.6087
H39 H 0.5870 0.9496 0.6606
H40 H 0.4892 0.9065 0.6679
Pt1E Pt 0.61190(3) 0.65151(3) 0.355426(19)
Pt1D Pt 0.38810(3) 0.34849(3) 0.355426(19)
Pt1A Pt 0.34849(3) 0.38810(3) 0.644574(19)
P1E P 0.4768(3) 0.7096(4) 0.38340(15)
P1D P 0.5232(3) 0.2904(4) 0.38340(15)
P1A P 0.2904(4) 0.5232(3) 0.61660(15)
P2E P 0.75487(19) 0.6180(2) 0.32435(11)
P2D P 0.24513(19) 0.3820(2) 0.32435(11)
P2A P 0.3820(2) 0.24513(19) 0.67565(11)
O1E O 0.6555(5) 0.6421(5) 0.4402(3)
O1D O 0.3445(5) 0.3579(5) 0.4402(3)
O1A O 0.3579(5) 0.3445(5) 0.5598(3)
O2D O 0.3126(11) 0.2176(8) 0.4560(5)
O2A O 0.2176(8) 0.3126(11) 0.5440(5)
O2E O 0.6874(11) 0.7824(8) 0.4560(5)
C1E C 0.6829(8) 0.7062(8) 0.4708(4)
C1D C 0.3171(8) 0.2938(8) 0.4708(4)
C1A C 0.2938(8) 0.3171(8) 0.5292(4)
C2E C 0.5726(7) 0.6536(9) 0.2745(5)
C2D C 0.4274(7) 0.3464(9) 0.2745(5)
C2A C 0.3464(9) 0.4274(7) 0.7255(5)
C3E C 0.5880(8) 0.7276(10) 0.2430(5)
C3A C 0.2724(10) 0.4120(8) 0.7570(5)
C3D C 0.4120(8) 0.2724(10) 0.2430(5)
H1E H 0.6094 0.7804 0.2610
H1A H 0.2196 0.3906 0.7390
H1D H 0.3906 0.2196 0.2610
C4E C 0.5732(8) 0.7292(10) 0.1835(5)
C4A C 0.2708(10) 0.4268(8) 0.8165(5)
C4D C 0.4268(8) 0.2708(10) 0.1835(5)
H2E H 0.5814 0.7839 0.1635
H2A H 0.2161 0.4186 0.8365
H2D H 0.4186 0.2161 0.1635
C5E C 0.5484(7) 0.6567(10) 0.1559(4)
C5A C 0.3433(10) 0.4516(7) 0.8441(4)
C5D C 0.4516(7) 0.3433(10) 0.1559(4)
H3E H 0.5446 0.6581 0.1161
H3A H 0.3419 0.4554 0.8839
H3D H 0.4554 0.3419 0.1161
C6E C 0.5273(8) 0.5767(11) 0.1853(5)
C6A C 0.4233(11) 0.4727(8) 0.8147(5)
C6D C 0.4727(8) 0.4233(11) 0.1853(5)
C7E C 0.5331(7) 0.5766(10) 0.2457(4)
C7D C 0.4669(7) 0.4234(10) 0.2457(4)
C7A C 0.4234(10) 0.4669(7) 0.7543(4)
C8D C 0.5000 0.5000 0.1576(6)
H4D H 0.5000 0.5000 0.1176
C9D C 0.5000 0.5000 0.2732(6)
H5D H 0.5000 0.5000 0.3132
C10E C 0.3859(10) 0.6910(15) 0.3433(8)
C10D C 0.6141(10) 0.3090(15) 0.3433(8)
C10A C 0.3090(15) 0.6141(10) 0.6567(8)
H6E H 0.3992 0.7168 0.3058
H6D H 0.6008 0.2832 0.3058
H6A H 0.2832 0.6008 0.6942
H7E H 0.3813 0.6252 0.3382
H7D H 0.6187 0.3748 0.3382
H7A H 0.3748 0.6187 0.6618
C11E C 0.2931(9) 0.7238(11) 0.3596(8)
C11D C 0.7069(9) 0.2762(11) 0.3596(8)
C11A C 0.2762(11) 0.7069(9) 0.6404(8)
H8E H 0.2499 0.7071 0.3302
H8D H 0.7501 0.2929 0.3302
H8A H 0.2929 0.7501 0.6698
H9E H 0.2940 0.7893 0.3637
H9D H 0.7060 0.2107 0.3637
H9A H 0.2107 0.7060 0.6363
H10E H 0.2752 0.6962 0.3953
H10D H 0.7248 0.3038 0.3953
H10A H 0.3038 0.7248 0.6047
C12E C 0.4599(12) 0.7363(14) 0.4511(8)
C12D C 0.5401(12) 0.2637(14) 0.4511(8)
C12A C 0.2637(14) 0.5401(12) 0.5489(8)
H11E H 0.4491 0.6774 0.4692
H11D H 0.5509 0.3226 0.4692
H11A H 0.3226 0.5509 0.5308
H12E H 0.5202 0.7552 0.4642
H12D H 0.4798 0.2448 0.4642
H12A H 0.2448 0.4798 0.5358
C13E C 0.398(3) 0.797(2) 0.4814(12)
C13D C 0.602(3) 0.203(2) 0.4814(12)
C13A C 0.203(2) 0.602(3) 0.5186(12)
H13E H 0.4090 0.7924 0.5220
H13D H 0.5910 0.2076 0.5220
H13A H 0.2076 0.5910 0.4780
H14E H 0.3361 0.7811 0.4730
H14D H 0.6639 0.2189 0.4730
H14A H 0.2189 0.6639 0.5270
H15E H 0.4095 0.8595 0.4694
H15D H 0.5905 0.1405 0.4694
H15A H 0.1405 0.5905 0.5306
C14E C 0.4642(14) 0.8384(17) 0.3504(14)
C14D C 0.5358(14) 0.1616(17) 0.3504(14)
C14A C 0.1616(17) 0.5358(14) 0.6496(14)
H16E H 0.4645 0.8370 0.3087
H16D H 0.5355 0.1630 0.3087
H16A H 0.1630 0.5355 0.6913
H17E H 0.4080 0.8673 0.3634
H17D H 0.5920 0.1327 0.3634
H17A H 0.1327 0.5920 0.6366
C15E C 0.5429(16) 0.8859(15) 0.3719(12)
C15D C 0.4571(16) 0.1141(15) 0.3719(12)
C15A C 0.1141(15) 0.4571(16) 0.6281(12)
H18E H 0.5426 0.9479 0.3580
H18D H 0.4574 0.0521 0.3580
H18A H 0.0521 0.4574 0.6420
H19E H 0.5976 0.8555 0.3591
H19D H 0.4024 0.1445 0.3591
H19A H 0.1445 0.4024 0.6409
H20E H 0.5413 0.8861 0.4131
H20D H 0.4587 0.1139 0.4131
H20A H 0.1139 0.4587 0.5869
C16E C 0.7683(15) 0.5669(18) 0.2545(11)
C16D C 0.2317(15) 0.4331(18) 0.2545(11)
C16A C 0.4331(18) 0.2317(15) 0.7455(11)
H24E H 0.7335 0.6015 0.2265
H24D H 0.2665 0.3985 0.2265
H24A H 0.3985 0.2665 0.7735
H25E H 0.8324 0.5684 0.2434
H25D H 0.1676 0.4316 0.2434
H25A H 0.4316 0.1676 0.7566
C17E C 0.736(2) 0.4712(19) 0.2558(14)
C17D C 0.264(2) 0.5288(19) 0.2558(14)
C17A C 0.5288(19) 0.264(2) 0.7442(14)
H26E H 0.7426 0.4444 0.2184
H26D H 0.2574 0.5556 0.2184
H26A H 0.5556 0.2574 0.7816
H27E H 0.6723 0.4700 0.2667
H27D H 0.3277 0.5300 0.2667
H27A H 0.5300 0.3277 0.7333
H28E H 0.7712 0.4368 0.2831
H28D H 0.2288 0.5632 0.2831
H28A H 0.5632 0.2288 0.7169
C18E C 0.8132(10) 0.7175(13) 0.3030(8)
C18D C 0.1868(10) 0.2825(13) 0.3030(8)
C18A C 0.2825(13) 0.1868(10) 0.6970(8)
H29E H 0.8757 0.7006 0.2934
H29D H 0.1243 0.2994 0.2934
H29A H 0.2994 0.1243 0.7066
H30E H 0.7846 0.7402 0.2682
H30D H 0.2154 0.2598 0.2682
H30A H 0.2598 0.2154 0.7318
C19E C 0.8167(12) 0.7928(11) 0.3444(12)
C19D C 0.1833(12) 0.2072(11) 0.3444(12)
C19A C 0.2072(11) 0.1833(12) 0.6556(12)
H31E H 0.8500 0.8433 0.3281
H31D H 0.1500 0.1567 0.3281
H31A H 0.1567 0.1500 0.6719
H32E H 0.8471 0.7725 0.3787
H32D H 0.1529 0.2275 0.3787
H32A H 0.2275 0.1529 0.6213
H33E H 0.7555 0.8120 0.3536
H33D H 0.2445 0.1880 0.3536
H33A H 0.1880 0.2445 0.6464
C20E C 0.8284(10) 0.5745(12) 0.3754(5)
C20D C 0.1716(10) 0.4255(12) 0.3754(5)
C20A C 0.4255(12) 0.1716(10) 0.6246(5)
H34E H 0.8394 0.6226 0.4033
H34D H 0.1606 0.3774 0.4033
H34A H 0.3774 0.1606 0.5967
H35E H 0.7963 0.5256 0.3953
H35D H 0.2037 0.4744 0.3953
H35A H 0.4744 0.2037 0.6047
C21E C 0.9153(15) 0.539(2) 0.3582(13)
C21D C 0.0847(15) 0.461(2) 0.3582(13)
C21A C 0.461(2) 0.0847(15) 0.6418(13)
H38E H 0.9483 0.5186 0.3913
H38D H 0.0517 0.4814 0.3913
H38A H 0.4814 0.0517 0.6087
H39E H 0.9496 0.5870 0.3394
H39D H 0.0504 0.4130 0.3394
H39A H 0.4130 0.0504 0.6606
H40E H 0.9065 0.4892 0.3321
H40D H 0.0935 0.5108 0.3321
H40A H 0.5108 0.0935 0.6679
Cl1 Cl 0.5273(7) 0.7336(8) 0.9069(4)
Cl2 Cl 0.5271(11) 0.7989(11) 1.0227(6)
Cl3 Cl 0.4518(7) 0.6334(6) 0.9951(4)
C28 C 0.4698(11) 0.7480(12) 0.9674(7)
H56 H 0.4112 0.7788 0.9603
loop_
_geom_bond_atom_site_label_1
_geom_bond_atom_site_label_2
_geom_bond_site_symmetry_1
_geom_bond_site_symmetry_2
Pt1 P1 1_555 1_555
P1 C10 1_555 1_555
P2 Pt1 1_555 1_555
O1 Pt1 1_555 1_555
O2 C1 1_555 1_555
C1 O1 1_555 1_555
C2 Pt1 1_555 1_555
C3 C2 1_555 1_555
H1 C3 1_555 1_555
C4 C3 1_555 1_555
H2 C4 1_555 1_555
C5 C4 1_555 1_555
H3 C5 1_555 1_555
C6 C5 1_555 1_555
C7 C2 1_555 1_555
C8 C6 1_555 1_555
H4 C8 1_555 1_555
C9 C7 1_555 1_555
H5 C9 1_555 1_555
C10 H6 1_555 1_555
H7 C10 1_555 1_555
C11 C10 1_555 1_555
H8 C11 1_555 1_555
H9 C11 1_555 1_555
H10 C11 1_555 1_555
C12 P1 1_555 1_555
H11 C12 1_555 1_555
H12 C12 1_555 1_555
C13 C12 1_555 1_555
H13 C13 1_555 1_555
H14 C13 1_555 1_555
H15 C13 1_555 1_555
C14 P1 1_555 1_555
H16 C14 1_555 1_555
H17 C14 1_555 1_555
C15 C14 1_555 1_555
H18 C15 1_555 1_555
H19 C15 1_555 1_555
H20 C15 1_555 1_555
C16 P2 1_555 1_555
H24 C16 1_555 1_555
H25 C16 1_555 1_555
C17 C16 1_555 1_555
H26 C17 1_555 1_555
H27 C17 1_555 1_555
H28 C17 1_555 1_555
C18 P2 1_555 1_555
H29 C18 1_555 1_555
H30 C18 1_555 1_555
C19 C18 1_555 1_555
H31 C19 1_555 1_555
H32 C19 1_555 1_555
H33 C19 1_555 1_555
C20 P2 1_555 1_555
H34 C20 1_555 1_555
H35 C20 1_555 1_555
C21 C20 1_555 1_555
H38 C21 1_555 1_555
H39 C21 1_555 1_555
H40 C21 1_555 1_555
Cl1 C28 1_555 1_555
Cl2 C28 1_555 1_555
Cl3 C28 1_555 1_555
C28 H56 1_555 1_555
Pt1E P1E 1_555 1_555
Pt1D P1D 1_555 1_555
Pt1A P1A 1_555 1_555
P1E C10E 1_555 1_555
P1D C10D 1_555 1_555
P1A C10A 1_555 1_555
P2E Pt1E 1_555 1_555
P2D Pt1D 1_555 1_555
P2A Pt1A 1_555 1_555
O1E Pt1E 1_555 1_555
O1D Pt1D 1_555 1_555
O1A Pt1A 1_555 1_555
O2D C1D 1_555 1_555
O2A C1A 1_555 1_555
O2E C1E 1_555 1_555
C1E C1 1_555 1_555
C1D O1D 1_555 1_555
C1A O1A 1_555 1_555
C2E Pt1E 1_555 1_555
C2D Pt1D 1_555 1_555
C2A Pt1A 1_555 1_555
C3E C2E 1_555 1_555
C3A C2A 1_555 1_555
C3D C2D 1_555 1_555
H1E C3E 1_555 1_555
H1A C3A 1_555 1_555
H1D C3D 1_555 1_555
C4E C3E 1_555 1_555
C4A C3A 1_555 1_555
C4D C3D 1_555 1_555
H2E C4E 1_555 1_555
H2A C4A 1_555 1_555
H2D C4D 1_555 1_555
C5E C4E 1_555 1_555
C5A C4A 1_555 1_555
C5D C4D 1_555 1_555
H3E C5E 1_555 1_555
H3A C5A 1_555 1_555
H3D C5D 1_555 1_555
C6E C5E 1_555 1_555
C6A C8 1_555 1_555
C6D C5D 1_555 1_555
C7E C2E 1_555 1_555
C7D C2D 1_555 1_555
C7A C9 1_555 1_555
C8D C6E 1_555 1_555
H4D C8D 1_555 1_555
C9D C7E 1_555 1_555
H5D C9D 1_555 1_555
C10E H6E 1_555 1_555
C10D H6D 1_555 1_555
C10A H6A 1_555 1_555
H7E C10E 1_555 1_555
H7D C10D 1_555 1_555
H7A C10A 1_555 1_555
C11E C10E 1_555 1_555
C11D C10D 1_555 1_555
C11A C10A 1_555 1_555
H8E C11E 1_555 1_555
H8D C11D 1_555 1_555
H8A C11A 1_555 1_555
H9E C11E 1_555 1_555
H9D C11D 1_555 1_555
H9A C11A 1_555 1_555
H10E C11E 1_555 1_555
H10D C11D 1_555 1_555
H10A C11A 1_555 1_555
C12E P1E 1_555 1_555
C12D P1D 1_555 1_555
C12A P1A 1_555 1_555
H11E C12E 1_555 1_555
H11D C12D 1_555 1_555
H11A C12A 1_555 1_555
H12E C12E 1_555 1_555
H12D C12D 1_555 1_555
H12A C12A 1_555 1_555
C13E C12E 1_555 1_555
C13D C12D 1_555 1_555
C13A C12A 1_555 1_555
H13E C13E 1_555 1_555
H13D C13D 1_555 1_555
H13A C13A 1_555 1_555
H14E C13E 1_555 1_555
H14D C13D 1_555 1_555
H14A C13A 1_555 1_555
H15E C13E 1_555 1_555
H15D C13D 1_555 1_555
H15A C13A 1_555 1_555
C14E P1E 1_555 1_555
C14D P1D 1_555 1_555
C14A P1A 1_555 1_555
H16E C14E 1_555 1_555
H16D C14D 1_555 1_555
H16A C14A 1_555 1_555
H17E C14E 1_555 1_555
H17D C14D 1_555 1_555
H17A C14A 1_555 1_555
C15E C14E 1_555 1_555
C15D C14D 1_555 1_555
C15A C14A 1_555 1_555
H18E C15E 1_555 1_555
H18D C15D 1_555 1_555
H18A C15A 1_555 1_555
H19E C15E 1_555 1_555
H19D C15D 1_555 1_555
H19A C15A 1_555 1_555
H20E C15E 1_555 1_555
H20D C15D 1_555 1_555
H20A C15A 1_555 1_555
C16E P2E 1_555 1_555
C16D P2D 1_555 1_555
C16A P2A 1_555 1_555
H24E C16E 1_555 1_555
H24D C16D 1_555 1_555
H24A C16A 1_555 1_555
H25E C16E 1_555 1_555
H25D C16D 1_555 1_555
H25A C16A 1_555 1_555
C17E C16E 1_555 1_555
C17D C16D 1_555 1_555
C17A C16A 1_555 1_555
H26E C17E 1_555 1_555
H26D C17D 1_555 1_555
H26A C17A 1_555 1_555
H27E C17E 1_555 1_555
H27D C17D 1_555 1_555
H27A C17A 1_555 1_555
H28E C17E 1_555 1_555
H28D C17D 1_555 1_555
H28A C17A 1_555 1_555
C18E P2E 1_555 1_555
C18D P2D 1_555 1_555
C18A P2A 1_555 1_555
H29E C18E 1_555 1_555
H29D C18D 1_555 1_555
H29A C18A 1_555 1_555
H30E C18E 1_555 1_555
H30D C18D 1_555 1_555
H30A C18A 1_555 1_555
C19E C18E 1_555 1_555
C19D C18D 1_555 1_555
C19A C18A 1_555 1_555
H31E C19E 1_555 1_555
H31D C19D 1_555 1_555
H31A C19A 1_555 1_555
H32E C19E 1_555 1_555
H32D C19D 1_555 1_555
H32A C19A 1_555 1_555
H33E C19E 1_555 1_555
H33D C19D 1_555 1_555
H33A C19A 1_555 1_555
C20E P2E 1_555 1_555
C20D P2D 1_555 1_555
C20A P2A 1_555 1_555
H34E C20E 1_555 1_555
H34D C20D 1_555 1_555
H34A C20A 1_555 1_555
H35E C20E 1_555 1_555
H35D C20D 1_555 1_555
H35A C20A 1_555 1_555
C21E C20E 1_555 1_555
C21D C20D 1_555 1_555
C21A C20A 1_555 1_555
H38E C21E 1_555 1_555
H38D C21D 1_555 1_555
H38A C21A 1_555 1_555
H39E C21E 1_555 1_555
H39D C21D 1_555 1_555
H39A C21A 1_555 1_555
H40E C21E 1_555 1_555
H40D C21D 1_555 1_555
H40A C21A 1_555 1_555
C6 C7 1_555 1_555
O1E C1E 1_555 1_555
C1D C1A 1_555 1_555
C2A C7A 1_555 1_555
C5A C6A 1_555 1_555
C6E C7E 1_555 1_555
C6A C7A 1_555 1_555
C6D C7D 1_555 1_555
C6D C8D 1_555 1_555
C7D C9D 1_555 1_555

#END
