
#######################################################################
#
#                 Cambridge Crystallographic Data Centre
#                                CCDC 
#
#######################################################################
#
# If this CIF has been generated from an entry in the Cambridge 
# Structural Database, then it will include bibliographic, chemical, 
# crystal, experimental, refinement or atomic coordinate data resulting 
# from the CCDC's data processing and validation procedures.
#
#######################################################################

data_SAXNIR
_chemical_formula_moiety         'C380 H300 N12 O32 Pd3 6+,6(B1 F4 1-)'
_chemical_name_systematic        
"tetrakis(\m-3,3'-(pyridine-3,5-diylbis((anthracene-10,9-diyl)(4,6-bis(2-methoxyethoxy)-3,1-phenylene)anthracene-10,9-diyl))dipyridine)-tri-palladium(ii) hexakis(tetrafluoroborate) unknown solvate"
_symmetry_cell_setting           tetragonal
_symmetry_space_group_name_H-M   'P 4/n c c'
_symmetry_Int_Tables_number      130
_space_group_name_Hall           '-P 4a 2ac'
loop_
_symmetry_equiv_pos_site_id
_symmetry_equiv_pos_as_xyz
1 x,y,z
2 1/2-x,1/2-y,z
3 1/2-y,x,z
4 y,1/2-x,z
5 1/2+x,-y,1/2-z
6 -x,1/2+y,1/2-z
7 -y,-x,1/2-z
8 1/2+y,1/2+x,1/2-z
9 -x,-y,-z
10 1/2+x,1/2+y,-z
11 1/2+y,-x,-z
12 -y,1/2+x,-z
13 1/2-x,y,1/2+z
14 x,1/2-y,1/2+z
15 y,x,1/2+z
16 1/2-y,1/2-x,1/2+z
_cell_length_a                   26.5390(8)
_cell_length_b                   26.5390(8)
_cell_length_c                   71.806(7)
_cell_angle_alpha                90
_cell_angle_beta                 90
_cell_angle_gamma                90
_cell_volume                     50574.3
_exptl_crystal_colour            yellow
_exptl_crystal_description       platelet
_cell_formula_units_Z            4
loop_
_atom_site_label
_atom_site_type_symbol
_atom_site_fract_x
_atom_site_fract_y
_atom_site_fract_z
Pd1 Pd 0.7500 0.7500 0.14331(2)
Pd2 Pd 0.7500 0.7500 0.53929(3)
Pd3 Pd 0.7500 0.7500 0.34611(2)
N1 N 0.68722(17) 0.79305(17) 0.14414(6)
C1 C 0.6781(3) 0.8314(2) 0.13155(9)
H1 H 0.7016 0.8375 0.1218
C2 C 0.6361(2) 0.8605(3) 0.13283(10)
H2 H 0.6304 0.8865 0.1240
C3 C 0.6020(3) 0.8526(3) 0.14672(10)
H3 H 0.5721 0.8722 0.1472
C4 C 0.6111(2) 0.8150(2) 0.16045(8)
C5 C 0.65414(18) 0.7864(2) 0.15838(8)
H4 H 0.6609 0.7608 0.1673
C6 C 0.57748(19) 0.8034(2) 0.17613(9)
C7 C 0.57136(18) 0.83747(19) 0.19087(8)
C8 C 0.54008(16) 0.82430(17) 0.20678(8)
C9 C 0.51755(14) 0.77786(16) 0.20765(8)
C10 C 0.52019(18) 0.74349(17) 0.19240(9)
C11 C 0.55061(19) 0.75738(19) 0.17629(9)
C12 C 0.5982(2) 0.8853(2) 0.19126(10)
H5 H 0.6214 0.8928 0.1816
C13 C 0.5908(2) 0.9196(2) 0.20516(11)
H6 H 0.6077 0.9512 0.2050
C14 C 0.5574(2) 0.90714(19) 0.21996(10)
H7 H 0.5509 0.9312 0.2295
C15 C 0.5348(2) 0.8616(2) 0.22066(9)
H8 H 0.5141 0.8543 0.2311
C16 C 0.5515(2) 0.7224(2) 0.16065(10)
H9 H 0.5702 0.7311 0.1498
C17 C 0.5269(2) 0.6787(2) 0.16116(11)
H10 H 0.5285 0.6566 0.1508
C18 C 0.4982(2) 0.6647(2) 0.17722(11)
H11 H 0.4812 0.6332 0.1775
C19 C 0.49507(16) 0.69643(19) 0.19223(9)
H12 H 0.4756 0.6866 0.2027
C20 C 0.49055(15) 0.76109(15) 0.22487(8)
C21 C 0.43745(16) 0.75684(16) 0.22587(8)
C22 C 0.41492(16) 0.74009(17) 0.24190(9)
H13 H 0.3794 0.7356 0.2423
C23 C 0.44352(16) 0.72960(18) 0.25762(8)
C24 C 0.49503(16) 0.73673(16) 0.25780(8)
C25 C 0.51774(17) 0.75173(16) 0.24133(8)
H14 H 0.5533 0.7559 0.2411
C26 C 0.52503(13) 0.73055(16) 0.27552(7)
C27 C 0.51651(15) 0.76386(15) 0.29028(8)
C28 C 0.54200(16) 0.75921(15) 0.30744(7)
C29 C 0.57607(14) 0.71877(16) 0.31002(7)
C30 C 0.58550(17) 0.68494(18) 0.29559(8)
C31 C 0.56045(15) 0.69148(17) 0.27777(8)
C32 C 0.48408(17) 0.80760(18) 0.28787(10)
H15 H 0.4678 0.8131 0.2763
C33 C 0.4766(2) 0.8413(2) 0.30231(11)
H16 H 0.4546 0.8691 0.3006
C34 C 0.5007(3) 0.8353(2) 0.31919(10)
H17 H 0.4946 0.8585 0.3290
C35 C 0.5336(2) 0.7955(2) 0.32183(9)
H18 H 0.5508 0.7922 0.3334
C36 C 0.5724(2) 0.6564(2) 0.26350(10)
H19 H 0.5558 0.6591 0.2518
C37 C 0.6054(3) 0.6206(3) 0.26588(12)
H20 H 0.6122 0.5981 0.2559
C38 C 0.6313(3) 0.6143(3) 0.28313(12)
H21 H 0.6564 0.5890 0.2844
C39 C 0.6203(2) 0.6442(2) 0.29751(10)
H22 H 0.6358 0.6382 0.3092
O1 O 0.41259(10) 0.76907(12) 0.21004(6)
C40 C 0.35914(17) 0.7629(2) 0.20993(10)
H23 H 0.3434 0.7850 0.2194
H24 H 0.3502 0.7275 0.2128
C41 C 0.3411(2) 0.7768(3) 0.19078(13)
H25 H 0.3647 0.7640 0.1812
H26 H 0.3073 0.7624 0.1884
O2 O 0.3393(2) 0.8317(2) 0.19042(10)
C42 C 0.3169(4) 0.8476(7) 0.1728(2)
H27 H 0.3154 0.8845 0.1723
H28 H 0.3375 0.8352 0.1624
H29 H 0.2827 0.8338 0.1717
O3 O 0.42289(10) 0.71398(13) 0.27437(6)
C43 C 0.37052(16) 0.7216(3) 0.27707(10)
H30 H 0.3507 0.6967 0.2699
H31 H 0.3606 0.7559 0.2731
C44 C 0.3618(2) 0.7149(3) 0.29781(13)
H32 H 0.3886 0.7325 0.3049
H33 H 0.3290 0.7297 0.3014
O4 O 0.36246(18) 0.66179(18) 0.30216(9)
C45 C 0.3550(5) 0.6554(4) 0.32271(15)
H34 H 0.3482 0.6199 0.3255
H35 H 0.3265 0.6760 0.3268
H36 H 0.3856 0.6660 0.3293
N2 N 0.7171(3) 0.6973(4) 0.54169(10)
C46 C 0.7380(7) 0.6517(7) 0.5515(2)
H37 H 0.7681 0.6564 0.5585
C47 C 0.7183(8) 0.6049(7) 0.55148(19)
H38 H 0.7277 0.5829 0.5613
C48 C 0.6855(7) 0.5865(7) 0.5381(2)
H39 H 0.6755 0.5521 0.5376
C49 C 0.6673(7) 0.6246(7) 0.52469(19)
C50 C 0.6933(7) 0.6702(6) 0.52644(19)
H40 H 0.6962 0.6876 0.5149
C51 C 0.6349(6) 0.6083(6) 0.50795(18)
C52 C 0.5879(6) 0.6337(6) 0.50836(18)
C53 C 0.5529(6) 0.6277(5) 0.49225(19)
C54 C 0.5637(6) 0.5972(6) 0.47718(19)
C55 C 0.6082(6) 0.5665(5) 0.47784(17)
C56 C 0.6445(6) 0.5727(6) 0.49358(18)
C57 C 0.5718(6) 0.6638(6) 0.5240(2)
H41 H 0.5928 0.6648 0.5347
C58 C 0.5290(7) 0.6903(7) 0.5243(2)
H42 H 0.5203 0.7109 0.5347
C59 C 0.4965(7) 0.6863(6) 0.5081(3)
H43 H 0.4664 0.7056 0.5079
C60 C 0.5066(6) 0.6568(7) 0.49350(19)
H44 H 0.4829 0.6549 0.4836
C61 C 0.6905(7) 0.5411(7) 0.4926(2)
H45 H 0.7115 0.5388 0.5032
C62 C 0.7038(7) 0.5153(7) 0.4769(2)
H46 H 0.7374 0.5045 0.4748
C63 C 0.6638(7) 0.5052(6) 0.4638(2)
H47 H 0.6696 0.4800 0.4546
C64 C 0.6178(7) 0.5295(7) 0.4634(2)
H48 H 0.5934 0.5223 0.4541
C65 C 0.5331(7) 0.5952(7) 0.46165(18)
C66 C 0.4868(7) 0.5688(7) 0.4605(2)
C67 C 0.4527(6) 0.5666(8) 0.44497(19)
H49 H 0.4206 0.5511 0.4459
C68 C 0.4698(5) 0.5890(6) 0.4280(2)
C69 C 0.5217(5) 0.6101(5) 0.42889(17)
C70 C 0.5486(5) 0.6165(5) 0.44496(16)
H50 H 0.5786 0.6361 0.4447
C71 C 0.5425(3) 0.6321(4) 0.41107(12)
C72 C 0.5484(5) 0.6836(5) 0.40872(13)
C73 C 0.5690(3) 0.7039(3) 0.39161(11)
C74 C 0.5825(2) 0.6695(2) 0.37781(9)
C75 C 0.5819(2) 0.6181(3) 0.38079(11)
C76 C 0.5601(3) 0.5983(3) 0.39773(12)
C77 C 0.5316(8) 0.7212(5) 0.42249(17)
H51 H 0.5133 0.7097 0.4331
C78 C 0.5410(8) 0.7731(5) 0.4208(2)
H52 H 0.5371 0.7957 0.4310
C79 C 0.5572(8) 0.7899(5) 0.40253(16)
H53 H 0.5562 0.8249 0.3997
C80 C 0.5732(4) 0.7580(3) 0.38972(12)
H54 H 0.5882 0.7712 0.3787
C81 C 0.5615(4) 0.5431(4) 0.39997(16)
H55 H 0.5492 0.5294 0.4113
C82 C 0.5785(6) 0.5117(5) 0.38744(17)
H56 H 0.5780 0.4764 0.3895
C83 C 0.5979(5) 0.5323(3) 0.37053(14)
H57 H 0.6100 0.5103 0.3611
C84 C 0.5994(3) 0.5821(3) 0.36774(12)
H58 H 0.6131 0.5940 0.3563
O5 O 0.4736(5) 0.5481(6) 0.47925(12)
C85 C 0.4285(9) 0.5196(9) 0.4808(3)
H59 H 0.4286 0.4991 0.4923
H60 H 0.4244 0.4970 0.4699
C86 C 0.3860(9) 0.5597(12) 0.4813(4)
H61 H 0.3910 0.5857 0.4716
H62 H 0.3525 0.5439 0.4796
O6 O 0.3908(11) 0.5815(11) 0.5001(4)
C87 C 0.4357(16) 0.563(2) 0.5120(6)
H63 H 0.4352 0.5797 0.5242
H64 H 0.4330 0.5263 0.5139
H65 H 0.4674 0.5705 0.5056
O7 O 0.4422(4) 0.5922(5) 0.41272(13)
C88 C 0.4014(6) 0.5559(8) 0.4123(2)
H66 H 0.3703 0.5703 0.4178
H67 H 0.4105 0.5249 0.4191
C89 C 0.3941(10) 0.5448(10) 0.3906(3)
H68 H 0.4270 0.5419 0.3842
H69 H 0.3749 0.5132 0.3886
O8 O 0.3667(10) 0.5869(9) 0.3838(3)
C90 C 0.3390(12) 0.5928(10) 0.3647(3)
H70 H 0.3235 0.6263 0.3641
H71 H 0.3633 0.5890 0.3546
H72 H 0.3129 0.5669 0.3636
N3 N 0.67771(15) 0.72514(14) 0.34567(6)
C91 C 0.65151(14) 0.72892(16) 0.32930(7)
H73 H 0.6676 0.7423 0.3186
C92 C 0.60267(16) 0.71366(16) 0.32823(8)
C93 C 0.57944(18) 0.6936(2) 0.34399(8)
H74 H 0.5456 0.6821 0.3434
C94 C 0.60623(19) 0.6906(2) 0.36044(8)
C95 C 0.65573(18) 0.70667(18) 0.36073(8)
H75 H 0.6744 0.7044 0.3720
N1A N 0.81278(17) 0.70695(17) 0.14414(6)
C1A C 0.8219(3) 0.6686(2) 0.13155(9)
H1A H 0.7984 0.6625 0.1218
C2A C 0.8639(2) 0.6395(3) 0.13283(10)
H2A H 0.8696 0.6135 0.1240
C3A C 0.8980(3) 0.6474(3) 0.14672(10)
H3A H 0.9279 0.6278 0.1472
C4A C 0.8889(2) 0.6850(2) 0.16045(8)
C5A C 0.84586(18) 0.7136(2) 0.15838(8)
H4A H 0.8391 0.7392 0.1673
C6A C 0.92252(19) 0.6966(2) 0.17613(9)
C7A C 0.92864(18) 0.66253(19) 0.19087(8)
C8A C 0.95992(16) 0.67570(17) 0.20678(8)
C9A C 0.98245(14) 0.72214(16) 0.20765(8)
C10A C 0.97981(18) 0.75651(17) 0.19240(9)
C11A C 0.94939(19) 0.74262(19) 0.17629(9)
C12A C 0.9018(2) 0.6147(2) 0.19126(10)
H5A H 0.8786 0.6072 0.1816
C13A C 0.9092(2) 0.5804(2) 0.20516(11)
H6A H 0.8923 0.5488 0.2050
C14A C 0.9426(2) 0.59286(19) 0.21996(10)
H7A H 0.9491 0.5688 0.2295
C15A C 0.9652(2) 0.6384(2) 0.22066(9)
H8A H 0.9859 0.6457 0.2311
C16A C 0.9485(2) 0.7776(2) 0.16065(10)
H9A H 0.9298 0.7689 0.1498
C17A C 0.9731(2) 0.8213(2) 0.16116(11)
H10A H 0.9715 0.8434 0.1508
C18A C 1.0018(2) 0.8353(2) 0.17722(11)
H11A H 1.0188 0.8668 0.1775
C19A C 1.00493(16) 0.80357(19) 0.19223(9)
H12A H 1.0244 0.8134 0.2027
C20A C 1.00945(15) 0.73891(15) 0.22487(8)
C21A C 1.06255(16) 0.74316(16) 0.22587(8)
C22A C 1.08508(16) 0.75991(17) 0.24190(9)
H13A H 1.1206 0.7644 0.2423
C23A C 1.05648(16) 0.77040(18) 0.25762(8)
C24A C 1.00497(16) 0.76327(16) 0.25780(8)
C25A C 0.98226(17) 0.74827(16) 0.24133(8)
H14A H 0.9467 0.7441 0.2411
C26A C 0.97497(13) 0.76945(16) 0.27552(7)
C27A C 0.98349(15) 0.73614(15) 0.29028(8)
C28A C 0.95800(16) 0.74079(15) 0.30744(7)
C29A C 0.92393(14) 0.78123(16) 0.31002(7)
C30A C 0.91450(17) 0.81506(18) 0.29559(8)
C31A C 0.93955(15) 0.80852(17) 0.27777(8)
C32A C 1.01592(17) 0.69240(18) 0.28787(10)
H15A H 1.0322 0.6869 0.2763
C33A C 1.0234(2) 0.6587(2) 0.30231(11)
H16A H 1.0454 0.6309 0.3006
C34A C 0.9993(3) 0.6647(2) 0.31919(10)
H17A H 1.0054 0.6415 0.3290
C35A C 0.9664(2) 0.7045(2) 0.32183(9)
H18A H 0.9492 0.7078 0.3334
C36A C 0.9276(2) 0.8436(2) 0.26350(10)
H19A H 0.9442 0.8409 0.2518
C37A C 0.8946(3) 0.8794(3) 0.26588(12)
H20A H 0.8878 0.9019 0.2559
C38A C 0.8687(3) 0.8857(3) 0.28313(12)
H21A H 0.8436 0.9110 0.2844
C39A C 0.8797(2) 0.8558(2) 0.29751(10)
H22A H 0.8642 0.8618 0.3092
O1A O 1.08741(10) 0.73093(12) 0.21004(6)
C40A C 1.14086(17) 0.7371(2) 0.20993(10)
H23A H 1.1566 0.7150 0.2194
H24A H 1.1498 0.7725 0.2128
C41A C 1.1589(2) 0.7232(3) 0.19078(13)
H25A H 1.1353 0.7360 0.1812
H26A H 1.1927 0.7376 0.1884
O2A O 1.1607(2) 0.6683(2) 0.19042(10)
C42A C 1.1831(4) 0.6524(7) 0.1728(2)
H27A H 1.1846 0.6155 0.1723
H28A H 1.1625 0.6648 0.1624
H29A H 1.2173 0.6662 0.1717
O3A O 1.07711(10) 0.78602(13) 0.27437(6)
C43A C 1.12948(16) 0.7784(3) 0.27707(10)
H30A H 1.1493 0.8033 0.2699
H31A H 1.1394 0.7441 0.2731
C44A C 1.1382(2) 0.7851(3) 0.29781(13)
H32A H 1.1114 0.7675 0.3049
H33A H 1.1710 0.7703 0.3014
O4A O 1.13754(18) 0.83821(18) 0.30216(9)
C45A C 1.1450(5) 0.8446(4) 0.32271(15)
H34A H 1.1518 0.8801 0.3255
H35A H 1.1735 0.8240 0.3268
H36A H 1.1144 0.8340 0.3293
N2A N 0.7829(3) 0.8027(4) 0.54169(10)
C46A C 0.7620(7) 0.8483(7) 0.5515(2)
H37A H 0.7319 0.8436 0.5585
C47A C 0.7817(8) 0.8951(7) 0.55148(19)
H38A H 0.7723 0.9171 0.5613
C48A C 0.8145(7) 0.9135(7) 0.5381(2)
H39A H 0.8245 0.9479 0.5376
C49A C 0.8327(7) 0.8754(7) 0.52469(19)
C50A C 0.8067(7) 0.8298(6) 0.52644(19)
H40A H 0.8038 0.8124 0.5149
C51A C 0.8651(6) 0.8917(6) 0.50795(18)
C52A C 0.9121(6) 0.8663(6) 0.50836(18)
C53A C 0.9471(6) 0.8723(5) 0.49225(19)
C54A C 0.9363(6) 0.9028(6) 0.47718(19)
C55A C 0.8918(6) 0.9335(5) 0.47784(17)
C56A C 0.8555(6) 0.9273(6) 0.49358(18)
C57A C 0.9282(6) 0.8362(6) 0.5240(2)
H41A H 0.9072 0.8352 0.5347
C58A C 0.9710(7) 0.8097(7) 0.5243(2)
H42A H 0.9797 0.7891 0.5347
C59A C 1.0035(7) 0.8137(6) 0.5081(3)
H43A H 1.0336 0.7944 0.5079
C60A C 0.9934(6) 0.8432(7) 0.49350(19)
H44A H 1.0171 0.8451 0.4836
C61A C 0.8095(7) 0.9589(7) 0.4926(2)
H45A H 0.7885 0.9612 0.5032
C62A C 0.7962(7) 0.9847(7) 0.4769(2)
H46A H 0.7626 0.9955 0.4748
C63A C 0.8362(7) 0.9948(6) 0.4638(2)
H47A H 0.8304 1.0200 0.4546
C64A C 0.8822(7) 0.9705(7) 0.4634(2)
H48A H 0.9066 0.9777 0.4541
C65A C 0.9669(7) 0.9048(7) 0.46165(18)
C66A C 1.0132(7) 0.9312(7) 0.4605(2)
C67A C 1.0473(6) 0.9334(8) 0.44497(19)
H49A H 1.0794 0.9489 0.4459
C68A C 1.0302(5) 0.9110(6) 0.4280(2)
C69A C 0.9783(5) 0.8899(5) 0.42889(17)
C70A C 0.9514(5) 0.8835(5) 0.44496(16)
H50A H 0.9214 0.8639 0.4447
C71A C 0.9575(3) 0.8679(4) 0.41107(12)
C72A C 0.9516(5) 0.8164(5) 0.40872(13)
C73A C 0.9310(3) 0.7961(3) 0.39161(11)
C74A C 0.9175(2) 0.8305(2) 0.37781(9)
C75A C 0.9181(2) 0.8819(3) 0.38079(11)
C76A C 0.9399(3) 0.9017(3) 0.39773(12)
C77A C 0.9684(8) 0.7788(5) 0.42249(17)
H51A H 0.9867 0.7903 0.4331
C78A C 0.9590(8) 0.7269(5) 0.4208(2)
H52A H 0.9629 0.7043 0.4310
C79A C 0.9428(8) 0.7101(5) 0.40253(16)
H53A H 0.9438 0.6751 0.3997
C80A C 0.9268(4) 0.7420(3) 0.38972(12)
H54A H 0.9118 0.7288 0.3787
C81A C 0.9385(4) 0.9569(4) 0.39997(16)
H55A H 0.9508 0.9706 0.4113
C82A C 0.9215(6) 0.9883(5) 0.38744(17)
H56A H 0.9220 1.0236 0.3895
C83A C 0.9021(5) 0.9677(3) 0.37053(14)
H57A H 0.8900 0.9897 0.3611
C84A C 0.9006(3) 0.9179(3) 0.36774(12)
H58A H 0.8869 0.9060 0.3563
O5A O 1.0264(5) 0.9519(6) 0.47925(12)
C85A C 1.0715(9) 0.9804(9) 0.4808(3)
H59A H 1.0714 1.0009 0.4923
H60A H 1.0756 1.0030 0.4699
C86A C 1.1140(9) 0.9403(12) 0.4813(4)
H61A H 1.1090 0.9143 0.4716
H62A H 1.1475 0.9561 0.4796
O6A O 1.1092(11) 0.9185(11) 0.5001(4)
C87A C 1.0643(16) 0.937(2) 0.5120(6)
H63A H 1.0648 0.9203 0.5242
H64A H 1.0670 0.9737 0.5139
H65A H 1.0326 0.9295 0.5056
O7A O 1.0578(4) 0.9078(5) 0.41272(13)
C88A C 1.0986(6) 0.9441(8) 0.4123(2)
H66A H 1.1297 0.9297 0.4178
H67A H 1.0895 0.9751 0.4191
C89A C 1.1059(10) 0.9552(10) 0.3906(3)
H68A H 1.0730 0.9581 0.3842
H69A H 1.1251 0.9868 0.3886
O8A O 1.1333(10) 0.9131(9) 0.3838(3)
C90A C 1.1610(12) 0.9072(10) 0.3647(3)
H70A H 1.1765 0.8737 0.3641
H71A H 1.1367 0.9110 0.3546
H72A H 1.1871 0.9331 0.3636
N3A N 0.82229(15) 0.77486(14) 0.34567(6)
C91A C 0.84849(14) 0.77108(16) 0.32930(7)
H73A H 0.8324 0.7577 0.3186
C92A C 0.89733(16) 0.78634(16) 0.32823(8)
C93A C 0.92056(18) 0.8064(2) 0.34399(8)
H74A H 0.9544 0.8179 0.3434
C94A C 0.89377(19) 0.8094(2) 0.36044(8)
C95A C 0.84427(18) 0.79333(18) 0.36073(8)
H75A H 0.8256 0.7956 0.3720
N1B N 0.70695(17) 0.68722(17) 0.14414(6)
C1B C 0.6686(2) 0.6781(3) 0.13155(9)
H1B H 0.6625 0.7016 0.1218
C2B C 0.6395(3) 0.6361(2) 0.13283(10)
H2B H 0.6135 0.6304 0.1240
C3B C 0.6474(3) 0.6020(3) 0.14672(10)
H3B H 0.6278 0.5721 0.1472
C4B C 0.6850(2) 0.6111(2) 0.16045(8)
C5B C 0.7136(2) 0.65414(18) 0.15838(8)
H4B H 0.7392 0.6609 0.1673
C6B C 0.6966(2) 0.57748(19) 0.17613(9)
C7B C 0.66253(19) 0.57136(18) 0.19087(8)
C8B C 0.67570(17) 0.54008(16) 0.20678(8)
C9B C 0.72214(16) 0.51755(14) 0.20765(8)
C10B C 0.75651(17) 0.52019(18) 0.19240(9)
C11B C 0.74262(19) 0.55061(19) 0.17629(9)
C12B C 0.6147(2) 0.5982(2) 0.19126(10)
H5B H 0.6072 0.6214 0.1816
C13B C 0.5804(2) 0.5908(2) 0.20516(11)
H6B H 0.5488 0.6077 0.2050
C14B C 0.59286(19) 0.5574(2) 0.21996(10)
H7B H 0.5688 0.5509 0.2295
C15B C 0.6384(2) 0.5348(2) 0.22066(9)
H8B H 0.6457 0.5141 0.2311
C16B C 0.7776(2) 0.5515(2) 0.16065(10)
H9B H 0.7689 0.5702 0.1498
C17B C 0.8213(2) 0.5269(2) 0.16116(11)
H10B H 0.8434 0.5285 0.1508
C18B C 0.8353(2) 0.4982(2) 0.17722(11)
H11B H 0.8668 0.4812 0.1775
C19B C 0.80357(19) 0.49507(16) 0.19223(9)
H12B H 0.8134 0.4756 0.2027
C20B C 0.73891(15) 0.49055(15) 0.22487(8)
C21B C 0.74316(16) 0.43745(16) 0.22587(8)
C22B C 0.75991(17) 0.41492(16) 0.24190(9)
H13B H 0.7644 0.3794 0.2423
C23B C 0.77040(18) 0.44352(16) 0.25762(8)
C24B C 0.76327(16) 0.49503(16) 0.25780(8)
C25B C 0.74827(16) 0.51774(17) 0.24133(8)
H14B H 0.7441 0.5533 0.2411
C26B C 0.76945(16) 0.52503(13) 0.27552(7)
C27B C 0.73614(15) 0.51651(15) 0.29028(8)
C28B C 0.74079(15) 0.54200(16) 0.30744(7)
C29B C 0.78123(16) 0.57607(14) 0.31002(7)
C30B C 0.81506(18) 0.58550(17) 0.29559(8)
C31B C 0.80852(17) 0.56045(15) 0.27777(8)
C32B C 0.69240(18) 0.48408(17) 0.28787(10)
H15B H 0.6869 0.4678 0.2763
C33B C 0.6587(2) 0.4766(2) 0.30231(11)
H16B H 0.6309 0.4546 0.3006
C34B C 0.6647(2) 0.5007(3) 0.31919(10)
H17B H 0.6415 0.4946 0.3290
C35B C 0.7045(2) 0.5336(2) 0.32183(9)
H18B H 0.7078 0.5508 0.3334
C36B C 0.8436(2) 0.5724(2) 0.26350(10)
H19B H 0.8409 0.5558 0.2518
C37B C 0.8794(3) 0.6054(3) 0.26588(12)
H20B H 0.9019 0.6122 0.2559
C38B C 0.8857(3) 0.6313(3) 0.28313(12)
H21B H 0.9110 0.6564 0.2844
C39B C 0.8558(2) 0.6203(2) 0.29751(10)
H22B H 0.8618 0.6358 0.3092
O1B O 0.73093(12) 0.41259(10) 0.21004(6)
C40B C 0.7371(2) 0.35914(17) 0.20993(10)
H23B H 0.7150 0.3434 0.2194
H24B H 0.7725 0.3502 0.2128
C41B C 0.7232(3) 0.3411(2) 0.19078(13)
H25B H 0.7360 0.3647 0.1812
H26B H 0.7376 0.3073 0.1884
O2B O 0.6683(2) 0.3393(2) 0.19042(10)
C42B C 0.6524(7) 0.3169(4) 0.1728(2)
H27B H 0.6155 0.3154 0.1723
H28B H 0.6648 0.3375 0.1624
H29B H 0.6662 0.2827 0.1717
O3B O 0.78602(13) 0.42289(10) 0.27437(6)
C43B C 0.7784(3) 0.37052(16) 0.27707(10)
H30B H 0.8033 0.3507 0.2699
H31B H 0.7441 0.3606 0.2731
C44B C 0.7851(3) 0.3618(2) 0.29781(13)
H32B H 0.7675 0.3886 0.3049
H33B H 0.7703 0.3290 0.3014
O4B O 0.83821(18) 0.36246(18) 0.30216(9)
C45B C 0.8446(4) 0.3550(5) 0.32271(15)
H34B H 0.8801 0.3482 0.3255
H35B H 0.8240 0.3265 0.3268
H36B H 0.8340 0.3856 0.3293
N2B N 0.8027(4) 0.7171(3) 0.54169(10)
C46B C 0.8483(7) 0.7380(7) 0.5515(2)
H37B H 0.8436 0.7681 0.5585
C47B C 0.8951(7) 0.7183(8) 0.55148(19)
H38B H 0.9171 0.7277 0.5613
C48B C 0.9135(7) 0.6855(7) 0.5381(2)
H39B H 0.9479 0.6755 0.5376
C49B C 0.8754(7) 0.6673(7) 0.52469(19)
C50B C 0.8298(6) 0.6933(7) 0.52644(19)
H40B H 0.8124 0.6962 0.5149
C51B C 0.8917(6) 0.6349(6) 0.50795(18)
C52B C 0.8663(6) 0.5879(6) 0.50836(18)
C53B C 0.8723(5) 0.5529(6) 0.49225(19)
C54B C 0.9028(6) 0.5637(6) 0.47718(19)
C55B C 0.9335(5) 0.6082(6) 0.47784(17)
C56B C 0.9273(6) 0.6445(6) 0.49358(18)
C57B C 0.8362(6) 0.5718(6) 0.5240(2)
H41B H 0.8352 0.5928 0.5347
C58B C 0.8097(7) 0.5290(7) 0.5243(2)
H42B H 0.7891 0.5203 0.5347
C59B C 0.8137(6) 0.4965(7) 0.5081(3)
H43B H 0.7944 0.4664 0.5079
C60B C 0.8432(7) 0.5066(6) 0.49350(19)
H44B H 0.8451 0.4829 0.4836
C61B C 0.9589(7) 0.6905(7) 0.4926(2)
H45B H 0.9612 0.7115 0.5032
C62B C 0.9847(7) 0.7038(7) 0.4769(2)
H46B H 0.9955 0.7374 0.4748
C63B C 0.9948(6) 0.6638(7) 0.4638(2)
H47B H 1.0200 0.6696 0.4546
C64B C 0.9705(7) 0.6178(7) 0.4634(2)
H48B H 0.9777 0.5934 0.4541
C65B C 0.9048(7) 0.5331(7) 0.46165(18)
C66B C 0.9312(7) 0.4868(7) 0.4605(2)
C67B C 0.9334(8) 0.4527(6) 0.44497(19)
H49B H 0.9489 0.4206 0.4459
C68B C 0.9110(6) 0.4698(5) 0.4280(2)
C69B C 0.8899(5) 0.5217(5) 0.42889(17)
C70B C 0.8835(5) 0.5486(5) 0.44496(16)
H50B H 0.8639 0.5786 0.4447
C71B C 0.8679(4) 0.5425(3) 0.41107(12)
C72B C 0.8164(5) 0.5484(5) 0.40872(13)
C73B C 0.7961(3) 0.5690(3) 0.39161(11)
C74B C 0.8305(2) 0.5825(2) 0.37781(9)
C75B C 0.8819(3) 0.5819(2) 0.38079(11)
C76B C 0.9017(3) 0.5601(3) 0.39773(12)
C77B C 0.7788(5) 0.5316(8) 0.42249(17)
H51B H 0.7903 0.5133 0.4331
C78B C 0.7269(5) 0.5410(8) 0.4208(2)
H52B H 0.7043 0.5371 0.4310
C79B C 0.7101(5) 0.5572(8) 0.40253(16)
H53B H 0.6751 0.5562 0.3997
C80B C 0.7420(3) 0.5732(4) 0.38972(12)
H54B H 0.7288 0.5882 0.3787
C81B C 0.9569(4) 0.5615(4) 0.39997(16)
H55B H 0.9706 0.5492 0.4113
C82B C 0.9883(5) 0.5785(6) 0.38744(17)
H56B H 1.0236 0.5780 0.3895
C83B C 0.9677(3) 0.5979(5) 0.37053(14)
H57B H 0.9897 0.6100 0.3611
C84B C 0.9179(3) 0.5994(3) 0.36774(12)
H58B H 0.9060 0.6131 0.3563
O5B O 0.9519(6) 0.4736(5) 0.47925(12)
C85B C 0.9804(9) 0.4285(9) 0.4808(3)
H59B H 1.0009 0.4286 0.4923
H60B H 1.0030 0.4244 0.4699
C86B C 0.9403(12) 0.3860(9) 0.4813(4)
H61B H 0.9143 0.3910 0.4716
H62B H 0.9561 0.3525 0.4796
O6B O 0.9185(11) 0.3908(11) 0.5001(4)
C87B C 0.937(2) 0.4357(16) 0.5120(6)
H63B H 0.9203 0.4352 0.5242
H64B H 0.9737 0.4330 0.5139
H65B H 0.9295 0.4674 0.5056
O7B O 0.9078(5) 0.4422(4) 0.41272(13)
C88B C 0.9441(8) 0.4014(6) 0.4123(2)
H66B H 0.9297 0.3703 0.4178
H67B H 0.9751 0.4105 0.4191
C89B C 0.9552(10) 0.3941(10) 0.3906(3)
H68B H 0.9581 0.4270 0.3842
H69B H 0.9868 0.3749 0.3886
O8B O 0.9131(9) 0.3667(10) 0.3838(3)
C90B C 0.9072(10) 0.3390(12) 0.3647(3)
H70B H 0.8737 0.3235 0.3641
H71B H 0.9110 0.3633 0.3546
H72B H 0.9331 0.3129 0.3636
N3B N 0.77486(14) 0.67771(15) 0.34567(6)
C91B C 0.77108(16) 0.65151(14) 0.32930(7)
H73B H 0.7577 0.6676 0.3186
C92B C 0.78634(16) 0.60267(16) 0.32823(8)
C93B C 0.8064(2) 0.57944(18) 0.34399(8)
H74B H 0.8179 0.5456 0.3434
C94B C 0.8094(2) 0.60623(19) 0.36044(8)
C95B C 0.79333(18) 0.65573(18) 0.36073(8)
H75B H 0.7956 0.6744 0.3720
N1C N 0.79305(17) 0.81278(17) 0.14414(6)
C1C C 0.8314(2) 0.8219(3) 0.13155(9)
H1C H 0.8375 0.7984 0.1218
C2C C 0.8605(3) 0.8639(2) 0.13283(10)
H2C H 0.8865 0.8696 0.1240
C3C C 0.8526(3) 0.8980(3) 0.14672(10)
H3C H 0.8722 0.9279 0.1472
C4C C 0.8150(2) 0.8889(2) 0.16045(8)
C5C C 0.7864(2) 0.84586(18) 0.15838(8)
H4C H 0.7608 0.8391 0.1673
C6C C 0.8034(2) 0.92252(19) 0.17613(9)
C7C C 0.83747(19) 0.92864(18) 0.19087(8)
C8C C 0.82430(17) 0.95992(16) 0.20678(8)
C9C C 0.77786(16) 0.98245(14) 0.20765(8)
C10C C 0.74349(17) 0.97981(18) 0.19240(9)
C11C C 0.75738(19) 0.94939(19) 0.17629(9)
C12C C 0.8853(2) 0.9018(2) 0.19126(10)
H5C H 0.8928 0.8786 0.1816
C13C C 0.9196(2) 0.9092(2) 0.20516(11)
H6C H 0.9512 0.8923 0.2050
C14C C 0.90714(19) 0.9426(2) 0.21996(10)
H7C H 0.9312 0.9491 0.2295
C15C C 0.8616(2) 0.9652(2) 0.22066(9)
H8C H 0.8543 0.9859 0.2311
C16C C 0.7224(2) 0.9485(2) 0.16065(10)
H9C H 0.7311 0.9298 0.1498
C17C C 0.6787(2) 0.9731(2) 0.16116(11)
H10C H 0.6566 0.9715 0.1508
C18C C 0.6647(2) 1.0018(2) 0.17722(11)
H11C H 0.6332 1.0188 0.1775
C19C C 0.69643(19) 1.00493(16) 0.19223(9)
H12C H 0.6866 1.0244 0.2027
C20C C 0.76109(15) 1.00945(15) 0.22487(8)
C21C C 0.75684(16) 1.06255(16) 0.22587(8)
C22C C 0.74009(17) 1.08508(16) 0.24190(9)
H13C H 0.7356 1.1206 0.2423
C23C C 0.72960(18) 1.05648(16) 0.25762(8)
C24C C 0.73673(16) 1.00497(16) 0.25780(8)
C25C C 0.75173(16) 0.98226(17) 0.24133(8)
H14C H 0.7559 0.9467 0.2411
C26C C 0.73055(16) 0.97497(13) 0.27552(7)
C27C C 0.76386(15) 0.98349(15) 0.29028(8)
C28C C 0.75921(15) 0.95800(16) 0.30744(7)
C29C C 0.71877(16) 0.92393(14) 0.31002(7)
C30C C 0.68494(18) 0.91450(17) 0.29559(8)
C31C C 0.69148(17) 0.93955(15) 0.27777(8)
C32C C 0.80760(18) 1.01592(17) 0.28787(10)
H15C H 0.8131 1.0322 0.2763
C33C C 0.8413(2) 1.0234(2) 0.30231(11)
H16C H 0.8691 1.0454 0.3006
C34C C 0.8353(2) 0.9993(3) 0.31919(10)
H17C H 0.8585 1.0054 0.3290
C35C C 0.7955(2) 0.9664(2) 0.32183(9)
H18C H 0.7922 0.9492 0.3334
C36C C 0.6564(2) 0.9276(2) 0.26350(10)
H19C H 0.6591 0.9442 0.2518
C37C C 0.6206(3) 0.8946(3) 0.26588(12)
H20C H 0.5981 0.8878 0.2559
C38C C 0.6143(3) 0.8687(3) 0.28313(12)
H21C H 0.5890 0.8436 0.2844
C39C C 0.6442(2) 0.8797(2) 0.29751(10)
H22C H 0.6382 0.8642 0.3092
O1C O 0.76907(12) 1.08741(10) 0.21004(6)
C40C C 0.7629(2) 1.14086(17) 0.20993(10)
H23C H 0.7850 1.1566 0.2194
H24C H 0.7275 1.1498 0.2128
C41C C 0.7768(3) 1.1589(2) 0.19078(13)
H25C H 0.7640 1.1353 0.1812
H26C H 0.7624 1.1927 0.1884
O2C O 0.8317(2) 1.1607(2) 0.19042(10)
C42C C 0.8476(7) 1.1831(4) 0.1728(2)
H27C H 0.8845 1.1846 0.1723
H28C H 0.8352 1.1625 0.1624
H29C H 0.8338 1.2173 0.1717
O3C O 0.71398(13) 1.07711(10) 0.27437(6)
C43C C 0.7216(3) 1.12948(16) 0.27707(10)
H30C H 0.6967 1.1493 0.2699
H31C H 0.7559 1.1394 0.2731
C44C C 0.7149(3) 1.1382(2) 0.29781(13)
H32C H 0.7325 1.1114 0.3049
H33C H 0.7297 1.1710 0.3014
O4C O 0.66179(18) 1.13754(18) 0.30216(9)
C45C C 0.6554(4) 1.1450(5) 0.32271(15)
H34C H 0.6199 1.1518 0.3255
H35C H 0.6760 1.1735 0.3268
H36C H 0.6660 1.1144 0.3293
N2C N 0.6973(4) 0.7829(3) 0.54169(10)
C46C C 0.6517(7) 0.7620(7) 0.5515(2)
H37C H 0.6564 0.7319 0.5585
C47C C 0.6049(7) 0.7817(8) 0.55148(19)
H38C H 0.5829 0.7723 0.5613
C48C C 0.5865(7) 0.8145(7) 0.5381(2)
H39C H 0.5521 0.8245 0.5376
C49C C 0.6246(7) 0.8327(7) 0.52469(19)
C50C C 0.6702(6) 0.8067(7) 0.52644(19)
H40C H 0.6876 0.8038 0.5149
C51C C 0.6083(6) 0.8651(6) 0.50795(18)
C52C C 0.6337(6) 0.9121(6) 0.50836(18)
C53C C 0.6277(5) 0.9471(6) 0.49225(19)
C54C C 0.5972(6) 0.9363(6) 0.47718(19)
C55C C 0.5665(5) 0.8918(6) 0.47784(17)
C56C C 0.5727(6) 0.8555(6) 0.49358(18)
C57C C 0.6638(6) 0.9282(6) 0.5240(2)
H41C H 0.6648 0.9072 0.5347
C58C C 0.6903(7) 0.9710(7) 0.5243(2)
H42C H 0.7109 0.9797 0.5347
C59C C 0.6863(6) 1.0035(7) 0.5081(3)
H43C H 0.7056 1.0336 0.5079
C60C C 0.6568(7) 0.9934(6) 0.49350(19)
H44C H 0.6549 1.0171 0.4836
C61C C 0.5411(7) 0.8095(7) 0.4926(2)
H45C H 0.5388 0.7885 0.5032
C62C C 0.5153(7) 0.7962(7) 0.4769(2)
H46C H 0.5045 0.7626 0.4748
C63C C 0.5052(6) 0.8362(7) 0.4638(2)
H47C H 0.4800 0.8304 0.4546
C64C C 0.5295(7) 0.8822(7) 0.4634(2)
H48C H 0.5223 0.9066 0.4541
C65C C 0.5952(7) 0.9669(7) 0.46165(18)
C66C C 0.5688(7) 1.0132(7) 0.4605(2)
C67C C 0.5666(8) 1.0473(6) 0.44497(19)
H49C H 0.5511 1.0794 0.4459
C68C C 0.5890(6) 1.0302(5) 0.4280(2)
C69C C 0.6101(5) 0.9783(5) 0.42889(17)
C70C C 0.6165(5) 0.9514(5) 0.44496(16)
H50C H 0.6361 0.9214 0.4447
C71C C 0.6321(4) 0.9575(3) 0.41107(12)
C72C C 0.6836(5) 0.9516(5) 0.40872(13)
C73C C 0.7039(3) 0.9310(3) 0.39161(11)
C74C C 0.6695(2) 0.9175(2) 0.37781(9)
C75C C 0.6181(3) 0.9181(2) 0.38079(11)
C76C C 0.5983(3) 0.9399(3) 0.39773(12)
C77C C 0.7212(5) 0.9684(8) 0.42249(17)
H51C H 0.7097 0.9867 0.4331
C78C C 0.7731(5) 0.9590(8) 0.4208(2)
H52C H 0.7957 0.9629 0.4310
C79C C 0.7899(5) 0.9428(8) 0.40253(16)
H53C H 0.8249 0.9438 0.3997
C80C C 0.7580(3) 0.9268(4) 0.38972(12)
H54C H 0.7712 0.9118 0.3787
C81C C 0.5431(4) 0.9385(4) 0.39997(16)
H55C H 0.5294 0.9508 0.4113
C82C C 0.5117(5) 0.9215(6) 0.38744(17)
H56C H 0.4764 0.9220 0.3895
C83C C 0.5323(3) 0.9021(5) 0.37053(14)
H57C H 0.5103 0.8900 0.3611
C84C C 0.5821(3) 0.9006(3) 0.36774(12)
H58C H 0.5940 0.8869 0.3563
O5C O 0.5481(6) 1.0264(5) 0.47925(12)
C85C C 0.5196(9) 1.0715(9) 0.4808(3)
H59C H 0.4991 1.0714 0.4923
H60C H 0.4970 1.0756 0.4699
C86C C 0.5597(12) 1.1140(9) 0.4813(4)
H61C H 0.5857 1.1090 0.4716
H62C H 0.5439 1.1475 0.4796
O6C O 0.5815(11) 1.1092(11) 0.5001(4)
C87C C 0.563(2) 1.0643(16) 0.5120(6)
H63C H 0.5797 1.0648 0.5242
H64C H 0.5263 1.0670 0.5139
H65C H 0.5705 1.0326 0.5056
O7C O 0.5922(5) 1.0578(4) 0.41272(13)
C88C C 0.5559(8) 1.0986(6) 0.4123(2)
H66C H 0.5703 1.1297 0.4178
H67C H 0.5249 1.0895 0.4191
C89C C 0.5448(10) 1.1059(10) 0.3906(3)
H68C H 0.5419 1.0730 0.3842
H69C H 0.5132 1.1251 0.3886
O8C O 0.5869(9) 1.1333(10) 0.3838(3)
C90C C 0.5928(10) 1.1610(12) 0.3647(3)
H70C H 0.6263 1.1765 0.3641
H71C H 0.5890 1.1367 0.3546
H72C H 0.5669 1.1871 0.3636
N3C N 0.72514(14) 0.82229(15) 0.34567(6)
C91C C 0.72892(16) 0.84849(14) 0.32930(7)
H73C H 0.7423 0.8324 0.3186
C92C C 0.71366(16) 0.89733(16) 0.32823(8)
C93C C 0.6936(2) 0.92056(18) 0.34399(8)
H74C H 0.6821 0.9544 0.3434
C94C C 0.6906(2) 0.89377(19) 0.36044(8)
C95C C 0.70667(18) 0.84427(18) 0.36073(8)
H75C H 0.7044 0.8256 0.3720
B1 B 0.2500 0.7500 0.2500
F1 F 0.2116(8) 0.7583(6) 0.2420(4)
F1A F 0.2884(8) 0.7417(6) 0.2420(4)
F1F F 0.2417(6) 0.7884(8) 0.2580(4)
F1G F 0.2583(6) 0.7116(8) 0.2580(4)
H76? H 0.3361 0.8138 0.1906
H77? H 0.3689 0.7694 0.1820
O9? O 0.2996(7) 0.7559(8) 0.1839(4)
C96? C 0.2841(15) 0.7603(17) 0.1632(4)
H78? H 0.2524 0.7422 0.1612
H79? H 0.2795 0.7959 0.1600
H80? H 0.3105 0.7457 0.1553
F2? F 0.2517(15) 0.7443(16) 0.27384(15)
F3? F 0.2826(13) 0.7148(8) 0.2523(6)
F4? F 0.2925(8) 0.7949(4) 0.2515(4)
loop_
_geom_bond_atom_site_label_1
_geom_bond_atom_site_label_2
_geom_bond_site_symmetry_1
_geom_bond_site_symmetry_2
Pd1 N1 1_555 1_555
Pd2 N2 1_555 1_555
Pd3 N3 1_555 1_555
N1 C1 1_555 1_555
C1 H1 1_555 1_555
C2 C1 1_555 1_555
H2 C2 1_555 1_555
C3 C2 1_555 1_555
H3 C3 1_555 1_555
C4 C3 1_555 1_555
C5 N1 1_555 1_555
H4 C5 1_555 1_555
C6 C4 1_555 1_555
C7 C6 1_555 1_555
C8 C7 1_555 1_555
C9 C8 1_555 1_555
C10 C9 1_555 1_555
C11 C6 1_555 1_555
C12 C7 1_555 1_555
H5 C12 1_555 1_555
C13 C12 1_555 1_555
H6 C13 1_555 1_555
C14 C13 1_555 1_555
H7 C14 1_555 1_555
C15 C8 1_555 1_555
H8 C15 1_555 1_555
C16 C11 1_555 1_555
H9 C16 1_555 1_555
C17 C16 1_555 1_555
H10 C17 1_555 1_555
C18 C17 1_555 1_555
H11 C18 1_555 1_555
C19 C10 1_555 1_555
H12 C19 1_555 1_555
C20 C9 1_555 1_555
C21 C20 1_555 1_555
C22 C21 1_555 1_555
H13 C22 1_555 1_555
C23 C22 1_555 1_555
C24 C23 1_555 1_555
C25 C20 1_555 1_555
H14 C25 1_555 1_555
C26 C24 1_555 1_555
C27 C26 1_555 1_555
C28 C27 1_555 1_555
C29 C28 1_555 1_555
C30 C29 1_555 1_555
C31 C26 1_555 1_555
C32 C27 1_555 1_555
H15 C32 1_555 1_555
C33 C32 1_555 1_555
H16 C33 1_555 1_555
C34 C33 1_555 1_555
H17 C34 1_555 1_555
C35 C28 1_555 1_555
H18 C35 1_555 1_555
C36 C31 1_555 1_555
H19 C36 1_555 1_555
C37 C36 1_555 1_555
H20 C37 1_555 1_555
C38 C37 1_555 1_555
H21 C38 1_555 1_555
C39 C30 1_555 1_555
H22 C39 1_555 1_555
O1 C21 1_555 1_555
C40 O1 1_555 1_555
H23 C40 1_555 1_555
H24 C40 1_555 1_555
C41 C40 1_555 1_555
H25 C41 1_555 1_555
H26 C41 1_555 1_555
O2 C41 1_555 1_555
C42 O2 1_555 1_555
H27 C42 1_555 1_555
H28 C42 1_555 1_555
H29 C42 1_555 1_555
O3 C23 1_555 1_555
C43 O3 1_555 1_555
H30 C43 1_555 1_555
H31 C43 1_555 1_555
C44 C43 1_555 1_555
H32 C44 1_555 1_555
H33 C44 1_555 1_555
O4 C44 1_555 1_555
C45 O4 1_555 1_555
H34 C45 1_555 1_555
H35 C45 1_555 1_555
H36 C45 1_555 1_555
N2 C46 1_555 1_555
C46 H37 1_555 1_555
C47 C46 1_555 1_555
H38 C47 1_555 1_555
C48 C47 1_555 1_555
H39 C48 1_555 1_555
C49 C48 1_555 1_555
C50 N2 1_555 1_555
H40 C50 1_555 1_555
C51 C49 1_555 1_555
C52 C51 1_555 1_555
C53 C52 1_555 1_555
C54 C53 1_555 1_555
C55 C54 1_555 1_555
C56 C51 1_555 1_555
C57 C52 1_555 1_555
H41 C57 1_555 1_555
C58 C57 1_555 1_555
H42 C58 1_555 1_555
C59 C58 1_555 1_555
H43 C59 1_555 1_555
C60 C53 1_555 1_555
H44 C60 1_555 1_555
C61 C56 1_555 1_555
H45 C61 1_555 1_555
C62 C61 1_555 1_555
H46 C62 1_555 1_555
C63 C62 1_555 1_555
H47 C63 1_555 1_555
C64 C55 1_555 1_555
H48 C64 1_555 1_555
C65 C54 1_555 1_555
C66 C65 1_555 1_555
C67 C66 1_555 1_555
H49 C67 1_555 1_555
C68 C67 1_555 1_555
C69 C68 1_555 1_555
C70 C65 1_555 1_555
H50 C70 1_555 1_555
C71 C69 1_555 1_555
C72 C71 1_555 1_555
C73 C72 1_555 1_555
C74 C73 1_555 1_555
C75 C74 1_555 1_555
C76 C71 1_555 1_555
C77 C72 1_555 1_555
H51 C77 1_555 1_555
C78 C77 1_555 1_555
H52 C78 1_555 1_555
C79 C78 1_555 1_555
H53 C79 1_555 1_555
C80 C73 1_555 1_555
H54 C80 1_555 1_555
C81 C76 1_555 1_555
H55 C81 1_555 1_555
C82 C81 1_555 1_555
H56 C82 1_555 1_555
C83 C82 1_555 1_555
H57 C83 1_555 1_555
C84 C75 1_555 1_555
H58 C84 1_555 1_555
O5 C66 1_555 1_555
C85 O5 1_555 1_555
H59 C85 1_555 1_555
H60 C85 1_555 1_555
C86 C85 1_555 1_555
H61 C86 1_555 1_555
H62 C86 1_555 1_555
O6 C86 1_555 1_555
C87 O6 1_555 1_555
H63 C87 1_555 1_555
H64 C87 1_555 1_555
H65 C87 1_555 1_555
O7 C68 1_555 1_555
C88 O7 1_555 1_555
H66 C88 1_555 1_555
H67 C88 1_555 1_555
C89 C88 1_555 1_555
H68 C89 1_555 1_555
H69 C89 1_555 1_555
O8 C89 1_555 1_555
C90 O8 1_555 1_555
H70 C90 1_555 1_555
H71 C90 1_555 1_555
H72 C90 1_555 1_555
N3 C91 1_555 1_555
C91 H73 1_555 1_555
C92 C29 1_555 1_555
C93 C92 1_555 1_555
H74 C93 1_555 1_555
C94 C74 1_555 1_555
C95 N3 1_555 1_555
H75 C95 1_555 1_555
B1 F1 1_555 1_555
N1A Pd1 1_555 1_555
C1A N1A 1_555 1_555
H1A C1A 1_555 1_555
C2A C1A 1_555 1_555
H2A C2A 1_555 1_555
C3A C2A 1_555 1_555
H3A C3A 1_555 1_555
C4A C3A 1_555 1_555
C5A N1A 1_555 1_555
H4A C5A 1_555 1_555
C6A C4A 1_555 1_555
C7A C6A 1_555 1_555
C8A C7A 1_555 1_555
C9A C8A 1_555 1_555
C10A C9A 1_555 1_555
C11A C6A 1_555 1_555
C12A C7A 1_555 1_555
H5A C12A 1_555 1_555
C13A C12A 1_555 1_555
H6A C13A 1_555 1_555
C14A C13A 1_555 1_555
H7A C14A 1_555 1_555
C15A C8A 1_555 1_555
H8A C15A 1_555 1_555
C16A C11A 1_555 1_555
H9A C16A 1_555 1_555
C17A C16A 1_555 1_555
H10A C17A 1_555 1_555
C18A C17A 1_555 1_555
H11A C18A 1_555 1_555
C19A C10A 1_555 1_555
H12A C19A 1_555 1_555
C20A C9A 1_555 1_555
C21A C20A 1_555 1_555
C22A C21A 1_555 1_555
H13A C22A 1_555 1_555
C23A C22A 1_555 1_555
C24A C23A 1_555 1_555
C25A C20A 1_555 1_555
H14A C25A 1_555 1_555
C26A C24A 1_555 1_555
C27A C26A 1_555 1_555
C28A C27A 1_555 1_555
C29A C28A 1_555 1_555
C30A C29A 1_555 1_555
C31A C26A 1_555 1_555
C32A C27A 1_555 1_555
H15A C32A 1_555 1_555
C33A C32A 1_555 1_555
H16A C33A 1_555 1_555
C34A C33A 1_555 1_555
H17A C34A 1_555 1_555
C35A C28A 1_555 1_555
H18A C35A 1_555 1_555
C36A C31A 1_555 1_555
H19A C36A 1_555 1_555
C37A C36A 1_555 1_555
H20A C37A 1_555 1_555
C38A C37A 1_555 1_555
H21A C38A 1_555 1_555
C39A C30A 1_555 1_555
H22A C39A 1_555 1_555
O1A C21A 1_555 1_555
C40A O1A 1_555 1_555
H23A C40A 1_555 1_555
H24A C40A 1_555 1_555
C41A C40A 1_555 1_555
H25A C41A 1_555 1_555
H26A C41A 1_555 1_555
O2A C41A 1_555 1_555
C42A O2A 1_555 1_555
H27A C42A 1_555 1_555
H28A C42A 1_555 1_555
H29A C42A 1_555 1_555
O3A C23A 1_555 1_555
C43A O3A 1_555 1_555
H30A C43A 1_555 1_555
H31A C43A 1_555 1_555
C44A C43A 1_555 1_555
H32A C44A 1_555 1_555
H33A C44A 1_555 1_555
O4A C44A 1_555 1_555
C45A O4A 1_555 1_555
H34A C45A 1_555 1_555
H35A C45A 1_555 1_555
H36A C45A 1_555 1_555
N2A Pd2 1_555 1_555
C46A N2A 1_555 1_555
H37A C46A 1_555 1_555
C47A C46A 1_555 1_555
H38A C47A 1_555 1_555
C48A C47A 1_555 1_555
H39A C48A 1_555 1_555
C49A C48A 1_555 1_555
C50A N2A 1_555 1_555
H40A C50A 1_555 1_555
C51A C49A 1_555 1_555
C52A C51A 1_555 1_555
C53A C52A 1_555 1_555
C54A C53A 1_555 1_555
C55A C54A 1_555 1_555
C56A C51A 1_555 1_555
C57A C52A 1_555 1_555
H41A C57A 1_555 1_555
C58A C57A 1_555 1_555
H42A C58A 1_555 1_555
C59A C58A 1_555 1_555
H43A C59A 1_555 1_555
C60A C53A 1_555 1_555
H44A C60A 1_555 1_555
C61A C56A 1_555 1_555
H45A C61A 1_555 1_555
C62A C61A 1_555 1_555
H46A C62A 1_555 1_555
C63A C62A 1_555 1_555
H47A C63A 1_555 1_555
C64A C55A 1_555 1_555
H48A C64A 1_555 1_555
C65A C54A 1_555 1_555
C66A C65A 1_555 1_555
C67A C66A 1_555 1_555
H49A C67A 1_555 1_555
C68A C67A 1_555 1_555
C69A C68A 1_555 1_555
C70A C65A 1_555 1_555
H50A C70A 1_555 1_555
C71A C69A 1_555 1_555
C72A C71A 1_555 1_555
C73A C72A 1_555 1_555
C74A C73A 1_555 1_555
C75A C74A 1_555 1_555
C76A C71A 1_555 1_555
C77A C72A 1_555 1_555
H51A C77A 1_555 1_555
C78A C77A 1_555 1_555
H52A C78A 1_555 1_555
C79A C78A 1_555 1_555
H53A C79A 1_555 1_555
C80A C73A 1_555 1_555
H54A C80A 1_555 1_555
C81A C76A 1_555 1_555
H55A C81A 1_555 1_555
C82A C81A 1_555 1_555
H56A C82A 1_555 1_555
C83A C82A 1_555 1_555
H57A C83A 1_555 1_555
C84A C75A 1_555 1_555
H58A C84A 1_555 1_555
O5A C66A 1_555 1_555
C85A O5A 1_555 1_555
H59A C85A 1_555 1_555
H60A C85A 1_555 1_555
C86A C85A 1_555 1_555
H61A C86A 1_555 1_555
H62A C86A 1_555 1_555
O6A C86A 1_555 1_555
C87A O6A 1_555 1_555
H63A C87A 1_555 1_555
H64A C87A 1_555 1_555
H65A C87A 1_555 1_555
O7A C68A 1_555 1_555
C88A O7A 1_555 1_555
H66A C88A 1_555 1_555
H67A C88A 1_555 1_555
C89A C88A 1_555 1_555
H68A C89A 1_555 1_555
H69A C89A 1_555 1_555
O8A C89A 1_555 1_555
C90A O8A 1_555 1_555
H70A C90A 1_555 1_555
H71A C90A 1_555 1_555
H72A C90A 1_555 1_555
N3A Pd3 1_555 1_555
C91A N3A 1_555 1_555
H73A C91A 1_555 1_555
C92A C29A 1_555 1_555
C93A C92A 1_555 1_555
H74A C93A 1_555 1_555
C94A C74A 1_555 1_555
C95A N3A 1_555 1_555
H75A C95A 1_555 1_555
N1B Pd1 1_555 1_555
C1B N1B 1_555 1_555
H1B C1B 1_555 1_555
C2B C1B 1_555 1_555
H2B C2B 1_555 1_555
C3B C2B 1_555 1_555
H3B C3B 1_555 1_555
C4B C3B 1_555 1_555
C5B N1B 1_555 1_555
H4B C5B 1_555 1_555
C6B C4B 1_555 1_555
C7B C6B 1_555 1_555
C8B C7B 1_555 1_555
C9B C8B 1_555 1_555
C10B C9B 1_555 1_555
C11B C6B 1_555 1_555
C12B C7B 1_555 1_555
H5B C12B 1_555 1_555
C13B C12B 1_555 1_555
H6B C13B 1_555 1_555
C14B C13B 1_555 1_555
H7B C14B 1_555 1_555
C15B C8B 1_555 1_555
H8B C15B 1_555 1_555
C16B C11B 1_555 1_555
H9B C16B 1_555 1_555
C17B C16B 1_555 1_555
H10B C17B 1_555 1_555
C18B C17B 1_555 1_555
H11B C18B 1_555 1_555
C19B C10B 1_555 1_555
H12B C19B 1_555 1_555
C20B C9B 1_555 1_555
C21B C20B 1_555 1_555
C22B C21B 1_555 1_555
H13B C22B 1_555 1_555
C23B C22B 1_555 1_555
C24B C23B 1_555 1_555
C25B C20B 1_555 1_555
H14B C25B 1_555 1_555
C26B C24B 1_555 1_555
C27B C26B 1_555 1_555
C28B C27B 1_555 1_555
C29B C28B 1_555 1_555
C30B C29B 1_555 1_555
C31B C26B 1_555 1_555
C32B C27B 1_555 1_555
H15B C32B 1_555 1_555
C33B C32B 1_555 1_555
H16B C33B 1_555 1_555
C34B C33B 1_555 1_555
H17B C34B 1_555 1_555
C35B C28B 1_555 1_555
H18B C35B 1_555 1_555
C36B C31B 1_555 1_555
H19B C36B 1_555 1_555
C37B C36B 1_555 1_555
H20B C37B 1_555 1_555
C38B C37B 1_555 1_555
H21B C38B 1_555 1_555
C39B C30B 1_555 1_555
H22B C39B 1_555 1_555
O1B C21B 1_555 1_555
C40B O1B 1_555 1_555
H23B C40B 1_555 1_555
H24B C40B 1_555 1_555
C41B C40B 1_555 1_555
H25B C41B 1_555 1_555
H26B C41B 1_555 1_555
O2B C41B 1_555 1_555
C42B O2B 1_555 1_555
H27B C42B 1_555 1_555
H28B C42B 1_555 1_555
H29B C42B 1_555 1_555
O3B C23B 1_555 1_555
C43B O3B 1_555 1_555
H30B C43B 1_555 1_555
H31B C43B 1_555 1_555
C44B C43B 1_555 1_555
H32B C44B 1_555 1_555
H33B C44B 1_555 1_555
O4B C44B 1_555 1_555
C45B O4B 1_555 1_555
H34B C45B 1_555 1_555
H35B C45B 1_555 1_555
H36B C45B 1_555 1_555
N2B Pd2 1_555 1_555
C46B N2B 1_555 1_555
H37B C46B 1_555 1_555
C47B C46B 1_555 1_555
H38B C47B 1_555 1_555
C48B C47B 1_555 1_555
H39B C48B 1_555 1_555
C49B C48B 1_555 1_555
C50B N2B 1_555 1_555
H40B C50B 1_555 1_555
C51B C49B 1_555 1_555
C52B C51B 1_555 1_555
C53B C52B 1_555 1_555
C54B C53B 1_555 1_555
C55B C54B 1_555 1_555
C56B C51B 1_555 1_555
C57B C52B 1_555 1_555
H41B C57B 1_555 1_555
C58B C57B 1_555 1_555
H42B C58B 1_555 1_555
C59B C58B 1_555 1_555
H43B C59B 1_555 1_555
C60B C53B 1_555 1_555
H44B C60B 1_555 1_555
C61B C56B 1_555 1_555
H45B C61B 1_555 1_555
C62B C61B 1_555 1_555
H46B C62B 1_555 1_555
C63B C62B 1_555 1_555
H47B C63B 1_555 1_555
C64B C55B 1_555 1_555
H48B C64B 1_555 1_555
C65B C54B 1_555 1_555
C66B C65B 1_555 1_555
C67B C66B 1_555 1_555
H49B C67B 1_555 1_555
C68B C67B 1_555 1_555
C69B C68B 1_555 1_555
C70B C65B 1_555 1_555
H50B C70B 1_555 1_555
C71B C69B 1_555 1_555
C72B C71B 1_555 1_555
C73B C72B 1_555 1_555
C74B C73B 1_555 1_555
C75B C74B 1_555 1_555
C76B C71B 1_555 1_555
C77B C72B 1_555 1_555
H51B C77B 1_555 1_555
C78B C77B 1_555 1_555
H52B C78B 1_555 1_555
C79B C78B 1_555 1_555
H53B C79B 1_555 1_555
C80B C73B 1_555 1_555
H54B C80B 1_555 1_555
C81B C76B 1_555 1_555
H55B C81B 1_555 1_555
C82B C81B 1_555 1_555
H56B C82B 1_555 1_555
C83B C82B 1_555 1_555
H57B C83B 1_555 1_555
C84B C75B 1_555 1_555
H58B C84B 1_555 1_555
O5B C66B 1_555 1_555
C85B O5B 1_555 1_555
H59B C85B 1_555 1_555
H60B C85B 1_555 1_555
C86B C85B 1_555 1_555
H61B C86B 1_555 1_555
H62B C86B 1_555 1_555
O6B C86B 1_555 1_555
C87B O6B 1_555 1_555
H63B C87B 1_555 1_555
H64B C87B 1_555 1_555
H65B C87B 1_555 1_555
O7B C68B 1_555 1_555
C88B O7B 1_555 1_555
H66B C88B 1_555 1_555
H67B C88B 1_555 1_555
C89B C88B 1_555 1_555
H68B C89B 1_555 1_555
H69B C89B 1_555 1_555
O8B C89B 1_555 1_555
C90B O8B 1_555 1_555
H70B C90B 1_555 1_555
H71B C90B 1_555 1_555
H72B C90B 1_555 1_555
N3B Pd3 1_555 1_555
C91B N3B 1_555 1_555
H73B C91B 1_555 1_555
C92B C29B 1_555 1_555
C93B C92B 1_555 1_555
H74B C93B 1_555 1_555
C94B C74B 1_555 1_555
C95B N3B 1_555 1_555
H75B C95B 1_555 1_555
N1C Pd1 1_555 1_555
C1C N1C 1_555 1_555
H1C C1C 1_555 1_555
C2C C1C 1_555 1_555
H2C C2C 1_555 1_555
C3C C2C 1_555 1_555
H3C C3C 1_555 1_555
C4C C3C 1_555 1_555
C5C N1C 1_555 1_555
H4C C5C 1_555 1_555
C6C C4C 1_555 1_555
C7C C6C 1_555 1_555
C8C C7C 1_555 1_555
C9C C8C 1_555 1_555
C10C C9C 1_555 1_555
C11C C6C 1_555 1_555
C12C C7C 1_555 1_555
H5C C12C 1_555 1_555
C13C C12C 1_555 1_555
H6C C13C 1_555 1_555
C14C C13C 1_555 1_555
H7C C14C 1_555 1_555
C15C C8C 1_555 1_555
H8C C15C 1_555 1_555
C16C C11C 1_555 1_555
H9C C16C 1_555 1_555
C17C C16C 1_555 1_555
H10C C17C 1_555 1_555
C18C C17C 1_555 1_555
H11C C18C 1_555 1_555
C19C C10C 1_555 1_555
H12C C19C 1_555 1_555
C20C C9C 1_555 1_555
C21C C20C 1_555 1_555
C22C C21C 1_555 1_555
H13C C22C 1_555 1_555
C23C C22C 1_555 1_555
C24C C23C 1_555 1_555
C25C C20C 1_555 1_555
H14C C25C 1_555 1_555
C26C C24C 1_555 1_555
C27C C26C 1_555 1_555
C28C C27C 1_555 1_555
C29C C28C 1_555 1_555
C30C C29C 1_555 1_555
C31C C26C 1_555 1_555
C32C C27C 1_555 1_555
H15C C32C 1_555 1_555
C33C C32C 1_555 1_555
H16C C33C 1_555 1_555
C34C C33C 1_555 1_555
H17C C34C 1_555 1_555
C35C C28C 1_555 1_555
H18C C35C 1_555 1_555
C36C C31C 1_555 1_555
H19C C36C 1_555 1_555
C37C C36C 1_555 1_555
H20C C37C 1_555 1_555
C38C C37C 1_555 1_555
H21C C38C 1_555 1_555
C39C C30C 1_555 1_555
H22C C39C 1_555 1_555
O1C C21C 1_555 1_555
C40C O1C 1_555 1_555
H23C C40C 1_555 1_555
H24C C40C 1_555 1_555
C41C C40C 1_555 1_555
H25C C41C 1_555 1_555
H26C C41C 1_555 1_555
O2C C41C 1_555 1_555
C42C O2C 1_555 1_555
H27C C42C 1_555 1_555
H28C C42C 1_555 1_555
H29C C42C 1_555 1_555
O3C C23C 1_555 1_555
C43C O3C 1_555 1_555
H30C C43C 1_555 1_555
H31C C43C 1_555 1_555
C44C C43C 1_555 1_555
H32C C44C 1_555 1_555
H33C C44C 1_555 1_555
O4C C44C 1_555 1_555
C45C O4C 1_555 1_555
H34C C45C 1_555 1_555
H35C C45C 1_555 1_555
H36C C45C 1_555 1_555
N2C Pd2 1_555 1_555
C46C N2C 1_555 1_555
H37C C46C 1_555 1_555
C47C C46C 1_555 1_555
H38C C47C 1_555 1_555
C48C C47C 1_555 1_555
H39C C48C 1_555 1_555
C49C C48C 1_555 1_555
C50C N2C 1_555 1_555
H40C C50C 1_555 1_555
C51C C49C 1_555 1_555
C52C C51C 1_555 1_555
C53C C52C 1_555 1_555
C54C C53C 1_555 1_555
C55C C54C 1_555 1_555
C56C C51C 1_555 1_555
C57C C52C 1_555 1_555
H41C C57C 1_555 1_555
C58C C57C 1_555 1_555
H42C C58C 1_555 1_555
C59C C58C 1_555 1_555
H43C C59C 1_555 1_555
C60C C53C 1_555 1_555
H44C C60C 1_555 1_555
C61C C56C 1_555 1_555
H45C C61C 1_555 1_555
C62C C61C 1_555 1_555
H46C C62C 1_555 1_555
C63C C62C 1_555 1_555
H47C C63C 1_555 1_555
C64C C55C 1_555 1_555
H48C C64C 1_555 1_555
C65C C54C 1_555 1_555
C66C C65C 1_555 1_555
C67C C66C 1_555 1_555
H49C C67C 1_555 1_555
C68C C67C 1_555 1_555
C69C C68C 1_555 1_555
C70C C65C 1_555 1_555
H50C C70C 1_555 1_555
C71C C69C 1_555 1_555
C72C C71C 1_555 1_555
C73C C72C 1_555 1_555
C74C C73C 1_555 1_555
C75C C74C 1_555 1_555
C76C C71C 1_555 1_555
C77C C72C 1_555 1_555
H51C C77C 1_555 1_555
C78C C77C 1_555 1_555
H52C C78C 1_555 1_555
C79C C78C 1_555 1_555
H53C C79C 1_555 1_555
C80C C73C 1_555 1_555
H54C C80C 1_555 1_555
C81C C76C 1_555 1_555
H55C C81C 1_555 1_555
C82C C81C 1_555 1_555
H56C C82C 1_555 1_555
C83C C82C 1_555 1_555
H57C C83C 1_555 1_555
C84C C75C 1_555 1_555
H58C C84C 1_555 1_555
O5C C66C 1_555 1_555
C85C O5C 1_555 1_555
H59C C85C 1_555 1_555
H60C C85C 1_555 1_555
C86C C85C 1_555 1_555
H61C C86C 1_555 1_555
H62C C86C 1_555 1_555
O6C C86C 1_555 1_555
C87C O6C 1_555 1_555
H63C C87C 1_555 1_555
H64C C87C 1_555 1_555
H65C C87C 1_555 1_555
O7C C68C 1_555 1_555
C88C O7C 1_555 1_555
H66C C88C 1_555 1_555
H67C C88C 1_555 1_555
C89C C88C 1_555 1_555
H68C C89C 1_555 1_555
H69C C89C 1_555 1_555
O8C C89C 1_555 1_555
C90C O8C 1_555 1_555
H70C C90C 1_555 1_555
H71C C90C 1_555 1_555
H72C C90C 1_555 1_555
N3C Pd3 1_555 1_555
C91C N3C 1_555 1_555
H73C C91C 1_555 1_555
C92C C29C 1_555 1_555
C93C C92C 1_555 1_555
H74C C93C 1_555 1_555
C94C C74C 1_555 1_555
C95C N3C 1_555 1_555
H75C C95C 1_555 1_555
F1A B1 1_555 1_555
F1F B1 1_555 1_555
F1G B1 1_555 1_555
C4 C5 1_555 1_555
C10 C11 1_555 1_555
C14 C15 1_555 1_555
C18 C19 1_555 1_555
C24 C25 1_555 1_555
C30 C31 1_555 1_555
C34 C35 1_555 1_555
C38 C39 1_555 1_555
C49 C50 1_555 1_555
C55 C56 1_555 1_555
C59 C60 1_555 1_555
C63 C64 1_555 1_555
C69 C70 1_555 1_555
C75 C76 1_555 1_555
C79 C80 1_555 1_555
C83 C84 1_555 1_555
C91 C92 1_555 1_555
C93 C94 1_555 1_555
C94 C95 1_555 1_555
C4A C5A 1_555 1_555
C10A C11A 1_555 1_555
C14A C15A 1_555 1_555
C18A C19A 1_555 1_555
C24A C25A 1_555 1_555
C30A C31A 1_555 1_555
C34A C35A 1_555 1_555
C38A C39A 1_555 1_555
C49A C50A 1_555 1_555
C55A C56A 1_555 1_555
C59A C60A 1_555 1_555
C63A C64A 1_555 1_555
C69A C70A 1_555 1_555
C75A C76A 1_555 1_555
C79A C80A 1_555 1_555
C83A C84A 1_555 1_555
C91A C92A 1_555 1_555
C93A C94A 1_555 1_555
C94A C95A 1_555 1_555
C4B C5B 1_555 1_555
C10B C11B 1_555 1_555
C14B C15B 1_555 1_555
C18B C19B 1_555 1_555
C24B C25B 1_555 1_555
C30B C31B 1_555 1_555
C34B C35B 1_555 1_555
C38B C39B 1_555 1_555
C49B C50B 1_555 1_555
C55B C56B 1_555 1_555
C59B C60B 1_555 1_555
C63B C64B 1_555 1_555
C69B C70B 1_555 1_555
C75B C76B 1_555 1_555
C79B C80B 1_555 1_555
C83B C84B 1_555 1_555
C91B C92B 1_555 1_555
C93B C94B 1_555 1_555
C94B C95B 1_555 1_555
C4C C5C 1_555 1_555
C10C C11C 1_555 1_555
C14C C15C 1_555 1_555
C18C C19C 1_555 1_555
C24C C25C 1_555 1_555
C30C C31C 1_555 1_555
C34C C35C 1_555 1_555
C38C C39C 1_555 1_555
C49C C50C 1_555 1_555
C55C C56C 1_555 1_555
C59C C60C 1_555 1_555
C63C C64C 1_555 1_555
C69C C70C 1_555 1_555
C75C C76C 1_555 1_555
C79C C80C 1_555 1_555
C83C C84C 1_555 1_555
C91C C92C 1_555 1_555
C93C C94C 1_555 1_555
C94C C95C 1_555 1_555

#END
