# generated using pymatgen
data_BH320Pd3C384N12(O9F4)4
_symmetry_space_group_name_H-M   'P 1'
_cell_length_a   26.53900000
_cell_length_b   26.53900000
_cell_length_c   71.80600000
_cell_angle_alpha   90.00000000
_cell_angle_beta   90.00000000
_cell_angle_gamma   90.00000000
_symmetry_Int_Tables_number   1
_chemical_formula_structural   BH320Pd3C384N12(O9F4)4
_chemical_formula_sum   'B4 H1280 Pd12 C1536 N48 O144 F64'
_cell_volume   50574.29571893
_cell_formula_units_Z   4
loop_
 _symmetry_equiv_pos_site_id
 _symmetry_equiv_pos_as_xyz
  1  'x, y, z'
loop_
 _atom_site_type_symbol
 _atom_site_label
 _atom_site_symmetry_multiplicity
 _atom_site_fract_x
 _atom_site_fract_y
 _atom_site_fract_z
 _atom_site_occupancy
  B  B1  1  0.250000  0.750000  0.250000  1
  B  B2  1  0.750000  0.250000  0.250000  1
  B  B3  1  0.750000  0.250000  0.750000  1
  B  B4  1  0.250000  0.750000  0.750000  1
  H  H5  1  0.336100  0.813800  0.190600  1
  H  H6  1  0.163900  0.686200  0.190600  1
  H  H7  1  0.686200  0.336100  0.190600  1
  H  H8  1  0.813800  0.163900  0.190600  1
  H  H9  1  0.836100  0.186200  0.309400  1
  H  H10  1  0.663900  0.313800  0.309400  1
  H  H11  1  0.186200  0.663900  0.309400  1
  H  H12  1  0.313800  0.836100  0.309400  1
  H  H13  1  0.663900  0.186200  0.809400  1
  H  H14  1  0.836100  0.313800  0.809400  1
  H  H15  1  0.313800  0.663900  0.809400  1
  H  H16  1  0.186200  0.836100  0.809400  1
  H  H17  1  0.163900  0.813800  0.690600  1
  H  H18  1  0.336100  0.686200  0.690600  1
  H  H19  1  0.813800  0.336100  0.690600  1
  H  H20  1  0.686200  0.163900  0.690600  1
  H  H21  1  0.368900  0.769400  0.182000  1
  H  H22  1  0.131100  0.730600  0.182000  1
  H  H23  1  0.730600  0.368900  0.182000  1
  H  H24  1  0.769400  0.131100  0.182000  1
  H  H25  1  0.868900  0.230600  0.318000  1
  H  H26  1  0.631100  0.269400  0.318000  1
  H  H27  1  0.230600  0.631100  0.318000  1
  H  H28  1  0.269400  0.868900  0.318000  1
  H  H29  1  0.631100  0.230600  0.818000  1
  H  H30  1  0.868900  0.269400  0.818000  1
  H  H31  1  0.269400  0.631100  0.818000  1
  H  H32  1  0.230600  0.868900  0.818000  1
  H  H33  1  0.131100  0.769400  0.682000  1
  H  H34  1  0.368900  0.730600  0.682000  1
  H  H35  1  0.769400  0.368900  0.682000  1
  H  H36  1  0.730600  0.131100  0.682000  1
  H  H37  1  0.252400  0.742200  0.161200  1
  H  H38  1  0.247600  0.757800  0.161200  1
  H  H39  1  0.757800  0.252400  0.161200  1
  H  H40  1  0.742200  0.247600  0.161200  1
  H  H41  1  0.752400  0.257800  0.338800  1
  H  H42  1  0.747600  0.242200  0.338800  1
  H  H43  1  0.257800  0.747600  0.338800  1
  H  H44  1  0.242200  0.752400  0.338800  1
  H  H45  1  0.747600  0.257800  0.838800  1
  H  H46  1  0.752400  0.242200  0.838800  1
  H  H47  1  0.242200  0.747600  0.838800  1
  H  H48  1  0.257800  0.752400  0.838800  1
  H  H49  1  0.247600  0.742200  0.661200  1
  H  H50  1  0.252400  0.757800  0.661200  1
  H  H51  1  0.742200  0.252400  0.661200  1
  H  H52  1  0.757800  0.247600  0.661200  1
  H  H53  1  0.279500  0.795900  0.160000  1
  H  H54  1  0.220500  0.704100  0.160000  1
  H  H55  1  0.704100  0.279500  0.160000  1
  H  H56  1  0.795900  0.220500  0.160000  1
  H  H57  1  0.779500  0.204100  0.340000  1
  H  H58  1  0.720500  0.295900  0.340000  1
  H  H59  1  0.204100  0.720500  0.340000  1
  H  H60  1  0.295900  0.779500  0.340000  1
  H  H61  1  0.720500  0.204100  0.840000  1
  H  H62  1  0.779500  0.295900  0.840000  1
  H  H63  1  0.295900  0.720500  0.840000  1
  H  H64  1  0.204100  0.779500  0.840000  1
  H  H65  1  0.220500  0.795900  0.660000  1
  H  H66  1  0.279500  0.704100  0.660000  1
  H  H67  1  0.795900  0.279500  0.660000  1
  H  H68  1  0.704100  0.220500  0.660000  1
  H  H69  1  0.310500  0.745700  0.155300  1
  H  H70  1  0.189500  0.754300  0.155300  1
  H  H71  1  0.754300  0.310500  0.155300  1
  H  H72  1  0.745700  0.189500  0.155300  1
  H  H73  1  0.810500  0.254300  0.344700  1
  H  H74  1  0.689500  0.245700  0.344700  1
  H  H75  1  0.254300  0.689500  0.344700  1
  H  H76  1  0.245700  0.810500  0.344700  1
  H  H77  1  0.689500  0.254300  0.844700  1
  H  H78  1  0.810500  0.245700  0.844700  1
  H  H79  1  0.245700  0.689500  0.844700  1
  H  H80  1  0.254300  0.810500  0.844700  1
  H  H81  1  0.189500  0.745700  0.655300  1
  H  H82  1  0.310500  0.754300  0.655300  1
  H  H83  1  0.745700  0.310500  0.655300  1
  H  H84  1  0.754300  0.189500  0.655300  1
  H  H85  1  0.701600  0.837500  0.121800  1.0
  H  H86  1  0.798400  0.662500  0.121800  1.0
  H  H87  1  0.662500  0.701600  0.121800  1.0
  H  H88  1  0.837500  0.798400  0.121800  1.0
  H  H89  1  0.201600  0.162500  0.378200  1.0
  H  H90  1  0.298400  0.337500  0.378200  1.0
  H  H91  1  0.162500  0.298400  0.378200  1.0
  H  H92  1  0.337500  0.201600  0.378200  1.0
  H  H93  1  0.298400  0.162500  0.878200  1.0
  H  H94  1  0.201600  0.337500  0.878200  1.0
  H  H95  1  0.337500  0.298400  0.878200  1.0
  H  H96  1  0.162500  0.201600  0.878200  1.0
  H  H97  1  0.798400  0.837500  0.621800  1.0
  H  H98  1  0.701600  0.662500  0.621800  1.0
  H  H99  1  0.837500  0.701600  0.621800  1.0
  H  H100  1  0.662500  0.798400  0.621800  1.0
  H  H101  1  0.630400  0.886500  0.124000  1.0
  H  H102  1  0.869600  0.613500  0.124000  1.0
  H  H103  1  0.613500  0.630400  0.124000  1.0
  H  H104  1  0.886500  0.869600  0.124000  1.0
  H  H105  1  0.130400  0.113500  0.376000  1.0
  H  H106  1  0.369600  0.386500  0.376000  1.0
  H  H107  1  0.113500  0.369600  0.376000  1.0
  H  H108  1  0.386500  0.130400  0.376000  1.0
  H  H109  1  0.369600  0.113500  0.876000  1.0
  H  H110  1  0.130400  0.386500  0.876000  1.0
  H  H111  1  0.386500  0.369600  0.876000  1.0
  H  H112  1  0.113500  0.130400  0.876000  1.0
  H  H113  1  0.869600  0.886500  0.624000  1.0
  H  H114  1  0.630400  0.613500  0.624000  1.0
  H  H115  1  0.886500  0.630400  0.624000  1.0
  H  H116  1  0.613500  0.869600  0.624000  1.0
  H  H117  1  0.572100  0.872200  0.147200  1.0
  H  H118  1  0.927900  0.627800  0.147200  1.0
  H  H119  1  0.627800  0.572100  0.147200  1.0
  H  H120  1  0.872200  0.927900  0.147200  1.0
  H  H121  1  0.072100  0.127800  0.352800  1.0
  H  H122  1  0.427900  0.372200  0.352800  1.0
  H  H123  1  0.127800  0.427900  0.352800  1.0
  H  H124  1  0.372200  0.072100  0.352800  1.0
  H  H125  1  0.427900  0.127800  0.852800  1.0
  H  H126  1  0.072100  0.372200  0.852800  1.0
  H  H127  1  0.372200  0.427900  0.852800  1.0
  H  H128  1  0.127800  0.072100  0.852800  1.0
  H  H129  1  0.927900  0.872200  0.647200  1.0
  H  H130  1  0.572100  0.627800  0.647200  1.0
  H  H131  1  0.872200  0.572100  0.647200  1.0
  H  H132  1  0.627800  0.927900  0.647200  1.0
  H  H133  1  0.660900  0.760800  0.167300  1.0
  H  H134  1  0.839100  0.739200  0.167300  1.0
  H  H135  1  0.739200  0.660900  0.167300  1.0
  H  H136  1  0.760800  0.839100  0.167300  1.0
  H  H137  1  0.160900  0.239200  0.332700  1.0
  H  H138  1  0.339100  0.260800  0.332700  1.0
  H  H139  1  0.239200  0.339100  0.332700  1.0
  H  H140  1  0.260800  0.160900  0.332700  1.0
  H  H141  1  0.339100  0.239200  0.832700  1.0
  H  H142  1  0.160900  0.260800  0.832700  1.0
  H  H143  1  0.260800  0.339100  0.832700  1.0
  H  H144  1  0.239200  0.160900  0.832700  1.0
  H  H145  1  0.839100  0.760800  0.667300  1.0
  H  H146  1  0.660900  0.739200  0.667300  1.0
  H  H147  1  0.760800  0.660900  0.667300  1.0
  H  H148  1  0.739200  0.839100  0.667300  1.0
  H  H149  1  0.621400  0.892800  0.181600  1.0
  H  H150  1  0.878600  0.607200  0.181600  1.0
  H  H151  1  0.607200  0.621400  0.181600  1.0
  H  H152  1  0.892800  0.878600  0.181600  1.0
  H  H153  1  0.121400  0.107200  0.318400  1.0
  H  H154  1  0.378600  0.392800  0.318400  1.0
  H  H155  1  0.107200  0.378600  0.318400  1.0
  H  H156  1  0.392800  0.121400  0.318400  1.0
  H  H157  1  0.378600  0.107200  0.818400  1.0
  H  H158  1  0.121400  0.392800  0.818400  1.0
  H  H159  1  0.392800  0.378600  0.818400  1.0
  H  H160  1  0.107200  0.121400  0.818400  1.0
  H  H161  1  0.878600  0.892800  0.681600  1.0
  H  H162  1  0.621400  0.607200  0.681600  1.0
  H  H163  1  0.892800  0.621400  0.681600  1.0
  H  H164  1  0.607200  0.878600  0.681600  1.0
  H  H165  1  0.607700  0.951200  0.205000  1.0
  H  H166  1  0.892300  0.548800  0.205000  1.0
  H  H167  1  0.548800  0.607700  0.205000  1.0
  H  H168  1  0.951200  0.892300  0.205000  1.0
  H  H169  1  0.107700  0.048800  0.295000  1.0
  H  H170  1  0.392300  0.451200  0.295000  1.0
  H  H171  1  0.048800  0.392300  0.295000  1.0
  H  H172  1  0.451200  0.107700  0.295000  1.0
  H  H173  1  0.392300  0.048800  0.795000  1.0
  H  H174  1  0.107700  0.451200  0.795000  1.0
  H  H175  1  0.451200  0.392300  0.795000  1.0
  H  H176  1  0.048800  0.107700  0.795000  1.0
  H  H177  1  0.892300  0.951200  0.705000  1.0
  H  H178  1  0.607700  0.548800  0.705000  1.0
  H  H179  1  0.951200  0.607700  0.705000  1.0
  H  H180  1  0.548800  0.892300  0.705000  1.0
  H  H181  1  0.550900  0.931200  0.229500  1.0
  H  H182  1  0.949100  0.568800  0.229500  1.0
  H  H183  1  0.568800  0.550900  0.229500  1.0
  H  H184  1  0.931200  0.949100  0.229500  1.0
  H  H185  1  0.050900  0.068800  0.270500  1.0
  H  H186  1  0.449100  0.431200  0.270500  1.0
  H  H187  1  0.068800  0.449100  0.270500  1.0
  H  H188  1  0.431200  0.050900  0.270500  1.0
  H  H189  1  0.449100  0.068800  0.770500  1.0
  H  H190  1  0.050900  0.431200  0.770500  1.0
  H  H191  1  0.431200  0.449100  0.770500  1.0
  H  H192  1  0.068800  0.050900  0.770500  1.0
  H  H193  1  0.949100  0.931200  0.729500  1.0
  H  H194  1  0.550900  0.568800  0.729500  1.0
  H  H195  1  0.931200  0.550900  0.729500  1.0
  H  H196  1  0.568800  0.949100  0.729500  1.0
  H  H197  1  0.514100  0.854300  0.231100  1.0
  H  H198  1  0.985900  0.645700  0.231100  1.0
  H  H199  1  0.645700  0.514100  0.231100  1.0
  H  H200  1  0.854300  0.985900  0.231100  1.0
  H  H201  1  0.014100  0.145700  0.268900  1.0
  H  H202  1  0.485900  0.354300  0.268900  1.0
  H  H203  1  0.145700  0.485900  0.268900  1.0
  H  H204  1  0.354300  0.014100  0.268900  1.0
  H  H205  1  0.485900  0.145700  0.768900  1.0
  H  H206  1  0.014100  0.354300  0.768900  1.0
  H  H207  1  0.354300  0.485900  0.768900  1.0
  H  H208  1  0.145700  0.014100  0.768900  1.0
  H  H209  1  0.985900  0.854300  0.731100  1.0
  H  H210  1  0.514100  0.645700  0.731100  1.0
  H  H211  1  0.854300  0.514100  0.731100  1.0
  H  H212  1  0.645700  0.985900  0.731100  1.0
  H  H213  1  0.570200  0.731100  0.149800  1.0
  H  H214  1  0.929800  0.768900  0.149800  1.0
  H  H215  1  0.768900  0.570200  0.149800  1.0
  H  H216  1  0.731100  0.929800  0.149800  1.0
  H  H217  1  0.070200  0.268900  0.350200  1.0
  H  H218  1  0.429800  0.231100  0.350200  1.0
  H  H219  1  0.268900  0.429800  0.350200  1.0
  H  H220  1  0.231100  0.070200  0.350200  1.0
  H  H221  1  0.429800  0.268900  0.850200  1.0
  H  H222  1  0.070200  0.231100  0.850200  1.0
  H  H223  1  0.231100  0.429800  0.850200  1.0
  H  H224  1  0.268900  0.070200  0.850200  1.0
  H  H225  1  0.929800  0.731100  0.649800  1.0
  H  H226  1  0.570200  0.768900  0.649800  1.0
  H  H227  1  0.731100  0.570200  0.649800  1.0
  H  H228  1  0.768900  0.929800  0.649800  1.0
  H  H229  1  0.528500  0.656600  0.150800  1.0
  H  H230  1  0.971500  0.843400  0.150800  1.0
  H  H231  1  0.843400  0.528500  0.150800  1.0
  H  H232  1  0.656600  0.971500  0.150800  1.0
  H  H233  1  0.028500  0.343400  0.349200  1.0
  H  H234  1  0.471500  0.156600  0.349200  1.0
  H  H235  1  0.343400  0.471500  0.349200  1.0
  H  H236  1  0.156600  0.028500  0.349200  1.0
  H  H237  1  0.471500  0.343400  0.849200  1.0
  H  H238  1  0.028500  0.156600  0.849200  1.0
  H  H239  1  0.156600  0.471500  0.849200  1.0
  H  H240  1  0.343400  0.028500  0.849200  1.0
  H  H241  1  0.971500  0.656600  0.650800  1.0
  H  H242  1  0.528500  0.843400  0.650800  1.0
  H  H243  1  0.656600  0.528500  0.650800  1.0
  H  H244  1  0.843400  0.971500  0.650800  1.0
  H  H245  1  0.481200  0.633200  0.177500  1.0
  H  H246  1  0.018800  0.866800  0.177500  1.0
  H  H247  1  0.866800  0.481200  0.177500  1.0
  H  H248  1  0.633200  0.018800  0.177500  1.0
  H  H249  1  0.981200  0.366800  0.322500  1.0
  H  H250  1  0.518800  0.133200  0.322500  1.0
  H  H251  1  0.366800  0.518800  0.322500  1.0
  H  H252  1  0.133200  0.981200  0.322500  1.0
  H  H253  1  0.518800  0.366800  0.822500  1.0
  H  H254  1  0.981200  0.133200  0.822500  1.0
  H  H255  1  0.133200  0.518800  0.822500  1.0
  H  H256  1  0.366800  0.981200  0.822500  1.0
  H  H257  1  0.018800  0.633200  0.677500  1.0
  H  H258  1  0.481200  0.866800  0.677500  1.0
  H  H259  1  0.633200  0.481200  0.677500  1.0
  H  H260  1  0.866800  0.018800  0.677500  1.0
  H  H261  1  0.475600  0.686600  0.202700  1.0
  H  H262  1  0.024400  0.813400  0.202700  1.0
  H  H263  1  0.813400  0.475600  0.202700  1.0
  H  H264  1  0.686600  0.024400  0.202700  1.0
  H  H265  1  0.975600  0.313400  0.297300  1.0
  H  H266  1  0.524400  0.186600  0.297300  1.0
  H  H267  1  0.313400  0.524400  0.297300  1.0
  H  H268  1  0.186600  0.975600  0.297300  1.0
  H  H269  1  0.524400  0.313400  0.797300  1.0
  H  H270  1  0.975600  0.186600  0.797300  1.0
  H  H271  1  0.186600  0.524400  0.797300  1.0
  H  H272  1  0.313400  0.975600  0.797300  1.0
  H  H273  1  0.024400  0.686600  0.702700  1.0
  H  H274  1  0.475600  0.813400  0.702700  1.0
  H  H275  1  0.686600  0.475600  0.702700  1.0
  H  H276  1  0.813400  0.024400  0.702700  1.0
  H  H277  1  0.379400  0.735600  0.242300  1.0
  H  H278  1  0.120600  0.764400  0.242300  1.0
  H  H279  1  0.764400  0.379400  0.242300  1.0
  H  H280  1  0.735600  0.120600  0.242300  1.0
  H  H281  1  0.879400  0.264400  0.257700  1.0
  H  H282  1  0.620600  0.235600  0.257700  1.0
  H  H283  1  0.264400  0.620600  0.257700  1.0
  H  H284  1  0.235600  0.879400  0.257700  1.0
  H  H285  1  0.620600  0.264400  0.757700  1.0
  H  H286  1  0.879400  0.235600  0.757700  1.0
  H  H287  1  0.235600  0.620600  0.757700  1.0
  H  H288  1  0.264400  0.879400  0.757700  1.0
  H  H289  1  0.120600  0.735600  0.742300  1.0
  H  H290  1  0.379400  0.764400  0.742300  1.0
  H  H291  1  0.735600  0.379400  0.742300  1.0
  H  H292  1  0.764400  0.120600  0.742300  1.0
  H  H293  1  0.553300  0.755900  0.241100  1.0
  H  H294  1  0.946700  0.744100  0.241100  1.0
  H  H295  1  0.744100  0.553300  0.241100  1.0
  H  H296  1  0.755900  0.946700  0.241100  1.0
  H  H297  1  0.053300  0.244100  0.258900  1.0
  H  H298  1  0.446700  0.255900  0.258900  1.0
  H  H299  1  0.244100  0.446700  0.258900  1.0
  H  H300  1  0.255900  0.053300  0.258900  1.0
  H  H301  1  0.446700  0.244100  0.758900  1.0
  H  H302  1  0.053300  0.255900  0.758900  1.0
  H  H303  1  0.255900  0.446700  0.758900  1.0
  H  H304  1  0.244100  0.053300  0.758900  1.0
  H  H305  1  0.946700  0.755900  0.741100  1.0
  H  H306  1  0.553300  0.744100  0.741100  1.0
  H  H307  1  0.755900  0.553300  0.741100  1.0
  H  H308  1  0.744100  0.946700  0.741100  1.0
  H  H309  1  0.467800  0.813100  0.276300  1.0
  H  H310  1  0.032200  0.686900  0.276300  1.0
  H  H311  1  0.686900  0.467800  0.276300  1.0
  H  H312  1  0.813100  0.032200  0.276300  1.0
  H  H313  1  0.967800  0.186900  0.223700  1.0
  H  H314  1  0.532200  0.313100  0.223700  1.0
  H  H315  1  0.186900  0.532200  0.223700  1.0
  H  H316  1  0.313100  0.967800  0.223700  1.0
  H  H317  1  0.532200  0.186900  0.723700  1.0
  H  H318  1  0.967800  0.313100  0.723700  1.0
  H  H319  1  0.313100  0.532200  0.723700  1.0
  H  H320  1  0.186900  0.967800  0.723700  1.0
  H  H321  1  0.032200  0.813100  0.776300  1.0
  H  H322  1  0.467800  0.686900  0.776300  1.0
  H  H323  1  0.813100  0.467800  0.776300  1.0
  H  H324  1  0.686900  0.032200  0.776300  1.0
  H  H325  1  0.454600  0.869100  0.300600  1.0
  H  H326  1  0.045400  0.630900  0.300600  1.0
  H  H327  1  0.630900  0.454600  0.300600  1.0
  H  H328  1  0.869100  0.045400  0.300600  1.0
  H  H329  1  0.954600  0.130900  0.199400  1.0
  H  H330  1  0.545400  0.369100  0.199400  1.0
  H  H331  1  0.130900  0.545400  0.199400  1.0
  H  H332  1  0.369100  0.954600  0.199400  1.0
  H  H333  1  0.545400  0.130900  0.699400  1.0
  H  H334  1  0.954600  0.369100  0.699400  1.0
  H  H335  1  0.369100  0.545400  0.699400  1.0
  H  H336  1  0.130900  0.954600  0.699400  1.0
  H  H337  1  0.045400  0.869100  0.800600  1.0
  H  H338  1  0.454600  0.630900  0.800600  1.0
  H  H339  1  0.869100  0.454600  0.800600  1.0
  H  H340  1  0.630900  0.045400  0.800600  1.0
  H  H341  1  0.494600  0.858500  0.329000  1.0
  H  H342  1  0.005400  0.641500  0.329000  1.0
  H  H343  1  0.641500  0.494600  0.329000  1.0
  H  H344  1  0.858500  0.005400  0.329000  1.0
  H  H345  1  0.994600  0.141500  0.171000  1.0
  H  H346  1  0.505400  0.358500  0.171000  1.0
  H  H347  1  0.141500  0.505400  0.171000  1.0
  H  H348  1  0.358500  0.994600  0.171000  1.0
  H  H349  1  0.505400  0.141500  0.671000  1.0
  H  H350  1  0.994600  0.358500  0.671000  1.0
  H  H351  1  0.358500  0.505400  0.671000  1.0
  H  H352  1  0.141500  0.994600  0.671000  1.0
  H  H353  1  0.005400  0.858500  0.829000  1.0
  H  H354  1  0.494600  0.641500  0.829000  1.0
  H  H355  1  0.858500  0.494600  0.829000  1.0
  H  H356  1  0.641500  0.005400  0.829000  1.0
  H  H357  1  0.550800  0.792200  0.333400  1.0
  H  H358  1  0.949200  0.707800  0.333400  1.0
  H  H359  1  0.707800  0.550800  0.333400  1.0
  H  H360  1  0.792200  0.949200  0.333400  1.0
  H  H361  1  0.050800  0.207800  0.166600  1.0
  H  H362  1  0.449200  0.292200  0.166600  1.0
  H  H363  1  0.207800  0.449200  0.166600  1.0
  H  H364  1  0.292200  0.050800  0.166600  1.0
  H  H365  1  0.449200  0.207800  0.666600  1.0
  H  H366  1  0.050800  0.292200  0.666600  1.0
  H  H367  1  0.292200  0.449200  0.666600  1.0
  H  H368  1  0.207800  0.050800  0.666600  1.0
  H  H369  1  0.949200  0.792200  0.833400  1.0
  H  H370  1  0.550800  0.707800  0.833400  1.0
  H  H371  1  0.792200  0.550800  0.833400  1.0
  H  H372  1  0.707800  0.949200  0.833400  1.0
  H  H373  1  0.555800  0.659100  0.251800  1.0
  H  H374  1  0.944200  0.840900  0.251800  1.0
  H  H375  1  0.840900  0.555800  0.251800  1.0
  H  H376  1  0.659100  0.944200  0.251800  1.0
  H  H377  1  0.055800  0.340900  0.248200  1.0
  H  H378  1  0.444200  0.159100  0.248200  1.0
  H  H379  1  0.340900  0.444200  0.248200  1.0
  H  H380  1  0.159100  0.055800  0.248200  1.0
  H  H381  1  0.444200  0.340900  0.748200  1.0
  H  H382  1  0.055800  0.159100  0.748200  1.0
  H  H383  1  0.159100  0.444200  0.748200  1.0
  H  H384  1  0.340900  0.055800  0.748200  1.0
  H  H385  1  0.944200  0.659100  0.751800  1.0
  H  H386  1  0.555800  0.840900  0.751800  1.0
  H  H387  1  0.659100  0.555800  0.751800  1.0
  H  H388  1  0.840900  0.944200  0.751800  1.0
  H  H389  1  0.612200  0.598100  0.255900  1.0
  H  H390  1  0.887800  0.901900  0.255900  1.0
  H  H391  1  0.901900  0.612200  0.255900  1.0
  H  H392  1  0.598100  0.887800  0.255900  1.0
  H  H393  1  0.112200  0.401900  0.244100  1.0
  H  H394  1  0.387800  0.098100  0.244100  1.0
  H  H395  1  0.401900  0.387800  0.244100  1.0
  H  H396  1  0.098100  0.112200  0.244100  1.0
  H  H397  1  0.387800  0.401900  0.744100  1.0
  H  H398  1  0.112200  0.098100  0.744100  1.0
  H  H399  1  0.098100  0.387800  0.744100  1.0
  H  H400  1  0.401900  0.112200  0.744100  1.0
  H  H401  1  0.887800  0.598100  0.755900  1.0
  H  H402  1  0.612200  0.901900  0.755900  1.0
  H  H403  1  0.598100  0.612200  0.755900  1.0
  H  H404  1  0.901900  0.887800  0.755900  1.0
  H  H405  1  0.656400  0.589000  0.284400  1.0
  H  H406  1  0.843600  0.911000  0.284400  1.0
  H  H407  1  0.911000  0.656400  0.284400  1.0
  H  H408  1  0.589000  0.843600  0.284400  1.0
  H  H409  1  0.156400  0.411000  0.215600  1.0
  H  H410  1  0.343600  0.089000  0.215600  1.0
  H  H411  1  0.411000  0.343600  0.215600  1.0
  H  H412  1  0.089000  0.156400  0.215600  1.0
  H  H413  1  0.343600  0.411000  0.715600  1.0
  H  H414  1  0.156400  0.089000  0.715600  1.0
  H  H415  1  0.089000  0.343600  0.715600  1.0
  H  H416  1  0.411000  0.156400  0.715600  1.0
  H  H417  1  0.843600  0.589000  0.784400  1.0
  H  H418  1  0.656400  0.911000  0.784400  1.0
  H  H419  1  0.589000  0.656400  0.784400  1.0
  H  H420  1  0.911000  0.843600  0.784400  1.0
  H  H421  1  0.635800  0.638200  0.309200  1.0
  H  H422  1  0.864200  0.861800  0.309200  1.0
  H  H423  1  0.861800  0.635800  0.309200  1.0
  H  H424  1  0.638200  0.864200  0.309200  1.0
  H  H425  1  0.135800  0.361800  0.190800  1.0
  H  H426  1  0.364200  0.138200  0.190800  1.0
  H  H427  1  0.361800  0.364200  0.190800  1.0
  H  H428  1  0.138200  0.135800  0.190800  1.0
  H  H429  1  0.364200  0.361800  0.690800  1.0
  H  H430  1  0.135800  0.138200  0.690800  1.0
  H  H431  1  0.138200  0.364200  0.690800  1.0
  H  H432  1  0.361800  0.135800  0.690800  1.0
  H  H433  1  0.864200  0.638200  0.809200  1.0
  H  H434  1  0.635800  0.861800  0.809200  1.0
  H  H435  1  0.638200  0.635800  0.809200  1.0
  H  H436  1  0.861800  0.864200  0.809200  1.0
  H  H437  1  0.343400  0.785000  0.219400  1.0
  H  H438  1  0.156600  0.715000  0.219400  1.0
  H  H439  1  0.715000  0.343400  0.219400  1.0
  H  H440  1  0.785000  0.156600  0.219400  1.0
  H  H441  1  0.843400  0.215000  0.280600  1.0
  H  H442  1  0.656600  0.285000  0.280600  1.0
  H  H443  1  0.215000  0.656600  0.280600  1.0
  H  H444  1  0.285000  0.843400  0.280600  1.0
  H  H445  1  0.656600  0.215000  0.780600  1.0
  H  H446  1  0.843400  0.285000  0.780600  1.0
  H  H447  1  0.285000  0.656600  0.780600  1.0
  H  H448  1  0.215000  0.843400  0.780600  1.0
  H  H449  1  0.156600  0.785000  0.719400  1.0
  H  H450  1  0.343400  0.715000  0.719400  1.0
  H  H451  1  0.785000  0.343400  0.719400  1.0
  H  H452  1  0.715000  0.156600  0.719400  1.0
  H  H453  1  0.350200  0.727500  0.212800  1.0
  H  H454  1  0.149800  0.772500  0.212800  1.0
  H  H455  1  0.772500  0.350200  0.212800  1.0
  H  H456  1  0.727500  0.149800  0.212800  1.0
  H  H457  1  0.850200  0.272500  0.287200  1.0
  H  H458  1  0.649800  0.227500  0.287200  1.0
  H  H459  1  0.272500  0.649800  0.287200  1.0
  H  H460  1  0.227500  0.850200  0.287200  1.0
  H  H461  1  0.649800  0.272500  0.787200  1.0
  H  H462  1  0.850200  0.227500  0.787200  1.0
  H  H463  1  0.227500  0.649800  0.787200  1.0
  H  H464  1  0.272500  0.850200  0.787200  1.0
  H  H465  1  0.149800  0.727500  0.712800  1.0
  H  H466  1  0.350200  0.772500  0.712800  1.0
  H  H467  1  0.727500  0.350200  0.712800  1.0
  H  H468  1  0.772500  0.149800  0.712800  1.0
  H  H469  1  0.364700  0.764000  0.181200  1.0
  H  H470  1  0.135300  0.736000  0.181200  1.0
  H  H471  1  0.736000  0.364700  0.181200  1.0
  H  H472  1  0.764000  0.135300  0.181200  1.0
  H  H473  1  0.864700  0.236000  0.318800  1.0
  H  H474  1  0.635300  0.264000  0.318800  1.0
  H  H475  1  0.236000  0.635300  0.318800  1.0
  H  H476  1  0.264000  0.864700  0.318800  1.0
  H  H477  1  0.635300  0.236000  0.818800  1.0
  H  H478  1  0.864700  0.264000  0.818800  1.0
  H  H479  1  0.264000  0.635300  0.818800  1.0
  H  H480  1  0.236000  0.864700  0.818800  1.0
  H  H481  1  0.135300  0.764000  0.681200  1.0
  H  H482  1  0.364700  0.736000  0.681200  1.0
  H  H483  1  0.764000  0.364700  0.681200  1.0
  H  H484  1  0.736000  0.135300  0.681200  1.0
  H  H485  1  0.307300  0.762400  0.188400  1.0
  H  H486  1  0.192700  0.737600  0.188400  1.0
  H  H487  1  0.737600  0.307300  0.188400  1.0
  H  H488  1  0.762400  0.192700  0.188400  1.0
  H  H489  1  0.807300  0.237600  0.311600  1.0
  H  H490  1  0.692700  0.262400  0.311600  1.0
  H  H491  1  0.237600  0.692700  0.311600  1.0
  H  H492  1  0.262400  0.807300  0.311600  1.0
  H  H493  1  0.692700  0.237600  0.811600  1.0
  H  H494  1  0.807300  0.262400  0.811600  1.0
  H  H495  1  0.262400  0.692700  0.811600  1.0
  H  H496  1  0.237600  0.807300  0.811600  1.0
  H  H497  1  0.192700  0.762400  0.688400  1.0
  H  H498  1  0.307300  0.737600  0.688400  1.0
  H  H499  1  0.762400  0.307300  0.688400  1.0
  H  H500  1  0.737600  0.192700  0.688400  1.0
  H  H501  1  0.315400  0.884500  0.172300  1.0
  H  H502  1  0.184600  0.615500  0.172300  1.0
  H  H503  1  0.615500  0.315400  0.172300  1.0
  H  H504  1  0.884500  0.184600  0.172300  1.0
  H  H505  1  0.815400  0.115500  0.327700  1.0
  H  H506  1  0.684600  0.384500  0.327700  1.0
  H  H507  1  0.115500  0.684600  0.327700  1.0
  H  H508  1  0.384500  0.815400  0.327700  1.0
  H  H509  1  0.684600  0.115500  0.827700  1.0
  H  H510  1  0.815400  0.384500  0.827700  1.0
  H  H511  1  0.384500  0.684600  0.827700  1.0
  H  H512  1  0.115500  0.815400  0.827700  1.0
  H  H513  1  0.184600  0.884500  0.672300  1.0
  H  H514  1  0.315400  0.615500  0.672300  1.0
  H  H515  1  0.884500  0.315400  0.672300  1.0
  H  H516  1  0.615500  0.184600  0.672300  1.0
  H  H517  1  0.337500  0.835200  0.162400  1.0
  H  H518  1  0.162500  0.664800  0.162400  1.0
  H  H519  1  0.664800  0.337500  0.162400  1.0
  H  H520  1  0.835200  0.162500  0.162400  1.0
  H  H521  1  0.837500  0.164800  0.337600  1.0
  H  H522  1  0.662500  0.335200  0.337600  1.0
  H  H523  1  0.164800  0.662500  0.337600  1.0
  H  H524  1  0.335200  0.837500  0.337600  1.0
  H  H525  1  0.662500  0.164800  0.837600  1.0
  H  H526  1  0.837500  0.335200  0.837600  1.0
  H  H527  1  0.335200  0.662500  0.837600  1.0
  H  H528  1  0.164800  0.837500  0.837600  1.0
  H  H529  1  0.162500  0.835200  0.662400  1.0
  H  H530  1  0.337500  0.664800  0.662400  1.0
  H  H531  1  0.835200  0.337500  0.662400  1.0
  H  H532  1  0.664800  0.162500  0.662400  1.0
  H  H533  1  0.282700  0.833800  0.171700  1.0
  H  H534  1  0.217300  0.666200  0.171700  1.0
  H  H535  1  0.666200  0.282700  0.171700  1.0
  H  H536  1  0.833800  0.217300  0.171700  1.0
  H  H537  1  0.782700  0.166200  0.328300  1.0
  H  H538  1  0.717300  0.333800  0.328300  1.0
  H  H539  1  0.166200  0.717300  0.328300  1.0
  H  H540  1  0.333800  0.782700  0.328300  1.0
  H  H541  1  0.717300  0.166200  0.828300  1.0
  H  H542  1  0.782700  0.333800  0.828300  1.0
  H  H543  1  0.333800  0.717300  0.828300  1.0
  H  H544  1  0.166200  0.782700  0.828300  1.0
  H  H545  1  0.217300  0.833800  0.671700  1.0
  H  H546  1  0.282700  0.666200  0.671700  1.0
  H  H547  1  0.833800  0.282700  0.671700  1.0
  H  H548  1  0.666200  0.217300  0.671700  1.0
  H  H549  1  0.350700  0.696700  0.269900  1.0
  H  H550  1  0.149300  0.803300  0.269900  1.0
  H  H551  1  0.803300  0.350700  0.269900  1.0
  H  H552  1  0.696700  0.149300  0.269900  1.0
  H  H553  1  0.850700  0.303300  0.230100  1.0
  H  H554  1  0.649300  0.196700  0.230100  1.0
  H  H555  1  0.303300  0.649300  0.230100  1.0
  H  H556  1  0.196700  0.850700  0.230100  1.0
  H  H557  1  0.649300  0.303300  0.730100  1.0
  H  H558  1  0.850700  0.196700  0.730100  1.0
  H  H559  1  0.196700  0.649300  0.730100  1.0
  H  H560  1  0.303300  0.850700  0.730100  1.0
  H  H561  1  0.149300  0.696700  0.769900  1.0
  H  H562  1  0.350700  0.803300  0.769900  1.0
  H  H563  1  0.696700  0.350700  0.769900  1.0
  H  H564  1  0.803300  0.149300  0.769900  1.0
  H  H565  1  0.360600  0.755900  0.273100  1.0
  H  H566  1  0.139400  0.744100  0.273100  1.0
  H  H567  1  0.744100  0.360600  0.273100  1.0
  H  H568  1  0.755900  0.139400  0.273100  1.0
  H  H569  1  0.860600  0.244100  0.226900  1.0
  H  H570  1  0.639400  0.255900  0.226900  1.0
  H  H571  1  0.244100  0.639400  0.226900  1.0
  H  H572  1  0.255900  0.860600  0.226900  1.0
  H  H573  1  0.639400  0.244100  0.726900  1.0
  H  H574  1  0.860600  0.255900  0.726900  1.0
  H  H575  1  0.255900  0.639400  0.726900  1.0
  H  H576  1  0.244100  0.860600  0.726900  1.0
  H  H577  1  0.139400  0.755900  0.773100  1.0
  H  H578  1  0.360600  0.744100  0.773100  1.0
  H  H579  1  0.755900  0.360600  0.773100  1.0
  H  H580  1  0.744100  0.139400  0.773100  1.0
  H  H581  1  0.388600  0.732500  0.304900  1.0
  H  H582  1  0.111400  0.767500  0.304900  1.0
  H  H583  1  0.767500  0.388600  0.304900  1.0
  H  H584  1  0.732500  0.111400  0.304900  1.0
  H  H585  1  0.888600  0.267500  0.195100  1.0
  H  H586  1  0.611400  0.232500  0.195100  1.0
  H  H587  1  0.267500  0.611400  0.195100  1.0
  H  H588  1  0.232500  0.888600  0.195100  1.0
  H  H589  1  0.611400  0.267500  0.695100  1.0
  H  H590  1  0.888600  0.232500  0.695100  1.0
  H  H591  1  0.232500  0.611400  0.695100  1.0
  H  H592  1  0.267500  0.888600  0.695100  1.0
  H  H593  1  0.111400  0.732500  0.804900  1.0
  H  H594  1  0.388600  0.767500  0.804900  1.0
  H  H595  1  0.732500  0.388600  0.804900  1.0
  H  H596  1  0.767500  0.111400  0.804900  1.0
  H  H597  1  0.329000  0.729700  0.301400  1.0
  H  H598  1  0.171000  0.770300  0.301400  1.0
  H  H599  1  0.770300  0.329000  0.301400  1.0
  H  H600  1  0.729700  0.171000  0.301400  1.0
  H  H601  1  0.829000  0.270300  0.198600  1.0
  H  H602  1  0.671000  0.229700  0.198600  1.0
  H  H603  1  0.270300  0.671000  0.198600  1.0
  H  H604  1  0.229700  0.829000  0.198600  1.0
  H  H605  1  0.671000  0.270300  0.698600  1.0
  H  H606  1  0.829000  0.229700  0.698600  1.0
  H  H607  1  0.229700  0.671000  0.698600  1.0
  H  H608  1  0.270300  0.829000  0.698600  1.0
  H  H609  1  0.171000  0.729700  0.801400  1.0
  H  H610  1  0.329000  0.770300  0.801400  1.0
  H  H611  1  0.729700  0.329000  0.801400  1.0
  H  H612  1  0.770300  0.171000  0.801400  1.0
  H  H613  1  0.348200  0.619900  0.325500  1.0
  H  H614  1  0.151800  0.880100  0.325500  1.0
  H  H615  1  0.880100  0.348200  0.325500  1.0
  H  H616  1  0.619900  0.151800  0.325500  1.0
  H  H617  1  0.848200  0.380100  0.174500  1.0
  H  H618  1  0.651800  0.119900  0.174500  1.0
  H  H619  1  0.380100  0.651800  0.174500  1.0
  H  H620  1  0.119900  0.848200  0.174500  1.0
  H  H621  1  0.651800  0.380100  0.674500  1.0
  H  H622  1  0.848200  0.119900  0.674500  1.0
  H  H623  1  0.119900  0.651800  0.674500  1.0
  H  H624  1  0.380100  0.848200  0.674500  1.0
  H  H625  1  0.151800  0.619900  0.825500  1.0
  H  H626  1  0.348200  0.880100  0.825500  1.0
  H  H627  1  0.619900  0.348200  0.825500  1.0
  H  H628  1  0.880100  0.151800  0.825500  1.0
  H  H629  1  0.326500  0.676000  0.326800  1.0
  H  H630  1  0.173500  0.824000  0.326800  1.0
  H  H631  1  0.824000  0.326500  0.326800  1.0
  H  H632  1  0.676000  0.173500  0.326800  1.0
  H  H633  1  0.826500  0.324000  0.173200  1.0
  H  H634  1  0.673500  0.176000  0.173200  1.0
  H  H635  1  0.324000  0.673500  0.173200  1.0
  H  H636  1  0.176000  0.826500  0.173200  1.0
  H  H637  1  0.673500  0.324000  0.673200  1.0
  H  H638  1  0.826500  0.176000  0.673200  1.0
  H  H639  1  0.176000  0.673500  0.673200  1.0
  H  H640  1  0.324000  0.826500  0.673200  1.0
  H  H641  1  0.173500  0.676000  0.826800  1.0
  H  H642  1  0.326500  0.824000  0.826800  1.0
  H  H643  1  0.676000  0.326500  0.826800  1.0
  H  H644  1  0.824000  0.173500  0.826800  1.0
  H  H645  1  0.385600  0.666000  0.329300  1.0
  H  H646  1  0.114400  0.834000  0.329300  1.0
  H  H647  1  0.834000  0.385600  0.329300  1.0
  H  H648  1  0.666000  0.114400  0.329300  1.0
  H  H649  1  0.885600  0.334000  0.170700  1.0
  H  H650  1  0.614400  0.166000  0.170700  1.0
  H  H651  1  0.334000  0.614400  0.170700  1.0
  H  H652  1  0.166000  0.885600  0.170700  1.0
  H  H653  1  0.614400  0.334000  0.670700  1.0
  H  H654  1  0.885600  0.166000  0.670700  1.0
  H  H655  1  0.166000  0.614400  0.670700  1.0
  H  H656  1  0.334000  0.885600  0.670700  1.0
  H  H657  1  0.114400  0.666000  0.829300  1.0
  H  H658  1  0.385600  0.834000  0.829300  1.0
  H  H659  1  0.666000  0.385600  0.829300  1.0
  H  H660  1  0.834000  0.114400  0.829300  1.0
  H  H661  1  0.768100  0.656400  0.558500  1.0
  H  H662  1  0.731900  0.843600  0.558500  1.0
  H  H663  1  0.843600  0.768100  0.558500  1.0
  H  H664  1  0.656400  0.731900  0.558500  1.0
  H  H665  1  0.268100  0.343600  0.941500  1.0
  H  H666  1  0.231900  0.156400  0.941500  1.0
  H  H667  1  0.343600  0.231900  0.941500  1.0
  H  H668  1  0.156400  0.268100  0.941500  1.0
  H  H669  1  0.231900  0.343600  0.441500  1.0
  H  H670  1  0.268100  0.156400  0.441500  1.0
  H  H671  1  0.156400  0.231900  0.441500  1.0
  H  H672  1  0.343600  0.268100  0.441500  1.0
  H  H673  1  0.731900  0.656400  0.058500  1.0
  H  H674  1  0.768100  0.843600  0.058500  1.0
  H  H675  1  0.656400  0.768100  0.058500  1.0
  H  H676  1  0.843600  0.731900  0.058500  1.0
  H  H677  1  0.727700  0.582900  0.561300  1.0
  H  H678  1  0.772300  0.917100  0.561300  1.0
  H  H679  1  0.917100  0.727700  0.561300  1.0
  H  H680  1  0.582900  0.772300  0.561300  1.0
  H  H681  1  0.227700  0.417100  0.938700  1.0
  H  H682  1  0.272300  0.082900  0.938700  1.0
  H  H683  1  0.417100  0.272300  0.938700  1.0
  H  H684  1  0.082900  0.227700  0.938700  1.0
  H  H685  1  0.272300  0.417100  0.438700  1.0
  H  H686  1  0.227700  0.082900  0.438700  1.0
  H  H687  1  0.082900  0.272300  0.438700  1.0
  H  H688  1  0.417100  0.227700  0.438700  1.0
  H  H689  1  0.772300  0.582900  0.061300  1.0
  H  H690  1  0.727700  0.917100  0.061300  1.0
  H  H691  1  0.582900  0.727700  0.061300  1.0
  H  H692  1  0.917100  0.772300  0.061300  1.0
  H  H693  1  0.675500  0.552100  0.537600  1.0
  H  H694  1  0.824500  0.947900  0.537600  1.0
  H  H695  1  0.947900  0.675500  0.537600  1.0
  H  H696  1  0.552100  0.824500  0.537600  1.0
  H  H697  1  0.175500  0.447900  0.962400  1.0
  H  H698  1  0.324500  0.052100  0.962400  1.0
  H  H699  1  0.447900  0.324500  0.962400  1.0
  H  H700  1  0.052100  0.175500  0.962400  1.0
  H  H701  1  0.324500  0.447900  0.462400  1.0
  H  H702  1  0.175500  0.052100  0.462400  1.0
  H  H703  1  0.052100  0.324500  0.462400  1.0
  H  H704  1  0.447900  0.175500  0.462400  1.0
  H  H705  1  0.824500  0.552100  0.037600  1.0
  H  H706  1  0.675500  0.947900  0.037600  1.0
  H  H707  1  0.552100  0.675500  0.037600  1.0
  H  H708  1  0.947900  0.824500  0.037600  1.0
  H  H709  1  0.696200  0.687600  0.514900  1.0
  H  H710  1  0.803800  0.812400  0.514900  1.0
  H  H711  1  0.812400  0.696200  0.514900  1.0
  H  H712  1  0.687600  0.803800  0.514900  1.0
  H  H713  1  0.196200  0.312400  0.985100  1.0
  H  H714  1  0.303800  0.187600  0.985100  1.0
  H  H715  1  0.312400  0.303800  0.985100  1.0
  H  H716  1  0.187600  0.196200  0.985100  1.0
  H  H717  1  0.303800  0.312400  0.485100  1.0
  H  H718  1  0.196200  0.187600  0.485100  1.0
  H  H719  1  0.187600  0.303800  0.485100  1.0
  H  H720  1  0.312400  0.196200  0.485100  1.0
  H  H721  1  0.803800  0.687600  0.014900  1.0
  H  H722  1  0.696200  0.812400  0.014900  1.0
  H  H723  1  0.687600  0.696200  0.014900  1.0
  H  H724  1  0.812400  0.803800  0.014900  1.0
  H  H725  1  0.592800  0.664800  0.534700  1.0
  H  H726  1  0.907200  0.835200  0.534700  1.0
  H  H727  1  0.835200  0.592800  0.534700  1.0
  H  H728  1  0.664800  0.907200  0.534700  1.0
  H  H729  1  0.092800  0.335200  0.965300  1.0
  H  H730  1  0.407200  0.164800  0.965300  1.0
  H  H731  1  0.335200  0.407200  0.965300  1.0
  H  H732  1  0.164800  0.092800  0.965300  1.0
  H  H733  1  0.407200  0.335200  0.465300  1.0
  H  H734  1  0.092800  0.164800  0.465300  1.0
  H  H735  1  0.164800  0.407200  0.465300  1.0
  H  H736  1  0.335200  0.092800  0.465300  1.0
  H  H737  1  0.907200  0.664800  0.034700  1.0
  H  H738  1  0.592800  0.835200  0.034700  1.0
  H  H739  1  0.664800  0.592800  0.034700  1.0
  H  H740  1  0.835200  0.907200  0.034700  1.0
  H  H741  1  0.520300  0.710900  0.534700  1.0
  H  H742  1  0.979700  0.789100  0.534700  1.0
  H  H743  1  0.789100  0.520300  0.534700  1.0
  H  H744  1  0.710900  0.979700  0.534700  1.0
  H  H745  1  0.020300  0.289100  0.965300  1.0
  H  H746  1  0.479700  0.210900  0.965300  1.0
  H  H747  1  0.289100  0.479700  0.965300  1.0
  H  H748  1  0.210900  0.020300  0.965300  1.0
  H  H749  1  0.479700  0.289100  0.465300  1.0
  H  H750  1  0.020300  0.210900  0.465300  1.0
  H  H751  1  0.210900  0.479700  0.465300  1.0
  H  H752  1  0.289100  0.020300  0.465300  1.0
  H  H753  1  0.979700  0.710900  0.034700  1.0
  H  H754  1  0.520300  0.789100  0.034700  1.0
  H  H755  1  0.710900  0.520300  0.034700  1.0
  H  H756  1  0.789100  0.979700  0.034700  1.0
  H  H757  1  0.466400  0.705600  0.507900  1.0
  H  H758  1  0.033600  0.794400  0.507900  1.0
  H  H759  1  0.794400  0.466400  0.507900  1.0
  H  H760  1  0.705600  0.033600  0.507900  1.0
  H  H761  1  0.966400  0.294400  0.992100  1.0
  H  H762  1  0.533600  0.205600  0.992100  1.0
  H  H763  1  0.294400  0.533600  0.992100  1.0
  H  H764  1  0.205600  0.966400  0.992100  1.0
  H  H765  1  0.533600  0.294400  0.492100  1.0
  H  H766  1  0.966400  0.205600  0.492100  1.0
  H  H767  1  0.205600  0.533600  0.492100  1.0
  H  H768  1  0.294400  0.966400  0.492100  1.0
  H  H769  1  0.033600  0.705600  0.007900  1.0
  H  H770  1  0.466400  0.794400  0.007900  1.0
  H  H771  1  0.705600  0.466400  0.007900  1.0
  H  H772  1  0.794400  0.033600  0.007900  1.0
  H  H773  1  0.482900  0.654900  0.483600  1.0
  H  H774  1  0.017100  0.845100  0.483600  1.0
  H  H775  1  0.845100  0.482900  0.483600  1.0
  H  H776  1  0.654900  0.017100  0.483600  1.0
  H  H777  1  0.982900  0.345100  0.016400  1.0
  H  H778  1  0.517100  0.154900  0.016400  1.0
  H  H779  1  0.345100  0.517100  0.016400  1.0
  H  H780  1  0.154900  0.982900  0.016400  1.0
  H  H781  1  0.517100  0.345100  0.516400  1.0
  H  H782  1  0.982900  0.154900  0.516400  1.0
  H  H783  1  0.154900  0.517100  0.516400  1.0
  H  H784  1  0.345100  0.982900  0.516400  1.0
  H  H785  1  0.017100  0.654900  0.983600  1.0
  H  H786  1  0.482900  0.845100  0.983600  1.0
  H  H787  1  0.654900  0.482900  0.983600  1.0
  H  H788  1  0.845100  0.017100  0.983600  1.0
  H  H789  1  0.711500  0.538800  0.503200  1.0
  H  H790  1  0.788500  0.961200  0.503200  1.0
  H  H791  1  0.961200  0.711500  0.503200  1.0
  H  H792  1  0.538800  0.788500  0.503200  1.0
  H  H793  1  0.211500  0.461200  0.996800  1.0
  H  H794  1  0.288500  0.038800  0.996800  1.0
  H  H795  1  0.461200  0.288500  0.996800  1.0
  H  H796  1  0.038800  0.211500  0.996800  1.0
  H  H797  1  0.288500  0.461200  0.496800  1.0
  H  H798  1  0.211500  0.038800  0.496800  1.0
  H  H799  1  0.038800  0.288500  0.496800  1.0
  H  H800  1  0.461200  0.211500  0.496800  1.0
  H  H801  1  0.788500  0.538800  0.003200  1.0
  H  H802  1  0.711500  0.961200  0.003200  1.0
  H  H803  1  0.538800  0.711500  0.003200  1.0
  H  H804  1  0.961200  0.788500  0.003200  1.0
  H  H805  1  0.737400  0.504500  0.474800  1.0
  H  H806  1  0.762600  0.995500  0.474800  1.0
  H  H807  1  0.995500  0.737400  0.474800  1.0
  H  H808  1  0.504500  0.762600  0.474800  1.0
  H  H809  1  0.237400  0.495500  0.025200  1.0
  H  H810  1  0.262600  0.004500  0.025200  1.0
  H  H811  1  0.495500  0.262600  0.025200  1.0
  H  H812  1  0.004500  0.237400  0.025200  1.0
  H  H813  1  0.262600  0.495500  0.525200  1.0
  H  H814  1  0.237400  0.004500  0.525200  1.0
  H  H815  1  0.004500  0.262600  0.525200  1.0
  H  H816  1  0.495500  0.237400  0.525200  1.0
  H  H817  1  0.762600  0.504500  0.974800  1.0
  H  H818  1  0.737400  0.995500  0.974800  1.0
  H  H819  1  0.504500  0.737400  0.974800  1.0
  H  H820  1  0.995500  0.762600  0.974800  1.0
  H  H821  1  0.669600  0.480000  0.454600  1.0
  H  H822  1  0.830400  0.020000  0.454600  1.0
  H  H823  1  0.020000  0.669600  0.454600  1.0
  H  H824  1  0.480000  0.830400  0.454600  1.0
  H  H825  1  0.169600  0.520000  0.045400  1.0
  H  H826  1  0.330400  0.980000  0.045400  1.0
  H  H827  1  0.520000  0.330400  0.045400  1.0
  H  H828  1  0.980000  0.169600  0.045400  1.0
  H  H829  1  0.330400  0.520000  0.545400  1.0
  H  H830  1  0.169600  0.980000  0.545400  1.0
  H  H831  1  0.980000  0.330400  0.545400  1.0
  H  H832  1  0.520000  0.169600  0.545400  1.0
  H  H833  1  0.830400  0.480000  0.954600  1.0
  H  H834  1  0.669600  0.020000  0.954600  1.0
  H  H835  1  0.480000  0.669600  0.954600  1.0
  H  H836  1  0.020000  0.830400  0.954600  1.0
  H  H837  1  0.593400  0.522300  0.454100  1.0
  H  H838  1  0.906600  0.977700  0.454100  1.0
  H  H839  1  0.977700  0.593400  0.454100  1.0
  H  H840  1  0.522300  0.906600  0.454100  1.0
  H  H841  1  0.093400  0.477700  0.045900  1.0
  H  H842  1  0.406600  0.022300  0.045900  1.0
  H  H843  1  0.477700  0.406600  0.045900  1.0
  H  H844  1  0.022300  0.093400  0.045900  1.0
  H  H845  1  0.406600  0.477700  0.545900  1.0
  H  H846  1  0.093400  0.022300  0.545900  1.0
  H  H847  1  0.022300  0.406600  0.545900  1.0
  H  H848  1  0.477700  0.093400  0.545900  1.0
  H  H849  1  0.906600  0.522300  0.954100  1.0
  H  H850  1  0.593400  0.977700  0.954100  1.0
  H  H851  1  0.522300  0.593400  0.954100  1.0
  H  H852  1  0.977700  0.906600  0.954100  1.0
  H  H853  1  0.420600  0.551100  0.445900  1.0
  H  H854  1  0.079400  0.948900  0.445900  1.0
  H  H855  1  0.948900  0.420600  0.445900  1.0
  H  H856  1  0.551100  0.079400  0.445900  1.0
  H  H857  1  0.920600  0.448900  0.054100  1.0
  H  H858  1  0.579400  0.051100  0.054100  1.0
  H  H859  1  0.448900  0.579400  0.054100  1.0
  H  H860  1  0.051100  0.920600  0.054100  1.0
  H  H861  1  0.579400  0.448900  0.554100  1.0
  H  H862  1  0.920600  0.051100  0.554100  1.0
  H  H863  1  0.051100  0.579400  0.554100  1.0
  H  H864  1  0.448900  0.920600  0.554100  1.0
  H  H865  1  0.079400  0.551100  0.945900  1.0
  H  H866  1  0.420600  0.948900  0.945900  1.0
  H  H867  1  0.551100  0.420600  0.945900  1.0
  H  H868  1  0.948900  0.079400  0.945900  1.0
  H  H869  1  0.578600  0.636100  0.444700  1.0
  H  H870  1  0.921400  0.863900  0.444700  1.0
  H  H871  1  0.863900  0.578600  0.444700  1.0
  H  H872  1  0.636100  0.921400  0.444700  1.0
  H  H873  1  0.078600  0.363900  0.055300  1.0
  H  H874  1  0.421400  0.136100  0.055300  1.0
  H  H875  1  0.363900  0.421400  0.055300  1.0
  H  H876  1  0.136100  0.078600  0.055300  1.0
  H  H877  1  0.421400  0.363900  0.555300  1.0
  H  H878  1  0.078600  0.136100  0.555300  1.0
  H  H879  1  0.136100  0.421400  0.555300  1.0
  H  H880  1  0.363900  0.078600  0.555300  1.0
  H  H881  1  0.921400  0.636100  0.944700  1.0
  H  H882  1  0.578600  0.863900  0.944700  1.0
  H  H883  1  0.636100  0.578600  0.944700  1.0
  H  H884  1  0.863900  0.921400  0.944700  1.0
  H  H885  1  0.513300  0.709700  0.433100  1.0
  H  H886  1  0.986700  0.790300  0.433100  1.0
  H  H887  1  0.790300  0.513300  0.433100  1.0
  H  H888  1  0.709700  0.986700  0.433100  1.0
  H  H889  1  0.013300  0.290300  0.066900  1.0
  H  H890  1  0.486700  0.209700  0.066900  1.0
  H  H891  1  0.290300  0.486700  0.066900  1.0
  H  H892  1  0.209700  0.013300  0.066900  1.0
  H  H893  1  0.486700  0.290300  0.566900  1.0
  H  H894  1  0.013300  0.209700  0.566900  1.0
  H  H895  1  0.209700  0.486700  0.566900  1.0
  H  H896  1  0.290300  0.013300  0.566900  1.0
  H  H897  1  0.986700  0.709700  0.933100  1.0
  H  H898  1  0.513300  0.790300  0.933100  1.0
  H  H899  1  0.709700  0.513300  0.933100  1.0
  H  H900  1  0.790300  0.986700  0.933100  1.0
  H  H901  1  0.537100  0.795700  0.431000  1.0
  H  H902  1  0.962900  0.704300  0.431000  1.0
  H  H903  1  0.704300  0.537100  0.431000  1.0
  H  H904  1  0.795700  0.962900  0.431000  1.0
  H  H905  1  0.037100  0.204300  0.069000  1.0
  H  H906  1  0.462900  0.295700  0.069000  1.0
  H  H907  1  0.204300  0.462900  0.069000  1.0
  H  H908  1  0.295700  0.037100  0.069000  1.0
  H  H909  1  0.462900  0.204300  0.569000  1.0
  H  H910  1  0.037100  0.295700  0.569000  1.0
  H  H911  1  0.295700  0.462900  0.569000  1.0
  H  H912  1  0.204300  0.037100  0.569000  1.0
  H  H913  1  0.962900  0.795700  0.931000  1.0
  H  H914  1  0.537100  0.704300  0.931000  1.0
  H  H915  1  0.795700  0.537100  0.931000  1.0
  H  H916  1  0.704300  0.962900  0.931000  1.0
  H  H917  1  0.556200  0.824900  0.399700  1.0
  H  H918  1  0.943800  0.675100  0.399700  1.0
  H  H919  1  0.675100  0.556200  0.399700  1.0
  H  H920  1  0.824900  0.943800  0.399700  1.0
  H  H921  1  0.056200  0.175100  0.100300  1.0
  H  H922  1  0.443800  0.324900  0.100300  1.0
  H  H923  1  0.175100  0.443800  0.100300  1.0
  H  H924  1  0.324900  0.056200  0.100300  1.0
  H  H925  1  0.443800  0.175100  0.600300  1.0
  H  H926  1  0.056200  0.324900  0.600300  1.0
  H  H927  1  0.324900  0.443800  0.600300  1.0
  H  H928  1  0.175100  0.056200  0.600300  1.0
  H  H929  1  0.943800  0.824900  0.899700  1.0
  H  H930  1  0.556200  0.675100  0.899700  1.0
  H  H931  1  0.824900  0.556200  0.899700  1.0
  H  H932  1  0.675100  0.943800  0.899700  1.0
  H  H933  1  0.588200  0.771200  0.378700  1.0
  H  H934  1  0.911800  0.728800  0.378700  1.0
  H  H935  1  0.728800  0.588200  0.378700  1.0
  H  H936  1  0.771200  0.911800  0.378700  1.0
  H  H937  1  0.088200  0.228800  0.121300  1.0
  H  H938  1  0.411800  0.271200  0.121300  1.0
  H  H939  1  0.228800  0.411800  0.121300  1.0
  H  H940  1  0.271200  0.088200  0.121300  1.0
  H  H941  1  0.411800  0.228800  0.621300  1.0
  H  H942  1  0.088200  0.271200  0.621300  1.0
  H  H943  1  0.271200  0.411800  0.621300  1.0
  H  H944  1  0.228800  0.088200  0.621300  1.0
  H  H945  1  0.911800  0.771200  0.878700  1.0
  H  H946  1  0.588200  0.728800  0.878700  1.0
  H  H947  1  0.771200  0.588200  0.878700  1.0
  H  H948  1  0.728800  0.911800  0.878700  1.0
  H  H949  1  0.549200  0.529400  0.411300  1.0
  H  H950  1  0.950800  0.970600  0.411300  1.0
  H  H951  1  0.970600  0.549200  0.411300  1.0
  H  H952  1  0.529400  0.950800  0.411300  1.0
  H  H953  1  0.049200  0.470600  0.088700  1.0
  H  H954  1  0.450800  0.029400  0.088700  1.0
  H  H955  1  0.470600  0.450800  0.088700  1.0
  H  H956  1  0.029400  0.049200  0.088700  1.0
  H  H957  1  0.450800  0.470600  0.588700  1.0
  H  H958  1  0.049200  0.029400  0.588700  1.0
  H  H959  1  0.029400  0.450800  0.588700  1.0
  H  H960  1  0.470600  0.049200  0.588700  1.0
  H  H961  1  0.950800  0.529400  0.911300  1.0
  H  H962  1  0.549200  0.970600  0.911300  1.0
  H  H963  1  0.529400  0.549200  0.911300  1.0
  H  H964  1  0.970600  0.950800  0.911300  1.0
  H  H965  1  0.578000  0.476400  0.389500  1.0
  H  H966  1  0.922000  0.023600  0.389500  1.0
  H  H967  1  0.023600  0.578000  0.389500  1.0
  H  H968  1  0.476400  0.922000  0.389500  1.0
  H  H969  1  0.078000  0.523600  0.110500  1.0
  H  H970  1  0.422000  0.976400  0.110500  1.0
  H  H971  1  0.523600  0.422000  0.110500  1.0
  H  H972  1  0.976400  0.078000  0.110500  1.0
  H  H973  1  0.422000  0.523600  0.610500  1.0
  H  H974  1  0.078000  0.976400  0.610500  1.0
  H  H975  1  0.976400  0.422000  0.610500  1.0
  H  H976  1  0.523600  0.078000  0.610500  1.0
  H  H977  1  0.922000  0.476400  0.889500  1.0
  H  H978  1  0.578000  0.023600  0.889500  1.0
  H  H979  1  0.476400  0.578000  0.889500  1.0
  H  H980  1  0.023600  0.922000  0.889500  1.0
  H  H981  1  0.610000  0.510300  0.361100  1.0
  H  H982  1  0.890000  0.989700  0.361100  1.0
  H  H983  1  0.989700  0.610000  0.361100  1.0
  H  H984  1  0.510300  0.890000  0.361100  1.0
  H  H985  1  0.110000  0.489700  0.138900  1.0
  H  H986  1  0.390000  0.010300  0.138900  1.0
  H  H987  1  0.489700  0.390000  0.138900  1.0
  H  H988  1  0.010300  0.110000  0.138900  1.0
  H  H989  1  0.390000  0.489700  0.638900  1.0
  H  H990  1  0.110000  0.010300  0.638900  1.0
  H  H991  1  0.010300  0.390000  0.638900  1.0
  H  H992  1  0.489700  0.110000  0.638900  1.0
  H  H993  1  0.890000  0.510300  0.861100  1.0
  H  H994  1  0.610000  0.989700  0.861100  1.0
  H  H995  1  0.510300  0.610000  0.861100  1.0
  H  H996  1  0.989700  0.890000  0.861100  1.0
  H  H997  1  0.613100  0.594000  0.356300  1.0
  H  H998  1  0.886900  0.906000  0.356300  1.0
  H  H999  1  0.906000  0.613100  0.356300  1.0
  H  H1000  1  0.594000  0.886900  0.356300  1.0
  H  H1001  1  0.113100  0.406000  0.143700  1.0
  H  H1002  1  0.386900  0.094000  0.143700  1.0
  H  H1003  1  0.406000  0.386900  0.143700  1.0
  H  H1004  1  0.094000  0.113100  0.143700  1.0
  H  H1005  1  0.386900  0.406000  0.643700  1.0
  H  H1006  1  0.113100  0.094000  0.643700  1.0
  H  H1007  1  0.094000  0.386900  0.643700  1.0
  H  H1008  1  0.406000  0.113100  0.643700  1.0
  H  H1009  1  0.886900  0.594000  0.856300  1.0
  H  H1010  1  0.613100  0.906000  0.856300  1.0
  H  H1011  1  0.594000  0.613100  0.856300  1.0
  H  H1012  1  0.906000  0.886900  0.856300  1.0
  H  H1013  1  0.428600  0.499100  0.492300  1.0
  H  H1014  1  0.071400  0.000900  0.492300  1.0
  H  H1015  1  0.000900  0.428600  0.492300  1.0
  H  H1016  1  0.499100  0.071400  0.492300  1.0
  H  H1017  1  0.928600  0.500900  0.007700  1.0
  H  H1018  1  0.571400  0.999100  0.007700  1.0
  H  H1019  1  0.500900  0.571400  0.007700  1.0
  H  H1020  1  0.999100  0.928600  0.007700  1.0
  H  H1021  1  0.571400  0.500900  0.507700  1.0
  H  H1022  1  0.928600  0.999100  0.507700  1.0
  H  H1023  1  0.999100  0.571400  0.507700  1.0
  H  H1024  1  0.500900  0.928600  0.507700  1.0
  H  H1025  1  0.071400  0.499100  0.992300  1.0
  H  H1026  1  0.428600  0.000900  0.992300  1.0
  H  H1027  1  0.499100  0.428600  0.992300  1.0
  H  H1028  1  0.000900  0.071400  0.992300  1.0
  H  H1029  1  0.424400  0.497000  0.469900  1.0
  H  H1030  1  0.075600  0.003000  0.469900  1.0
  H  H1031  1  0.003000  0.424400  0.469900  1.0
  H  H1032  1  0.497000  0.075600  0.469900  1.0
  H  H1033  1  0.924400  0.503000  0.030100  1.0
  H  H1034  1  0.575600  0.997000  0.030100  1.0
  H  H1035  1  0.503000  0.575600  0.030100  1.0
  H  H1036  1  0.997000  0.924400  0.030100  1.0
  H  H1037  1  0.575600  0.503000  0.530100  1.0
  H  H1038  1  0.924400  0.997000  0.530100  1.0
  H  H1039  1  0.997000  0.575600  0.530100  1.0
  H  H1040  1  0.503000  0.924400  0.530100  1.0
  H  H1041  1  0.075600  0.497000  0.969900  1.0
  H  H1042  1  0.424400  0.003000  0.969900  1.0
  H  H1043  1  0.497000  0.424400  0.969900  1.0
  H  H1044  1  0.003000  0.075600  0.969900  1.0
  H  H1045  1  0.391000  0.585700  0.471600  1.0
  H  H1046  1  0.109000  0.914300  0.471600  1.0
  H  H1047  1  0.914300  0.391000  0.471600  1.0
  H  H1048  1  0.585700  0.109000  0.471600  1.0
  H  H1049  1  0.891000  0.414300  0.028400  1.0
  H  H1050  1  0.609000  0.085700  0.028400  1.0
  H  H1051  1  0.414300  0.609000  0.028400  1.0
  H  H1052  1  0.085700  0.891000  0.028400  1.0
  H  H1053  1  0.609000  0.414300  0.528400  1.0
  H  H1054  1  0.891000  0.085700  0.528400  1.0
  H  H1055  1  0.085700  0.609000  0.528400  1.0
  H  H1056  1  0.414300  0.891000  0.528400  1.0
  H  H1057  1  0.109000  0.585700  0.971600  1.0
  H  H1058  1  0.391000  0.914300  0.971600  1.0
  H  H1059  1  0.585700  0.391000  0.971600  1.0
  H  H1060  1  0.914300  0.109000  0.971600  1.0
  H  H1061  1  0.352500  0.543900  0.479600  1.0
  H  H1062  1  0.147500  0.956100  0.479600  1.0
  H  H1063  1  0.956100  0.352500  0.479600  1.0
  H  H1064  1  0.543900  0.147500  0.479600  1.0
  H  H1065  1  0.852500  0.456100  0.020400  1.0
  H  H1066  1  0.647500  0.043900  0.020400  1.0
  H  H1067  1  0.456100  0.647500  0.020400  1.0
  H  H1068  1  0.043900  0.852500  0.020400  1.0
  H  H1069  1  0.647500  0.456100  0.520400  1.0
  H  H1070  1  0.852500  0.043900  0.520400  1.0
  H  H1071  1  0.043900  0.647500  0.520400  1.0
  H  H1072  1  0.456100  0.852500  0.520400  1.0
  H  H1073  1  0.147500  0.543900  0.979600  1.0
  H  H1074  1  0.352500  0.956100  0.979600  1.0
  H  H1075  1  0.543900  0.352500  0.979600  1.0
  H  H1076  1  0.956100  0.147500  0.979600  1.0
  H  H1077  1  0.435200  0.579700  0.524200  1.0
  H  H1078  1  0.064800  0.920300  0.524200  1.0
  H  H1079  1  0.920300  0.435200  0.524200  1.0
  H  H1080  1  0.579700  0.064800  0.524200  1.0
  H  H1081  1  0.935200  0.420300  0.975800  1.0
  H  H1082  1  0.564800  0.079700  0.975800  1.0
  H  H1083  1  0.420300  0.564800  0.975800  1.0
  H  H1084  1  0.079700  0.935200  0.975800  1.0
  H  H1085  1  0.564800  0.420300  0.475800  1.0
  H  H1086  1  0.935200  0.079700  0.475800  1.0
  H  H1087  1  0.079700  0.564800  0.475800  1.0
  H  H1088  1  0.420300  0.935200  0.475800  1.0
  H  H1089  1  0.064800  0.579700  0.024200  1.0
  H  H1090  1  0.435200  0.920300  0.024200  1.0
  H  H1091  1  0.579700  0.435200  0.024200  1.0
  H  H1092  1  0.920300  0.064800  0.024200  1.0
  H  H1093  1  0.433000  0.526300  0.513900  1.0
  H  H1094  1  0.067000  0.973700  0.513900  1.0
  H  H1095  1  0.973700  0.433000  0.513900  1.0
  H  H1096  1  0.526300  0.067000  0.513900  1.0
  H  H1097  1  0.933000  0.473700  0.986100  1.0
  H  H1098  1  0.567000  0.026300  0.986100  1.0
  H  H1099  1  0.473700  0.567000  0.986100  1.0
  H  H1100  1  0.026300  0.933000  0.986100  1.0
  H  H1101  1  0.567000  0.473700  0.486100  1.0
  H  H1102  1  0.933000  0.026300  0.486100  1.0
  H  H1103  1  0.026300  0.567000  0.486100  1.0
  H  H1104  1  0.473700  0.933000  0.486100  1.0
  H  H1105  1  0.067000  0.526300  0.013900  1.0
  H  H1106  1  0.433000  0.973700  0.013900  1.0
  H  H1107  1  0.526300  0.433000  0.013900  1.0
  H  H1108  1  0.973700  0.067000  0.013900  1.0
  H  H1109  1  0.467400  0.570500  0.505600  1.0
  H  H1110  1  0.032600  0.929500  0.505600  1.0
  H  H1111  1  0.929500  0.467400  0.505600  1.0
  H  H1112  1  0.570500  0.032600  0.505600  1.0
  H  H1113  1  0.967400  0.429500  0.994400  1.0
  H  H1114  1  0.532600  0.070500  0.994400  1.0
  H  H1115  1  0.429500  0.532600  0.994400  1.0
  H  H1116  1  0.070500  0.967400  0.994400  1.0
  H  H1117  1  0.532600  0.429500  0.494400  1.0
  H  H1118  1  0.967400  0.070500  0.494400  1.0
  H  H1119  1  0.070500  0.532600  0.494400  1.0
  H  H1120  1  0.429500  0.967400  0.494400  1.0
  H  H1121  1  0.032600  0.570500  0.005600  1.0
  H  H1122  1  0.467400  0.929500  0.005600  1.0
  H  H1123  1  0.570500  0.467400  0.005600  1.0
  H  H1124  1  0.929500  0.032600  0.005600  1.0
  H  H1125  1  0.370300  0.570300  0.417800  1.0
  H  H1126  1  0.129700  0.929700  0.417800  1.0
  H  H1127  1  0.929700  0.370300  0.417800  1.0
  H  H1128  1  0.570300  0.129700  0.417800  1.0
  H  H1129  1  0.870300  0.429700  0.082200  1.0
  H  H1130  1  0.629700  0.070300  0.082200  1.0
  H  H1131  1  0.429700  0.629700  0.082200  1.0
  H  H1132  1  0.070300  0.870300  0.082200  1.0
  H  H1133  1  0.629700  0.429700  0.582200  1.0
  H  H1134  1  0.870300  0.070300  0.582200  1.0
  H  H1135  1  0.070300  0.629700  0.582200  1.0
  H  H1136  1  0.429700  0.870300  0.582200  1.0
  H  H1137  1  0.129700  0.570300  0.917800  1.0
  H  H1138  1  0.370300  0.929700  0.917800  1.0
  H  H1139  1  0.570300  0.370300  0.917800  1.0
  H  H1140  1  0.929700  0.129700  0.917800  1.0
  H  H1141  1  0.410500  0.524900  0.419100  1.0
  H  H1142  1  0.089500  0.975100  0.419100  1.0
  H  H1143  1  0.975100  0.410500  0.419100  1.0
  H  H1144  1  0.524900  0.089500  0.419100  1.0
  H  H1145  1  0.910500  0.475100  0.080900  1.0
  H  H1146  1  0.589500  0.024900  0.080900  1.0
  H  H1147  1  0.475100  0.589500  0.080900  1.0
  H  H1148  1  0.024900  0.910500  0.080900  1.0
  H  H1149  1  0.589500  0.475100  0.580900  1.0
  H  H1150  1  0.910500  0.024900  0.580900  1.0
  H  H1151  1  0.024900  0.589500  0.580900  1.0
  H  H1152  1  0.475100  0.910500  0.580900  1.0
  H  H1153  1  0.089500  0.524900  0.919100  1.0
  H  H1154  1  0.410500  0.975100  0.919100  1.0
  H  H1155  1  0.524900  0.410500  0.919100  1.0
  H  H1156  1  0.975100  0.089500  0.919100  1.0
  H  H1157  1  0.427000  0.541900  0.384200  1.0
  H  H1158  1  0.073000  0.958100  0.384200  1.0
  H  H1159  1  0.958100  0.427000  0.384200  1.0
  H  H1160  1  0.541900  0.073000  0.384200  1.0
  H  H1161  1  0.927000  0.458100  0.115800  1.0
  H  H1162  1  0.573000  0.041900  0.115800  1.0
  H  H1163  1  0.458100  0.573000  0.115800  1.0
  H  H1164  1  0.041900  0.927000  0.115800  1.0
  H  H1165  1  0.573000  0.458100  0.615800  1.0
  H  H1166  1  0.927000  0.041900  0.615800  1.0
  H  H1167  1  0.041900  0.573000  0.615800  1.0
  H  H1168  1  0.458100  0.927000  0.615800  1.0
  H  H1169  1  0.073000  0.541900  0.884200  1.0
  H  H1170  1  0.427000  0.958100  0.884200  1.0
  H  H1171  1  0.541900  0.427000  0.884200  1.0
  H  H1172  1  0.958100  0.073000  0.884200  1.0
  H  H1173  1  0.374900  0.513200  0.388600  1.0
  H  H1174  1  0.125100  0.986800  0.388600  1.0
  H  H1175  1  0.986800  0.374900  0.388600  1.0
  H  H1176  1  0.513200  0.125100  0.388600  1.0
  H  H1177  1  0.874900  0.486800  0.111400  1.0
  H  H1178  1  0.625100  0.013200  0.111400  1.0
  H  H1179  1  0.486800  0.625100  0.111400  1.0
  H  H1180  1  0.013200  0.874900  0.111400  1.0
  H  H1181  1  0.625100  0.486800  0.611400  1.0
  H  H1182  1  0.874900  0.013200  0.611400  1.0
  H  H1183  1  0.013200  0.625100  0.611400  1.0
  H  H1184  1  0.486800  0.874900  0.611400  1.0
  H  H1185  1  0.125100  0.513200  0.888600  1.0
  H  H1186  1  0.374900  0.986800  0.888600  1.0
  H  H1187  1  0.513200  0.374900  0.888600  1.0
  H  H1188  1  0.986800  0.125100  0.888600  1.0
  H  H1189  1  0.323500  0.626300  0.364100  1.0
  H  H1190  1  0.176500  0.873700  0.364100  1.0
  H  H1191  1  0.873700  0.323500  0.364100  1.0
  H  H1192  1  0.626300  0.176500  0.364100  1.0
  H  H1193  1  0.823500  0.373700  0.135900  1.0
  H  H1194  1  0.676500  0.126300  0.135900  1.0
  H  H1195  1  0.373700  0.676500  0.135900  1.0
  H  H1196  1  0.126300  0.823500  0.135900  1.0
  H  H1197  1  0.676500  0.373700  0.635900  1.0
  H  H1198  1  0.823500  0.126300  0.635900  1.0
  H  H1199  1  0.126300  0.676500  0.635900  1.0
  H  H1200  1  0.373700  0.823500  0.635900  1.0
  H  H1201  1  0.176500  0.626300  0.864100  1.0
  H  H1202  1  0.323500  0.873700  0.864100  1.0
  H  H1203  1  0.626300  0.323500  0.864100  1.0
  H  H1204  1  0.873700  0.176500  0.864100  1.0
  H  H1205  1  0.363300  0.589000  0.354600  1.0
  H  H1206  1  0.136700  0.911000  0.354600  1.0
  H  H1207  1  0.911000  0.363300  0.354600  1.0
  H  H1208  1  0.589000  0.136700  0.354600  1.0
  H  H1209  1  0.863300  0.411000  0.145400  1.0
  H  H1210  1  0.636700  0.089000  0.145400  1.0
  H  H1211  1  0.411000  0.636700  0.145400  1.0
  H  H1212  1  0.089000  0.863300  0.145400  1.0
  H  H1213  1  0.636700  0.411000  0.645400  1.0
  H  H1214  1  0.863300  0.089000  0.645400  1.0
  H  H1215  1  0.089000  0.636700  0.645400  1.0
  H  H1216  1  0.411000  0.863300  0.645400  1.0
  H  H1217  1  0.136700  0.589000  0.854600  1.0
  H  H1218  1  0.363300  0.911000  0.854600  1.0
  H  H1219  1  0.589000  0.363300  0.854600  1.0
  H  H1220  1  0.911000  0.136700  0.854600  1.0
  H  H1221  1  0.312900  0.566900  0.363600  1.0
  H  H1222  1  0.187100  0.933100  0.363600  1.0
  H  H1223  1  0.933100  0.312900  0.363600  1.0
  H  H1224  1  0.566900  0.187100  0.363600  1.0
  H  H1225  1  0.812900  0.433100  0.136400  1.0
  H  H1226  1  0.687100  0.066900  0.136400  1.0
  H  H1227  1  0.433100  0.687100  0.136400  1.0
  H  H1228  1  0.066900  0.812900  0.136400  1.0
  H  H1229  1  0.687100  0.433100  0.636400  1.0
  H  H1230  1  0.812900  0.066900  0.636400  1.0
  H  H1231  1  0.066900  0.687100  0.636400  1.0
  H  H1232  1  0.433100  0.812900  0.636400  1.0
  H  H1233  1  0.187100  0.566900  0.863600  1.0
  H  H1234  1  0.312900  0.933100  0.863600  1.0
  H  H1235  1  0.566900  0.312900  0.863600  1.0
  H  H1236  1  0.933100  0.187100  0.863600  1.0
  H  H1237  1  0.667600  0.742300  0.318600  1.0
  H  H1238  1  0.832400  0.757700  0.318600  1.0
  H  H1239  1  0.757700  0.667600  0.318600  1.0
  H  H1240  1  0.742300  0.832400  0.318600  1.0
  H  H1241  1  0.167600  0.257700  0.181400  1.0
  H  H1242  1  0.332400  0.242300  0.181400  1.0
  H  H1243  1  0.257700  0.332400  0.181400  1.0
  H  H1244  1  0.242300  0.167600  0.181400  1.0
  H  H1245  1  0.332400  0.257700  0.681400  1.0
  H  H1246  1  0.167600  0.242300  0.681400  1.0
  H  H1247  1  0.242300  0.332400  0.681400  1.0
  H  H1248  1  0.257700  0.167600  0.681400  1.0
  H  H1249  1  0.832400  0.742300  0.818600  1.0
  H  H1250  1  0.667600  0.757700  0.818600  1.0
  H  H1251  1  0.742300  0.667600  0.818600  1.0
  H  H1252  1  0.757700  0.832400  0.818600  1.0
  H  H1253  1  0.545600  0.682100  0.343400  1.0
  H  H1254  1  0.954400  0.817900  0.343400  1.0
  H  H1255  1  0.817900  0.545600  0.343400  1.0
  H  H1256  1  0.682100  0.954400  0.343400  1.0
  H  H1257  1  0.045600  0.317900  0.156600  1.0
  H  H1258  1  0.454400  0.182100  0.156600  1.0
  H  H1259  1  0.317900  0.454400  0.156600  1.0
  H  H1260  1  0.182100  0.045600  0.156600  1.0
  H  H1261  1  0.454400  0.317900  0.656600  1.0
  H  H1262  1  0.045600  0.182100  0.656600  1.0
  H  H1263  1  0.182100  0.454400  0.656600  1.0
  H  H1264  1  0.317900  0.045600  0.656600  1.0
  H  H1265  1  0.954400  0.682100  0.843400  1.0
  H  H1266  1  0.545600  0.817900  0.843400  1.0
  H  H1267  1  0.682100  0.545600  0.843400  1.0
  H  H1268  1  0.817900  0.954400  0.843400  1.0
  H  H1269  1  0.674400  0.704400  0.372000  1.0
  H  H1270  1  0.825600  0.795600  0.372000  1.0
  H  H1271  1  0.795600  0.674400  0.372000  1.0
  H  H1272  1  0.704400  0.825600  0.372000  1.0
  H  H1273  1  0.174400  0.295600  0.128000  1.0
  H  H1274  1  0.325600  0.204400  0.128000  1.0
  H  H1275  1  0.295600  0.325600  0.128000  1.0
  H  H1276  1  0.204400  0.174400  0.128000  1.0
  H  H1277  1  0.325600  0.295600  0.628000  1.0
  H  H1278  1  0.174400  0.204400  0.628000  1.0
  H  H1279  1  0.204400  0.325600  0.628000  1.0
  H  H1280  1  0.295600  0.174400  0.628000  1.0
  H  H1281  1  0.825600  0.704400  0.872000  1.0
  H  H1282  1  0.674400  0.795600  0.872000  1.0
  H  H1283  1  0.704400  0.674400  0.872000  1.0
  H  H1284  1  0.795600  0.825600  0.872000  1.0
  Pd  Pd1285  1  0.750000  0.750000  0.143310  1
  Pd  Pd1286  1  0.250000  0.250000  0.356690  1
  Pd  Pd1287  1  0.250000  0.250000  0.856690  1
  Pd  Pd1288  1  0.750000  0.750000  0.643310  1
  Pd  Pd1289  1  0.750000  0.750000  0.539290  1
  Pd  Pd1290  1  0.250000  0.250000  0.960710  1
  Pd  Pd1291  1  0.250000  0.250000  0.460710  1
  Pd  Pd1292  1  0.750000  0.750000  0.039290  1
  Pd  Pd1293  1  0.750000  0.750000  0.346110  1
  Pd  Pd1294  1  0.250000  0.250000  0.153890  1
  Pd  Pd1295  1  0.250000  0.250000  0.653890  1
  Pd  Pd1296  1  0.750000  0.750000  0.846110  1
  C  C1297  1  0.284100  0.760300  0.163200  1
  C  C1298  1  0.215900  0.739700  0.163200  1
  C  C1299  1  0.739700  0.284100  0.163200  1
  C  C1300  1  0.760300  0.215900  0.163200  1
  C  C1301  1  0.784100  0.239700  0.336800  1
  C  C1302  1  0.715900  0.260300  0.336800  1
  C  C1303  1  0.239700  0.715900  0.336800  1
  C  C1304  1  0.260300  0.784100  0.336800  1
  C  C1305  1  0.715900  0.239700  0.836800  1
  C  C1306  1  0.784100  0.260300  0.836800  1
  C  C1307  1  0.260300  0.715900  0.836800  1
  C  C1308  1  0.239700  0.784100  0.836800  1
  C  C1309  1  0.215900  0.760300  0.663200  1
  C  C1310  1  0.284100  0.739700  0.663200  1
  C  C1311  1  0.760300  0.284100  0.663200  1
  C  C1312  1  0.739700  0.215900  0.663200  1
  C  C1313  1  0.678100  0.831400  0.131550  1.0
  C  C1314  1  0.821900  0.668600  0.131550  1.0
  C  C1315  1  0.668600  0.678100  0.131550  1.0
  C  C1316  1  0.831400  0.821900  0.131550  1.0
  C  C1317  1  0.178100  0.168600  0.368450  1.0
  C  C1318  1  0.321900  0.331400  0.368450  1.0
  C  C1319  1  0.168600  0.321900  0.368450  1.0
  C  C1320  1  0.331400  0.178100  0.368450  1.0
  C  C1321  1  0.321900  0.168600  0.868450  1.0
  C  C1322  1  0.178100  0.331400  0.868450  1.0
  C  C1323  1  0.331400  0.321900  0.868450  1.0
  C  C1324  1  0.168600  0.178100  0.868450  1.0
  C  C1325  1  0.821900  0.831400  0.631550  1.0
  C  C1326  1  0.678100  0.668600  0.631550  1.0
  C  C1327  1  0.831400  0.678100  0.631550  1.0
  C  C1328  1  0.668600  0.821900  0.631550  1.0
  C  C1329  1  0.636100  0.860500  0.132830  1.0
  C  C1330  1  0.863900  0.639500  0.132830  1.0
  C  C1331  1  0.639500  0.636100  0.132830  1.0
  C  C1332  1  0.860500  0.863900  0.132830  1.0
  C  C1333  1  0.136100  0.139500  0.367170  1.0
  C  C1334  1  0.363900  0.360500  0.367170  1.0
  C  C1335  1  0.139500  0.363900  0.367170  1.0
  C  C1336  1  0.360500  0.136100  0.367170  1.0
  C  C1337  1  0.363900  0.139500  0.867170  1.0
  C  C1338  1  0.136100  0.360500  0.867170  1.0
  C  C1339  1  0.360500  0.363900  0.867170  1.0
  C  C1340  1  0.139500  0.136100  0.867170  1.0
  C  C1341  1  0.863900  0.860500  0.632830  1.0
  C  C1342  1  0.636100  0.639500  0.632830  1.0
  C  C1343  1  0.860500  0.636100  0.632830  1.0
  C  C1344  1  0.639500  0.863900  0.632830  1.0
  C  C1345  1  0.602000  0.852600  0.146720  1.0
  C  C1346  1  0.898000  0.647400  0.146720  1.0
  C  C1347  1  0.647400  0.602000  0.146720  1.0
  C  C1348  1  0.852600  0.898000  0.146720  1.0
  C  C1349  1  0.102000  0.147400  0.353280  1.0
  C  C1350  1  0.398000  0.352600  0.353280  1.0
  C  C1351  1  0.147400  0.398000  0.353280  1.0
  C  C1352  1  0.352600  0.102000  0.353280  1.0
  C  C1353  1  0.398000  0.147400  0.853280  1.0
  C  C1354  1  0.102000  0.352600  0.853280  1.0
  C  C1355  1  0.352600  0.398000  0.853280  1.0
  C  C1356  1  0.147400  0.102000  0.853280  1.0
  C  C1357  1  0.898000  0.852600  0.646720  1.0
  C  C1358  1  0.602000  0.647400  0.646720  1.0
  C  C1359  1  0.852600  0.602000  0.646720  1.0
  C  C1360  1  0.647400  0.898000  0.646720  1.0
  C  C1361  1  0.611100  0.815000  0.160450  1.0
  C  C1362  1  0.888900  0.685000  0.160450  1.0
  C  C1363  1  0.685000  0.611100  0.160450  1.0
  C  C1364  1  0.815000  0.888900  0.160450  1.0
  C  C1365  1  0.111100  0.185000  0.339550  1.0
  C  C1366  1  0.388900  0.315000  0.339550  1.0
  C  C1367  1  0.185000  0.388900  0.339550  1.0
  C  C1368  1  0.315000  0.111100  0.339550  1.0
  C  C1369  1  0.388900  0.185000  0.839550  1.0
  C  C1370  1  0.111100  0.315000  0.839550  1.0
  C  C1371  1  0.315000  0.388900  0.839550  1.0
  C  C1372  1  0.185000  0.111100  0.839550  1.0
  C  C1373  1  0.888900  0.815000  0.660450  1.0
  C  C1374  1  0.611100  0.685000  0.660450  1.0
  C  C1375  1  0.815000  0.611100  0.660450  1.0
  C  C1376  1  0.685000  0.888900  0.660450  1.0
  C  C1377  1  0.654140  0.786400  0.158380  1.0
  C  C1378  1  0.845860  0.713600  0.158380  1.0
  C  C1379  1  0.713600  0.654140  0.158380  1.0
  C  C1380  1  0.786400  0.845860  0.158380  1.0
  C  C1381  1  0.154140  0.213600  0.341620  1.0
  C  C1382  1  0.345860  0.286400  0.341620  1.0
  C  C1383  1  0.213600  0.345860  0.341620  1.0
  C  C1384  1  0.286400  0.154140  0.341620  1.0
  C  C1385  1  0.345860  0.213600  0.841620  1.0
  C  C1386  1  0.154140  0.286400  0.841620  1.0
  C  C1387  1  0.286400  0.345860  0.841620  1.0
  C  C1388  1  0.213600  0.154140  0.841620  1.0
  C  C1389  1  0.845860  0.786400  0.658380  1.0
  C  C1390  1  0.654140  0.713600  0.658380  1.0
  C  C1391  1  0.786400  0.654140  0.658380  1.0
  C  C1392  1  0.713600  0.845860  0.658380  1.0
  C  C1393  1  0.577480  0.803400  0.176130  1.0
  C  C1394  1  0.922520  0.696600  0.176130  1.0
  C  C1395  1  0.696600  0.577480  0.176130  1.0
  C  C1396  1  0.803400  0.922520  0.176130  1.0
  C  C1397  1  0.077480  0.196600  0.323870  1.0
  C  C1398  1  0.422520  0.303400  0.323870  1.0
  C  C1399  1  0.196600  0.422520  0.323870  1.0
  C  C1400  1  0.303400  0.077480  0.323870  1.0
  C  C1401  1  0.422520  0.196600  0.823870  1.0
  C  C1402  1  0.077480  0.303400  0.823870  1.0
  C  C1403  1  0.303400  0.422520  0.823870  1.0
  C  C1404  1  0.196600  0.077480  0.823870  1.0
  C  C1405  1  0.922520  0.803400  0.676130  1.0
  C  C1406  1  0.577480  0.696600  0.676130  1.0
  C  C1407  1  0.803400  0.577480  0.676130  1.0
  C  C1408  1  0.696600  0.922520  0.676130  1.0
  C  C1409  1  0.571360  0.837470  0.190870  1.0
  C  C1410  1  0.928640  0.662530  0.190870  1.0
  C  C1411  1  0.662530  0.571360  0.190870  1.0
  C  C1412  1  0.837470  0.928640  0.190870  1.0
  C  C1413  1  0.071360  0.162530  0.309130  1.0
  C  C1414  1  0.428640  0.337470  0.309130  1.0
  C  C1415  1  0.162530  0.428640  0.309130  1.0
  C  C1416  1  0.337470  0.071360  0.309130  1.0
  C  C1417  1  0.428640  0.162530  0.809130  1.0
  C  C1418  1  0.071360  0.337470  0.809130  1.0
  C  C1419  1  0.337470  0.428640  0.809130  1.0
  C  C1420  1  0.162530  0.071360  0.809130  1.0
  C  C1421  1  0.928640  0.837470  0.690870  1.0
  C  C1422  1  0.571360  0.662530  0.690870  1.0
  C  C1423  1  0.837470  0.571360  0.690870  1.0
  C  C1424  1  0.662530  0.928640  0.690870  1.0
  C  C1425  1  0.540080  0.824300  0.206780  1.0
  C  C1426  1  0.959920  0.675700  0.206780  1.0
  C  C1427  1  0.675700  0.540080  0.206780  1.0
  C  C1428  1  0.824300  0.959920  0.206780  1.0
  C  C1429  1  0.040080  0.175700  0.293220  1.0
  C  C1430  1  0.459920  0.324300  0.293220  1.0
  C  C1431  1  0.175700  0.459920  0.293220  1.0
  C  C1432  1  0.324300  0.040080  0.293220  1.0
  C  C1433  1  0.459920  0.175700  0.793220  1.0
  C  C1434  1  0.040080  0.324300  0.793220  1.0
  C  C1435  1  0.324300  0.459920  0.793220  1.0
  C  C1436  1  0.175700  0.040080  0.793220  1.0
  C  C1437  1  0.959920  0.824300  0.706780  1.0
  C  C1438  1  0.540080  0.675700  0.706780  1.0
  C  C1439  1  0.824300  0.540080  0.706780  1.0
  C  C1440  1  0.675700  0.959920  0.706780  1.0
  C  C1441  1  0.517550  0.777860  0.207650  1.0
  C  C1442  1  0.982450  0.722140  0.207650  1.0
  C  C1443  1  0.722140  0.517550  0.207650  1.0
  C  C1444  1  0.777860  0.982450  0.207650  1.0
  C  C1445  1  0.017550  0.222140  0.292350  1.0
  C  C1446  1  0.482450  0.277860  0.292350  1.0
  C  C1447  1  0.222140  0.482450  0.292350  1.0
  C  C1448  1  0.277860  0.017550  0.292350  1.0
  C  C1449  1  0.482450  0.222140  0.792350  1.0
  C  C1450  1  0.017550  0.277860  0.792350  1.0
  C  C1451  1  0.277860  0.482450  0.792350  1.0
  C  C1452  1  0.222140  0.017550  0.792350  1.0
  C  C1453  1  0.982450  0.777860  0.707650  1.0
  C  C1454  1  0.517550  0.722140  0.707650  1.0
  C  C1455  1  0.777860  0.517550  0.707650  1.0
  C  C1456  1  0.722140  0.982450  0.707650  1.0
  C  C1457  1  0.520190  0.743490  0.192400  1.0
  C  C1458  1  0.979810  0.756510  0.192400  1.0
  C  C1459  1  0.756510  0.520190  0.192400  1.0
  C  C1460  1  0.743490  0.979810  0.192400  1.0
  C  C1461  1  0.020190  0.256510  0.307600  1.0
  C  C1462  1  0.479810  0.243490  0.307600  1.0
  C  C1463  1  0.256510  0.479810  0.307600  1.0
  C  C1464  1  0.243490  0.020190  0.307600  1.0
  C  C1465  1  0.479810  0.256510  0.807600  1.0
  C  C1466  1  0.020190  0.243490  0.807600  1.0
  C  C1467  1  0.243490  0.479810  0.807600  1.0
  C  C1468  1  0.256510  0.020190  0.807600  1.0
  C  C1469  1  0.979810  0.743490  0.692400  1.0
  C  C1470  1  0.520190  0.756510  0.692400  1.0
  C  C1471  1  0.743490  0.520190  0.692400  1.0
  C  C1472  1  0.756510  0.979810  0.692400  1.0
  C  C1473  1  0.550610  0.757380  0.176290  1.0
  C  C1474  1  0.949390  0.742620  0.176290  1.0
  C  C1475  1  0.742620  0.550610  0.176290  1.0
  C  C1476  1  0.757380  0.949390  0.176290  1.0
  C  C1477  1  0.050610  0.242620  0.323710  1.0
  C  C1478  1  0.449390  0.257380  0.323710  1.0
  C  C1479  1  0.242620  0.449390  0.323710  1.0
  C  C1480  1  0.257380  0.050610  0.323710  1.0
  C  C1481  1  0.449390  0.242620  0.823710  1.0
  C  C1482  1  0.050610  0.257380  0.823710  1.0
  C  C1483  1  0.257380  0.449390  0.823710  1.0
  C  C1484  1  0.242620  0.050610  0.823710  1.0
  C  C1485  1  0.949390  0.757380  0.676290  1.0
  C  C1486  1  0.550610  0.742620  0.676290  1.0
  C  C1487  1  0.757380  0.550610  0.676290  1.0
  C  C1488  1  0.742620  0.949390  0.676290  1.0
  C  C1489  1  0.598200  0.885300  0.191260  1.0
  C  C1490  1  0.901800  0.614700  0.191260  1.0
  C  C1491  1  0.614700  0.598200  0.191260  1.0
  C  C1492  1  0.885300  0.901800  0.191260  1.0
  C  C1493  1  0.098200  0.114700  0.308740  1.0
  C  C1494  1  0.401800  0.385300  0.308740  1.0
  C  C1495  1  0.114700  0.401800  0.308740  1.0
  C  C1496  1  0.385300  0.098200  0.308740  1.0
  C  C1497  1  0.401800  0.114700  0.808740  1.0
  C  C1498  1  0.098200  0.385300  0.808740  1.0
  C  C1499  1  0.385300  0.401800  0.808740  1.0
  C  C1500  1  0.114700  0.098200  0.808740  1.0
  C  C1501  1  0.901800  0.885300  0.691260  1.0
  C  C1502  1  0.598200  0.614700  0.691260  1.0
  C  C1503  1  0.885300  0.598200  0.691260  1.0
  C  C1504  1  0.614700  0.901800  0.691260  1.0
  C  C1505  1  0.590800  0.919600  0.205160  1.0
  C  C1506  1  0.909200  0.580400  0.205160  1.0
  C  C1507  1  0.580400  0.590800  0.205160  1.0
  C  C1508  1  0.919600  0.909200  0.205160  1.0
  C  C1509  1  0.090800  0.080400  0.294840  1.0
  C  C1510  1  0.409200  0.419600  0.294840  1.0
  C  C1511  1  0.080400  0.409200  0.294840  1.0
  C  C1512  1  0.419600  0.090800  0.294840  1.0
  C  C1513  1  0.409200  0.080400  0.794840  1.0
  C  C1514  1  0.090800  0.419600  0.794840  1.0
  C  C1515  1  0.419600  0.409200  0.794840  1.0
  C  C1516  1  0.080400  0.090800  0.794840  1.0
  C  C1517  1  0.909200  0.919600  0.705160  1.0
  C  C1518  1  0.590800  0.580400  0.705160  1.0
  C  C1519  1  0.919600  0.590800  0.705160  1.0
  C  C1520  1  0.580400  0.909200  0.705160  1.0
  C  C1521  1  0.557400  0.907140  0.219960  1.0
  C  C1522  1  0.942600  0.592860  0.219960  1.0
  C  C1523  1  0.592860  0.557400  0.219960  1.0
  C  C1524  1  0.907140  0.942600  0.219960  1.0
  C  C1525  1  0.057400  0.092860  0.280040  1.0
  C  C1526  1  0.442600  0.407140  0.280040  1.0
  C  C1527  1  0.092860  0.442600  0.280040  1.0
  C  C1528  1  0.407140  0.057400  0.280040  1.0
  C  C1529  1  0.442600  0.092860  0.780040  1.0
  C  C1530  1  0.057400  0.407140  0.780040  1.0
  C  C1531  1  0.407140  0.442600  0.780040  1.0
  C  C1532  1  0.092860  0.057400  0.780040  1.0
  C  C1533  1  0.942600  0.907140  0.719960  1.0
  C  C1534  1  0.557400  0.592860  0.719960  1.0
  C  C1535  1  0.907140  0.557400  0.719960  1.0
  C  C1536  1  0.592860  0.942600  0.719960  1.0
  C  C1537  1  0.534800  0.861600  0.220660  1.0
  C  C1538  1  0.965200  0.638400  0.220660  1.0
  C  C1539  1  0.638400  0.534800  0.220660  1.0
  C  C1540  1  0.861600  0.965200  0.220660  1.0
  C  C1541  1  0.034800  0.138400  0.279340  1.0
  C  C1542  1  0.465200  0.361600  0.279340  1.0
  C  C1543  1  0.138400  0.465200  0.279340  1.0
  C  C1544  1  0.361600  0.034800  0.279340  1.0
  C  C1545  1  0.465200  0.138400  0.779340  1.0
  C  C1546  1  0.034800  0.361600  0.779340  1.0
  C  C1547  1  0.361600  0.465200  0.779340  1.0
  C  C1548  1  0.138400  0.034800  0.779340  1.0
  C  C1549  1  0.965200  0.861600  0.720660  1.0
  C  C1550  1  0.534800  0.638400  0.720660  1.0
  C  C1551  1  0.861600  0.534800  0.720660  1.0
  C  C1552  1  0.638400  0.965200  0.720660  1.0
  C  C1553  1  0.551500  0.722400  0.160650  1.0
  C  C1554  1  0.948500  0.777600  0.160650  1.0
  C  C1555  1  0.777600  0.551500  0.160650  1.0
  C  C1556  1  0.722400  0.948500  0.160650  1.0
  C  C1557  1  0.051500  0.277600  0.339350  1.0
  C  C1558  1  0.448500  0.222400  0.339350  1.0
  C  C1559  1  0.277600  0.448500  0.339350  1.0
  C  C1560  1  0.222400  0.051500  0.339350  1.0
  C  C1561  1  0.448500  0.277600  0.839350  1.0
  C  C1562  1  0.051500  0.222400  0.839350  1.0
  C  C1563  1  0.222400  0.448500  0.839350  1.0
  C  C1564  1  0.277600  0.051500  0.839350  1.0
  C  C1565  1  0.948500  0.722400  0.660650  1.0
  C  C1566  1  0.551500  0.777600  0.660650  1.0
  C  C1567  1  0.722400  0.551500  0.660650  1.0
  C  C1568  1  0.777600  0.948500  0.660650  1.0
  C  C1569  1  0.526900  0.678700  0.161160  1.0
  C  C1570  1  0.973100  0.821300  0.161160  1.0
  C  C1571  1  0.821300  0.526900  0.161160  1.0
  C  C1572  1  0.678700  0.973100  0.161160  1.0
  C  C1573  1  0.026900  0.321300  0.338840  1.0
  C  C1574  1  0.473100  0.178700  0.338840  1.0
  C  C1575  1  0.321300  0.473100  0.338840  1.0
  C  C1576  1  0.178700  0.026900  0.338840  1.0
  C  C1577  1  0.473100  0.321300  0.838840  1.0
  C  C1578  1  0.026900  0.178700  0.838840  1.0
  C  C1579  1  0.178700  0.473100  0.838840  1.0
  C  C1580  1  0.321300  0.026900  0.838840  1.0
  C  C1581  1  0.973100  0.678700  0.661160  1.0
  C  C1582  1  0.526900  0.821300  0.661160  1.0
  C  C1583  1  0.678700  0.526900  0.661160  1.0
  C  C1584  1  0.821300  0.973100  0.661160  1.0
  C  C1585  1  0.498200  0.664700  0.177220  1.0
  C  C1586  1  0.001800  0.835300  0.177220  1.0
  C  C1587  1  0.835300  0.498200  0.177220  1.0
  C  C1588  1  0.664700  0.001800  0.177220  1.0
  C  C1589  1  0.998200  0.335300  0.322780  1.0
  C  C1590  1  0.501800  0.164700  0.322780  1.0
  C  C1591  1  0.335300  0.501800  0.322780  1.0
  C  C1592  1  0.164700  0.998200  0.322780  1.0
  C  C1593  1  0.501800  0.335300  0.822780  1.0
  C  C1594  1  0.998200  0.164700  0.822780  1.0
  C  C1595  1  0.164700  0.501800  0.822780  1.0
  C  C1596  1  0.335300  0.998200  0.822780  1.0
  C  C1597  1  0.001800  0.664700  0.677220  1.0
  C  C1598  1  0.498200  0.835300  0.677220  1.0
  C  C1599  1  0.664700  0.498200  0.677220  1.0
  C  C1600  1  0.835300  0.001800  0.677220  1.0
  C  C1601  1  0.495070  0.696430  0.192230  1.0
  C  C1602  1  0.004930  0.803570  0.192230  1.0
  C  C1603  1  0.803570  0.495070  0.192230  1.0
  C  C1604  1  0.696430  0.004930  0.192230  1.0
  C  C1605  1  0.995070  0.303570  0.307770  1.0
  C  C1606  1  0.504930  0.196430  0.307770  1.0
  C  C1607  1  0.303570  0.504930  0.307770  1.0
  C  C1608  1  0.196430  0.995070  0.307770  1.0
  C  C1609  1  0.504930  0.303570  0.807770  1.0
  C  C1610  1  0.995070  0.196430  0.807770  1.0
  C  C1611  1  0.196430  0.504930  0.807770  1.0
  C  C1612  1  0.303570  0.995070  0.807770  1.0
  C  C1613  1  0.004930  0.696430  0.692230  1.0
  C  C1614  1  0.495070  0.803570  0.692230  1.0
  C  C1615  1  0.696430  0.495070  0.692230  1.0
  C  C1616  1  0.803570  0.004930  0.692230  1.0
  C  C1617  1  0.490550  0.761090  0.224870  1.0
  C  C1618  1  0.009450  0.738910  0.224870  1.0
  C  C1619  1  0.738910  0.490550  0.224870  1.0
  C  C1620  1  0.761090  0.009450  0.224870  1.0
  C  C1621  1  0.990550  0.238910  0.275130  1.0
  C  C1622  1  0.509450  0.261090  0.275130  1.0
  C  C1623  1  0.238910  0.509450  0.275130  1.0
  C  C1624  1  0.261090  0.990550  0.275130  1.0
  C  C1625  1  0.509450  0.238910  0.775130  1.0
  C  C1626  1  0.990550  0.261090  0.775130  1.0
  C  C1627  1  0.261090  0.509450  0.775130  1.0
  C  C1628  1  0.238910  0.990550  0.775130  1.0
  C  C1629  1  0.009450  0.761090  0.724870  1.0
  C  C1630  1  0.490550  0.738910  0.724870  1.0
  C  C1631  1  0.761090  0.490550  0.724870  1.0
  C  C1632  1  0.738910  0.009450  0.724870  1.0
  C  C1633  1  0.437450  0.756840  0.225870  1.0
  C  C1634  1  0.062550  0.743160  0.225870  1.0
  C  C1635  1  0.743160  0.437450  0.225870  1.0
  C  C1636  1  0.756840  0.062550  0.225870  1.0
  C  C1637  1  0.937450  0.243160  0.274130  1.0
  C  C1638  1  0.562550  0.256840  0.274130  1.0
  C  C1639  1  0.243160  0.562550  0.274130  1.0
  C  C1640  1  0.256840  0.937450  0.274130  1.0
  C  C1641  1  0.562550  0.243160  0.774130  1.0
  C  C1642  1  0.937450  0.256840  0.774130  1.0
  C  C1643  1  0.256840  0.562550  0.774130  1.0
  C  C1644  1  0.243160  0.937450  0.774130  1.0
  C  C1645  1  0.062550  0.756840  0.725870  1.0
  C  C1646  1  0.437450  0.743160  0.725870  1.0
  C  C1647  1  0.756840  0.437450  0.725870  1.0
  C  C1648  1  0.743160  0.062550  0.725870  1.0
  C  C1649  1  0.414920  0.740090  0.241900  1.0
  C  C1650  1  0.085080  0.759910  0.241900  1.0
  C  C1651  1  0.759910  0.414920  0.241900  1.0
  C  C1652  1  0.740090  0.085080  0.241900  1.0
  C  C1653  1  0.914920  0.259910  0.258100  1.0
  C  C1654  1  0.585080  0.240090  0.258100  1.0
  C  C1655  1  0.259910  0.585080  0.258100  1.0
  C  C1656  1  0.240090  0.914920  0.258100  1.0
  C  C1657  1  0.585080  0.259910  0.758100  1.0
  C  C1658  1  0.914920  0.240090  0.758100  1.0
  C  C1659  1  0.240090  0.585080  0.758100  1.0
  C  C1660  1  0.259910  0.914920  0.758100  1.0
  C  C1661  1  0.085080  0.740090  0.741900  1.0
  C  C1662  1  0.414920  0.759910  0.741900  1.0
  C  C1663  1  0.740090  0.414920  0.741900  1.0
  C  C1664  1  0.759910  0.085080  0.741900  1.0
  C  C1665  1  0.443520  0.729600  0.257620  1.0
  C  C1666  1  0.056480  0.770400  0.257620  1.0
  C  C1667  1  0.770400  0.443520  0.257620  1.0
  C  C1668  1  0.729600  0.056480  0.257620  1.0
  C  C1669  1  0.943520  0.270400  0.242380  1.0
  C  C1670  1  0.556480  0.229600  0.242380  1.0
  C  C1671  1  0.270400  0.556480  0.242380  1.0
  C  C1672  1  0.229600  0.943520  0.242380  1.0
  C  C1673  1  0.556480  0.270400  0.742380  1.0
  C  C1674  1  0.943520  0.229600  0.742380  1.0
  C  C1675  1  0.229600  0.556480  0.742380  1.0
  C  C1676  1  0.270400  0.943520  0.742380  1.0
  C  C1677  1  0.056480  0.729600  0.757620  1.0
  C  C1678  1  0.443520  0.770400  0.757620  1.0
  C  C1679  1  0.729600  0.443520  0.757620  1.0
  C  C1680  1  0.770400  0.056480  0.757620  1.0
  C  C1681  1  0.495030  0.736730  0.257800  1.0
  C  C1682  1  0.004970  0.763270  0.257800  1.0
  C  C1683  1  0.763270  0.495030  0.257800  1.0
  C  C1684  1  0.736730  0.004970  0.257800  1.0
  C  C1685  1  0.995030  0.263270  0.242200  1.0
  C  C1686  1  0.504970  0.236730  0.242200  1.0
  C  C1687  1  0.263270  0.504970  0.242200  1.0
  C  C1688  1  0.236730  0.995030  0.242200  1.0
  C  C1689  1  0.504970  0.263270  0.742200  1.0
  C  C1690  1  0.995030  0.236730  0.742200  1.0
  C  C1691  1  0.236730  0.504970  0.742200  1.0
  C  C1692  1  0.263270  0.995030  0.742200  1.0
  C  C1693  1  0.004970  0.736730  0.757800  1.0
  C  C1694  1  0.495030  0.763270  0.757800  1.0
  C  C1695  1  0.736730  0.495030  0.757800  1.0
  C  C1696  1  0.763270  0.004970  0.757800  1.0
  C  C1697  1  0.517740  0.751730  0.241330  1.0
  C  C1698  1  0.982260  0.748270  0.241330  1.0
  C  C1699  1  0.748270  0.517740  0.241330  1.0
  C  C1700  1  0.751730  0.982260  0.241330  1.0
  C  C1701  1  0.017740  0.248270  0.258670  1.0
  C  C1702  1  0.482260  0.251730  0.258670  1.0
  C  C1703  1  0.248270  0.482260  0.258670  1.0
  C  C1704  1  0.251730  0.017740  0.258670  1.0
  C  C1705  1  0.482260  0.248270  0.758670  1.0
  C  C1706  1  0.017740  0.251730  0.758670  1.0
  C  C1707  1  0.251730  0.482260  0.758670  1.0
  C  C1708  1  0.248270  0.017740  0.758670  1.0
  C  C1709  1  0.982260  0.751730  0.741330  1.0
  C  C1710  1  0.517740  0.748270  0.741330  1.0
  C  C1711  1  0.751730  0.517740  0.741330  1.0
  C  C1712  1  0.748270  0.982260  0.741330  1.0
  C  C1713  1  0.525030  0.730550  0.275520  1.0
  C  C1714  1  0.974970  0.769450  0.275520  1.0
  C  C1715  1  0.769450  0.525030  0.275520  1.0
  C  C1716  1  0.730550  0.974970  0.275520  1.0
  C  C1717  1  0.025030  0.269450  0.224480  1.0
  C  C1718  1  0.474970  0.230550  0.224480  1.0
  C  C1719  1  0.269450  0.474970  0.224480  1.0
  C  C1720  1  0.230550  0.025030  0.224480  1.0
  C  C1721  1  0.474970  0.269450  0.724480  1.0
  C  C1722  1  0.025030  0.230550  0.724480  1.0
  C  C1723  1  0.230550  0.474970  0.724480  1.0
  C  C1724  1  0.269450  0.025030  0.724480  1.0
  C  C1725  1  0.974970  0.730550  0.775520  1.0
  C  C1726  1  0.525030  0.769450  0.775520  1.0
  C  C1727  1  0.730550  0.525030  0.775520  1.0
  C  C1728  1  0.769450  0.974970  0.775520  1.0
  C  C1729  1  0.516510  0.763860  0.290280  1.0
  C  C1730  1  0.983490  0.736140  0.290280  1.0
  C  C1731  1  0.736140  0.516510  0.290280  1.0
  C  C1732  1  0.763860  0.983490  0.290280  1.0
  C  C1733  1  0.016510  0.236140  0.209720  1.0
  C  C1734  1  0.483490  0.263860  0.209720  1.0
  C  C1735  1  0.236140  0.483490  0.209720  1.0
  C  C1736  1  0.263860  0.016510  0.209720  1.0
  C  C1737  1  0.483490  0.236140  0.709720  1.0
  C  C1738  1  0.016510  0.263860  0.709720  1.0
  C  C1739  1  0.263860  0.483490  0.709720  1.0
  C  C1740  1  0.236140  0.016510  0.709720  1.0
  C  C1741  1  0.983490  0.763860  0.790280  1.0
  C  C1742  1  0.516510  0.736140  0.790280  1.0
  C  C1743  1  0.763860  0.516510  0.790280  1.0
  C  C1744  1  0.736140  0.983490  0.790280  1.0
  C  C1745  1  0.542000  0.759210  0.307440  1.0
  C  C1746  1  0.958000  0.740790  0.307440  1.0
  C  C1747  1  0.740790  0.542000  0.307440  1.0
  C  C1748  1  0.759210  0.958000  0.307440  1.0
  C  C1749  1  0.042000  0.240790  0.192560  1.0
  C  C1750  1  0.458000  0.259210  0.192560  1.0
  C  C1751  1  0.240790  0.458000  0.192560  1.0
  C  C1752  1  0.259210  0.042000  0.192560  1.0
  C  C1753  1  0.458000  0.240790  0.692560  1.0
  C  C1754  1  0.042000  0.259210  0.692560  1.0
  C  C1755  1  0.259210  0.458000  0.692560  1.0
  C  C1756  1  0.240790  0.042000  0.692560  1.0
  C  C1757  1  0.958000  0.759210  0.807440  1.0
  C  C1758  1  0.542000  0.740790  0.807440  1.0
  C  C1759  1  0.759210  0.542000  0.807440  1.0
  C  C1760  1  0.740790  0.958000  0.807440  1.0
  C  C1761  1  0.576070  0.718770  0.310020  1.0
  C  C1762  1  0.923930  0.781230  0.310020  1.0
  C  C1763  1  0.781230  0.576070  0.310020  1.0
  C  C1764  1  0.718770  0.923930  0.310020  1.0
  C  C1765  1  0.076070  0.281230  0.189980  1.0
  C  C1766  1  0.423930  0.218770  0.189980  1.0
  C  C1767  1  0.281230  0.423930  0.189980  1.0
  C  C1768  1  0.218770  0.076070  0.189980  1.0
  C  C1769  1  0.423930  0.281230  0.689980  1.0
  C  C1770  1  0.076070  0.218770  0.689980  1.0
  C  C1771  1  0.218770  0.423930  0.689980  1.0
  C  C1772  1  0.281230  0.076070  0.689980  1.0
  C  C1773  1  0.923930  0.718770  0.810020  1.0
  C  C1774  1  0.576070  0.781230  0.810020  1.0
  C  C1775  1  0.718770  0.576070  0.810020  1.0
  C  C1776  1  0.781230  0.923930  0.810020  1.0
  C  C1777  1  0.585500  0.684940  0.295590  1.0
  C  C1778  1  0.914500  0.815060  0.295590  1.0
  C  C1779  1  0.815060  0.585500  0.295590  1.0
  C  C1780  1  0.684940  0.914500  0.295590  1.0
  C  C1781  1  0.085500  0.315060  0.204410  1.0
  C  C1782  1  0.414500  0.184940  0.204410  1.0
  C  C1783  1  0.315060  0.414500  0.204410  1.0
  C  C1784  1  0.184940  0.085500  0.204410  1.0
  C  C1785  1  0.414500  0.315060  0.704410  1.0
  C  C1786  1  0.085500  0.184940  0.704410  1.0
  C  C1787  1  0.184940  0.414500  0.704410  1.0
  C  C1788  1  0.315060  0.085500  0.704410  1.0
  C  C1789  1  0.914500  0.684940  0.795590  1.0
  C  C1790  1  0.585500  0.815060  0.795590  1.0
  C  C1791  1  0.684940  0.585500  0.795590  1.0
  C  C1792  1  0.815060  0.914500  0.795590  1.0
  C  C1793  1  0.560450  0.691480  0.277770  1.0
  C  C1794  1  0.939550  0.808520  0.277770  1.0
  C  C1795  1  0.808520  0.560450  0.277770  1.0
  C  C1796  1  0.691480  0.939550  0.277770  1.0
  C  C1797  1  0.060450  0.308520  0.222230  1.0
  C  C1798  1  0.439550  0.191480  0.222230  1.0
  C  C1799  1  0.308520  0.439550  0.222230  1.0
  C  C1800  1  0.191480  0.060450  0.222230  1.0
  C  C1801  1  0.439550  0.308520  0.722230  1.0
  C  C1802  1  0.060450  0.191480  0.722230  1.0
  C  C1803  1  0.191480  0.439550  0.722230  1.0
  C  C1804  1  0.308520  0.060450  0.722230  1.0
  C  C1805  1  0.939550  0.691480  0.777770  1.0
  C  C1806  1  0.560450  0.808520  0.777770  1.0
  C  C1807  1  0.691480  0.560450  0.777770  1.0
  C  C1808  1  0.808520  0.939550  0.777770  1.0
  C  C1809  1  0.484080  0.807600  0.287870  1.0
  C  C1810  1  0.015920  0.692400  0.287870  1.0
  C  C1811  1  0.692400  0.484080  0.287870  1.0
  C  C1812  1  0.807600  0.015920  0.287870  1.0
  C  C1813  1  0.984080  0.192400  0.212130  1.0
  C  C1814  1  0.515920  0.307600  0.212130  1.0
  C  C1815  1  0.192400  0.515920  0.212130  1.0
  C  C1816  1  0.307600  0.984080  0.212130  1.0
  C  C1817  1  0.515920  0.192400  0.712130  1.0
  C  C1818  1  0.984080  0.307600  0.712130  1.0
  C  C1819  1  0.307600  0.515920  0.712130  1.0
  C  C1820  1  0.192400  0.984080  0.712130  1.0
  C  C1821  1  0.015920  0.807600  0.787870  1.0
  C  C1822  1  0.484080  0.692400  0.787870  1.0
  C  C1823  1  0.807600  0.484080  0.787870  1.0
  C  C1824  1  0.692400  0.015920  0.787870  1.0
  C  C1825  1  0.476600  0.841300  0.302310  1.0
  C  C1826  1  0.023400  0.658700  0.302310  1.0
  C  C1827  1  0.658700  0.476600  0.302310  1.0
  C  C1828  1  0.841300  0.023400  0.302310  1.0
  C  C1829  1  0.976600  0.158700  0.197690  1.0
  C  C1830  1  0.523400  0.341300  0.197690  1.0
  C  C1831  1  0.158700  0.523400  0.197690  1.0
  C  C1832  1  0.341300  0.976600  0.197690  1.0
  C  C1833  1  0.523400  0.158700  0.697690  1.0
  C  C1834  1  0.976600  0.341300  0.697690  1.0
  C  C1835  1  0.341300  0.523400  0.697690  1.0
  C  C1836  1  0.158700  0.976600  0.697690  1.0
  C  C1837  1  0.023400  0.841300  0.802310  1.0
  C  C1838  1  0.476600  0.658700  0.802310  1.0
  C  C1839  1  0.841300  0.476600  0.802310  1.0
  C  C1840  1  0.658700  0.023400  0.802310  1.0
  C  C1841  1  0.500700  0.835300  0.319190  1.0
  C  C1842  1  0.999300  0.664700  0.319190  1.0
  C  C1843  1  0.664700  0.500700  0.319190  1.0
  C  C1844  1  0.835300  0.999300  0.319190  1.0
  C  C1845  1  0.000700  0.164700  0.180810  1.0
  C  C1846  1  0.499300  0.335300  0.180810  1.0
  C  C1847  1  0.164700  0.499300  0.180810  1.0
  C  C1848  1  0.335300  0.000700  0.180810  1.0
  C  C1849  1  0.499300  0.164700  0.680810  1.0
  C  C1850  1  0.000700  0.335300  0.680810  1.0
  C  C1851  1  0.335300  0.499300  0.680810  1.0
  C  C1852  1  0.164700  0.000700  0.680810  1.0
  C  C1853  1  0.999300  0.835300  0.819190  1.0
  C  C1854  1  0.500700  0.664700  0.819190  1.0
  C  C1855  1  0.835300  0.500700  0.819190  1.0
  C  C1856  1  0.664700  0.999300  0.819190  1.0
  C  C1857  1  0.533600  0.795500  0.321830  1.0
  C  C1858  1  0.966400  0.704500  0.321830  1.0
  C  C1859  1  0.704500  0.533600  0.321830  1.0
  C  C1860  1  0.795500  0.966400  0.321830  1.0
  C  C1861  1  0.033600  0.204500  0.178170  1.0
  C  C1862  1  0.466400  0.295500  0.178170  1.0
  C  C1863  1  0.204500  0.466400  0.178170  1.0
  C  C1864  1  0.295500  0.033600  0.178170  1.0
  C  C1865  1  0.466400  0.204500  0.678170  1.0
  C  C1866  1  0.033600  0.295500  0.678170  1.0
  C  C1867  1  0.295500  0.466400  0.678170  1.0
  C  C1868  1  0.204500  0.033600  0.678170  1.0
  C  C1869  1  0.966400  0.795500  0.821830  1.0
  C  C1870  1  0.533600  0.704500  0.821830  1.0
  C  C1871  1  0.795500  0.533600  0.821830  1.0
  C  C1872  1  0.704500  0.966400  0.821830  1.0
  C  C1873  1  0.572400  0.656400  0.263500  1.0
  C  C1874  1  0.927600  0.843600  0.263500  1.0
  C  C1875  1  0.843600  0.572400  0.263500  1.0
  C  C1876  1  0.656400  0.927600  0.263500  1.0
  C  C1877  1  0.072400  0.343600  0.236500  1.0
  C  C1878  1  0.427600  0.156400  0.236500  1.0
  C  C1879  1  0.343600  0.427600  0.236500  1.0
  C  C1880  1  0.156400  0.072400  0.236500  1.0
  C  C1881  1  0.427600  0.343600  0.736500  1.0
  C  C1882  1  0.072400  0.156400  0.736500  1.0
  C  C1883  1  0.156400  0.427600  0.736500  1.0
  C  C1884  1  0.343600  0.072400  0.736500  1.0
  C  C1885  1  0.927600  0.656400  0.763500  1.0
  C  C1886  1  0.572400  0.843600  0.763500  1.0
  C  C1887  1  0.656400  0.572400  0.763500  1.0
  C  C1888  1  0.843600  0.927600  0.763500  1.0
  C  C1889  1  0.605400  0.620600  0.265880  1.0
  C  C1890  1  0.894600  0.879400  0.265880  1.0
  C  C1891  1  0.879400  0.605400  0.265880  1.0
  C  C1892  1  0.620600  0.894600  0.265880  1.0
  C  C1893  1  0.105400  0.379400  0.234120  1.0
  C  C1894  1  0.394600  0.120600  0.234120  1.0
  C  C1895  1  0.379400  0.394600  0.234120  1.0
  C  C1896  1  0.120600  0.105400  0.234120  1.0
  C  C1897  1  0.394600  0.379400  0.734120  1.0
  C  C1898  1  0.105400  0.120600  0.734120  1.0
  C  C1899  1  0.120600  0.394600  0.734120  1.0
  C  C1900  1  0.379400  0.105400  0.734120  1.0
  C  C1901  1  0.894600  0.620600  0.765880  1.0
  C  C1902  1  0.605400  0.879400  0.765880  1.0
  C  C1903  1  0.620600  0.605400  0.765880  1.0
  C  C1904  1  0.879400  0.894600  0.765880  1.0
  C  C1905  1  0.631300  0.614300  0.283130  1.0
  C  C1906  1  0.868700  0.885700  0.283130  1.0
  C  C1907  1  0.885700  0.631300  0.283130  1.0
  C  C1908  1  0.614300  0.868700  0.283130  1.0
  C  C1909  1  0.131300  0.385700  0.216870  1.0
  C  C1910  1  0.368700  0.114300  0.216870  1.0
  C  C1911  1  0.385700  0.368700  0.216870  1.0
  C  C1912  1  0.114300  0.131300  0.216870  1.0
  C  C1913  1  0.368700  0.385700  0.716870  1.0
  C  C1914  1  0.131300  0.114300  0.716870  1.0
  C  C1915  1  0.114300  0.368700  0.716870  1.0
  C  C1916  1  0.385700  0.131300  0.716870  1.0
  C  C1917  1  0.868700  0.614300  0.783130  1.0
  C  C1918  1  0.631300  0.885700  0.783130  1.0
  C  C1919  1  0.614300  0.631300  0.783130  1.0
  C  C1920  1  0.885700  0.868700  0.783130  1.0
  C  C1921  1  0.620300  0.644200  0.297510  1.0
  C  C1922  1  0.879700  0.855800  0.297510  1.0
  C  C1923  1  0.855800  0.620300  0.297510  1.0
  C  C1924  1  0.644200  0.879700  0.297510  1.0
  C  C1925  1  0.120300  0.355800  0.202490  1.0
  C  C1926  1  0.379700  0.144200  0.202490  1.0
  C  C1927  1  0.355800  0.379700  0.202490  1.0
  C  C1928  1  0.144200  0.120300  0.202490  1.0
  C  C1929  1  0.379700  0.355800  0.702490  1.0
  C  C1930  1  0.120300  0.144200  0.702490  1.0
  C  C1931  1  0.144200  0.379700  0.702490  1.0
  C  C1932  1  0.355800  0.120300  0.702490  1.0
  C  C1933  1  0.879700  0.644200  0.797510  1.0
  C  C1934  1  0.620300  0.855800  0.797510  1.0
  C  C1935  1  0.644200  0.620300  0.797510  1.0
  C  C1936  1  0.855800  0.879700  0.797510  1.0
  C  C1937  1  0.359140  0.762900  0.209930  1.0
  C  C1938  1  0.140860  0.737100  0.209930  1.0
  C  C1939  1  0.737100  0.359140  0.209930  1.0
  C  C1940  1  0.762900  0.140860  0.209930  1.0
  C  C1941  1  0.859140  0.237100  0.290070  1.0
  C  C1942  1  0.640860  0.262900  0.290070  1.0
  C  C1943  1  0.237100  0.640860  0.290070  1.0
  C  C1944  1  0.262900  0.859140  0.290070  1.0
  C  C1945  1  0.640860  0.237100  0.790070  1.0
  C  C1946  1  0.859140  0.262900  0.790070  1.0
  C  C1947  1  0.262900  0.640860  0.790070  1.0
  C  C1948  1  0.237100  0.859140  0.790070  1.0
  C  C1949  1  0.140860  0.762900  0.709930  1.0
  C  C1950  1  0.359140  0.737100  0.709930  1.0
  C  C1951  1  0.762900  0.359140  0.709930  1.0
  C  C1952  1  0.737100  0.140860  0.709930  1.0
  C  C1953  1  0.341100  0.776800  0.190780  1.0
  C  C1954  1  0.158900  0.723200  0.190780  1.0
  C  C1955  1  0.723200  0.341100  0.190780  1.0
  C  C1956  1  0.776800  0.158900  0.190780  1.0
  C  C1957  1  0.841100  0.223200  0.309220  1.0
  C  C1958  1  0.658900  0.276800  0.309220  1.0
  C  C1959  1  0.223200  0.658900  0.309220  1.0
  C  C1960  1  0.276800  0.841100  0.309220  1.0
  C  C1961  1  0.658900  0.223200  0.809220  1.0
  C  C1962  1  0.841100  0.276800  0.809220  1.0
  C  C1963  1  0.276800  0.658900  0.809220  1.0
  C  C1964  1  0.223200  0.841100  0.809220  1.0
  C  C1965  1  0.158900  0.776800  0.690780  1.0
  C  C1966  1  0.341100  0.723200  0.690780  1.0
  C  C1967  1  0.776800  0.341100  0.690780  1.0
  C  C1968  1  0.723200  0.158900  0.690780  1.0
  C  C1969  1  0.316900  0.847600  0.172800  1.0
  C  C1970  1  0.183100  0.652400  0.172800  1.0
  C  C1971  1  0.652400  0.316900  0.172800  1.0
  C  C1972  1  0.847600  0.183100  0.172800  1.0
  C  C1973  1  0.816900  0.152400  0.327200  1.0
  C  C1974  1  0.683100  0.347600  0.327200  1.0
  C  C1975  1  0.152400  0.683100  0.327200  1.0
  C  C1976  1  0.347600  0.816900  0.327200  1.0
  C  C1977  1  0.683100  0.152400  0.827200  1.0
  C  C1978  1  0.816900  0.347600  0.827200  1.0
  C  C1979  1  0.347600  0.683100  0.827200  1.0
  C  C1980  1  0.152400  0.816900  0.827200  1.0
  C  C1981  1  0.183100  0.847600  0.672800  1.0
  C  C1982  1  0.316900  0.652400  0.672800  1.0
  C  C1983  1  0.847600  0.316900  0.672800  1.0
  C  C1984  1  0.652400  0.183100  0.672800  1.0
  C  C1985  1  0.370520  0.721600  0.277070  1.0
  C  C1986  1  0.129480  0.778400  0.277070  1.0
  C  C1987  1  0.778400  0.370520  0.277070  1.0
  C  C1988  1  0.721600  0.129480  0.277070  1.0
  C  C1989  1  0.870520  0.278400  0.222930  1.0
  C  C1990  1  0.629480  0.221600  0.222930  1.0
  C  C1991  1  0.278400  0.629480  0.222930  1.0
  C  C1992  1  0.221600  0.870520  0.222930  1.0
  C  C1993  1  0.629480  0.278400  0.722930  1.0
  C  C1994  1  0.870520  0.221600  0.722930  1.0
  C  C1995  1  0.221600  0.629480  0.722930  1.0
  C  C1996  1  0.278400  0.870520  0.722930  1.0
  C  C1997  1  0.129480  0.721600  0.777070  1.0
  C  C1998  1  0.370520  0.778400  0.777070  1.0
  C  C1999  1  0.721600  0.370520  0.777070  1.0
  C  C2000  1  0.778400  0.129480  0.777070  1.0
  C  C2001  1  0.361800  0.714900  0.297810  1.0
  C  C2002  1  0.138200  0.785100  0.297810  1.0
  C  C2003  1  0.785100  0.361800  0.297810  1.0
  C  C2004  1  0.714900  0.138200  0.297810  1.0
  C  C2005  1  0.861800  0.285100  0.202190  1.0
  C  C2006  1  0.638200  0.214900  0.202190  1.0
  C  C2007  1  0.285100  0.638200  0.202190  1.0
  C  C2008  1  0.214900  0.861800  0.202190  1.0
  C  C2009  1  0.638200  0.285100  0.702190  1.0
  C  C2010  1  0.861800  0.214900  0.702190  1.0
  C  C2011  1  0.214900  0.638200  0.702190  1.0
  C  C2012  1  0.285100  0.861800  0.702190  1.0
  C  C2013  1  0.138200  0.714900  0.797810  1.0
  C  C2014  1  0.361800  0.785100  0.797810  1.0
  C  C2015  1  0.714900  0.361800  0.797810  1.0
  C  C2016  1  0.785100  0.138200  0.797810  1.0
  C  C2017  1  0.355000  0.655400  0.322710  1.0
  C  C2018  1  0.145000  0.844600  0.322710  1.0
  C  C2019  1  0.844600  0.355000  0.322710  1.0
  C  C2020  1  0.655400  0.145000  0.322710  1.0
  C  C2021  1  0.855000  0.344600  0.177290  1.0
  C  C2022  1  0.645000  0.155400  0.177290  1.0
  C  C2023  1  0.344600  0.645000  0.177290  1.0
  C  C2024  1  0.155400  0.855000  0.177290  1.0
  C  C2025  1  0.645000  0.344600  0.677290  1.0
  C  C2026  1  0.855000  0.155400  0.677290  1.0
  C  C2027  1  0.155400  0.645000  0.677290  1.0
  C  C2028  1  0.344600  0.855000  0.677290  1.0
  C  C2029  1  0.145000  0.655400  0.822710  1.0
  C  C2030  1  0.355000  0.844600  0.822710  1.0
  C  C2031  1  0.655400  0.355000  0.822710  1.0
  C  C2032  1  0.844600  0.145000  0.822710  1.0
  C  C2033  1  0.738000  0.651700  0.551500  1.0
  C  C2034  1  0.762000  0.848300  0.551500  1.0
  C  C2035  1  0.848300  0.738000  0.551500  1.0
  C  C2036  1  0.651700  0.762000  0.551500  1.0
  C  C2037  1  0.238000  0.348300  0.948500  1.0
  C  C2038  1  0.262000  0.151700  0.948500  1.0
  C  C2039  1  0.348300  0.262000  0.948500  1.0
  C  C2040  1  0.151700  0.238000  0.948500  1.0
  C  C2041  1  0.262000  0.348300  0.448500  1.0
  C  C2042  1  0.238000  0.151700  0.448500  1.0
  C  C2043  1  0.151700  0.262000  0.448500  1.0
  C  C2044  1  0.348300  0.238000  0.448500  1.0
  C  C2045  1  0.762000  0.651700  0.051500  1.0
  C  C2046  1  0.738000  0.848300  0.051500  1.0
  C  C2047  1  0.651700  0.738000  0.051500  1.0
  C  C2048  1  0.848300  0.762000  0.051500  1.0
  C  C2049  1  0.718300  0.604900  0.551480  1.0
  C  C2050  1  0.781700  0.895100  0.551480  1.0
  C  C2051  1  0.895100  0.718300  0.551480  1.0
  C  C2052  1  0.604900  0.781700  0.551480  1.0
  C  C2053  1  0.218300  0.395100  0.948520  1.0
  C  C2054  1  0.281700  0.104900  0.948520  1.0
  C  C2055  1  0.395100  0.281700  0.948520  1.0
  C  C2056  1  0.104900  0.218300  0.948520  1.0
  C  C2057  1  0.281700  0.395100  0.448520  1.0
  C  C2058  1  0.218300  0.104900  0.448520  1.0
  C  C2059  1  0.104900  0.281700  0.448520  1.0
  C  C2060  1  0.395100  0.218300  0.448520  1.0
  C  C2061  1  0.781700  0.604900  0.051480  1.0
  C  C2062  1  0.718300  0.895100  0.051480  1.0
  C  C2063  1  0.604900  0.718300  0.051480  1.0
  C  C2064  1  0.895100  0.781700  0.051480  1.0
  C  C2065  1  0.685500  0.586500  0.538100  1.0
  C  C2066  1  0.814500  0.913500  0.538100  1.0
  C  C2067  1  0.913500  0.685500  0.538100  1.0
  C  C2068  1  0.586500  0.814500  0.538100  1.0
  C  C2069  1  0.185500  0.413500  0.961900  1.0
  C  C2070  1  0.314500  0.086500  0.961900  1.0
  C  C2071  1  0.413500  0.314500  0.961900  1.0
  C  C2072  1  0.086500  0.185500  0.961900  1.0
  C  C2073  1  0.314500  0.413500  0.461900  1.0
  C  C2074  1  0.185500  0.086500  0.461900  1.0
  C  C2075  1  0.086500  0.314500  0.461900  1.0
  C  C2076  1  0.413500  0.185500  0.461900  1.0
  C  C2077  1  0.814500  0.586500  0.038100  1.0
  C  C2078  1  0.685500  0.913500  0.038100  1.0
  C  C2079  1  0.586500  0.685500  0.038100  1.0
  C  C2080  1  0.913500  0.814500  0.038100  1.0
  C  C2081  1  0.667300  0.624600  0.524690  1.0
  C  C2082  1  0.832700  0.875400  0.524690  1.0
  C  C2083  1  0.875400  0.667300  0.524690  1.0
  C  C2084  1  0.624600  0.832700  0.524690  1.0
  C  C2085  1  0.167300  0.375400  0.975310  1.0
  C  C2086  1  0.332700  0.124600  0.975310  1.0
  C  C2087  1  0.375400  0.332700  0.975310  1.0
  C  C2088  1  0.124600  0.167300  0.975310  1.0
  C  C2089  1  0.332700  0.375400  0.475310  1.0
  C  C2090  1  0.167300  0.124600  0.475310  1.0
  C  C2091  1  0.124600  0.332700  0.475310  1.0
  C  C2092  1  0.375400  0.167300  0.475310  1.0
  C  C2093  1  0.832700  0.624600  0.024690  1.0
  C  C2094  1  0.667300  0.875400  0.024690  1.0
  C  C2095  1  0.624600  0.667300  0.024690  1.0
  C  C2096  1  0.875400  0.832700  0.024690  1.0
  C  C2097  1  0.693300  0.670200  0.526440  1.0
  C  C2098  1  0.806700  0.829800  0.526440  1.0
  C  C2099  1  0.829800  0.693300  0.526440  1.0
  C  C2100  1  0.670200  0.806700  0.526440  1.0
  C  C2101  1  0.193300  0.329800  0.973560  1.0
  C  C2102  1  0.306700  0.170200  0.973560  1.0
  C  C2103  1  0.329800  0.306700  0.973560  1.0
  C  C2104  1  0.170200  0.193300  0.973560  1.0
  C  C2105  1  0.306700  0.329800  0.473560  1.0
  C  C2106  1  0.193300  0.170200  0.473560  1.0
  C  C2107  1  0.170200  0.306700  0.473560  1.0
  C  C2108  1  0.329800  0.193300  0.473560  1.0
  C  C2109  1  0.806700  0.670200  0.026440  1.0
  C  C2110  1  0.693300  0.829800  0.026440  1.0
  C  C2111  1  0.670200  0.693300  0.026440  1.0
  C  C2112  1  0.829800  0.806700  0.026440  1.0
  C  C2113  1  0.634900  0.608300  0.507950  1.0
  C  C2114  1  0.865100  0.891700  0.507950  1.0
  C  C2115  1  0.891700  0.634900  0.507950  1.0
  C  C2116  1  0.608300  0.865100  0.507950  1.0
  C  C2117  1  0.134900  0.391700  0.992050  1.0
  C  C2118  1  0.365100  0.108300  0.992050  1.0
  C  C2119  1  0.391700  0.365100  0.992050  1.0
  C  C2120  1  0.108300  0.134900  0.992050  1.0
  C  C2121  1  0.365100  0.391700  0.492050  1.0
  C  C2122  1  0.134900  0.108300  0.492050  1.0
  C  C2123  1  0.108300  0.365100  0.492050  1.0
  C  C2124  1  0.391700  0.134900  0.492050  1.0
  C  C2125  1  0.865100  0.608300  0.007950  1.0
  C  C2126  1  0.634900  0.891700  0.007950  1.0
  C  C2127  1  0.608300  0.634900  0.007950  1.0
  C  C2128  1  0.891700  0.865100  0.007950  1.0
  C  C2129  1  0.587900  0.633700  0.508360  1.0
  C  C2130  1  0.912100  0.866300  0.508360  1.0
  C  C2131  1  0.866300  0.587900  0.508360  1.0
  C  C2132  1  0.633700  0.912100  0.508360  1.0
  C  C2133  1  0.087900  0.366300  0.991640  1.0
  C  C2134  1  0.412100  0.133700  0.991640  1.0
  C  C2135  1  0.366300  0.412100  0.991640  1.0
  C  C2136  1  0.133700  0.087900  0.991640  1.0
  C  C2137  1  0.412100  0.366300  0.491640  1.0
  C  C2138  1  0.087900  0.133700  0.491640  1.0
  C  C2139  1  0.133700  0.412100  0.491640  1.0
  C  C2140  1  0.366300  0.087900  0.491640  1.0
  C  C2141  1  0.912100  0.633700  0.008360  1.0
  C  C2142  1  0.587900  0.866300  0.008360  1.0
  C  C2143  1  0.633700  0.587900  0.008360  1.0
  C  C2144  1  0.866300  0.912100  0.008360  1.0
  C  C2145  1  0.552900  0.627700  0.492250  1.0
  C  C2146  1  0.947100  0.872300  0.492250  1.0
  C  C2147  1  0.872300  0.552900  0.492250  1.0
  C  C2148  1  0.627700  0.947100  0.492250  1.0
  C  C2149  1  0.052900  0.372300  0.007750  1.0
  C  C2150  1  0.447100  0.127700  0.007750  1.0
  C  C2151  1  0.372300  0.447100  0.007750  1.0
  C  C2152  1  0.127700  0.052900  0.007750  1.0
  C  C2153  1  0.447100  0.372300  0.507750  1.0
  C  C2154  1  0.052900  0.127700  0.507750  1.0
  C  C2155  1  0.127700  0.447100  0.507750  1.0
  C  C2156  1  0.372300  0.052900  0.507750  1.0
  C  C2157  1  0.947100  0.627700  0.992250  1.0
  C  C2158  1  0.552900  0.872300  0.992250  1.0
  C  C2159  1  0.627700  0.552900  0.992250  1.0
  C  C2160  1  0.872300  0.947100  0.992250  1.0
  C  C2161  1  0.563700  0.597200  0.477180  1.0
  C  C2162  1  0.936300  0.902800  0.477180  1.0
  C  C2163  1  0.902800  0.563700  0.477180  1.0
  C  C2164  1  0.597200  0.936300  0.477180  1.0
  C  C2165  1  0.063700  0.402800  0.022820  1.0
  C  C2166  1  0.436300  0.097200  0.022820  1.0
  C  C2167  1  0.402800  0.436300  0.022820  1.0
  C  C2168  1  0.097200  0.063700  0.022820  1.0
  C  C2169  1  0.436300  0.402800  0.522820  1.0
  C  C2170  1  0.063700  0.097200  0.522820  1.0
  C  C2171  1  0.097200  0.436300  0.522820  1.0
  C  C2172  1  0.402800  0.063700  0.522820  1.0
  C  C2173  1  0.936300  0.597200  0.977180  1.0
  C  C2174  1  0.563700  0.902800  0.977180  1.0
  C  C2175  1  0.597200  0.563700  0.977180  1.0
  C  C2176  1  0.902800  0.936300  0.977180  1.0
  C  C2177  1  0.608200  0.566500  0.477840  1.0
  C  C2178  1  0.891800  0.933500  0.477840  1.0
  C  C2179  1  0.933500  0.608200  0.477840  1.0
  C  C2180  1  0.566500  0.891800  0.477840  1.0
  C  C2181  1  0.108200  0.433500  0.022160  1.0
  C  C2182  1  0.391800  0.066500  0.022160  1.0
  C  C2183  1  0.433500  0.391800  0.022160  1.0
  C  C2184  1  0.066500  0.108200  0.022160  1.0
  C  C2185  1  0.391800  0.433500  0.522160  1.0
  C  C2186  1  0.108200  0.066500  0.522160  1.0
  C  C2187  1  0.066500  0.391800  0.522160  1.0
  C  C2188  1  0.433500  0.108200  0.522160  1.0
  C  C2189  1  0.891800  0.566500  0.977840  1.0
  C  C2190  1  0.608200  0.933500  0.977840  1.0
  C  C2191  1  0.566500  0.608200  0.977840  1.0
  C  C2192  1  0.933500  0.891800  0.977840  1.0
  C  C2193  1  0.644500  0.572700  0.493580  1.0
  C  C2194  1  0.855500  0.927300  0.493580  1.0
  C  C2195  1  0.927300  0.644500  0.493580  1.0
  C  C2196  1  0.572700  0.855500  0.493580  1.0
  C  C2197  1  0.144500  0.427300  0.006420  1.0
  C  C2198  1  0.355500  0.072700  0.006420  1.0
  C  C2199  1  0.427300  0.355500  0.006420  1.0
  C  C2200  1  0.072700  0.144500  0.006420  1.0
  C  C2201  1  0.355500  0.427300  0.506420  1.0
  C  C2202  1  0.144500  0.072700  0.506420  1.0
  C  C2203  1  0.072700  0.355500  0.506420  1.0
  C  C2204  1  0.427300  0.144500  0.506420  1.0
  C  C2205  1  0.855500  0.572700  0.993580  1.0
  C  C2206  1  0.644500  0.927300  0.993580  1.0
  C  C2207  1  0.572700  0.644500  0.993580  1.0
  C  C2208  1  0.927300  0.855500  0.993580  1.0
  C  C2209  1  0.571800  0.663800  0.524000  1.0
  C  C2210  1  0.928200  0.836200  0.524000  1.0
  C  C2211  1  0.836200  0.571800  0.524000  1.0
  C  C2212  1  0.663800  0.928200  0.524000  1.0
  C  C2213  1  0.071800  0.336200  0.976000  1.0
  C  C2214  1  0.428200  0.163800  0.976000  1.0
  C  C2215  1  0.336200  0.428200  0.976000  1.0
  C  C2216  1  0.163800  0.071800  0.976000  1.0
  C  C2217  1  0.428200  0.336200  0.476000  1.0
  C  C2218  1  0.071800  0.163800  0.476000  1.0
  C  C2219  1  0.163800  0.428200  0.476000  1.0
  C  C2220  1  0.336200  0.071800  0.476000  1.0
  C  C2221  1  0.928200  0.663800  0.024000  1.0
  C  C2222  1  0.571800  0.836200  0.024000  1.0
  C  C2223  1  0.663800  0.571800  0.024000  1.0
  C  C2224  1  0.836200  0.928200  0.024000  1.0
  C  C2225  1  0.529000  0.690300  0.524300  1.0
  C  C2226  1  0.971000  0.809700  0.524300  1.0
  C  C2227  1  0.809700  0.529000  0.524300  1.0
  C  C2228  1  0.690300  0.971000  0.524300  1.0
  C  C2229  1  0.029000  0.309700  0.975700  1.0
  C  C2230  1  0.471000  0.190300  0.975700  1.0
  C  C2231  1  0.309700  0.471000  0.975700  1.0
  C  C2232  1  0.190300  0.029000  0.975700  1.0
  C  C2233  1  0.471000  0.309700  0.475700  1.0
  C  C2234  1  0.029000  0.190300  0.475700  1.0
  C  C2235  1  0.190300  0.471000  0.475700  1.0
  C  C2236  1  0.309700  0.029000  0.475700  1.0
  C  C2237  1  0.971000  0.690300  0.024300  1.0
  C  C2238  1  0.529000  0.809700  0.024300  1.0
  C  C2239  1  0.690300  0.529000  0.024300  1.0
  C  C2240  1  0.809700  0.971000  0.024300  1.0
  C  C2241  1  0.496500  0.686300  0.508100  1.0
  C  C2242  1  0.003500  0.813700  0.508100  1.0
  C  C2243  1  0.813700  0.496500  0.508100  1.0
  C  C2244  1  0.686300  0.003500  0.508100  1.0
  C  C2245  1  0.996500  0.313700  0.991900  1.0
  C  C2246  1  0.503500  0.186300  0.991900  1.0
  C  C2247  1  0.313700  0.503500  0.991900  1.0
  C  C2248  1  0.186300  0.996500  0.991900  1.0
  C  C2249  1  0.503500  0.313700  0.491900  1.0
  C  C2250  1  0.996500  0.186300  0.491900  1.0
  C  C2251  1  0.186300  0.503500  0.491900  1.0
  C  C2252  1  0.313700  0.996500  0.491900  1.0
  C  C2253  1  0.003500  0.686300  0.008100  1.0
  C  C2254  1  0.496500  0.813700  0.008100  1.0
  C  C2255  1  0.686300  0.496500  0.008100  1.0
  C  C2256  1  0.813700  0.003500  0.008100  1.0
  C  C2257  1  0.506600  0.656800  0.493500  1.0
  C  C2258  1  0.993400  0.843200  0.493500  1.0
  C  C2259  1  0.843200  0.506600  0.493500  1.0
  C  C2260  1  0.656800  0.993400  0.493500  1.0
  C  C2261  1  0.006600  0.343200  0.006500  1.0
  C  C2262  1  0.493400  0.156800  0.006500  1.0
  C  C2263  1  0.343200  0.493400  0.006500  1.0
  C  C2264  1  0.156800  0.006600  0.006500  1.0
  C  C2265  1  0.493400  0.343200  0.506500  1.0
  C  C2266  1  0.006600  0.156800  0.506500  1.0
  C  C2267  1  0.156800  0.493400  0.506500  1.0
  C  C2268  1  0.343200  0.006600  0.506500  1.0
  C  C2269  1  0.993400  0.656800  0.993500  1.0
  C  C2270  1  0.506600  0.843200  0.993500  1.0
  C  C2271  1  0.656800  0.506600  0.993500  1.0
  C  C2272  1  0.843200  0.993400  0.993500  1.0
  C  C2273  1  0.690500  0.541100  0.492600  1.0
  C  C2274  1  0.809500  0.958900  0.492600  1.0
  C  C2275  1  0.958900  0.690500  0.492600  1.0
  C  C2276  1  0.541100  0.809500  0.492600  1.0
  C  C2277  1  0.190500  0.458900  0.007400  1.0
  C  C2278  1  0.309500  0.041100  0.007400  1.0
  C  C2279  1  0.458900  0.309500  0.007400  1.0
  C  C2280  1  0.041100  0.190500  0.007400  1.0
  C  C2281  1  0.309500  0.458900  0.507400  1.0
  C  C2282  1  0.190500  0.041100  0.507400  1.0
  C  C2283  1  0.041100  0.309500  0.507400  1.0
  C  C2284  1  0.458900  0.190500  0.507400  1.0
  C  C2285  1  0.809500  0.541100  0.992600  1.0
  C  C2286  1  0.690500  0.958900  0.992600  1.0
  C  C2287  1  0.541100  0.690500  0.992600  1.0
  C  C2288  1  0.958900  0.809500  0.992600  1.0
  C  C2289  1  0.703800  0.515300  0.476900  1.0
  C  C2290  1  0.796200  0.984700  0.476900  1.0
  C  C2291  1  0.984700  0.703800  0.476900  1.0
  C  C2292  1  0.515300  0.796200  0.476900  1.0
  C  C2293  1  0.203800  0.484700  0.023100  1.0
  C  C2294  1  0.296200  0.015300  0.023100  1.0
  C  C2295  1  0.484700  0.296200  0.023100  1.0
  C  C2296  1  0.015300  0.203800  0.023100  1.0
  C  C2297  1  0.296200  0.484700  0.523100  1.0
  C  C2298  1  0.203800  0.015300  0.523100  1.0
  C  C2299  1  0.015300  0.296200  0.523100  1.0
  C  C2300  1  0.484700  0.203800  0.523100  1.0
  C  C2301  1  0.796200  0.515300  0.976900  1.0
  C  C2302  1  0.703800  0.984700  0.976900  1.0
  C  C2303  1  0.515300  0.703800  0.976900  1.0
  C  C2304  1  0.984700  0.796200  0.976900  1.0
  C  C2305  1  0.663800  0.505200  0.463800  1.0
  C  C2306  1  0.836200  0.994800  0.463800  1.0
  C  C2307  1  0.994800  0.663800  0.463800  1.0
  C  C2308  1  0.505200  0.836200  0.463800  1.0
  C  C2309  1  0.163800  0.494800  0.036200  1.0
  C  C2310  1  0.336200  0.005200  0.036200  1.0
  C  C2311  1  0.494800  0.336200  0.036200  1.0
  C  C2312  1  0.005200  0.163800  0.036200  1.0
  C  C2313  1  0.336200  0.494800  0.536200  1.0
  C  C2314  1  0.163800  0.005200  0.536200  1.0
  C  C2315  1  0.005200  0.336200  0.536200  1.0
  C  C2316  1  0.494800  0.163800  0.536200  1.0
  C  C2317  1  0.836200  0.505200  0.963800  1.0
  C  C2318  1  0.663800  0.994800  0.963800  1.0
  C  C2319  1  0.505200  0.663800  0.963800  1.0
  C  C2320  1  0.994800  0.836200  0.963800  1.0
  C  C2321  1  0.617800  0.529500  0.463400  1.0
  C  C2322  1  0.882200  0.970500  0.463400  1.0
  C  C2323  1  0.970500  0.617800  0.463400  1.0
  C  C2324  1  0.529500  0.882200  0.463400  1.0
  C  C2325  1  0.117800  0.470500  0.036600  1.0
  C  C2326  1  0.382200  0.029500  0.036600  1.0
  C  C2327  1  0.470500  0.382200  0.036600  1.0
  C  C2328  1  0.029500  0.117800  0.036600  1.0
  C  C2329  1  0.382200  0.470500  0.536600  1.0
  C  C2330  1  0.117800  0.029500  0.536600  1.0
  C  C2331  1  0.029500  0.382200  0.536600  1.0
  C  C2332  1  0.470500  0.117800  0.536600  1.0
  C  C2333  1  0.882200  0.529500  0.963400  1.0
  C  C2334  1  0.617800  0.970500  0.963400  1.0
  C  C2335  1  0.529500  0.617800  0.963400  1.0
  C  C2336  1  0.970500  0.882200  0.963400  1.0
  C  C2337  1  0.533100  0.595200  0.461650  1.0
  C  C2338  1  0.966900  0.904800  0.461650  1.0
  C  C2339  1  0.904800  0.533100  0.461650  1.0
  C  C2340  1  0.595200  0.966900  0.461650  1.0
  C  C2341  1  0.033100  0.404800  0.038350  1.0
  C  C2342  1  0.466900  0.095200  0.038350  1.0
  C  C2343  1  0.404800  0.466900  0.038350  1.0
  C  C2344  1  0.095200  0.033100  0.038350  1.0
  C  C2345  1  0.466900  0.404800  0.538350  1.0
  C  C2346  1  0.033100  0.095200  0.538350  1.0
  C  C2347  1  0.095200  0.466900  0.538350  1.0
  C  C2348  1  0.404800  0.033100  0.538350  1.0
  C  C2349  1  0.966900  0.595200  0.961650  1.0
  C  C2350  1  0.533100  0.904800  0.961650  1.0
  C  C2351  1  0.595200  0.533100  0.961650  1.0
  C  C2352  1  0.904800  0.966900  0.961650  1.0
  C  C2353  1  0.486800  0.568800  0.460500  1.0
  C  C2354  1  0.013200  0.931200  0.460500  1.0
  C  C2355  1  0.931200  0.486800  0.460500  1.0
  C  C2356  1  0.568800  0.013200  0.460500  1.0
  C  C2357  1  0.986800  0.431200  0.039500  1.0
  C  C2358  1  0.513200  0.068800  0.039500  1.0
  C  C2359  1  0.431200  0.513200  0.039500  1.0
  C  C2360  1  0.068800  0.986800  0.039500  1.0
  C  C2361  1  0.513200  0.431200  0.539500  1.0
  C  C2362  1  0.986800  0.068800  0.539500  1.0
  C  C2363  1  0.068800  0.513200  0.539500  1.0
  C  C2364  1  0.431200  0.986800  0.539500  1.0
  C  C2365  1  0.013200  0.568800  0.960500  1.0
  C  C2366  1  0.486800  0.931200  0.960500  1.0
  C  C2367  1  0.568800  0.486800  0.960500  1.0
  C  C2368  1  0.931200  0.013200  0.960500  1.0
  C  C2369  1  0.452700  0.566600  0.444970  1.0
  C  C2370  1  0.047300  0.933400  0.444970  1.0
  C  C2371  1  0.933400  0.452700  0.444970  1.0
  C  C2372  1  0.566600  0.047300  0.444970  1.0
  C  C2373  1  0.952700  0.433400  0.055030  1.0
  C  C2374  1  0.547300  0.066600  0.055030  1.0
  C  C2375  1  0.433400  0.547300  0.055030  1.0
  C  C2376  1  0.066600  0.952700  0.055030  1.0
  C  C2377  1  0.547300  0.433400  0.555030  1.0
  C  C2378  1  0.952700  0.066600  0.555030  1.0
  C  C2379  1  0.066600  0.547300  0.555030  1.0
  C  C2380  1  0.433400  0.952700  0.555030  1.0
  C  C2381  1  0.047300  0.566600  0.944970  1.0
  C  C2382  1  0.452700  0.933400  0.944970  1.0
  C  C2383  1  0.566600  0.452700  0.944970  1.0
  C  C2384  1  0.933400  0.047300  0.944970  1.0
  C  C2385  1  0.469800  0.589000  0.428000  1.0
  C  C2386  1  0.030200  0.911000  0.428000  1.0
  C  C2387  1  0.911000  0.469800  0.428000  1.0
  C  C2388  1  0.589000  0.030200  0.428000  1.0
  C  C2389  1  0.969800  0.411000  0.072000  1.0
  C  C2390  1  0.530200  0.089000  0.072000  1.0
  C  C2391  1  0.411000  0.530200  0.072000  1.0
  C  C2392  1  0.089000  0.969800  0.072000  1.0
  C  C2393  1  0.530200  0.411000  0.572000  1.0
  C  C2394  1  0.969800  0.089000  0.572000  1.0
  C  C2395  1  0.089000  0.530200  0.572000  1.0
  C  C2396  1  0.411000  0.969800  0.572000  1.0
  C  C2397  1  0.030200  0.589000  0.928000  1.0
  C  C2398  1  0.469800  0.911000  0.928000  1.0
  C  C2399  1  0.589000  0.469800  0.928000  1.0
  C  C2400  1  0.911000  0.030200  0.928000  1.0
  C  C2401  1  0.521700  0.610100  0.428890  1.0
  C  C2402  1  0.978300  0.889900  0.428890  1.0
  C  C2403  1  0.889900  0.521700  0.428890  1.0
  C  C2404  1  0.610100  0.978300  0.428890  1.0
  C  C2405  1  0.021700  0.389900  0.071110  1.0
  C  C2406  1  0.478300  0.110100  0.071110  1.0
  C  C2407  1  0.389900  0.478300  0.071110  1.0
  C  C2408  1  0.110100  0.021700  0.071110  1.0
  C  C2409  1  0.478300  0.389900  0.571110  1.0
  C  C2410  1  0.021700  0.110100  0.571110  1.0
  C  C2411  1  0.110100  0.478300  0.571110  1.0
  C  C2412  1  0.389900  0.021700  0.571110  1.0
  C  C2413  1  0.978300  0.610100  0.928890  1.0
  C  C2414  1  0.521700  0.889900  0.928890  1.0
  C  C2415  1  0.610100  0.521700  0.928890  1.0
  C  C2416  1  0.889900  0.978300  0.928890  1.0
  C  C2417  1  0.548600  0.616500  0.444960  1.0
  C  C2418  1  0.951400  0.883500  0.444960  1.0
  C  C2419  1  0.883500  0.548600  0.444960  1.0
  C  C2420  1  0.616500  0.951400  0.444960  1.0
  C  C2421  1  0.048600  0.383500  0.055040  1.0
  C  C2422  1  0.451400  0.116500  0.055040  1.0
  C  C2423  1  0.383500  0.451400  0.055040  1.0
  C  C2424  1  0.116500  0.048600  0.055040  1.0
  C  C2425  1  0.451400  0.383500  0.555040  1.0
  C  C2426  1  0.048600  0.116500  0.555040  1.0
  C  C2427  1  0.116500  0.451400  0.555040  1.0
  C  C2428  1  0.383500  0.048600  0.555040  1.0
  C  C2429  1  0.951400  0.616500  0.944960  1.0
  C  C2430  1  0.548600  0.883500  0.944960  1.0
  C  C2431  1  0.616500  0.548600  0.944960  1.0
  C  C2432  1  0.883500  0.951400  0.944960  1.0
  C  C2433  1  0.542500  0.632100  0.411070  1.0
  C  C2434  1  0.957500  0.867900  0.411070  1.0
  C  C2435  1  0.867900  0.542500  0.411070  1.0
  C  C2436  1  0.632100  0.957500  0.411070  1.0
  C  C2437  1  0.042500  0.367900  0.088930  1.0
  C  C2438  1  0.457500  0.132100  0.088930  1.0
  C  C2439  1  0.367900  0.457500  0.088930  1.0
  C  C2440  1  0.132100  0.042500  0.088930  1.0
  C  C2441  1  0.457500  0.367900  0.588930  1.0
  C  C2442  1  0.042500  0.132100  0.588930  1.0
  C  C2443  1  0.132100  0.457500  0.588930  1.0
  C  C2444  1  0.367900  0.042500  0.588930  1.0
  C  C2445  1  0.957500  0.632100  0.911070  1.0
  C  C2446  1  0.542500  0.867900  0.911070  1.0
  C  C2447  1  0.632100  0.542500  0.911070  1.0
  C  C2448  1  0.867900  0.957500  0.911070  1.0
  C  C2449  1  0.548400  0.683600  0.408720  1.0
  C  C2450  1  0.951600  0.816400  0.408720  1.0
  C  C2451  1  0.816400  0.548400  0.408720  1.0
  C  C2452  1  0.683600  0.951600  0.408720  1.0
  C  C2453  1  0.048400  0.316400  0.091280  1.0
  C  C2454  1  0.451600  0.183600  0.091280  1.0
  C  C2455  1  0.316400  0.451600  0.091280  1.0
  C  C2456  1  0.183600  0.048400  0.091280  1.0
  C  C2457  1  0.451600  0.316400  0.591280  1.0
  C  C2458  1  0.048400  0.183600  0.591280  1.0
  C  C2459  1  0.183600  0.451600  0.591280  1.0
  C  C2460  1  0.316400  0.048400  0.591280  1.0
  C  C2461  1  0.951600  0.683600  0.908720  1.0
  C  C2462  1  0.548400  0.816400  0.908720  1.0
  C  C2463  1  0.683600  0.548400  0.908720  1.0
  C  C2464  1  0.816400  0.951600  0.908720  1.0
  C  C2465  1  0.569000  0.703900  0.391610  1.0
  C  C2466  1  0.931000  0.796100  0.391610  1.0
  C  C2467  1  0.796100  0.569000  0.391610  1.0
  C  C2468  1  0.703900  0.931000  0.391610  1.0
  C  C2469  1  0.069000  0.296100  0.108390  1.0
  C  C2470  1  0.431000  0.203900  0.108390  1.0
  C  C2471  1  0.296100  0.431000  0.108390  1.0
  C  C2472  1  0.203900  0.069000  0.108390  1.0
  C  C2473  1  0.431000  0.296100  0.608390  1.0
  C  C2474  1  0.069000  0.203900  0.608390  1.0
  C  C2475  1  0.203900  0.431000  0.608390  1.0
  C  C2476  1  0.296100  0.069000  0.608390  1.0
  C  C2477  1  0.931000  0.703900  0.891610  1.0
  C  C2478  1  0.569000  0.796100  0.891610  1.0
  C  C2479  1  0.703900  0.569000  0.891610  1.0
  C  C2480  1  0.796100  0.931000  0.891610  1.0
  C  C2481  1  0.582500  0.669500  0.377810  1.0
  C  C2482  1  0.917500  0.830500  0.377810  1.0
  C  C2483  1  0.830500  0.582500  0.377810  1.0
  C  C2484  1  0.669500  0.917500  0.377810  1.0
  C  C2485  1  0.082500  0.330500  0.122190  1.0
  C  C2486  1  0.417500  0.169500  0.122190  1.0
  C  C2487  1  0.330500  0.417500  0.122190  1.0
  C  C2488  1  0.169500  0.082500  0.122190  1.0
  C  C2489  1  0.417500  0.330500  0.622190  1.0
  C  C2490  1  0.082500  0.169500  0.622190  1.0
  C  C2491  1  0.169500  0.417500  0.622190  1.0
  C  C2492  1  0.330500  0.082500  0.622190  1.0
  C  C2493  1  0.917500  0.669500  0.877810  1.0
  C  C2494  1  0.582500  0.830500  0.877810  1.0
  C  C2495  1  0.669500  0.582500  0.877810  1.0
  C  C2496  1  0.830500  0.917500  0.877810  1.0
  C  C2497  1  0.581900  0.618100  0.380790  1.0
  C  C2498  1  0.918100  0.881900  0.380790  1.0
  C  C2499  1  0.881900  0.581900  0.380790  1.0
  C  C2500  1  0.618100  0.918100  0.380790  1.0
  C  C2501  1  0.081900  0.381900  0.119210  1.0
  C  C2502  1  0.418100  0.118100  0.119210  1.0
  C  C2503  1  0.381900  0.418100  0.119210  1.0
  C  C2504  1  0.118100  0.081900  0.119210  1.0
  C  C2505  1  0.418100  0.381900  0.619210  1.0
  C  C2506  1  0.081900  0.118100  0.619210  1.0
  C  C2507  1  0.118100  0.418100  0.619210  1.0
  C  C2508  1  0.381900  0.081900  0.619210  1.0
  C  C2509  1  0.918100  0.618100  0.880790  1.0
  C  C2510  1  0.581900  0.881900  0.880790  1.0
  C  C2511  1  0.618100  0.581900  0.880790  1.0
  C  C2512  1  0.881900  0.918100  0.880790  1.0
  C  C2513  1  0.560100  0.598300  0.397730  1.0
  C  C2514  1  0.939900  0.901700  0.397730  1.0
  C  C2515  1  0.901700  0.560100  0.397730  1.0
  C  C2516  1  0.598300  0.939900  0.397730  1.0
  C  C2517  1  0.060100  0.401700  0.102270  1.0
  C  C2518  1  0.439900  0.098300  0.102270  1.0
  C  C2519  1  0.401700  0.439900  0.102270  1.0
  C  C2520  1  0.098300  0.060100  0.102270  1.0
  C  C2521  1  0.439900  0.401700  0.602270  1.0
  C  C2522  1  0.060100  0.098300  0.602270  1.0
  C  C2523  1  0.098300  0.439900  0.602270  1.0
  C  C2524  1  0.401700  0.060100  0.602270  1.0
  C  C2525  1  0.939900  0.598300  0.897730  1.0
  C  C2526  1  0.560100  0.901700  0.897730  1.0
  C  C2527  1  0.598300  0.560100  0.897730  1.0
  C  C2528  1  0.901700  0.939900  0.897730  1.0
  C  C2529  1  0.531600  0.721200  0.422490  1.0
  C  C2530  1  0.968400  0.778800  0.422490  1.0
  C  C2531  1  0.778800  0.531600  0.422490  1.0
  C  C2532  1  0.721200  0.968400  0.422490  1.0
  C  C2533  1  0.031600  0.278800  0.077510  1.0
  C  C2534  1  0.468400  0.221200  0.077510  1.0
  C  C2535  1  0.278800  0.468400  0.077510  1.0
  C  C2536  1  0.221200  0.031600  0.077510  1.0
  C  C2537  1  0.468400  0.278800  0.577510  1.0
  C  C2538  1  0.031600  0.221200  0.577510  1.0
  C  C2539  1  0.221200  0.468400  0.577510  1.0
  C  C2540  1  0.278800  0.031600  0.577510  1.0
  C  C2541  1  0.968400  0.721200  0.922490  1.0
  C  C2542  1  0.531600  0.778800  0.922490  1.0
  C  C2543  1  0.721200  0.531600  0.922490  1.0
  C  C2544  1  0.778800  0.968400  0.922490  1.0
  C  C2545  1  0.541000  0.773100  0.420800  1.0
  C  C2546  1  0.959000  0.726900  0.420800  1.0
  C  C2547  1  0.726900  0.541000  0.420800  1.0
  C  C2548  1  0.773100  0.959000  0.420800  1.0
  C  C2549  1  0.041000  0.226900  0.079200  1.0
  C  C2550  1  0.459000  0.273100  0.079200  1.0
  C  C2551  1  0.226900  0.459000  0.079200  1.0
  C  C2552  1  0.273100  0.041000  0.079200  1.0
  C  C2553  1  0.459000  0.226900  0.579200  1.0
  C  C2554  1  0.041000  0.273100  0.579200  1.0
  C  C2555  1  0.273100  0.459000  0.579200  1.0
  C  C2556  1  0.226900  0.041000  0.579200  1.0
  C  C2557  1  0.959000  0.773100  0.920800  1.0
  C  C2558  1  0.541000  0.726900  0.920800  1.0
  C  C2559  1  0.773100  0.541000  0.920800  1.0
  C  C2560  1  0.726900  0.959000  0.920800  1.0
  C  C2561  1  0.557200  0.789900  0.402530  1.0
  C  C2562  1  0.942800  0.710100  0.402530  1.0
  C  C2563  1  0.710100  0.557200  0.402530  1.0
  C  C2564  1  0.789900  0.942800  0.402530  1.0
  C  C2565  1  0.057200  0.210100  0.097470  1.0
  C  C2566  1  0.442800  0.289900  0.097470  1.0
  C  C2567  1  0.210100  0.442800  0.097470  1.0
  C  C2568  1  0.289900  0.057200  0.097470  1.0
  C  C2569  1  0.442800  0.210100  0.597470  1.0
  C  C2570  1  0.057200  0.289900  0.597470  1.0
  C  C2571  1  0.289900  0.442800  0.597470  1.0
  C  C2572  1  0.210100  0.057200  0.597470  1.0
  C  C2573  1  0.942800  0.789900  0.902530  1.0
  C  C2574  1  0.557200  0.710100  0.902530  1.0
  C  C2575  1  0.789900  0.557200  0.902530  1.0
  C  C2576  1  0.710100  0.942800  0.902530  1.0
  C  C2577  1  0.573200  0.758000  0.389720  1.0
  C  C2578  1  0.926800  0.742000  0.389720  1.0
  C  C2579  1  0.742000  0.573200  0.389720  1.0
  C  C2580  1  0.758000  0.926800  0.389720  1.0
  C  C2581  1  0.073200  0.242000  0.110280  1.0
  C  C2582  1  0.426800  0.258000  0.110280  1.0
  C  C2583  1  0.242000  0.426800  0.110280  1.0
  C  C2584  1  0.258000  0.073200  0.110280  1.0
  C  C2585  1  0.426800  0.242000  0.610280  1.0
  C  C2586  1  0.073200  0.258000  0.610280  1.0
  C  C2587  1  0.258000  0.426800  0.610280  1.0
  C  C2588  1  0.242000  0.073200  0.610280  1.0
  C  C2589  1  0.926800  0.758000  0.889720  1.0
  C  C2590  1  0.573200  0.742000  0.889720  1.0
  C  C2591  1  0.758000  0.573200  0.889720  1.0
  C  C2592  1  0.742000  0.926800  0.889720  1.0
  C  C2593  1  0.561500  0.543100  0.399970  1.0
  C  C2594  1  0.938500  0.956900  0.399970  1.0
  C  C2595  1  0.956900  0.561500  0.399970  1.0
  C  C2596  1  0.543100  0.938500  0.399970  1.0
  C  C2597  1  0.061500  0.456900  0.100030  1.0
  C  C2598  1  0.438500  0.043100  0.100030  1.0
  C  C2599  1  0.456900  0.438500  0.100030  1.0
  C  C2600  1  0.043100  0.061500  0.100030  1.0
  C  C2601  1  0.438500  0.456900  0.600030  1.0
  C  C2602  1  0.061500  0.043100  0.600030  1.0
  C  C2603  1  0.043100  0.438500  0.600030  1.0
  C  C2604  1  0.456900  0.061500  0.600030  1.0
  C  C2605  1  0.938500  0.543100  0.899970  1.0
  C  C2606  1  0.561500  0.956900  0.899970  1.0
  C  C2607  1  0.543100  0.561500  0.899970  1.0
  C  C2608  1  0.956900  0.938500  0.899970  1.0
  C  C2609  1  0.578500  0.511700  0.387440  1.0
  C  C2610  1  0.921500  0.988300  0.387440  1.0
  C  C2611  1  0.988300  0.578500  0.387440  1.0
  C  C2612  1  0.511700  0.921500  0.387440  1.0
  C  C2613  1  0.078500  0.488300  0.112560  1.0
  C  C2614  1  0.421500  0.011700  0.112560  1.0
  C  C2615  1  0.488300  0.421500  0.112560  1.0
  C  C2616  1  0.011700  0.078500  0.112560  1.0
  C  C2617  1  0.421500  0.488300  0.612560  1.0
  C  C2618  1  0.078500  0.011700  0.612560  1.0
  C  C2619  1  0.011700  0.421500  0.612560  1.0
  C  C2620  1  0.488300  0.078500  0.612560  1.0
  C  C2621  1  0.921500  0.511700  0.887440  1.0
  C  C2622  1  0.578500  0.988300  0.887440  1.0
  C  C2623  1  0.511700  0.578500  0.887440  1.0
  C  C2624  1  0.988300  0.921500  0.887440  1.0
  C  C2625  1  0.597900  0.532300  0.370530  1.0
  C  C2626  1  0.902100  0.967700  0.370530  1.0
  C  C2627  1  0.967700  0.597900  0.370530  1.0
  C  C2628  1  0.532300  0.902100  0.370530  1.0
  C  C2629  1  0.097900  0.467700  0.129470  1.0
  C  C2630  1  0.402100  0.032300  0.129470  1.0
  C  C2631  1  0.467700  0.402100  0.129470  1.0
  C  C2632  1  0.032300  0.097900  0.129470  1.0
  C  C2633  1  0.402100  0.467700  0.629470  1.0
  C  C2634  1  0.097900  0.032300  0.629470  1.0
  C  C2635  1  0.032300  0.402100  0.629470  1.0
  C  C2636  1  0.467700  0.097900  0.629470  1.0
  C  C2637  1  0.902100  0.532300  0.870530  1.0
  C  C2638  1  0.597900  0.967700  0.870530  1.0
  C  C2639  1  0.532300  0.597900  0.870530  1.0
  C  C2640  1  0.967700  0.902100  0.870530  1.0
  C  C2641  1  0.599400  0.582100  0.367740  1.0
  C  C2642  1  0.900600  0.917900  0.367740  1.0
  C  C2643  1  0.917900  0.599400  0.367740  1.0
  C  C2644  1  0.582100  0.900600  0.367740  1.0
  C  C2645  1  0.099400  0.417900  0.132260  1.0
  C  C2646  1  0.400600  0.082100  0.132260  1.0
  C  C2647  1  0.417900  0.400600  0.132260  1.0
  C  C2648  1  0.082100  0.099400  0.132260  1.0
  C  C2649  1  0.400600  0.417900  0.632260  1.0
  C  C2650  1  0.099400  0.082100  0.632260  1.0
  C  C2651  1  0.082100  0.400600  0.632260  1.0
  C  C2652  1  0.417900  0.099400  0.632260  1.0
  C  C2653  1  0.900600  0.582100  0.867740  1.0
  C  C2654  1  0.599400  0.917900  0.867740  1.0
  C  C2655  1  0.582100  0.599400  0.867740  1.0
  C  C2656  1  0.917900  0.900600  0.867740  1.0
  C  C2657  1  0.428500  0.519600  0.480800  1.0
  C  C2658  1  0.071500  0.980400  0.480800  1.0
  C  C2659  1  0.980400  0.428500  0.480800  1.0
  C  C2660  1  0.519600  0.071500  0.480800  1.0
  C  C2661  1  0.928500  0.480400  0.019200  1.0
  C  C2662  1  0.571500  0.019600  0.019200  1.0
  C  C2663  1  0.480400  0.571500  0.019200  1.0
  C  C2664  1  0.019600  0.928500  0.019200  1.0
  C  C2665  1  0.571500  0.480400  0.519200  1.0
  C  C2666  1  0.928500  0.019600  0.519200  1.0
  C  C2667  1  0.019600  0.571500  0.519200  1.0
  C  C2668  1  0.480400  0.928500  0.519200  1.0
  C  C2669  1  0.071500  0.519600  0.980800  1.0
  C  C2670  1  0.428500  0.980400  0.980800  1.0
  C  C2671  1  0.519600  0.428500  0.980800  1.0
  C  C2672  1  0.980400  0.071500  0.980800  1.0
  C  C2673  1  0.386000  0.559700  0.481300  1.0
  C  C2674  1  0.114000  0.940300  0.481300  1.0
  C  C2675  1  0.940300  0.386000  0.481300  1.0
  C  C2676  1  0.559700  0.114000  0.481300  1.0
  C  C2677  1  0.886000  0.440300  0.018700  1.0
  C  C2678  1  0.614000  0.059700  0.018700  1.0
  C  C2679  1  0.440300  0.614000  0.018700  1.0
  C  C2680  1  0.059700  0.886000  0.018700  1.0
  C  C2681  1  0.614000  0.440300  0.518700  1.0
  C  C2682  1  0.886000  0.059700  0.518700  1.0
  C  C2683  1  0.059700  0.614000  0.518700  1.0
  C  C2684  1  0.440300  0.886000  0.518700  1.0
  C  C2685  1  0.114000  0.559700  0.981300  1.0
  C  C2686  1  0.386000  0.940300  0.981300  1.0
  C  C2687  1  0.559700  0.386000  0.981300  1.0
  C  C2688  1  0.940300  0.114000  0.981300  1.0
  C  C2689  1  0.435700  0.563000  0.512000  1.0
  C  C2690  1  0.064300  0.937000  0.512000  1.0
  C  C2691  1  0.937000  0.435700  0.512000  1.0
  C  C2692  1  0.563000  0.064300  0.512000  1.0
  C  C2693  1  0.935700  0.437000  0.988000  1.0
  C  C2694  1  0.564300  0.063000  0.988000  1.0
  C  C2695  1  0.437000  0.564300  0.988000  1.0
  C  C2696  1  0.063000  0.935700  0.988000  1.0
  C  C2697  1  0.564300  0.437000  0.488000  1.0
  C  C2698  1  0.935700  0.063000  0.488000  1.0
  C  C2699  1  0.063000  0.564300  0.488000  1.0
  C  C2700  1  0.437000  0.935700  0.488000  1.0
  C  C2701  1  0.064300  0.563000  0.012000  1.0
  C  C2702  1  0.435700  0.937000  0.012000  1.0
  C  C2703  1  0.563000  0.435700  0.012000  1.0
  C  C2704  1  0.937000  0.064300  0.012000  1.0
  C  C2705  1  0.401400  0.555900  0.412300  1.0
  C  C2706  1  0.098600  0.944100  0.412300  1.0
  C  C2707  1  0.944100  0.401400  0.412300  1.0
  C  C2708  1  0.555900  0.098600  0.412300  1.0
  C  C2709  1  0.901400  0.444100  0.087700  1.0
  C  C2710  1  0.598600  0.055900  0.087700  1.0
  C  C2711  1  0.444100  0.598600  0.087700  1.0
  C  C2712  1  0.055900  0.901400  0.087700  1.0
  C  C2713  1  0.598600  0.444100  0.587700  1.0
  C  C2714  1  0.901400  0.055900  0.587700  1.0
  C  C2715  1  0.055900  0.598600  0.587700  1.0
  C  C2716  1  0.444100  0.901400  0.587700  1.0
  C  C2717  1  0.098600  0.555900  0.912300  1.0
  C  C2718  1  0.401400  0.944100  0.912300  1.0
  C  C2719  1  0.555900  0.401400  0.912300  1.0
  C  C2720  1  0.944100  0.098600  0.912300  1.0
  C  C2721  1  0.394100  0.544800  0.390600  1.0
  C  C2722  1  0.105900  0.955200  0.390600  1.0
  C  C2723  1  0.955200  0.394100  0.390600  1.0
  C  C2724  1  0.544800  0.105900  0.390600  1.0
  C  C2725  1  0.894100  0.455200  0.109400  1.0
  C  C2726  1  0.605900  0.044800  0.109400  1.0
  C  C2727  1  0.455200  0.605900  0.109400  1.0
  C  C2728  1  0.044800  0.894100  0.109400  1.0
  C  C2729  1  0.605900  0.455200  0.609400  1.0
  C  C2730  1  0.894100  0.044800  0.609400  1.0
  C  C2731  1  0.044800  0.605900  0.609400  1.0
  C  C2732  1  0.455200  0.894100  0.609400  1.0
  C  C2733  1  0.105900  0.544800  0.890600  1.0
  C  C2734  1  0.394100  0.955200  0.890600  1.0
  C  C2735  1  0.544800  0.394100  0.890600  1.0
  C  C2736  1  0.955200  0.105900  0.890600  1.0
  C  C2737  1  0.339000  0.592800  0.364700  1.0
  C  C2738  1  0.161000  0.907200  0.364700  1.0
  C  C2739  1  0.907200  0.339000  0.364700  1.0
  C  C2740  1  0.592800  0.161000  0.364700  1.0
  C  C2741  1  0.839000  0.407200  0.135300  1.0
  C  C2742  1  0.661000  0.092800  0.135300  1.0
  C  C2743  1  0.407200  0.661000  0.135300  1.0
  C  C2744  1  0.092800  0.839000  0.135300  1.0
  C  C2745  1  0.661000  0.407200  0.635300  1.0
  C  C2746  1  0.839000  0.092800  0.635300  1.0
  C  C2747  1  0.092800  0.661000  0.635300  1.0
  C  C2748  1  0.407200  0.839000  0.635300  1.0
  C  C2749  1  0.161000  0.592800  0.864700  1.0
  C  C2750  1  0.339000  0.907200  0.864700  1.0
  C  C2751  1  0.592800  0.339000  0.864700  1.0
  C  C2752  1  0.907200  0.161000  0.864700  1.0
  C  C2753  1  0.651510  0.728920  0.329300  1.0
  C  C2754  1  0.848490  0.771080  0.329300  1.0
  C  C2755  1  0.771080  0.651510  0.329300  1.0
  C  C2756  1  0.728920  0.848490  0.329300  1.0
  C  C2757  1  0.151510  0.271080  0.170700  1.0
  C  C2758  1  0.348490  0.228920  0.170700  1.0
  C  C2759  1  0.271080  0.348490  0.170700  1.0
  C  C2760  1  0.228920  0.151510  0.170700  1.0
  C  C2761  1  0.348490  0.271080  0.670700  1.0
  C  C2762  1  0.151510  0.228920  0.670700  1.0
  C  C2763  1  0.228920  0.348490  0.670700  1.0
  C  C2764  1  0.271080  0.151510  0.670700  1.0
  C  C2765  1  0.848490  0.728920  0.829300  1.0
  C  C2766  1  0.651510  0.771080  0.829300  1.0
  C  C2767  1  0.728920  0.651510  0.829300  1.0
  C  C2768  1  0.771080  0.848490  0.829300  1.0
  C  C2769  1  0.602670  0.713660  0.328230  1.0
  C  C2770  1  0.897330  0.786340  0.328230  1.0
  C  C2771  1  0.786340  0.602670  0.328230  1.0
  C  C2772  1  0.713660  0.897330  0.328230  1.0
  C  C2773  1  0.102670  0.286340  0.171770  1.0
  C  C2774  1  0.397330  0.213660  0.171770  1.0
  C  C2775  1  0.286340  0.397330  0.171770  1.0
  C  C2776  1  0.213660  0.102670  0.171770  1.0
  C  C2777  1  0.397330  0.286340  0.671770  1.0
  C  C2778  1  0.102670  0.213660  0.671770  1.0
  C  C2779  1  0.213660  0.397330  0.671770  1.0
  C  C2780  1  0.286340  0.102670  0.671770  1.0
  C  C2781  1  0.897330  0.713660  0.828230  1.0
  C  C2782  1  0.602670  0.786340  0.828230  1.0
  C  C2783  1  0.713660  0.602670  0.828230  1.0
  C  C2784  1  0.786340  0.897330  0.828230  1.0
  C  C2785  1  0.579440  0.693600  0.343990  1.0
  C  C2786  1  0.920560  0.806400  0.343990  1.0
  C  C2787  1  0.806400  0.579440  0.343990  1.0
  C  C2788  1  0.693600  0.920560  0.343990  1.0
  C  C2789  1  0.079440  0.306400  0.156010  1.0
  C  C2790  1  0.420560  0.193600  0.156010  1.0
  C  C2791  1  0.306400  0.420560  0.156010  1.0
  C  C2792  1  0.193600  0.079440  0.156010  1.0
  C  C2793  1  0.420560  0.306400  0.656010  1.0
  C  C2794  1  0.079440  0.193600  0.656010  1.0
  C  C2795  1  0.193600  0.420560  0.656010  1.0
  C  C2796  1  0.306400  0.079440  0.656010  1.0
  C  C2797  1  0.920560  0.693600  0.843990  1.0
  C  C2798  1  0.579440  0.806400  0.843990  1.0
  C  C2799  1  0.693600  0.579440  0.843990  1.0
  C  C2800  1  0.806400  0.920560  0.843990  1.0
  C  C2801  1  0.606230  0.690600  0.360440  1.0
  C  C2802  1  0.893770  0.809400  0.360440  1.0
  C  C2803  1  0.809400  0.606230  0.360440  1.0
  C  C2804  1  0.690600  0.893770  0.360440  1.0
  C  C2805  1  0.106230  0.309400  0.139560  1.0
  C  C2806  1  0.393770  0.190600  0.139560  1.0
  C  C2807  1  0.309400  0.393770  0.139560  1.0
  C  C2808  1  0.190600  0.106230  0.139560  1.0
  C  C2809  1  0.393770  0.309400  0.639560  1.0
  C  C2810  1  0.106230  0.190600  0.639560  1.0
  C  C2811  1  0.190600  0.393770  0.639560  1.0
  C  C2812  1  0.309400  0.106230  0.639560  1.0
  C  C2813  1  0.893770  0.690600  0.860440  1.0
  C  C2814  1  0.606230  0.809400  0.860440  1.0
  C  C2815  1  0.690600  0.606230  0.860440  1.0
  C  C2816  1  0.809400  0.893770  0.860440  1.0
  C  C2817  1  0.655730  0.706670  0.360730  1.0
  C  C2818  1  0.844270  0.793330  0.360730  1.0
  C  C2819  1  0.793330  0.655730  0.360730  1.0
  C  C2820  1  0.706670  0.844270  0.360730  1.0
  C  C2821  1  0.155730  0.293330  0.139270  1.0
  C  C2822  1  0.344270  0.206670  0.139270  1.0
  C  C2823  1  0.293330  0.344270  0.139270  1.0
  C  C2824  1  0.206670  0.155730  0.139270  1.0
  C  C2825  1  0.344270  0.293330  0.639270  1.0
  C  C2826  1  0.155730  0.206670  0.639270  1.0
  C  C2827  1  0.206670  0.344270  0.639270  1.0
  C  C2828  1  0.293330  0.155730  0.639270  1.0
  C  C2829  1  0.844270  0.706670  0.860730  1.0
  C  C2830  1  0.655730  0.793330  0.860730  1.0
  C  C2831  1  0.706670  0.655730  0.860730  1.0
  C  C2832  1  0.793330  0.844270  0.860730  1.0
  N  N2833  1  0.687220  0.793050  0.144140  1.0
  N  N2834  1  0.812780  0.706950  0.144140  1.0
  N  N2835  1  0.706950  0.687220  0.144140  1.0
  N  N2836  1  0.793050  0.812780  0.144140  1.0
  N  N2837  1  0.187220  0.206950  0.355860  1.0
  N  N2838  1  0.312780  0.293050  0.355860  1.0
  N  N2839  1  0.206950  0.312780  0.355860  1.0
  N  N2840  1  0.293050  0.187220  0.355860  1.0
  N  N2841  1  0.312780  0.206950  0.855860  1.0
  N  N2842  1  0.187220  0.293050  0.855860  1.0
  N  N2843  1  0.293050  0.312780  0.855860  1.0
  N  N2844  1  0.206950  0.187220  0.855860  1.0
  N  N2845  1  0.812780  0.793050  0.644140  1.0
  N  N2846  1  0.687220  0.706950  0.644140  1.0
  N  N2847  1  0.793050  0.687220  0.644140  1.0
  N  N2848  1  0.706950  0.812780  0.644140  1.0
  N  N2849  1  0.717100  0.697300  0.541690  1.0
  N  N2850  1  0.782900  0.802700  0.541690  1.0
  N  N2851  1  0.802700  0.717100  0.541690  1.0
  N  N2852  1  0.697300  0.782900  0.541690  1.0
  N  N2853  1  0.217100  0.302700  0.958310  1.0
  N  N2854  1  0.282900  0.197300  0.958310  1.0
  N  N2855  1  0.302700  0.282900  0.958310  1.0
  N  N2856  1  0.197300  0.217100  0.958310  1.0
  N  N2857  1  0.282900  0.302700  0.458310  1.0
  N  N2858  1  0.217100  0.197300  0.458310  1.0
  N  N2859  1  0.197300  0.282900  0.458310  1.0
  N  N2860  1  0.302700  0.217100  0.458310  1.0
  N  N2861  1  0.782900  0.697300  0.041690  1.0
  N  N2862  1  0.717100  0.802700  0.041690  1.0
  N  N2863  1  0.697300  0.717100  0.041690  1.0
  N  N2864  1  0.802700  0.782900  0.041690  1.0
  N  N2865  1  0.677710  0.725140  0.345670  1.0
  N  N2866  1  0.822290  0.774860  0.345670  1.0
  N  N2867  1  0.774860  0.677710  0.345670  1.0
  N  N2868  1  0.725140  0.822290  0.345670  1.0
  N  N2869  1  0.177710  0.274860  0.154330  1.0
  N  N2870  1  0.322290  0.225140  0.154330  1.0
  N  N2871  1  0.274860  0.322290  0.154330  1.0
  N  N2872  1  0.225140  0.177710  0.154330  1.0
  N  N2873  1  0.322290  0.274860  0.654330  1.0
  N  N2874  1  0.177710  0.225140  0.654330  1.0
  N  N2875  1  0.225140  0.322290  0.654330  1.0
  N  N2876  1  0.274860  0.177710  0.654330  1.0
  N  N2877  1  0.822290  0.725140  0.845670  1.0
  N  N2878  1  0.677710  0.774860  0.845670  1.0
  N  N2879  1  0.725140  0.677710  0.845670  1.0
  N  N2880  1  0.774860  0.822290  0.845670  1.0
  O  O2881  1  0.299600  0.755900  0.183900  1
  O  O2882  1  0.200400  0.744100  0.183900  1
  O  O2883  1  0.744100  0.299600  0.183900  1
  O  O2884  1  0.755900  0.200400  0.183900  1
  O  O2885  1  0.799600  0.244100  0.316100  1
  O  O2886  1  0.700400  0.255900  0.316100  1
  O  O2887  1  0.244100  0.700400  0.316100  1
  O  O2888  1  0.255900  0.799600  0.316100  1
  O  O2889  1  0.700400  0.244100  0.816100  1
  O  O2890  1  0.799600  0.255900  0.816100  1
  O  O2891  1  0.255900  0.700400  0.816100  1
  O  O2892  1  0.244100  0.799600  0.816100  1
  O  O2893  1  0.200400  0.755900  0.683900  1
  O  O2894  1  0.299600  0.744100  0.683900  1
  O  O2895  1  0.755900  0.299600  0.683900  1
  O  O2896  1  0.744100  0.200400  0.683900  1
  O  O2897  1  0.412590  0.769070  0.210040  1.0
  O  O2898  1  0.087410  0.730930  0.210040  1.0
  O  O2899  1  0.730930  0.412590  0.210040  1.0
  O  O2900  1  0.769070  0.087410  0.210040  1.0
  O  O2901  1  0.912590  0.230930  0.289960  1.0
  O  O2902  1  0.587410  0.269070  0.289960  1.0
  O  O2903  1  0.230930  0.587410  0.289960  1.0
  O  O2904  1  0.269070  0.912590  0.289960  1.0
  O  O2905  1  0.587410  0.230930  0.789960  1.0
  O  O2906  1  0.912590  0.269070  0.789960  1.0
  O  O2907  1  0.269070  0.587410  0.789960  1.0
  O  O2908  1  0.230930  0.912590  0.789960  1.0
  O  O2909  1  0.087410  0.769070  0.710040  1.0
  O  O2910  1  0.412590  0.730930  0.710040  1.0
  O  O2911  1  0.769070  0.412590  0.710040  1.0
  O  O2912  1  0.730930  0.087410  0.710040  1.0
  O  O2913  1  0.339300  0.831700  0.190420  1.0
  O  O2914  1  0.160700  0.668300  0.190420  1.0
  O  O2915  1  0.668300  0.339300  0.190420  1.0
  O  O2916  1  0.831700  0.160700  0.190420  1.0
  O  O2917  1  0.839300  0.168300  0.309580  1.0
  O  O2918  1  0.660700  0.331700  0.309580  1.0
  O  O2919  1  0.168300  0.660700  0.309580  1.0
  O  O2920  1  0.331700  0.839300  0.309580  1.0
  O  O2921  1  0.660700  0.168300  0.809580  1.0
  O  O2922  1  0.839300  0.331700  0.809580  1.0
  O  O2923  1  0.331700  0.660700  0.809580  1.0
  O  O2924  1  0.168300  0.839300  0.809580  1.0
  O  O2925  1  0.160700  0.831700  0.690420  1.0
  O  O2926  1  0.339300  0.668300  0.690420  1.0
  O  O2927  1  0.831700  0.339300  0.690420  1.0
  O  O2928  1  0.668300  0.160700  0.690420  1.0
  O  O2929  1  0.422890  0.713980  0.274370  1.0
  O  O2930  1  0.077110  0.786020  0.274370  1.0
  O  O2931  1  0.786020  0.422890  0.274370  1.0
  O  O2932  1  0.713980  0.077110  0.274370  1.0
  O  O2933  1  0.922890  0.286020  0.225630  1.0
  O  O2934  1  0.577110  0.213980  0.225630  1.0
  O  O2935  1  0.286020  0.577110  0.225630  1.0
  O  O2936  1  0.213980  0.922890  0.225630  1.0
  O  O2937  1  0.577110  0.286020  0.725630  1.0
  O  O2938  1  0.922890  0.213980  0.725630  1.0
  O  O2939  1  0.213980  0.577110  0.725630  1.0
  O  O2940  1  0.286020  0.922890  0.725630  1.0
  O  O2941  1  0.077110  0.713980  0.774370  1.0
  O  O2942  1  0.422890  0.786020  0.774370  1.0
  O  O2943  1  0.713980  0.422890  0.774370  1.0
  O  O2944  1  0.786020  0.077110  0.774370  1.0
  O  O2945  1  0.362460  0.661790  0.302160  1.0
  O  O2946  1  0.137540  0.838210  0.302160  1.0
  O  O2947  1  0.838210  0.362460  0.302160  1.0
  O  O2948  1  0.661790  0.137540  0.302160  1.0
  O  O2949  1  0.862460  0.338210  0.197840  1.0
  O  O2950  1  0.637540  0.161790  0.197840  1.0
  O  O2951  1  0.338210  0.637540  0.197840  1.0
  O  O2952  1  0.161790  0.862460  0.197840  1.0
  O  O2953  1  0.637540  0.338210  0.697840  1.0
  O  O2954  1  0.862460  0.161790  0.697840  1.0
  O  O2955  1  0.161790  0.637540  0.697840  1.0
  O  O2956  1  0.338210  0.862460  0.697840  1.0
  O  O2957  1  0.137540  0.661790  0.802160  1.0
  O  O2958  1  0.362460  0.838210  0.802160  1.0
  O  O2959  1  0.661790  0.362460  0.802160  1.0
  O  O2960  1  0.838210  0.137540  0.802160  1.0
  O  O2961  1  0.473600  0.548100  0.479250  1.0
  O  O2962  1  0.026400  0.951900  0.479250  1.0
  O  O2963  1  0.951900  0.473600  0.479250  1.0
  O  O2964  1  0.548100  0.026400  0.479250  1.0
  O  O2965  1  0.973600  0.451900  0.020750  1.0
  O  O2966  1  0.526400  0.048100  0.020750  1.0
  O  O2967  1  0.451900  0.526400  0.020750  1.0
  O  O2968  1  0.048100  0.973600  0.020750  1.0
  O  O2969  1  0.526400  0.451900  0.520750  1.0
  O  O2970  1  0.973600  0.048100  0.520750  1.0
  O  O2971  1  0.048100  0.526400  0.520750  1.0
  O  O2972  1  0.451900  0.973600  0.520750  1.0
  O  O2973  1  0.026400  0.548100  0.979250  1.0
  O  O2974  1  0.473600  0.951900  0.979250  1.0
  O  O2975  1  0.548100  0.473600  0.979250  1.0
  O  O2976  1  0.951900  0.026400  0.979250  1.0
  O  O2977  1  0.390800  0.581500  0.500100  1.0
  O  O2978  1  0.109200  0.918500  0.500100  1.0
  O  O2979  1  0.918500  0.390800  0.500100  1.0
  O  O2980  1  0.581500  0.109200  0.500100  1.0
  O  O2981  1  0.890800  0.418500  0.999900  1.0
  O  O2982  1  0.609200  0.081500  0.999900  1.0
  O  O2983  1  0.418500  0.609200  0.999900  1.0
  O  O2984  1  0.081500  0.890800  0.999900  1.0
  O  O2985  1  0.609200  0.418500  0.499900  1.0
  O  O2986  1  0.890800  0.081500  0.499900  1.0
  O  O2987  1  0.081500  0.609200  0.499900  1.0
  O  O2988  1  0.418500  0.890800  0.499900  1.0
  O  O2989  1  0.109200  0.581500  0.000100  1.0
  O  O2990  1  0.390800  0.918500  0.000100  1.0
  O  O2991  1  0.581500  0.390800  0.000100  1.0
  O  O2992  1  0.918500  0.109200  0.000100  1.0
  O  O2993  1  0.442200  0.592200  0.412720  1.0
  O  O2994  1  0.057800  0.907800  0.412720  1.0
  O  O2995  1  0.907800  0.442200  0.412720  1.0
  O  O2996  1  0.592200  0.057800  0.412720  1.0
  O  O2997  1  0.942200  0.407800  0.087280  1.0
  O  O2998  1  0.557800  0.092200  0.087280  1.0
  O  O2999  1  0.407800  0.557800  0.087280  1.0
  O  O3000  1  0.092200  0.942200  0.087280  1.0
  O  O3001  1  0.557800  0.407800  0.587280  1.0
  O  O3002  1  0.942200  0.092200  0.587280  1.0
  O  O3003  1  0.092200  0.557800  0.587280  1.0
  O  O3004  1  0.407800  0.942200  0.587280  1.0
  O  O3005  1  0.057800  0.592200  0.912720  1.0
  O  O3006  1  0.442200  0.907800  0.912720  1.0
  O  O3007  1  0.592200  0.442200  0.912720  1.0
  O  O3008  1  0.907800  0.057800  0.912720  1.0
  O  O3009  1  0.366700  0.586900  0.383800  1.0
  O  O3010  1  0.133300  0.913100  0.383800  1.0
  O  O3011  1  0.913100  0.366700  0.383800  1.0
  O  O3012  1  0.586900  0.133300  0.383800  1.0
  O  O3013  1  0.866700  0.413100  0.116200  1.0
  O  O3014  1  0.633300  0.086900  0.116200  1.0
  O  O3015  1  0.413100  0.633300  0.116200  1.0
  O  O3016  1  0.086900  0.866700  0.116200  1.0
  O  O3017  1  0.633300  0.413100  0.616200  1.0
  O  O3018  1  0.866700  0.086900  0.616200  1.0
  O  O3019  1  0.086900  0.633300  0.616200  1.0
  O  O3020  1  0.413100  0.866700  0.616200  1.0
  O  O3021  1  0.133300  0.586900  0.883800  1.0
  O  O3022  1  0.366700  0.913100  0.883800  1.0
  O  O3023  1  0.586900  0.366700  0.883800  1.0
  O  O3024  1  0.913100  0.133300  0.883800  1.0
  F  F3025  1  0.251700  0.744300  0.273840  1
  F  F3026  1  0.248300  0.755700  0.273840  1
  F  F3027  1  0.755700  0.251700  0.273840  1
  F  F3028  1  0.744300  0.248300  0.273840  1
  F  F3029  1  0.751700  0.255700  0.226160  1
  F  F3030  1  0.748300  0.244300  0.226160  1
  F  F3031  1  0.255700  0.748300  0.226160  1
  F  F3032  1  0.244300  0.751700  0.226160  1
  F  F3033  1  0.748300  0.255700  0.726160  1
  F  F3034  1  0.751700  0.244300  0.726160  1
  F  F3035  1  0.244300  0.748300  0.726160  1
  F  F3036  1  0.255700  0.751700  0.726160  1
  F  F3037  1  0.248300  0.744300  0.773840  1
  F  F3038  1  0.251700  0.755700  0.773840  1
  F  F3039  1  0.744300  0.251700  0.773840  1
  F  F3040  1  0.755700  0.248300  0.773840  1
  F  F3041  1  0.282600  0.714800  0.252300  1
  F  F3042  1  0.217400  0.785200  0.252300  1
  F  F3043  1  0.785200  0.282600  0.252300  1
  F  F3044  1  0.714800  0.217400  0.252300  1
  F  F3045  1  0.782600  0.285200  0.247700  1
  F  F3046  1  0.717400  0.214800  0.247700  1
  F  F3047  1  0.285200  0.717400  0.247700  1
  F  F3048  1  0.214800  0.782600  0.247700  1
  F  F3049  1  0.717400  0.285200  0.747700  1
  F  F3050  1  0.782600  0.214800  0.747700  1
  F  F3051  1  0.214800  0.717400  0.747700  1
  F  F3052  1  0.285200  0.782600  0.747700  1
  F  F3053  1  0.217400  0.714800  0.752300  1
  F  F3054  1  0.282600  0.785200  0.752300  1
  F  F3055  1  0.714800  0.282600  0.752300  1
  F  F3056  1  0.785200  0.217400  0.752300  1
  F  F3057  1  0.292500  0.794900  0.251500  1
  F  F3058  1  0.207500  0.705100  0.251500  1
  F  F3059  1  0.705100  0.292500  0.251500  1
  F  F3060  1  0.794900  0.207500  0.251500  1
  F  F3061  1  0.792500  0.205100  0.248500  1
  F  F3062  1  0.707500  0.294900  0.248500  1
  F  F3063  1  0.205100  0.707500  0.248500  1
  F  F3064  1  0.294900  0.792500  0.248500  1
  F  F3065  1  0.707500  0.205100  0.748500  1
  F  F3066  1  0.792500  0.294900  0.748500  1
  F  F3067  1  0.294900  0.707500  0.748500  1
  F  F3068  1  0.205100  0.792500  0.748500  1
  F  F3069  1  0.207500  0.794900  0.751500  1
  F  F3070  1  0.292500  0.705100  0.751500  1
  F  F3071  1  0.794900  0.292500  0.751500  1
  F  F3072  1  0.705100  0.207500  0.751500  1
  F  F3073  1  0.211600  0.758300  0.242000  1.0
  F  F3074  1  0.288400  0.741700  0.242000  1.0
  F  F3075  1  0.741700  0.211600  0.242000  1.0
  F  F3076  1  0.758300  0.288400  0.242000  1.0
  F  F3077  1  0.711600  0.241700  0.258000  1.0
  F  F3078  1  0.788400  0.258300  0.258000  1.0
  F  F3079  1  0.241700  0.788400  0.258000  1.0
  F  F3080  1  0.258300  0.711600  0.258000  1.0
  F  F3081  1  0.788400  0.241700  0.758000  1.0
  F  F3082  1  0.711600  0.258300  0.758000  1.0
  F  F3083  1  0.258300  0.788400  0.758000  1.0
  F  F3084  1  0.241700  0.711600  0.758000  1.0
  F  F3085  1  0.288400  0.758300  0.742000  1.0
  F  F3086  1  0.211600  0.741700  0.742000  1.0
  F  F3087  1  0.758300  0.211600  0.742000  1.0
  F  F3088  1  0.741700  0.288400  0.742000  1.0
