# generated using pymatgen
data_Fe4B7H237C360(N5F6)6
_symmetry_space_group_name_H-M   'P 1'
_cell_length_a   25.58920000
_cell_length_b   30.14000000
_cell_length_c   42.24380000
_cell_angle_alpha   101.89500000
_cell_angle_beta   90.00000000
_cell_angle_gamma   90.00000000
_symmetry_Int_Tables_number   1
_chemical_formula_structural   Fe4B7H237C360(N5F6)6
_chemical_formula_sum   'Fe16 B28 H948 C1440 N120 F144'
_cell_volume   31881.27909996
_cell_formula_units_Z   4
loop_
 _symmetry_equiv_pos_site_id
 _symmetry_equiv_pos_as_xyz
  1  'x, y, z'
loop_
 _atom_site_type_symbol
 _atom_site_label
 _atom_site_symmetry_multiplicity
 _atom_site_fract_x
 _atom_site_fract_y
 _atom_site_fract_z
 _atom_site_occupancy
  Fe  Fe1  1  0.790410  0.603820  0.567280  1
  Fe  Fe2  1  0.790410  0.896180  0.932720  1
  Fe  Fe3  1  0.209590  0.396180  0.432720  1
  Fe  Fe4  1  0.209590  0.103820  0.067280  1
  Fe  Fe5  1  0.808830  0.994620  0.720790  1
  Fe  Fe6  1  0.808830  0.505380  0.779210  1
  Fe  Fe7  1  0.191170  0.005380  0.279210  1
  Fe  Fe8  1  0.191170  0.494620  0.220790  1
  Fe  Fe9  1  0.101190  0.217630  0.561470  1
  Fe  Fe10  1  0.101190  0.282370  0.938530  1
  Fe  Fe11  1  0.898810  0.782370  0.438530  1
  Fe  Fe12  1  0.898810  0.717630  0.061470  1
  Fe  Fe13  1  0.701400  0.004470  0.230940  1
  Fe  Fe14  1  0.701400  0.495530  0.269060  1
  Fe  Fe15  1  0.298600  0.995530  0.769060  1
  Fe  Fe16  1  0.298600  0.504470  0.730940  1
  B  B17  1  0.210300  0.422800  0.612500  1
  B  B18  1  0.210300  0.077200  0.887500  1
  B  B19  1  0.789700  0.577200  0.387500  1
  B  B20  1  0.789700  0.922800  0.112500  1
  B  B21  1  0.857100  0.781600  0.589700  1
  B  B22  1  0.857100  0.718400  0.910300  1
  B  B23  1  0.142900  0.218400  0.410300  1
  B  B24  1  0.142900  0.281600  0.089700  1
  B  B25  1  0.034700  0.030300  0.682600  1
  B  B26  1  0.034700  0.469700  0.817400  1
  B  B27  1  0.965300  0.969700  0.317400  1
  B  B28  1  0.965300  0.530300  0.182600  1
  B  B29  1  0.094500  0.288300  0.693700  1
  B  B30  1  0.094500  0.211700  0.806300  1
  B  B31  1  0.905500  0.711700  0.306300  1
  B  B32  1  0.905500  0.788300  0.193700  1
  B  B33  1  0.943300  0.466500  0.616000  1
  B  B34  1  0.943300  0.033500  0.884000  1
  B  B35  1  0.056700  0.533500  0.384000  1
  B  B36  1  0.056700  0.966500  0.116000  1
  B  B37  1  0.419000  0.940500  0.224200  1
  B  B38  1  0.419000  0.559500  0.275800  1
  B  B39  1  0.581000  0.059500  0.775800  1
  B  B40  1  0.581000  0.440500  0.724200  1
  B  B41  1  0.427700  0.942200  0.215500  1
  B  B42  1  0.427700  0.557800  0.284500  1
  B  B43  1  0.572300  0.057800  0.784500  1
  B  B44  1  0.572300  0.442200  0.715500  1
  H  H45  1  0.891000  0.660700  0.558100  1
  H  H46  1  0.891000  0.839300  0.941900  1
  H  H47  1  0.109000  0.339300  0.441900  1
  H  H48  1  0.109000  0.160700  0.058100  1
  H  H49  1  0.945900  0.665100  0.515700  1
  H  H50  1  0.945900  0.834900  0.984300  1
  H  H51  1  0.054100  0.334900  0.484300  1
  H  H52  1  0.054100  0.165100  0.015700  1
  H  H53  1  0.927100  0.622800  0.464300  1
  H  H54  1  0.927100  0.877200  0.035700  1
  H  H55  1  0.072900  0.377200  0.535700  1
  H  H56  1  0.072900  0.122800  0.964300  1
  H  H57  1  0.849000  0.580900  0.455900  1
  H  H58  1  0.849000  0.919100  0.044100  1
  H  H59  1  0.151000  0.419100  0.544100  1
  H  H60  1  0.151000  0.080900  0.955900  1
  H  H61  1  0.762400  0.558000  0.480700  1
  H  H62  1  0.762400  0.942000  0.019300  1
  H  H63  1  0.237600  0.442000  0.519300  1
  H  H64  1  0.237600  0.058000  0.980700  1
  H  H65  1  0.656900  0.601100  0.548400  1
  H  H66  1  0.656900  0.898900  0.951600  1
  H  H67  1  0.343100  0.398900  0.451600  1
  H  H68  1  0.343100  0.101100  0.048400  1
  H  H69  1  0.579100  0.561300  0.544300  1
  H  H70  1  0.579100  0.938700  0.955700  1
  H  H71  1  0.420900  0.438700  0.455700  1
  H  H72  1  0.420900  0.061300  0.044300  1
  H  H73  1  0.654800  0.448600  0.498900  1
  H  H74  1  0.654800  0.051400  0.001100  1
  H  H75  1  0.345200  0.551400  0.501100  1
  H  H76  1  0.345200  0.948600  0.998900  1
  H  H77  1  0.731200  0.489800  0.499700  1
  H  H78  1  0.731200  0.010200  0.000300  1
  H  H79  1  0.268800  0.510200  0.500300  1
  H  H80  1  0.268800  0.989800  0.999700  1
  H  H81  1  0.578900  0.420600  0.484300  1
  H  H82  1  0.578900  0.079400  0.015700  1
  H  H83  1  0.421100  0.579400  0.515700  1
  H  H84  1  0.421100  0.920600  0.984300  1
  H  H85  1  0.505200  0.378500  0.484700  1
  H  H86  1  0.505200  0.121500  0.015300  1
  H  H87  1  0.494800  0.621500  0.515300  1
  H  H88  1  0.494800  0.878500  0.984700  1
  H  H89  1  0.520600  0.516600  0.555800  1
  H  H90  1  0.520600  0.983400  0.944200  1
  H  H91  1  0.479400  0.483400  0.444200  1
  H  H92  1  0.479400  0.016600  0.055800  1
  H  H93  1  0.439600  0.337800  0.487000  1
  H  H94  1  0.439600  0.162200  0.013000  1
  H  H95  1  0.560400  0.662200  0.513000  1
  H  H96  1  0.560400  0.837800  0.987000  1
  H  H97  1  0.366000  0.295400  0.488400  1
  H  H98  1  0.366000  0.204600  0.011600  1
  H  H99  1  0.634000  0.704600  0.511600  1
  H  H100  1  0.634000  0.795400  0.988400  1
  H  H101  1  0.304800  0.393700  0.557700  1
  H  H102  1  0.304800  0.106300  0.942300  1
  H  H103  1  0.695200  0.606300  0.442300  1
  H  H104  1  0.695200  0.893700  0.057700  1
  H  H105  1  0.303300  0.461900  0.577700  1
  H  H106  1  0.303300  0.038100  0.922300  1
  H  H107  1  0.696700  0.538100  0.422300  1
  H  H108  1  0.696700  0.961900  0.077700  1
  H  H109  1  0.309300  0.534700  0.607500  1
  H  H110  1  0.309300  0.965300  0.892500  1
  H  H111  1  0.690700  0.465300  0.392500  1
  H  H112  1  0.690700  0.034700  0.107500  1
  H  H113  1  0.385300  0.576600  0.608000  1
  H  H114  1  0.385300  0.923400  0.892000  1
  H  H115  1  0.614700  0.423400  0.392000  1
  H  H116  1  0.614700  0.076600  0.108000  1
  H  H117  1  0.457500  0.545700  0.578700  1
  H  H118  1  0.457500  0.954300  0.921300  1
  H  H119  1  0.542500  0.454300  0.421300  1
  H  H120  1  0.542500  0.045700  0.078700  1
  H  H121  1  0.306500  0.250600  0.500500  1
  H  H122  1  0.306500  0.249400  0.999500  1
  H  H123  1  0.693500  0.749400  0.499500  1
  H  H124  1  0.693500  0.750600  0.000500  1
  H  H125  1  0.229000  0.210500  0.499500  1
  H  H126  1  0.229000  0.289500  0.000500  1
  H  H127  1  0.771000  0.789500  0.500500  1
  H  H128  1  0.771000  0.710500  0.999500  1
  H  H129  1  0.159300  0.322000  0.551800  1
  H  H130  1  0.159300  0.178000  0.948200  1
  H  H131  1  0.840700  0.678000  0.448200  1
  H  H132  1  0.840700  0.822000  0.051800  1
  H  H133  1  0.236200  0.361900  0.551800  1
  H  H134  1  0.236200  0.138100  0.948200  1
  H  H135  1  0.763800  0.638100  0.448200  1
  H  H136  1  0.763800  0.861900  0.051800  1
  H  H137  1  0.121700  0.243600  0.480700  1
  H  H138  1  0.121700  0.256400  0.019300  1
  H  H139  1  0.878300  0.756400  0.519300  1
  H  H140  1  0.878300  0.743600  0.980700  1
  H  H141  1  0.038100  0.205500  0.452300  1
  H  H142  1  0.038100  0.294500  0.047700  1
  H  H143  1  0.961900  0.794500  0.547700  1
  H  H144  1  0.961900  0.705500  0.952300  1
  H  H145  1  0.959900  0.165900  0.456400  1
  H  H146  1  0.959900  0.334100  0.043600  1
  H  H147  1  0.040100  0.834100  0.543600  1
  H  H148  1  0.040100  0.665900  0.956400  1
  H  H149  1  0.938300  0.148700  0.506800  1
  H  H150  1  0.938300  0.351300  0.993200  1
  H  H151  1  0.061700  0.851300  0.493200  1
  H  H152  1  0.061700  0.648700  0.006800  1
  H  H153  1  0.995700  0.167600  0.549700  1
  H  H154  1  0.995700  0.332400  0.950300  1
  H  H155  1  0.004300  0.832400  0.450300  1
  H  H156  1  0.004300  0.667600  0.049700  1
  H  H157  1  0.803700  0.902200  0.744400  1
  H  H158  1  0.803700  0.597800  0.755600  1
  H  H159  1  0.196300  0.097800  0.255600  1
  H  H160  1  0.196300  0.402200  0.244400  1
  H  H161  1  0.751800  0.872000  0.779000  1
  H  H162  1  0.751800  0.628000  0.721000  1
  H  H163  1  0.248200  0.128000  0.221000  1
  H  H164  1  0.248200  0.372000  0.279000  1
  H  H165  1  0.687100  0.916700  0.809100  1
  H  H166  1  0.687100  0.583300  0.690900  1
  H  H167  1  0.312900  0.083300  0.190900  1
  H  H168  1  0.312900  0.416700  0.309100  1
  H  H169  1  0.676800  0.992300  0.802900  1
  H  H170  1  0.676800  0.507700  0.697100  1
  H  H171  1  0.323200  0.007700  0.197100  1
  H  H172  1  0.323200  0.492300  0.302900  1
  H  H173  1  0.704800  0.055900  0.773600  1
  H  H174  1  0.704800  0.444100  0.726400  1
  H  H175  1  0.295200  0.944100  0.226400  1
  H  H176  1  0.295200  0.555900  0.273600  1
  H  H177  1  0.685600  0.078600  0.711400  1
  H  H178  1  0.685600  0.421400  0.788600  1
  H  H179  1  0.314400  0.921400  0.288600  1
  H  H180  1  0.314400  0.578600  0.211400  1
  H  H181  1  0.679900  0.149500  0.697700  1
  H  H182  1  0.679900  0.350500  0.802300  1
  H  H183  1  0.320100  0.850500  0.302300  1
  H  H184  1  0.320100  0.649500  0.197700  1
  H  H185  1  0.820100  0.183300  0.739500  1
  H  H186  1  0.820100  0.316700  0.760500  1
  H  H187  1  0.179900  0.816700  0.260500  1
  H  H188  1  0.179900  0.683300  0.239500  1
  H  H189  1  0.825000  0.113500  0.754000  1
  H  H190  1  0.825000  0.386500  0.746000  1
  H  H191  1  0.175000  0.886500  0.246000  1
  H  H192  1  0.175000  0.613500  0.254000  1
  H  H193  1  0.670400  0.230200  0.712700  1
  H  H194  1  0.670400  0.269800  0.787300  1
  H  H195  1  0.329600  0.769800  0.287300  1
  H  H196  1  0.329600  0.730200  0.212700  1
  H  H197  1  0.666300  0.295900  0.693700  1
  H  H198  1  0.666300  0.204100  0.806300  1
  H  H199  1  0.333700  0.704100  0.306300  1
  H  H200  1  0.333700  0.795900  0.193700  1
  H  H201  1  0.825600  0.223000  0.698900  1
  H  H202  1  0.825600  0.277000  0.801100  1
  H  H203  1  0.174400  0.777000  0.301100  1
  H  H204  1  0.174400  0.723000  0.198900  1
  H  H205  1  0.664400  0.355000  0.676300  1
  H  H206  1  0.664400  0.145000  0.823700  1
  H  H207  1  0.335600  0.645000  0.323700  1
  H  H208  1  0.335600  0.855000  0.176300  1
  H  H209  1  0.662300  0.420000  0.655800  1
  H  H210  1  0.662300  0.080000  0.844200  1
  H  H211  1  0.337700  0.580000  0.344200  1
  H  H212  1  0.337700  0.920000  0.155800  1
  H  H213  1  0.818300  0.415300  0.644800  1
  H  H214  1  0.818300  0.084700  0.855200  1
  H  H215  1  0.181700  0.584700  0.355200  1
  H  H216  1  0.181700  0.915300  0.144800  1
  H  H217  1  0.887800  0.383000  0.647000  1
  H  H218  1  0.887800  0.117000  0.853000  1
  H  H219  1  0.112200  0.617000  0.353000  1
  H  H220  1  0.112200  0.883000  0.147000  1
  H  H221  1  0.966200  0.350200  0.654400  1
  H  H222  1  0.966200  0.149800  0.845600  1
  H  H223  1  0.033800  0.649800  0.345600  1
  H  H224  1  0.033800  0.850200  0.154400  1
  H  H225  1  0.969900  0.285500  0.677000  1
  H  H226  1  0.969900  0.214500  0.823000  1
  H  H227  1  0.030100  0.714500  0.323000  1
  H  H228  1  0.030100  0.785500  0.177000  1
  H  H229  1  0.893500  0.254100  0.691200  1
  H  H230  1  0.893500  0.245900  0.808800  1
  H  H231  1  0.106500  0.745900  0.308800  1
  H  H232  1  0.106500  0.754100  0.191200  1
  H  H233  1  0.668300  0.458800  0.614000  1
  H  H234  1  0.668300  0.041200  0.886000  1
  H  H235  1  0.331700  0.541200  0.386000  1
  H  H236  1  0.331700  0.958800  0.114000  1
  H  H237  1  0.668800  0.524700  0.593400  1
  H  H238  1  0.668800  0.975300  0.906600  1
  H  H239  1  0.331200  0.475300  0.406600  1
  H  H240  1  0.331200  0.024700  0.093400  1
  H  H241  1  0.809200  0.558300  0.635200  1
  H  H242  1  0.809200  0.941700  0.864800  1
  H  H243  1  0.190800  0.441700  0.364800  1
  H  H244  1  0.190800  0.058300  0.135200  1
  H  H245  1  0.810200  0.491300  0.654000  1
  H  H246  1  0.810200  0.008700  0.846000  1
  H  H247  1  0.189800  0.508700  0.346000  1
  H  H248  1  0.189800  0.991300  0.154000  1
  H  H249  1  0.679200  0.614400  0.624300  1
  H  H250  1  0.679200  0.885600  0.875700  1
  H  H251  1  0.320800  0.385600  0.375700  1
  H  H252  1  0.320800  0.114400  0.124300  1
  H  H253  1  0.642300  0.691900  0.617500  1
  H  H254  1  0.642300  0.808100  0.882500  1
  H  H255  1  0.357700  0.308100  0.382500  1
  H  H256  1  0.357700  0.191900  0.117500  1
  H  H257  1  0.653500  0.756900  0.594600  1
  H  H258  1  0.653500  0.743100  0.905400  1
  H  H259  1  0.346500  0.243100  0.405400  1
  H  H260  1  0.346500  0.256900  0.094600  1
  H  H261  1  0.722300  0.757500  0.558600  1
  H  H262  1  0.722300  0.742500  0.941400  1
  H  H263  1  0.277700  0.242500  0.441400  1
  H  H264  1  0.277700  0.257500  0.058600  1
  H  H265  1  0.778100  0.696500  0.545600  1
  H  H266  1  0.778100  0.803500  0.954400  1
  H  H267  1  0.221900  0.303500  0.454400  1
  H  H268  1  0.221900  0.196500  0.045600  1
  H  H269  1  0.916000  0.950300  0.730400  1
  H  H270  1  0.916000  0.549700  0.769600  1
  H  H271  1  0.084000  0.049700  0.269600  1
  H  H272  1  0.084000  0.450300  0.230400  1
  H  H273  1  0.963200  0.888400  0.702900  1
  H  H274  1  0.963200  0.611600  0.797100  1
  H  H275  1  0.036800  0.111600  0.297100  1
  H  H276  1  0.036800  0.388400  0.202900  1
  H  H277  1  0.924400  0.839800  0.659100  1
  H  H278  1  0.924400  0.660200  0.840900  1
  H  H279  1  0.075600  0.160200  0.340900  1
  H  H280  1  0.075600  0.339800  0.159100  1
  H  H281  1  0.838500  0.853700  0.644000  1
  H  H282  1  0.838500  0.646300  0.856000  1
  H  H283  1  0.161500  0.146300  0.356000  1
  H  H284  1  0.161500  0.353700  0.144000  1
  H  H285  1  0.757900  0.907300  0.653100  1
  H  H286  1  0.757900  0.592700  0.846900  1
  H  H287  1  0.242100  0.092700  0.346900  1
  H  H288  1  0.242100  0.407300  0.153100  1
  H  H289  1  0.671700  0.972100  0.718400  1
  H  H290  1  0.671700  0.527900  0.781600  1
  H  H291  1  0.328300  0.027900  0.281600  1
  H  H292  1  0.328300  0.472100  0.218400  1
  H  H293  1  0.593000  0.002300  0.706000  1
  H  H294  1  0.593000  0.497700  0.794000  1
  H  H295  1  0.407000  0.997700  0.294000  1
  H  H296  1  0.407000  0.502300  0.206000  1
  H  H297  1  0.655100  0.022400  0.622000  1
  H  H298  1  0.655100  0.477600  0.878000  1
  H  H299  1  0.344900  0.977600  0.378000  1
  H  H300  1  0.344900  0.522400  0.122000  1
  H  H301  1  0.732200  0.988600  0.633300  1
  H  H302  1  0.732200  0.511400  0.866700  1
  H  H303  1  0.267800  0.011400  0.366700  1
  H  H304  1  0.267800  0.488600  0.133300  1
  H  H305  1  0.573500  0.026400  0.607400  1
  H  H306  1  0.573500  0.473600  0.892600  1
  H  H307  1  0.426500  0.973600  0.392600  1
  H  H308  1  0.426500  0.526400  0.107400  1
  H  H309  1  0.500000  0.064100  0.597000  1
  H  H310  1  0.500000  0.435900  0.903000  1
  H  H311  1  0.500000  0.935900  0.403000  1
  H  H312  1  0.500000  0.564100  0.097000  1
  H  H313  1  0.548700  0.065700  0.703400  1
  H  H314  1  0.548700  0.434300  0.796600  1
  H  H315  1  0.451300  0.934300  0.296600  1
  H  H316  1  0.451300  0.565700  0.203400  1
  H  H317  1  0.442300  0.108800  0.588700  1
  H  H318  1  0.442300  0.391200  0.911300  1
  H  H319  1  0.557700  0.891200  0.411300  1
  H  H320  1  0.557700  0.608800  0.088700  1
  H  H321  1  0.368400  0.146700  0.579400  1
  H  H322  1  0.368400  0.353300  0.920600  1
  H  H323  1  0.631600  0.853300  0.420600  1
  H  H324  1  0.631600  0.646700  0.079400  1
  H  H325  1  0.329500  0.168800  0.673600  1
  H  H326  1  0.329500  0.331200  0.826400  1
  H  H327  1  0.670500  0.831200  0.326400  1
  H  H328  1  0.670500  0.668800  0.173600  1
  H  H329  1  0.351200  0.171500  0.719000  1
  H  H330  1  0.351200  0.328500  0.781000  1
  H  H331  1  0.648800  0.828500  0.281000  1
  H  H332  1  0.648800  0.671500  0.219000  1
  H  H333  1  0.379200  0.176200  0.771700  1
  H  H334  1  0.379200  0.323800  0.728300  1
  H  H335  1  0.620800  0.823800  0.228300  1
  H  H336  1  0.620800  0.676200  0.271700  1
  H  H337  1  0.458400  0.144200  0.781700  1
  H  H338  1  0.458400  0.355800  0.718300  1
  H  H339  1  0.541600  0.855800  0.218300  1
  H  H340  1  0.541600  0.644200  0.281700  1
  H  H341  1  0.508600  0.104500  0.740200  1
  H  H342  1  0.508600  0.395500  0.759800  1
  H  H343  1  0.491400  0.895500  0.259800  1
  H  H344  1  0.491400  0.604500  0.240200  1
  H  H345  1  0.324600  0.222300  0.588800  1
  H  H346  1  0.324600  0.277700  0.911200  1
  H  H347  1  0.675400  0.777700  0.411200  1
  H  H348  1  0.675400  0.722300  0.088800  1
  H  H349  1  0.248100  0.255700  0.576000  1
  H  H350  1  0.248100  0.244300  0.924000  1
  H  H351  1  0.751900  0.744300  0.424000  1
  H  H352  1  0.751900  0.755700  0.076000  1
  H  H353  1  0.166400  0.187400  0.632700  1
  H  H354  1  0.166400  0.312600  0.867300  1
  H  H355  1  0.833600  0.812600  0.367300  1
  H  H356  1  0.833600  0.687400  0.132700  1
  H  H357  1  0.243200  0.153100  0.644900  1
  H  H358  1  0.243200  0.346900  0.855100  1
  H  H359  1  0.756800  0.846900  0.355100  1
  H  H360  1  0.756800  0.653100  0.144900  1
  H  H361  1  0.164300  0.301700  0.625300  1
  H  H362  1  0.164300  0.198300  0.874700  1
  H  H363  1  0.835700  0.698300  0.374700  1
  H  H364  1  0.835700  0.801700  0.125300  1
  H  H365  1  0.098700  0.368400  0.629200  1
  H  H366  1  0.098700  0.131600  0.870800  1
  H  H367  1  0.901300  0.631600  0.370800  1
  H  H368  1  0.901300  0.868400  0.129200  1
  H  H369  1  0.020300  0.395000  0.611200  1
  H  H370  1  0.020300  0.105000  0.888800  1
  H  H371  1  0.979700  0.605000  0.388800  1
  H  H372  1  0.979700  0.895000  0.111200  1
  H  H373  1  0.973000  0.348400  0.569900  1
  H  H374  1  0.973000  0.151600  0.930100  1
  H  H375  1  0.027000  0.651600  0.430100  1
  H  H376  1  0.027000  0.848400  0.069900  1
  H  H377  1  0.004400  0.276300  0.548300  1
  H  H378  1  0.004400  0.223700  0.951700  1
  H  H379  1  0.995600  0.723700  0.451700  1
  H  H380  1  0.995600  0.776300  0.048300  1
  H  H381  1  0.014200  0.240100  0.614700  1
  H  H382  1  0.014200  0.259900  0.885300  1
  H  H383  1  0.985800  0.759900  0.385300  1
  H  H384  1  0.985800  0.740100  0.114700  1
  H  H385  1  0.977800  0.203500  0.652800  1
  H  H386  1  0.977800  0.296500  0.847200  1
  H  H387  1  0.022200  0.796500  0.347200  1
  H  H388  1  0.022200  0.703500  0.152800  1
  H  H389  1  0.007300  0.131000  0.655600  1
  H  H390  1  0.007300  0.369000  0.844400  1
  H  H391  1  0.992700  0.869000  0.344400  1
  H  H392  1  0.992700  0.631000  0.155600  1
  H  H393  1  0.071400  0.096300  0.619000  1
  H  H394  1  0.071400  0.403700  0.881000  1
  H  H395  1  0.928600  0.903700  0.381000  1
  H  H396  1  0.928600  0.596300  0.119000  1
  H  H397  1  0.131600  0.101300  0.570300  1
  H  H398  1  0.131600  0.398700  0.929700  1
  H  H399  1  0.868400  0.898700  0.429700  1
  H  H400  1  0.868400  0.601300  0.070300  1
  H  H401  1  0.847600  0.998100  0.790000  1
  H  H402  1  0.847600  0.501900  0.710000  1
  H  H403  1  0.152400  0.001900  0.210000  1
  H  H404  1  0.152400  0.498100  0.290000  1
  H  H405  1  0.917700  0.030200  0.821300  1
  H  H406  1  0.917700  0.469800  0.678700  1
  H  H407  1  0.082300  0.969800  0.178700  1
  H  H408  1  0.082300  0.530200  0.321300  1
  H  H409  1  0.979800  0.072900  0.798900  1
  H  H410  1  0.979800  0.427100  0.701100  1
  H  H411  1  0.020200  0.927100  0.201100  1
  H  H412  1  0.020200  0.572900  0.298900  1
  H  H413  1  0.965700  0.084400  0.745900  1
  H  H414  1  0.965700  0.415600  0.754100  1
  H  H415  1  0.034300  0.915600  0.254100  1
  H  H416  1  0.034300  0.584400  0.245900  1
  H  H417  1  0.908900  0.066300  0.693000  1
  H  H418  1  0.908900  0.433700  0.807000  1
  H  H419  1  0.091100  0.933700  0.307000  1
  H  H420  1  0.091100  0.566300  0.193000  1
  H  H421  1  0.812400  0.691300  0.619400  1
  H  H422  1  0.812400  0.808700  0.880600  1
  H  H423  1  0.187600  0.308700  0.380600  1
  H  H424  1  0.187600  0.191300  0.119400  1
  H  H425  1  0.880700  0.718600  0.654000  1
  H  H426  1  0.880700  0.781400  0.846000  1
  H  H427  1  0.119300  0.281400  0.346000  1
  H  H428  1  0.119300  0.218600  0.154000  1
  H  H429  1  0.951900  0.671500  0.657500  1
  H  H430  1  0.951900  0.828500  0.842500  1
  H  H431  1  0.048100  0.328500  0.342500  1
  H  H432  1  0.048100  0.171500  0.157500  1
  H  H433  1  0.952600  0.596900  0.626100  1
  H  H434  1  0.952600  0.903100  0.873900  1
  H  H435  1  0.047400  0.403100  0.373900  1
  H  H436  1  0.047400  0.096900  0.126100  1
  H  H437  1  0.906600  0.537000  0.581500  1
  H  H438  1  0.906600  0.963000  0.918500  1
  H  H439  1  0.093400  0.463000  0.418500  1
  H  H440  1  0.093400  0.037000  0.081500  1
  H  H441  1  0.226600  0.129600  0.556900  1
  H  H442  1  0.226600  0.370400  0.943100  1
  H  H443  1  0.773400  0.870400  0.443100  1
  H  H444  1  0.773400  0.629600  0.056900  1
  H  H445  1  0.290600  0.111300  0.517200  1
  H  H446  1  0.290600  0.388700  0.982800  1
  H  H447  1  0.709400  0.888700  0.482800  1
  H  H448  1  0.709400  0.611300  0.017200  1
  H  H449  1  0.182000  0.116900  0.448600  1
  H  H450  1  0.182000  0.383100  0.051400  1
  H  H451  1  0.818000  0.883100  0.551400  1
  H  H452  1  0.818000  0.616900  0.948600  1
  H  H453  1  0.118600  0.137800  0.488600  1
  H  H454  1  0.118600  0.362200  0.011400  1
  H  H455  1  0.881400  0.862200  0.511400  1
  H  H456  1  0.881400  0.637800  0.988600  1
  H  H457  1  0.332600  0.067200  0.474600  1
  H  H458  1  0.332600  0.432800  0.025400  1
  H  H459  1  0.667400  0.932800  0.525400  1
  H  H460  1  0.667400  0.567200  0.974600  1
  H  H461  1  0.400800  0.063200  0.439300  1
  H  H462  1  0.400800  0.436800  0.060700  1
  H  H463  1  0.599200  0.936800  0.560700  1
  H  H464  1  0.599200  0.563200  0.939300  1
  H  H465  1  0.250600  0.142600  0.423800  1
  H  H466  1  0.250600  0.357400  0.076200  1
  H  H467  1  0.749400  0.857400  0.576200  1
  H  H468  1  0.749400  0.642600  0.923800  1
  H  H469  1  0.467900  0.069800  0.410900  1
  H  H470  1  0.467900  0.430200  0.089100  1
  H  H471  1  0.532100  0.930200  0.589100  1
  H  H472  1  0.532100  0.569800  0.910900  1
  H  H473  1  0.533400  0.062900  0.373500  1
  H  H474  1  0.533400  0.437100  0.126500  1
  H  H475  1  0.466600  0.937100  0.626500  1
  H  H476  1  0.466600  0.562900  0.873500  1
  H  H477  1  0.440500  0.112400  0.312100  1
  H  H478  1  0.440500  0.387600  0.187900  1
  H  H479  1  0.559500  0.887600  0.687900  1
  H  H480  1  0.559500  0.612400  0.812100  1
  H  H481  1  0.371000  0.140300  0.303800  1
  H  H482  1  0.371000  0.359700  0.196200  1
  H  H483  1  0.629000  0.859700  0.696200  1
  H  H484  1  0.629000  0.640300  0.803800  1
  H  H485  1  0.296900  0.179300  0.296500  1
  H  H486  1  0.296900  0.320700  0.203500  1
  H  H487  1  0.703100  0.820700  0.703500  1
  H  H488  1  0.703100  0.679300  0.796500  1
  H  H489  1  0.235000  0.197900  0.338000  1
  H  H490  1  0.235000  0.302100  0.162000  1
  H  H491  1  0.765000  0.802100  0.662000  1
  H  H492  1  0.765000  0.697900  0.838000  1
  H  H493  1  0.246600  0.173400  0.385800  1
  H  H494  1  0.246600  0.326600  0.114200  1
  H  H495  1  0.753400  0.826600  0.614200  1
  H  H496  1  0.753400  0.673400  0.885800  1
  H  H497  1  0.594200  0.111200  0.343900  1
  H  H498  1  0.594200  0.388800  0.156100  1
  H  H499  1  0.405800  0.888800  0.656100  1
  H  H500  1  0.405800  0.611200  0.843900  1
  H  H501  1  0.661000  0.099400  0.305800  1
  H  H502  1  0.661000  0.400600  0.194200  1
  H  H503  1  0.339000  0.900600  0.694200  1
  H  H504  1  0.339000  0.599400  0.805800  1
  H  H505  1  0.559100  0.033800  0.238900  1
  H  H506  1  0.559100  0.466200  0.261100  1
  H  H507  1  0.440900  0.966200  0.761100  1
  H  H508  1  0.440900  0.533800  0.738900  1
  H  H509  1  0.492100  0.046800  0.276700  1
  H  H510  1  0.492100  0.453200  0.223300  1
  H  H511  1  0.507900  0.953200  0.723300  1
  H  H512  1  0.507900  0.546800  0.776700  1
  H  H513  1  0.655800  0.112500  0.232100  1
  H  H514  1  0.655800  0.387500  0.267900  1
  H  H515  1  0.344200  0.887500  0.767900  1
  H  H516  1  0.344200  0.612500  0.732100  1
  H  H517  1  0.713800  0.133500  0.188000  1
  H  H518  1  0.713800  0.366500  0.312000  1
  H  H519  1  0.286200  0.866500  0.812000  1
  H  H520  1  0.286200  0.633500  0.688000  1
  H  H521  1  0.779500  0.111400  0.149200  1
  H  H522  1  0.779500  0.388600  0.350800  1
  H  H523  1  0.220500  0.888600  0.850800  1
  H  H524  1  0.220500  0.611400  0.649200  1
  H  H525  1  0.818400  0.039900  0.143500  1
  H  H526  1  0.818400  0.460100  0.356500  1
  H  H527  1  0.181600  0.960100  0.856500  1
  H  H528  1  0.181600  0.539900  0.643500  1
  H  H529  1  0.789900  0.991600  0.176700  1
  H  H530  1  0.789900  0.508400  0.323300  1
  H  H531  1  0.210100  0.008400  0.823300  1
  H  H532  1  0.210100  0.491600  0.676700  1
  H  H533  1  0.784500  0.085400  0.666100  1
  H  H534  1  0.784500  0.414600  0.833900  1
  H  H535  1  0.215500  0.914600  0.333900  1
  H  H536  1  0.215500  0.585400  0.166100  1
  H  H537  1  0.760900  0.079300  0.612100  1
  H  H538  1  0.760900  0.420700  0.887900  1
  H  H539  1  0.239100  0.920700  0.387900  1
  H  H540  1  0.239100  0.579300  0.112100  1
  H  H541  1  0.839100  0.961100  0.588500  1
  H  H542  1  0.839100  0.538900  0.911500  1
  H  H543  1  0.160900  0.038900  0.411500  1
  H  H544  1  0.160900  0.461100  0.088500  1
  H  H545  1  0.859000  0.964900  0.642400  1
  H  H546  1  0.859000  0.535100  0.857600  1
  H  H547  1  0.141000  0.035100  0.357600  1
  H  H548  1  0.141000  0.464900  0.142400  1
  H  H549  1  0.709200  0.030600  0.567000  1
  H  H550  1  0.709200  0.469400  0.933000  1
  H  H551  1  0.290800  0.969400  0.433000  1
  H  H552  1  0.290800  0.530600  0.067000  1
  H  H553  1  0.683600  0.015600  0.513900  1
  H  H554  1  0.683600  0.484400  0.986100  1
  H  H555  1  0.316400  0.984400  0.486100  1
  H  H556  1  0.316400  0.515600  0.013900  1
  H  H557  1  0.858900  0.004200  0.540700  1
  H  H558  1  0.858900  0.495800  0.959300  1
  H  H559  1  0.141100  0.995800  0.459300  1
  H  H560  1  0.141100  0.504200  0.040700  1
  H  H561  1  0.660500  0.991600  0.467100  1
  H  H562  1  0.660500  0.508400  0.032900  1
  H  H563  1  0.339500  0.008400  0.532900  1
  H  H564  1  0.339500  0.491600  0.967100  1
  H  H565  1  0.634300  0.975400  0.413500  1
  H  H566  1  0.634300  0.524600  0.086500  1
  H  H567  1  0.365700  0.024600  0.586500  1
  H  H568  1  0.365700  0.475400  0.913500  1
  H  H569  1  0.783800  0.975300  0.384800  1
  H  H570  1  0.783800  0.524700  0.115200  1
  H  H571  1  0.216200  0.024700  0.615200  1
  H  H572  1  0.216200  0.475300  0.884800  1
  H  H573  1  0.861400  0.986300  0.396400  1
  H  H574  1  0.861400  0.513700  0.103600  1
  H  H575  1  0.138600  0.013700  0.603600  1
  H  H576  1  0.138600  0.486300  0.896400  1
  H  H577  1  0.947800  0.998400  0.409900  1
  H  H578  1  0.947800  0.501600  0.090100  1
  H  H579  1  0.052200  0.001600  0.590100  1
  H  H580  1  0.052200  0.498400  0.909900  1
  H  H581  1  0.974300  0.008200  0.463800  1
  H  H582  1  0.974300  0.491800  0.036200  1
  H  H583  1  0.025700  0.991800  0.536200  1
  H  H584  1  0.025700  0.508200  0.963800  1
  H  H585  1  0.914300  0.008000  0.503900  1
  H  H586  1  0.914300  0.492000  0.996100  1
  H  H587  1  0.085700  0.992000  0.496100  1
  H  H588  1  0.085700  0.508000  0.003900  1
  H  H589  1  0.754500  0.930200  0.339900  1
  H  H590  1  0.754500  0.569800  0.160100  1
  H  H591  1  0.245500  0.069800  0.660100  1
  H  H592  1  0.245500  0.430200  0.839900  1
  H  H593  1  0.734200  0.926000  0.285500  1
  H  H594  1  0.734200  0.574000  0.214500  1
  H  H595  1  0.265800  0.074000  0.714500  1
  H  H596  1  0.265800  0.426000  0.785500  1
  H  H597  1  0.599200  0.993300  0.312200  1
  H  H598  1  0.599200  0.506700  0.187800  1
  H  H599  1  0.400800  0.006700  0.687800  1
  H  H600  1  0.400800  0.493300  0.812200  1
  H  H601  1  0.620300  0.998100  0.366400  1
  H  H602  1  0.620300  0.501900  0.133600  1
  H  H603  1  0.379700  0.001900  0.633600  1
  H  H604  1  0.379700  0.498100  0.866400  1
  H  H605  1  0.588200  0.929400  0.257900  1
  H  H606  1  0.588200  0.570600  0.242100  1
  H  H607  1  0.411800  0.070600  0.742100  1
  H  H608  1  0.411800  0.429400  0.757900  1
  H  H609  1  0.535700  0.914000  0.204100  1
  H  H610  1  0.535700  0.586000  0.295900  1
  H  H611  1  0.464300  0.086000  0.795900  1
  H  H612  1  0.464300  0.414000  0.704100  1
  H  H613  1  0.526700  0.927200  0.151000  1
  H  H614  1  0.526700  0.572800  0.349000  1
  H  H615  1  0.473300  0.072800  0.849000  1
  H  H616  1  0.473300  0.427200  0.651000  1
  H  H617  1  0.589400  0.972000  0.131900  1
  H  H618  1  0.589400  0.528000  0.368100  1
  H  H619  1  0.410600  0.028000  0.868100  1
  H  H620  1  0.410600  0.472000  0.631900  1
  H  H621  1  0.661400  0.997900  0.163400  1
  H  H622  1  0.661400  0.502100  0.336600  1
  H  H623  1  0.338600  0.002100  0.836600  1
  H  H624  1  0.338600  0.497900  0.663400  1
  H  H625  1  0.890600  0.516900  0.509800  1
  H  H626  1  0.890600  0.983100  0.990200  1
  H  H627  1  0.109400  0.483100  0.490200  1
  H  H628  1  0.109400  0.016900  0.009800  1
  H  H629  1  0.879900  0.447300  0.474900  1
  H  H630  1  0.879900  0.052700  0.025100  1
  H  H631  1  0.120100  0.552700  0.525100  1
  H  H632  1  0.120100  0.947300  0.974900  1
  H  H633  1  0.894800  0.369600  0.462400  1
  H  H634  1  0.894800  0.130400  0.037600  1
  H  H635  1  0.105200  0.630400  0.537600  1
  H  H636  1  0.105200  0.869600  0.962400  1
  H  H637  1  0.779600  0.408700  0.537700  1
  H  H638  1  0.779600  0.091300  0.962300  1
  H  H639  1  0.220400  0.591300  0.462300  1
  H  H640  1  0.220400  0.908700  0.037700  1
  H  H641  1  0.790600  0.477700  0.572600  1
  H  H642  1  0.790600  0.022300  0.927400  1
  H  H643  1  0.209400  0.522300  0.427400  1
  H  H644  1  0.209400  0.977700  0.072600  1
  H  H645  1  0.746700  0.363000  0.492200  1
  H  H646  1  0.746700  0.137000  0.007800  1
  H  H647  1  0.253300  0.637000  0.507800  1
  H  H648  1  0.253300  0.863000  0.992200  1
  H  H649  1  0.733500  0.297900  0.453900  1
  H  H650  1  0.733500  0.202100  0.046100  1
  H  H651  1  0.266500  0.702100  0.546100  1
  H  H652  1  0.266500  0.797900  0.953900  1
  H  H653  1  0.722500  0.238400  0.419900  1
  H  H654  1  0.722500  0.261600  0.080100  1
  H  H655  1  0.277500  0.761600  0.580100  1
  H  H656  1  0.277500  0.738400  0.919900  1
  H  H657  1  0.710200  0.176300  0.378900  1
  H  H658  1  0.710200  0.323700  0.121100  1
  H  H659  1  0.289800  0.823700  0.621100  1
  H  H660  1  0.289800  0.676300  0.878900  1
  H  H661  1  0.862800  0.175900  0.355300  1
  H  H662  1  0.862800  0.324100  0.144700  1
  H  H663  1  0.137200  0.824100  0.644700  1
  H  H664  1  0.137200  0.675900  0.855300  1
  H  H665  1  0.936700  0.195500  0.368500  1
  H  H666  1  0.936700  0.304500  0.131500  1
  H  H667  1  0.063300  0.804500  0.631500  1
  H  H668  1  0.063300  0.695500  0.868500  1
  H  H669  1  0.018700  0.227200  0.378700  1
  H  H670  1  0.018700  0.272800  0.121300  1
  H  H671  1  0.981300  0.772800  0.621300  1
  H  H672  1  0.981300  0.727200  0.878700  1
  H  H673  1  0.030000  0.293400  0.416400  1
  H  H674  1  0.030000  0.206600  0.083600  1
  H  H675  1  0.970000  0.706600  0.583600  1
  H  H676  1  0.970000  0.793400  0.916400  1
  H  H677  1  0.961200  0.333700  0.441900  1
  H  H678  1  0.961200  0.166300  0.058100  1
  H  H679  1  0.038800  0.666300  0.558100  1
  H  H680  1  0.038800  0.833700  0.941900  1
  H  H681  1  0.795900  0.159800  0.297200  1
  H  H682  1  0.795900  0.340200  0.202800  1
  H  H683  1  0.204100  0.840200  0.702800  1
  H  H684  1  0.204100  0.659800  0.797200  1
  H  H685  1  0.788500  0.093600  0.257200  1
  H  H686  1  0.788500  0.406400  0.242800  1
  H  H687  1  0.211500  0.906400  0.742800  1
  H  H688  1  0.211500  0.593600  0.757200  1
  H  H689  1  0.738400  0.025300  0.324400  1
  H  H690  1  0.738400  0.474700  0.175600  1
  H  H691  1  0.261600  0.974700  0.675600  1
  H  H692  1  0.261600  0.525300  0.824400  1
  H  H693  1  0.752800  0.089800  0.364900  1
  H  H694  1  0.752800  0.410200  0.135100  1
  H  H695  1  0.247200  0.910200  0.635100  1
  H  H696  1  0.247200  0.589800  0.864900  1
  H  H697  1  0.829100  0.987700  0.269500  1
  H  H698  1  0.829100  0.512300  0.230500  1
  H  H699  1  0.170900  0.012300  0.730500  1
  H  H700  1  0.170900  0.487700  0.769500  1
  H  H701  1  0.854500  0.908300  0.236000  1
  H  H702  1  0.854500  0.591700  0.264000  1
  H  H703  1  0.145500  0.091700  0.764000  1
  H  H704  1  0.145500  0.408300  0.736000  1
  H  H705  1  0.831500  0.844600  0.196100  1
  H  H706  1  0.831500  0.655400  0.303900  1
  H  H707  1  0.168500  0.155400  0.803900  1
  H  H708  1  0.168500  0.344600  0.696100  1
  H  H709  1  0.748500  0.842300  0.172500  1
  H  H710  1  0.748500  0.657700  0.327500  1
  H  H711  1  0.251500  0.157700  0.827500  1
  H  H712  1  0.251500  0.342300  0.672500  1
  H  H713  1  0.693900  0.904300  0.186200  1
  H  H714  1  0.693900  0.595700  0.313800  1
  H  H715  1  0.306100  0.095700  0.813800  1
  H  H716  1  0.306100  0.404300  0.686200  1
  H  H717  1  0.776100  0.478900  0.569100  1
  H  H718  1  0.776100  0.021100  0.930900  1
  H  H719  1  0.223900  0.521100  0.430900  1
  H  H720  1  0.223900  0.978900  0.069100  1
  H  H721  1  0.764600  0.413500  0.529400  1
  H  H722  1  0.764600  0.086500  0.970600  1
  H  H723  1  0.235400  0.586500  0.470600  1
  H  H724  1  0.235400  0.913500  0.029400  1
  H  H725  1  0.860900  0.464100  0.469600  1
  H  H726  1  0.860900  0.035900  0.030400  1
  H  H727  1  0.139100  0.535900  0.530400  1
  H  H728  1  0.139100  0.964100  0.969600  1
  H  H729  1  0.875900  0.528100  0.510100  1
  H  H730  1  0.875900  0.971900  0.989900  1
  H  H731  1  0.124100  0.471900  0.489900  1
  H  H732  1  0.124100  0.028100  0.010100  1
  H  H733  1  0.725300  0.385000  0.485600  1
  H  H734  1  0.725300  0.115000  0.014400  1
  H  H735  1  0.274700  0.615000  0.514400  1
  H  H736  1  0.274700  0.885000  0.985600  1
  H  H737  1  0.696600  0.331100  0.442600  1
  H  H738  1  0.696600  0.168900  0.057400  1
  H  H739  1  0.303400  0.668900  0.557400  1
  H  H740  1  0.303400  0.831100  0.942600  1
  H  H741  1  0.866600  0.389800  0.444400  1
  H  H742  1  0.866600  0.110200  0.055600  1
  H  H743  1  0.133400  0.610200  0.555600  1
  H  H744  1  0.133400  0.889800  0.944400  1
  H  H745  1  0.671200  0.286100  0.405200  1
  H  H746  1  0.671200  0.213900  0.094800  1
  H  H747  1  0.328800  0.713900  0.594800  1
  H  H748  1  0.328800  0.786100  0.905200  1
  H  H749  1  0.640300  0.233700  0.362000  1
  H  H750  1  0.640300  0.266300  0.138000  1
  H  H751  1  0.359700  0.766300  0.638000  1
  H  H752  1  0.359700  0.733700  0.862000  1
  H  H753  1  0.777900  0.234200  0.316300  1
  H  H754  1  0.777900  0.265800  0.183700  1
  H  H755  1  0.222100  0.765800  0.683700  1
  H  H756  1  0.222100  0.734200  0.816300  1
  H  H757  1  0.856800  0.268200  0.315700  1
  H  H758  1  0.856800  0.231800  0.184300  1
  H  H759  1  0.143200  0.731800  0.684300  1
  H  H760  1  0.143200  0.768200  0.815700  1
  H  H761  1  0.928800  0.311700  0.313300  1
  H  H762  1  0.928800  0.188300  0.186700  1
  H  H763  1  0.071200  0.688300  0.686700  1
  H  H764  1  0.071200  0.811700  0.813300  1
  H  H765  1  0.952700  0.369400  0.356600  1
  H  H766  1  0.952700  0.130600  0.143400  1
  H  H767  1  0.047300  0.630600  0.643400  1
  H  H768  1  0.047300  0.869400  0.856600  1
  H  H769  1  0.907000  0.377500  0.404600  1
  H  H770  1  0.907000  0.122500  0.095400  1
  H  H771  1  0.093000  0.622500  0.595400  1
  H  H772  1  0.093000  0.877500  0.904600  1
  H  H773  1  0.632000  0.163900  0.332900  1
  H  H774  1  0.632000  0.336100  0.167100  1
  H  H775  1  0.368000  0.836100  0.667100  1
  H  H776  1  0.368000  0.663900  0.832900  1
  H  H777  1  0.615700  0.098200  0.295200  1
  H  H778  1  0.615700  0.401800  0.204800  1
  H  H779  1  0.384300  0.901800  0.704800  1
  H  H780  1  0.384300  0.598200  0.795200  1
  H  H781  1  0.719200  0.138300  0.234800  1
  H  H782  1  0.719200  0.361700  0.265200  1
  H  H783  1  0.280800  0.861700  0.765200  1
  H  H784  1  0.280800  0.638300  0.734800  1
  H  H785  1  0.735000  0.204100  0.272600  1
  H  H786  1  0.735000  0.295900  0.227400  1
  H  H787  1  0.265000  0.795900  0.727400  1
  H  H788  1  0.265000  0.704100  0.772600  1
  H  H789  1  0.603000  0.090900  0.221400  1
  H  H790  1  0.603000  0.409100  0.278600  1
  H  H791  1  0.397000  0.909100  0.778600  1
  H  H792  1  0.397000  0.590900  0.721400  1
  H  H793  1  0.551600  0.042200  0.171900  1
  H  H794  1  0.551600  0.457800  0.328100  1
  H  H795  1  0.448400  0.957800  0.828100  1
  H  H796  1  0.448400  0.542200  0.671900  1
  H  H797  1  0.543300  0.972800  0.135100  1
  H  H798  1  0.543300  0.527200  0.364900  1
  H  H799  1  0.456700  0.027200  0.864900  1
  H  H800  1  0.456700  0.472800  0.635100  1
  H  H801  1  0.604400  0.914500  0.136400  1
  H  H802  1  0.604400  0.585500  0.363600  1
  H  H803  1  0.395600  0.085500  0.863600  1
  H  H804  1  0.395600  0.414500  0.636400  1
  H  H805  1  0.673800  0.930200  0.172300  1
  H  H806  1  0.673800  0.569800  0.327700  1
  H  H807  1  0.326200  0.069800  0.827700  1
  H  H808  1  0.326200  0.430200  0.672300  1
  H  H809  1  0.792600  0.084600  0.665400  1
  H  H810  1  0.792600  0.415400  0.834600  1
  H  H811  1  0.207400  0.915400  0.334600  1
  H  H812  1  0.207400  0.584600  0.165400  1
  H  H813  1  0.788900  0.089200  0.610800  1
  H  H814  1  0.788900  0.410800  0.889200  1
  H  H815  1  0.211100  0.910800  0.389200  1
  H  H816  1  0.211100  0.589200  0.110800  1
  H  H817  1  0.877200  0.976500  0.586800  1
  H  H818  1  0.877200  0.523500  0.913200  1
  H  H819  1  0.122800  0.023500  0.413200  1
  H  H820  1  0.122800  0.476500  0.086800  1
  H  H821  1  0.893200  0.979300  0.641800  1
  H  H822  1  0.893200  0.520700  0.858200  1
  H  H823  1  0.106800  0.020700  0.358200  1
  H  H824  1  0.106800  0.479300  0.141800  1
  H  H825  1  0.738700  0.051900  0.565100  1
  H  H826  1  0.738700  0.448100  0.934900  1
  H  H827  1  0.261300  0.948100  0.434900  1
  H  H828  1  0.261300  0.551900  0.065100  1
  H  H829  1  0.724700  0.056000  0.511500  1
  H  H830  1  0.724700  0.444000  0.988500  1
  H  H831  1  0.275300  0.944000  0.488500  1
  H  H832  1  0.275300  0.556000  0.011500  1
  H  H833  1  0.879200  0.994000  0.542600  1
  H  H834  1  0.879200  0.506000  0.957400  1
  H  H835  1  0.120800  0.006000  0.457400  1
  H  H836  1  0.120800  0.494000  0.042600  1
  H  H837  1  0.719100  0.065300  0.462400  1
  H  H838  1  0.719100  0.434700  0.037600  1
  H  H839  1  0.280900  0.934700  0.537600  1
  H  H840  1  0.280900  0.565300  0.962400  1
  H  H841  1  0.714000  0.072100  0.409500  1
  H  H842  1  0.714000  0.427900  0.090500  1
  H  H843  1  0.286000  0.927900  0.590500  1
  H  H844  1  0.286000  0.572100  0.909500  1
  H  H845  1  0.851800  0.007900  0.389800  1
  H  H846  1  0.851800  0.492100  0.110200  1
  H  H847  1  0.148200  0.992100  0.610200  1
  H  H848  1  0.148200  0.507900  0.889800  1
  H  H849  1  0.917500  0.982300  0.404700  1
  H  H850  1  0.917500  0.517700  0.095300  1
  H  H851  1  0.082500  0.017700  0.595300  1
  H  H852  1  0.082500  0.482300  0.904700  1
  H  H853  1  0.993100  0.954500  0.423000  1
  H  H854  1  0.993100  0.545500  0.077000  1
  H  H855  1  0.006900  0.045500  0.577000  1
  H  H856  1  0.006900  0.454500  0.923000  1
  H  H857  1  0.996900  0.941700  0.475500  1
  H  H858  1  0.996900  0.558300  0.024500  1
  H  H859  1  0.003100  0.058300  0.524500  1
  H  H860  1  0.003100  0.441700  0.975500  1
  H  H861  1  0.928200  0.961700  0.510600  1
  H  H862  1  0.928200  0.538300  0.989400  1
  H  H863  1  0.071800  0.038300  0.489400  1
  H  H864  1  0.071800  0.461700  0.010600  1
  H  H865  1  0.743500  0.104000  0.365700  1
  H  H866  1  0.743500  0.396000  0.134300  1
  H  H867  1  0.256500  0.896000  0.634300  1
  H  H868  1  0.256500  0.604000  0.865700  1
  H  H869  1  0.734900  0.105700  0.311000  1
  H  H870  1  0.734900  0.394300  0.189000  1
  H  H871  1  0.265100  0.894300  0.689000  1
  H  H872  1  0.265100  0.605700  0.811000  1
  H  H873  1  0.804000  0.982800  0.287000  1
  H  H874  1  0.804000  0.517200  0.213000  1
  H  H875  1  0.196000  0.017200  0.713000  1
  H  H876  1  0.196000  0.482800  0.787000  1
  H  H877  1  0.813300  0.981100  0.341600  1
  H  H878  1  0.813300  0.518900  0.158400  1
  H  H879  1  0.186700  0.018900  0.658400  1
  H  H880  1  0.186700  0.481100  0.841600  1
  H  H881  1  0.820700  0.080300  0.261100  1
  H  H882  1  0.820700  0.419700  0.238900  1
  H  H883  1  0.179300  0.919700  0.738900  1
  H  H884  1  0.179300  0.580300  0.761100  1
  H  H885  1  0.847600  0.103900  0.208000  1
  H  H886  1  0.847600  0.396100  0.292000  1
  H  H887  1  0.152400  0.896100  0.792000  1
  H  H888  1  0.152400  0.603900  0.708000  1
  H  H889  1  0.827600  0.106400  0.153600  1
  H  H890  1  0.827600  0.393600  0.346400  1
  H  H891  1  0.172400  0.893600  0.846400  1
  H  H892  1  0.172400  0.606400  0.653600  1
  H  H893  1  0.753200  0.065700  0.130600  1
  H  H894  1  0.753200  0.434300  0.369400  1
  H  H895  1  0.246800  0.934300  0.869400  1
  H  H896  1  0.246800  0.565700  0.630600  1
  H  H897  1  0.705400  0.024600  0.159600  1
  H  H898  1  0.705400  0.475400  0.340400  1
  H  H899  1  0.294600  0.975400  0.840400  1
  H  H900  1  0.294600  0.524600  0.659600  1
  H  H901  1  0.234000  0.143900  0.565600  1
  H  H902  1  0.234000  0.356100  0.934400  1
  H  H903  1  0.766000  0.856100  0.434400  1
  H  H904  1  0.766000  0.643900  0.065600  1
  H  H905  1  0.302600  0.121800  0.529700  1
  H  H906  1  0.302600  0.378200  0.970300  1
  H  H907  1  0.697400  0.878200  0.470300  1
  H  H908  1  0.697400  0.621800  0.029700  1
  H  H909  1  0.201600  0.106500  0.454800  1
  H  H910  1  0.201600  0.393500  0.045200  1
  H  H911  1  0.798400  0.893500  0.545200  1
  H  H912  1  0.798400  0.606500  0.954800  1
  H  H913  1  0.133100  0.128000  0.490500  1
  H  H914  1  0.133100  0.372000  0.009500  1
  H  H915  1  0.866900  0.872000  0.509500  1
  H  H916  1  0.866900  0.628000  0.990500  1
  H  H917  1  0.347900  0.066800  0.489800  1
  H  H918  1  0.347900  0.433200  0.010200  1
  H  H919  1  0.652100  0.933200  0.510200  1
  H  H920  1  0.652100  0.566800  0.989800  1
  H  H921  1  0.415200  0.050700  0.453700  1
  H  H922  1  0.415200  0.449300  0.046300  1
  H  H923  1  0.584800  0.949300  0.546300  1
  H  H924  1  0.584800  0.550700  0.953700  1
  H  H925  1  0.273000  0.136400  0.431900  1
  H  H926  1  0.273000  0.363600  0.068100  1
  H  H927  1  0.727000  0.863600  0.568100  1
  H  H928  1  0.727000  0.636400  0.931900  1
  H  H929  1  0.474400  0.039300  0.422600  1
  H  H930  1  0.474400  0.460700  0.077400  1
  H  H931  1  0.525600  0.960700  0.577400  1
  H  H932  1  0.525600  0.539300  0.922600  1
  H  H933  1  0.542200  0.024200  0.387100  1
  H  H934  1  0.542200  0.475800  0.112900  1
  H  H935  1  0.457800  0.975800  0.612900  1
  H  H936  1  0.457800  0.524200  0.887100  1
  H  H937  1  0.468100  0.086200  0.324500  1
  H  H938  1  0.468100  0.413800  0.175500  1
  H  H939  1  0.531900  0.913800  0.675500  1
  H  H940  1  0.531900  0.586200  0.824500  1
  H  H941  1  0.407500  0.125100  0.315600  1
  H  H942  1  0.407500  0.374900  0.184400  1
  H  H943  1  0.592500  0.874900  0.684400  1
  H  H944  1  0.592500  0.625100  0.815600  1
  H  H945  1  0.341400  0.172400  0.306400  1
  H  H946  1  0.341400  0.327600  0.193600  1
  H  H947  1  0.658600  0.827600  0.693600  1
  H  H948  1  0.658600  0.672400  0.806400  1
  H  H949  1  0.278100  0.196200  0.346100  1
  H  H950  1  0.278100  0.303800  0.153900  1
  H  H951  1  0.721900  0.803800  0.653900  1
  H  H952  1  0.721900  0.696200  0.846100  1
  H  H953  1  0.276900  0.167800  0.392400  1
  H  H954  1  0.276900  0.332200  0.107600  1
  H  H955  1  0.723100  0.832200  0.607600  1
  H  H956  1  0.723100  0.667800  0.892400  1
  H  H957  1  0.611400  0.033200  0.360100  1
  H  H958  1  0.611400  0.466800  0.139900  1
  H  H959  1  0.388600  0.966800  0.639900  1
  H  H960  1  0.388600  0.533200  0.860100  1
  H  H961  1  0.675600  0.002700  0.322700  1
  H  H962  1  0.675600  0.497300  0.177300  1
  H  H963  1  0.324400  0.997300  0.677300  1
  H  H964  1  0.324400  0.502700  0.822700  1
  H  H965  1  0.574100  0.006500  0.249800  1
  H  H966  1  0.574100  0.493500  0.250200  1
  H  H967  1  0.425900  0.993500  0.750200  1
  H  H968  1  0.425900  0.506500  0.749800  1
  H  H969  1  0.509500  0.035200  0.287200  1
  H  H970  1  0.509500  0.464800  0.212800  1
  H  H971  1  0.490500  0.964800  0.712800  1
  H  H972  1  0.490500  0.535200  0.787200  1
  H  H973  1  0.676500  0.920800  0.273600  1
  H  H974  1  0.676500  0.579200  0.226400  1
  H  H975  1  0.323500  0.079200  0.726400  1
  H  H976  1  0.323500  0.420800  0.773600  1
  H  H977  1  0.738400  0.859400  0.247000  1
  H  H978  1  0.738400  0.640600  0.253000  1
  H  H979  1  0.261600  0.140600  0.753000  1
  H  H980  1  0.261600  0.359400  0.747000  1
  H  H981  1  0.800700  0.833400  0.206500  1
  H  H982  1  0.800700  0.666600  0.293500  1
  H  H983  1  0.199300  0.166600  0.793500  1
  H  H984  1  0.199300  0.333400  0.706500  1
  H  H985  1  0.831200  0.883000  0.174500  1
  H  H986  1  0.831200  0.617000  0.325500  1
  H  H987  1  0.168800  0.117000  0.825500  1
  H  H988  1  0.168800  0.383000  0.674500  1
  H  H989  1  0.799500  0.957000  0.184300  1
  H  H990  1  0.799500  0.543000  0.315700  1
  H  H991  1  0.200500  0.043000  0.815700  1
  H  H992  1  0.200500  0.457000  0.684300  1
  C  C993  1  0.882200  0.644300  0.537100  1
  C  C994  1  0.882200  0.855700  0.962900  1
  C  C995  1  0.117800  0.355700  0.462900  1
  C  C996  1  0.117800  0.144300  0.037100  1
  C  C997  1  0.915400  0.646800  0.512100  1
  C  C998  1  0.915400  0.853200  0.987900  1
  C  C999  1  0.084600  0.353200  0.487900  1
  C  C1000  1  0.084600  0.146800  0.012100  1
  C  C1001  1  0.903800  0.622500  0.481800  1
  C  C1002  1  0.903800  0.877500  0.018200  1
  C  C1003  1  0.096200  0.377500  0.518200  1
  C  C1004  1  0.096200  0.122500  0.981800  1
  C  C1005  1  0.858100  0.597500  0.476800  1
  C  C1006  1  0.858100  0.902500  0.023200  1
  C  C1007  1  0.141900  0.402500  0.523200  1
  C  C1008  1  0.141900  0.097500  0.976800  1
  C  C1009  1  0.825800  0.597500  0.503400  1
  C  C1010  1  0.825800  0.902500  0.996600  1
  C  C1011  1  0.174200  0.402500  0.496600  1
  C  C1012  1  0.174200  0.097500  0.003400  1
  C  C1013  1  0.775700  0.573600  0.500900  1
  C  C1014  1  0.775700  0.926400  0.999100  1
  C  C1015  1  0.224300  0.426400  0.499100  1
  C  C1016  1  0.224300  0.073600  0.000900  1
  C  C1017  1  0.702400  0.549800  0.525000  1
  C  C1018  1  0.702400  0.950200  0.975000  1
  C  C1019  1  0.297600  0.450200  0.475000  1
  C  C1020  1  0.297600  0.049800  0.025000  1
  C  C1021  1  0.656500  0.570100  0.538000  1
  C  C1022  1  0.656500  0.929900  0.962000  1
  C  C1023  1  0.343500  0.429900  0.462000  1
  C  C1024  1  0.343500  0.070100  0.038000  1
  C  C1025  1  0.610200  0.546100  0.535900  1
  C  C1026  1  0.610200  0.953900  0.964100  1
  C  C1027  1  0.389800  0.453900  0.464100  1
  C  C1028  1  0.389800  0.046100  0.035900  1
  C  C1029  1  0.608200  0.499800  0.521800  1
  C  C1030  1  0.608200  0.000200  0.978200  1
  C  C1031  1  0.391800  0.500200  0.478200  1
  C  C1032  1  0.391800  0.999800  0.021800  1
  C  C1033  1  0.654700  0.479900  0.508700  1
  C  C1034  1  0.654700  0.020100  0.991300  1
  C  C1035  1  0.345300  0.520100  0.491300  1
  C  C1036  1  0.345300  0.979900  0.008700  1
  C  C1037  1  0.700700  0.504200  0.509600  1
  C  C1038  1  0.700700  0.995800  0.990400  1
  C  C1039  1  0.299300  0.495800  0.490400  1
  C  C1040  1  0.299300  0.004200  0.009600  1
  C  C1041  1  0.559300  0.472900  0.521200  1
  C  C1042  1  0.559300  0.027100  0.978800  1
  C  C1043  1  0.440700  0.527100  0.478800  1
  C  C1044  1  0.440700  0.972900  0.021200  1
  C  C1045  1  0.552200  0.431500  0.499500  1
  C  C1046  1  0.552200  0.068500  0.000500  1
  C  C1047  1  0.447800  0.568500  0.500500  1
  C  C1048  1  0.447800  0.931500  0.999500  1
  C  C1049  1  0.507900  0.406600  0.499700  1
  C  C1050  1  0.507900  0.093400  0.000300  1
  C  C1051  1  0.492100  0.593400  0.500300  1
  C  C1052  1  0.492100  0.906600  0.999700  1
  C  C1053  1  0.466200  0.420100  0.521000  1
  C  C1054  1  0.466200  0.079900  0.979000  1
  C  C1055  1  0.533800  0.579900  0.479000  1
  C  C1056  1  0.533800  0.920100  0.021000  1
  C  C1057  1  0.470700  0.463800  0.541400  1
  C  C1058  1  0.470700  0.036200  0.958600  1
  C  C1059  1  0.529300  0.536200  0.458600  1
  C  C1060  1  0.529300  0.963800  0.041400  1
  C  C1061  1  0.517500  0.488100  0.541200  1
  C  C1062  1  0.517500  0.011900  0.958800  1
  C  C1063  1  0.482500  0.511900  0.458800  1
  C  C1064  1  0.482500  0.988100  0.041200  1
  C  C1065  1  0.419300  0.392700  0.521800  1
  C  C1066  1  0.419300  0.107300  0.978200  1
  C  C1067  1  0.580700  0.607300  0.478200  1
  C  C1068  1  0.580700  0.892700  0.021800  1
  C  C1069  1  0.412500  0.349600  0.501800  1
  C  C1070  1  0.412500  0.150400  0.998200  1
  C  C1071  1  0.587500  0.650400  0.498200  1
  C  C1072  1  0.587500  0.849600  0.001800  1
  C  C1073  1  0.368700  0.324100  0.502600  1
  C  C1074  1  0.368700  0.175900  0.997400  1
  C  C1075  1  0.631300  0.675900  0.497400  1
  C  C1076  1  0.631300  0.824100  0.002600  1
  C  C1077  1  0.327800  0.339100  0.523900  1
  C  C1078  1  0.327800  0.160900  0.976100  1
  C  C1079  1  0.672200  0.660900  0.476100  1
  C  C1080  1  0.672200  0.839100  0.023900  1
  C  C1081  1  0.332500  0.382400  0.543300  1
  C  C1082  1  0.332500  0.117600  0.956700  1
  C  C1083  1  0.667500  0.617600  0.456700  1
  C  C1084  1  0.667500  0.882400  0.043300  1
  C  C1085  1  0.376500  0.410200  0.542400  1
  C  C1086  1  0.376500  0.089800  0.957600  1
  C  C1087  1  0.623500  0.589800  0.457600  1
  C  C1088  1  0.623500  0.910200  0.042400  1
  C  C1089  1  0.378400  0.457200  0.560500  1
  C  C1090  1  0.378400  0.042800  0.939500  1
  C  C1091  1  0.621600  0.542800  0.439500  1
  C  C1092  1  0.621600  0.957200  0.060500  1
  C  C1093  1  0.335200  0.478100  0.578000  1
  C  C1094  1  0.335200  0.021900  0.922000  1
  C  C1095  1  0.664800  0.521900  0.422000  1
  C  C1096  1  0.664800  0.978100  0.078000  1
  C  C1097  1  0.338700  0.521500  0.595300  1
  C  C1098  1  0.338700  0.978500  0.904700  1
  C  C1099  1  0.661300  0.478500  0.404700  1
  C  C1100  1  0.661300  0.021500  0.095300  1
  C  C1101  1  0.383900  0.546400  0.595700  1
  C  C1102  1  0.383900  0.953600  0.904300  1
  C  C1103  1  0.616100  0.453600  0.404300  1
  C  C1104  1  0.616100  0.046400  0.095700  1
  C  C1105  1  0.426600  0.528100  0.578500  1
  C  C1106  1  0.426600  0.971900  0.921500  1
  C  C1107  1  0.573400  0.471900  0.421500  1
  C  C1108  1  0.573400  0.028100  0.078500  1
  C  C1109  1  0.425100  0.483100  0.560400  1
  C  C1110  1  0.425100  0.016900  0.939600  1
  C  C1111  1  0.574900  0.516900  0.439600  1
  C  C1112  1  0.574900  0.983100  0.060400  1
  C  C1113  1  0.280300  0.311100  0.525700  1
  C  C1114  1  0.280300  0.188900  0.974300  1
  C  C1115  1  0.719700  0.688900  0.474300  1
  C  C1116  1  0.719700  0.811100  0.025700  1
  C  C1117  1  0.276400  0.265700  0.510800  1
  C  C1118  1  0.276400  0.234300  0.989200  1
  C  C1119  1  0.723600  0.734300  0.489200  1
  C  C1120  1  0.723600  0.765700  0.010800  1
  C  C1121  1  0.230300  0.241400  0.510300  1
  C  C1122  1  0.230300  0.258600  0.989700  1
  C  C1123  1  0.769700  0.758600  0.489700  1
  C  C1124  1  0.769700  0.741400  0.010300  1
  C  C1125  1  0.185700  0.262300  0.525700  1
  C  C1126  1  0.185700  0.237700  0.974300  1
  C  C1127  1  0.814300  0.737700  0.474300  1
  C  C1128  1  0.814300  0.762300  0.025700  1
  C  C1129  1  0.189100  0.307200  0.541100  1
  C  C1130  1  0.189100  0.192800  0.958900  1
  C  C1131  1  0.810900  0.692800  0.458900  1
  C  C1132  1  0.810900  0.807200  0.041100  1
  C  C1133  1  0.235100  0.331000  0.541000  1
  C  C1134  1  0.235100  0.169000  0.959000  1
  C  C1135  1  0.764900  0.669000  0.459000  1
  C  C1136  1  0.764900  0.831000  0.041000  1
  C  C1137  1  0.110200  0.232700  0.499100  1
  C  C1138  1  0.110200  0.267300  0.000900  1
  C  C1139  1  0.889800  0.767300  0.500900  1
  C  C1140  1  0.889800  0.732700  0.999100  1
  C  C1141  1  0.060600  0.208300  0.498900  1
  C  C1142  1  0.060600  0.291700  0.001100  1
  C  C1143  1  0.939400  0.791700  0.501100  1
  C  C1144  1  0.939400  0.708300  0.998900  1
  C  C1145  1  0.028600  0.197300  0.472100  1
  C  C1146  1  0.028600  0.302700  0.027900  1
  C  C1147  1  0.971400  0.802700  0.527900  1
  C  C1148  1  0.971400  0.697300  0.972100  1
  C  C1149  1  0.982500  0.174300  0.474500  1
  C  C1150  1  0.982500  0.325700  0.025500  1
  C  C1151  1  0.017500  0.825700  0.525500  1
  C  C1152  1  0.017500  0.674300  0.974500  1
  C  C1153  1  0.970100  0.163800  0.504100  1
  C  C1154  1  0.970100  0.336200  0.995900  1
  C  C1155  1  0.029900  0.836200  0.495900  1
  C  C1156  1  0.029900  0.663800  0.004100  1
  C  C1157  1  0.004400  0.175500  0.529700  1
  C  C1158  1  0.004400  0.324500  0.970300  1
  C  C1159  1  0.995600  0.824500  0.470300  1
  C  C1160  1  0.995600  0.675500  0.029700  1
  C  C1161  1  0.777500  0.920700  0.756400  1
  C  C1162  1  0.777500  0.579300  0.743600  1
  C  C1163  1  0.222500  0.079300  0.243600  1
  C  C1164  1  0.222500  0.420700  0.256400  1
  C  C1165  1  0.746800  0.902500  0.777000  1
  C  C1166  1  0.746800  0.597500  0.723000  1
  C  C1167  1  0.253200  0.097500  0.223000  1
  C  C1168  1  0.253200  0.402500  0.277000  1
  C  C1169  1  0.708800  0.928700  0.794600  1
  C  C1170  1  0.708800  0.571300  0.705400  1
  C  C1171  1  0.291200  0.071300  0.205400  1
  C  C1172  1  0.291200  0.428700  0.294600  1
  C  C1173  1  0.702600  0.973200  0.790900  1
  C  C1174  1  0.702600  0.526800  0.709100  1
  C  C1175  1  0.297400  0.026800  0.209100  1
  C  C1176  1  0.297400  0.473200  0.290900  1
  C  C1177  1  0.734800  0.989000  0.769300  1
  C  C1178  1  0.734800  0.511000  0.730700  1
  C  C1179  1  0.265200  0.011000  0.230700  1
  C  C1180  1  0.265200  0.489000  0.269300  1
  C  C1181  1  0.729500  0.034700  0.762600  1
  C  C1182  1  0.729500  0.465300  0.737400  1
  C  C1183  1  0.270500  0.965300  0.237400  1
  C  C1184  1  0.270500  0.534700  0.262600  1
  C  C1185  1  0.756400  0.088300  0.733390  1
  C  C1186  1  0.756400  0.411700  0.766610  1
  C  C1187  1  0.243600  0.911700  0.266610  1
  C  C1188  1  0.243600  0.588300  0.233390  1
  C  C1189  1  0.713200  0.099800  0.717100  1
  C  C1190  1  0.713200  0.400200  0.782900  1
  C  C1191  1  0.286800  0.900200  0.282900  1
  C  C1192  1  0.286800  0.599800  0.217100  1
  C  C1193  1  0.710000  0.142100  0.708800  1
  C  C1194  1  0.710000  0.357900  0.791200  1
  C  C1195  1  0.290000  0.857900  0.291200  1
  C  C1196  1  0.290000  0.642100  0.208800  1
  C  C1197  1  0.749800  0.173900  0.716550  1
  C  C1198  1  0.749800  0.326100  0.783450  1
  C  C1199  1  0.250200  0.826100  0.283450  1
  C  C1200  1  0.250200  0.673900  0.216550  1
  C  C1201  1  0.792500  0.162100  0.733600  1
  C  C1202  1  0.792500  0.337900  0.766400  1
  C  C1203  1  0.207500  0.837900  0.266400  1
  C  C1204  1  0.207500  0.662100  0.233600  1
  C  C1205  1  0.795600  0.120400  0.742100  1
  C  C1206  1  0.795600  0.379600  0.757900  1
  C  C1207  1  0.204400  0.879600  0.257900  1
  C  C1208  1  0.204400  0.620400  0.242100  1
  C  C1209  1  0.748400  0.218800  0.706670  1
  C  C1210  1  0.748400  0.281200  0.793330  1
  C  C1211  1  0.251600  0.781200  0.293330  1
  C  C1212  1  0.251600  0.718800  0.206670  1
  C  C1213  1  0.701500  0.242200  0.705600  1
  C  C1214  1  0.701500  0.257800  0.794400  1
  C  C1215  1  0.298500  0.757800  0.294400  1
  C  C1216  1  0.298500  0.742200  0.205600  1
  C  C1217  1  0.699100  0.281600  0.694800  1
  C  C1218  1  0.699100  0.218400  0.805200  1
  C  C1219  1  0.300900  0.718400  0.305200  1
  C  C1220  1  0.300900  0.781600  0.194800  1
  C  C1221  1  0.744600  0.301700  0.685110  1
  C  C1222  1  0.744600  0.198300  0.814890  1
  C  C1223  1  0.255400  0.698300  0.314890  1
  C  C1224  1  0.255400  0.801700  0.185110  1
  C  C1225  1  0.793800  0.279900  0.687400  1
  C  C1226  1  0.793800  0.220100  0.812600  1
  C  C1227  1  0.206200  0.720100  0.312600  1
  C  C1228  1  0.206200  0.779900  0.187400  1
  C  C1229  1  0.793400  0.238200  0.697900  1
  C  C1230  1  0.793400  0.261800  0.802100  1
  C  C1231  1  0.206600  0.761800  0.302100  1
  C  C1232  1  0.206600  0.738200  0.197900  1
  C  C1233  1  0.743200  0.344000  0.672780  1
  C  C1234  1  0.743200  0.156000  0.827220  1
  C  C1235  1  0.256800  0.656000  0.327220  1
  C  C1236  1  0.256800  0.844000  0.172780  1
  C  C1237  1  0.696100  0.366800  0.669800  1
  C  C1238  1  0.696100  0.133200  0.830200  1
  C  C1239  1  0.303900  0.633200  0.330200  1
  C  C1240  1  0.303900  0.866800  0.169800  1
  C  C1241  1  0.694800  0.405700  0.657700  1
  C  C1242  1  0.694800  0.094300  0.842300  1
  C  C1243  1  0.305200  0.594300  0.342300  1
  C  C1244  1  0.305200  0.905700  0.157700  1
  C  C1245  1  0.740600  0.424500  0.648210  1
  C  C1246  1  0.740600  0.075500  0.851790  1
  C  C1247  1  0.259400  0.575500  0.351790  1
  C  C1248  1  0.259400  0.924500  0.148210  1
  C  C1249  1  0.787000  0.402600  0.651100  1
  C  C1250  1  0.787000  0.097400  0.848900  1
  C  C1251  1  0.213000  0.597400  0.348900  1
  C  C1252  1  0.213000  0.902600  0.151100  1
  C  C1253  1  0.790300  0.362200  0.662980  1
  C  C1254  1  0.790300  0.137800  0.837020  1
  C  C1255  1  0.209700  0.637800  0.337020  1
  C  C1256  1  0.209700  0.862200  0.162980  1
  C  C1257  1  0.840500  0.340000  0.665600  1
  C  C1258  1  0.840500  0.160000  0.834400  1
  C  C1259  1  0.159500  0.660000  0.334400  1
  C  C1260  1  0.159500  0.840000  0.165600  1
  C  C1261  1  0.888300  0.357000  0.656400  1
  C  C1262  1  0.888300  0.143000  0.843600  1
  C  C1263  1  0.111700  0.643000  0.343600  1
  C  C1264  1  0.111700  0.857000  0.156400  1
  C  C1265  1  0.934800  0.337400  0.660600  1
  C  C1266  1  0.934800  0.162600  0.839400  1
  C  C1267  1  0.065200  0.662600  0.339400  1
  C  C1268  1  0.065200  0.837400  0.160600  1
  C  C1269  1  0.937200  0.298900  0.673900  1
  C  C1270  1  0.937200  0.201100  0.826100  1
  C  C1271  1  0.062800  0.701100  0.326100  1
  C  C1272  1  0.062800  0.798900  0.173900  1
  C  C1273  1  0.891700  0.280500  0.682300  1
  C  C1274  1  0.891700  0.219500  0.817700  1
  C  C1275  1  0.108300  0.719500  0.317700  1
  C  C1276  1  0.108300  0.780500  0.182300  1
  C  C1277  1  0.842200  0.299300  0.678180  1
  C  C1278  1  0.842200  0.200700  0.821820  1
  C  C1279  1  0.157800  0.700700  0.321820  1
  C  C1280  1  0.157800  0.799300  0.178180  1
  C  C1281  1  0.739300  0.467400  0.635830  1
  C  C1282  1  0.739300  0.032600  0.864170  1
  C  C1283  1  0.260700  0.532600  0.364170  1
  C  C1284  1  0.260700  0.967400  0.135830  1
  C  C1285  1  0.697600  0.478600  0.618000  1
  C  C1286  1  0.697600  0.021400  0.882000  1
  C  C1287  1  0.302400  0.521400  0.382000  1
  C  C1288  1  0.302400  0.978600  0.118000  1
  C  C1289  1  0.697500  0.518100  0.605900  1
  C  C1290  1  0.697500  0.981900  0.894100  1
  C  C1291  1  0.302500  0.481900  0.394100  1
  C  C1292  1  0.302500  0.018100  0.105900  1
  C  C1293  1  0.739400  0.548000  0.612000  1
  C  C1294  1  0.739400  0.952000  0.888000  1
  C  C1295  1  0.260600  0.452000  0.388000  1
  C  C1296  1  0.260600  0.048000  0.112000  1
  C  C1297  1  0.780700  0.537800  0.630400  1
  C  C1298  1  0.780700  0.962200  0.869600  1
  C  C1299  1  0.219300  0.462200  0.369600  1
  C  C1300  1  0.219300  0.037800  0.130400  1
  C  C1301  1  0.781100  0.498000  0.641900  1
  C  C1302  1  0.781100  0.002000  0.858100  1
  C  C1303  1  0.218900  0.502000  0.358100  1
  C  C1304  1  0.218900  0.998000  0.141900  1
  C  C1305  1  0.705000  0.618300  0.609000  1
  C  C1306  1  0.705000  0.881700  0.891000  1
  C  C1307  1  0.295000  0.381700  0.391000  1
  C  C1308  1  0.295000  0.118300  0.109000  1
  C  C1309  1  0.706300  0.659100  0.594800  1
  C  C1310  1  0.706300  0.840900  0.905200  1
  C  C1311  1  0.293700  0.340900  0.405200  1
  C  C1312  1  0.293700  0.159100  0.094800  1
  C  C1313  1  0.670200  0.693800  0.603100  1
  C  C1314  1  0.670200  0.806200  0.896900  1
  C  C1315  1  0.329800  0.306200  0.396900  1
  C  C1316  1  0.329800  0.193800  0.103100  1
  C  C1317  1  0.676700  0.731800  0.589400  1
  C  C1318  1  0.676700  0.768200  0.910600  1
  C  C1319  1  0.323300  0.268200  0.410600  1
  C  C1320  1  0.323300  0.231800  0.089400  1
  C  C1321  1  0.717300  0.732000  0.568200  1
  C  C1322  1  0.717300  0.768000  0.931800  1
  C  C1323  1  0.282700  0.268000  0.431800  1
  C  C1324  1  0.282700  0.232000  0.068200  1
  C  C1325  1  0.750800  0.695600  0.560600  1
  C  C1326  1  0.750800  0.804400  0.939400  1
  C  C1327  1  0.249200  0.304400  0.439400  1
  C  C1328  1  0.249200  0.195600  0.060600  1
  C  C1329  1  0.900500  0.930800  0.712300  1
  C  C1330  1  0.900500  0.569200  0.787700  1
  C  C1331  1  0.099500  0.069200  0.287700  1
  C  C1332  1  0.099500  0.430800  0.212300  1
  C  C1333  1  0.928700  0.893900  0.696300  1
  C  C1334  1  0.928700  0.606100  0.803700  1
  C  C1335  1  0.071300  0.106100  0.303700  1
  C  C1336  1  0.071300  0.393900  0.196300  1
  C  C1337  1  0.905700  0.865300  0.670600  1
  C  C1338  1  0.905700  0.634700  0.829400  1
  C  C1339  1  0.094300  0.134700  0.329400  1
  C  C1340  1  0.094300  0.365300  0.170600  1
  C  C1341  1  0.855300  0.873600  0.661400  1
  C  C1342  1  0.855300  0.626400  0.838600  1
  C  C1343  1  0.144700  0.126400  0.338600  1
  C  C1344  1  0.144700  0.373600  0.161400  1
  C  C1345  1  0.830000  0.911800  0.678300  1
  C  C1346  1  0.830000  0.588200  0.821700  1
  C  C1347  1  0.170000  0.088200  0.321700  1
  C  C1348  1  0.170000  0.411800  0.178300  1
  C  C1349  1  0.777800  0.925500  0.669900  1
  C  C1350  1  0.777800  0.574500  0.830100  1
  C  C1351  1  0.222200  0.074500  0.330100  1
  C  C1352  1  0.222200  0.425500  0.169900  1
  C  C1353  1  0.710400  0.978700  0.677900  1
  C  C1354  1  0.710400  0.521300  0.822100  1
  C  C1355  1  0.289600  0.021300  0.322100  1
  C  C1356  1  0.289600  0.478700  0.177900  1
  C  C1357  1  0.668400  0.982400  0.698700  1
  C  C1358  1  0.668400  0.517600  0.801300  1
  C  C1359  1  0.331600  0.017600  0.301300  1
  C  C1360  1  0.331600  0.482400  0.198700  1
  C  C1361  1  0.621700  0.000900  0.691600  1
  C  C1362  1  0.621700  0.499100  0.808400  1
  C  C1363  1  0.378300  0.999100  0.308400  1
  C  C1364  1  0.378300  0.500900  0.191600  1
  C  C1365  1  0.616300  0.017600  0.663100  1
  C  C1366  1  0.616300  0.482400  0.836900  1
  C  C1367  1  0.383700  0.982400  0.336900  1
  C  C1368  1  0.383700  0.517600  0.163100  1
  C  C1369  1  0.658300  0.012300  0.641800  1
  C  C1370  1  0.658300  0.487700  0.858200  1
  C  C1371  1  0.341700  0.987700  0.358200  1
  C  C1372  1  0.341700  0.512300  0.141800  1
  C  C1373  1  0.704500  0.992700  0.648500  1
  C  C1374  1  0.704500  0.507300  0.851500  1
  C  C1375  1  0.295500  0.007300  0.351500  1
  C  C1376  1  0.295500  0.492700  0.148500  1
  C  C1377  1  0.568700  0.042200  0.656600  1
  C  C1378  1  0.568700  0.457800  0.843400  1
  C  C1379  1  0.431300  0.957800  0.343400  1
  C  C1380  1  0.431300  0.542200  0.156600  1
  C  C1381  1  0.553400  0.042500  0.624900  1
  C  C1382  1  0.553400  0.457500  0.875100  1
  C  C1383  1  0.446600  0.957500  0.375100  1
  C  C1384  1  0.446600  0.542500  0.124900  1
  C  C1385  1  0.510100  0.065500  0.618800  1
  C  C1386  1  0.510100  0.434500  0.881200  1
  C  C1387  1  0.489900  0.934500  0.381200  1
  C  C1388  1  0.489900  0.565500  0.118800  1
  C  C1389  1  0.479700  0.091400  0.643800  1
  C  C1390  1  0.479700  0.408600  0.856200  1
  C  C1391  1  0.520300  0.908600  0.356200  1
  C  C1392  1  0.520300  0.591400  0.143800  1
  C  C1393  1  0.494200  0.091200  0.676500  1
  C  C1394  1  0.494200  0.408800  0.823500  1
  C  C1395  1  0.505800  0.908800  0.323500  1
  C  C1396  1  0.505800  0.591200  0.176500  1
  C  C1397  1  0.538800  0.066200  0.681800  1
  C  C1398  1  0.538800  0.433800  0.818200  1
  C  C1399  1  0.461200  0.933800  0.318200  1
  C  C1400  1  0.461200  0.566200  0.181800  1
  C  C1401  1  0.433000  0.115800  0.637700  1
  C  C1402  1  0.433000  0.384200  0.862300  1
  C  C1403  1  0.567000  0.884200  0.362300  1
  C  C1404  1  0.567000  0.615800  0.137700  1
  C  C1405  1  0.420000  0.121000  0.606300  1
  C  C1406  1  0.420000  0.379000  0.893700  1
  C  C1407  1  0.580000  0.879000  0.393700  1
  C  C1408  1  0.580000  0.621000  0.106300  1
  C  C1409  1  0.375800  0.143400  0.600800  1
  C  C1410  1  0.375800  0.356600  0.899200  1
  C  C1411  1  0.624200  0.856600  0.399200  1
  C  C1412  1  0.624200  0.643400  0.100800  1
  C  C1413  1  0.341100  0.161600  0.625400  1
  C  C1414  1  0.341100  0.338400  0.874600  1
  C  C1415  1  0.658900  0.838400  0.374600  1
  C  C1416  1  0.658900  0.661600  0.125400  1
  C  C1417  1  0.353100  0.157200  0.656600  1
  C  C1418  1  0.353100  0.342800  0.843400  1
  C  C1419  1  0.646900  0.842800  0.343400  1
  C  C1420  1  0.646900  0.657200  0.156600  1
  C  C1421  1  0.399500  0.135900  0.663700  1
  C  C1422  1  0.399500  0.364100  0.836300  1
  C  C1423  1  0.600500  0.864100  0.336300  1
  C  C1424  1  0.600500  0.635900  0.163700  1
  C  C1425  1  0.414000  0.135900  0.696800  1
  C  C1426  1  0.414000  0.364100  0.803200  1
  C  C1427  1  0.586000  0.864100  0.303200  1
  C  C1428  1  0.586000  0.635900  0.196800  1
  C  C1429  1  0.383500  0.158200  0.723000  1
  C  C1430  1  0.383500  0.341800  0.777000  1
  C  C1431  1  0.616500  0.841800  0.277000  1
  C  C1432  1  0.616500  0.658200  0.223000  1
  C  C1433  1  0.399900  0.160900  0.754200  1
  C  C1434  1  0.399900  0.339100  0.745800  1
  C  C1435  1  0.600100  0.839100  0.245800  1
  C  C1436  1  0.600100  0.660900  0.254200  1
  C  C1437  1  0.446900  0.141500  0.760000  1
  C  C1438  1  0.446900  0.358500  0.740000  1
  C  C1439  1  0.553100  0.858500  0.240000  1
  C  C1440  1  0.553100  0.641500  0.260000  1
  C  C1441  1  0.477100  0.118300  0.735400  1
  C  C1442  1  0.477100  0.381700  0.764600  1
  C  C1443  1  0.522900  0.881700  0.264600  1
  C  C1444  1  0.522900  0.618300  0.235400  1
  C  C1445  1  0.461800  0.114900  0.703000  1
  C  C1446  1  0.461800  0.385100  0.797000  1
  C  C1447  1  0.538200  0.885100  0.297000  1
  C  C1448  1  0.538200  0.614900  0.203000  1
  C  C1449  1  0.292100  0.184000  0.618100  1
  C  C1450  1  0.292100  0.316000  0.881900  1
  C  C1451  1  0.707900  0.816000  0.381900  1
  C  C1452  1  0.707900  0.684000  0.118100  1
  C  C1453  1  0.292400  0.214900  0.597700  1
  C  C1454  1  0.292400  0.285100  0.902300  1
  C  C1455  1  0.707600  0.785100  0.402300  1
  C  C1456  1  0.707600  0.714900  0.097700  1
  C  C1457  1  0.247000  0.234900  0.590000  1
  C  C1458  1  0.247000  0.265100  0.910000  1
  C  C1459  1  0.753000  0.765100  0.410000  1
  C  C1460  1  0.753000  0.734900  0.090000  1
  C  C1461  1  0.199500  0.224700  0.602800  1
  C  C1462  1  0.199500  0.275300  0.897200  1
  C  C1463  1  0.800500  0.775300  0.397200  1
  C  C1464  1  0.800500  0.724700  0.102800  1
  C  C1465  1  0.198500  0.194300  0.623600  1
  C  C1466  1  0.198500  0.305700  0.876400  1
  C  C1467  1  0.801500  0.805700  0.376400  1
  C  C1468  1  0.801500  0.694300  0.123600  1
  C  C1469  1  0.244300  0.174100  0.630900  1
  C  C1470  1  0.244300  0.325900  0.869100  1
  C  C1471  1  0.755700  0.825900  0.369100  1
  C  C1472  1  0.755700  0.674100  0.130900  1
  C  C1473  1  0.142100  0.285600  0.608800  1
  C  C1474  1  0.142100  0.214400  0.891200  1
  C  C1475  1  0.857900  0.714400  0.391200  1
  C  C1476  1  0.857900  0.785600  0.108800  1
  C  C1477  1  0.094300  0.305800  0.599100  1
  C  C1478  1  0.094300  0.194200  0.900900  1
  C  C1479  1  0.905700  0.694200  0.400900  1
  C  C1480  1  0.905700  0.805800  0.099100  1
  C  C1481  1  0.078500  0.349700  0.612800  1
  C  C1482  1  0.078500  0.150300  0.887200  1
  C  C1483  1  0.921500  0.650300  0.387200  1
  C  C1484  1  0.921500  0.849700  0.112800  1
  C  C1485  1  0.032600  0.365400  0.602000  1
  C  C1486  1  0.032600  0.134600  0.898000  1
  C  C1487  1  0.967400  0.634600  0.398000  1
  C  C1488  1  0.967400  0.865400  0.102000  1
  C  C1489  1  0.004600  0.338000  0.577700  1
  C  C1490  1  0.004600  0.162000  0.922300  1
  C  C1491  1  0.995400  0.662000  0.422300  1
  C  C1492  1  0.995400  0.838000  0.077700  1
  C  C1493  1  0.023600  0.295000  0.565100  1
  C  C1494  1  0.023600  0.205000  0.934900  1
  C  C1495  1  0.976400  0.705000  0.434900  1
  C  C1496  1  0.976400  0.795000  0.065100  1
  C  C1497  1  0.026000  0.210500  0.615700  1
  C  C1498  1  0.026000  0.289500  0.884300  1
  C  C1499  1  0.974000  0.789500  0.384300  1
  C  C1500  1  0.974000  0.710500  0.115700  1
  C  C1501  1  0.004200  0.189000  0.638500  1
  C  C1502  1  0.004200  0.311000  0.861500  1
  C  C1503  1  0.995800  0.811000  0.361500  1
  C  C1504  1  0.995800  0.689000  0.138500  1
  C  C1505  1  0.021300  0.146400  0.640000  1
  C  C1506  1  0.021300  0.353600  0.860000  1
  C  C1507  1  0.978700  0.853600  0.360000  1
  C  C1508  1  0.978700  0.646400  0.140000  1
  C  C1509  1  0.059300  0.125900  0.618500  1
  C  C1510  1  0.059300  0.374100  0.881500  1
  C  C1511  1  0.940700  0.874100  0.381500  1
  C  C1512  1  0.940700  0.625900  0.118500  1
  C  C1513  1  0.079100  0.149600  0.596400  1
  C  C1514  1  0.079100  0.350400  0.903600  1
  C  C1515  1  0.920900  0.850400  0.403600  1
  C  C1516  1  0.920900  0.649600  0.096400  1
  C  C1517  1  0.118400  0.131200  0.572100  1
  C  C1518  1  0.118400  0.368800  0.927900  1
  C  C1519  1  0.881600  0.868800  0.427900  1
  C  C1520  1  0.881600  0.631200  0.072100  1
  C  C1521  1  0.872000  0.015800  0.781000  1
  C  C1522  1  0.872000  0.484200  0.719000  1
  C  C1523  1  0.128000  0.984200  0.219000  1
  C  C1524  1  0.128000  0.515800  0.281000  1
  C  C1525  1  0.913900  0.034600  0.799800  1
  C  C1526  1  0.913900  0.465400  0.700200  1
  C  C1527  1  0.086100  0.965400  0.200200  1
  C  C1528  1  0.086100  0.534600  0.299800  1
  C  C1529  1  0.950200  0.060100  0.786700  1
  C  C1530  1  0.950200  0.439900  0.713300  1
  C  C1531  1  0.049800  0.939900  0.213300  1
  C  C1532  1  0.049800  0.560100  0.286700  1
  C  C1533  1  0.942100  0.066500  0.755400  1
  C  C1534  1  0.942100  0.433500  0.744600  1
  C  C1535  1  0.057900  0.933500  0.244600  1
  C  C1536  1  0.057900  0.566500  0.255400  1
  C  C1537  1  0.899300  0.046500  0.738200  1
  C  C1538  1  0.899300  0.453500  0.761800  1
  C  C1539  1  0.100700  0.953500  0.261800  1
  C  C1540  1  0.100700  0.546500  0.238200  1
  C  C1541  1  0.887200  0.049500  0.704510  1
  C  C1542  1  0.887200  0.450500  0.795490  1
  C  C1543  1  0.112800  0.950500  0.295490  1
  C  C1544  1  0.112800  0.549500  0.204510  1
  C  C1545  1  0.841500  0.672100  0.620600  1
  C  C1546  1  0.841500  0.827900  0.879400  1
  C  C1547  1  0.158500  0.327900  0.379400  1
  C  C1548  1  0.158500  0.172100  0.120600  1
  C  C1549  1  0.881800  0.688700  0.641400  1
  C  C1550  1  0.881800  0.811300  0.858600  1
  C  C1551  1  0.118200  0.311300  0.358600  1
  C  C1552  1  0.118200  0.188700  0.141400  1
  C  C1553  1  0.923600  0.660800  0.643400  1
  C  C1554  1  0.923600  0.839200  0.856600  1
  C  C1555  1  0.076400  0.339200  0.356600  1
  C  C1556  1  0.076400  0.160800  0.143400  1
  C  C1557  1  0.924300  0.616900  0.624800  1
  C  C1558  1  0.924300  0.883100  0.875200  1
  C  C1559  1  0.075700  0.383100  0.375200  1
  C  C1560  1  0.075700  0.116900  0.124800  1
  C  C1561  1  0.882300  0.603400  0.604400  1
  C  C1562  1  0.882300  0.896600  0.895600  1
  C  C1563  1  0.117700  0.396600  0.395600  1
  C  C1564  1  0.117700  0.103400  0.104400  1
  C  C1565  1  0.879300  0.558700  0.582700  1
  C  C1566  1  0.879300  0.941300  0.917300  1
  C  C1567  1  0.120700  0.441300  0.417300  1
  C  C1568  1  0.120700  0.058700  0.082700  1
  C  C1569  1  0.167400  0.137900  0.526900  1
  C  C1570  1  0.167400  0.362100  0.973100  1
  C  C1571  1  0.832600  0.862100  0.473100  1
  C  C1572  1  0.832600  0.637900  0.026900  1
  C  C1573  1  0.217800  0.128400  0.534900  1
  C  C1574  1  0.217800  0.371600  0.965100  1
  C  C1575  1  0.782200  0.871600  0.465100  1
  C  C1576  1  0.782200  0.628400  0.034900  1
  C  C1577  1  0.255800  0.117000  0.511200  1
  C  C1578  1  0.255800  0.383000  0.988800  1
  C  C1579  1  0.744200  0.883000  0.488800  1
  C  C1580  1  0.744200  0.617000  0.011200  1
  C  C1581  1  0.243200  0.113800  0.478700  1
  C  C1582  1  0.243200  0.386200  0.021300  1
  C  C1583  1  0.756800  0.886200  0.521300  1
  C  C1584  1  0.756800  0.613800  0.978700  1
  C  C1585  1  0.191600  0.120600  0.470800  1
  C  C1586  1  0.191600  0.379400  0.029200  1
  C  C1587  1  0.808400  0.879400  0.529200  1
  C  C1588  1  0.808400  0.620600  0.970800  1
  C  C1589  1  0.153600  0.132900  0.494500  1
  C  C1590  1  0.153600  0.367100  0.005500  1
  C  C1591  1  0.846400  0.867100  0.505500  1
  C  C1592  1  0.846400  0.632900  0.994500  1
  C  C1593  1  0.284700  0.106400  0.453400  1
  C  C1594  1  0.284700  0.393600  0.046600  1
  C  C1595  1  0.715300  0.893600  0.546600  1
  C  C1596  1  0.715300  0.606400  0.953400  1
  C  C1597  1  0.329900  0.082200  0.457000  1
  C  C1598  1  0.329900  0.417800  0.043000  1
  C  C1599  1  0.670100  0.917800  0.543000  1
  C  C1600  1  0.670100  0.582200  0.957000  1
  C  C1601  1  0.370500  0.079700  0.435700  1
  C  C1602  1  0.370500  0.420300  0.064300  1
  C  C1603  1  0.629500  0.920300  0.564300  1
  C  C1604  1  0.629500  0.579700  0.935700  1
  C  C1605  1  0.369700  0.100100  0.408900  1
  C  C1606  1  0.369700  0.399900  0.091100  1
  C  C1607  1  0.630300  0.899900  0.591100  1
  C  C1608  1  0.630300  0.600100  0.908900  1
  C  C1609  1  0.322300  0.123800  0.404000  1
  C  C1610  1  0.322300  0.376200  0.096000  1
  C  C1611  1  0.677700  0.876200  0.596000  1
  C  C1612  1  0.677700  0.623800  0.904000  1
  C  C1613  1  0.281500  0.126500  0.426800  1
  C  C1614  1  0.281500  0.373500  0.073200  1
  C  C1615  1  0.718500  0.873500  0.573200  1
  C  C1616  1  0.718500  0.626500  0.926800  1
  C  C1617  1  0.411900  0.095700  0.385400  1
  C  C1618  1  0.411900  0.404300  0.114600  1
  C  C1619  1  0.588100  0.904300  0.614600  1
  C  C1620  1  0.588100  0.595700  0.885400  1
  C  C1621  1  0.461500  0.078600  0.391000  1
  C  C1622  1  0.461500  0.421400  0.109000  1
  C  C1623  1  0.538500  0.921400  0.609000  1
  C  C1624  1  0.538500  0.578600  0.891000  1
  C  C1625  1  0.500400  0.074300  0.368600  1
  C  C1626  1  0.500400  0.425700  0.131400  1
  C  C1627  1  0.499600  0.925700  0.631400  1
  C  C1628  1  0.499600  0.574300  0.868600  1
  C  C1629  1  0.493500  0.086100  0.338800  1
  C  C1630  1  0.493500  0.413900  0.161200  1
  C  C1631  1  0.506500  0.913900  0.661200  1
  C  C1632  1  0.506500  0.586100  0.838800  1
  C  C1633  1  0.445800  0.104100  0.332400  1
  C  C1634  1  0.445800  0.395900  0.167600  1
  C  C1635  1  0.554200  0.895900  0.667600  1
  C  C1636  1  0.554200  0.604100  0.832400  1
  C  C1637  1  0.404600  0.110500  0.355300  1
  C  C1638  1  0.404600  0.389500  0.144700  1
  C  C1639  1  0.595400  0.889500  0.644700  1
  C  C1640  1  0.595400  0.610500  0.855300  1
  C  C1641  1  0.356100  0.132900  0.350100  1
  C  C1642  1  0.356100  0.367100  0.149900  1
  C  C1643  1  0.643900  0.867100  0.649900  1
  C  C1644  1  0.643900  0.632900  0.850100  1
  C  C1645  1  0.346200  0.147100  0.320900  1
  C  C1646  1  0.346200  0.352900  0.179100  1
  C  C1647  1  0.653800  0.852900  0.679100  1
  C  C1648  1  0.653800  0.647100  0.820900  1
  C  C1649  1  0.302300  0.170200  0.316500  1
  C  C1650  1  0.302300  0.329800  0.183500  1
  C  C1651  1  0.697700  0.829800  0.683500  1
  C  C1652  1  0.697700  0.670200  0.816500  1
  C  C1653  1  0.265100  0.180800  0.340900  1
  C  C1654  1  0.265100  0.319200  0.159100  1
  C  C1655  1  0.734900  0.819200  0.659100  1
  C  C1656  1  0.734900  0.680800  0.840900  1
  C  C1657  1  0.272300  0.166400  0.369400  1
  C  C1658  1  0.272300  0.333600  0.130600  1
  C  C1659  1  0.727700  0.833600  0.630600  1
  C  C1660  1  0.727700  0.666400  0.869400  1
  C  C1661  1  0.316900  0.141500  0.374800  1
  C  C1662  1  0.316900  0.358500  0.125200  1
  C  C1663  1  0.683100  0.858500  0.625200  1
  C  C1664  1  0.683100  0.641500  0.874800  1
  C  C1665  1  0.536400  0.080000  0.314600  1
  C  C1666  1  0.536400  0.420000  0.185400  1
  C  C1667  1  0.463600  0.920000  0.685400  1
  C  C1668  1  0.463600  0.580000  0.814600  1
  C  C1669  1  0.586900  0.095400  0.322400  1
  C  C1670  1  0.586900  0.404600  0.177600  1
  C  C1671  1  0.413100  0.904600  0.677600  1
  C  C1672  1  0.413100  0.595400  0.822400  1
  C  C1673  1  0.626900  0.088200  0.299900  1
  C  C1674  1  0.626900  0.411800  0.200100  1
  C  C1675  1  0.373100  0.911800  0.700100  1
  C  C1676  1  0.373100  0.588200  0.799900  1
  C  C1677  1  0.616800  0.064400  0.268500  1
  C  C1678  1  0.616800  0.435600  0.231500  1
  C  C1679  1  0.383200  0.935600  0.731500  1
  C  C1680  1  0.383200  0.564400  0.768500  1
  C  C1681  1  0.566400  0.049600  0.260400  1
  C  C1682  1  0.566400  0.450400  0.239600  1
  C  C1683  1  0.433600  0.950400  0.739600  1
  C  C1684  1  0.433600  0.549600  0.760400  1
  C  C1685  1  0.526500  0.057100  0.282800  1
  C  C1686  1  0.526500  0.442900  0.217200  1
  C  C1687  1  0.473500  0.942900  0.717200  1
  C  C1688  1  0.473500  0.557100  0.782800  1
  C  C1689  1  0.672500  0.083700  0.228700  1
  C  C1690  1  0.672500  0.416300  0.271300  1
  C  C1691  1  0.327500  0.916300  0.771300  1
  C  C1692  1  0.327500  0.583700  0.728700  1
  C  C1693  1  0.714900  0.074300  0.204800  1
  C  C1694  1  0.714900  0.425700  0.295200  1
  C  C1695  1  0.285100  0.925700  0.795200  1
  C  C1696  1  0.285100  0.574300  0.704800  1
  C  C1697  1  0.729800  0.104500  0.185500  1
  C  C1698  1  0.729800  0.395500  0.314500  1
  C  C1699  1  0.270200  0.895500  0.814500  1
  C  C1700  1  0.270200  0.604500  0.685500  1
  C  C1701  1  0.768700  0.091300  0.162600  1
  C  C1702  1  0.768700  0.408700  0.337400  1
  C  C1703  1  0.231300  0.908700  0.837400  1
  C  C1704  1  0.231300  0.591300  0.662600  1
  C  C1705  1  0.791700  0.049200  0.159100  1
  C  C1706  1  0.791700  0.450800  0.340900  1
  C  C1707  1  0.208300  0.950800  0.840900  1
  C  C1708  1  0.208300  0.549200  0.659100  1
  C  C1709  1  0.774900  0.021000  0.179000  1
  C  C1710  1  0.774900  0.479000  0.321000  1
  C  C1711  1  0.225100  0.979000  0.821000  1
  C  C1712  1  0.225100  0.521000  0.679000  1
  C  C1713  1  0.827000  0.027000  0.659900  1
  C  C1714  1  0.827000  0.473000  0.840100  1
  C  C1715  1  0.173000  0.973000  0.340100  1
  C  C1716  1  0.173000  0.527000  0.159900  1
  C  C1717  1  0.796200  0.060200  0.650400  1
  C  C1718  1  0.796200  0.439800  0.849600  1
  C  C1719  1  0.203800  0.939800  0.349600  1
  C  C1720  1  0.203800  0.560200  0.150400  1
  C  C1721  1  0.782400  0.056600  0.618000  1
  C  C1722  1  0.782400  0.443400  0.882000  1
  C  C1723  1  0.217600  0.943400  0.382000  1
  C  C1724  1  0.217600  0.556600  0.118000  1
  C  C1725  1  0.799600  0.020700  0.594200  1
  C  C1726  1  0.799600  0.479300  0.905800  1
  C  C1727  1  0.200400  0.979300  0.405800  1
  C  C1728  1  0.200400  0.520700  0.094200  1
  C  C1729  1  0.828100  0.986700  0.604200  1
  C  C1730  1  0.828100  0.513300  0.895800  1
  C  C1731  1  0.171900  0.013300  0.395800  1
  C  C1732  1  0.171900  0.486700  0.104200  1
  C  C1733  1  0.840700  0.989200  0.636300  1
  C  C1734  1  0.840700  0.510800  0.863700  1
  C  C1735  1  0.159300  0.010800  0.363700  1
  C  C1736  1  0.159300  0.489200  0.136300  1
  C  C1737  1  0.786400  0.017200  0.559200  1
  C  C1738  1  0.786400  0.482800  0.940800  1
  C  C1739  1  0.213600  0.982800  0.440800  1
  C  C1740  1  0.213600  0.517200  0.059200  1
  C  C1741  1  0.734700  0.021700  0.550600  1
  C  C1742  1  0.734700  0.478300  0.949400  1
  C  C1743  1  0.265300  0.978300  0.449400  1
  C  C1744  1  0.265300  0.521700  0.050600  1
  C  C1745  1  0.719600  0.013800  0.519000  1
  C  C1746  1  0.719600  0.486200  0.981000  1
  C  C1747  1  0.280400  0.986200  0.481000  1
  C  C1748  1  0.280400  0.513800  0.019000  1
  C  C1749  1  0.756200  0.003000  0.493600  1
  C  C1750  1  0.756200  0.497000  0.006400  1
  C  C1751  1  0.243800  0.997000  0.506400  1
  C  C1752  1  0.243800  0.503000  0.993600  1
  C  C1753  1  0.810000  0.001800  0.501600  1
  C  C1754  1  0.810000  0.498200  0.998400  1
  C  C1755  1  0.190000  0.998200  0.498400  1
  C  C1756  1  0.190000  0.501800  0.001600  1
  C  C1757  1  0.823400  0.007400  0.535000  1
  C  C1758  1  0.823400  0.492600  0.965000  1
  C  C1759  1  0.176600  0.992600  0.465000  1
  C  C1760  1  0.176600  0.507400  0.035000  1
  C  C1761  1  0.738700  0.994000  0.459300  1
  C  C1762  1  0.738700  0.506000  0.040700  1
  C  C1763  1  0.261300  0.006000  0.540700  1
  C  C1764  1  0.261300  0.494000  0.959300  1
  C  C1765  1  0.686200  0.988500  0.450600  1
  C  C1766  1  0.686200  0.511500  0.049400  1
  C  C1767  1  0.313800  0.011500  0.549400  1
  C  C1768  1  0.313800  0.488500  0.950600  1
  C  C1769  1  0.670400  0.978600  0.418600  1
  C  C1770  1  0.670400  0.521400  0.081400  1
  C  C1771  1  0.329600  0.021400  0.581400  1
  C  C1772  1  0.329600  0.478600  0.918600  1
  C  C1773  1  0.707300  0.973400  0.393700  1
  C  C1774  1  0.707300  0.526600  0.106300  1
  C  C1775  1  0.292700  0.026600  0.606300  1
  C  C1776  1  0.292700  0.473400  0.893700  1
  C  C1777  1  0.758900  0.978500  0.401800  1
  C  C1778  1  0.758900  0.521500  0.098200  1
  C  C1779  1  0.241100  0.021500  0.598200  1
  C  C1780  1  0.241100  0.478500  0.901800  1
  C  C1781  1  0.777700  0.988400  0.434500  1
  C  C1782  1  0.777700  0.511600  0.065500  1
  C  C1783  1  0.222300  0.011600  0.565500  1
  C  C1784  1  0.222300  0.488400  0.934500  1
  C  C1785  1  0.831800  0.990700  0.441900  1
  C  C1786  1  0.831800  0.509300  0.058100  1
  C  C1787  1  0.168200  0.009300  0.558100  1
  C  C1788  1  0.168200  0.490700  0.941900  1
  C  C1789  1  0.871200  0.991000  0.418500  1
  C  C1790  1  0.871200  0.509000  0.081500  1
  C  C1791  1  0.128800  0.009000  0.581500  1
  C  C1792  1  0.128800  0.491000  0.918500  1
  C  C1793  1  0.922700  0.997800  0.426400  1
  C  C1794  1  0.922700  0.502200  0.073600  1
  C  C1795  1  0.077300  0.002200  0.573600  1
  C  C1796  1  0.077300  0.497800  0.926400  1
  C  C1797  1  0.938400  0.003900  0.458400  1
  C  C1798  1  0.938400  0.496100  0.041600  1
  C  C1799  1  0.061600  0.996100  0.541600  1
  C  C1800  1  0.061600  0.503900  0.958400  1
  C  C1801  1  0.902500  0.003600  0.482100  1
  C  C1802  1  0.902500  0.496400  0.017900  1
  C  C1803  1  0.097500  0.996400  0.517900  1
  C  C1804  1  0.097500  0.503600  0.982100  1
  C  C1805  1  0.849000  0.997200  0.476100  1
  C  C1806  1  0.849000  0.502800  0.023900  1
  C  C1807  1  0.151000  0.002800  0.523900  1
  C  C1808  1  0.151000  0.497200  0.976100  1
  C  C1809  1  0.690600  0.966000  0.358900  1
  C  C1810  1  0.690600  0.534000  0.141100  1
  C  C1811  1  0.309400  0.034000  0.641100  1
  C  C1812  1  0.309400  0.466000  0.858900  1
  C  C1813  1  0.723300  0.943800  0.334300  1
  C  C1814  1  0.723300  0.556200  0.165700  1
  C  C1815  1  0.276700  0.056200  0.665700  1
  C  C1816  1  0.276700  0.443800  0.834300  1
  C  C1817  1  0.711200  0.941200  0.301800  1
  C  C1818  1  0.711200  0.558800  0.198200  1
  C  C1819  1  0.288800  0.058800  0.698200  1
  C  C1820  1  0.288800  0.441200  0.801800  1
  C  C1821  1  0.665700  0.960800  0.293400  1
  C  C1822  1  0.665700  0.539200  0.206600  1
  C  C1823  1  0.334300  0.039200  0.706600  1
  C  C1824  1  0.334300  0.460800  0.793400  1
  C  C1825  1  0.631400  0.981200  0.317700  1
  C  C1826  1  0.631400  0.518800  0.182300  1
  C  C1827  1  0.368600  0.018800  0.682300  1
  C  C1828  1  0.368600  0.481200  0.817700  1
  C  C1829  1  0.643900  0.983900  0.350000  1
  C  C1830  1  0.643900  0.516100  0.150000  1
  C  C1831  1  0.356100  0.016100  0.650000  1
  C  C1832  1  0.356100  0.483900  0.850000  1
  C  C1833  1  0.612600  0.944500  0.246800  1
  C  C1834  1  0.612600  0.555500  0.253200  1
  C  C1835  1  0.387400  0.055500  0.753200  1
  C  C1836  1  0.387400  0.444500  0.746800  1
  C  C1837  1  0.604500  0.949000  0.212900  1
  C  C1838  1  0.604500  0.551000  0.287100  1
  C  C1839  1  0.395500  0.051000  0.787100  1
  C  C1840  1  0.395500  0.449000  0.712900  1
  C  C1841  1  0.560900  0.931200  0.195300  1
  C  C1842  1  0.560900  0.568800  0.304700  1
  C  C1843  1  0.439100  0.068800  0.804700  1
  C  C1844  1  0.439100  0.431200  0.695300  1
  C  C1845  1  0.555600  0.939200  0.164200  1
  C  C1846  1  0.555600  0.560800  0.335800  1
  C  C1847  1  0.444400  0.060800  0.835800  1
  C  C1848  1  0.444400  0.439200  0.664200  1
  C  C1849  1  0.593000  0.965100  0.152700  1
  C  C1850  1  0.593000  0.534900  0.347300  1
  C  C1851  1  0.407000  0.034900  0.847300  1
  C  C1852  1  0.407000  0.465100  0.652700  1
  C  C1853  1  0.635600  0.980800  0.171800  1
  C  C1854  1  0.635600  0.519200  0.328200  1
  C  C1855  1  0.364400  0.019200  0.828200  1
  C  C1856  1  0.364400  0.480800  0.671800  1
  C  C1857  1  0.839100  0.506200  0.544100  1
  C  C1858  1  0.839100  0.993800  0.955900  1
  C  C1859  1  0.160900  0.493800  0.455900  1
  C  C1860  1  0.160900  0.006200  0.044100  1
  C  C1861  1  0.867000  0.495400  0.515400  1
  C  C1862  1  0.867000  0.004600  0.984600  1
  C  C1863  1  0.133000  0.504600  0.484600  1
  C  C1864  1  0.133000  0.995400  0.015400  1
  C  C1865  1  0.860900  0.453500  0.494600  1
  C  C1866  1  0.860900  0.046500  0.005400  1
  C  C1867  1  0.139100  0.546500  0.505400  1
  C  C1868  1  0.139100  0.953500  0.994600  1
  C  C1869  1  0.806900  0.291200  0.435000  1
  C  C1870  1  0.806900  0.208800  0.065000  1
  C  C1871  1  0.193100  0.708800  0.565000  1
  C  C1872  1  0.193100  0.791200  0.935000  1
  C  C1873  1  0.857500  0.312200  0.438800  1
  C  C1874  1  0.857500  0.187800  0.061200  1
  C  C1875  1  0.142500  0.687800  0.561200  1
  C  C1876  1  0.142500  0.812200  0.938800  1
  C  C1877  1  0.862000  0.354500  0.460800  1
  C  C1878  1  0.862000  0.145500  0.039200  1
  C  C1879  1  0.138000  0.645500  0.539200  1
  C  C1880  1  0.138000  0.854500  0.960800  1
  C  C1881  1  0.827700  0.420300  0.501800  1
  C  C1882  1  0.827700  0.079700  0.998200  1
  C  C1883  1  0.172300  0.579700  0.498200  1
  C  C1884  1  0.172300  0.920300  0.001800  1
  C  C1885  1  0.801900  0.430700  0.531600  1
  C  C1886  1  0.801900  0.069300  0.968400  1
  C  C1887  1  0.198100  0.569300  0.468400  1
  C  C1888  1  0.198100  0.930700  0.031600  1
  C  C1889  1  0.808000  0.472200  0.552300  1
  C  C1890  1  0.808000  0.027800  0.947700  1
  C  C1891  1  0.192000  0.527800  0.447700  1
  C  C1892  1  0.192000  0.972200  0.052300  1
  C  C1893  1  0.821200  0.375000  0.480000  1
  C  C1894  1  0.821200  0.125000  0.020000  1
  C  C1895  1  0.178800  0.625000  0.520000  1
  C  C1896  1  0.178800  0.875000  0.980000  1
  C  C1897  1  0.774300  0.351400  0.477800  1
  C  C1898  1  0.774300  0.148600  0.022200  1
  C  C1899  1  0.225700  0.648600  0.522200  1
  C  C1900  1  0.225700  0.851400  0.977800  1
  C  C1901  1  0.766900  0.311900  0.455500  1
  C  C1902  1  0.766900  0.188100  0.044500  1
  C  C1903  1  0.233100  0.688100  0.544500  1
  C  C1904  1  0.233100  0.811900  0.955500  1
  C  C1905  1  0.799700  0.248500  0.412000  1
  C  C1906  1  0.799700  0.251500  0.088000  1
  C  C1907  1  0.200300  0.751500  0.588000  1
  C  C1908  1  0.200300  0.748500  0.912000  1
  C  C1909  1  0.751200  0.226900  0.406400  1
  C  C1910  1  0.751200  0.273100  0.093600  1
  C  C1911  1  0.248800  0.773100  0.593600  1
  C  C1912  1  0.248800  0.726900  0.906400  1
  C  C1913  1  0.743900  0.189800  0.382100  1
  C  C1914  1  0.743900  0.310200  0.117900  1
  C  C1915  1  0.256100  0.810200  0.617900  1
  C  C1916  1  0.256100  0.689800  0.882100  1
  C  C1917  1  0.784900  0.171500  0.361800  1
  C  C1918  1  0.784900  0.328500  0.138200  1
  C  C1919  1  0.215100  0.828500  0.638200  1
  C  C1920  1  0.215100  0.671500  0.861800  1
  C  C1921  1  0.834400  0.189500  0.368200  1
  C  C1922  1  0.834400  0.310500  0.131800  1
  C  C1923  1  0.165600  0.810500  0.631800  1
  C  C1924  1  0.165600  0.689500  0.868200  1
  C  C1925  1  0.844100  0.227800  0.393400  1
  C  C1926  1  0.844100  0.272200  0.106600  1
  C  C1927  1  0.155900  0.772200  0.606600  1
  C  C1928  1  0.155900  0.727800  0.893400  1
  C  C1929  1  0.896000  0.246600  0.399000  1
  C  C1930  1  0.896000  0.253400  0.101000  1
  C  C1931  1  0.104000  0.753400  0.601000  1
  C  C1932  1  0.104000  0.746600  0.899000  1
  C  C1933  1  0.940700  0.223600  0.383300  1
  C  C1934  1  0.940700  0.276400  0.116700  1
  C  C1935  1  0.059300  0.776400  0.616700  1
  C  C1936  1  0.059300  0.723600  0.883300  1
  C  C1937  1  0.989200  0.242100  0.389700  1
  C  C1938  1  0.989200  0.257900  0.110300  1
  C  C1939  1  0.010800  0.757900  0.610300  1
  C  C1940  1  0.010800  0.742100  0.889700  1
  C  C1941  1  0.995600  0.282000  0.411700  1
  C  C1942  1  0.995600  0.218000  0.088300  1
  C  C1943  1  0.004400  0.718000  0.588300  1
  C  C1944  1  0.004400  0.782000  0.911700  1
  C  C1945  1  0.955000  0.305800  0.427200  1
  C  C1946  1  0.955000  0.194200  0.072800  1
  C  C1947  1  0.045000  0.694200  0.572800  1
  C  C1948  1  0.045000  0.805800  0.927200  1
  C  C1949  1  0.903000  0.289200  0.421600  1
  C  C1950  1  0.903000  0.210800  0.078400  1
  C  C1951  1  0.097000  0.710800  0.578400  1
  C  C1952  1  0.097000  0.789200  0.921600  1
  C  C1953  1  0.776500  0.131100  0.335300  1
  C  C1954  1  0.776500  0.368900  0.164700  1
  C  C1955  1  0.223500  0.868900  0.664700  1
  C  C1956  1  0.223500  0.631100  0.835300  1
  C  C1957  1  0.785900  0.132200  0.303000  1
  C  C1958  1  0.785900  0.367800  0.197000  1
  C  C1959  1  0.214100  0.867800  0.697000  1
  C  C1960  1  0.214100  0.632200  0.803000  1
  C  C1961  1  0.780900  0.092900  0.279100  1
  C  C1962  1  0.780900  0.407100  0.220900  1
  C  C1963  1  0.219100  0.907100  0.720900  1
  C  C1964  1  0.219100  0.592900  0.779100  1
  C  C1965  1  0.764800  0.052900  0.287300  1
  C  C1966  1  0.764800  0.447100  0.212700  1
  C  C1967  1  0.235200  0.947100  0.712700  1
  C  C1968  1  0.235200  0.552900  0.787300  1
  C  C1969  1  0.752100  0.052100  0.319000  1
  C  C1970  1  0.752100  0.447900  0.181000  1
  C  C1971  1  0.247900  0.947900  0.681000  1
  C  C1972  1  0.247900  0.552100  0.819000  1
  C  C1973  1  0.759500  0.090900  0.343000  1
  C  C1974  1  0.759500  0.409100  0.157000  1
  C  C1975  1  0.240500  0.909100  0.657000  1
  C  C1976  1  0.240500  0.590900  0.843000  1
  C  C1977  1  0.797000  0.983200  0.258100  1
  C  C1978  1  0.797000  0.516800  0.241900  1
  C  C1979  1  0.203000  0.016800  0.741900  1
  C  C1980  1  0.203000  0.483200  0.758100  1
  C  C1981  1  0.786300  0.942500  0.233000  1
  C  C1982  1  0.786300  0.557500  0.267000  1
  C  C1983  1  0.213700  0.057500  0.767000  1
  C  C1984  1  0.213700  0.442500  0.733000  1
  C  C1985  1  0.821600  0.906800  0.225400  1
  C  C1986  1  0.821600  0.593200  0.274600  1
  C  C1987  1  0.178400  0.093200  0.774600  1
  C  C1988  1  0.178400  0.406800  0.725400  1
  C  C1989  1  0.807900  0.869200  0.202100  1
  C  C1990  1  0.807900  0.630800  0.297900  1
  C  C1991  1  0.192100  0.130800  0.797900  1
  C  C1992  1  0.192100  0.369200  0.702100  1
  C  C1993  1  0.759500  0.868100  0.188000  1
  C  C1994  1  0.759500  0.631900  0.312000  1
  C  C1995  1  0.240500  0.131900  0.812000  1
  C  C1996  1  0.240500  0.368100  0.688000  1
  C  C1997  1  0.727000  0.905300  0.196500  1
  C  C1998  1  0.727000  0.594700  0.303500  1
  C  C1999  1  0.273000  0.094700  0.803500  1
  C  C2000  1  0.273000  0.405300  0.696500  1
  C  C2001  1  0.827400  0.509500  0.543400  1
  C  C2002  1  0.827400  0.990500  0.956600  1
  C  C2003  1  0.172600  0.490500  0.456600  1
  C  C2004  1  0.172600  0.009500  0.043400  1
  C  C2005  1  0.793900  0.475600  0.549000  1
  C  C2006  1  0.793900  0.024400  0.951000  1
  C  C2007  1  0.206100  0.524400  0.451000  1
  C  C2008  1  0.206100  0.975600  0.049000  1
  C  C2009  1  0.786600  0.437100  0.525300  1
  C  C2010  1  0.786600  0.062900  0.974700  1
  C  C2011  1  0.213400  0.562900  0.474700  1
  C  C2012  1  0.213400  0.937100  0.025300  1
  C  C2013  1  0.811400  0.432400  0.495300  1
  C  C2014  1  0.811400  0.067600  0.004700  1
  C  C2015  1  0.188600  0.567600  0.504700  1
  C  C2016  1  0.188600  0.932400  0.995300  1
  C  C2017  1  0.844200  0.466800  0.490000  1
  C  C2018  1  0.844200  0.033200  0.010000  1
  C  C2019  1  0.155800  0.533200  0.510000  1
  C  C2020  1  0.155800  0.966800  0.990000  1
  C  C2021  1  0.852700  0.505000  0.513900  1
  C  C2022  1  0.852700  0.995000  0.986100  1
  C  C2023  1  0.147300  0.495000  0.486100  1
  C  C2024  1  0.147300  0.005000  0.013900  1
  C  C2025  1  0.798100  0.393400  0.468800  1
  C  C2026  1  0.798100  0.106600  0.031200  1
  C  C2027  1  0.201900  0.606600  0.531200  1
  C  C2028  1  0.201900  0.893400  0.968800  1
  C  C2029  1  0.748200  0.374800  0.467900  1
  C  C2030  1  0.748200  0.125200  0.032100  1
  C  C2031  1  0.251800  0.625200  0.532100  1
  C  C2032  1  0.251800  0.874800  0.967900  1
  C  C2033  1  0.731200  0.342400  0.442600  1
  C  C2034  1  0.731200  0.157600  0.057400  1
  C  C2035  1  0.268800  0.657600  0.557400  1
  C  C2036  1  0.268800  0.842400  0.942600  1
  C  C2037  1  0.764500  0.325600  0.416200  1
  C  C2038  1  0.764500  0.174400  0.083800  1
  C  C2039  1  0.235500  0.674400  0.583800  1
  C  C2040  1  0.235500  0.825600  0.916200  1
  C  C2041  1  0.816700  0.344000  0.416900  1
  C  C2042  1  0.816700  0.156000  0.083100  1
  C  C2043  1  0.183300  0.656000  0.583100  1
  C  C2044  1  0.183300  0.844000  0.916900  1
  C  C2045  1  0.832200  0.377700  0.443700  1
  C  C2046  1  0.832200  0.122300  0.056300  1
  C  C2047  1  0.167800  0.622300  0.556300  1
  C  C2048  1  0.167800  0.877700  0.943700  1
  C  C2049  1  0.744800  0.292900  0.388300  1
  C  C2050  1  0.744800  0.207100  0.111700  1
  C  C2051  1  0.255200  0.707100  0.611700  1
  C  C2052  1  0.255200  0.792900  0.888300  1
  C  C2053  1  0.693700  0.275600  0.387300  1
  C  C2054  1  0.693700  0.224400  0.112700  1
  C  C2055  1  0.306300  0.724400  0.612700  1
  C  C2056  1  0.306300  0.775600  0.887300  1
  C  C2057  1  0.675200  0.244300  0.361600  1
  C  C2058  1  0.675200  0.255700  0.138400  1
  C  C2059  1  0.324800  0.755700  0.638400  1
  C  C2060  1  0.324800  0.744300  0.861600  1
  C  C2061  1  0.706500  0.227700  0.334700  1
  C  C2062  1  0.706500  0.272300  0.165300  1
  C  C2063  1  0.293500  0.772300  0.665300  1
  C  C2064  1  0.293500  0.727700  0.834700  1
  C  C2065  1  0.756700  0.245000  0.334800  1
  C  C2066  1  0.756700  0.255000  0.165200  1
  C  C2067  1  0.243300  0.755000  0.665200  1
  C  C2068  1  0.243300  0.745000  0.834800  1
  C  C2069  1  0.778900  0.277600  0.360400  1
  C  C2070  1  0.778900  0.222400  0.139600  1
  C  C2071  1  0.221100  0.722400  0.639600  1
  C  C2072  1  0.221100  0.777600  0.860400  1
  C  C2073  1  0.831700  0.297400  0.360900  1
  C  C2074  1  0.831700  0.202600  0.139100  1
  C  C2075  1  0.168300  0.702600  0.639100  1
  C  C2076  1  0.168300  0.797400  0.860900  1
  C  C2077  1  0.865100  0.291400  0.333900  1
  C  C2078  1  0.865100  0.208600  0.166100  1
  C  C2079  1  0.134900  0.708600  0.666100  1
  C  C2080  1  0.134900  0.791400  0.833900  1
  C  C2081  1  0.908400  0.317000  0.332500  1
  C  C2082  1  0.908400  0.183000  0.167500  1
  C  C2083  1  0.091600  0.683000  0.667500  1
  C  C2084  1  0.091600  0.817000  0.832500  1
  C  C2085  1  0.923500  0.350600  0.358300  1
  C  C2086  1  0.923500  0.149400  0.141700  1
  C  C2087  1  0.076500  0.649400  0.641700  1
  C  C2088  1  0.076500  0.850600  0.858300  1
  C  C2089  1  0.895400  0.356000  0.386300  1
  C  C2090  1  0.895400  0.144000  0.113700  1
  C  C2091  1  0.104600  0.644000  0.613700  1
  C  C2092  1  0.104600  0.856000  0.886300  1
  C  C2093  1  0.849900  0.330900  0.388800  1
  C  C2094  1  0.849900  0.169100  0.111200  1
  C  C2095  1  0.150100  0.669100  0.611200  1
  C  C2096  1  0.150100  0.830900  0.888800  1
  C  C2097  1  0.687600  0.190400  0.308100  1
  C  C2098  1  0.687600  0.309600  0.191900  1
  C  C2099  1  0.312400  0.809600  0.691900  1
  C  C2100  1  0.312400  0.690400  0.808100  1
  C  C2101  1  0.651000  0.158400  0.313200  1
  C  C2102  1  0.651000  0.341600  0.186800  1
  C  C2103  1  0.349000  0.841600  0.686800  1
  C  C2104  1  0.349000  0.658400  0.813200  1
  C  C2105  1  0.641200  0.118900  0.290700  1
  C  C2106  1  0.641200  0.381100  0.209300  1
  C  C2107  1  0.358800  0.881100  0.709300  1
  C  C2108  1  0.358800  0.618900  0.790700  1
  C  C2109  1  0.668400  0.109200  0.261300  1
  C  C2110  1  0.668400  0.390800  0.238700  1
  C  C2111  1  0.331600  0.890800  0.738700  1
  C  C2112  1  0.331600  0.609200  0.761300  1
  C  C2113  1  0.702100  0.142700  0.255200  1
  C  C2114  1  0.702100  0.357300  0.244800  1
  C  C2115  1  0.297900  0.857300  0.744800  1
  C  C2116  1  0.297900  0.642700  0.755200  1
  C  C2117  1  0.711600  0.182200  0.277800  1
  C  C2118  1  0.711600  0.317800  0.222200  1
  C  C2119  1  0.288400  0.817800  0.722200  1
  C  C2120  1  0.288400  0.682200  0.777800  1
  C  C2121  1  0.625400  0.065300  0.219500  1
  C  C2122  1  0.625400  0.434700  0.280500  1
  C  C2123  1  0.374600  0.934700  0.780500  1
  C  C2124  1  0.374600  0.565300  0.719500  1
  C  C2125  1  0.616600  0.024200  0.194400  1
  C  C2126  1  0.616600  0.475800  0.305600  1
  C  C2127  1  0.383400  0.975800  0.805600  1
  C  C2128  1  0.383400  0.524200  0.694400  1
  C  C2129  1  0.575900  0.018400  0.172100  1
  C  C2130  1  0.575900  0.481600  0.327900  1
  C  C2131  1  0.424100  0.981600  0.827900  1
  C  C2132  1  0.424100  0.518400  0.672100  1
  C  C2133  1  0.571200  0.977400  0.150300  1
  C  C2134  1  0.571200  0.522600  0.349700  1
  C  C2135  1  0.428800  0.022600  0.849700  1
  C  C2136  1  0.428800  0.477400  0.650300  1
  C  C2137  1  0.607300  0.943200  0.150700  1
  C  C2138  1  0.607300  0.556800  0.349300  1
  C  C2139  1  0.392700  0.056800  0.849300  1
  C  C2140  1  0.392700  0.443200  0.650700  1
  C  C2141  1  0.647500  0.952600  0.172700  1
  C  C2142  1  0.647500  0.547400  0.327300  1
  C  C2143  1  0.352500  0.047400  0.827300  1
  C  C2144  1  0.352500  0.452600  0.672700  1
  C  C2145  1  0.842390  0.030690  0.658400  1
  C  C2146  1  0.842390  0.469310  0.841600  1
  C  C2147  1  0.157610  0.969310  0.341600  1
  C  C2148  1  0.157610  0.530690  0.158400  1
  C  C2149  1  0.810900  0.063300  0.649500  1
  C  C2150  1  0.810900  0.436700  0.850500  1
  C  C2151  1  0.189100  0.936700  0.350500  1
  C  C2152  1  0.189100  0.563300  0.149500  1
  C  C2153  1  0.806500  0.064600  0.617000  1
  C  C2154  1  0.806500  0.435400  0.883000  1
  C  C2155  1  0.193500  0.935400  0.383000  1
  C  C2156  1  0.193500  0.564600  0.117000  1
  C  C2157  1  0.827500  0.030100  0.593400  1
  C  C2158  1  0.827500  0.469900  0.906600  1
  C  C2159  1  0.172500  0.969900  0.406600  1
  C  C2160  1  0.172500  0.530100  0.093400  1
  C  C2161  1  0.860400  0.998800  0.602800  1
  C  C2162  1  0.860400  0.501200  0.897200  1
  C  C2163  1  0.139600  0.001200  0.397200  1
  C  C2164  1  0.139600  0.498800  0.102800  1
  C  C2165  1  0.869100  0.999700  0.635400  1
  C  C2166  1  0.869100  0.500300  0.864600  1
  C  C2167  1  0.130900  0.000300  0.364600  1
  C  C2168  1  0.130900  0.499700  0.135400  1
  C  C2169  1  0.812100  0.025400  0.558800  1
  C  C2170  1  0.812100  0.474600  0.941200  1
  C  C2171  1  0.187900  0.974600  0.441200  1
  C  C2172  1  0.187900  0.525400  0.058800  1
  C  C2173  1  0.765100  0.041800  0.549400  1
  C  C2174  1  0.765100  0.458200  0.950600  1
  C  C2175  1  0.234900  0.958200  0.450600  1
  C  C2176  1  0.234900  0.541800  0.049400  1
  C  C2177  1  0.756500  0.043600  0.517400  1
  C  C2178  1  0.756500  0.456400  0.982600  1
  C  C2179  1  0.243500  0.956400  0.482600  1
  C  C2180  1  0.243500  0.543600  0.017400  1
  C  C2181  1  0.793800  0.027400  0.493500  1
  C  C2182  1  0.793800  0.472600  0.006500  1
  C  C2183  1  0.206200  0.972600  0.506500  1
  C  C2184  1  0.206200  0.527400  0.993500  1
  C  C2185  1  0.840800  0.006700  0.502800  1
  C  C2186  1  0.840800  0.493300  0.997200  1
  C  C2187  1  0.159200  0.993300  0.497200  1
  C  C2188  1  0.159200  0.506700  0.002800  1
  C  C2189  1  0.848300  0.007000  0.535900  1
  C  C2190  1  0.848300  0.493000  0.964100  1
  C  C2191  1  0.151700  0.993000  0.464100  1
  C  C2192  1  0.151700  0.507000  0.035900  1
  C  C2193  1  0.788800  0.031500  0.459600  1
  C  C2194  1  0.788800  0.468500  0.040400  1
  C  C2195  1  0.211200  0.968500  0.540400  1
  C  C2196  1  0.211200  0.531500  0.959600  1
  C  C2197  1  0.746400  0.053200  0.447900  1
  C  C2198  1  0.746400  0.446800  0.052100  1
  C  C2199  1  0.253600  0.946800  0.552100  1
  C  C2200  1  0.253600  0.553200  0.947900  1
  C  C2201  1  0.743200  0.057200  0.416500  1
  C  C2202  1  0.743200  0.442800  0.083500  1
  C  C2203  1  0.256800  0.942800  0.583500  1
  C  C2204  1  0.256800  0.557200  0.916500  1
  C  C2205  1  0.782100  0.039700  0.394300  1
  C  C2206  1  0.782100  0.460300  0.105700  1
  C  C2207  1  0.217900  0.960300  0.605700  1
  C  C2208  1  0.217900  0.539700  0.894300  1
  C  C2209  1  0.825000  0.019200  0.404800  1
  C  C2210  1  0.825000  0.480800  0.095200  1
  C  C2211  1  0.175000  0.980800  0.595200  1
  C  C2212  1  0.175000  0.519200  0.904800  1
  C  C2213  1  0.830400  0.014300  0.437200  1
  C  C2214  1  0.830400  0.485700  0.062800  1
  C  C2215  1  0.169600  0.985700  0.562800  1
  C  C2216  1  0.169600  0.514300  0.937200  1
  C  C2217  1  0.876700  0.993300  0.447000  1
  C  C2218  1  0.876700  0.506700  0.053000  1
  C  C2219  1  0.123300  0.006700  0.553000  1
  C  C2220  1  0.123300  0.493300  0.947000  1
  C  C2221  1  0.919500  0.979400  0.426700  1
  C  C2222  1  0.919500  0.520600  0.073300  1
  C  C2223  1  0.080500  0.020600  0.573300  1
  C  C2224  1  0.080500  0.479400  0.926700  1
  C  C2225  1  0.964100  0.961900  0.437100  1
  C  C2226  1  0.964100  0.538100  0.062900  1
  C  C2227  1  0.035900  0.038100  0.562900  1
  C  C2228  1  0.035900  0.461900  0.937100  1
  C  C2229  1  0.966600  0.955100  0.468500  1
  C  C2230  1  0.966600  0.544900  0.031500  1
  C  C2231  1  0.033400  0.044900  0.531500  1
  C  C2232  1  0.033400  0.455100  0.968500  1
  C  C2233  1  0.925900  0.967400  0.489300  1
  C  C2234  1  0.925900  0.532600  0.010700  1
  C  C2235  1  0.074100  0.032600  0.510700  1
  C  C2236  1  0.074100  0.467400  0.989300  1
  C  C2237  1  0.778100  0.042000  0.359400  1
  C  C2238  1  0.778100  0.458000  0.140600  1
  C  C2239  1  0.221900  0.958000  0.640600  1
  C  C2240  1  0.221900  0.542000  0.859400  1
  C  C2241  1  0.881100  0.988100  0.480400  1
  C  C2242  1  0.881100  0.511900  0.019600  1
  C  C2243  1  0.118900  0.011900  0.519600  1
  C  C2244  1  0.118900  0.488100  0.980400  1
  C  C2245  1  0.755500  0.079100  0.349800  1
  C  C2246  1  0.755500  0.420900  0.150200  1
  C  C2247  1  0.244500  0.920900  0.650200  1
  C  C2248  1  0.244500  0.579100  0.849800  1
  C  C2249  1  0.750100  0.080000  0.317200  1
  C  C2250  1  0.750100  0.420000  0.182800  1
  C  C2251  1  0.249900  0.920000  0.682800  1
  C  C2252  1  0.249900  0.580000  0.817200  1
  C  C2253  1  0.767100  0.043700  0.293800  1
  C  C2254  1  0.767100  0.456300  0.206200  1
  C  C2255  1  0.232900  0.956300  0.706200  1
  C  C2256  1  0.232900  0.543700  0.793800  1
  C  C2257  1  0.791200  0.007300  0.303000  1
  C  C2258  1  0.791200  0.492700  0.197000  1
  C  C2259  1  0.208800  0.992700  0.697000  1
  C  C2260  1  0.208800  0.507300  0.803000  1
  C  C2261  1  0.796700  0.006300  0.335500  1
  C  C2262  1  0.796700  0.493700  0.164500  1
  C  C2263  1  0.203300  0.993700  0.664500  1
  C  C2264  1  0.203300  0.506300  0.835500  1
  C  C2265  1  0.793200  0.064500  0.248500  1
  C  C2266  1  0.793200  0.435500  0.251500  1
  C  C2267  1  0.206800  0.935500  0.751500  1
  C  C2268  1  0.206800  0.564500  0.748500  1
  C  C2269  1  0.785000  0.064500  0.214000  1
  C  C2270  1  0.785000  0.435500  0.286000  1
  C  C2271  1  0.215000  0.935500  0.786000  1
  C  C2272  1  0.215000  0.564500  0.714000  1
  C  C2273  1  0.817900  0.088500  0.197600  1
  C  C2274  1  0.817900  0.411500  0.302400  1
  C  C2275  1  0.182100  0.911500  0.802400  1
  C  C2276  1  0.182100  0.588500  0.697600  1
  C  C2277  1  0.806600  0.089800  0.165700  1
  C  C2278  1  0.806600  0.410200  0.334300  1
  C  C2279  1  0.193400  0.910200  0.834300  1
  C  C2280  1  0.193400  0.589800  0.665700  1
  C  C2281  1  0.763000  0.065600  0.152300  1
  C  C2282  1  0.763000  0.434400  0.347700  1
  C  C2283  1  0.237000  0.934400  0.847700  1
  C  C2284  1  0.237000  0.565600  0.652300  1
  C  C2285  1  0.734000  0.041600  0.170100  1
  C  C2286  1  0.734000  0.458400  0.329900  1
  C  C2287  1  0.266000  0.958400  0.829900  1
  C  C2288  1  0.266000  0.541600  0.670100  1
  C  C2289  1  0.176600  0.139400  0.531900  1
  C  C2290  1  0.176600  0.360600  0.968100  1
  C  C2291  1  0.823400  0.860600  0.468100  1
  C  C2292  1  0.823400  0.639400  0.031900  1
  C  C2293  1  0.227200  0.136700  0.543000  1
  C  C2294  1  0.227200  0.363300  0.957000  1
  C  C2295  1  0.772800  0.863300  0.457000  1
  C  C2296  1  0.772800  0.636700  0.043000  1
  C  C2297  1  0.268200  0.123700  0.521500  1
  C  C2298  1  0.268200  0.376300  0.978500  1
  C  C2299  1  0.731800  0.876300  0.478500  1
  C  C2300  1  0.731800  0.623700  0.021500  1
  C  C2301  1  0.259900  0.113300  0.488200  1
  C  C2302  1  0.259900  0.386700  0.011800  1
  C  C2303  1  0.740100  0.886700  0.511800  1
  C  C2304  1  0.740100  0.613300  0.988200  1
  C  C2305  1  0.208600  0.114600  0.477300  1
  C  C2306  1  0.208600  0.385400  0.022700  1
  C  C2307  1  0.791400  0.885400  0.522700  1
  C  C2308  1  0.791400  0.614600  0.977300  1
  C  C2309  1  0.167700  0.127400  0.498600  1
  C  C2310  1  0.167700  0.372600  0.001400  1
  C  C2311  1  0.832300  0.872600  0.501400  1
  C  C2312  1  0.832300  0.627400  0.998600  1
  C  C2313  1  0.303300  0.102800  0.464400  1
  C  C2314  1  0.303300  0.397200  0.035600  1
  C  C2315  1  0.696700  0.897200  0.535600  1
  C  C2316  1  0.696700  0.602800  0.964400  1
  C  C2317  1  0.346500  0.077700  0.470300  1
  C  C2318  1  0.346500  0.422300  0.029700  1
  C  C2319  1  0.653500  0.922300  0.529700  1
  C  C2320  1  0.653500  0.577700  0.970300  1
  C  C2321  1  0.386700  0.068400  0.448900  1
  C  C2322  1  0.386700  0.431600  0.051100  1
  C  C2323  1  0.613300  0.931600  0.551100  1
  C  C2324  1  0.613300  0.568400  0.948900  1
  C  C2325  1  0.386800  0.084500  0.419800  1
  C  C2326  1  0.386800  0.415500  0.080200  1
  C  C2327  1  0.613200  0.915500  0.580200  1
  C  C2328  1  0.613200  0.584500  0.919800  1
  C  C2329  1  0.343300  0.111500  0.413200  1
  C  C2330  1  0.343300  0.388500  0.086800  1
  C  C2331  1  0.656700  0.888500  0.586800  1
  C  C2332  1  0.656700  0.611500  0.913200  1
  C  C2333  1  0.302400  0.119200  0.436100  1
  C  C2334  1  0.302400  0.380800  0.063900  1
  C  C2335  1  0.697600  0.880800  0.563900  1
  C  C2336  1  0.697600  0.619200  0.936100  1
  C  C2337  1  0.428600  0.074200  0.396800  1
  C  C2338  1  0.428600  0.425800  0.103200  1
  C  C2339  1  0.571400  0.925800  0.603200  1
  C  C2340  1  0.571400  0.574200  0.896800  1
  C  C2341  1  0.472500  0.049600  0.402800  1
  C  C2342  1  0.472500  0.450400  0.097200  1
  C  C2343  1  0.527500  0.950400  0.597200  1
  C  C2344  1  0.527500  0.549600  0.902800  1
  C  C2345  1  0.512600  0.040000  0.381600  1
  C  C2346  1  0.512600  0.460000  0.118400  1
  C  C2347  1  0.487400  0.960000  0.618400  1
  C  C2348  1  0.487400  0.540000  0.881600  1
  C  C2349  1  0.511500  0.052900  0.351600  1
  C  C2350  1  0.511500  0.447100  0.148400  1
  C  C2351  1  0.488500  0.947100  0.648400  1
  C  C2352  1  0.488500  0.552900  0.851600  1
  C  C2353  1  0.469200  0.077300  0.344800  1
  C  C2354  1  0.469200  0.422700  0.155200  1
  C  C2355  1  0.530800  0.922700  0.655200  1
  C  C2356  1  0.530800  0.577300  0.844800  1
  C  C2357  1  0.427300  0.089700  0.366600  1
  C  C2358  1  0.427300  0.410300  0.133400  1
  C  C2359  1  0.572700  0.910300  0.633400  1
  C  C2360  1  0.572700  0.589700  0.866600  1
  C  C2361  1  0.384100  0.117100  0.360200  1
  C  C2362  1  0.384100  0.382900  0.139800  1
  C  C2363  1  0.615900  0.882900  0.639800  1
  C  C2364  1  0.615900  0.617100  0.860200  1
  C  C2365  1  0.381300  0.133700  0.331700  1
  C  C2366  1  0.381300  0.366300  0.168300  1
  C  C2367  1  0.618700  0.866300  0.668300  1
  C  C2368  1  0.618700  0.633700  0.831700  1
  C  C2369  1  0.342400  0.162000  0.326200  1
  C  C2370  1  0.342400  0.338000  0.173800  1
  C  C2371  1  0.657600  0.838000  0.673800  1
  C  C2372  1  0.657600  0.662000  0.826200  1
  C  C2373  1  0.304400  0.175300  0.349500  1
  C  C2374  1  0.304400  0.324700  0.150500  1
  C  C2375  1  0.695600  0.824700  0.650500  1
  C  C2376  1  0.695600  0.675300  0.849500  1
  C  C2377  1  0.304100  0.158900  0.377100  1
  C  C2378  1  0.304100  0.341100  0.122900  1
  C  C2379  1  0.695900  0.841100  0.622900  1
  C  C2380  1  0.695900  0.658900  0.877100  1
  C  C2381  1  0.342800  0.129200  0.383800  1
  C  C2382  1  0.342800  0.370800  0.116200  1
  C  C2383  1  0.657200  0.870800  0.616200  1
  C  C2384  1  0.657200  0.629200  0.883800  1
  C  C2385  1  0.553800  0.037200  0.327600  1
  C  C2386  1  0.553800  0.462800  0.172400  1
  C  C2387  1  0.446200  0.962800  0.672400  1
  C  C2388  1  0.446200  0.537200  0.827600  1
  C  C2389  1  0.603500  0.027400  0.337600  1
  C  C2390  1  0.603500  0.472600  0.162400  1
  C  C2391  1  0.396500  0.972600  0.662400  1
  C  C2392  1  0.396500  0.527400  0.837600  1
  C  C2393  1  0.641900  0.009200  0.315400  1
  C  C2394  1  0.641900  0.490800  0.184600  1
  C  C2395  1  0.358100  0.990800  0.684600  1
  C  C2396  1  0.358100  0.509200  0.815400  1
  C  C2397  1  0.630500  0.000600  0.282400  1
  C  C2398  1  0.630500  0.499400  0.217600  1
  C  C2399  1  0.369500  0.999400  0.717600  1
  C  C2400  1  0.369500  0.500600  0.782400  1
  C  C2401  1  0.581500  0.011300  0.272300  1
  C  C2402  1  0.581500  0.488700  0.227700  1
  C  C2403  1  0.418500  0.988700  0.727700  1
  C  C2404  1  0.418500  0.511300  0.772300  1
  C  C2405  1  0.543200  0.028800  0.294500  1
  C  C2406  1  0.543200  0.471200  0.205500  1
  C  C2407  1  0.456800  0.971200  0.705500  1
  C  C2408  1  0.456800  0.528800  0.794500  1
  C  C2409  1  0.689800  0.939800  0.260100  1
  C  C2410  1  0.689800  0.560200  0.239900  1
  C  C2411  1  0.310200  0.060200  0.739900  1
  C  C2412  1  0.310200  0.439800  0.760100  1
  C  C2413  1  0.732100  0.922900  0.237100  1
  C  C2414  1  0.732100  0.577100  0.262900  1
  C  C2415  1  0.267900  0.077100  0.762900  1
  C  C2416  1  0.267900  0.422900  0.737100  1
  C  C2417  1  0.750800  0.878700  0.233500  1
  C  C2418  1  0.750800  0.621300  0.266500  1
  C  C2419  1  0.249200  0.121300  0.766500  1
  C  C2420  1  0.249200  0.378700  0.733500  1
  C  C2421  1  0.787900  0.863600  0.209800  1
  C  C2422  1  0.787900  0.636400  0.290200  1
  C  C2423  1  0.212100  0.136400  0.790200  1
  C  C2424  1  0.212100  0.363600  0.709800  1
  C  C2425  1  0.806000  0.892800  0.191000  1
  C  C2426  1  0.806000  0.607200  0.309000  1
  C  C2427  1  0.194000  0.107200  0.809000  1
  C  C2428  1  0.194000  0.392800  0.691000  1
  C  C2429  1  0.786500  0.936700  0.196800  1
  C  C2430  1  0.786500  0.563300  0.303200  1
  C  C2431  1  0.213500  0.063300  0.803200  1
  C  C2432  1  0.213500  0.436700  0.696800  1
  N  N2433  1  0.837700  0.619800  0.533460  1
  N  N2434  1  0.837700  0.880200  0.966540  1
  N  N2435  1  0.162300  0.380200  0.466540  1
  N  N2436  1  0.162300  0.119800  0.033460  1
  N  N2437  1  0.750200  0.574600  0.527720  1
  N  N2438  1  0.750200  0.925400  0.972280  1
  N  N2439  1  0.249800  0.425400  0.472280  1
  N  N2440  1  0.249800  0.074600  0.027720  1
  N  N2441  1  0.137300  0.238500  0.525100  1
  N  N2442  1  0.137300  0.261500  0.974900  1
  N  N2443  1  0.862700  0.761500  0.474900  1
  N  N2444  1  0.862700  0.738500  0.025100  1
  N  N2445  1  0.049500  0.197400  0.527800  1
  N  N2446  1  0.049500  0.302600  0.972200  1
  N  N2447  1  0.950500  0.802600  0.472200  1
  N  N2448  1  0.950500  0.697400  0.027800  1
  N  N2449  1  0.772200  0.963600  0.752100  1
  N  N2450  1  0.772200  0.536400  0.747900  1
  N  N2451  1  0.227800  0.036400  0.247900  1
  N  N2452  1  0.227800  0.463600  0.252100  1
  N  N2453  1  0.760700  0.044400  0.740760  1
  N  N2454  1  0.760700  0.455600  0.759240  1
  N  N2455  1  0.239300  0.955600  0.259240  1
  N  N2456  1  0.239300  0.544400  0.240760  1
  N  N2457  1  0.740400  0.588400  0.599650  1
  N  N2458  1  0.740400  0.911600  0.900350  1
  N  N2459  1  0.259600  0.411600  0.400350  1
  N  N2460  1  0.259600  0.088400  0.099650  1
  N  N2461  1  0.746000  0.658900  0.573820  1
  N  N2462  1  0.746000  0.841100  0.926180  1
  N  N2463  1  0.254000  0.341100  0.426180  1
  N  N2464  1  0.254000  0.158900  0.073820  1
  N  N2465  1  0.852300  0.940500  0.703400  1
  N  N2466  1  0.852300  0.559500  0.796600  1
  N  N2467  1  0.147700  0.059500  0.296600  1
  N  N2468  1  0.147700  0.440500  0.203400  1
  N  N2469  1  0.759900  0.963500  0.686500  1
  N  N2470  1  0.759900  0.536500  0.813500  1
  N  N2471  1  0.240100  0.036500  0.313500  1
  N  N2472  1  0.240100  0.463500  0.186500  1
  N  N2473  1  0.152400  0.244500  0.593900  1
  N  N2474  1  0.152400  0.255500  0.906100  1
  N  N2475  1  0.847600  0.755500  0.406100  1
  N  N2476  1  0.847600  0.744500  0.093900  1
  N  N2477  1  0.067700  0.278300  0.575400  1
  N  N2478  1  0.067700  0.221700  0.924600  1
  N  N2479  1  0.932300  0.721700  0.424600  1
  N  N2480  1  0.932300  0.778300  0.075400  1
  N  N2481  1  0.063000  0.191500  0.594900  1
  N  N2482  1  0.063000  0.308500  0.905100  1
  N  N2483  1  0.937000  0.808500  0.405100  1
  N  N2484  1  0.937000  0.691500  0.094900  1
  N  N2485  1  0.134700  0.157000  0.553500  1
  N  N2486  1  0.134700  0.343000  0.946500  1
  N  N2487  1  0.865300  0.843000  0.446500  1
  N  N2488  1  0.865300  0.657000  0.053500  1
  N  N2489  1  0.864400  0.021500  0.750670  1
  N  N2490  1  0.864400  0.478500  0.749330  1
  N  N2491  1  0.135600  0.978500  0.249330  1
  N  N2492  1  0.135600  0.521500  0.250670  1
  N  N2493  1  0.847300  0.029000  0.691680  1
  N  N2494  1  0.847300  0.471000  0.808320  1
  N  N2495  1  0.152700  0.971000  0.308320  1
  N  N2496  1  0.152700  0.529000  0.191680  1
  N  N2497  1  0.841100  0.630300  0.601880  1
  N  N2498  1  0.841100  0.869700  0.898120  1
  N  N2499  1  0.158900  0.369700  0.398120  1
  N  N2500  1  0.158900  0.130300  0.101880  1
  N  N2501  1  0.837700  0.550400  0.565270  1
  N  N2502  1  0.837700  0.949600  0.934730  1
  N  N2503  1  0.162300  0.449600  0.434730  1
  N  N2504  1  0.162300  0.050400  0.065270  1
  N  N2505  1  0.656900  0.055600  0.245000  1
  N  N2506  1  0.656900  0.444400  0.255000  1
  N  N2507  1  0.343100  0.944400  0.755000  1
  N  N2508  1  0.343100  0.555600  0.745000  1
  N  N2509  1  0.738400  0.034000  0.201200  1
  N  N2510  1  0.738400  0.466000  0.298800  1
  N  N2511  1  0.261600  0.966000  0.798800  1
  N  N2512  1  0.261600  0.534000  0.701200  1
  N  N2513  1  0.654600  0.962200  0.260300  1
  N  N2514  1  0.654600  0.537800  0.239700  1
  N  N2515  1  0.345400  0.037800  0.739700  1
  N  N2516  1  0.345400  0.462200  0.760300  1
  N  N2517  1  0.642200  0.972900  0.201900  1
  N  N2518  1  0.642200  0.527100  0.298100  1
  N  N2519  1  0.357800  0.027100  0.798100  1
  N  N2520  1  0.357800  0.472900  0.701900  1
  N  N2521  1  0.759400  0.012200  0.263300  1
  N  N2522  1  0.759400  0.487800  0.236700  1
  N  N2523  1  0.240600  0.987800  0.736700  1
  N  N2524  1  0.240600  0.512200  0.763300  1
  N  N2525  1  0.739300  0.943000  0.218600  1
  N  N2526  1  0.739300  0.557000  0.281400  1
  N  N2527  1  0.260700  0.057000  0.781400  1
  N  N2528  1  0.260700  0.443000  0.718600  1
  N  N2529  1  0.666000  0.065300  0.239400  1
  N  N2530  1  0.666000  0.434700  0.260600  1
  N  N2531  1  0.334000  0.934700  0.760600  1
  N  N2532  1  0.334000  0.565300  0.739400  1
  N  N2533  1  0.651600  0.991200  0.194700  1
  N  N2534  1  0.651600  0.508800  0.305300  1
  N  N2535  1  0.348400  0.008800  0.805300  1
  N  N2536  1  0.348400  0.491200  0.694700  1
  N  N2537  1  0.758100  0.040100  0.259900  1
  N  N2538  1  0.758100  0.459900  0.240100  1
  N  N2539  1  0.241900  0.959900  0.740100  1
  N  N2540  1  0.241900  0.540100  0.759900  1
  N  N2541  1  0.742700  0.040000  0.201600  1
  N  N2542  1  0.742700  0.460000  0.298400  1
  N  N2543  1  0.257300  0.960000  0.798400  1
  N  N2544  1  0.257300  0.540000  0.701600  1
  N  N2545  1  0.670900  0.979000  0.262200  1
  N  N2546  1  0.670900  0.521000  0.237800  1
  N  N2547  1  0.329100  0.021000  0.737800  1
  N  N2548  1  0.329100  0.479000  0.762200  1
  N  N2549  1  0.750400  0.951700  0.219300  1
  N  N2550  1  0.750400  0.548300  0.280700  1
  N  N2551  1  0.249600  0.048300  0.780700  1
  N  N2552  1  0.249600  0.451700  0.719300  1
  F  F2553  1  0.258600  0.431800  0.627100  1
  F  F2554  1  0.258600  0.068200  0.872900  1
  F  F2555  1  0.741400  0.568200  0.372900  1
  F  F2556  1  0.741400  0.931800  0.127100  1
  F  F2557  1  0.202500  0.377100  0.610500  1
  F  F2558  1  0.202500  0.122900  0.889500  1
  F  F2559  1  0.797500  0.622900  0.389500  1
  F  F2560  1  0.797500  0.877100  0.110500  1
  F  F2561  1  0.212000  0.437000  0.583600  1
  F  F2562  1  0.212000  0.063000  0.916400  1
  F  F2563  1  0.788000  0.563000  0.416400  1
  F  F2564  1  0.788000  0.937000  0.083600  1
  F  F2565  1  0.171200  0.443400  0.632900  1
  F  F2566  1  0.171200  0.056600  0.867100  1
  F  F2567  1  0.828800  0.556600  0.367100  1
  F  F2568  1  0.828800  0.943400  0.132900  1
  F  F2569  1  0.817500  0.794900  0.571500  1
  F  F2570  1  0.817500  0.705100  0.928500  1
  F  F2571  1  0.182500  0.205100  0.428500  1
  F  F2572  1  0.182500  0.294900  0.071500  1
  F  F2573  1  0.894800  0.815700  0.592900  1
  F  F2574  1  0.894800  0.684300  0.907100  1
  F  F2575  1  0.105200  0.184300  0.407100  1
  F  F2576  1  0.105200  0.315700  0.092900  1
  F  F2577  1  0.882400  0.742900  0.572000  1
  F  F2578  1  0.882400  0.757100  0.928000  1
  F  F2579  1  0.117600  0.257100  0.428000  1
  F  F2580  1  0.117600  0.242900  0.072000  1
  F  F2581  1  0.846900  0.774600  0.619900  1
  F  F2582  1  0.846900  0.725400  0.880100  1
  F  F2583  1  0.153100  0.225400  0.380100  1
  F  F2584  1  0.153100  0.274600  0.119900  1
  F  F2585  1  0.068400  0.030300  0.657400  1
  F  F2586  1  0.068400  0.469700  0.842600  1
  F  F2587  1  0.931600  0.969700  0.342600  1
  F  F2588  1  0.931600  0.530300  0.157400  1
  F  F2589  1  0.013700  0.073300  0.690100  1
  F  F2590  1  0.013700  0.426700  0.809900  1
  F  F2591  1  0.986300  0.926700  0.309900  1
  F  F2592  1  0.986300  0.573300  0.190100  1
  F  F2593  1  0.994900  0.999100  0.674800  1
  F  F2594  1  0.994900  0.500900  0.825200  1
  F  F2595  1  0.005100  0.000900  0.325200  1
  F  F2596  1  0.005100  0.499100  0.174800  1
  F  F2597  1  0.062200  0.022600  0.709200  1
  F  F2598  1  0.062200  0.477400  0.790800  1
  F  F2599  1  0.937800  0.977400  0.290800  1
  F  F2600  1  0.937800  0.522600  0.209200  1
  F  F2601  1  0.100100  0.320500  0.721900  1
  F  F2602  1  0.100100  0.179500  0.778100  1
  F  F2603  1  0.899900  0.679500  0.278100  1
  F  F2604  1  0.899900  0.820500  0.221900  1
  F  F2605  1  0.142700  0.276000  0.680400  1
  F  F2606  1  0.142700  0.224000  0.819600  1
  F  F2607  1  0.857300  0.724000  0.319600  1
  F  F2608  1  0.857300  0.776000  0.180400  1
  F  F2609  1  0.066000  0.305900  0.671700  1
  F  F2610  1  0.066000  0.194100  0.828300  1
  F  F2611  1  0.934000  0.694100  0.328300  1
  F  F2612  1  0.934000  0.805900  0.171700  1
  F  F2613  1  0.068200  0.251800  0.700900  1
  F  F2614  1  0.068200  0.248200  0.799100  1
  F  F2615  1  0.931800  0.748200  0.299100  1
  F  F2616  1  0.931800  0.751800  0.200900  1
  F  F2617  1  0.965400  0.439600  0.634700  1
  F  F2618  1  0.965400  0.060400  0.865300  1
  F  F2619  1  0.034600  0.560400  0.365300  1
  F  F2620  1  0.034600  0.939600  0.134700  1
  F  F2621  1  0.952000  0.442400  0.584000  1
  F  F2622  1  0.952000  0.057600  0.916000  1
  F  F2623  1  0.048000  0.557600  0.416000  1
  F  F2624  1  0.048000  0.942400  0.084000  1
  F  F2625  1  0.966400  0.508200  0.618400  1
  F  F2626  1  0.966400  0.991800  0.881600  1
  F  F2627  1  0.033600  0.491800  0.381600  1
  F  F2628  1  0.033600  0.008200  0.118400  1
  F  F2629  1  0.889900  0.467300  0.620300  1
  F  F2630  1  0.889900  0.032700  0.879700  1
  F  F2631  1  0.110100  0.532700  0.379700  1
  F  F2632  1  0.110100  0.967300  0.120300  1
  F  F2633  1  0.835600  0.816900  0.578000  1
  F  F2634  1  0.835600  0.683100  0.922000  1
  F  F2635  1  0.164400  0.183100  0.422000  1
  F  F2636  1  0.164400  0.316900  0.078000  1
  F  F2637  1  0.907000  0.793400  0.600000  1
  F  F2638  1  0.907000  0.706600  0.900000  1
  F  F2639  1  0.093000  0.206600  0.400000  1
  F  F2640  1  0.093000  0.293400  0.100000  1
  F  F2641  1  0.854000  0.741400  0.567500  1
  F  F2642  1  0.854000  0.758600  0.932500  1
  F  F2643  1  0.146000  0.258600  0.432500  1
  F  F2644  1  0.146000  0.241400  0.067500  1
  F  F2645  1  0.821700  0.776500  0.614400  1
  F  F2646  1  0.821700  0.723500  0.885600  1
  F  F2647  1  0.178300  0.223500  0.385600  1
  F  F2648  1  0.178300  0.276500  0.114400  1
  F  F2649  1  0.984100  0.459700  0.636500  1
  F  F2650  1  0.984100  0.040300  0.863500  1
  F  F2651  1  0.015900  0.540300  0.363500  1
  F  F2652  1  0.015900  0.959700  0.136500  1
  F  F2653  1  0.965000  0.478200  0.589000  1
  F  F2654  1  0.965000  0.021800  0.911000  1
  F  F2655  1  0.035000  0.521800  0.411000  1
  F  F2656  1  0.035000  0.978200  0.089000  1
  F  F2657  1  0.910800  0.430000  0.608800  1
  F  F2658  1  0.910800  0.070000  0.891200  1
  F  F2659  1  0.089200  0.570000  0.391200  1
  F  F2660  1  0.089200  0.930000  0.108800  1
  F  F2661  1  0.914900  0.503900  0.632100  1
  F  F2662  1  0.914900  0.996100  0.867900  1
  F  F2663  1  0.085100  0.496100  0.367900  1
  F  F2664  1  0.085100  0.003900  0.132100  1
  F  F2665  1  0.399100  0.905500  0.237000  1
  F  F2666  1  0.399100  0.594500  0.263000  1
  F  F2667  1  0.600900  0.094500  0.763000  1
  F  F2668  1  0.600900  0.405500  0.737000  1
  F  F2669  1  0.461800  0.959600  0.241800  1
  F  F2670  1  0.461800  0.540400  0.258200  1
  F  F2671  1  0.538200  0.040400  0.758200  1
  F  F2672  1  0.538200  0.459600  0.741800  1
  F  F2673  1  0.382300  0.974200  0.224800  1
  F  F2674  1  0.382300  0.525800  0.275200  1
  F  F2675  1  0.617700  0.025800  0.775200  1
  F  F2676  1  0.617700  0.474200  0.724800  1
  F  F2677  1  0.434100  0.923200  0.192800  1
  F  F2678  1  0.434100  0.576800  0.307200  1
  F  F2679  1  0.565900  0.076800  0.807200  1
  F  F2680  1  0.565900  0.423200  0.692800  1
  F  F2681  1  0.388600  0.929300  0.234100  1
  F  F2682  1  0.388600  0.570700  0.265900  1
  F  F2683  1  0.611400  0.070700  0.765900  1
  F  F2684  1  0.611400  0.429300  0.734100  1
  F  F2685  1  0.465300  0.965400  0.235900  1
  F  F2686  1  0.465300  0.534600  0.264100  1
  F  F2687  1  0.534700  0.034600  0.764100  1
  F  F2688  1  0.534700  0.465400  0.735900  1
  F  F2689  1  0.409100  0.970600  0.196400  1
  F  F2690  1  0.409100  0.529400  0.303600  1
  F  F2691  1  0.590900  0.029400  0.803600  1
  F  F2692  1  0.590900  0.470600  0.696400  1
  F  F2693  1  0.448400  0.903900  0.195800  1
  F  F2694  1  0.448400  0.596100  0.304200  1
  F  F2695  1  0.551600  0.096100  0.804200  1
  F  F2696  1  0.551600  0.403900  0.695800  1
