# generated using pymatgen
data_Fe2As3H105C139S4N14(O2F9)4
_symmetry_space_group_name_H-M   'P 1'
_cell_length_a   16.87200000
_cell_length_b   22.65660725
_cell_length_c   42.26490000
_cell_angle_alpha   97.68460484
_cell_angle_beta   90.00000000
_cell_angle_gamma   111.86010959
_symmetry_Int_Tables_number   1
_chemical_formula_structural   Fe2As3H105C139S4N14(O2F9)4
_chemical_formula_sum   'Fe8 As12 H420 C556 S16 N56 O32 F144'
_cell_volume   14838.11889477
_cell_formula_units_Z   4
loop_
 _symmetry_equiv_pos_site_id
 _symmetry_equiv_pos_as_xyz
  1  'x, y, z'
loop_
 _atom_site_type_symbol
 _atom_site_label
 _atom_site_symmetry_multiplicity
 _atom_site_fract_x
 _atom_site_fract_y
 _atom_site_fract_z
 _atom_site_occupancy
  As  As1  1  0.001860  0.752000  0.982110  1
  As  As2  1  0.249860  0.248000  0.517890  1
  As  As3  1  0.998140  0.248000  0.017890  1
  As  As4  1  0.750140  0.752000  0.482110  1
  As  As5  1  0.894930  0.519560  0.690780  1
  As  As6  1  0.375370  0.480440  0.809220  1
  As  As7  1  0.105070  0.480440  0.309220  1
  As  As8  1  0.624630  0.519560  0.190780  1
  As  As9  1  0.860900  0.239000  0.696250  1
  As  As10  1  0.621900  0.761000  0.803750  1
  As  As11  1  0.139100  0.761000  0.303750  1
  As  As12  1  0.378100  0.239000  0.196250  1
  C  C13  1  0.276600  0.132600  0.775300  1
  C  C14  1  0.144000  0.867400  0.724700  1
  C  C15  1  0.723400  0.867400  0.224700  1
  C  C16  1  0.856000  0.132600  0.275300  1
  C  C17  1  0.302100  0.103000  0.748500  1
  C  C18  1  0.199100  0.897000  0.751500  1
  C  C19  1  0.697900  0.897000  0.251500  1
  C  C20  1  0.800900  0.103000  0.248500  1
  C  C21  1  0.375800  0.089600  0.750500  1
  C  C22  1  0.286200  0.910400  0.749500  1
  C  C23  1  0.624200  0.910400  0.249500  1
  C  C24  1  0.713800  0.089600  0.250500  1
  C  C25  1  0.423900  0.105800  0.779200  1
  C  C26  1  0.318100  0.894200  0.720800  1
  C  C27  1  0.576100  0.894200  0.220800  1
  C  C28  1  0.681900  0.105800  0.279200  1
  C  C29  1  0.398400  0.135400  0.806100  1
  C  C30  1  0.263000  0.864600  0.693900  1
  C  C31  1  0.601600  0.864600  0.193900  1
  C  C32  1  0.737000  0.135400  0.306100  1
  C  C33  1  0.324700  0.148800  0.804100  1
  C  C34  1  0.175900  0.851200  0.695900  1
  C  C35  1  0.675300  0.851200  0.195900  1
  C  C36  1  0.824100  0.148800  0.304100  1
  C  C37  1  0.024500  0.061200  0.704300  1
  C  C38  1  0.963300  0.938800  0.795700  1
  C  C39  1  0.975500  0.938800  0.295700  1
  C  C40  1  0.036700  0.061200  0.204300  1
  C  C41  1  0.979800  0.027200  0.675800  1
  C  C42  1  0.952600  0.972800  0.824200  1
  C  C43  1  0.020200  0.972800  0.324200  1
  C  C44  1  0.047400  0.027200  0.175800  1
  C  C45  1  0.997500  0.975800  0.660300  1
  C  C46  1  0.021700  0.024200  0.839700  1
  C  C47  1  0.002500  0.024200  0.339700  1
  C  C48  1  0.978300  0.975800  0.160300  1
  C  C49  1  0.059900  0.958400  0.673200  1
  C  C50  1  0.101500  0.041600  0.826800  1
  C  C51  1  0.940100  0.041600  0.326800  1
  C  C52  1  0.898500  0.958400  0.173200  1
  C  C53  1  0.104700  0.992400  0.701700  1
  C  C54  1  0.112300  0.007600  0.798300  1
  C  C55  1  0.895300  0.007600  0.298300  1
  C  C56  1  0.887700  0.992400  0.201700  1
  C  C57  1  0.087000  0.043800  0.717200  1
  C  C58  1  0.043200  0.956200  0.782800  1
  C  C59  1  0.913000  0.956200  0.282800  1
  C  C60  1  0.956800  0.043800  0.217200  1
  C  C61  1  0.340700  0.265800  0.419200  1
  C  C62  1  0.074900  0.734200  0.080800  1
  C  C63  1  0.659300  0.734200  0.580800  1
  C  C64  1  0.925100  0.265800  0.919200  1
  C  C65  1  0.356400  0.232000  0.391600  1
  C  C66  1  0.124400  0.768000  0.108400  1
  C  C67  1  0.643600  0.768000  0.608400  1
  C  C68  1  0.875600  0.232000  0.891600  1
  C  C69  1  0.342900  0.247400  0.361800  1
  C  C70  1  0.095500  0.752600  0.138200  1
  C  C71  1  0.657100  0.752600  0.638200  1
  C  C72  1  0.904500  0.247400  0.861800  1
  C  C73  1  0.313900  0.296800  0.359700  1
  C  C74  1  0.017100  0.703200  0.140300  1
  C  C75  1  0.686100  0.703200  0.640300  1
  C  C76  1  0.982900  0.296800  0.859700  1
  C  C77  1  0.298200  0.330600  0.387400  1
  C  C78  1  0.967600  0.669400  0.112600  1
  C  C79  1  0.701800  0.669400  0.612600  1
  C  C80  1  0.032400  0.330600  0.887400  1
  C  C81  1  0.311600  0.315000  0.417100  1
  C  C82  1  0.996600  0.685000  0.082900  1
  C  C83  1  0.688400  0.685000  0.582900  1
  C  C84  1  0.003400  0.315000  0.917100  1
  C  C85  1  0.273600  0.016400  0.652200  1
  C  C86  1  0.257200  0.983600  0.847800  1
  C  C87  1  0.726400  0.983600  0.347800  1
  C  C88  1  0.742800  0.016400  0.152200  1
  C  C89  1  0.245700  0.064000  0.645200  1
  C  C90  1  0.181700  0.936000  0.854800  1
  C  C91  1  0.754300  0.936000  0.354800  1
  C  C92  1  0.818300  0.064000  0.145200  1
  C  C93  1  0.304300  0.121800  0.637800  1
  C  C94  1  0.182500  0.878200  0.862200  1
  C  C95  1  0.695700  0.878200  0.362200  1
  C  C96  1  0.817500  0.121800  0.137800  1
  C  C97  1  0.390700  0.132000  0.637400  1
  C  C98  1  0.258700  0.868000  0.862600  1
  C  C99  1  0.609300  0.868000  0.362600  1
  C  C100  1  0.741300  0.132000  0.137400  1
  C  C101  1  0.418600  0.084400  0.644400  1
  C  C102  1  0.334200  0.915600  0.855600  1
  C  C103  1  0.581400  0.915600  0.355600  1
  C  C104  1  0.665800  0.084400  0.144400  1
  C  C105  1  0.360100  0.026600  0.651800  1
  C  C106  1  0.333500  0.973400  0.848200  1
  C  C107  1  0.639900  0.973400  0.348200  1
  C  C108  1  0.666500  0.026600  0.151800  1
  C  C109  1  0.842100  0.693800  0.705500  1
  C  C110  1  0.148300  0.306200  0.794500  1
  C  C111  1  0.157900  0.306200  0.294500  1
  C  C112  1  0.851700  0.693800  0.205500  1
  C  C113  1  0.800700  0.727600  0.724100  1
  C  C114  1  0.073100  0.272400  0.775900  1
  C  C115  1  0.199300  0.272400  0.275900  1
  C  C116  1  0.926900  0.727600  0.224100  1
  C  C117  1  0.824700  0.793200  0.724000  1
  C  C118  1  0.031500  0.206800  0.776000  1
  C  C119  1  0.175300  0.206800  0.276000  1
  C  C120  1  0.968500  0.793200  0.224000  1
  C  C121  1  0.890300  0.825200  0.705200  1
  C  C122  1  0.065100  0.174800  0.794800  1
  C  C123  1  0.109700  0.174800  0.294800  1
  C  C124  1  0.934900  0.825200  0.205200  1
  C  C125  1  0.931700  0.791400  0.686600  1
  C  C126  1  0.140300  0.208600  0.813400  1
  C  C127  1  0.068300  0.208600  0.313400  1
  C  C128  1  0.859700  0.791400  0.186600  1
  C  C129  1  0.907700  0.725800  0.686700  1
  C  C130  1  0.181900  0.274200  0.813300  1
  C  C131  1  0.092300  0.274200  0.313300  1
  C  C132  1  0.818100  0.725800  0.186700  1
  C  C133  1  0.520100  0.073800  0.405800  1
  C  C134  1  0.446300  0.926200  0.094200  1
  C  C135  1  0.479900  0.926200  0.594200  1
  C  C136  1  0.553700  0.073800  0.905800  1
  C  C137  1  0.596000  0.275600  0.489800  1
  C  C138  1  0.320400  0.724400  0.010200  1
  C  C139  1  0.404000  0.724400  0.510200  1
  C  C140  1  0.679600  0.275600  0.989800  1
  C  C141  1  0.630400  0.237200  0.689300  1
  C  C142  1  0.393200  0.762800  0.810700  1
  C  C143  1  0.369600  0.762800  0.310700  1
  C  C144  1  0.606800  0.237200  0.189300  1
  C  C145  1  0.929100  0.228400  0.682300  1
  C  C146  1  0.700700  0.771600  0.817700  1
  C  C147  1  0.070900  0.771600  0.317700  1
  C  C148  1  0.299300  0.228400  0.182300  1
  C  C149  1  0.986400  0.462200  0.825300  1.0
  C  C150  1  0.524200  0.537800  0.674700  1.0
  C  C151  1  0.013600  0.537800  0.174700  1.0
  C  C152  1  0.475800  0.462200  0.325300  1.0
  C  C153  1  0.058600  0.461400  0.811100  1.0
  C  C154  1  0.597200  0.538600  0.688900  1.0
  C  C155  1  0.941400  0.538600  0.188900  1.0
  C  C156  1  0.402800  0.461400  0.311100  1.0
  C  C157  1  0.053700  0.439000  0.779000  1.0
  C  C158  1  0.614700  0.561000  0.721000  1.0
  C  C159  1  0.946300  0.561000  0.221000  1.0
  C  C160  1  0.385300  0.439000  0.279000  1.0
  C  C161  1  0.975800  0.419200  0.761900  1.0
  C  C162  1  0.556600  0.580800  0.738100  1.0
  C  C163  1  0.024200  0.580800  0.238100  1.0
  C  C164  1  0.443400  0.419200  0.261900  1.0
  C  C165  1  0.906200  0.421000  0.777300  1.0
  C  C166  1  0.485200  0.579000  0.722700  1.0
  C  C167  1  0.093800  0.579000  0.222700  1.0
  C  C168  1  0.514800  0.421000  0.277300  1.0
  C  C169  1  0.819700  0.398200  0.763300  1.0
  C  C170  1  0.421500  0.601800  0.736700  1.0
  C  C171  1  0.180300  0.601800  0.236700  1.0
  C  C172  1  0.578500  0.398200  0.263300  1.0
  C  C173  1  0.673300  0.377000  0.767500  1.0
  C  C174  1  0.296300  0.623000  0.732500  1.0
  C  C175  1  0.326700  0.623000  0.232500  1.0
  C  C176  1  0.703700  0.377000  0.267500  1.0
  C  C177  1  0.612600  0.321200  0.774200  1.0
  C  C178  1  0.291400  0.678800  0.725800  1.0
  C  C179  1  0.387400  0.678800  0.225800  1.0
  C  C180  1  0.708600  0.321200  0.274200  1.0
  C  C181  1  0.532300  0.297200  0.758000  1.0
  C  C182  1  0.235100  0.702800  0.742000  1.0
  C  C183  1  0.467700  0.702800  0.242000  1.0
  C  C184  1  0.764900  0.297200  0.258000  1.0
  C  C185  1  0.510400  0.329800  0.736200  1.0
  C  C186  1  0.180600  0.670200  0.763800  1.0
  C  C187  1  0.489600  0.670200  0.263800  1.0
  C  C188  1  0.819400  0.329800  0.236200  1.0
  C  C189  1  0.571500  0.388600  0.731500  1.0
  C  C190  1  0.182900  0.611400  0.768500  1.0
  C  C191  1  0.428500  0.611400  0.268500  1.0
  C  C192  1  0.817100  0.388600  0.231500  1.0
  C  C193  1  0.651900  0.412000  0.746900  1.0
  C  C194  1  0.239900  0.588000  0.753100  1.0
  C  C195  1  0.348100  0.588000  0.253100  1.0
  C  C196  1  0.760100  0.412000  0.246900  1.0
  C  C197  1  0.423800  0.302400  0.719100  1.0
  C  C198  1  0.121400  0.697600  0.780900  1.0
  C  C199  1  0.576200  0.697600  0.280900  1.0
  C  C200  1  0.878600  0.302400  0.219100  1.0
  C  C201  1  0.416500  0.311400  0.688500  1.0
  C  C202  1  0.105100  0.688600  0.811500  1.0
  C  C203  1  0.583500  0.688600  0.311500  1.0
  C  C204  1  0.894900  0.311400  0.188500  1.0
  C  C205  1  0.334300  0.285000  0.671300  1.0
  C  C206  1  0.049300  0.715000  0.828700  1.0
  C  C207  1  0.665700  0.715000  0.328700  1.0
  C  C208  1  0.950700  0.285000  0.171300  1.0
  C  C209  1  0.325200  0.295200  0.639900  1.0
  C  C210  1  0.030000  0.704800  0.860100  1.0
  C  C211  1  0.674800  0.704800  0.360100  1.0
  C  C212  1  0.970000  0.295200  0.139900  1.0
  C  C213  1  0.244600  0.269800  0.624600  1.0
  C  C214  1  0.974800  0.730200  0.875400  1.0
  C  C215  1  0.755400  0.730200  0.375400  1.0
  C  C216  1  0.025200  0.269800  0.124600  1.0
  C  C217  1  0.172200  0.233800  0.639600  1.0
  C  C218  1  0.938400  0.766200  0.860400  1.0
  C  C219  1  0.827800  0.766200  0.360400  1.0
  C  C220  1  0.061600  0.233800  0.139600  1.0
  C  C221  1  0.180300  0.222600  0.669900  1.0
  C  C222  1  0.957700  0.777400  0.830100  1.0
  C  C223  1  0.819700  0.777400  0.330100  1.0
  C  C224  1  0.042300  0.222600  0.169900  1.0
  C  C225  1  0.262200  0.247600  0.686800  1.0
  C  C226  1  0.014600  0.752400  0.813200  1.0
  C  C227  1  0.737800  0.752400  0.313200  1.0
  C  C228  1  0.985400  0.247600  0.186800  1.0
  C  C229  1  0.270100  0.238000  0.718900  1.0
  C  C230  1  0.032100  0.762000  0.781100  1.0
  C  C231  1  0.729900  0.762000  0.281100  1.0
  C  C232  1  0.967900  0.238000  0.218900  1.0
  C  C233  1  0.349500  0.265200  0.734000  1.0
  C  C234  1  0.084300  0.734800  0.766000  1.0
  C  C235  1  0.650500  0.734800  0.266000  1.0
  C  C236  1  0.915700  0.265200  0.234000  1.0
  C  C237  1  0.086300  0.209400  0.621300  1.0
  C  C238  1  0.876900  0.790600  0.878700  1.0
  C  C239  1  0.913700  0.790600  0.378700  1.0
  C  C240  1  0.123100  0.209400  0.121300  1.0
  C  C241  1  0.067800  0.243000  0.599600  1.0
  C  C242  1  0.824800  0.757000  0.900400  1.0
  C  C243  1  0.932200  0.757000  0.400400  1.0
  C  C244  1  0.175200  0.243000  0.099600  1.0
  C  C245  1  0.988200  0.221400  0.583800  1.0
  C  C246  1  0.766800  0.778600  0.916200  1.0
  C  C247  1  0.011800  0.778600  0.416200  1.0
  C  C248  1  0.233200  0.221400  0.083800  1.0
  C  C249  1  0.927300  0.165800  0.589200  1.0
  C  C250  1  0.761500  0.834200  0.910800  1.0
  C  C251  1  0.072700  0.834200  0.410800  1.0
  C  C252  1  0.238500  0.165800  0.089200  1.0
  C  C253  1  0.944600  0.127600  0.609900  1.0
  C  C254  1  0.817000  0.872400  0.890100  1.0
  C  C255  1  0.055400  0.872400  0.390100  1.0
  C  C256  1  0.183000  0.127600  0.109900  1.0
  C  C257  1  0.023700  0.151800  0.626100  1.0
  C  C258  1  0.871900  0.848200  0.873900  1.0
  C  C259  1  0.976300  0.848200  0.373900  1.0
  C  C260  1  0.128100  0.151800  0.126100  1.0
  C  C261  1  0.796800  0.174400  0.582600  1.0
  C  C262  1  0.622400  0.825600  0.917400  1.0
  C  C263  1  0.203200  0.825600  0.417400  1.0
  C  C264  1  0.377600  0.174400  0.082600  1.0
  C  C265  1  0.709500  0.149800  0.567000  1.0
  C  C266  1  0.559700  0.850200  0.933000  1.0
  C  C267  1  0.290500  0.850200  0.433000  1.0
  C  C268  1  0.440300  0.149800  0.067000  1.0
  C  C269  1  0.649200  0.175200  0.576400  1.0
  C  C270  1  0.474000  0.824800  0.923600  1.0
  C  C271  1  0.350800  0.824800  0.423600  1.0
  C  C272  1  0.526000  0.175200  0.076400  1.0
  C  C273  1  0.567800  0.146000  0.561700  1.0
  C  C274  1  0.421800  0.854000  0.938300  1.0
  C  C275  1  0.432200  0.854000  0.438300  1.0
  C  C276  1  0.578200  0.146000  0.061700  1.0
  C  C277  1  0.551700  0.094400  0.539300  1.0
  C  C278  1  0.457300  0.905600  0.960700  1.0
  C  C279  1  0.448300  0.905600  0.460700  1.0
  C  C280  1  0.542700  0.094400  0.039300  1.0
  C  C281  1  0.615000  0.072200  0.530500  1.0
  C  C282  1  0.542800  0.927800  0.969500  1.0
  C  C283  1  0.385000  0.927800  0.469500  1.0
  C  C284  1  0.457200  0.072200  0.030500  1.0
  C  C285  1  0.808200  0.187200  0.498600  1.0
  C  C286  1  0.621000  0.812800  0.001400  1.0
  C  C287  1  0.191800  0.812800  0.501400  1.0
  C  C288  1  0.379000  0.187200  0.998600  1.0
  C  C289  1  0.849000  0.236000  0.482300  1.0
  C  C290  1  0.613000  0.764000  0.017700  1.0
  C  C291  1  0.151000  0.764000  0.517700  1.0
  C  C292  1  0.387000  0.236000  0.982300  1.0
  C  C293  1  0.934000  0.251200  0.477800  1.0
  C  C294  1  0.682800  0.748800  0.022200  1.0
  C  C295  1  0.066000  0.748800  0.522200  1.0
  C  C296  1  0.317200  0.251200  0.977800  1.0
  C  C297  1  0.973500  0.213800  0.488200  1.0
  C  C298  1  0.759700  0.786200  0.011800  1.0
  C  C299  1  0.026500  0.786200  0.511800  1.0
  C  C300  1  0.240300  0.213800  0.988200  1.0
  C  C301  1  0.927900  0.164200  0.503900  1.0
  C  C302  1  0.763700  0.835800  0.996100  1.0
  C  C303  1  0.072100  0.835800  0.496100  1.0
  C  C304  1  0.236300  0.164200  0.003900  1.0
  C  C305  1  0.959600  0.117800  0.514400  1.0
  C  C306  1  0.841800  0.882200  0.985600  1.0
  C  C307  1  0.040400  0.882200  0.485600  1.0
  C  C308  1  0.158200  0.117800  0.014400  1.0
  C  C309  1  0.938300  0.025600  0.538000  1.0
  C  C310  1  0.912700  0.974400  0.962000  1.0
  C  C311  1  0.061700  0.974400  0.462000  1.0
  C  C312  1  0.087300  0.025600  0.038000  1.0
  C  C313  1  0.010800  0.046800  0.558300  1.0
  C  C314  1  0.964000  0.953200  0.941700  1.0
  C  C315  1  0.989200  0.953200  0.441700  1.0
  C  C316  1  0.036000  0.046800  0.058300  1.0
  C  C317  1  0.033300  0.001400  0.570700  1.0
  C  C318  1  0.031900  0.998600  0.929300  1.0
  C  C319  1  0.966700  0.998600  0.429300  1.0
  C  C320  1  0.968100  0.001400  0.070700  1.0
  C  C321  1  0.986100  0.936600  0.564300  1.0
  C  C322  1  0.049500  0.063400  0.935700  1.0
  C  C323  1  0.013900  0.063400  0.435700  1.0
  C  C324  1  0.950500  0.936600  0.064300  1.0
  C  C325  1  0.915800  0.916200  0.542400  1.0
  C  C326  1  0.999600  0.083800  0.957600  1.0
  C  C327  1  0.084200  0.083800  0.457600  1.0
  C  C328  1  0.000400  0.916200  0.042400  1.0
  C  C329  1  0.892900  0.959800  0.529300  1.0
  C  C330  1  0.933100  0.040200  0.970700  1.0
  C  C331  1  0.107100  0.040200  0.470700  1.0
  C  C332  1  0.066900  0.959800  0.029300  1.0
  C  C333  1  0.007200  0.888200  0.578900  1.0
  C  C334  1  0.119000  0.111800  0.921100  1.0
  C  C335  1  0.992800  0.111800  0.421100  1.0
  C  C336  1  0.881000  0.888200  0.078900  1.0
  C  C337  1  0.089100  0.894400  0.584000  1.0
  C  C338  1  0.194700  0.105600  0.916000  1.0
  C  C339  1  0.910900  0.105600  0.416000  1.0
  C  C340  1  0.805300  0.894400  0.084000  1.0
  C  C341  1  0.111200  0.845600  0.595600  1.0
  C  C342  1  0.265600  0.154400  0.904400  1.0
  C  C343  1  0.888800  0.154400  0.404400  1.0
  C  C344  1  0.734400  0.845600  0.095600  1.0
  C  C345  1  0.194800  0.848000  0.597200  1.0
  C  C346  1  0.346800  0.152000  0.902800  1.0
  C  C347  1  0.805200  0.152000  0.402800  1.0
  C  C348  1  0.653200  0.848000  0.097200  1.0
  C  C349  1  0.211400  0.797200  0.606100  1.0
  C  C350  1  0.414200  0.202800  0.893900  1.0
  C  C351  1  0.788600  0.202800  0.393900  1.0
  C  C352  1  0.585800  0.797200  0.106100  1.0
  C  C353  1  0.144800  0.743200  0.614500  1.0
  C  C354  1  0.401600  0.256800  0.885500  1.0
  C  C355  1  0.855200  0.256800  0.385500  1.0
  C  C356  1  0.598400  0.743200  0.114500  1.0
  C  C357  1  0.064400  0.741000  0.613400  1.0
  C  C358  1  0.323400  0.259000  0.886600  1.0
  C  C359  1  0.935600  0.259000  0.386600  1.0
  C  C360  1  0.676600  0.741000  0.113400  1.0
  C  C361  1  0.043500  0.790200  0.602500  1.0
  C  C362  1  0.253300  0.209800  0.897500  1.0
  C  C363  1  0.956500  0.209800  0.397500  1.0
  C  C364  1  0.746700  0.790200  0.102500  1.0
  C  C365  1  0.957600  0.785000  0.598600  1.0
  C  C366  1  0.172600  0.215000  0.901400  1.0
  C  C367  1  0.042400  0.215000  0.401400  1.0
  C  C368  1  0.827400  0.785000  0.098600  1.0
  C  C369  1  0.940700  0.832200  0.587200  1.0
  C  C370  1  0.108500  0.167800  0.912800  1.0
  C  C371  1  0.059300  0.167800  0.412800  1.0
  C  C372  1  0.891500  0.832200  0.087200  1.0
  C  C373  1  0.167200  0.690800  0.626000  1.0
  C  C374  1  0.476400  0.309200  0.874000  1.0
  C  C375  1  0.832800  0.309200  0.374000  1.0
  C  C376  1  0.523600  0.690800  0.126000  1.0
  C  C377  1  0.219600  0.665400  0.609200  1.0
  C  C378  1  0.554200  0.334600  0.890800  1.0
  C  C379  1  0.780400  0.334600  0.390800  1.0
  C  C380  1  0.445800  0.665400  0.109200  1.0
  C  C381  1  0.244100  0.620000  0.620500  1.0
  C  C382  1  0.624100  0.380000  0.879500  1.0
  C  C383  1  0.755900  0.380000  0.379500  1.0
  C  C384  1  0.375900  0.620000  0.120500  1.0
  C  C385  1  0.213900  0.598800  0.649000  1.0
  C  C386  1  0.615100  0.401200  0.851000  1.0
  C  C387  1  0.786100  0.401200  0.351000  1.0
  C  C388  1  0.384900  0.598800  0.149000  1.0
  C  C389  1  0.158000  0.623000  0.666100  1.0
  C  C390  1  0.535000  0.377000  0.833900  1.0
  C  C391  1  0.842000  0.377000  0.333900  1.0
  C  C392  1  0.465000  0.623000  0.166100  1.0
  C  C393  1  0.135000  0.667600  0.654000  1.0
  C  C394  1  0.467400  0.332400  0.846000  1.0
  C  C395  1  0.865000  0.332400  0.346000  1.0
  C  C396  1  0.532600  0.667600  0.154000  1.0
  C  C397  1  0.180100  0.504800  0.668900  1.0
  C  C398  1  0.675300  0.495200  0.831100  1.0
  C  C399  1  0.819900  0.495200  0.331100  1.0
  C  C400  1  0.324700  0.504800  0.168900  1.0
  C  C401  1  0.205900  0.459400  0.685600  1.0
  C  C402  1  0.746500  0.540600  0.814400  1.0
  C  C403  1  0.794100  0.540600  0.314400  1.0
  C  C404  1  0.253500  0.459400  0.185600  1.0
  C  C405  1  0.146800  0.405600  0.695400  1.0
  C  C406  1  0.741200  0.594400  0.804600  1.0
  C  C407  1  0.853200  0.594400  0.304600  1.0
  C  C408  1  0.258800  0.405600  0.195400  1.0
  C  C409  1  0.177700  0.368200  0.711300  1.0
  C  C410  1  0.809500  0.631800  0.788700  1.0
  C  C411  1  0.822300  0.631800  0.288700  1.0
  C  C412  1  0.190500  0.368200  0.211300  1.0
  C  C413  1  0.262800  0.388600  0.717700  1.0
  C  C414  1  0.874200  0.611400  0.782300  1.0
  C  C415  1  0.737200  0.611400  0.282300  1.0
  C  C416  1  0.125800  0.388600  0.217700  1.0
  C  C417  1  0.319700  0.441600  0.706200  1.0
  C  C418  1  0.878100  0.558400  0.793800  1.0
  C  C419  1  0.680300  0.558400  0.293800  1.0
  C  C420  1  0.121900  0.441600  0.206200  1.0
  C  C421  1  0.878800  0.547200  0.880900  1.0
  C  C422  1  0.331600  0.452800  0.619100  1.0
  C  C423  1  0.121200  0.452800  0.119100  1.0
  C  C424  1  0.668400  0.547200  0.380900  1.0
  C  C425  1  0.911000  0.571400  0.911700  1.0
  C  C426  1  0.339600  0.428600  0.588300  1.0
  C  C427  1  0.089000  0.428600  0.088300  1.0
  C  C428  1  0.660400  0.571400  0.411700  1.0
  C  C429  1  0.915400  0.529600  0.932200  1.0
  C  C430  1  0.385800  0.470400  0.567800  1.0
  C  C431  1  0.084600  0.470400  0.067800  1.0
  C  C432  1  0.614200  0.529600  0.432200  1.0
  C  C433  1  0.884500  0.463800  0.921000  1.0
  C  C434  1  0.420700  0.536200  0.579000  1.0
  C  C435  1  0.115500  0.536200  0.079000  1.0
  C  C436  1  0.579300  0.463800  0.421000  1.0
  C  C437  1  0.854400  0.443800  0.889100  1.0
  C  C438  1  0.410600  0.556200  0.610900  1.0
  C  C439  1  0.145600  0.556200  0.110900  1.0
  C  C440  1  0.589400  0.443800  0.389100  1.0
  C  C441  1  0.818600  0.377400  0.874700  1.0
  C  C442  1  0.441200  0.622600  0.625300  1.0
  C  C443  1  0.181400  0.622600  0.125300  1.0
  C  C444  1  0.558800  0.377400  0.374700  1.0
  C  C445  1  0.748700  0.298200  0.831700  1.0
  C  C446  1  0.450500  0.701800  0.668300  1.0
  C  C447  1  0.251300  0.701800  0.168300  1.0
  C  C448  1  0.549500  0.298200  0.331700  1.0
  C  C449  1  0.775500  0.276200  0.803600  1.0
  C  C450  1  0.499300  0.723800  0.696400  1.0
  C  C451  1  0.224500  0.723800  0.196400  1.0
  C  C452  1  0.500700  0.276200  0.303600  1.0
  C  C453  1  0.735000  0.213000  0.790000  1.0
  C  C454  1  0.522000  0.787000  0.710000  1.0
  C  C455  1  0.265000  0.787000  0.210000  1.0
  C  C456  1  0.478000  0.213000  0.290000  1.0
  C  C457  1  0.666200  0.170800  0.804100  1.0
  C  C458  1  0.495400  0.829200  0.695900  1.0
  C  C459  1  0.333800  0.829200  0.195900  1.0
  C  C460  1  0.504600  0.170800  0.304100  1.0
  C  C461  1  0.640300  0.193600  0.832200  1.0
  C  C462  1  0.446700  0.806400  0.667800  1.0
  C  C463  1  0.359700  0.806400  0.167800  1.0
  C  C464  1  0.553300  0.193600  0.332200  1.0
  C  C465  1  0.679700  0.255800  0.846600  1.0
  C  C466  1  0.423900  0.744200  0.653400  1.0
  C  C467  1  0.320300  0.744200  0.153400  1.0
  C  C468  1  0.576100  0.255800  0.346600  1.0
  C  C469  1  0.612300  0.088800  0.755900  1.0
  C  C470  1  0.523500  0.911200  0.744100  1.0
  C  C471  1  0.387700  0.911200  0.244100  1.0
  C  C472  1  0.476500  0.088800  0.255900  1.0
  C  C473  1  0.623400  0.102600  0.788700  1.0
  C  C474  1  0.520800  0.897400  0.711300  1.0
  C  C475  1  0.376600  0.897400  0.211300  1.0
  C  C476  1  0.479200  0.102600  0.288700  1.0
  C  C477  1  0.593400  0.053200  0.807100  1.0
  C  C478  1  0.540200  0.946800  0.692900  1.0
  C  C479  1  0.406600  0.946800  0.192900  1.0
  C  C480  1  0.459800  0.053200  0.307100  1.0
  C  C481  1  0.557600  0.989200  0.792400  1.0
  C  C482  1  0.568400  0.010800  0.707600  1.0
  C  C483  1  0.442400  0.010800  0.207600  1.0
  C  C484  1  0.431600  0.989200  0.292400  1.0
  C  C485  1  0.551800  0.975400  0.759600  1.0
  C  C486  1  0.576400  0.024600  0.740400  1.0
  C  C487  1  0.448200  0.024600  0.240400  1.0
  C  C488  1  0.423600  0.975400  0.259600  1.0
  C  C489  1  0.740500  0.019400  0.466400  1.0
  C  C490  1  0.721100  0.980600  0.033600  1.0
  C  C491  1  0.259500  0.980600  0.533600  1.0
  C  C492  1  0.278900  0.019400  0.966400  1.0
  C  C493  1  0.705500  0.969400  0.441800  1.0
  C  C494  1  0.736100  0.030600  0.058200  1.0
  C  C495  1  0.294500  0.030600  0.558200  1.0
  C  C496  1  0.263900  0.969400  0.941800  1.0
  C  C497  1  0.665800  0.907200  0.449000  1.0
  C  C498  1  0.758600  0.092800  0.051000  1.0
  C  C499  1  0.334200  0.092800  0.551000  1.0
  C  C500  1  0.241400  0.907200  0.949000  1.0
  C  C501  1  0.658600  0.897600  0.480900  1.0
  C  C502  1  0.761000  0.102400  0.019100  1.0
  C  C503  1  0.341400  0.102400  0.519100  1.0
  C  C504  1  0.239000  0.897600  0.980900  1.0
  C  C505  1  0.695900  0.950600  0.504300  1.0
  C  C506  1  0.745300  0.049400  0.995700  1.0
  C  C507  1  0.304100  0.049400  0.495700  1.0
  C  C508  1  0.254700  0.950600  0.004300  1.0
  C  C509  1  0.700100  0.947800  0.538100  1.0
  C  C510  1  0.752300  0.052200  0.961900  1.0
  C  C511  1  0.299900  0.052200  0.461900  1.0
  C  C512  1  0.247700  0.947800  0.038100  1.0
  C  C513  1  0.747500  0.994000  0.590300  1.0
  C  C514  1  0.753500  0.006000  0.909700  1.0
  C  C515  1  0.252500  0.006000  0.409700  1.0
  C  C516  1  0.246500  0.994000  0.090300  1.0
  C  C517  1  0.724600  0.034000  0.612800  1.0
  C  C518  1  0.690600  0.966000  0.887200  1.0
  C  C519  1  0.275400  0.966000  0.387200  1.0
  C  C520  1  0.309400  0.034000  0.112800  1.0
  C  C521  1  0.731200  0.028600  0.645100  1.0
  C  C522  1  0.702600  0.971400  0.854900  1.0
  C  C523  1  0.268800  0.971400  0.354900  1.0
  C  C524  1  0.297400  0.028600  0.145100  1.0
  C  C525  1  0.759200  0.982800  0.654500  1.0
  C  C526  1  0.776400  0.017200  0.845500  1.0
  C  C527  1  0.240800  0.017200  0.345500  1.0
  C  C528  1  0.223600  0.982800  0.154500  1.0
  C  C529  1  0.780200  0.943600  0.631700  1.0
  C  C530  1  0.836600  0.056400  0.868300  1.0
  C  C531  1  0.219800  0.056400  0.368300  1.0
  C  C532  1  0.163400  0.943600  0.131700  1.0
  C  C533  1  0.775400  0.948000  0.599600  1.0
  C  C534  1  0.827400  0.052000  0.900400  1.0
  C  C535  1  0.224600  0.052000  0.400400  1.0
  C  C536  1  0.172600  0.948000  0.099600  1.0
  C  C537  1  0.740800  0.919400  0.700200  1.0
  C  C538  1  0.821400  0.080600  0.799800  1.0
  C  C539  1  0.259200  0.080600  0.299800  1.0
  C  C540  1  0.178600  0.919400  0.200200  1.0
  C  C541  1  0.766700  0.979200  0.689500  1.0
  C  C542  1  0.787500  0.020800  0.810500  1.0
  C  C543  1  0.233300  0.020800  0.310500  1.0
  C  C544  1  0.212500  0.979200  0.189500  1.0
  C  C545  1  0.793500  0.034000  0.711600  1.0
  C  C546  1  0.759500  0.966000  0.788400  1.0
  C  C547  1  0.206500  0.966000  0.288400  1.0
  C  C548  1  0.240500  0.034000  0.211600  1.0
  C  C549  1  0.795600  0.031600  0.744900  1.0
  C  C550  1  0.764000  0.968400  0.755100  1.0
  C  C551  1  0.204400  0.968400  0.255100  1.0
  C  C552  1  0.236000  0.031600  0.244900  1.0
  C  C553  1  0.824900  0.085400  0.768100  1.0
  C  C554  1  0.739500  0.914600  0.731900  1.0
  C  C555  1  0.175100  0.914600  0.231900  1.0
  C  C556  1  0.260500  0.085400  0.268100  1.0
  C  C557  1  0.043100  0.565200  0.007500  1.0
  C  C558  1  0.477900  0.434800  0.492500  1.0
  C  C559  1  0.956900  0.434800  0.992500  1.0
  C  C560  1  0.522100  0.565200  0.507500  1.0
  C  C561  1  0.082200  0.524400  0.990500  1.0
  C  C562  1  0.557800  0.475600  0.509500  1.0
  C  C563  1  0.917800  0.475600  0.009500  1.0
  C  C564  1  0.442200  0.524400  0.490500  1.0
  C  C565  1  0.038500  0.462200  0.985100  1.0
  C  C566  1  0.576300  0.537800  0.514900  1.0
  C  C567  1  0.961500  0.537800  0.014900  1.0
  C  C568  1  0.423700  0.462200  0.485100  1.0
  F  F569  1  0.920300  0.707000  0.955700  1
  F  F570  1  0.213300  0.293000  0.544300  1
  F  F571  1  0.079700  0.293000  0.044300  1
  F  F572  1  0.786700  0.707000  0.455700  1
  F  F573  1  0.080400  0.797800  0.009000  1
  F  F574  1  0.282600  0.202200  0.491000  1
  F  F575  1  0.919600  0.202200  0.991000  1
  F  F576  1  0.717400  0.797800  0.509000  1
  F  F577  1  0.933700  0.749400  0.012300  1
  F  F578  1  0.184300  0.250600  0.487700  1
  F  F579  1  0.066300  0.250600  0.987700  1
  F  F580  1  0.815700  0.749400  0.512300  1
  F  F581  1  0.070800  0.758400  0.952600  1
  F  F582  1  0.312400  0.241600  0.547400  1
  F  F583  1  0.929200  0.241600  0.047400  1
  F  F584  1  0.687600  0.758400  0.452600  1
  F  F585  1  0.006300  0.683000  0.990600  1
  F  F586  1  0.323300  0.317000  0.509400  1
  F  F587  1  0.993700  0.317000  0.009400  1
  F  F588  1  0.676700  0.683000  0.490600  1
  F  F589  1  0.995100  0.820400  0.973800  1
  F  F590  1  0.174700  0.179600  0.526200  1
  F  F591  1  0.004900  0.179600  0.026200  1
  F  F592  1  0.825300  0.820400  0.473800  1
  F  F593  1  0.841200  0.436200  0.692500  1
  F  F594  1  0.405000  0.563800  0.807500  1
  F  F595  1  0.158800  0.563800  0.307500  1
  F  F596  1  0.595000  0.436200  0.192500  1
  F  F597  1  0.952000  0.600000  0.692500  1
  F  F598  1  0.352000  0.400000  0.807500  1
  F  F599  1  0.048000  0.400000  0.307500  1
  F  F600  1  0.648000  0.600000  0.192500  1
  F  F601  1  0.813600  0.537200  0.709900  1
  F  F602  1  0.276400  0.462800  0.790100  1
  F  F603  1  0.186400  0.462800  0.290100  1
  F  F604  1  0.723600  0.537200  0.209900  1
  F  F605  1  0.968400  0.502600  0.668400  1
  F  F606  1  0.465800  0.497400  0.831600  1
  F  F607  1  0.031600  0.497400  0.331600  1
  F  F608  1  0.534200  0.502600  0.168400  1
  F  F609  1  0.944000  0.522400  0.727300  1
  F  F610  1  0.421600  0.477600  0.772700  1
  F  F611  1  0.056000  0.477600  0.272700  1
  F  F612  1  0.578400  0.522400  0.227300  1
  F  F613  1  0.850200  0.510000  0.653600  1
  F  F614  1  0.340200  0.490000  0.846400  1
  F  F615  1  0.149800  0.490000  0.346400  1
  F  F616  1  0.659800  0.510000  0.153600  1
  F  F617  1  0.459500  0.092600  0.397500  1
  F  F618  1  0.366900  0.907400  0.102500  1
  F  F619  1  0.540500  0.907400  0.602500  1
  F  F620  1  0.633100  0.092600  0.897500  1
  F  F621  1  0.489200  0.011200  0.404800  1
  F  F622  1  0.478000  0.988800  0.095200  1
  F  F623  1  0.510800  0.988800  0.595200  1
  F  F624  1  0.522000  0.011200  0.904800  1
  F  F625  1  0.583400  0.091200  0.386420  1
  F  F626  1  0.492200  0.908800  0.113580  1
  F  F627  1  0.416600  0.908800  0.613580  1
  F  F628  1  0.507800  0.091200  0.886420  1
  F  F629  1  0.576800  0.234400  0.510200  1
  F  F630  1  0.342400  0.765600  0.989800  1
  F  F631  1  0.423200  0.765600  0.489800  1
  F  F632  1  0.657600  0.234400  0.010200  1
  F  F633  1  0.680700  0.298800  0.486600  1
  F  F634  1  0.381900  0.701200  0.013400  1
  F  F635  1  0.319300  0.701200  0.513400  1
  F  F636  1  0.618100  0.298800  0.986600  1
  F  F637  1  0.566800  0.319800  0.497400  1
  F  F638  1  0.247000  0.680200  0.002600  1
  F  F639  1  0.433200  0.680200  0.502600  1
  F  F640  1  0.753000  0.319800  0.997400  1
  F  F641  1  0.574300  0.240000  0.668700  1
  F  F642  1  0.334300  0.760000  0.831300  1
  F  F643  1  0.425700  0.760000  0.331300  1
  F  F644  1  0.665700  0.240000  0.168700  1
  F  F645  1  0.674400  0.295000  0.704400  1
  F  F646  1  0.379400  0.705000  0.795600  1
  F  F647  1  0.325600  0.705000  0.295600  1
  F  F648  1  0.620600  0.295000  0.204400  1
  F  F649  1  0.586800  0.200600  0.709700  1
  F  F650  1  0.386200  0.799400  0.790300  1
  F  F651  1  0.413200  0.799400  0.290300  1
  F  F652  1  0.613800  0.200600  0.209700  1
  F  F653  1  0.926400  0.173800  0.690000  1
  F  F654  1  0.752600  0.826200  0.810000  1
  F  F655  1  0.073600  0.826200  0.310000  1
  F  F656  1  0.247400  0.173800  0.190000  1
  F  F657  1  0.903500  0.226000  0.653900  1
  F  F658  1  0.677500  0.774000  0.846100  1
  F  F659  1  0.096500  0.774000  0.346100  1
  F  F660  1  0.322500  0.226000  0.153900  1
  F  F661  1  0.003700  0.272800  0.690900  1
  F  F662  1  0.730900  0.727200  0.809100  1
  F  F663  1  0.996300  0.727200  0.309100  1
  F  F664  1  0.269100  0.272800  0.190900  1
  F  F665  1  0.822000  0.447600  0.670500  1
  F  F666  1  0.374400  0.552400  0.829500  1
  F  F667  1  0.178000  0.552400  0.329500  1
  F  F668  1  0.625600  0.447600  0.170500  1
  F  F669  1  0.977300  0.589200  0.711700  1
  F  F670  1  0.388100  0.410800  0.788300  1
  F  F671  1  0.022700  0.410800  0.288300  1
  F  F672  1  0.611900  0.589200  0.211700  1
  F  F673  1  0.864700  0.502400  0.727100  1
  F  F674  1  0.362300  0.497600  0.772900  1
  F  F675  1  0.135300  0.497600  0.272900  1
  F  F676  1  0.637700  0.502400  0.227100  1
  F  F677  1  0.922600  0.551200  0.655400  1
  F  F678  1  0.371400  0.448800  0.844600  1
  F  F679  1  0.077400  0.448800  0.344600  1
  F  F680  1  0.628600  0.551200  0.155400  1
  F  F681  1  0.970300  0.485200  0.688400  1
  F  F682  1  0.485100  0.514800  0.811600  1
  F  F683  1  0.029700  0.514800  0.311600  1
  F  F684  1  0.514900  0.485200  0.188400  1
  F  F685  1  0.834200  0.562400  0.685100  1
  F  F686  1  0.271800  0.437600  0.814900  1
  F  F687  1  0.165800  0.437600  0.314900  1
  F  F688  1  0.728200  0.562400  0.185100  1
  F  F689  1  0.778500  0.175400  0.705700  1
  F  F690  1  0.603100  0.824600  0.794300  1
  F  F691  1  0.221500  0.824600  0.294300  1
  F  F692  1  0.396900  0.175400  0.205700  1
  F  F693  1  0.944500  0.303200  0.689000  1
  F  F694  1  0.641300  0.696800  0.811000  1
  F  F695  1  0.055500  0.696800  0.311000  1
  F  F696  1  0.358700  0.303200  0.189000  1
  F  F697  1  0.796700  0.281400  0.698000  1
  F  F698  1  0.515300  0.718600  0.802000  1
  F  F699  1  0.203300  0.718600  0.302000  1
  F  F700  1  0.484700  0.281400  0.198000  1
  F  F701  1  0.834100  0.215000  0.657300  1
  F  F702  1  0.619100  0.785000  0.842700  1
  F  F703  1  0.165900  0.785000  0.342700  1
  F  F704  1  0.380900  0.215000  0.157300  1
  F  F705  1  0.889900  0.265800  0.735300  1
  F  F706  1  0.624100  0.734200  0.764700  1
  F  F707  1  0.110100  0.734200  0.264700  1
  F  F708  1  0.375900  0.265800  0.235300  1
  F  F709  1  0.917600  0.191200  0.695700  1
  F  F710  1  0.726400  0.808800  0.804300  1
  F  F711  1  0.082400  0.808800  0.304300  1
  F  F712  1  0.273600  0.191200  0.195700  1
  Fe  Fe713  1  0.798890  0.441940  0.826070  1.0
  Fe  Fe714  1  0.356950  0.558060  0.673930  1.0
  Fe  Fe715  1  0.201110  0.558060  0.173930  1.0
  Fe  Fe716  1  0.643050  0.441940  0.326070  1.0
  Fe  Fe717  1  0.794040  0.076940  0.534900  1.0
  Fe  Fe718  1  0.717100  0.923060  0.965100  1.0
  Fe  Fe719  1  0.205960  0.923060  0.465100  1.0
  Fe  Fe720  1  0.282900  0.076940  0.034900  1.0
  H  H721  1  0.226200  0.141800  0.774000  1
  H  H722  1  0.084400  0.858200  0.726000  1
  H  H723  1  0.773800  0.858200  0.226000  1
  H  H724  1  0.915600  0.141800  0.274000  1
  H  H725  1  0.269200  0.092000  0.728800  1
  H  H726  1  0.177200  0.908000  0.771200  1
  H  H727  1  0.730800  0.908000  0.271200  1
  H  H728  1  0.822800  0.092000  0.228800  1
  H  H729  1  0.393200  0.069400  0.732100  1
  H  H730  1  0.323800  0.930600  0.767900  1
  H  H731  1  0.606800  0.930600  0.267900  1
  H  H732  1  0.676200  0.069400  0.232100  1
  H  H733  1  0.474200  0.096600  0.780600  1
  H  H734  1  0.377600  0.903400  0.719400  1
  H  H735  1  0.525800  0.903400  0.219400  1
  H  H736  1  0.622400  0.096600  0.280600  1
  H  H737  1  0.431200  0.146400  0.825700  1
  H  H738  1  0.284800  0.853600  0.674300  1
  H  H739  1  0.568800  0.853600  0.174300  1
  H  H740  1  0.715200  0.146400  0.325700  1
  H  H741  1  0.307200  0.169000  0.822500  1
  H  H742  1  0.138200  0.831000  0.677500  1
  H  H743  1  0.692800  0.831000  0.177500  1
  H  H744  1  0.861800  0.169000  0.322500  1
  H  H745  1  0.012500  0.096400  0.714900  1
  H  H746  1  0.916100  0.903600  0.785100  1
  H  H747  1  0.987500  0.903600  0.285100  1
  H  H748  1  0.083900  0.096400  0.214900  1
  H  H749  1  0.937200  0.039200  0.667000  1
  H  H750  1  0.898000  0.960800  0.833000  1
  H  H751  1  0.062800  0.960800  0.333000  1
  H  H752  1  0.102000  0.039200  0.167000  1
  H  H753  1  0.966900  0.952600  0.640800  1
  H  H754  1  0.014300  0.047400  0.859200  1
  H  H755  1  0.033100  0.047400  0.359200  1
  H  H756  1  0.985700  0.952600  0.140800  1
  H  H757  1  0.072000  0.923200  0.662600  1
  H  H758  1  0.148800  0.076800  0.837400  1
  H  H759  1  0.928000  0.076800  0.337400  1
  H  H760  1  0.851200  0.923200  0.162600  1
  H  H761  1  0.147300  0.980400  0.710500  1
  H  H762  1  0.166900  0.019600  0.789500  1
  H  H763  1  0.852700  0.019600  0.289500  1
  H  H764  1  0.833100  0.980400  0.210500  1
  H  H765  1  0.117500  0.067000  0.736700  1
  H  H766  1  0.050500  0.933000  0.763300  1
  H  H767  1  0.882500  0.933000  0.263300  1
  H  H768  1  0.949500  0.067000  0.236700  1
  H  H769  1  0.349700  0.255000  0.439500  1
  H  H770  1  0.094700  0.745000  0.060500  1
  H  H771  1  0.650300  0.745000  0.560500  1
  H  H772  1  0.905300  0.255000  0.939500  1
  H  H773  1  0.376200  0.198200  0.393000  1
  H  H774  1  0.178000  0.801800  0.107000  1
  H  H775  1  0.623800  0.801800  0.607000  1
  H  H776  1  0.822000  0.198200  0.893000  1
  H  H777  1  0.353700  0.224400  0.342900  1
  H  H778  1  0.129300  0.775600  0.157100  1
  H  H779  1  0.646300  0.775600  0.657100  1
  H  H780  1  0.870700  0.224400  0.842900  1
  H  H781  1  0.304800  0.307400  0.339400  1
  H  H782  1  0.997400  0.692600  0.160600  1
  H  H783  1  0.695200  0.692600  0.660600  1
  H  H784  1  0.002600  0.307400  0.839400  1
  H  H785  1  0.278400  0.364400  0.385900  1
  H  H786  1  0.914000  0.635600  0.114100  1
  H  H787  1  0.721600  0.635600  0.614100  1
  H  H788  1  0.086000  0.364400  0.885900  1
  H  H789  1  0.300900  0.338200  0.436000  1
  H  H790  1  0.962700  0.661800  0.064000  1
  H  H791  1  0.699100  0.661800  0.564000  1
  H  H792  1  0.037300  0.338200  0.936000  1
  H  H793  1  0.233600  0.977000  0.657300  1
  H  H794  1  0.256600  0.023000  0.842700  1
  H  H795  1  0.766400  0.023000  0.342700  1
  H  H796  1  0.743400  0.977000  0.157300  1
  H  H797  1  0.186600  0.057000  0.645500  1
  H  H798  1  0.129600  0.943000  0.854500  1
  H  H799  1  0.813400  0.943000  0.354500  1
  H  H800  1  0.870400  0.057000  0.145500  1
  H  H801  1  0.285100  0.154200  0.633100  1
  H  H802  1  0.130900  0.845800  0.866900  1
  H  H803  1  0.714900  0.845800  0.366900  1
  H  H804  1  0.869100  0.154200  0.133100  1
  H  H805  1  0.430700  0.171400  0.632400  1
  H  H806  1  0.259300  0.828600  0.867600  1
  H  H807  1  0.569300  0.828600  0.367600  1
  H  H808  1  0.740700  0.171400  0.132400  1
  H  H809  1  0.477700  0.091400  0.644100  1
  H  H810  1  0.386300  0.908600  0.855900  1
  H  H811  1  0.522300  0.908600  0.355900  1
  H  H812  1  0.613700  0.091400  0.144100  1
  H  H813  1  0.379200  0.994200  0.656500  1
  H  H814  1  0.385000  0.005800  0.843500  1
  H  H815  1  0.620800  0.005800  0.343500  1
  H  H816  1  0.615000  0.994200  0.156500  1
  H  H817  1  0.825600  0.648800  0.705600  1
  H  H818  1  0.176800  0.351200  0.794400  1
  H  H819  1  0.174400  0.351200  0.294400  1
  H  H820  1  0.823200  0.648800  0.205600  1
  H  H821  1  0.755900  0.705800  0.736900  1
  H  H822  1  0.050100  0.294200  0.763100  1
  H  H823  1  0.244100  0.294200  0.263100  1
  H  H824  1  0.949900  0.705800  0.236900  1
  H  H825  1  0.796400  0.816400  0.736700  1
  H  H826  1  0.980000  0.183600  0.763300  1
  H  H827  1  0.203600  0.183600  0.263300  1
  H  H828  1  0.020000  0.816400  0.236700  1
  H  H829  1  0.906700  0.870000  0.705100  1
  H  H830  1  0.036700  0.130000  0.794900  1
  H  H831  1  0.093300  0.130000  0.294900  1
  H  H832  1  0.963300  0.870000  0.205100  1
  H  H833  1  0.976500  0.813200  0.673800  1
  H  H834  1  0.163300  0.186800  0.826200  1
  H  H835  1  0.023500  0.186800  0.326200  1
  H  H836  1  0.836700  0.813200  0.173800  1
  H  H837  1  0.936000  0.702600  0.674000  1
  H  H838  1  0.233400  0.297400  0.826000  1
  H  H839  1  0.064000  0.297400  0.326000  1
  H  H840  1  0.766600  0.702600  0.174000  1
  H  H841  1  0.990300  0.478000  0.847500  1.0
  H  H842  1  0.512300  0.522000  0.652500  1.0
  H  H843  1  0.009700  0.522000  0.152500  1.0
  H  H844  1  0.487700  0.478000  0.347500  1.0
  H  H845  1  0.111400  0.475800  0.823200  1.0
  H  H846  1  0.635600  0.524200  0.676800  1.0
  H  H847  1  0.888600  0.524200  0.176800  1.0
  H  H848  1  0.364400  0.475800  0.323200  1.0
  H  H849  1  0.102900  0.437200  0.768600  1.0
  H  H850  1  0.665700  0.562800  0.731400  1.0
  H  H851  1  0.897100  0.562800  0.231400  1.0
  H  H852  1  0.334300  0.437200  0.268600  1.0
  H  H853  1  0.971300  0.404400  0.739600  1.0
  H  H854  1  0.566900  0.595600  0.760400  1.0
  H  H855  1  0.028700  0.595600  0.260400  1.0
  H  H856  1  0.433100  0.404400  0.239600  1.0
  H  H857  1  0.807500  0.382800  0.741100  1.0
  H  H858  1  0.424700  0.617200  0.758900  1.0
  H  H859  1  0.192500  0.617200  0.258900  1.0
  H  H860  1  0.575300  0.382800  0.241100  1.0
  H  H861  1  0.624800  0.298600  0.789700  1.0
  H  H862  1  0.326200  0.701400  0.710300  1.0
  H  H863  1  0.375200  0.701400  0.210300  1.0
  H  H864  1  0.673800  0.298600  0.289700  1.0
  H  H865  1  0.491400  0.257400  0.762200  1.0
  H  H866  1  0.234000  0.742600  0.737800  1.0
  H  H867  1  0.508600  0.742600  0.237800  1.0
  H  H868  1  0.766000  0.257400  0.262200  1.0
  H  H869  1  0.557800  0.413200  0.717400  1.0
  H  H870  1  0.144600  0.586800  0.782600  1.0
  H  H871  1  0.442200  0.586800  0.282600  1.0
  H  H872  1  0.855400  0.413200  0.217400  1.0
  H  H873  1  0.692700  0.452400  0.743300  1.0
  H  H874  1  0.240300  0.547600  0.756700  1.0
  H  H875  1  0.307300  0.547600  0.256700  1.0
  H  H876  1  0.759700  0.452400  0.243300  1.0
  H  H877  1  0.465900  0.335400  0.678300  1.0
  H  H878  1  0.130500  0.664600  0.821700  1.0
  H  H879  1  0.534100  0.664600  0.321700  1.0
  H  H880  1  0.869500  0.335400  0.178300  1.0
  H  H881  1  0.373500  0.319000  0.629200  1.0
  H  H882  1  0.054500  0.681000  0.870800  1.0
  H  H883  1  0.626500  0.681000  0.370800  1.0
  H  H884  1  0.945500  0.319000  0.129200  1.0
  H  H885  1  0.238300  0.277200  0.603300  1.0
  H  H886  1  0.961100  0.722800  0.896700  1.0
  H  H887  1  0.761700  0.722800  0.396700  1.0
  H  H888  1  0.038900  0.277200  0.103300  1.0
  H  H889  1  0.131200  0.198000  0.680000  1.0
  H  H890  1  0.933200  0.802000  0.820000  1.0
  H  H891  1  0.868800  0.802000  0.320000  1.0
  H  H892  1  0.066800  0.198000  0.180000  1.0
  H  H893  1  0.221800  0.213400  0.729600  1.0
  H  H894  1  0.008400  0.786600  0.770400  1.0
  H  H895  1  0.778200  0.786600  0.270400  1.0
  H  H896  1  0.991600  0.213400  0.229600  1.0
  H  H897  1  0.355700  0.259200  0.755500  1.0
  H  H898  1  0.096500  0.740800  0.744500  1.0
  H  H899  1  0.644300  0.740800  0.244500  1.0
  H  H900  1  0.903500  0.259200  0.255500  1.0
  H  H901  1  0.110700  0.282000  0.595300  1.0
  H  H902  1  0.828700  0.718000  0.904700  1.0
  H  H903  1  0.889300  0.718000  0.404700  1.0
  H  H904  1  0.171300  0.282000  0.095300  1.0
  H  H905  1  0.976500  0.245800  0.569100  1.0
  H  H906  1  0.730700  0.754200  0.930900  1.0
  H  H907  1  0.023500  0.754200  0.430900  1.0
  H  H908  1  0.269300  0.245800  0.069100  1.0
  H  H909  1  0.903400  0.086800  0.612600  1.0
  H  H910  1  0.816600  0.913200  0.887400  1.0
  H  H911  1  0.096600  0.913200  0.387400  1.0
  H  H912  1  0.183400  0.086800  0.112600  1.0
  H  H913  1  0.035400  0.128000  0.641100  1.0
  H  H914  1  0.907400  0.872000  0.858900  1.0
  H  H915  1  0.964600  0.872000  0.358900  1.0
  H  H916  1  0.092600  0.128000  0.141100  1.0
  H  H917  1  0.817000  0.211600  0.598300  1.0
  H  H918  1  0.605400  0.788400  0.901700  1.0
  H  H919  1  0.183000  0.788400  0.401700  1.0
  H  H920  1  0.394600  0.211600  0.098300  1.0
  H  H921  1  0.662900  0.211400  0.592500  1.0
  H  H922  1  0.451500  0.788600  0.907500  1.0
  H  H923  1  0.337100  0.788600  0.407500  1.0
  H  H924  1  0.548500  0.211400  0.092500  1.0
  H  H925  1  0.524400  0.162200  0.567300  1.0
  H  H926  1  0.362200  0.837800  0.932700  1.0
  H  H927  1  0.475600  0.837800  0.432700  1.0
  H  H928  1  0.637800  0.162200  0.067300  1.0
  H  H929  1  0.495800  0.073000  0.529500  1.0
  H  H930  1  0.422800  0.927000  0.970500  1.0
  H  H931  1  0.504200  0.927000  0.470500  1.0
  H  H932  1  0.577200  0.073000  0.029500  1.0
  H  H933  1  0.602300  0.036400  0.514200  1.0
  H  H934  1  0.565900  0.963600  0.985800  1.0
  H  H935  1  0.397700  0.963600  0.485800  1.0
  H  H936  1  0.434100  0.036400  0.014200  1.0
  H  H937  1  0.750000  0.179000  0.502900  1.0
  H  H938  1  0.571000  0.821000  0.997100  1.0
  H  H939  1  0.250000  0.821000  0.497100  1.0
  H  H940  1  0.429000  0.179000  0.002900  1.0
  H  H941  1  0.819100  0.259200  0.474000  1.0
  H  H942  1  0.559900  0.740800  0.026000  1.0
  H  H943  1  0.180900  0.740800  0.526000  1.0
  H  H944  1  0.440100  0.259200  0.974000  1.0
  H  H945  1  0.965300  0.287200  0.467600  1.0
  H  H946  1  0.678100  0.712800  0.032400  1.0
  H  H947  1  0.034700  0.712800  0.532400  1.0
  H  H948  1  0.321900  0.287200  0.967600  1.0
  H  H949  1  0.032100  0.222400  0.484500  1.0
  H  H950  1  0.809700  0.777600  0.015500  1.0
  H  H951  1  0.967900  0.777600  0.515500  1.0
  H  H952  1  0.190300  0.222400  0.984500  1.0
  H  H953  1  0.017500  0.122400  0.511900  1.0
  H  H954  1  0.895100  0.877600  0.988100  1.0
  H  H955  1  0.982500  0.877600  0.488100  1.0
  H  H956  1  0.104900  0.122400  0.011900  1.0
  H  H957  1  0.044100  0.091200  0.563600  1.0
  H  H958  1  0.952900  0.908800  0.936400  1.0
  H  H959  1  0.955900  0.908800  0.436400  1.0
  H  H960  1  0.047100  0.091200  0.063600  1.0
  H  H961  1  0.083600  0.015600  0.584300  1.0
  H  H962  1  0.068000  0.984400  0.915700  1.0
  H  H963  1  0.916400  0.984400  0.415700  1.0
  H  H964  1  0.932000  0.015600  0.084300  1.0
  H  H965  1  0.883800  0.871600  0.536500  1.0
  H  H966  1  0.012200  0.128400  0.963500  1.0
  H  H967  1  0.116200  0.128400  0.463500  1.0
  H  H968  1  0.987800  0.871600  0.036500  1.0
  H  H969  1  0.845600  0.945200  0.514100  1.0
  H  H970  1  0.900400  0.054800  0.985900  1.0
  H  H971  1  0.154400  0.054800  0.485900  1.0
  H  H972  1  0.099600  0.945200  0.014100  1.0
  H  H973  1  0.133700  0.932400  0.579700  1.0
  H  H974  1  0.201300  0.067600  0.920300  1.0
  H  H975  1  0.866300  0.067600  0.420300  1.0
  H  H976  1  0.798700  0.932400  0.079700  1.0
  H  H977  1  0.240600  0.884800  0.592200  1.0
  H  H978  1  0.355800  0.115200  0.907800  1.0
  H  H979  1  0.759400  0.115200  0.407800  1.0
  H  H980  1  0.644200  0.884800  0.092200  1.0
  H  H981  1  0.268300  0.798600  0.606600  1.0
  H  H982  1  0.469700  0.201400  0.893400  1.0
  H  H983  1  0.731700  0.201400  0.393400  1.0
  H  H984  1  0.530300  0.798600  0.106600  1.0
  H  H985  1  0.020100  0.705400  0.620100  1.0
  H  H986  1  0.314700  0.294600  0.879900  1.0
  H  H987  1  0.979900  0.294600  0.379900  1.0
  H  H988  1  0.685300  0.705400  0.120100  1.0
  H  H989  1  0.912200  0.748600  0.604000  1.0
  H  H990  1  0.163600  0.251400  0.896000  1.0
  H  H991  1  0.087800  0.251400  0.396000  1.0
  H  H992  1  0.836400  0.748600  0.104000  1.0
  H  H993  1  0.882900  0.828000  0.584500  1.0
  H  H994  1  0.054900  0.172000  0.915500  1.0
  H  H995  1  0.117100  0.172000  0.415500  1.0
  H  H996  1  0.945100  0.828000  0.084500  1.0
  H  H997  1  0.239400  0.679400  0.589400  1.0
  H  H998  1  0.560000  0.320600  0.910600  1.0
  H  H999  1  0.760600  0.320600  0.410600  1.0
  H  H1000  1  0.440000  0.679400  0.089400  1.0
  H  H1001  1  0.281300  0.603400  0.608900  1.0
  H  H1002  1  0.677900  0.396600  0.891100  1.0
  H  H1003  1  0.718700  0.396600  0.391100  1.0
  H  H1004  1  0.322100  0.603400  0.108900  1.0
  H  H1005  1  0.137000  0.608800  0.685700  1.0
  H  H1006  1  0.528200  0.391200  0.814300  1.0
  H  H1007  1  0.863000  0.391200  0.314300  1.0
  H  H1008  1  0.471800  0.608800  0.185700  1.0
  H  H1009  1  0.096000  0.683200  0.665000  1.0
  H  H1010  1  0.412800  0.316800  0.835000  1.0
  H  H1011  1  0.904000  0.316800  0.335000  1.0
  H  H1012  1  0.587200  0.683200  0.165000  1.0
  H  H1013  1  0.122000  0.497200  0.663700  1.0
  H  H1014  1  0.624800  0.502800  0.836300  1.0
  H  H1015  1  0.878000  0.502800  0.336300  1.0
  H  H1016  1  0.375200  0.497200  0.163700  1.0
  H  H1017  1  0.087200  0.394600  0.691600  1.0
  H  H1018  1  0.692600  0.605400  0.808400  1.0
  H  H1019  1  0.912800  0.605400  0.308400  1.0
  H  H1020  1  0.307400  0.394600  0.191600  1.0
  H  H1021  1  0.139900  0.329000  0.717400  1.0
  H  H1022  1  0.810900  0.671000  0.782600  1.0
  H  H1023  1  0.860100  0.671000  0.282600  1.0
  H  H1024  1  0.189100  0.329000  0.217400  1.0
  H  H1025  1  0.284200  0.366000  0.730500  1.0
  H  H1026  1  0.918200  0.634000  0.769500  1.0
  H  H1027  1  0.715800  0.634000  0.269500  1.0
  H  H1028  1  0.081800  0.366000  0.230500  1.0
  H  H1029  1  0.379500  0.452800  0.709300  1.0
  H  H1030  1  0.926700  0.547200  0.790700  1.0
  H  H1031  1  0.620500  0.547200  0.290700  1.0
  H  H1032  1  0.073300  0.452800  0.209300  1.0
  H  H1033  1  0.877200  0.576600  0.867100  1.0
  H  H1034  1  0.300600  0.423400  0.632900  1.0
  H  H1035  1  0.122800  0.423400  0.132900  1.0
  H  H1036  1  0.699400  0.576600  0.367100  1.0
  H  H1037  1  0.930100  0.616200  0.918900  1.0
  H  H1038  1  0.313900  0.383800  0.581100  1.0
  H  H1039  1  0.069900  0.383800  0.081100  1.0
  H  H1040  1  0.686100  0.616200  0.418900  1.0
  H  H1041  1  0.938900  0.545400  0.953500  1.0
  H  H1042  1  0.393500  0.454600  0.546500  1.0
  H  H1043  1  0.061100  0.454600  0.046500  1.0
  H  H1044  1  0.606500  0.545400  0.453500  1.0
  H  H1045  1  0.884000  0.433600  0.934600  1.0
  H  H1046  1  0.450400  0.566400  0.565400  1.0
  H  H1047  1  0.116000  0.566400  0.065400  1.0
  H  H1048  1  0.549600  0.433600  0.434600  1.0
  H  H1049  1  0.817600  0.344200  0.886400  1.0
  H  H1050  1  0.473400  0.655800  0.613600  1.0
  H  H1051  1  0.182400  0.655800  0.113600  1.0
  H  H1052  1  0.526600  0.344200  0.386400  1.0
  H  H1053  1  0.821800  0.304600  0.793500  1.0
  H  H1054  1  0.517200  0.695400  0.706500  1.0
  H  H1055  1  0.178200  0.695400  0.206500  1.0
  H  H1056  1  0.482800  0.304600  0.293500  1.0
  H  H1057  1  0.754400  0.197800  0.770600  1.0
  H  H1058  1  0.556600  0.802200  0.729400  1.0
  H  H1059  1  0.245600  0.802200  0.229400  1.0
  H  H1060  1  0.443400  0.197800  0.270600  1.0
  H  H1061  1  0.593300  0.165400  0.842000  1.0
  H  H1062  1  0.427900  0.834600  0.658000  1.0
  H  H1063  1  0.406700  0.834600  0.158000  1.0
  H  H1064  1  0.572100  0.165400  0.342000  1.0
  H  H1065  1  0.661200  0.270400  0.866300  1.0
  H  H1066  1  0.390800  0.729600  0.633700  1.0
  H  H1067  1  0.338800  0.729600  0.133700  1.0
  H  H1068  1  0.609200  0.270400  0.366300  1.0
  H  H1069  1  0.628900  0.123000  0.743500  1.0
  H  H1070  1  0.505900  0.877000  0.756500  1.0
  H  H1071  1  0.371100  0.877000  0.256500  1.0
  H  H1072  1  0.494100  0.123000  0.243500  1.0
  H  H1073  1  0.597200  0.062800  0.829700  1.0
  H  H1074  1  0.534400  0.937200  0.670300  1.0
  H  H1075  1  0.402800  0.937200  0.170300  1.0
  H  H1076  1  0.465600  0.062800  0.329700  1.0
  H  H1077  1  0.537300  0.955400  0.805100  1.0
  H  H1078  1  0.581900  0.044600  0.694900  1.0
  H  H1079  1  0.462700  0.044600  0.194900  1.0
  H  H1080  1  0.418100  0.955400  0.305100  1.0
  H  H1081  1  0.768300  0.061600  0.461100  1.0
  H  H1082  1  0.706700  0.938400  0.038900  1.0
  H  H1083  1  0.231700  0.938400  0.538900  1.0
  H  H1084  1  0.293300  0.061600  0.961100  1.0
  H  H1085  1  0.708500  0.977200  0.420200  1.0
  H  H1086  1  0.731300  0.022800  0.079800  1.0
  H  H1087  1  0.291500  0.022800  0.579800  1.0
  H  H1088  1  0.268700  0.977200  0.920200  1.0
  H  H1089  1  0.643800  0.871800  0.432300  1.0
  H  H1090  1  0.772000  0.128200  0.067700  1.0
  H  H1091  1  0.356200  0.128200  0.567700  1.0
  H  H1092  1  0.228000  0.871800  0.932300  1.0
  H  H1093  1  0.629200  0.856000  0.486600  1.0
  H  H1094  1  0.773200  0.144000  0.013400  1.0
  H  H1095  1  0.370800  0.144000  0.513400  1.0
  H  H1096  1  0.226800  0.856000  0.986600  1.0
  H  H1097  1  0.672500  0.908600  0.546200  1.0
  H  H1098  1  0.763900  0.091400  0.953800  1.0
  H  H1099  1  0.327500  0.091400  0.453800  1.0
  H  H1100  1  0.236100  0.908600  0.046200  1.0
  H  H1101  1  0.704900  0.065000  0.606400  1.0
  H  H1102  1  0.639900  0.935000  0.893600  1.0
  H  H1103  1  0.295100  0.935000  0.393600  1.0
  H  H1104  1  0.360100  0.065000  0.106400  1.0
  H  H1105  1  0.716200  0.056200  0.660800  1.0
  H  H1106  1  0.660000  0.943800  0.839200  1.0
  H  H1107  1  0.283800  0.943800  0.339200  1.0
  H  H1108  1  0.340000  0.056200  0.160800  1.0
  H  H1109  1  0.798800  0.912000  0.638100  1.0
  H  H1110  1  0.886800  0.088000  0.861900  1.0
  H  H1111  1  0.201200  0.088000  0.361900  1.0
  H  H1112  1  0.113200  0.912000  0.138100  1.0
  H  H1113  1  0.790800  0.920200  0.584100  1.0
  H  H1114  1  0.870600  0.079800  0.915900  1.0
  H  H1115  1  0.209200  0.079800  0.415900  1.0
  H  H1116  1  0.129400  0.920200  0.084100  1.0
  H  H1117  1  0.723900  0.881400  0.685000  1.0
  H  H1118  1  0.842500  0.118600  0.815000  1.0
  H  H1119  1  0.276100  0.118600  0.315000  1.0
  H  H1120  1  0.157500  0.881400  0.185000  1.0
  H  H1121  1  0.811100  0.074800  0.704400  1.0
  H  H1122  1  0.736300  0.925200  0.795600  1.0
  H  H1123  1  0.188900  0.925200  0.295600  1.0
  H  H1124  1  0.263700  0.074800  0.204400  1.0
  H  H1125  1  0.848000  0.126800  0.761600  1.0
  H  H1126  1  0.721200  0.873200  0.738400  1.0
  H  H1127  1  0.152000  0.873200  0.238400  1.0
  H  H1128  1  0.278800  0.126800  0.261600  1.0
  H  H1129  1  0.074100  0.610000  0.013200  1.0
  H  H1130  1  0.464100  0.390000  0.486800  1.0
  H  H1131  1  0.925900  0.390000  0.986800  1.0
  H  H1132  1  0.535900  0.610000  0.513200  1.0
  H  H1133  1  0.139000  0.542000  0.983600  1.0
  H  H1134  1  0.597000  0.458000  0.516400  1.0
  H  H1135  1  0.861000  0.458000  0.016400  1.0
  H  H1136  1  0.403000  0.542000  0.483600  1.0
  H  H1137  1  0.065900  0.435200  0.975300  1.0
  H  H1138  1  0.630700  0.564800  0.524700  1.0
  H  H1139  1  0.934100  0.564800  0.024700  1.0
  H  H1140  1  0.369300  0.435200  0.475300  1.0
  N  N1141  1  0.601100  0.185000  0.442000  1
  N  N1142  1  0.416100  0.815000  0.058000  1
  N  N1143  1  0.398900  0.815000  0.558000  1
  N  N1144  1  0.583900  0.185000  0.942000  1
  N  N1145  1  0.762000  0.198800  0.697500  1
  N  N1146  1  0.563200  0.801200  0.802500  1
  N  N1147  1  0.238000  0.801200  0.302500  1
  N  N1148  1  0.436800  0.198800  0.197500  1
  N  N1149  1  0.909500  0.441600  0.809200  1.0
  N  N1150  1  0.467900  0.558400  0.690800  1.0
  N  N1151  1  0.090500  0.558400  0.190800  1.0
  N  N1152  1  0.532100  0.441600  0.309200  1.0
  N  N1153  1  0.759000  0.399600  0.782200  1.0
  N  N1154  1  0.359400  0.600400  0.717800  1.0
  N  N1155  1  0.241000  0.600400  0.217800  1.0
  N  N1156  1  0.640600  0.399600  0.282200  1.0
  N  N1157  1  0.842900  0.142400  0.573400  1.0
  N  N1158  1  0.700500  0.857600  0.926600  1.0
  N  N1159  1  0.157100  0.857600  0.426600  1.0
  N  N1160  1  0.299500  0.142400  0.073400  1.0
  N  N1161  1  0.693700  0.099600  0.544100  1.0
  N  N1162  1  0.594100  0.900400  0.955900  1.0
  N  N1163  1  0.306300  0.900400  0.455900  1.0
  N  N1164  1  0.405900  0.099600  0.044100  1.0
  N  N1165  1  0.844100  0.149000  0.509370  1.0
  N  N1166  1  0.695100  0.851000  0.990630  1.0
  N  N1167  1  0.155900  0.851000  0.490630  1.0
  N  N1168  1  0.304900  0.149000  0.009370  1.0
  N  N1169  1  0.906900  0.070400  0.527130  1.0
  N  N1170  1  0.836500  0.929600  0.972870  1.0
  N  N1171  1  0.093100  0.929600  0.472870  1.0
  N  N1172  1  0.163500  0.070400  0.027130  1.0
  N  N1173  1  0.241100  0.553400  0.662500  1.0
  N  N1174  1  0.687700  0.446600  0.837500  1.0
  N  N1175  1  0.758900  0.446600  0.337500  1.0
  N  N1176  1  0.312300  0.553400  0.162500  1.0
  N  N1177  1  0.289900  0.477200  0.690500  1.0
  N  N1178  1  0.812700  0.522800  0.809500  1.0
  N  N1179  1  0.710100  0.522800  0.309500  1.0
  N  N1180  1  0.187300  0.477200  0.190500  1.0
  N  N1181  1  0.849400  0.484600  0.869000  1.0
  N  N1182  1  0.364800  0.515400  0.631000  1.0
  N  N1183  1  0.150600  0.515400  0.131000  1.0
  N  N1184  1  0.635200  0.484600  0.369000  1.0
  N  N1185  1  0.788200  0.364400  0.845900  1.0
  N  N1186  1  0.423800  0.635600  0.654100  1.0
  N  N1187  1  0.211800  0.635600  0.154100  1.0
  N  N1188  1  0.576200  0.364400  0.345900  1.0
  N  N1189  1  0.737300  0.011600  0.497300  1.0
  N  N1190  1  0.725700  0.988400  0.002700  1.0
  N  N1191  1  0.262700  0.988400  0.502700  1.0
  N  N1192  1  0.274300  0.011600  0.997300  1.0
  N  N1193  1  0.741800  0.999400  0.556800  1.0
  N  N1194  1  0.742400  0.000600  0.943200  1.0
  N  N1195  1  0.258200  0.000600  0.443200  1.0
  N  N1196  1  0.257600  0.999400  0.056800  1.0
  O  O1197  1  0.489100  0.087800  0.466400  1
  O  O1198  1  0.401300  0.912200  0.033600  1
  O  O1199  1  0.510900  0.912200  0.533600  1
  O  O1200  1  0.598700  0.087800  0.966400  1
  O  O1201  1  0.630900  0.094000  0.452500  1
  O  O1202  1  0.536900  0.906000  0.047500  1
  O  O1203  1  0.369100  0.906000  0.547500  1
  O  O1204  1  0.463100  0.094000  0.952500  1
  O  O1205  1  0.463700  0.203400  0.454000  1
  O  O1206  1  0.260300  0.796600  0.046000  1
  O  O1207  1  0.536300  0.796600  0.546000  1
  O  O1208  1  0.739700  0.203400  0.954000  1
  O  O1209  1  0.580400  0.282200  0.429400  1
  O  O1210  1  0.298200  0.717800  0.070600  1
  O  O1211  1  0.419600  0.717800  0.570600  1
  O  O1212  1  0.701800  0.282200  0.929400  1
  O  O1213  1  0.644100  0.138600  0.654500  1
  O  O1214  1  0.505500  0.861400  0.845500  1
  O  O1215  1  0.355900  0.861400  0.345500  1
  O  O1216  1  0.494500  0.138600  0.154500  1
  O  O1217  1  0.745800  0.246400  0.648200  1
  O  O1218  1  0.499400  0.753600  0.851800  1
  O  O1219  1  0.254200  0.753600  0.351800  1
  O  O1220  1  0.500600  0.246400  0.148200  1
  O  O1221  1  0.878400  0.249200  0.739800  1
  O  O1222  1  0.629200  0.750800  0.760200  1
  O  O1223  1  0.121600  0.750800  0.260200  1
  O  O1224  1  0.370800  0.249200  0.239800  1
  O  O1225  1  0.863300  0.314000  0.699700  1
  O  O1226  1  0.549300  0.686000  0.800300  1
  O  O1227  1  0.136700  0.686000  0.300300  1
  O  O1228  1  0.450700  0.314000  0.199700  1
  S  S1229  1  0.558930  0.111260  0.446480  1
  S  S1230  1  0.447670  0.888740  0.053520  1
  S  S1231  1  0.441070  0.888740  0.553520  1
  S  S1232  1  0.552330  0.111260  0.946480  1
  S  S1233  1  0.555390  0.233980  0.449490  1
  S  S1234  1  0.321410  0.766020  0.050510  1
  S  S1235  1  0.444610  0.766020  0.550510  1
  S  S1236  1  0.678590  0.233980  0.949490  1
  S  S1237  1  0.701490  0.201980  0.669020  1
  S  S1238  1  0.499510  0.798020  0.830980  1
  S  S1239  1  0.298510  0.798020  0.330980  1
  S  S1240  1  0.500490  0.201980  0.169020  1
  S  S1241  1  0.856900  0.253400  0.708000  1
  S  S1242  1  0.603500  0.746600  0.792000  1
  S  S1243  1  0.143100  0.746600  0.292000  1
  S  S1244  1  0.396500  0.253400  0.208000  1
