
#######################################################################
#
#                 Cambridge Crystallographic Data Centre
#                                CCDC 
#
#######################################################################
#
# If this CIF has been generated from an entry in the Cambridge 
# Structural Database, then it will include bibliographic, chemical, 
# crystal, experimental, refinement or atomic coordinate data resulting 
# from the CCDC's data processing and validation procedures.
#
#######################################################################

data_SAYGOR
_chemical_formula_moiety         'C252 H168 Fe4 N24 5+,8(B1 F4 1-)'
_chemical_name_systematic        
"hexakis(\m-N,N'-[triphenylene-2,7-diyldi(4,1-phenylene)]bis[1-(pyridin-2-yl)methanimine])-tetra-iron(ii) octakis(tetrafluoroborate) unknown solvate"
_symmetry_cell_setting           monoclinic
_symmetry_space_group_name_H-M   'P 2/n'
_symmetry_Int_Tables_number      13
_space_group_name_Hall           '-P 2yac'
loop_
_symmetry_equiv_pos_site_id
_symmetry_equiv_pos_as_xyz
1 x,y,z
2 1/2-x,y,1/2-z
3 -x,-y,-z
4 1/2+x,-y,1/2+z
_cell_length_a                   30.1400(6)
_cell_length_b                   25.5892(7)
_cell_length_c                   42.2438(7)
_cell_angle_alpha                90
_cell_angle_beta                 101.895(2)
_cell_angle_gamma                90
_cell_volume                     31881.3
_exptl_crystal_colour            purple
_exptl_crystal_description       block
_cell_formula_units_Z            4
loop_
_atom_site_label
_atom_site_type_symbol
_atom_site_fract_x
_atom_site_fract_y
_atom_site_fract_z
Fe1 Fe 0.39618(5) 0.20959(7) 0.43272(4)
Fe2 Fe 1.00538(5) 0.19117(8) 0.27921(4)
Fe3 Fe 0.78237(6) 0.89881(7) 0.43853(4)
Fe4 Fe 0.99553(10) 0.29860(10) 0.76906(4)
N1 N 0.3802(3) 0.1623(3) 0.46654(17)
N2 N 0.4254(2) 0.2498(3) 0.47228(19)
N3 N 0.7615(3) 0.8627(3) 0.4749(2)
N4 N 0.8026(3) 0.9505(4) 0.4722(2)
C1 C 0.3557(3) 0.1178(4) 0.4629(2)
H1 H 0.3393 0.1090 0.4419
C2 C 0.3532(4) 0.0846(4) 0.4879(3)
H2 H 0.3349 0.0541 0.4843
C3 C 0.3775(4) 0.0962(4) 0.5182(3)
H3 H 0.3772 0.0729 0.5357
C4 C 0.4025(4) 0.1419(4) 0.5232(2)
H4 H 0.4191 0.1510 0.5441
C5 C 0.4025(3) 0.1742(3) 0.4966(2)
C6 C 0.4264(3) 0.2243(3) 0.4991(2)
H5 H 0.4420 0.2376 0.5193
C7 C 0.4502(3) 0.2976(3) 0.4750(2)
C8 C 0.4299(3) 0.3435(4) 0.4620(2)
H6 H 0.3989 0.3431 0.4516
C9 C 0.4539(3) 0.3898(3) 0.4641(2)
H7 H 0.4387 0.4209 0.4557
C10 C 0.5002(3) 0.3918(3) 0.4782(2)
C11 C 0.5201(3) 0.3453(3) 0.4913(2)
H8 H 0.5514 0.3452 0.5011
C12 C 0.4958(3) 0.2993(3) 0.4904(2)
H9 H 0.5102 0.2688 0.5003
C13 C 0.5271(3) 0.4407(3) 0.4788(2)
C14 C 0.5685(3) 0.4478(4) 0.5005(2)
H10 H 0.5794 0.4211 0.5157
C15 C 0.5934(3) 0.4921(4) 0.5003(2)
H11 H 0.6215 0.4948 0.5153
C16 C 0.5799(3) 0.5338(3) 0.4790(2)
C17 C 0.5362(3) 0.5293(3) 0.4586(2)
C18 C 0.5119(3) 0.4825(3) 0.4588(2)
H12 H 0.4834 0.4794 0.4442
C19 C 0.6073(3) 0.5807(3) 0.4782(2)
C20 C 0.6504(3) 0.5875(4) 0.4982(2)
H13 H 0.6622 0.5604 0.5130
C21 C 0.6759(3) 0.6313(3) 0.4974(2)
H14 H 0.7046 0.6340 0.5116
C22 C 0.6609(3) 0.6722(3) 0.4761(2)
C23 C 0.6176(3) 0.6675(3) 0.4567(2)
H15 H 0.6063 0.6952 0.4423
C24 C 0.5898(3) 0.6235(3) 0.4576(2)
C25 C 0.5428(3) 0.6216(4) 0.4395(2)
C26 C 0.5219(4) 0.6648(4) 0.4220(3)
H16 H 0.5381 0.6967 0.4223
C27 C 0.4785(4) 0.6613(5) 0.4047(3)
H17 H 0.4653 0.6907 0.3925
C28 C 0.4536(4) 0.6161(5) 0.4043(4)
H18 H 0.4234 0.6147 0.3920
C29 C 0.4719(4) 0.5734(5) 0.4215(3)
H19 H 0.4543 0.5425 0.4213
C30 C 0.5169(3) 0.5749(4) 0.4396(2)
C31 C 0.6889(3) 0.7197(3) 0.4743(2)
C32 C 0.7343(3) 0.7236(3) 0.4892(2)
H20 H 0.7494 0.6935 0.4995
C33 C 0.7586(3) 0.7697(3) 0.4897(2)
H21 H 0.7895 0.7710 0.5005
C34 C 0.7377(3) 0.8143(3) 0.4743(2)
C35 C 0.6928(3) 0.8109(3) 0.4589(2)
H22 H 0.6780 0.8407 0.4482
C36 C 0.6690(3) 0.7649(3) 0.4590(2)
H23 H 0.6381 0.7638 0.4482
C37 C 0.7673(4) 0.8898(3) 0.5009(3)
H24 H 0.7564 0.8783 0.5193
C38 C 0.7917(4) 0.9394(3) 0.5011(2)
C39 C 0.8027(5) 0.9714(5) 0.5279(3)
H25 H 0.7945 0.9619 0.5477
C40 C 0.8257(6) 1.0175(5) 0.5255(3)
H26 H 0.8341 1.0401 0.5436
C41 C 0.8362(6) 1.0299(5) 0.4959(3)
H27 H 0.8513 1.0617 0.4932
C42 C 0.8245(5) 0.9956(5) 0.4703(3)
H28 H 0.8324 1.0043 0.4503
N5 N 1.0364(3) 0.2278(4) 0.2479(2)
N6 N 0.9556(2) 0.2393(4) 0.25924(18)
N7 N 0.4116(2) 0.2596(4) 0.40035(19)
N8 N 0.3411(2) 0.2540(3) 0.42618(19)
C43 C 1.0793(3) 0.2225(5) 0.2436(3)
H29 H 1.0978 0.1963 0.2556
C44 C 1.0975(4) 0.2532(5) 0.2230(3)
H30 H 1.1280 0.2482 0.2210
C45 C 1.0713(3) 0.2912(5) 0.2054(3)
H31 H 1.0833 0.3129 0.1909
C46 C 1.0268(3) 0.2974(4) 0.2091(2)
H32 H 1.0077 0.3232 0.1971
C47 C 1.0110(3) 0.2652(4) 0.2307(2)
C48 C 0.9653(3) 0.2705(4) 0.2374(2)
H33 H 0.9441 0.2952 0.2264
C49 C 0.9117(2) 0.2436(4) 0.26661(18)
C50 C 0.9002(3) 0.2868(4) 0.2829(2)
H34 H 0.9214 0.3144 0.2886
C51 C 0.8579(3) 0.2900(4) 0.2912(2)
H35 H 0.8505 0.3201 0.3023
C52 C 0.8261(2) 0.2502(3) 0.28345(18)
C53 C 0.8379(2) 0.2075(4) 0.2664(2)
H36 H 0.8167 0.1799 0.2605
C54 C 0.8796(3) 0.2044(4) 0.2579(2)
H37 H 0.8865 0.1750 0.2460
C55 C 0.7812(2) 0.2516(4) 0.29333(18)
C56 C 0.7578(3) 0.2985(4) 0.2944(2)
H38 H 0.7698 0.3296 0.2873
C57 C 0.7184(3) 0.3009(4) 0.3052(2)
H39 H 0.7041 0.3337 0.3063
C58 C 0.6983(2) 0.2554(4) 0.31489(18)
C59 C 0.7201(2) 0.2062(3) 0.31260(18)
C60 C 0.7618(2) 0.2066(4) 0.30210(19)
H40 H 0.7770 0.1744 0.3011
C61 C 0.6560(2) 0.2568(4) 0.32722(18)
C62 C 0.6332(3) 0.3039(4) 0.3302(2)
H41 H 0.6450 0.3356 0.3237
C63 C 0.5943(3) 0.3052(4) 0.3423(2)
H42 H 0.5800 0.3377 0.3442
C64 C 0.5755(2) 0.2594(4) 0.35179(19)
C65 C 0.5974(3) 0.2130(4) 0.3489(2)
H43 H 0.5847 0.1817 0.3552
C66 C 0.6378(3) 0.2097(3) 0.33702(19)
C67 C 0.6600(3) 0.1595(3) 0.3344(2)
C68 C 0.6430(4) 0.1117(4) 0.3436(3)
H44 H 0.6170 0.1122 0.3530
C69 C 0.6626(4) 0.0652(4) 0.3394(3)
H45 H 0.6498 0.0338 0.3456
C70 C 0.7011(4) 0.0628(4) 0.3261(3)
H46 H 0.7145 0.0301 0.3230
C71 C 0.7195(3) 0.1083(4) 0.3177(2)
H47 H 0.7459 0.1065 0.3088
C72 C 0.7007(3) 0.1578(4) 0.32182(19)
C73 C 0.5326(2) 0.2607(3) 0.36417(19)
C74 C 0.5214(3) 0.3024(4) 0.3820(2)
H48 H 0.5412 0.3317 0.3860
C75 C 0.4819(3) 0.3025(4) 0.3941(2)
H49 H 0.4753 0.3312 0.4066
C76 C 0.4520(2) 0.2606(4) 0.3880(2)
C77 C 0.4622(3) 0.2193(4) 0.3696(2)
H50 H 0.4417 0.1908 0.3648
C78 C 0.5020(3) 0.2189(4) 0.3581(2)
H51 H 0.5087 0.1898 0.3460
C79 C 0.3817(3) 0.2950(4) 0.3910(3)
H52 H 0.3856 0.3208 0.3757
C80 C 0.3409(3) 0.2937(4) 0.4052(2)
C81 C 0.3062(3) 0.3298(4) 0.3969(3)
H53 H 0.3081 0.3577 0.3825
C82 C 0.2682(3) 0.3233(5) 0.4106(3)
H54 H 0.2431 0.3465 0.4054
C83 C 0.2680(3) 0.2827(4) 0.4318(3)
H55 H 0.2425 0.2777 0.4414
C84 C 0.3044(3) 0.2492(4) 0.4394(2)
H56 H 0.3035 0.2219 0.4544
N9 N 1.0595(3) 0.1477(4) 0.2966(2)
N10 N 1.0365(3) 0.2401(3) 0.3135(2)
N11 N 0.7555(3) 0.8476(3) 0.4061(2)
N12 N 0.7217(3) 0.9323(3) 0.4246(2)
C85 C 1.0692(4) 0.0995(5) 0.2877(3)
H57 H 1.0497 0.0840 0.2696
C86 C 1.1061(5) 0.0713(5) 0.3037(4)
H58 H 1.1116 0.0368 0.2971
C87 C 1.1347(5) 0.0943(6) 0.3294(4)
H59 H 1.1602 0.0756 0.3409
C88 C 1.1264(4) 0.1447(6) 0.3386(3)
H60 H 1.1463 0.1615 0.3560
C89 C 1.0882(3) 0.1700(4) 0.3217(3)
C90 C 1.0745(4) 0.2222(4) 0.3301(3)
H61 H 1.0927 0.2421 0.3469
C91 C 1.0213(3) 0.2896(4) 0.3221(2)
C92 C 1.0176(3) 0.3316(4) 0.3013(2)
H62 H 1.0279 0.3283 0.2816
C93 C 0.9991(3) 0.3783(4) 0.3084(2)
H63 H 0.9977 0.4070 0.2940
C94 C 0.9824(3) 0.3837(3) 0.3369(2)
C95 C 0.9877(4) 0.3417(4) 0.3582(2)
H64 H 0.9776 0.3449 0.3780
C96 C 1.0073(3) 0.2955(4) 0.3515(2)
H65 H 1.0114 0.2678 0.3667
C97 C 0.9578(3) 0.4313(3) 0.3434(2)
C98 C 0.9575(4) 0.4466(5) 0.3751(2)
H66 H 0.9736 0.4265 0.3926
C99 C 0.9345(4) 0.4899(5) 0.3812(3)
H67 H 0.9359 0.5000 0.4030
C100 C 0.9086(4) 0.5203(4) 0.3562(3)
C101 C 0.9088(3) 0.5058(4) 0.3235(2)
C102 C 0.9338(4) 0.4612(4) 0.3182(2)
H68 H 0.9343 0.4513 0.2966
C103 C 0.8842(4) 0.5670(4) 0.3623(3)
C104 C 0.8790(5) 0.5800(5) 0.3937(3)
H69 H 0.8912 0.5577 0.4113
C105 C 0.8566(5) 0.6242(5) 0.3992(3)
H70 H 0.8533 0.6316 0.4206
C106 C 0.8384(4) 0.6589(4) 0.3746(3)
C107 C 0.8428(5) 0.6469(4) 0.3434(3)
H71 H 0.8312 0.6705 0.3264
C108 C 0.8641(4) 0.6005(4) 0.3363(2)
C109 C 0.8641(4) 0.5860(4) 0.3032(2)
C110 C 0.8418(5) 0.6165(5) 0.2770(3)
H72 H 0.8285 0.6488 0.2810
C111 C 0.8391(7) 0.6001(7) 0.2458(3)
H73 H 0.8238 0.6208 0.2283
C112 C 0.8585(7) 0.5531(7) 0.2400(3)
H74 H 0.8558 0.5416 0.2183
C113 C 0.8817(6) 0.5229(6) 0.2646(3)
H75 H 0.8955 0.4914 0.2598
C114 C 0.8851(4) 0.5382(4) 0.2970(2)
C115 C 0.8160(4) 0.7079(4) 0.3819(3)
C116 C 0.7851(4) 0.7076(4) 0.4023(3)
H76 H 0.7777 0.6754 0.4112
C117 C 0.7651(4) 0.7530(4) 0.4100(3)
H77 H 0.7443 0.7519 0.4240
C118 C 0.7753(3) 0.8005(3) 0.3972(2)
C119 C 0.8057(4) 0.8015(4) 0.3764(3)
H78 H 0.8126 0.8336 0.3673
C120 C 0.8259(5) 0.7557(4) 0.3691(3)
H79 H 0.8469 0.7568 0.3551
C121 C 0.7144(4) 0.8579(4) 0.3912(3)
H80 H 0.6983 0.8357 0.3747
C122 C 0.6942(3) 0.9057(4) 0.4009(2)
C123 C 0.6503(3) 0.9215(5) 0.3872(3)
H81 H 0.6316 0.9013 0.3708
C124 C 0.6346(4) 0.9674(5) 0.3980(3)
H82 H 0.6050 0.9797 0.3888
C125 C 0.6620(4) 0.9954(5) 0.4223(3)
H83 H 0.6516 1.0270 0.4301
C126 C 0.7050(4) 0.9764(4) 0.4349(3)
H84 H 0.7237 0.9956 0.4517
N13 N 0.8085(3) 0.9370(3) 0.4051(2)
N14 N 0.8430(3) 0.8653(3) 0.4465(2)
C127 C 0.7895(4) 0.9740(4) 0.3843(3)
H85 H 0.7599 0.9858 0.3853
C128 C 0.8110(4) 0.9958(5) 0.3615(3)
H86 H 0.7965 1.0222 0.3472
C129 C 0.8536(4) 0.9787(5) 0.3600(3)
H87 H 0.8690 0.9927 0.3444
C130 C 0.8741(4) 0.9407(5) 0.3815(3)
H88 H 0.9037 0.9286 0.3810
C131 C 0.8504(3) 0.9209(4) 0.4036(2)
C132 C 0.8688(4) 0.8816(4) 0.4279(3)
H89 H 0.8987 0.8684 0.4297
N15 N 0.9785(3) 0.1356(4) 0.24933(17)
N16 N 0.9710(2) 0.1527(3) 0.30832(15)
C133 C 0.9842(4) 0.1280(5) 0.2190(2)
H90 H 1.0019 0.1524 0.2100
C134 C 0.9654(5) 0.0861(5) 0.2002(3)
H91 H 0.9698 0.0823 0.1787
C135 C 0.9399(5) 0.0498(5) 0.2133(3)
H92 H 0.9271 0.0202 0.2011
C136 C 0.9335(4) 0.0579(5) 0.2446(2)
H93 H 0.9156 0.0343 0.2541
C137 C 0.9535(3) 0.1007(4) 0.26180(19)
C138 C 0.9505(4) 0.1128(5) 0.29549(19)
H94 H 0.9337 0.0911 0.3070
N17 N 0.3697(3) 0.1589(3) 0.39812(18)
N18 N 0.4496(2) 0.1623(3) 0.43473(17)
C139 C 0.3279(3) 0.1585(5) 0.3794(2)
H95 H 0.3087 0.1876 0.3806
C140 C 0.3113(4) 0.1182(5) 0.3586(3)
H96 H 0.2814 0.1193 0.3460
C141 C 0.3392(4) 0.0764(5) 0.3566(3)
H97 H 0.3285 0.0481 0.3425
C142 C 0.3831(3) 0.0757(4) 0.3752(3)
H98 H 0.4031 0.0474 0.3739
C143 C 0.3966(3) 0.1177(4) 0.3956(2)
C144 C 0.4413(3) 0.1207(4) 0.4173(2)
H99 H 0.4630 0.0934 0.4185
N19 N 0.9444(5) 0.3431(6) 0.7550(4)
N20 N 0.9660(6) 0.2616(7) 0.7988(4)
C145 C 0.8621(6) 0.8326(6) 0.4731(3)
C146 C 0.8716(7) 0.7822(6) 0.4651(3)
H100 H 0.8704 0.7734 0.4431
C147 C 0.8830(7) 0.7442(6) 0.4888(3)
H101 H 0.8887 0.7094 0.4828
C148 C 0.8862(5) 0.7568(5) 0.5213(3)
C149 C 0.8794(7) 0.8084(5) 0.5292(3)
H102 H 0.8831 0.8180 0.5514
C150 C 0.8671(7) 0.8464(5) 0.5055(3)
H103 H 0.8622 0.8814 0.5114
C151 C 0.8936(5) 0.7153(5) 0.5466(3)
C152 C 0.9178(6) 0.6701(6) 0.5430(4)
H104 H 0.9328 0.6674 0.5254
C153 C 0.9203(6) 0.6295(6) 0.5643(4)
H105 H 0.9368 0.5992 0.5607
C154 C 0.8999(5) 0.6303(5) 0.5911(3)
C155 C 0.8762(5) 0.6777(5) 0.5960(3)
C156 C 0.8735(5) 0.7185(5) 0.5732(3)
H106 H 0.8574 0.7494 0.5762
C157 C 0.9043(5) 0.5881(5) 0.6146(3)
C158 C 0.9214(6) 0.5385(6) 0.6090(3)
H107 H 0.9302 0.5321 0.5891
C159 C 0.9257(6) 0.4996(6) 0.6314(4)
H108 H 0.9371 0.4666 0.6265
C160 C 0.9139(5) 0.5065(5) 0.6612(3)
C161 C 0.8959(6) 0.5542(5) 0.6676(4)
H109 H 0.8876 0.5595 0.6879
C162 C 0.8895(5) 0.5954(5) 0.6447(3)
C163 C 0.8671(5) 0.6439(5) 0.6499(3)
C164 C 0.8529(6) 0.6538(7) 0.6791(4)
H110 H 0.8597 0.6290 0.6962
C165 C 0.8298(6) 0.6977(7) 0.6835(4)
H111 H 0.8207 0.7031 0.7035
C166 C 0.8192(6) 0.7349(7) 0.6591(4)
H112 H 0.8021 0.7650 0.6620
C167 C 0.8336(6) 0.7277(6) 0.6306(4)
H113 H 0.8266 0.7534 0.6142
C168 C 0.8585(5) 0.6831(6) 0.6252(3)
C169 C 0.9200(5) 0.4636(5) 0.6854(3)
C170 C 0.9046(5) 0.4131(5) 0.6776(3)
H114 H 0.8888 0.4058 0.6561
C171 C 0.9118(6) 0.3731(5) 0.7001(4)
H115 H 0.9006 0.3390 0.6942
C172 C 0.9356(5) 0.3832(5) 0.7315(3)
C173 C 0.9504(6) 0.4336(6) 0.7396(3)
H116 H 0.9662 0.4409 0.7611
C174 C 0.9429(6) 0.4735(6) 0.7172(3)
H117 H 0.9532 0.5079 0.7233
C175 C 0.9163(7) 0.3275(6) 0.7713(4)
H118 H 0.8875 0.3442 0.7679
C176 C 0.9257(6) 0.2851(6) 0.7952(4)
C177 C 0.8955(6) 0.2702(8) 0.8145(5)
H119 H 0.8665 0.2862 0.8120
C178 C 0.9087(8) 0.2313(9) 0.8374(5)
H120 H 0.8886 0.2205 0.8508
C179 C 0.9508(8) 0.2083(8) 0.8409(5)
H121 H 0.9601 0.1816 0.8565
C180 C 0.9790(6) 0.2251(7) 0.8210(5)
H122 H 1.0084 0.2101 0.8233
N21 N 1.0378(6) 0.3454(7) 0.7397(3)
N22 N 1.0271(5) 0.3578(5) 0.7981(4)
C181 C 0.9730(5) 0.1730(5) 0.3401(2)
C182 C 0.9398(5) 0.2038(7) 0.3496(3)
H123 H 0.9146 0.2155 0.3339
C183 C 0.9434(4) 0.2176(5) 0.3820(3)
H124 H 0.9207 0.2391 0.3879
C184 C 0.9793(4) 0.2004(5) 0.4058(2)
C185 C 1.0133(4) 0.1719(5) 0.3958(3)
H125 H 1.0389 0.1609 0.4115
C186 C 1.0108(4) 0.1593(6) 0.3637(3)
H126 H 1.0351 0.1410 0.3576
C187 C 0.9828(4) 0.2136(5) 0.4408(2)
C188 C 0.9783(5) 0.2653(5) 0.4494(3)
H127 H 0.9694 0.2908 0.4330
C189 C 0.9862(5) 0.2804(5) 0.4810(3)
H128 H 0.9844 0.3164 0.4861
C190 C 0.9970(5) 0.2438(6) 0.5064(3)
C191 C 0.9982(5) 0.1900(5) 0.4984(3)
C192 C 0.9926(6) 0.1766(6) 0.4650(3)
H129 H 0.9958 0.1411 0.4593
C193 C 1.0060(4) 0.2613(5) 0.5407(3)
C194 C 1.0115(6) 0.3138(6) 0.5494(3)
H130 H 1.0084 0.3395 0.5329
C195 C 1.0214(6) 0.3296(6) 0.5814(3)
H131 H 1.0246 0.3657 0.5865
C196 C 1.0266(5) 0.2927(6) 0.6063(3)
C197 C 1.0215(5) 0.2411(5) 0.5982(3)
H132 H 1.0247 0.2162 0.6152
C198 C 1.0116(5) 0.2223(5) 0.5655(3)
C199 C 1.0093(5) 0.1682(5) 0.5581(4)
C200 C 1.0090(6) 0.1288(7) 0.5815(4)
H133 H 1.0137 0.1386 0.6036
C201 C 1.0022(7) 0.0773(7) 0.5736(5)
H134 H 1.0016 0.0522 0.5901
C202 C 0.9961(8) 0.0616(7) 0.5416(5)
H135 H 0.9918 0.0257 0.5362
C203 C 0.9964(7) 0.0975(7) 0.5179(5)
H136 H 0.9920 0.0857 0.4961
C204 C 1.0028(5) 0.1510(6) 0.5239(4)
C205 C 1.0340(5) 0.3094(6) 0.6411(3)
C206 C 1.0562(6) 0.2767(6) 0.6657(3)
H137 H 1.0698 0.2455 0.6601
C207 C 1.0588(6) 0.2888(6) 0.6982(3)
H138 H 1.0740 0.2658 0.7145
C208 C 1.0392(5) 0.3343(6) 0.7066(3)
C209 C 1.0188(6) 0.3686(6) 0.6823(3)
H139 H 1.0067 0.4008 0.6878
C210 C 1.0161(6) 0.3561(6) 0.6500(3)
H140 H 1.0019 0.3797 0.6336
C211 C 1.0555(6) 0.3874(7) 0.7532(3)
H141 H 1.0706 0.4118 0.7421
C212 C 1.0510(5) 0.3955(6) 0.7871(3)
C213 C 1.0688(6) 0.4391(6) 0.8047(4)
H142 H 1.0860 0.4643 0.7959
C214 C 1.0608(7) 0.4444(7) 0.8358(4)
H143 H 1.0728 0.4733 0.8490
C215 C 1.0349(8) 0.4070(9) 0.8473(4)
H144 H 1.0280 0.4106 0.8681
C216 C 1.0192(7) 0.3644(8) 0.8282(4)
H145 H 1.0021 0.3386 0.8366
N23 N 0.9878(5) 0.2406(7) 0.7367(4)
N24 N 1.0570(5) 0.2607(6) 0.7814(4)
C217 C 0.4938(4) 0.1609(6) 0.4559(3)
C218 C 0.5046(4) 0.1330(6) 0.4846(4)
H146 H 0.4831 0.1094 0.4902
C219 C 0.5465(4) 0.1391(6) 0.5054(3)
H147 H 0.5527 0.1201 0.5251
C220 C 0.7088(5) 0.1931(7) 0.5650(4)
C221 C 0.6878(5) 0.1425(7) 0.5612(4)
C222 C 0.6455(5) 0.1380(6) 0.5392(4)
H148 H 0.6304 0.1052 0.5376
C223 C 0.5797(4) 0.1723(6) 0.4982(3)
C224 C 0.5693(4) 0.1981(6) 0.4684(3)
H149 H 0.5913 0.2204 0.4623
C225 C 0.5278(5) 0.1920(6) 0.4477(3)
H150 H 0.5223 0.2094 0.4274
C226 C 0.6250(4) 0.1788(6) 0.5200(3)
C227 C 0.6486(5) 0.2257(6) 0.5222(4)
H151 H 0.6370 0.2533 0.5078
C228 C 0.6881(5) 0.2331(7) 0.5445(4)
H152 H 0.7021 0.2665 0.5461
C229 C 0.7515(5) 0.2003(7) 0.5880(4)
C230 C 0.7731(6) 0.2488(7) 0.5936(4)
H153 H 0.7616 0.2775 0.5801
C231 C 0.8102(6) 0.2561(7) 0.6179(5)
H154 H 0.8237 0.2898 0.6211
C232 C 0.8285(5) 0.2151(7) 0.6382(4)
C233 C 0.8105(6) 0.1656(7) 0.6318(5)
H155 H 0.8241 0.1372 0.6447
C234 C 0.7722(6) 0.1559(7) 0.6066(4)
C235 C 0.7534(6) 0.1040(7) 0.6010(4)
C236 C 0.7764(7) 0.0593(8) 0.6167(5)
H156 H 0.8045 0.0633 0.6315
C237 C 0.7579(8) 0.0108(8) 0.6103(6)
H157 H 0.7728 -0.0187 0.6213
C238 C 0.7180(8) 0.0044(7) 0.5883(6)
H158 H 0.7066 -0.0300 0.5836
C239 C 0.6942(7) 0.0450(8) 0.5728(5)
H159 H 0.6663 0.0388 0.5581
C240 C 0.7108(6) 0.0970(7) 0.5784(4)
C241 C 0.8689(5) 0.2235(6) 0.6647(4)
C242 C 0.8678(6) 0.2141(8) 0.6970(4)
H160 H 0.8402 0.2041 0.7028
C243 C 0.9071(6) 0.2191(8) 0.7209(4)
H161 H 0.9064 0.2115 0.7428
C244 C 0.9471(5) 0.2352(7) 0.7127(4)
C245 C 0.9479(5) 0.2479(9) 0.6810(4)
H162 H 0.9747 0.2616 0.6756
C246 C 0.9091(6) 0.2405(9) 0.6570(4)
H163 H 0.9102 0.2472 0.6351
C247 C 1.0168(5) 0.2030(8) 0.7419(4)
H164 H 1.0123 0.1709 0.7305
C248 C 1.0575(5) 0.2137(6) 0.7670(4)
C249 C 1.0932(6) 0.1784(7) 0.7746(5)
H165 H 1.0917 0.1455 0.7640
C250 C 1.1308(6) 0.1921(8) 0.7979(5)
H166 H 1.1554 0.1685 0.8039
C251 C 1.1319(6) 0.2405(9) 0.8120(5)
H167 H 1.1577 0.2515 0.8275
C252 C 1.0947(7) 0.2730(7) 0.8035(5)
H168 H 1.0957 0.3061 0.8138
B1 B 0.5772(5) 0.7897(5) 0.3875(3)
F1 F 0.5682(4) 0.7414(4) 0.3729(3)
F2 F 0.6229(5) 0.7975(6) 0.3895(4)
F3 F 0.5630(4) 0.7880(4) 0.4164(3)
F4 F 0.5566(5) 0.8288(5) 0.3671(3)
B2 B 0.2184(3) 0.1429(4) 0.4103(2)
F5 F 0.2051(6) 0.1825(5) 0.4285(3)
F6 F 0.1843(6) 0.1052(7) 0.4071(4)
F7 F 0.2571(4) 0.1176(6) 0.4280(3)
F8 F 0.2254(4) 0.1531(7) 0.3801(2)
B3 B 0.9697(6) -0.0347(8) 0.3174(5)
F9 F 0.9697(8) -0.0684(8) 0.3426(6)
F10 F 0.9267(6) -0.0137(7) 0.3099(5)
F11 F 1.0009(6) 0.0051(8) 0.3252(5)
F12 F 0.9774(11) -0.0622(11) 0.2908(6)
B4 B 0.7117(8) 0.9055(8) 0.3063(5)
F13 F 0.6795(9) 0.8999(11) 0.2781(5)
F14 F 0.7240(8) 0.8573(8) 0.3196(6)
F15 F 0.6941(10) 0.9340(10) 0.3283(6)
F16 F 0.7482(10) 0.9318(13) 0.2991(9)
B5 B 0.5335(4) 1.0567(4) 0.3840(3)
F17 F 0.5604(5) 1.0346(6) 0.3653(4)
F18 F 0.5576(8) 1.0480(8) 0.4160(3)
F19 F 0.4918(5) 1.0336(7) 0.3816(5)
F20 F 0.5327(7) 1.1101(5) 0.3797(4)
N25? N 0.9347(5) 0.3340(9) 0.7606(5)
N26? N 1.0088(7) 0.3484(6) 0.8053(4)
C253? C 0.4905(4) 0.1726(7) 0.4566(4)
C254? C 0.5244(6) 0.2061(8) 0.4510(4)
H169? H 0.5211 0.2239 0.4309
C255? C 0.5629(6) 0.2134(7) 0.4747(4)
H170? H 0.5865 0.2354 0.4706
C256? C 0.5676(5) 0.1886(7) 0.5047(4)
C257? C 0.5332(6) 0.1558(7) 0.5100(4)
H171? H 0.5359 0.1391 0.5304
C258? C 0.4950(6) 0.1473(8) 0.4861(4)
H172? H 0.4719 0.1241 0.4899
C259? C 0.6066(5) 0.2019(7) 0.5312(4)
C260? C 0.6252(7) 0.2518(7) 0.5321(5)
H173? H 0.6150 0.2747 0.5144
C261? C 0.6576(7) 0.2688(7) 0.5574(5)
H174? H 0.6689 0.3034 0.5574
C262? C 0.6744(6) 0.2355(8) 0.5838(4)
C263? C 0.6560(6) 0.1833(8) 0.5831(4)
C264? C 0.6223(7) 0.1678(7) 0.5563(4)
H175? H 0.6102 0.1334 0.5556
C265? C 0.7071(6) 0.2552(8) 0.6117(5)
C266? C 0.7244(8) 0.3063(8) 0.6127(5)
H176? H 0.7139 0.3288 0.5948
C267? C 0.7557(8) 0.3248(8) 0.6384(5)
H177? H 0.7663 0.3597 0.6380
C268? C 0.7723(6) 0.2935(8) 0.6653(5)
C269? C 0.7550(8) 0.2433(8) 0.6652(5)
H178? H 0.7658 0.2221 0.6837
C270? C 0.7224(7) 0.2211(8) 0.6396(5)
C271? C 0.7026(7) 0.1683(8) 0.6391(5)
C272? C 0.7086(10) 0.1349(10) 0.6661(6)
H179? H 0.7318 0.1432 0.6843
C273? C 0.6830(11) 0.0916(11) 0.6675(7)
H180? H 0.6883 0.0712 0.6867
C274? C 0.6494(10) 0.0765(10) 0.6417(8)
H181? H 0.6306 0.0473 0.6434
C275? C 0.6440(9) 0.1046(9) 0.6137(7)
H182? H 0.6225 0.0930 0.5954
C276? C 0.6691(7) 0.1501(8) 0.6112(5)
C277? C 0.8096(6) 0.3124(8) 0.6919(4)
C278? C 0.8416(7) 0.3490(8) 0.6868(5)
H183? H 0.8361 0.3680 0.6671
C279? C 0.8811(6) 0.3588(8) 0.7093(5)
H184? H 0.9018 0.3843 0.7048
C280? C 0.8908(5) 0.3316(8) 0.7387(5)
C281? C 0.8573(7) 0.2979(9) 0.7448(5)
H185? H 0.8617 0.2808 0.7652
C282? C 0.8178(7) 0.2884(9) 0.7222(5)
H186? H 0.7959 0.2650 0.7274
C283? C 0.9347(6) 0.3746(9) 0.7805(5)
H187? H 0.9091 0.3970 0.7786
C284? C 0.9758(6) 0.3834(7) 0.8056(4)
C285? C 0.9816(7) 0.4241(8) 0.8279(5)
H188? H 0.9578 0.4484 0.8281
C286? C 1.0226(8) 0.4288(9) 0.8497(5)
H189? H 1.0272 0.4567 0.8649
C287? C 1.0568(8) 0.3927(10) 0.8493(6)
H190? H 1.0855 0.3956 0.8636
C288? C 1.0474(7) 0.3525(9) 0.8273(6)
H191? H 1.0698 0.3262 0.8277
N27? N 0.9599(8) 0.2419(8) 0.7401(4)
N28? N 0.9600(8) 0.2573(9) 0.7984(5)
C289? C 0.96931(19) 0.15761(19) 0.3416(2)
C290? C 0.9367(4) 0.1891(4) 0.3505(3)
H192? H 0.9154 0.2074 0.3346
C291? C 0.9354(4) 0.1935(5) 0.3830(3)
H193? H 0.9108 0.2111 0.3892
C292? C 0.9699(5) 0.1725(6) 0.4066(3)
C293? C 1.0012(6) 0.1396(7) 0.3972(3)
H194? H 1.0235 0.1228 0.4132
C294? C 1.0003(4) 0.1309(5) 0.3646(2)
H195? H 1.0207 0.1068 0.3582
C295? C 0.9746(6) 0.1879(7) 0.4412(3)
C296? C 0.9582(7) 0.2349(7) 0.4506(4)
H196? H 0.9481 0.2613 0.4349
C297? C 0.9564(7) 0.2435(7) 0.4826(4)
H197? H 0.9440 0.2753 0.4885
C298? C 0.9726(6) 0.2062(7) 0.5065(4)
C299? C 0.9933(6) 0.1592(7) 0.4972(3)
C300? C 0.9930(7) 0.1517(8) 0.4641(3)
H198? H 1.0060 0.1208 0.4574
C301? C 0.9685(6) 0.2112(7) 0.5404(4)
C302? C 0.9468(7) 0.2536(7) 0.5521(4)
H199? H 0.9347 0.2809 0.5376
C303? C 0.9428(8) 0.2568(8) 0.5835(4)
H200? H 0.9279 0.2860 0.5905
C304? C 0.9603(7) 0.2179(8) 0.6057(3)
C305? C 0.9808(7) 0.1750(7) 0.5952(4)
H201? H 0.9921 0.1482 0.6102
C306? C 0.9857(6) 0.1696(7) 0.5628(4)
C307? C 1.0067(6) 0.1233(7) 0.5530(4)
C308? C 1.0206(8) 0.0805(8) 0.5733(5)
H202? H 1.0177 0.0825 0.5953
C309? C 1.0381(8) 0.0359(8) 0.5629(6)
H203? H 1.0455 0.0069 0.5770
C310? C 1.0449(8) 0.0334(8) 0.5315(6)
H204? H 1.0583 0.0031 0.5245
C311? C 1.0326(7) 0.0741(8) 0.5107(5)
H205? H 1.0383 0.0718 0.4894
C312? C 0.9580(7) 0.2219(8) 0.6406(4)
C313? C 1.0119(6) 0.1189(7) 0.5196(4)
C314? C 0.9209(7) 0.2445(11) 0.6502(4)
H206? H 0.8960 0.2565 0.6343
C315? C 0.9200(8) 0.2499(11) 0.6828(5)
H207? H 0.8943 0.2651 0.6890
C316? C 0.9563(8) 0.2329(9) 0.7062(4)
C317? C 0.9927(8) 0.2088(9) 0.6970(4)
H208? H 1.0172 0.1960 0.7130
C318? C 0.9937(7) 0.2033(9) 0.6645(4)
H209? H 1.0189 0.1867 0.6584
C319? C 0.9355(9) 0.2068(10) 0.7515(5)
H210? H 0.9197 0.1793 0.7389
C320? C 0.9355(7) 0.2150(8) 0.7860(4)
C321? C 0.9115(9) 0.1821(9) 0.8024(6)
H211? H 0.8961 0.1524 0.7920
C322? C 0.9102(10) 0.1934(11) 0.8343(6)
H212? H 0.8936 0.1724 0.8464
C323? C 0.9344(11) 0.2370(12) 0.8477(5)
H213? H 0.9343 0.2468 0.8694
C324? C 0.9584(9) 0.2660(10) 0.8299(6)
H214? H 0.9754 0.2946 0.8404
N29? N 1.0210(6) 0.3291(7) 0.7378(4)
N30? N 1.0483(6) 0.2496(8) 0.7807(5)
C325? C 0.8606(7) 0.8234(5) 0.4681(3)
C326? C 0.8633(9) 0.7728(5) 0.4570(4)
H215? H 0.8561 0.7660 0.4344
C327? C 0.8763(8) 0.7318(6) 0.4785(4)
H216? H 0.8782 0.6974 0.4703
C328? C 0.8867(7) 0.7401(6) 0.5118(4)
C329? C 0.8854(9) 0.7914(6) 0.5227(4)
H217? H 0.8935 0.7984 0.5452
C330? C 0.8726(9) 0.8323(6) 0.5014(3)
H218? H 0.8720 0.8669 0.5095
C331? C 0.8972(6) 0.6967(6) 0.5356(4)
C332? C 0.9223(7) 0.6535(7) 0.5297(4)
H219? H 0.9332 0.6521 0.5102
C333? C 0.9316(7) 0.6133(7) 0.5511(4)
H220? H 0.9493 0.5848 0.5463
C334? C 0.9155(6) 0.6132(6) 0.5802(4)
C335? C 0.8885(6) 0.6567(7) 0.5868(4)
C336? C 0.8808(7) 0.6976(7) 0.5639(4)
H221? H 0.8636 0.7270 0.5681
C337? C 0.9258(6) 0.5714(6) 0.6032(4)
C338? C 0.9504(7) 0.5275(7) 0.5972(4)
H222? H 0.9607 0.5256 0.5774
C339? C 0.9600(7) 0.4874(7) 0.6184(4)
H223? H 0.9758 0.4578 0.6129
C340? C 0.9471(6) 0.4885(6) 0.6484(4)
C341? C 0.9227(7) 0.5308(7) 0.6552(4)
H224? H 0.9138 0.5319 0.6755
C342? C 0.9103(6) 0.5727(6) 0.6334(4)
C343? C 0.8829(6) 0.6159(7) 0.6398(4)
C344? C 0.8663(7) 0.6187(8) 0.6683(4)
H225? H 0.8749 0.5925 0.6844
C345? C 0.8380(8) 0.6576(9) 0.6738(5)
H226? H 0.8276 0.6586 0.6936
C346? C 0.8247(7) 0.6956(8) 0.6505(5)
H227? H 0.8038 0.7219 0.6539
C347? C 0.8411(7) 0.6959(7) 0.6229(5)
H228? H 0.8322 0.7231 0.6076
C348? C 0.8708(6) 0.6572(7) 0.6162(4)
C349? C 0.9628(6) 0.4462(6) 0.6724(4)
C350? C 0.9726(7) 0.3965(6) 0.6624(4)
H229? H 0.9668 0.3886 0.6399
C351? C 0.9908(8) 0.3581(6) 0.6846(5)
H230? H 0.9973 0.3244 0.6773
C352? C 0.9994(6) 0.3695(6) 0.7176(4)
C353? C 0.9887(7) 0.4185(7) 0.7277(4)
H231? H 0.9935 0.4259 0.7502
C354? C 0.9712(7) 0.4568(6) 0.7055(4)
H232? H 0.9648 0.4905 0.7128
C355? C 1.0602(6) 0.3102(8) 0.7399(5)
H233? H 1.0792 0.3235 0.7264
C356? C 1.0771(6) 0.2679(7) 0.7629(4)
C357? C 1.1213(6) 0.2492(9) 0.7665(6)
H234? H 1.1406 0.2616 0.7530
C358? C 1.1364(7) 0.2121(10) 0.7902(6)
H235? H 1.1666 0.1993 0.7935
C359? C 1.1072(9) 0.1940(9) 0.8090(6)
H236? H 1.1170 0.1688 0.8255
C360? C 1.0633(8) 0.2135(9) 0.8032(5)
H237? H 1.0430 0.2005 0.8157
F21? F 0.1831(6) 0.1644(8) 0.4220(4)
F22? F 0.2066(7) 0.0930(5) 0.4000(4)
F23? F 0.2586(4) 0.1460(7) 0.4325(3)
F24? F 0.2235(4) 0.1783(6) 0.3856(3)
F25? F 0.5403(7) 1.0159(6) 0.3635(4)
F26? F 0.5218(8) 1.0350(7) 0.4110(4)
F27? F 0.5700(6) 1.0892(8) 0.3912(5)
F28? F 0.4961(6) 1.0851(7) 0.3679(4)
B6? B 1.0595(7) 0.5810(8) 0.7758(5)
F29? F 1.0945(7) 0.6009(9) 0.7630(6)
F30? F 1.0404(10) 0.5382(10) 0.7582(7)
F31? F 1.0258(7) 0.6177(9) 0.7752(7)
F32? F 1.0768(9) 0.5659(11) 0.8072(5)
B7? B 1.0578(9) 0.5723(10) 0.7845(6)
F33? F 1.0707(12) 0.6114(12) 0.7659(8)
F34? F 1.0346(14) 0.5347(13) 0.7641(9)
F35? F 1.0294(10) 0.5909(13) 0.8036(8)
F36? F 1.0961(10) 0.5516(14) 0.8042(8)
loop_
_geom_bond_atom_site_label_1
_geom_bond_atom_site_label_2
_geom_bond_site_symmetry_1
_geom_bond_site_symmetry_2
Fe1 N1 1_555 1_555
Fe2 N5 1_555 1_555
Fe3 N3 1_555 1_555
Fe4 N19 1_555 1_555
N1 C1 1_555 1_555
N2 Fe1 1_555 1_555
N3 C34 1_555 1_555
N4 Fe3 1_555 1_555
C1 H1 1_555 1_555
C2 C1 1_555 1_555
H2 C2 1_555 1_555
C3 C2 1_555 1_555
H3 C3 1_555 1_555
C4 C3 1_555 1_555
H4 C4 1_555 1_555
C5 N1 1_555 1_555
C6 N2 1_555 1_555
H5 C6 1_555 1_555
C7 N2 1_555 1_555
C8 C7 1_555 1_555
H6 C8 1_555 1_555
C9 C8 1_555 1_555
H7 C9 1_555 1_555
C10 C9 1_555 1_555
C11 C10 1_555 1_555
H8 C11 1_555 1_555
C12 C7 1_555 1_555
H9 C12 1_555 1_555
C13 C10 1_555 1_555
C14 C13 1_555 1_555
H10 C14 1_555 1_555
C15 C14 1_555 1_555
H11 C15 1_555 1_555
C16 C15 1_555 1_555
C17 C16 1_555 1_555
C18 C13 1_555 1_555
H12 C18 1_555 1_555
C19 C16 1_555 1_555
C20 C19 1_555 1_555
H13 C20 1_555 1_555
C21 C20 1_555 1_555
H14 C21 1_555 1_555
C22 C21 1_555 1_555
C23 C22 1_555 1_555
H15 C23 1_555 1_555
C24 C19 1_555 1_555
C25 C24 1_555 1_555
C26 C25 1_555 1_555
H16 C26 1_555 1_555
C27 C26 1_555 1_555
H17 C27 1_555 1_555
C28 C27 1_555 1_555
H18 C28 1_555 1_555
C29 C28 1_555 1_555
H19 C29 1_555 1_555
C30 C17 1_555 1_555
C31 C22 1_555 1_555
C32 C31 1_555 1_555
H20 C32 1_555 1_555
C33 C32 1_555 1_555
H21 C33 1_555 1_555
C34 C33 1_555 1_555
C35 C34 1_555 1_555
H22 C35 1_555 1_555
C36 C31 1_555 1_555
H23 C36 1_555 1_555
C37 N3 1_555 1_555
H24 C37 1_555 1_555
C38 N4 1_555 1_555
C39 C38 1_555 1_555
H25 C39 1_555 1_555
C40 C39 1_555 1_555
H26 C40 1_555 1_555
C41 C40 1_555 1_555
H27 C41 1_555 1_555
C42 N4 1_555 1_555
H28 C42 1_555 1_555
N5 C43 1_555 1_555
N6 Fe2 1_555 1_555
N7 Fe1 1_555 1_555
N8 Fe1 1_555 1_555
C43 H29 1_555 1_555
C44 C43 1_555 1_555
H30 C44 1_555 1_555
C45 C44 1_555 1_555
H31 C45 1_555 1_555
C46 C45 1_555 1_555
H32 C46 1_555 1_555
C47 N5 1_555 1_555
C48 N6 1_555 1_555
H33 C48 1_555 1_555
C49 N6 1_555 1_555
C50 C49 1_555 1_555
H34 C50 1_555 1_555
C51 C50 1_555 1_555
H35 C51 1_555 1_555
C52 C51 1_555 1_555
C53 C52 1_555 1_555
H36 C53 1_555 1_555
C54 C49 1_555 1_555
H37 C54 1_555 1_555
C55 C52 1_555 1_555
C56 C55 1_555 1_555
H38 C56 1_555 1_555
C57 C56 1_555 1_555
H39 C57 1_555 1_555
C58 C57 1_555 1_555
C59 C58 1_555 1_555
C60 C55 1_555 1_555
H40 C60 1_555 1_555
C61 C58 1_555 1_555
C62 C61 1_555 1_555
H41 C62 1_555 1_555
C63 C62 1_555 1_555
H42 C63 1_555 1_555
C64 C63 1_555 1_555
C65 C64 1_555 1_555
H43 C65 1_555 1_555
C66 C61 1_555 1_555
C67 C66 1_555 1_555
C68 C67 1_555 1_555
H44 C68 1_555 1_555
C69 C68 1_555 1_555
H45 C69 1_555 1_555
C70 C69 1_555 1_555
H46 C70 1_555 1_555
C71 C70 1_555 1_555
H47 C71 1_555 1_555
C72 C59 1_555 1_555
C73 C64 1_555 1_555
C74 C73 1_555 1_555
H48 C74 1_555 1_555
C75 C74 1_555 1_555
H49 C75 1_555 1_555
C76 N7 1_555 1_555
C77 C76 1_555 1_555
H50 C77 1_555 1_555
C78 C73 1_555 1_555
H51 C78 1_555 1_555
C79 N7 1_555 1_555
H52 C79 1_555 1_555
C80 N8 1_555 1_555
C81 C80 1_555 1_555
H53 C81 1_555 1_555
C82 C81 1_555 1_555
H54 C82 1_555 1_555
C83 C82 1_555 1_555
H55 C83 1_555 1_555
C84 N8 1_555 1_555
H56 C84 1_555 1_555
N9 Fe2 1_555 1_555
N10 Fe2 1_555 1_555
N11 Fe3 1_555 1_555
N12 Fe3 1_555 1_555
C85 N9 1_555 1_555
H57 C85 1_555 1_555
C86 C85 1_555 1_555
H58 C86 1_555 1_555
C87 C86 1_555 1_555
H59 C87 1_555 1_555
C88 C87 1_555 1_555
H60 C88 1_555 1_555
C89 N9 1_555 1_555
C90 N10 1_555 1_555
H61 C90 1_555 1_555
C91 N10 1_555 1_555
C92 C91 1_555 1_555
H62 C92 1_555 1_555
C93 C92 1_555 1_555
H63 C93 1_555 1_555
C94 C93 1_555 1_555
C95 C94 1_555 1_555
H64 C95 1_555 1_555
C96 C91 1_555 1_555
H65 C96 1_555 1_555
C97 C94 1_555 1_555
C98 C97 1_555 1_555
H66 C98 1_555 1_555
C99 C98 1_555 1_555
H67 C99 1_555 1_555
C100 C99 1_555 1_555
C101 C100 1_555 1_555
C102 C97 1_555 1_555
H68 C102 1_555 1_555
C103 C100 1_555 1_555
C104 C103 1_555 1_555
H69 C104 1_555 1_555
C105 C104 1_555 1_555
H70 C105 1_555 1_555
C106 C105 1_555 1_555
C107 C106 1_555 1_555
H71 C107 1_555 1_555
C108 C103 1_555 1_555
C109 C108 1_555 1_555
C110 C109 1_555 1_555
H72 C110 1_555 1_555
C111 C110 1_555 1_555
H73 C111 1_555 1_555
C112 C111 1_555 1_555
H74 C112 1_555 1_555
C113 C112 1_555 1_555
H75 C113 1_555 1_555
C114 C101 1_555 1_555
C115 C106 1_555 1_555
C116 C115 1_555 1_555
H76 C116 1_555 1_555
C117 C116 1_555 1_555
H77 C117 1_555 1_555
C118 N11 1_555 1_555
C119 C118 1_555 1_555
H78 C119 1_555 1_555
C120 C115 1_555 1_555
H79 C120 1_555 1_555
C121 N11 1_555 1_555
H80 C121 1_555 1_555
C122 N12 1_555 1_555
C123 C122 1_555 1_555
H81 C123 1_555 1_555
C124 C123 1_555 1_555
H82 C124 1_555 1_555
C125 C124 1_555 1_555
H83 C125 1_555 1_555
C126 N12 1_555 1_555
H84 C126 1_555 1_555
N13 Fe3 1_555 1_555
N14 Fe3 1_555 1_555
C127 N13 1_555 1_555
H85 C127 1_555 1_555
C128 C127 1_555 1_555
H86 C128 1_555 1_555
C129 C128 1_555 1_555
H87 C129 1_555 1_555
C130 C129 1_555 1_555
H88 C130 1_555 1_555
C131 N13 1_555 1_555
C132 N14 1_555 1_555
H89 C132 1_555 1_555
N15 Fe2 1_555 1_555
N16 Fe2 1_555 1_555
C133 N15 1_555 1_555
H90 C133 1_555 1_555
C134 C133 1_555 1_555
H91 C134 1_555 1_555
C135 C134 1_555 1_555
H92 C135 1_555 1_555
C136 C135 1_555 1_555
H93 C136 1_555 1_555
C137 N15 1_555 1_555
C138 N16 1_555 1_555
H94 C138 1_555 1_555
N17 Fe1 1_555 1_555
N18 Fe1 1_555 1_555
C139 N17 1_555 1_555
H95 C139 1_555 1_555
C140 C139 1_555 1_555
H96 C140 1_555 1_555
C141 C140 1_555 1_555
H97 C141 1_555 1_555
C142 C141 1_555 1_555
H98 C142 1_555 1_555
C143 N17 1_555 1_555
C144 N18 1_555 1_555
H99 C144 1_555 1_555
N19 C172 1_555 1_555
N20 Fe4 1_555 1_555
C145 N14 1_555 1_555
C146 C145 1_555 1_555
H100 C146 1_555 1_555
C147 C146 1_555 1_555
H101 C147 1_555 1_555
C148 C147 1_555 1_555
C149 C148 1_555 1_555
H102 C149 1_555 1_555
C150 C145 1_555 1_555
H103 C150 1_555 1_555
C151 C148 1_555 1_555
C152 C151 1_555 1_555
H104 C152 1_555 1_555
C153 C152 1_555 1_555
H105 C153 1_555 1_555
C154 C153 1_555 1_555
C155 C154 1_555 1_555
C156 C151 1_555 1_555
H106 C156 1_555 1_555
C157 C154 1_555 1_555
C158 C157 1_555 1_555
H107 C158 1_555 1_555
C159 C158 1_555 1_555
H108 C159 1_555 1_555
C160 C159 1_555 1_555
C161 C160 1_555 1_555
H109 C161 1_555 1_555
C162 C157 1_555 1_555
C163 C162 1_555 1_555
C164 C163 1_555 1_555
H110 C164 1_555 1_555
C165 C164 1_555 1_555
H111 C165 1_555 1_555
C166 C165 1_555 1_555
H112 C166 1_555 1_555
C167 C166 1_555 1_555
H113 C167 1_555 1_555
C168 C155 1_555 1_555
C169 C160 1_555 1_555
C170 C169 1_555 1_555
H114 C170 1_555 1_555
C171 C170 1_555 1_555
H115 C171 1_555 1_555
C172 C171 1_555 1_555
C173 C172 1_555 1_555
H116 C173 1_555 1_555
C174 C169 1_555 1_555
H117 C174 1_555 1_555
C175 N19 1_555 1_555
H118 C175 1_555 1_555
C176 N20 1_555 1_555
C177 C176 1_555 1_555
H119 C177 1_555 1_555
C178 C177 1_555 1_555
H120 C178 1_555 1_555
C179 C178 1_555 1_555
H121 C179 1_555 1_555
C180 N20 1_555 1_555
H122 C180 1_555 1_555
N21 Fe4 1_555 1_555
N22 Fe4 1_555 1_555
C181 N16 1_555 1_555
C182 C181 1_555 1_555
H123 C182 1_555 1_555
C183 C182 1_555 1_555
H124 C183 1_555 1_555
C184 C183 1_555 1_555
C185 C184 1_555 1_555
H125 C185 1_555 1_555
C186 C181 1_555 1_555
H126 C186 1_555 1_555
C187 C184 1_555 1_555
C188 C187 1_555 1_555
H127 C188 1_555 1_555
C189 C188 1_555 1_555
H128 C189 1_555 1_555
C190 C189 1_555 1_555
C191 C190 1_555 1_555
C192 C187 1_555 1_555
H129 C192 1_555 1_555
C193 C190 1_555 1_555
C194 C193 1_555 1_555
H130 C194 1_555 1_555
C195 C194 1_555 1_555
H131 C195 1_555 1_555
C196 C195 1_555 1_555
C197 C196 1_555 1_555
H132 C197 1_555 1_555
C198 C193 1_555 1_555
C199 C198 1_555 1_555
C200 C199 1_555 1_555
H133 C200 1_555 1_555
C201 C200 1_555 1_555
H134 C201 1_555 1_555
C202 C201 1_555 1_555
H135 C202 1_555 1_555
C203 C202 1_555 1_555
H136 C203 1_555 1_555
C204 C191 1_555 1_555
C205 C196 1_555 1_555
C206 C205 1_555 1_555
H137 C206 1_555 1_555
C207 C206 1_555 1_555
H138 C207 1_555 1_555
C208 N21 1_555 1_555
C209 C208 1_555 1_555
H139 C209 1_555 1_555
C210 C205 1_555 1_555
H140 C210 1_555 1_555
C211 N21 1_555 1_555
H141 C211 1_555 1_555
C212 N22 1_555 1_555
C213 C212 1_555 1_555
H142 C213 1_555 1_555
C214 C213 1_555 1_555
H143 C214 1_555 1_555
C215 C214 1_555 1_555
H144 C215 1_555 1_555
C216 N22 1_555 1_555
H145 C216 1_555 1_555
N23 Fe4 1_555 1_555
N24 Fe4 1_555 1_555
C217 N18 1_555 1_555
C218 C217 1_555 1_555
H146 C218 1_555 1_555
C219 C218 1_555 1_555
H147 C219 1_555 1_555
C220 C221 1_555 1_555
C221 C222 1_555 1_555
C222 H148 1_555 1_555
C223 C219 1_555 1_555
C224 C223 1_555 1_555
H149 C224 1_555 1_555
C225 C217 1_555 1_555
H150 C225 1_555 1_555
C226 C222 1_555 1_555
C227 C226 1_555 1_555
H151 C227 1_555 1_555
C228 C220 1_555 1_555
H152 C228 1_555 1_555
C229 C220 1_555 1_555
C230 C229 1_555 1_555
H153 C230 1_555 1_555
C231 C230 1_555 1_555
H154 C231 1_555 1_555
C232 C231 1_555 1_555
C233 C232 1_555 1_555
H155 C233 1_555 1_555
C234 C229 1_555 1_555
C235 C234 1_555 1_555
C236 C235 1_555 1_555
H156 C236 1_555 1_555
C237 C236 1_555 1_555
H157 C237 1_555 1_555
C238 C237 1_555 1_555
H158 C238 1_555 1_555
C239 C238 1_555 1_555
H159 C239 1_555 1_555
C240 C221 1_555 1_555
C241 C232 1_555 1_555
C242 C241 1_555 1_555
H160 C242 1_555 1_555
C243 C242 1_555 1_555
H161 C243 1_555 1_555
C244 N23 1_555 1_555
C245 C244 1_555 1_555
H162 C245 1_555 1_555
C246 C241 1_555 1_555
H163 C246 1_555 1_555
C247 N23 1_555 1_555
H164 C247 1_555 1_555
C248 N24 1_555 1_555
C249 C248 1_555 1_555
H165 C249 1_555 1_555
C250 C249 1_555 1_555
H166 C250 1_555 1_555
C251 C250 1_555 1_555
H167 C251 1_555 1_555
C252 N24 1_555 1_555
H168 C252 1_555 1_555
B1 F1 1_555 1_555
F2 B1 1_555 1_555
F3 B1 1_555 1_555
F4 B1 1_555 1_555
B2 F5 1_555 1_555
F6 B2 1_555 1_555
F7 B2 1_555 1_555
F8 B2 1_555 1_555
B3 F9 1_555 1_555
F10 B3 1_555 1_555
F11 B3 1_555 1_555
F12 B3 1_555 1_555
B4 F13 1_555 1_555
F14 B4 1_555 1_555
F15 B4 1_555 1_555
F16 B4 1_555 1_555
B5 F17 1_555 1_555
F18 B5 1_555 1_555
F19 B5 1_555 1_555
F20 B5 1_555 1_555
C4 C5 1_555 1_555
C5 C6 1_555 1_555
C11 C12 1_555 1_555
C17 C18 1_555 1_555
C23 C24 1_555 1_555
C25 C30 1_555 1_555
C29 C30 1_555 1_555
C35 C36 1_555 1_555
C37 C38 1_555 1_555
C41 C42 1_555 1_555
C46 C47 1_555 1_555
C47 C48 1_555 1_555
C53 C54 1_555 1_555
C59 C60 1_555 1_555
C65 C66 1_555 1_555
C67 C72 1_555 1_555
C71 C72 1_555 1_555
C75 C76 1_555 1_555
C77 C78 1_555 1_555
C79 C80 1_555 1_555
C83 C84 1_555 1_555
C88 C89 1_555 1_555
C89 C90 1_555 1_555
C95 C96 1_555 1_555
C101 C102 1_555 1_555
C107 C108 1_555 1_555
C109 C114 1_555 1_555
C113 C114 1_555 1_555
C117 C118 1_555 1_555
C119 C120 1_555 1_555
C121 C122 1_555 1_555
C125 C126 1_555 1_555
C130 C131 1_555 1_555
C131 C132 1_555 1_555
C136 C137 1_555 1_555
C137 C138 1_555 1_555
C142 C143 1_555 1_555
C143 C144 1_555 1_555
C149 C150 1_555 1_555
C155 C156 1_555 1_555
C161 C162 1_555 1_555
C163 C168 1_555 1_555
C167 C168 1_555 1_555
C173 C174 1_555 1_555
C175 C176 1_555 1_555
C179 C180 1_555 1_555
C185 C186 1_555 1_555
C191 C192 1_555 1_555
C197 C198 1_555 1_555
C199 C204 1_555 1_555
C203 C204 1_555 1_555
C207 C208 1_555 1_555
C209 C210 1_555 1_555
C211 C212 1_555 1_555
C215 C216 1_555 1_555
C223 C226 1_555 1_555
C224 C225 1_555 1_555
C227 C228 1_555 1_555
C233 C234 1_555 1_555
C235 C240 1_555 1_555
C239 C240 1_555 1_555
C243 C244 1_555 1_555
C245 C246 1_555 1_555
C247 C248 1_555 1_555
C251 C252 1_555 1_555

#END
