# generated using pymatgen
data_Fe2As5H100C154N18F31
_symmetry_space_group_name_H-M   'P 1'
_cell_length_a   24.81240000
_cell_length_b   24.81240000
_cell_length_c   47.88900000
_cell_angle_alpha   90.00000000
_cell_angle_beta   90.00000000
_cell_angle_gamma   90.00000000
_symmetry_Int_Tables_number   1
_chemical_formula_structural   Fe2As5H100C154N18F31
_chemical_formula_sum   'Fe16 As40 H800 C1232 N144 F248'
_cell_volume   29483.11157397
_cell_formula_units_Z   8
loop_
 _symmetry_equiv_pos_site_id
 _symmetry_equiv_pos_as_xyz
  1  'x, y, z'
loop_
 _atom_site_type_symbol
 _atom_site_label
 _atom_site_symmetry_multiplicity
 _atom_site_fract_x
 _atom_site_fract_y
 _atom_site_fract_z
 _atom_site_occupancy
  Fe  Fe1  1  0.160680  0.101680  0.512460  1.0
  Fe  Fe2  1  0.339320  0.898320  0.012460  1.0
  Fe  Fe3  1  0.648320  0.410680  0.762460  1.0
  Fe  Fe4  1  0.851680  0.589320  0.262460  1.0
  Fe  Fe5  1  0.660680  0.601680  0.012460  1.0
  Fe  Fe6  1  0.839320  0.398320  0.512460  1.0
  Fe  Fe7  1  0.148320  0.910680  0.262460  1.0
  Fe  Fe8  1  0.351680  0.089320  0.762460  1.0
  Fe  Fe9  1  0.839320  0.898320  0.487540  1.0
  Fe  Fe10  1  0.660680  0.101680  0.987540  1.0
  Fe  Fe11  1  0.351680  0.589320  0.237540  1.0
  Fe  Fe12  1  0.148320  0.410680  0.737540  1.0
  Fe  Fe13  1  0.339320  0.398320  0.987540  1.0
  Fe  Fe14  1  0.160680  0.601680  0.487540  1.0
  Fe  Fe15  1  0.851680  0.089320  0.737540  1.0
  Fe  Fe16  1  0.648320  0.910680  0.237540  1.0
  As  As17  1  0.019160  0.972040  0.421800  1
  As  As18  1  0.480840  0.027960  0.921800  1
  As  As19  1  0.777960  0.269160  0.671800  1
  As  As20  1  0.722040  0.730840  0.171800  1
  As  As21  1  0.519160  0.472040  0.921800  1
  As  As22  1  0.980840  0.527960  0.421800  1
  As  As23  1  0.277960  0.769160  0.171800  1
  As  As24  1  0.222040  0.230840  0.671800  1
  As  As25  1  0.980840  0.027960  0.578200  1
  As  As26  1  0.519160  0.972040  0.078200  1
  As  As27  1  0.222040  0.730840  0.328200  1
  As  As28  1  0.277960  0.269160  0.828200  1
  As  As29  1  0.480840  0.527960  0.078200  1
  As  As30  1  0.019160  0.472040  0.578200  1
  As  As31  1  0.722040  0.230840  0.828200  1
  As  As32  1  0.777960  0.769160  0.328200  1
  As  As33  1  0.270510  0.873840  0.446200  1
  As  As34  1  0.229490  0.126160  0.946200  1
  As  As35  1  0.876160  0.520510  0.696200  1
  As  As36  1  0.623840  0.479490  0.196200  1
  As  As37  1  0.770510  0.373840  0.946200  1
  As  As38  1  0.729490  0.626160  0.446200  1
  As  As39  1  0.376160  0.020510  0.196200  1
  As  As40  1  0.123840  0.979490  0.696200  1
  As  As41  1  0.729490  0.126160  0.553800  1
  As  As42  1  0.770510  0.873840  0.053800  1
  As  As43  1  0.123840  0.479490  0.303800  1
  As  As44  1  0.376160  0.520510  0.803800  1
  As  As45  1  0.229490  0.626160  0.053800  1
  As  As46  1  0.270510  0.373840  0.553800  1
  As  As47  1  0.623840  0.979490  0.803800  1
  As  As48  1  0.876160  0.020510  0.303800  1
  As  As49  1  0.500000  0.750000  0.330690  1
  As  As50  1  0.000000  0.250000  0.830690  1
  As  As51  1  0.000000  0.750000  0.580690  1
  As  As52  1  0.500000  0.250000  0.080690  1
  As  As53  1  0.500000  0.250000  0.669310  1
  As  As54  1  0.000000  0.750000  0.169310  1
  As  As55  1  0.000000  0.250000  0.419310  1
  As  As56  1  0.500000  0.750000  0.919310  1
  H  H57  1  0.158200  0.396700  0.431100  1
  H  H58  1  0.341800  0.603300  0.931100  1
  H  H59  1  0.353300  0.408200  0.681100  1
  H  H60  1  0.146700  0.591800  0.181100  1
  H  H61  1  0.658200  0.896700  0.931100  1
  H  H62  1  0.841800  0.103300  0.431100  1
  H  H63  1  0.853300  0.908200  0.181100  1
  H  H64  1  0.646700  0.091800  0.681100  1
  H  H65  1  0.841800  0.603300  0.568900  1
  H  H66  1  0.658200  0.396700  0.068900  1
  H  H67  1  0.646700  0.591800  0.318900  1
  H  H68  1  0.853300  0.408200  0.818900  1
  H  H69  1  0.341800  0.103300  0.068900  1
  H  H70  1  0.158200  0.896700  0.568900  1
  H  H71  1  0.146700  0.091800  0.818900  1
  H  H72  1  0.353300  0.908200  0.318900  1
  H  H73  1  0.119000  0.445000  0.440000  1
  H  H74  1  0.381000  0.555000  0.940000  1
  H  H75  1  0.305000  0.369000  0.690000  1
  H  H76  1  0.195000  0.631000  0.190000  1
  H  H77  1  0.619000  0.945000  0.940000  1
  H  H78  1  0.881000  0.055000  0.440000  1
  H  H79  1  0.805000  0.869000  0.190000  1
  H  H80  1  0.695000  0.131000  0.690000  1
  H  H81  1  0.881000  0.555000  0.560000  1
  H  H82  1  0.619000  0.445000  0.060000  1
  H  H83  1  0.695000  0.631000  0.310000  1
  H  H84  1  0.805000  0.369000  0.810000  1
  H  H85  1  0.381000  0.055000  0.060000  1
  H  H86  1  0.119000  0.945000  0.560000  1
  H  H87  1  0.195000  0.131000  0.810000  1
  H  H88  1  0.305000  0.869000  0.310000  1
  H  H89  1  0.167800  0.455900  0.418900  1
  H  H90  1  0.332200  0.544100  0.918900  1
  H  H91  1  0.294100  0.417800  0.668900  1
  H  H92  1  0.205900  0.582200  0.168900  1
  H  H93  1  0.667800  0.955900  0.918900  1
  H  H94  1  0.832200  0.044100  0.418900  1
  H  H95  1  0.794100  0.917800  0.168900  1
  H  H96  1  0.705900  0.082200  0.668900  1
  H  H97  1  0.832200  0.544100  0.581100  1
  H  H98  1  0.667800  0.455900  0.081100  1
  H  H99  1  0.705900  0.582200  0.331100  1
  H  H100  1  0.794100  0.417800  0.831100  1
  H  H101  1  0.332200  0.044100  0.081100  1
  H  H102  1  0.167800  0.955900  0.581100  1
  H  H103  1  0.205900  0.082200  0.831100  1
  H  H104  1  0.294100  0.917800  0.331100  1
  H  H105  1  0.161900  0.024700  0.563300  1.0
  H  H106  1  0.338100  0.975300  0.063300  1.0
  H  H107  1  0.725300  0.411900  0.813300  1.0
  H  H108  1  0.774700  0.588100  0.313300  1.0
  H  H109  1  0.661900  0.524700  0.063300  1.0
  H  H110  1  0.838100  0.475300  0.563300  1.0
  H  H111  1  0.225300  0.911900  0.313300  1.0
  H  H112  1  0.274700  0.088100  0.813300  1.0
  H  H113  1  0.838100  0.975300  0.436700  1.0
  H  H114  1  0.661900  0.024700  0.936700  1.0
  H  H115  1  0.274700  0.588100  0.186700  1.0
  H  H116  1  0.225300  0.411900  0.686700  1.0
  H  H117  1  0.338100  0.475300  0.936700  1.0
  H  H118  1  0.161900  0.524700  0.436700  1.0
  H  H119  1  0.774700  0.088100  0.686700  1.0
  H  H120  1  0.725300  0.911900  0.186700  1.0
  H  H121  1  0.185600  0.034300  0.610700  1.0
  H  H122  1  0.314400  0.965700  0.110700  1.0
  H  H123  1  0.715700  0.435600  0.860700  1.0
  H  H124  1  0.784300  0.564400  0.360700  1.0
  H  H125  1  0.685600  0.534300  0.110700  1.0
  H  H126  1  0.814400  0.465700  0.610700  1.0
  H  H127  1  0.215700  0.935600  0.360700  1.0
  H  H128  1  0.284300  0.064400  0.860700  1.0
  H  H129  1  0.814400  0.965700  0.389300  1.0
  H  H130  1  0.685600  0.034300  0.889300  1.0
  H  H131  1  0.284300  0.564400  0.139300  1.0
  H  H132  1  0.215700  0.435600  0.639300  1.0
  H  H133  1  0.314400  0.465700  0.889300  1.0
  H  H134  1  0.185600  0.534300  0.389300  1.0
  H  H135  1  0.784300  0.064400  0.639300  1.0
  H  H136  1  0.715700  0.935600  0.139300  1.0
  H  H137  1  0.217500  0.116800  0.627500  1.0
  H  H138  1  0.282500  0.883200  0.127500  1.0
  H  H139  1  0.633200  0.467500  0.877500  1.0
  H  H140  1  0.866800  0.532500  0.377500  1.0
  H  H141  1  0.717500  0.616800  0.127500  1.0
  H  H142  1  0.782500  0.383200  0.627500  1.0
  H  H143  1  0.133200  0.967500  0.377500  1.0
  H  H144  1  0.366800  0.032500  0.877500  1.0
  H  H145  1  0.782500  0.883200  0.372500  1.0
  H  H146  1  0.717500  0.116800  0.872500  1.0
  H  H147  1  0.366800  0.532500  0.122500  1.0
  H  H148  1  0.133200  0.467500  0.622500  1.0
  H  H149  1  0.282500  0.383200  0.872500  1.0
  H  H150  1  0.217500  0.616800  0.372500  1.0
  H  H151  1  0.866800  0.032500  0.622500  1.0
  H  H152  1  0.633200  0.967500  0.122500  1.0
  H  H153  1  0.226000  0.189000  0.596200  1.0
  H  H154  1  0.274000  0.811000  0.096200  1.0
  H  H155  1  0.561000  0.476000  0.846200  1.0
  H  H156  1  0.939000  0.524000  0.346200  1.0
  H  H157  1  0.726000  0.689000  0.096200  1.0
  H  H158  1  0.774000  0.311000  0.596200  1.0
  H  H159  1  0.061000  0.976000  0.346200  1.0
  H  H160  1  0.439000  0.024000  0.846200  1.0
  H  H161  1  0.774000  0.811000  0.403800  1.0
  H  H162  1  0.726000  0.189000  0.903800  1.0
  H  H163  1  0.439000  0.524000  0.153800  1.0
  H  H164  1  0.061000  0.476000  0.653800  1.0
  H  H165  1  0.274000  0.311000  0.903800  1.0
  H  H166  1  0.226000  0.689000  0.403800  1.0
  H  H167  1  0.939000  0.024000  0.653800  1.0
  H  H168  1  0.561000  0.976000  0.153800  1.0
  H  H169  1  0.217000  0.223700  0.545900  1.0
  H  H170  1  0.283000  0.776300  0.045900  1.0
  H  H171  1  0.526300  0.467000  0.795900  1.0
  H  H172  1  0.973700  0.533000  0.295900  1.0
  H  H173  1  0.717000  0.723700  0.045900  1.0
  H  H174  1  0.783000  0.276300  0.545900  1.0
  H  H175  1  0.026300  0.967000  0.295900  1.0
  H  H176  1  0.473700  0.033000  0.795900  1.0
  H  H177  1  0.783000  0.776300  0.454100  1.0
  H  H178  1  0.717000  0.223700  0.954100  1.0
  H  H179  1  0.473700  0.533000  0.204100  1.0
  H  H180  1  0.026300  0.467000  0.704100  1.0
  H  H181  1  0.283000  0.276300  0.954100  1.0
  H  H182  1  0.217000  0.723700  0.454100  1.0
  H  H183  1  0.973700  0.033000  0.704100  1.0
  H  H184  1  0.526300  0.967000  0.204100  1.0
  H  H185  1  0.280500  0.210000  0.496100  1.0
  H  H186  1  0.219500  0.790000  0.996100  1.0
  H  H187  1  0.540000  0.530500  0.746100  1.0
  H  H188  1  0.960000  0.469500  0.246100  1.0
  H  H189  1  0.780500  0.710000  0.996100  1.0
  H  H190  1  0.719500  0.290000  0.496100  1.0
  H  H191  1  0.040000  0.030500  0.246100  1.0
  H  H192  1  0.460000  0.969500  0.746100  1.0
  H  H193  1  0.719500  0.790000  0.503900  1.0
  H  H194  1  0.780500  0.210000  0.003900  1.0
  H  H195  1  0.460000  0.469500  0.253900  1.0
  H  H196  1  0.040000  0.530500  0.753900  1.0
  H  H197  1  0.219500  0.290000  0.003900  1.0
  H  H198  1  0.280500  0.710000  0.503900  1.0
  H  H199  1  0.960000  0.969500  0.753900  1.0
  H  H200  1  0.540000  0.030500  0.253900  1.0
  H  H201  1  0.294900  0.271000  0.459800  1.0
  H  H202  1  0.205100  0.729000  0.959800  1.0
  H  H203  1  0.479000  0.544900  0.709800  1.0
  H  H204  1  0.021000  0.455100  0.209800  1.0
  H  H205  1  0.794900  0.771000  0.959800  1.0
  H  H206  1  0.705100  0.229000  0.459800  1.0
  H  H207  1  0.979000  0.044900  0.209800  1.0
  H  H208  1  0.521000  0.955100  0.709800  1.0
  H  H209  1  0.705100  0.729000  0.540200  1.0
  H  H210  1  0.794900  0.271000  0.040200  1.0
  H  H211  1  0.521000  0.455100  0.290200  1.0
  H  H212  1  0.979000  0.544900  0.790200  1.0
  H  H213  1  0.205100  0.229000  0.040200  1.0
  H  H214  1  0.294900  0.771000  0.540200  1.0
  H  H215  1  0.021000  0.955100  0.790200  1.0
  H  H216  1  0.479000  0.044900  0.290200  1.0
  H  H217  1  0.136300  0.293600  0.451100  1.0
  H  H218  1  0.363700  0.706400  0.951100  1.0
  H  H219  1  0.456400  0.386300  0.701100  1.0
  H  H220  1  0.043600  0.613700  0.201100  1.0
  H  H221  1  0.636300  0.793600  0.951100  1.0
  H  H222  1  0.863700  0.206400  0.451100  1.0
  H  H223  1  0.956400  0.886300  0.201100  1.0
  H  H224  1  0.543600  0.113700  0.701100  1.0
  H  H225  1  0.863700  0.706400  0.548900  1.0
  H  H226  1  0.636300  0.293600  0.048900  1.0
  H  H227  1  0.543600  0.613700  0.298900  1.0
  H  H228  1  0.956400  0.386300  0.798900  1.0
  H  H229  1  0.363700  0.206400  0.048900  1.0
  H  H230  1  0.136300  0.793600  0.548900  1.0
  H  H231  1  0.043600  0.113700  0.798900  1.0
  H  H232  1  0.456400  0.886300  0.298900  1.0
  H  H233  1  0.119400  0.232900  0.487400  1.0
  H  H234  1  0.380600  0.767100  0.987400  1.0
  H  H235  1  0.517100  0.369400  0.737400  1.0
  H  H236  1  0.982900  0.630600  0.237400  1.0
  H  H237  1  0.619400  0.732900  0.987400  1.0
  H  H238  1  0.880600  0.267100  0.487400  1.0
  H  H239  1  0.017100  0.869400  0.237400  1.0
  H  H240  1  0.482900  0.130600  0.737400  1.0
  H  H241  1  0.880600  0.767100  0.512600  1.0
  H  H242  1  0.619400  0.232900  0.012600  1.0
  H  H243  1  0.482900  0.630600  0.262600  1.0
  H  H244  1  0.017100  0.369400  0.762600  1.0
  H  H245  1  0.380600  0.267100  0.012600  1.0
  H  H246  1  0.119400  0.732900  0.512600  1.0
  H  H247  1  0.982900  0.130600  0.762600  1.0
  H  H248  1  0.517100  0.869400  0.262600  1.0
  H  H249  1  0.275800  0.372000  0.452000  1.0
  H  H250  1  0.224200  0.628000  0.952000  1.0
  H  H251  1  0.378000  0.525800  0.702000  1.0
  H  H252  1  0.122000  0.474200  0.202000  1.0
  H  H253  1  0.775800  0.872000  0.952000  1.0
  H  H254  1  0.724200  0.128000  0.452000  1.0
  H  H255  1  0.878000  0.025800  0.202000  1.0
  H  H256  1  0.622000  0.974200  0.702000  1.0
  H  H257  1  0.724200  0.628000  0.548000  1.0
  H  H258  1  0.775800  0.372000  0.048000  1.0
  H  H259  1  0.622000  0.474200  0.298000  1.0
  H  H260  1  0.878000  0.525800  0.798000  1.0
  H  H261  1  0.224200  0.128000  0.048000  1.0
  H  H262  1  0.275800  0.872000  0.548000  1.0
  H  H263  1  0.122000  0.974200  0.798000  1.0
  H  H264  1  0.378000  0.025800  0.298000  1.0
  H  H265  1  0.171600  0.245400  0.407100  1.0
  H  H266  1  0.328400  0.754600  0.907100  1.0
  H  H267  1  0.504600  0.421600  0.657100  1.0
  H  H268  1  0.995400  0.578400  0.157100  1.0
  H  H269  1  0.671600  0.745400  0.907100  1.0
  H  H270  1  0.828400  0.254600  0.407100  1.0
  H  H271  1  0.004600  0.921600  0.157100  1.0
  H  H272  1  0.495400  0.078400  0.657100  1.0
  H  H273  1  0.828400  0.754600  0.592900  1.0
  H  H274  1  0.671600  0.245400  0.092900  1.0
  H  H275  1  0.495400  0.578400  0.342900  1.0
  H  H276  1  0.004600  0.421600  0.842900  1.0
  H  H277  1  0.328400  0.254600  0.092900  1.0
  H  H278  1  0.171600  0.745400  0.592900  1.0
  H  H279  1  0.995400  0.078400  0.842900  1.0
  H  H280  1  0.504600  0.921600  0.342900  1.0
  H  H281  1  0.136700  0.234000  0.362800  1.0
  H  H282  1  0.363300  0.766000  0.862800  1.0
  H  H283  1  0.516000  0.386700  0.612800  1.0
  H  H284  1  0.984000  0.613300  0.112800  1.0
  H  H285  1  0.636700  0.734000  0.862800  1.0
  H  H286  1  0.863300  0.266000  0.362800  1.0
  H  H287  1  0.016000  0.886700  0.112800  1.0
  H  H288  1  0.484000  0.113300  0.612800  1.0
  H  H289  1  0.863300  0.766000  0.637200  1.0
  H  H290  1  0.636700  0.234000  0.137200  1.0
  H  H291  1  0.484000  0.613300  0.387200  1.0
  H  H292  1  0.016000  0.386700  0.887200  1.0
  H  H293  1  0.363300  0.266000  0.137200  1.0
  H  H294  1  0.136700  0.734000  0.637200  1.0
  H  H295  1  0.984000  0.113300  0.887200  1.0
  H  H296  1  0.516000  0.886700  0.387200  1.0
  H  H297  1  0.160300  0.296100  0.326600  1.0
  H  H298  1  0.339700  0.703900  0.826600  1.0
  H  H299  1  0.453900  0.410300  0.576600  1.0
  H  H300  1  0.046100  0.589700  0.076600  1.0
  H  H301  1  0.660300  0.796100  0.826600  1.0
  H  H302  1  0.839700  0.203900  0.326600  1.0
  H  H303  1  0.953900  0.910300  0.076600  1.0
  H  H304  1  0.546100  0.089700  0.576600  1.0
  H  H305  1  0.839700  0.703900  0.673400  1.0
  H  H306  1  0.660300  0.296100  0.173400  1.0
  H  H307  1  0.546100  0.589700  0.423400  1.0
  H  H308  1  0.953900  0.410300  0.923400  1.0
  H  H309  1  0.339700  0.203900  0.173400  1.0
  H  H310  1  0.160300  0.796100  0.673400  1.0
  H  H311  1  0.046100  0.089700  0.923400  1.0
  H  H312  1  0.453900  0.910300  0.423400  1.0
  H  H313  1  0.215900  0.370600  0.337600  1.0
  H  H314  1  0.284100  0.629400  0.837600  1.0
  H  H315  1  0.379400  0.465900  0.587600  1.0
  H  H316  1  0.120600  0.534100  0.087600  1.0
  H  H317  1  0.715900  0.870600  0.837600  1.0
  H  H318  1  0.784100  0.129400  0.337600  1.0
  H  H319  1  0.879400  0.965900  0.087600  1.0
  H  H320  1  0.620600  0.034100  0.587600  1.0
  H  H321  1  0.784100  0.629400  0.662400  1.0
  H  H322  1  0.715900  0.370600  0.162400  1.0
  H  H323  1  0.620600  0.534100  0.412400  1.0
  H  H324  1  0.879400  0.465900  0.912400  1.0
  H  H325  1  0.284100  0.129400  0.162400  1.0
  H  H326  1  0.215900  0.870600  0.662400  1.0
  H  H327  1  0.120600  0.034100  0.912400  1.0
  H  H328  1  0.379400  0.965900  0.412400  1.0
  H  H329  1  0.257100  0.435800  0.346900  1.0
  H  H330  1  0.242900  0.564200  0.846900  1.0
  H  H331  1  0.314200  0.507100  0.596900  1.0
  H  H332  1  0.185800  0.492900  0.096900  1.0
  H  H333  1  0.757100  0.935800  0.846900  1.0
  H  H334  1  0.742900  0.064200  0.346900  1.0
  H  H335  1  0.814200  0.007100  0.096900  1.0
  H  H336  1  0.685800  0.992900  0.596900  1.0
  H  H337  1  0.742900  0.564200  0.653100  1.0
  H  H338  1  0.757100  0.435800  0.153100  1.0
  H  H339  1  0.685800  0.492900  0.403100  1.0
  H  H340  1  0.814200  0.507100  0.903100  1.0
  H  H341  1  0.242900  0.064200  0.153100  1.0
  H  H342  1  0.257100  0.935800  0.653100  1.0
  H  H343  1  0.185800  0.992900  0.903100  1.0
  H  H344  1  0.314200  0.007100  0.403100  1.0
  H  H345  1  0.326400  0.431800  0.460900  1.0
  H  H346  1  0.173600  0.568200  0.960900  1.0
  H  H347  1  0.318200  0.576400  0.710900  1.0
  H  H348  1  0.181800  0.423600  0.210900  1.0
  H  H349  1  0.826400  0.931800  0.960900  1.0
  H  H350  1  0.673600  0.068200  0.460900  1.0
  H  H351  1  0.818200  0.076400  0.210900  1.0
  H  H352  1  0.681800  0.923600  0.710900  1.0
  H  H353  1  0.673600  0.568200  0.539100  1.0
  H  H354  1  0.826400  0.431800  0.039100  1.0
  H  H355  1  0.681800  0.423600  0.289100  1.0
  H  H356  1  0.818200  0.576400  0.789100  1.0
  H  H357  1  0.173600  0.068200  0.039100  1.0
  H  H358  1  0.326400  0.931800  0.539100  1.0
  H  H359  1  0.181800  0.923600  0.789100  1.0
  H  H360  1  0.318200  0.076400  0.289100  1.0
  H  H361  1  0.382900  0.505400  0.471200  1.0
  H  H362  1  0.117100  0.494600  0.971200  1.0
  H  H363  1  0.244600  0.632900  0.721200  1.0
  H  H364  1  0.255400  0.367100  0.221200  1.0
  H  H365  1  0.882900  0.005400  0.971200  1.0
  H  H366  1  0.617100  0.994600  0.471200  1.0
  H  H367  1  0.744600  0.132900  0.221200  1.0
  H  H368  1  0.755400  0.867100  0.721200  1.0
  H  H369  1  0.617100  0.494600  0.528800  1.0
  H  H370  1  0.882900  0.505400  0.028800  1.0
  H  H371  1  0.755400  0.367100  0.278800  1.0
  H  H372  1  0.744600  0.632900  0.778800  1.0
  H  H373  1  0.117100  0.994600  0.028800  1.0
  H  H374  1  0.382900  0.005400  0.528800  1.0
  H  H375  1  0.255400  0.867100  0.778800  1.0
  H  H376  1  0.244600  0.132900  0.278800  1.0
  H  H377  1  0.408400  0.565100  0.435800  1.0
  H  H378  1  0.091600  0.434900  0.935800  1.0
  H  H379  1  0.184900  0.658400  0.685800  1.0
  H  H380  1  0.315100  0.341600  0.185800  1.0
  H  H381  1  0.908400  0.065100  0.935800  1.0
  H  H382  1  0.591600  0.934900  0.435800  1.0
  H  H383  1  0.684900  0.158400  0.185800  1.0
  H  H384  1  0.815100  0.841600  0.685800  1.0
  H  H385  1  0.591600  0.434900  0.564200  1.0
  H  H386  1  0.908400  0.565100  0.064200  1.0
  H  H387  1  0.815100  0.341600  0.314200  1.0
  H  H388  1  0.684900  0.658400  0.814200  1.0
  H  H389  1  0.091600  0.934900  0.064200  1.0
  H  H390  1  0.408400  0.065100  0.564200  1.0
  H  H391  1  0.315100  0.841600  0.814200  1.0
  H  H392  1  0.184900  0.158400  0.314200  1.0
  H  H393  1  0.370100  0.558000  0.391700  1.0
  H  H394  1  0.129900  0.442000  0.891700  1.0
  H  H395  1  0.192000  0.620100  0.641700  1.0
  H  H396  1  0.308000  0.379900  0.141700  1.0
  H  H397  1  0.870100  0.058000  0.891700  1.0
  H  H398  1  0.629900  0.942000  0.391700  1.0
  H  H399  1  0.692000  0.120100  0.141700  1.0
  H  H400  1  0.808000  0.879900  0.641700  1.0
  H  H401  1  0.629900  0.442000  0.608300  1.0
  H  H402  1  0.870100  0.558000  0.108300  1.0
  H  H403  1  0.808000  0.379900  0.358300  1.0
  H  H404  1  0.692000  0.620100  0.858300  1.0
  H  H405  1  0.129900  0.942000  0.108300  1.0
  H  H406  1  0.370100  0.058000  0.608300  1.0
  H  H407  1  0.308000  0.879900  0.858300  1.0
  H  H408  1  0.192000  0.120100  0.358300  1.0
  H  H409  1  0.402800  0.509500  0.349700  1.0
  H  H410  1  0.097200  0.490500  0.849700  1.0
  H  H411  1  0.240500  0.652800  0.599700  1.0
  H  H412  1  0.259500  0.347200  0.099700  1.0
  H  H413  1  0.902800  0.009500  0.849700  1.0
  H  H414  1  0.597200  0.990500  0.349700  1.0
  H  H415  1  0.740500  0.152800  0.099700  1.0
  H  H416  1  0.759500  0.847200  0.599700  1.0
  H  H417  1  0.597200  0.490500  0.650300  1.0
  H  H418  1  0.902800  0.509500  0.150300  1.0
  H  H419  1  0.759500  0.347200  0.400300  1.0
  H  H420  1  0.740500  0.652800  0.900300  1.0
  H  H421  1  0.097200  0.990500  0.150300  1.0
  H  H422  1  0.402800  0.009500  0.650300  1.0
  H  H423  1  0.259500  0.847200  0.900300  1.0
  H  H424  1  0.240500  0.152800  0.400300  1.0
  H  H425  1  0.423300  0.563000  0.310900  1.0
  H  H426  1  0.076700  0.437000  0.810900  1.0
  H  H427  1  0.187000  0.673300  0.560900  1.0
  H  H428  1  0.313000  0.326700  0.060900  1.0
  H  H429  1  0.923300  0.063000  0.810900  1.0
  H  H430  1  0.576700  0.937000  0.310900  1.0
  H  H431  1  0.687000  0.173300  0.060900  1.0
  H  H432  1  0.813000  0.826700  0.560900  1.0
  H  H433  1  0.576700  0.437000  0.689100  1.0
  H  H434  1  0.923300  0.563000  0.189100  1.0
  H  H435  1  0.813000  0.326700  0.439100  1.0
  H  H436  1  0.687000  0.673300  0.939100  1.0
  H  H437  1  0.076700  0.937000  0.189100  1.0
  H  H438  1  0.423300  0.063000  0.689100  1.0
  H  H439  1  0.313000  0.826700  0.939100  1.0
  H  H440  1  0.187000  0.173300  0.439100  1.0
  H  H441  1  0.264800  0.590000  0.298300  1.0
  H  H442  1  0.235200  0.410000  0.798300  1.0
  H  H443  1  0.160000  0.514800  0.548300  1.0
  H  H444  1  0.340000  0.485200  0.048300  1.0
  H  H445  1  0.764800  0.090000  0.798300  1.0
  H  H446  1  0.735200  0.910000  0.298300  1.0
  H  H447  1  0.660000  0.014800  0.048300  1.0
  H  H448  1  0.840000  0.985200  0.548300  1.0
  H  H449  1  0.735200  0.410000  0.701700  1.0
  H  H450  1  0.764800  0.590000  0.201700  1.0
  H  H451  1  0.840000  0.485200  0.451700  1.0
  H  H452  1  0.660000  0.514800  0.951700  1.0
  H  H453  1  0.235200  0.910000  0.201700  1.0
  H  H454  1  0.264800  0.090000  0.701700  1.0
  H  H455  1  0.340000  0.985200  0.951700  1.0
  H  H456  1  0.160000  0.014800  0.451700  1.0
  H  H457  1  0.244300  0.535300  0.336500  1.0
  H  H458  1  0.255700  0.464700  0.836500  1.0
  H  H459  1  0.214700  0.494300  0.586500  1.0
  H  H460  1  0.285300  0.505700  0.086500  1.0
  H  H461  1  0.744300  0.035300  0.836500  1.0
  H  H462  1  0.755700  0.964700  0.336500  1.0
  H  H463  1  0.714700  0.994300  0.086500  1.0
  H  H464  1  0.785300  0.005700  0.586500  1.0
  H  H465  1  0.755700  0.464700  0.663500  1.0
  H  H466  1  0.744300  0.535300  0.163500  1.0
  H  H467  1  0.785300  0.505700  0.413500  1.0
  H  H468  1  0.714700  0.494300  0.913500  1.0
  H  H469  1  0.255700  0.964700  0.163500  1.0
  H  H470  1  0.244300  0.035300  0.663500  1.0
  H  H471  1  0.285300  0.005700  0.913500  1.0
  H  H472  1  0.214700  0.994300  0.413500  1.0
  H  H473  1  0.377800  0.676500  0.298700  1.0
  H  H474  1  0.122200  0.323500  0.798700  1.0
  H  H475  1  0.073500  0.627800  0.548700  1.0
  H  H476  1  0.426500  0.372200  0.048700  1.0
  H  H477  1  0.877800  0.176500  0.798700  1.0
  H  H478  1  0.622200  0.823500  0.298700  1.0
  H  H479  1  0.573500  0.127800  0.048700  1.0
  H  H480  1  0.926500  0.872200  0.548700  1.0
  H  H481  1  0.622200  0.323500  0.701300  1.0
  H  H482  1  0.877800  0.676500  0.201300  1.0
  H  H483  1  0.926500  0.372200  0.451300  1.0
  H  H484  1  0.573500  0.627800  0.951300  1.0
  H  H485  1  0.122200  0.823500  0.201300  1.0
  H  H486  1  0.377800  0.176500  0.701300  1.0
  H  H487  1  0.426500  0.872200  0.951300  1.0
  H  H488  1  0.073500  0.127800  0.451300  1.0
  H  H489  1  0.418700  0.759500  0.273800  1.0
  H  H490  1  0.081300  0.240500  0.773800  1.0
  H  H491  1  0.990500  0.668700  0.523800  1.0
  H  H492  1  0.509500  0.331300  0.023800  1.0
  H  H493  1  0.918700  0.259500  0.773800  1.0
  H  H494  1  0.581300  0.740500  0.273800  1.0
  H  H495  1  0.490500  0.168700  0.023800  1.0
  H  H496  1  0.009500  0.831300  0.523800  1.0
  H  H497  1  0.581300  0.240500  0.726200  1.0
  H  H498  1  0.918700  0.759500  0.226200  1.0
  H  H499  1  0.009500  0.331300  0.476200  1.0
  H  H500  1  0.490500  0.668700  0.976200  1.0
  H  H501  1  0.081300  0.740500  0.226200  1.0
  H  H502  1  0.418700  0.259500  0.726200  1.0
  H  H503  1  0.509500  0.831300  0.976200  1.0
  H  H504  1  0.990500  0.168700  0.476200  1.0
  H  H505  1  0.445900  0.799700  0.231500  1.0
  H  H506  1  0.054100  0.200300  0.731500  1.0
  H  H507  1  0.950300  0.695900  0.481500  1.0
  H  H508  1  0.549700  0.304100  0.981500  1.0
  H  H509  1  0.945900  0.299700  0.731500  1.0
  H  H510  1  0.554100  0.700300  0.231500  1.0
  H  H511  1  0.450300  0.195900  0.981500  1.0
  H  H512  1  0.049700  0.804100  0.481500  1.0
  H  H513  1  0.554100  0.200300  0.768500  1.0
  H  H514  1  0.945900  0.799700  0.268500  1.0
  H  H515  1  0.049700  0.304100  0.518500  1.0
  H  H516  1  0.450300  0.695900  0.018500  1.0
  H  H517  1  0.054100  0.700300  0.268500  1.0
  H  H518  1  0.445900  0.299700  0.768500  1.0
  H  H519  1  0.549700  0.804100  0.018500  1.0
  H  H520  1  0.950300  0.195900  0.518500  1.0
  H  H521  1  0.432400  0.751800  0.190200  1.0
  H  H522  1  0.067600  0.248200  0.690200  1.0
  H  H523  1  0.998200  0.682400  0.440200  1.0
  H  H524  1  0.501800  0.317600  0.940200  1.0
  H  H525  1  0.932400  0.251800  0.690200  1.0
  H  H526  1  0.567600  0.748200  0.190200  1.0
  H  H527  1  0.498200  0.182400  0.940200  1.0
  H  H528  1  0.001800  0.817600  0.440200  1.0
  H  H529  1  0.567600  0.248200  0.809800  1.0
  H  H530  1  0.932400  0.751800  0.309800  1.0
  H  H531  1  0.001800  0.317600  0.559800  1.0
  H  H532  1  0.498200  0.682400  0.059800  1.0
  H  H533  1  0.067600  0.748200  0.309800  1.0
  H  H534  1  0.432400  0.251800  0.809800  1.0
  H  H535  1  0.501800  0.817600  0.059800  1.0
  H  H536  1  0.998200  0.182400  0.559800  1.0
  H  H537  1  0.393800  0.666100  0.191000  1.0
  H  H538  1  0.106200  0.333900  0.691000  1.0
  H  H539  1  0.083900  0.643800  0.441000  1.0
  H  H540  1  0.416100  0.356200  0.941000  1.0
  H  H541  1  0.893800  0.166100  0.691000  1.0
  H  H542  1  0.606200  0.833900  0.191000  1.0
  H  H543  1  0.583900  0.143800  0.941000  1.0
  H  H544  1  0.916100  0.856200  0.441000  1.0
  H  H545  1  0.606200  0.333900  0.809000  1.0
  H  H546  1  0.893800  0.666100  0.309000  1.0
  H  H547  1  0.916100  0.356200  0.559000  1.0
  H  H548  1  0.583900  0.643800  0.059000  1.0
  H  H549  1  0.106200  0.833900  0.309000  1.0
  H  H550  1  0.393800  0.166100  0.809000  1.0
  H  H551  1  0.416100  0.856200  0.059000  1.0
  H  H552  1  0.083900  0.143800  0.559000  1.0
  H  H553  1  0.057300  0.031700  0.518300  1.0
  H  H554  1  0.442700  0.968300  0.018300  1.0
  H  H555  1  0.718300  0.307300  0.768300  1.0
  H  H556  1  0.781700  0.692700  0.268300  1.0
  H  H557  1  0.557300  0.531700  0.018300  1.0
  H  H558  1  0.942700  0.468300  0.518300  1.0
  H  H559  1  0.218300  0.807300  0.268300  1.0
  H  H560  1  0.281700  0.192700  0.768300  1.0
  H  H561  1  0.942700  0.968300  0.481700  1.0
  H  H562  1  0.557300  0.031700  0.981700  1.0
  H  H563  1  0.281700  0.692700  0.231700  1.0
  H  H564  1  0.218300  0.307300  0.731700  1.0
  H  H565  1  0.442700  0.468300  0.981700  1.0
  H  H566  1  0.057300  0.531700  0.481700  1.0
  H  H567  1  0.781700  0.192700  0.731700  1.0
  H  H568  1  0.718300  0.807300  0.231700  1.0
  H  H569  1  0.040100  0.939600  0.519600  1.0
  H  H570  1  0.459900  0.060400  0.019600  1.0
  H  H571  1  0.810400  0.290100  0.769600  1.0
  H  H572  1  0.689600  0.709900  0.269600  1.0
  H  H573  1  0.540100  0.439600  0.019600  1.0
  H  H574  1  0.959900  0.560400  0.519600  1.0
  H  H575  1  0.310400  0.790100  0.269600  1.0
  H  H576  1  0.189600  0.209900  0.769600  1.0
  H  H577  1  0.959900  0.060400  0.480400  1.0
  H  H578  1  0.540100  0.939600  0.980400  1.0
  H  H579  1  0.189600  0.709900  0.230400  1.0
  H  H580  1  0.310400  0.290100  0.730400  1.0
  H  H581  1  0.459900  0.560400  0.980400  1.0
  H  H582  1  0.040100  0.439600  0.480400  1.0
  H  H583  1  0.689600  0.209900  0.730400  1.0
  H  H584  1  0.810400  0.790100  0.230400  1.0
  H  H585  1  0.108800  0.877800  0.512700  1.0
  H  H586  1  0.391200  0.122200  0.012700  1.0
  H  H587  1  0.872200  0.358800  0.762700  1.0
  H  H588  1  0.627800  0.641200  0.262700  1.0
  H  H589  1  0.608800  0.377800  0.012700  1.0
  H  H590  1  0.891200  0.622200  0.512700  1.0
  H  H591  1  0.372200  0.858800  0.262700  1.0
  H  H592  1  0.127800  0.141200  0.762700  1.0
  H  H593  1  0.891200  0.122200  0.487300  1.0
  H  H594  1  0.608800  0.877800  0.987300  1.0
  H  H595  1  0.127800  0.641200  0.237300  1.0
  H  H596  1  0.372200  0.358800  0.737300  1.0
  H  H597  1  0.391200  0.622200  0.987300  1.0
  H  H598  1  0.108800  0.377800  0.487300  1.0
  H  H599  1  0.627800  0.141200  0.737300  1.0
  H  H600  1  0.872200  0.858800  0.237300  1.0
  H  H601  1  0.196400  0.910000  0.504700  1.0
  H  H602  1  0.303600  0.090000  0.004700  1.0
  H  H603  1  0.840000  0.446400  0.754700  1.0
  H  H604  1  0.660000  0.553600  0.254700  1.0
  H  H605  1  0.696400  0.410000  0.004700  1.0
  H  H606  1  0.803600  0.590000  0.504700  1.0
  H  H607  1  0.340000  0.946400  0.254700  1.0
  H  H608  1  0.160000  0.053600  0.754700  1.0
  H  H609  1  0.803600  0.090000  0.495300  1.0
  H  H610  1  0.696400  0.910000  0.995300  1.0
  H  H611  1  0.160000  0.553600  0.245300  1.0
  H  H612  1  0.340000  0.446400  0.745300  1.0
  H  H613  1  0.303600  0.590000  0.995300  1.0
  H  H614  1  0.196400  0.410000  0.495300  1.0
  H  H615  1  0.660000  0.053600  0.745300  1.0
  H  H616  1  0.840000  0.946400  0.245300  1.0
  H  H617  1  0.260800  0.994100  0.499300  1.0
  H  H618  1  0.239200  0.005900  0.999300  1.0
  H  H619  1  0.755900  0.510800  0.749300  1.0
  H  H620  1  0.744100  0.489200  0.249300  1.0
  H  H621  1  0.760800  0.494100  0.999300  1.0
  H  H622  1  0.739200  0.505900  0.499300  1.0
  H  H623  1  0.255900  0.010800  0.249300  1.0
  H  H624  1  0.244100  0.989200  0.749300  1.0
  H  H625  1  0.739200  0.005900  0.500700  1.0
  H  H626  1  0.760800  0.994100  0.000700  1.0
  H  H627  1  0.244100  0.489200  0.250700  1.0
  H  H628  1  0.255900  0.510800  0.750700  1.0
  H  H629  1  0.239200  0.505900  0.000700  1.0
  H  H630  1  0.260800  0.494100  0.500700  1.0
  H  H631  1  0.744100  0.989200  0.750700  1.0
  H  H632  1  0.755900  0.010800  0.250700  1.0
  H  H633  1  0.296200  0.110600  0.539900  1.0
  H  H634  1  0.203800  0.889400  0.039900  1.0
  H  H635  1  0.639400  0.546200  0.789900  1.0
  H  H636  1  0.860600  0.453800  0.289900  1.0
  H  H637  1  0.796200  0.610600  0.039900  1.0
  H  H638  1  0.703800  0.389400  0.539900  1.0
  H  H639  1  0.139400  0.046200  0.289900  1.0
  H  H640  1  0.360600  0.953800  0.789900  1.0
  H  H641  1  0.703800  0.889400  0.460100  1.0
  H  H642  1  0.796200  0.110600  0.960100  1.0
  H  H643  1  0.360600  0.453800  0.210100  1.0
  H  H644  1  0.139400  0.546200  0.710100  1.0
  H  H645  1  0.203800  0.389400  0.960100  1.0
  H  H646  1  0.296200  0.610600  0.460100  1.0
  H  H647  1  0.860600  0.953800  0.710100  1.0
  H  H648  1  0.639400  0.046200  0.210100  1.0
  H  H649  1  0.377200  0.156600  0.531600  1.0
  H  H650  1  0.122800  0.843400  0.031600  1.0
  H  H651  1  0.593400  0.627200  0.781600  1.0
  H  H652  1  0.906600  0.372800  0.281600  1.0
  H  H653  1  0.877200  0.656600  0.031600  1.0
  H  H654  1  0.622800  0.343400  0.531600  1.0
  H  H655  1  0.093400  0.127200  0.281600  1.0
  H  H656  1  0.406600  0.872800  0.781600  1.0
  H  H657  1  0.622800  0.843400  0.468400  1.0
  H  H658  1  0.877200  0.156600  0.968400  1.0
  H  H659  1  0.406600  0.372800  0.218400  1.0
  H  H660  1  0.093400  0.627200  0.718400  1.0
  H  H661  1  0.122800  0.343400  0.968400  1.0
  H  H662  1  0.377200  0.656600  0.468400  1.0
  H  H663  1  0.906600  0.872800  0.718400  1.0
  H  H664  1  0.593400  0.127200  0.218400  1.0
  H  H665  1  0.365000  0.123500  0.449500  1.0
  H  H666  1  0.135000  0.876500  0.949500  1.0
  H  H667  1  0.626500  0.615000  0.699500  1.0
  H  H668  1  0.873500  0.385000  0.199500  1.0
  H  H669  1  0.865000  0.623500  0.949500  1.0
  H  H670  1  0.635000  0.376500  0.449500  1.0
  H  H671  1  0.126500  0.115000  0.199500  1.0
  H  H672  1  0.373500  0.885000  0.699500  1.0
  H  H673  1  0.635000  0.876500  0.550500  1.0
  H  H674  1  0.865000  0.123500  0.050500  1.0
  H  H675  1  0.373500  0.385000  0.300500  1.0
  H  H676  1  0.126500  0.615000  0.800500  1.0
  H  H677  1  0.135000  0.376500  0.050500  1.0
  H  H678  1  0.365000  0.623500  0.550500  1.0
  H  H679  1  0.873500  0.885000  0.800500  1.0
  H  H680  1  0.626500  0.115000  0.300500  1.0
  H  H681  1  0.284600  0.077500  0.457700  1.0
  H  H682  1  0.215400  0.922500  0.957700  1.0
  H  H683  1  0.672500  0.534600  0.707700  1.0
  H  H684  1  0.827500  0.465400  0.207700  1.0
  H  H685  1  0.784600  0.577500  0.957700  1.0
  H  H686  1  0.715400  0.422500  0.457700  1.0
  H  H687  1  0.172500  0.034600  0.207700  1.0
  H  H688  1  0.327500  0.965400  0.707700  1.0
  H  H689  1  0.715400  0.922500  0.542300  1.0
  H  H690  1  0.784600  0.077500  0.042300  1.0
  H  H691  1  0.327500  0.465400  0.292300  1.0
  H  H692  1  0.172500  0.534600  0.792300  1.0
  H  H693  1  0.215400  0.422500  0.042300  1.0
  H  H694  1  0.284600  0.577500  0.542300  1.0
  H  H695  1  0.827500  0.965400  0.792300  1.0
  H  H696  1  0.672500  0.034600  0.292300  1.0
  H  H697  1  0.449100  0.070400  0.506400  1.0
  H  H698  1  0.050900  0.929600  0.006400  1.0
  H  H699  1  0.679600  0.699100  0.756400  1.0
  H  H700  1  0.820400  0.300900  0.256400  1.0
  H  H701  1  0.949100  0.570400  0.006400  1.0
  H  H702  1  0.550900  0.429600  0.506400  1.0
  H  H703  1  0.179600  0.199100  0.256400  1.0
  H  H704  1  0.320400  0.800900  0.756400  1.0
  H  H705  1  0.550900  0.929600  0.493600  1.0
  H  H706  1  0.949100  0.070400  0.993600  1.0
  H  H707  1  0.320400  0.300900  0.243600  1.0
  H  H708  1  0.179600  0.699100  0.743600  1.0
  H  H709  1  0.050900  0.429600  0.993600  1.0
  H  H710  1  0.449100  0.570400  0.493600  1.0
  H  H711  1  0.820400  0.800900  0.743600  1.0
  H  H712  1  0.679600  0.199100  0.243600  1.0
  H  H713  1  0.528600  0.030200  0.520500  1.0
  H  H714  1  0.971400  0.969800  0.020500  1.0
  H  H715  1  0.719800  0.778600  0.770500  1.0
  H  H716  1  0.780200  0.221400  0.270500  1.0
  H  H717  1  0.028600  0.530200  0.020500  1.0
  H  H718  1  0.471400  0.469800  0.520500  1.0
  H  H719  1  0.219800  0.278600  0.270500  1.0
  H  H720  1  0.280200  0.721400  0.770500  1.0
  H  H721  1  0.471400  0.969800  0.479500  1.0
  H  H722  1  0.028600  0.030200  0.979500  1.0
  H  H723  1  0.280200  0.221400  0.229500  1.0
  H  H724  1  0.219800  0.778600  0.729500  1.0
  H  H725  1  0.971400  0.469800  0.979500  1.0
  H  H726  1  0.528600  0.530200  0.479500  1.0
  H  H727  1  0.780200  0.721400  0.729500  1.0
  H  H728  1  0.719800  0.278600  0.229500  1.0
  H  H729  1  0.608800  0.080000  0.521300  1.0
  H  H730  1  0.891200  0.920000  0.021300  1.0
  H  H731  1  0.670000  0.858800  0.771300  1.0
  H  H732  1  0.830000  0.141200  0.271300  1.0
  H  H733  1  0.108800  0.580000  0.021300  1.0
  H  H734  1  0.391200  0.420000  0.521300  1.0
  H  H735  1  0.170000  0.358800  0.271300  1.0
  H  H736  1  0.330000  0.641200  0.771300  1.0
  H  H737  1  0.391200  0.920000  0.478700  1.0
  H  H738  1  0.108800  0.080000  0.978700  1.0
  H  H739  1  0.330000  0.141200  0.228700  1.0
  H  H740  1  0.170000  0.858800  0.728700  1.0
  H  H741  1  0.891200  0.420000  0.978700  1.0
  H  H742  1  0.608800  0.580000  0.478700  1.0
  H  H743  1  0.830000  0.641200  0.728700  1.0
  H  H744  1  0.670000  0.358800  0.228700  1.0
  H  H745  1  0.607800  0.169400  0.509000  1.0
  H  H746  1  0.892200  0.830600  0.009000  1.0
  H  H747  1  0.580600  0.857800  0.759000  1.0
  H  H748  1  0.919400  0.142200  0.259000  1.0
  H  H749  1  0.107800  0.669400  0.009000  1.0
  H  H750  1  0.392200  0.330600  0.509000  1.0
  H  H751  1  0.080600  0.357800  0.259000  1.0
  H  H752  1  0.419400  0.642200  0.759000  1.0
  H  H753  1  0.392200  0.830600  0.491000  1.0
  H  H754  1  0.107800  0.169400  0.991000  1.0
  H  H755  1  0.419400  0.142200  0.241000  1.0
  H  H756  1  0.080600  0.857800  0.741000  1.0
  H  H757  1  0.892200  0.330600  0.991000  1.0
  H  H758  1  0.607800  0.669400  0.491000  1.0
  H  H759  1  0.919400  0.642200  0.741000  1.0
  H  H760  1  0.580600  0.357800  0.241000  1.0
  H  H761  1  0.402300  0.238800  0.466900  1.0
  H  H762  1  0.097700  0.761200  0.966900  1.0
  H  H763  1  0.511200  0.652300  0.716900  1.0
  H  H764  1  0.988800  0.347700  0.216900  1.0
  H  H765  1  0.902300  0.738800  0.966900  1.0
  H  H766  1  0.597700  0.261200  0.466900  1.0
  H  H767  1  0.011200  0.152300  0.216900  1.0
  H  H768  1  0.488800  0.847700  0.716900  1.0
  H  H769  1  0.597700  0.761200  0.533100  1.0
  H  H770  1  0.902300  0.238800  0.033100  1.0
  H  H771  1  0.488800  0.347700  0.283100  1.0
  H  H772  1  0.011200  0.652300  0.783100  1.0
  H  H773  1  0.097700  0.261200  0.033100  1.0
  H  H774  1  0.402300  0.738800  0.533100  1.0
  H  H775  1  0.988800  0.847700  0.783100  1.0
  H  H776  1  0.511200  0.152300  0.283100  1.0
  H  H777  1  0.404300  0.302200  0.447600  1.0
  H  H778  1  0.095700  0.697800  0.947600  1.0
  H  H779  1  0.447800  0.654300  0.697600  1.0
  H  H780  1  0.052200  0.345700  0.197600  1.0
  H  H781  1  0.904300  0.802200  0.947600  1.0
  H  H782  1  0.595700  0.197800  0.447600  1.0
  H  H783  1  0.947800  0.154300  0.197600  1.0
  H  H784  1  0.552200  0.845700  0.697600  1.0
  H  H785  1  0.595700  0.697800  0.552400  1.0
  H  H786  1  0.904300  0.302200  0.052400  1.0
  H  H787  1  0.552200  0.345700  0.302400  1.0
  H  H788  1  0.947800  0.654300  0.802400  1.0
  H  H789  1  0.095700  0.197800  0.052400  1.0
  H  H790  1  0.404300  0.802200  0.552400  1.0
  H  H791  1  0.052200  0.845700  0.802400  1.0
  H  H792  1  0.447800  0.154300  0.302400  1.0
  H  H793  1  0.405400  0.386100  0.426800  1.0
  H  H794  1  0.094600  0.613900  0.926800  1.0
  H  H795  1  0.363900  0.655400  0.676800  1.0
  H  H796  1  0.136100  0.344600  0.176800  1.0
  H  H797  1  0.905400  0.886100  0.926800  1.0
  H  H798  1  0.594600  0.113900  0.426800  1.0
  H  H799  1  0.863900  0.155400  0.176800  1.0
  H  H800  1  0.636100  0.844600  0.676800  1.0
  H  H801  1  0.594600  0.613900  0.573200  1.0
  H  H802  1  0.905400  0.386100  0.073200  1.0
  H  H803  1  0.636100  0.344600  0.323200  1.0
  H  H804  1  0.863900  0.655400  0.823200  1.0
  H  H805  1  0.094600  0.113900  0.073200  1.0
  H  H806  1  0.405400  0.886100  0.573200  1.0
  H  H807  1  0.136100  0.844600  0.823200  1.0
  H  H808  1  0.363900  0.155400  0.323200  1.0
  H  H809  1  0.480200  0.443000  0.431900  1.0
  H  H810  1  0.019800  0.557000  0.931900  1.0
  H  H811  1  0.307000  0.730200  0.681900  1.0
  H  H812  1  0.193000  0.269800  0.181900  1.0
  H  H813  1  0.980200  0.943000  0.931900  1.0
  H  H814  1  0.519800  0.057000  0.431900  1.0
  H  H815  1  0.807000  0.230200  0.181900  1.0
  H  H816  1  0.693000  0.769800  0.681900  1.0
  H  H817  1  0.519800  0.557000  0.568100  1.0
  H  H818  1  0.980200  0.443000  0.068100  1.0
  H  H819  1  0.693000  0.269800  0.318100  1.0
  H  H820  1  0.807000  0.730200  0.818100  1.0
  H  H821  1  0.019800  0.057000  0.068100  1.0
  H  H822  1  0.480200  0.943000  0.568100  1.0
  H  H823  1  0.193000  0.769800  0.818100  1.0
  H  H824  1  0.307000  0.230200  0.318100  1.0
  H  H825  1  0.552800  0.416100  0.457900  1.0
  H  H826  1  0.947200  0.583900  0.957900  1.0
  H  H827  1  0.333900  0.802800  0.707900  1.0
  H  H828  1  0.166100  0.197200  0.207900  1.0
  H  H829  1  0.052800  0.916100  0.957900  1.0
  H  H830  1  0.447200  0.083900  0.457900  1.0
  H  H831  1  0.833900  0.302800  0.207900  1.0
  H  H832  1  0.666100  0.697200  0.707900  1.0
  H  H833  1  0.447200  0.583900  0.542100  1.0
  H  H834  1  0.052800  0.416100  0.042100  1.0
  H  H835  1  0.666100  0.197200  0.292100  1.0
  H  H836  1  0.833900  0.802800  0.792100  1.0
  H  H837  1  0.947200  0.083900  0.042100  1.0
  H  H838  1  0.552800  0.916100  0.542100  1.0
  H  H839  1  0.166100  0.697200  0.792100  1.0
  H  H840  1  0.333900  0.302800  0.292100  1.0
  H  H841  1  0.603700  0.255200  0.501200  1.0
  H  H842  1  0.896300  0.744800  0.001200  1.0
  H  H843  1  0.494800  0.853700  0.751200  1.0
  H  H844  1  0.005200  0.146300  0.251200  1.0
  H  H845  1  0.103700  0.755200  0.001200  1.0
  H  H846  1  0.396300  0.244800  0.501200  1.0
  H  H847  1  0.994800  0.353700  0.251200  1.0
  H  H848  1  0.505200  0.646300  0.751200  1.0
  H  H849  1  0.396300  0.744800  0.498800  1.0
  H  H850  1  0.103700  0.255200  0.998800  1.0
  H  H851  1  0.505200  0.146300  0.248800  1.0
  H  H852  1  0.994800  0.853700  0.748800  1.0
  H  H853  1  0.896300  0.244800  0.998800  1.0
  H  H854  1  0.603700  0.755200  0.498800  1.0
  H  H855  1  0.005200  0.646300  0.748800  1.0
  H  H856  1  0.494800  0.353700  0.248800  1.0
  C  C857  1  0.105600  0.417500  0.401500  1
  C  C858  1  0.394400  0.582500  0.901500  1
  C  C859  1  0.332500  0.355600  0.651500  1
  C  C860  1  0.167500  0.644400  0.151500  1
  C  C861  1  0.605600  0.917500  0.901500  1
  C  C862  1  0.894400  0.082500  0.401500  1
  C  C863  1  0.832500  0.855600  0.151500  1
  C  C864  1  0.667500  0.144400  0.651500  1
  C  C865  1  0.894400  0.582500  0.598500  1
  C  C866  1  0.605600  0.417500  0.098500  1
  C  C867  1  0.667500  0.644400  0.348500  1
  C  C868  1  0.832500  0.355600  0.848500  1
  C  C869  1  0.394400  0.082500  0.098500  1
  C  C870  1  0.105600  0.917500  0.598500  1
  C  C871  1  0.167500  0.144400  0.848500  1
  C  C872  1  0.332500  0.855600  0.348500  1
  C  C873  1  0.140400  0.429700  0.424700  1
  C  C874  1  0.359600  0.570300  0.924700  1
  C  C875  1  0.320300  0.390400  0.674700  1
  C  C876  1  0.179700  0.609600  0.174700  1
  C  C877  1  0.640400  0.929700  0.924700  1
  C  C878  1  0.859600  0.070300  0.424700  1
  C  C879  1  0.820300  0.890400  0.174700  1
  C  C880  1  0.679700  0.109600  0.674700  1
  C  C881  1  0.859600  0.570300  0.575300  1
  C  C882  1  0.640400  0.429700  0.075300  1
  C  C883  1  0.679700  0.609600  0.325300  1
  C  C884  1  0.820300  0.390400  0.825300  1
  C  C885  1  0.359600  0.070300  0.075300  1
  C  C886  1  0.140400  0.929700  0.575300  1
  C  C887  1  0.179700  0.109600  0.825300  1
  C  C888  1  0.320300  0.890400  0.325300  1
  C  C889  1  0.111000  0.775500  0.400100  1
  C  C890  1  0.389000  0.224500  0.900100  1
  C  C891  1  0.974500  0.361000  0.650100  1
  C  C892  1  0.525500  0.639000  0.150100  1
  C  C893  1  0.611000  0.275500  0.900100  1
  C  C894  1  0.889000  0.724500  0.400100  1
  C  C895  1  0.474500  0.861000  0.150100  1
  C  C896  1  0.025500  0.139000  0.650100  1
  C  C897  1  0.889000  0.224500  0.599900  1
  C  C898  1  0.611000  0.775500  0.099900  1
  C  C899  1  0.025500  0.639000  0.349900  1
  C  C900  1  0.474500  0.361000  0.849900  1
  C  C901  1  0.389000  0.724500  0.099900  1
  C  C902  1  0.111000  0.275500  0.599900  1
  C  C903  1  0.525500  0.139000  0.849900  1
  C  C904  1  0.974500  0.861000  0.349900  1
  C  C905  1  0.121300  0.791500  0.414900  1
  C  C906  1  0.378700  0.208500  0.914900  1
  C  C907  1  0.958500  0.371300  0.664900  1
  C  C908  1  0.541500  0.628700  0.164900  1
  C  C909  1  0.621300  0.291500  0.914900  1
  C  C910  1  0.878700  0.708500  0.414900  1
  C  C911  1  0.458500  0.871300  0.164900  1
  C  C912  1  0.041500  0.128700  0.664900  1
  C  C913  1  0.878700  0.208500  0.585100  1
  C  C914  1  0.621300  0.791500  0.085100  1
  C  C915  1  0.041500  0.628700  0.335100  1
  C  C916  1  0.458500  0.371300  0.835100  1
  C  C917  1  0.378700  0.708500  0.085100  1
  C  C918  1  0.121300  0.291500  0.585100  1
  C  C919  1  0.541500  0.128700  0.835100  1
  C  C920  1  0.958500  0.871300  0.335100  1
  C  C921  1  0.138900  0.825200  0.391700  1
  C  C922  1  0.361100  0.174800  0.891700  1
  C  C923  1  0.924800  0.388900  0.641700  1
  C  C924  1  0.575200  0.611100  0.141700  1
  C  C925  1  0.638900  0.325200  0.891700  1
  C  C926  1  0.861100  0.674800  0.391700  1
  C  C927  1  0.424800  0.888900  0.141700  1
  C  C928  1  0.075200  0.111100  0.641700  1
  C  C929  1  0.861100  0.174800  0.608300  1
  C  C930  1  0.638900  0.825200  0.108300  1
  C  C931  1  0.075200  0.611100  0.358300  1
  C  C932  1  0.424800  0.388900  0.858300  1
  C  C933  1  0.361100  0.674800  0.108300  1
  C  C934  1  0.138900  0.325200  0.608300  1
  C  C935  1  0.575200  0.111100  0.858300  1
  C  C936  1  0.924800  0.888900  0.358300  1
  C  C937  1  0.174500  0.058500  0.569960  1.0
  C  C938  1  0.325500  0.941500  0.069960  1.0
  C  C939  1  0.691500  0.424500  0.819960  1.0
  C  C940  1  0.808500  0.575500  0.319960  1.0
  C  C941  1  0.674500  0.558500  0.069960  1.0
  C  C942  1  0.825500  0.441500  0.569960  1.0
  C  C943  1  0.191500  0.924500  0.319960  1.0
  C  C944  1  0.308500  0.075500  0.819960  1.0
  C  C945  1  0.825500  0.941500  0.430040  1.0
  C  C946  1  0.674500  0.058500  0.930040  1.0
  C  C947  1  0.308500  0.575500  0.180040  1.0
  C  C948  1  0.191500  0.424500  0.680040  1.0
  C  C949  1  0.325500  0.441500  0.930040  1.0
  C  C950  1  0.174500  0.558500  0.430040  1.0
  C  C951  1  0.808500  0.075500  0.680040  1.0
  C  C952  1  0.691500  0.924500  0.180040  1.0
  C  C953  1  0.189000  0.064200  0.598400  1.0
  C  C954  1  0.311000  0.935800  0.098400  1.0
  C  C955  1  0.685800  0.439000  0.848400  1.0
  C  C956  1  0.814200  0.561000  0.348400  1.0
  C  C957  1  0.689000  0.564200  0.098400  1.0
  C  C958  1  0.811000  0.435800  0.598400  1.0
  C  C959  1  0.185800  0.939000  0.348400  1.0
  C  C960  1  0.314200  0.061000  0.848400  1.0
  C  C961  1  0.811000  0.935800  0.401600  1.0
  C  C962  1  0.689000  0.064200  0.901600  1.0
  C  C963  1  0.314200  0.561000  0.151600  1.0
  C  C964  1  0.185800  0.439000  0.651600  1.0
  C  C965  1  0.311000  0.435800  0.901600  1.0
  C  C966  1  0.189000  0.564200  0.401600  1.0
  C  C967  1  0.814200  0.061000  0.651600  1.0
  C  C968  1  0.685800  0.939000  0.151600  1.0
  C  C969  1  0.207900  0.112700  0.608400  1.0
  C  C970  1  0.292100  0.887300  0.108400  1.0
  C  C971  1  0.637300  0.457900  0.858400  1.0
  C  C972  1  0.862700  0.542100  0.358400  1.0
  C  C973  1  0.707900  0.612700  0.108400  1.0
  C  C974  1  0.792100  0.387300  0.608400  1.0
  C  C975  1  0.137300  0.957900  0.358400  1.0
  C  C976  1  0.362700  0.042100  0.858400  1.0
  C  C977  1  0.792100  0.887300  0.391600  1.0
  C  C978  1  0.707900  0.112700  0.891600  1.0
  C  C979  1  0.362700  0.542100  0.141600  1.0
  C  C980  1  0.137300  0.457900  0.641600  1.0
  C  C981  1  0.292100  0.387300  0.891600  1.0
  C  C982  1  0.207900  0.612700  0.391600  1.0
  C  C983  1  0.862700  0.042100  0.641600  1.0
  C  C984  1  0.637300  0.957900  0.141600  1.0
  C  C985  1  0.212600  0.155100  0.590000  1.0
  C  C986  1  0.287400  0.844900  0.090000  1.0
  C  C987  1  0.594900  0.462600  0.840000  1.0
  C  C988  1  0.905100  0.537400  0.340000  1.0
  C  C989  1  0.712600  0.655100  0.090000  1.0
  C  C990  1  0.787400  0.344900  0.590000  1.0
  C  C991  1  0.094900  0.962600  0.340000  1.0
  C  C992  1  0.405100  0.037400  0.840000  1.0
  C  C993  1  0.787400  0.844900  0.410000  1.0
  C  C994  1  0.712600  0.155100  0.910000  1.0
  C  C995  1  0.405100  0.537400  0.160000  1.0
  C  C996  1  0.094900  0.462600  0.660000  1.0
  C  C997  1  0.287400  0.344900  0.910000  1.0
  C  C998  1  0.212600  0.655100  0.410000  1.0
  C  C999  1  0.905100  0.037400  0.660000  1.0
  C  C1000  1  0.594900  0.962600  0.160000  1.0
  C  C1001  1  0.197800  0.148000  0.562540  1.0
  C  C1002  1  0.302200  0.852000  0.062540  1.0
  C  C1003  1  0.602000  0.447800  0.812540  1.0
  C  C1004  1  0.898000  0.552200  0.312540  1.0
  C  C1005  1  0.697800  0.648000  0.062540  1.0
  C  C1006  1  0.802200  0.352000  0.562540  1.0
  C  C1007  1  0.102000  0.947800  0.312540  1.0
  C  C1008  1  0.398000  0.052200  0.812540  1.0
  C  C1009  1  0.802200  0.852000  0.437460  1.0
  C  C1010  1  0.697800  0.148000  0.937460  1.0
  C  C1011  1  0.398000  0.552200  0.187460  1.0
  C  C1012  1  0.102000  0.447800  0.687460  1.0
  C  C1013  1  0.302200  0.352000  0.937460  1.0
  C  C1014  1  0.197800  0.648000  0.437460  1.0
  C  C1015  1  0.898000  0.052200  0.687460  1.0
  C  C1016  1  0.602000  0.947800  0.187460  1.0
  C  C1017  1  0.203600  0.188800  0.541570  1.0
  C  C1018  1  0.296400  0.811200  0.041570  1.0
  C  C1019  1  0.561200  0.453600  0.791570  1.0
  C  C1020  1  0.938800  0.546400  0.291570  1.0
  C  C1021  1  0.703600  0.688800  0.041570  1.0
  C  C1022  1  0.796400  0.311200  0.541570  1.0
  C  C1023  1  0.061200  0.953600  0.291570  1.0
  C  C1024  1  0.438800  0.046400  0.791570  1.0
  C  C1025  1  0.796400  0.811200  0.458430  1.0
  C  C1026  1  0.703600  0.188800  0.958430  1.0
  C  C1027  1  0.438800  0.546400  0.208430  1.0
  C  C1028  1  0.061200  0.453600  0.708430  1.0
  C  C1029  1  0.296400  0.311200  0.958430  1.0
  C  C1030  1  0.203600  0.688800  0.458430  1.0
  C  C1031  1  0.938800  0.046400  0.708430  1.0
  C  C1032  1  0.561200  0.953600  0.208430  1.0
  C  C1033  1  0.198400  0.215000  0.494730  1.0
  C  C1034  1  0.301600  0.785000  0.994730  1.0
  C  C1035  1  0.535000  0.448400  0.744730  1.0
  C  C1036  1  0.965000  0.551600  0.244730  1.0
  C  C1037  1  0.698400  0.715000  0.994730  1.0
  C  C1038  1  0.801600  0.285000  0.494730  1.0
  C  C1039  1  0.035000  0.948400  0.244730  1.0
  C  C1040  1  0.465000  0.051600  0.744730  1.0
  C  C1041  1  0.801600  0.785000  0.505270  1.0
  C  C1042  1  0.698400  0.215000  0.005270  1.0
  C  C1043  1  0.465000  0.551600  0.255270  1.0
  C  C1044  1  0.035000  0.448400  0.755270  1.0
  C  C1045  1  0.301600  0.285000  0.005270  1.0
  C  C1046  1  0.198400  0.715000  0.505270  1.0
  C  C1047  1  0.965000  0.051600  0.755270  1.0
  C  C1048  1  0.535000  0.948400  0.255270  1.0
  C  C1049  1  0.250900  0.226600  0.486940  1.0
  C  C1050  1  0.249100  0.773400  0.986940  1.0
  C  C1051  1  0.523400  0.500900  0.736940  1.0
  C  C1052  1  0.976600  0.499100  0.236940  1.0
  C  C1053  1  0.750900  0.726600  0.986940  1.0
  C  C1054  1  0.749100  0.273400  0.486940  1.0
  C  C1055  1  0.023400  0.000900  0.236940  1.0
  C  C1056  1  0.476600  0.999100  0.736940  1.0
  C  C1057  1  0.749100  0.773400  0.513060  1.0
  C  C1058  1  0.750900  0.226600  0.013060  1.0
  C  C1059  1  0.476600  0.499100  0.263060  1.0
  C  C1060  1  0.023400  0.500900  0.763060  1.0
  C  C1061  1  0.249100  0.273400  0.013060  1.0
  C  C1062  1  0.250900  0.726600  0.513060  1.0
  C  C1063  1  0.976600  0.999100  0.763060  1.0
  C  C1064  1  0.523400  0.000900  0.263060  1.0
  C  C1065  1  0.259000  0.263100  0.465400  1.0
  C  C1066  1  0.241000  0.736900  0.965400  1.0
  C  C1067  1  0.486900  0.509000  0.715400  1.0
  C  C1068  1  0.013100  0.491000  0.215400  1.0
  C  C1069  1  0.759000  0.763100  0.965400  1.0
  C  C1070  1  0.741000  0.236900  0.465400  1.0
  C  C1071  1  0.986900  0.009000  0.215400  1.0
  C  C1072  1  0.513100  0.991000  0.715400  1.0
  C  C1073  1  0.741000  0.736900  0.534600  1.0
  C  C1074  1  0.759000  0.263100  0.034600  1.0
  C  C1075  1  0.513100  0.491000  0.284600  1.0
  C  C1076  1  0.986900  0.509000  0.784600  1.0
  C  C1077  1  0.241000  0.236900  0.034600  1.0
  C  C1078  1  0.259000  0.763100  0.534600  1.0
  C  C1079  1  0.013100  0.991000  0.784600  1.0
  C  C1080  1  0.486900  0.009000  0.284600  1.0
  C  C1081  1  0.217600  0.287900  0.451770  1.0
  C  C1082  1  0.282400  0.712100  0.951770  1.0
  C  C1083  1  0.462100  0.467600  0.701770  1.0
  C  C1084  1  0.037900  0.532400  0.201770  1.0
  C  C1085  1  0.717600  0.787900  0.951770  1.0
  C  C1086  1  0.782400  0.212100  0.451770  1.0
  C  C1087  1  0.962100  0.967600  0.201770  1.0
  C  C1088  1  0.537900  0.032400  0.701770  1.0
  C  C1089  1  0.782400  0.712100  0.548230  1.0
  C  C1090  1  0.717600  0.287900  0.048230  1.0
  C  C1091  1  0.537900  0.532400  0.298230  1.0
  C  C1092  1  0.962100  0.467600  0.798230  1.0
  C  C1093  1  0.282400  0.212100  0.048230  1.0
  C  C1094  1  0.217600  0.787900  0.548230  1.0
  C  C1095  1  0.037900  0.032400  0.798230  1.0
  C  C1096  1  0.462100  0.967600  0.298230  1.0
  C  C1097  1  0.165600  0.276400  0.460200  1.0
  C  C1098  1  0.334400  0.723600  0.960200  1.0
  C  C1099  1  0.473600  0.415600  0.710200  1.0
  C  C1100  1  0.026400  0.584400  0.210200  1.0
  C  C1101  1  0.665600  0.776400  0.960200  1.0
  C  C1102  1  0.834400  0.223600  0.460200  1.0
  C  C1103  1  0.973600  0.915600  0.210200  1.0
  C  C1104  1  0.526400  0.084400  0.710200  1.0
  C  C1105  1  0.834400  0.723600  0.539800  1.0
  C  C1106  1  0.665600  0.276400  0.039800  1.0
  C  C1107  1  0.526400  0.584400  0.289800  1.0
  C  C1108  1  0.973600  0.415600  0.789800  1.0
  C  C1109  1  0.334400  0.223600  0.039800  1.0
  C  C1110  1  0.165600  0.776400  0.539800  1.0
  C  C1111  1  0.026400  0.084400  0.789800  1.0
  C  C1112  1  0.473600  0.915600  0.289800  1.0
  C  C1113  1  0.155300  0.240200  0.481680  1.0
  C  C1114  1  0.344700  0.759800  0.981680  1.0
  C  C1115  1  0.509800  0.405300  0.731680  1.0
  C  C1116  1  0.990200  0.594700  0.231680  1.0
  C  C1117  1  0.655300  0.740200  0.981680  1.0
  C  C1118  1  0.844700  0.259800  0.481680  1.0
  C  C1119  1  0.009800  0.905300  0.231680  1.0
  C  C1120  1  0.490200  0.094700  0.731680  1.0
  C  C1121  1  0.844700  0.759800  0.518320  1.0
  C  C1122  1  0.655300  0.240200  0.018320  1.0
  C  C1123  1  0.490200  0.594700  0.268320  1.0
  C  C1124  1  0.009800  0.405300  0.768320  1.0
  C  C1125  1  0.344700  0.259800  0.018320  1.0
  C  C1126  1  0.155300  0.740200  0.518320  1.0
  C  C1127  1  0.990200  0.094700  0.768320  1.0
  C  C1128  1  0.509800  0.905300  0.268320  1.0
  C  C1129  1  0.229400  0.326500  0.428200  1.0
  C  C1130  1  0.270600  0.673500  0.928200  1.0
  C  C1131  1  0.423500  0.479400  0.678200  1.0
  C  C1132  1  0.076500  0.520600  0.178200  1.0
  C  C1133  1  0.729400  0.826500  0.928200  1.0
  C  C1134  1  0.770600  0.173500  0.428200  1.0
  C  C1135  1  0.923500  0.979400  0.178200  1.0
  C  C1136  1  0.576500  0.020600  0.678200  1.0
  C  C1137  1  0.770600  0.673500  0.571800  1.0
  C  C1138  1  0.729400  0.326500  0.071800  1.0
  C  C1139  1  0.576500  0.520600  0.321800  1.0
  C  C1140  1  0.923500  0.479400  0.821800  1.0
  C  C1141  1  0.270600  0.173500  0.071800  1.0
  C  C1142  1  0.229400  0.826500  0.571800  1.0
  C  C1143  1  0.076500  0.020600  0.821800  1.0
  C  C1144  1  0.423500  0.979400  0.321800  1.0
  C  C1145  1  0.262100  0.368200  0.433600  1.0
  C  C1146  1  0.237900  0.631800  0.933600  1.0
  C  C1147  1  0.381800  0.512100  0.683600  1.0
  C  C1148  1  0.118200  0.487900  0.183600  1.0
  C  C1149  1  0.762100  0.868200  0.933600  1.0
  C  C1150  1  0.737900  0.131800  0.433600  1.0
  C  C1151  1  0.881800  0.012100  0.183600  1.0
  C  C1152  1  0.618200  0.987900  0.683600  1.0
  C  C1153  1  0.737900  0.631800  0.566400  1.0
  C  C1154  1  0.762100  0.368200  0.066400  1.0
  C  C1155  1  0.618200  0.487900  0.316400  1.0
  C  C1156  1  0.881800  0.512100  0.816400  1.0
  C  C1157  1  0.237900  0.131800  0.066400  1.0
  C  C1158  1  0.262100  0.868200  0.566400  1.0
  C  C1159  1  0.118200  0.987900  0.816400  1.0
  C  C1160  1  0.381800  0.012100  0.316400  1.0
  C  C1161  1  0.277400  0.406700  0.413520  1.0
  C  C1162  1  0.222600  0.593300  0.913520  1.0
  C  C1163  1  0.343300  0.527400  0.663520  1.0
  C  C1164  1  0.156700  0.472600  0.163520  1.0
  C  C1165  1  0.777400  0.906700  0.913520  1.0
  C  C1166  1  0.722600  0.093300  0.413520  1.0
  C  C1167  1  0.843300  0.027400  0.163520  1.0
  C  C1168  1  0.656700  0.972600  0.663520  1.0
  C  C1169  1  0.722600  0.593300  0.586480  1.0
  C  C1170  1  0.777400  0.406700  0.086480  1.0
  C  C1171  1  0.656700  0.472600  0.336480  1.0
  C  C1172  1  0.843300  0.527400  0.836480  1.0
  C  C1173  1  0.222600  0.093300  0.086480  1.0
  C  C1174  1  0.277400  0.906700  0.586480  1.0
  C  C1175  1  0.156700  0.972600  0.836480  1.0
  C  C1176  1  0.343300  0.027400  0.336480  1.0
  C  C1177  1  0.257900  0.400200  0.385800  1.0
  C  C1178  1  0.242100  0.599800  0.885800  1.0
  C  C1179  1  0.349800  0.507900  0.635800  1.0
  C  C1180  1  0.150200  0.492100  0.135800  1.0
  C  C1181  1  0.757900  0.900200  0.885800  1.0
  C  C1182  1  0.742100  0.099800  0.385800  1.0
  C  C1183  1  0.849800  0.007900  0.135800  1.0
  C  C1184  1  0.650200  0.992100  0.635800  1.0
  C  C1185  1  0.742100  0.599800  0.614200  1.0
  C  C1186  1  0.757900  0.400200  0.114200  1.0
  C  C1187  1  0.650200  0.492100  0.364200  1.0
  C  C1188  1  0.849800  0.507900  0.864200  1.0
  C  C1189  1  0.242100  0.099800  0.114200  1.0
  C  C1190  1  0.257900  0.900200  0.614200  1.0
  C  C1191  1  0.150200  0.992100  0.864200  1.0
  C  C1192  1  0.349800  0.007900  0.364200  1.0
  C  C1193  1  0.223300  0.354700  0.378900  1.0
  C  C1194  1  0.276700  0.645300  0.878900  1.0
  C  C1195  1  0.395300  0.473300  0.628900  1.0
  C  C1196  1  0.104700  0.526700  0.128900  1.0
  C  C1197  1  0.723300  0.854700  0.878900  1.0
  C  C1198  1  0.776700  0.145300  0.378900  1.0
  C  C1199  1  0.895300  0.973300  0.128900  1.0
  C  C1200  1  0.604700  0.026700  0.628900  1.0
  C  C1201  1  0.776700  0.645300  0.621100  1.0
  C  C1202  1  0.723300  0.354700  0.121100  1.0
  C  C1203  1  0.604700  0.526700  0.371100  1.0
  C  C1204  1  0.895300  0.473300  0.871100  1.0
  C  C1205  1  0.276700  0.145300  0.121100  1.0
  C  C1206  1  0.223300  0.854700  0.621100  1.0
  C  C1207  1  0.104700  0.026700  0.871100  1.0
  C  C1208  1  0.395300  0.973300  0.371100  1.0
  C  C1209  1  0.208500  0.317700  0.400700  1.0
  C  C1210  1  0.291500  0.682300  0.900700  1.0
  C  C1211  1  0.432300  0.458500  0.650700  1.0
  C  C1212  1  0.067700  0.541500  0.150700  1.0
  C  C1213  1  0.708500  0.817700  0.900700  1.0
  C  C1214  1  0.791500  0.182300  0.400700  1.0
  C  C1215  1  0.932300  0.958500  0.150700  1.0
  C  C1216  1  0.567700  0.041500  0.650700  1.0
  C  C1217  1  0.791500  0.682300  0.599300  1.0
  C  C1218  1  0.708500  0.317700  0.099300  1.0
  C  C1219  1  0.567700  0.541500  0.349300  1.0
  C  C1220  1  0.932300  0.458500  0.849300  1.0
  C  C1221  1  0.291500  0.182300  0.099300  1.0
  C  C1222  1  0.208500  0.817700  0.599300  1.0
  C  C1223  1  0.067700  0.041500  0.849300  1.0
  C  C1224  1  0.432300  0.958500  0.349300  1.0
  C  C1225  1  0.178700  0.271900  0.393300  1.0
  C  C1226  1  0.321300  0.728100  0.893300  1.0
  C  C1227  1  0.478100  0.428700  0.643300  1.0
  C  C1228  1  0.021900  0.571300  0.143300  1.0
  C  C1229  1  0.678700  0.771900  0.893300  1.0
  C  C1230  1  0.821300  0.228100  0.393300  1.0
  C  C1231  1  0.978100  0.928700  0.143300  1.0
  C  C1232  1  0.521900  0.071300  0.643300  1.0
  C  C1233  1  0.821300  0.728100  0.606700  1.0
  C  C1234  1  0.678700  0.271900  0.106700  1.0
  C  C1235  1  0.521900  0.571300  0.356700  1.0
  C  C1236  1  0.978100  0.428700  0.856700  1.0
  C  C1237  1  0.321300  0.228100  0.106700  1.0
  C  C1238  1  0.178700  0.771900  0.606700  1.0
  C  C1239  1  0.021900  0.071300  0.856700  1.0
  C  C1240  1  0.478100  0.928700  0.356700  1.0
  C  C1241  1  0.159200  0.264000  0.366800  1.0
  C  C1242  1  0.340800  0.736000  0.866800  1.0
  C  C1243  1  0.486000  0.409200  0.616800  1.0
  C  C1244  1  0.014000  0.590800  0.116800  1.0
  C  C1245  1  0.659200  0.764000  0.866800  1.0
  C  C1246  1  0.840800  0.236000  0.366800  1.0
  C  C1247  1  0.986000  0.909200  0.116800  1.0
  C  C1248  1  0.514000  0.090800  0.616800  1.0
  C  C1249  1  0.840800  0.736000  0.633200  1.0
  C  C1250  1  0.659200  0.264000  0.133200  1.0
  C  C1251  1  0.514000  0.590800  0.383200  1.0
  C  C1252  1  0.986000  0.409200  0.883200  1.0
  C  C1253  1  0.340800  0.236000  0.133200  1.0
  C  C1254  1  0.159200  0.764000  0.633200  1.0
  C  C1255  1  0.014000  0.090800  0.883200  1.0
  C  C1256  1  0.486000  0.909200  0.383200  1.0
  C  C1257  1  0.173000  0.301300  0.345100  1.0
  C  C1258  1  0.327000  0.698700  0.845100  1.0
  C  C1259  1  0.448700  0.423000  0.595100  1.0
  C  C1260  1  0.051300  0.577000  0.095100  1.0
  C  C1261  1  0.673000  0.801300  0.845100  1.0
  C  C1262  1  0.827000  0.198700  0.345100  1.0
  C  C1263  1  0.948700  0.923000  0.095100  1.0
  C  C1264  1  0.551300  0.077000  0.595100  1.0
  C  C1265  1  0.827000  0.698700  0.654900  1.0
  C  C1266  1  0.673000  0.301300  0.154900  1.0
  C  C1267  1  0.551300  0.577000  0.404900  1.0
  C  C1268  1  0.948700  0.423000  0.904900  1.0
  C  C1269  1  0.327000  0.198700  0.154900  1.0
  C  C1270  1  0.173000  0.801300  0.654900  1.0
  C  C1271  1  0.051300  0.077000  0.904900  1.0
  C  C1272  1  0.448700  0.923000  0.404900  1.0
  C  C1273  1  0.205800  0.346100  0.351900  1.0
  C  C1274  1  0.294200  0.653900  0.851900  1.0
  C  C1275  1  0.403900  0.455800  0.601900  1.0
  C  C1276  1  0.096100  0.544200  0.101900  1.0
  C  C1277  1  0.705800  0.846100  0.851900  1.0
  C  C1278  1  0.794200  0.153900  0.351900  1.0
  C  C1279  1  0.903900  0.955800  0.101900  1.0
  C  C1280  1  0.596100  0.044200  0.601900  1.0
  C  C1281  1  0.794200  0.653900  0.648100  1.0
  C  C1282  1  0.705800  0.346100  0.148100  1.0
  C  C1283  1  0.596100  0.544200  0.398100  1.0
  C  C1284  1  0.903900  0.455800  0.898100  1.0
  C  C1285  1  0.294200  0.153900  0.148100  1.0
  C  C1286  1  0.205800  0.846100  0.648100  1.0
  C  C1287  1  0.096100  0.044200  0.898100  1.0
  C  C1288  1  0.403900  0.955800  0.398100  1.0
  C  C1289  1  0.272000  0.438900  0.365100  1.0
  C  C1290  1  0.228000  0.561100  0.865100  1.0
  C  C1291  1  0.311100  0.522000  0.615100  1.0
  C  C1292  1  0.188900  0.478000  0.115100  1.0
  C  C1293  1  0.772000  0.938900  0.865100  1.0
  C  C1294  1  0.728000  0.061100  0.365100  1.0
  C  C1295  1  0.811100  0.022000  0.115100  1.0
  C  C1296  1  0.688900  0.978000  0.615100  1.0
  C  C1297  1  0.728000  0.561100  0.634900  1.0
  C  C1298  1  0.772000  0.438900  0.134900  1.0
  C  C1299  1  0.688900  0.478000  0.384900  1.0
  C  C1300  1  0.811100  0.522000  0.884900  1.0
  C  C1301  1  0.228000  0.061100  0.134900  1.0
  C  C1302  1  0.272000  0.938900  0.634900  1.0
  C  C1303  1  0.188900  0.978000  0.884900  1.0
  C  C1304  1  0.311100  0.022000  0.384900  1.0
  C  C1305  1  0.306800  0.480600  0.370960  1.0
  C  C1306  1  0.193200  0.519400  0.870960  1.0
  C  C1307  1  0.269400  0.556800  0.620960  1.0
  C  C1308  1  0.230600  0.443200  0.120960  1.0
  C  C1309  1  0.806800  0.980600  0.870960  1.0
  C  C1310  1  0.693200  0.019400  0.370960  1.0
  C  C1311  1  0.769400  0.056800  0.120960  1.0
  C  C1312  1  0.730600  0.943200  0.620960  1.0
  C  C1313  1  0.693200  0.519400  0.629040  1.0
  C  C1314  1  0.806800  0.480600  0.129040  1.0
  C  C1315  1  0.730600  0.443200  0.379040  1.0
  C  C1316  1  0.769400  0.556800  0.879040  1.0
  C  C1317  1  0.193200  0.019400  0.129040  1.0
  C  C1318  1  0.306800  0.980600  0.629040  1.0
  C  C1319  1  0.230600  0.943200  0.879040  1.0
  C  C1320  1  0.269400  0.056800  0.379040  1.0
  C  C1321  1  0.328900  0.488000  0.398920  1.0
  C  C1322  1  0.171100  0.512000  0.898920  1.0
  C  C1323  1  0.262000  0.578900  0.648920  1.0
  C  C1324  1  0.238000  0.421100  0.148920  1.0
  C  C1325  1  0.828900  0.988000  0.898920  1.0
  C  C1326  1  0.671100  0.012000  0.398920  1.0
  C  C1327  1  0.762000  0.078900  0.148920  1.0
  C  C1328  1  0.738000  0.921100  0.648920  1.0
  C  C1329  1  0.671100  0.512000  0.601080  1.0
  C  C1330  1  0.828900  0.488000  0.101080  1.0
  C  C1331  1  0.738000  0.421100  0.351080  1.0
  C  C1332  1  0.762000  0.578900  0.851080  1.0
  C  C1333  1  0.171100  0.012000  0.101080  1.0
  C  C1334  1  0.328900  0.988000  0.601080  1.0
  C  C1335  1  0.238000  0.921100  0.851080  1.0
  C  C1336  1  0.262000  0.078900  0.351080  1.0
  C  C1337  1  0.313800  0.451300  0.419880  1.0
  C  C1338  1  0.186200  0.548700  0.919880  1.0
  C  C1339  1  0.298700  0.563800  0.669880  1.0
  C  C1340  1  0.201300  0.436200  0.169880  1.0
  C  C1341  1  0.813800  0.951300  0.919880  1.0
  C  C1342  1  0.686200  0.048700  0.419880  1.0
  C  C1343  1  0.798700  0.063800  0.169880  1.0
  C  C1344  1  0.701300  0.936200  0.669880  1.0
  C  C1345  1  0.686200  0.548700  0.580120  1.0
  C  C1346  1  0.813800  0.451300  0.080120  1.0
  C  C1347  1  0.701300  0.436200  0.330120  1.0
  C  C1348  1  0.798700  0.563800  0.830120  1.0
  C  C1349  1  0.186200  0.048700  0.080120  1.0
  C  C1350  1  0.313800  0.951300  0.580120  1.0
  C  C1351  1  0.201300  0.936200  0.830120  1.0
  C  C1352  1  0.298700  0.063800  0.330120  1.0
  C  C1353  1  0.335100  0.457200  0.446700  1.0
  C  C1354  1  0.164900  0.542800  0.946700  1.0
  C  C1355  1  0.292800  0.585100  0.696700  1.0
  C  C1356  1  0.207200  0.414900  0.196700  1.0
  C  C1357  1  0.835100  0.957200  0.946700  1.0
  C  C1358  1  0.664900  0.042800  0.446700  1.0
  C  C1359  1  0.792800  0.085100  0.196700  1.0
  C  C1360  1  0.707200  0.914900  0.696700  1.0
  C  C1361  1  0.664900  0.542800  0.553300  1.0
  C  C1362  1  0.835100  0.457200  0.053300  1.0
  C  C1363  1  0.707200  0.414900  0.303300  1.0
  C  C1364  1  0.792800  0.585100  0.803300  1.0
  C  C1365  1  0.164900  0.042800  0.053300  1.0
  C  C1366  1  0.335100  0.957200  0.553300  1.0
  C  C1367  1  0.207200  0.914900  0.803300  1.0
  C  C1368  1  0.292800  0.085100  0.303300  1.0
  C  C1369  1  0.369400  0.500700  0.452800  1.0
  C  C1370  1  0.130600  0.499300  0.952800  1.0
  C  C1371  1  0.249300  0.619400  0.702800  1.0
  C  C1372  1  0.250700  0.380600  0.202800  1.0
  C  C1373  1  0.869400  0.000700  0.952800  1.0
  C  C1374  1  0.630600  0.999300  0.452800  1.0
  C  C1375  1  0.749300  0.119400  0.202800  1.0
  C  C1376  1  0.750700  0.880600  0.702800  1.0
  C  C1377  1  0.630600  0.499300  0.547200  1.0
  C  C1378  1  0.869400  0.500700  0.047200  1.0
  C  C1379  1  0.750700  0.380600  0.297200  1.0
  C  C1380  1  0.749300  0.619400  0.797200  1.0
  C  C1381  1  0.130600  0.999300  0.047200  1.0
  C  C1382  1  0.369400  0.000700  0.547200  1.0
  C  C1383  1  0.250700  0.880600  0.797200  1.0
  C  C1384  1  0.249300  0.119400  0.297200  1.0
  C  C1385  1  0.383700  0.536800  0.431900  1.0
  C  C1386  1  0.116300  0.463200  0.931900  1.0
  C  C1387  1  0.213200  0.633700  0.681900  1.0
  C  C1388  1  0.286800  0.366300  0.181900  1.0
  C  C1389  1  0.883700  0.036800  0.931900  1.0
  C  C1390  1  0.616300  0.963200  0.431900  1.0
  C  C1391  1  0.713200  0.133700  0.181900  1.0
  C  C1392  1  0.786800  0.866300  0.681900  1.0
  C  C1393  1  0.616300  0.463200  0.568100  1.0
  C  C1394  1  0.883700  0.536800  0.068100  1.0
  C  C1395  1  0.786800  0.366300  0.318100  1.0
  C  C1396  1  0.713200  0.633700  0.818100  1.0
  C  C1397  1  0.116300  0.963200  0.068100  1.0
  C  C1398  1  0.383700  0.036800  0.568100  1.0
  C  C1399  1  0.286800  0.866300  0.818100  1.0
  C  C1400  1  0.213200  0.133700  0.318100  1.0
  C  C1401  1  0.362200  0.531700  0.405600  1.0
  C  C1402  1  0.137800  0.468300  0.905600  1.0
  C  C1403  1  0.218300  0.612200  0.655600  1.0
  C  C1404  1  0.281700  0.387800  0.155600  1.0
  C  C1405  1  0.862200  0.031700  0.905600  1.0
  C  C1406  1  0.637800  0.968300  0.405600  1.0
  C  C1407  1  0.718300  0.112200  0.155600  1.0
  C  C1408  1  0.781700  0.887800  0.655600  1.0
  C  C1409  1  0.637800  0.468300  0.594400  1.0
  C  C1410  1  0.862200  0.531700  0.094400  1.0
  C  C1411  1  0.781700  0.387800  0.344400  1.0
  C  C1412  1  0.718300  0.612200  0.844400  1.0
  C  C1413  1  0.137800  0.968300  0.094400  1.0
  C  C1414  1  0.362200  0.031700  0.594400  1.0
  C  C1415  1  0.281700  0.887800  0.844400  1.0
  C  C1416  1  0.218300  0.112200  0.344400  1.0
  C  C1417  1  0.321800  0.517600  0.347370  1.0
  C  C1418  1  0.178200  0.482400  0.847370  1.0
  C  C1419  1  0.232400  0.571800  0.597370  1.0
  C  C1420  1  0.267600  0.428200  0.097370  1.0
  C  C1421  1  0.821800  0.017600  0.847370  1.0
  C  C1422  1  0.678200  0.982400  0.347370  1.0
  C  C1423  1  0.732400  0.071800  0.097370  1.0
  C  C1424  1  0.767600  0.928200  0.597370  1.0
  C  C1425  1  0.678200  0.482400  0.652630  1.0
  C  C1426  1  0.821800  0.517600  0.152630  1.0
  C  C1427  1  0.767600  0.428200  0.402630  1.0
  C  C1428  1  0.732400  0.571800  0.902630  1.0
  C  C1429  1  0.178200  0.982400  0.152630  1.0
  C  C1430  1  0.321800  0.017600  0.652630  1.0
  C  C1431  1  0.267600  0.928200  0.902630  1.0
  C  C1432  1  0.232400  0.071800  0.402630  1.0
  C  C1433  1  0.374500  0.525700  0.339300  1.0
  C  C1434  1  0.125500  0.474300  0.839300  1.0
  C  C1435  1  0.224300  0.624500  0.589300  1.0
  C  C1436  1  0.275700  0.375500  0.089300  1.0
  C  C1437  1  0.874500  0.025700  0.839300  1.0
  C  C1438  1  0.625500  0.974300  0.339300  1.0
  C  C1439  1  0.724300  0.124500  0.089300  1.0
  C  C1440  1  0.775700  0.875500  0.589300  1.0
  C  C1441  1  0.625500  0.474300  0.660700  1.0
  C  C1442  1  0.874500  0.525700  0.160700  1.0
  C  C1443  1  0.775700  0.375500  0.410700  1.0
  C  C1444  1  0.724300  0.624500  0.910700  1.0
  C  C1445  1  0.125500  0.974300  0.160700  1.0
  C  C1446  1  0.374500  0.025700  0.660700  1.0
  C  C1447  1  0.275700  0.875500  0.910700  1.0
  C  C1448  1  0.224300  0.124500  0.410700  1.0
  C  C1449  1  0.386800  0.557400  0.316190  1.0
  C  C1450  1  0.113200  0.442600  0.816190  1.0
  C  C1451  1  0.192600  0.636800  0.566190  1.0
  C  C1452  1  0.307400  0.363200  0.066190  1.0
  C  C1453  1  0.886800  0.057400  0.816190  1.0
  C  C1454  1  0.613200  0.942600  0.316190  1.0
  C  C1455  1  0.692600  0.136800  0.066190  1.0
  C  C1456  1  0.807400  0.863200  0.566190  1.0
  C  C1457  1  0.613200  0.442600  0.683810  1.0
  C  C1458  1  0.886800  0.557400  0.183810  1.0
  C  C1459  1  0.807400  0.363200  0.433810  1.0
  C  C1460  1  0.692600  0.636800  0.933810  1.0
  C  C1461  1  0.113200  0.942600  0.183810  1.0
  C  C1462  1  0.386800  0.057400  0.683810  1.0
  C  C1463  1  0.307400  0.863200  0.933810  1.0
  C  C1464  1  0.192600  0.136800  0.433810  1.0
  C  C1465  1  0.346100  0.580500  0.301030  1.0
  C  C1466  1  0.153900  0.419500  0.801030  1.0
  C  C1467  1  0.169500  0.596100  0.551030  1.0
  C  C1468  1  0.330500  0.403900  0.051030  1.0
  C  C1469  1  0.846100  0.080500  0.801030  1.0
  C  C1470  1  0.653900  0.919500  0.301030  1.0
  C  C1471  1  0.669500  0.096100  0.051030  1.0
  C  C1472  1  0.830500  0.903900  0.551030  1.0
  C  C1473  1  0.653900  0.419500  0.698970  1.0
  C  C1474  1  0.846100  0.580500  0.198970  1.0
  C  C1475  1  0.830500  0.403900  0.448970  1.0
  C  C1476  1  0.669500  0.596100  0.948970  1.0
  C  C1477  1  0.153900  0.919500  0.198970  1.0
  C  C1478  1  0.346100  0.080500  0.698970  1.0
  C  C1479  1  0.330500  0.903900  0.948970  1.0
  C  C1480  1  0.169500  0.096100  0.448970  1.0
  C  C1481  1  0.292900  0.573300  0.308630  1.0
  C  C1482  1  0.207100  0.426700  0.808630  1.0
  C  C1483  1  0.176700  0.542900  0.558630  1.0
  C  C1484  1  0.323300  0.457100  0.058630  1.0
  C  C1485  1  0.792900  0.073300  0.808630  1.0
  C  C1486  1  0.707100  0.926700  0.308630  1.0
  C  C1487  1  0.676700  0.042900  0.058630  1.0
  C  C1488  1  0.823300  0.957100  0.558630  1.0
  C  C1489  1  0.707100  0.426700  0.691370  1.0
  C  C1490  1  0.792900  0.573300  0.191370  1.0
  C  C1491  1  0.823300  0.457100  0.441370  1.0
  C  C1492  1  0.676700  0.542900  0.941370  1.0
  C  C1493  1  0.207100  0.926700  0.191370  1.0
  C  C1494  1  0.292900  0.073300  0.691370  1.0
  C  C1495  1  0.323300  0.957100  0.941370  1.0
  C  C1496  1  0.176700  0.042900  0.441370  1.0
  C  C1497  1  0.280900  0.541300  0.331530  1.0
  C  C1498  1  0.219100  0.458700  0.831530  1.0
  C  C1499  1  0.208700  0.530900  0.581530  1.0
  C  C1500  1  0.291300  0.469100  0.081530  1.0
  C  C1501  1  0.780900  0.041300  0.831530  1.0
  C  C1502  1  0.719100  0.958700  0.331530  1.0
  C  C1503  1  0.708700  0.030900  0.081530  1.0
  C  C1504  1  0.791300  0.969100  0.581530  1.0
  C  C1505  1  0.719100  0.458700  0.668470  1.0
  C  C1506  1  0.780900  0.541300  0.168470  1.0
  C  C1507  1  0.791300  0.469100  0.418470  1.0
  C  C1508  1  0.708700  0.530900  0.918470  1.0
  C  C1509  1  0.219100  0.958700  0.168470  1.0
  C  C1510  1  0.280900  0.041300  0.668470  1.0
  C  C1511  1  0.291300  0.969100  0.918470  1.0
  C  C1512  1  0.208700  0.030900  0.418470  1.0
  C  C1513  1  0.375600  0.661100  0.280540  1.0
  C  C1514  1  0.124400  0.338900  0.780540  1.0
  C  C1515  1  0.088900  0.625600  0.530540  1.0
  C  C1516  1  0.411100  0.374400  0.030540  1.0
  C  C1517  1  0.875600  0.161100  0.780540  1.0
  C  C1518  1  0.624400  0.838900  0.280540  1.0
  C  C1519  1  0.588900  0.125600  0.030540  1.0
  C  C1520  1  0.911100  0.874400  0.530540  1.0
  C  C1521  1  0.624400  0.338900  0.719460  1.0
  C  C1522  1  0.875600  0.661100  0.219460  1.0
  C  C1523  1  0.911100  0.374400  0.469460  1.0
  C  C1524  1  0.588900  0.625600  0.969460  1.0
  C  C1525  1  0.124400  0.838900  0.219460  1.0
  C  C1526  1  0.375600  0.161100  0.719460  1.0
  C  C1527  1  0.411100  0.874400  0.969460  1.0
  C  C1528  1  0.088900  0.125600  0.469460  1.0
  C  C1529  1  0.390700  0.691200  0.256180  1.0
  C  C1530  1  0.109300  0.308800  0.756180  1.0
  C  C1531  1  0.058800  0.640700  0.506180  1.0
  C  C1532  1  0.441200  0.359300  0.006180  1.0
  C  C1533  1  0.890700  0.191200  0.756180  1.0
  C  C1534  1  0.609300  0.808800  0.256180  1.0
  C  C1535  1  0.558800  0.140700  0.006180  1.0
  C  C1536  1  0.941200  0.859300  0.506180  1.0
  C  C1537  1  0.609300  0.308800  0.743820  1.0
  C  C1538  1  0.890700  0.691200  0.243820  1.0
  C  C1539  1  0.941200  0.359300  0.493820  1.0
  C  C1540  1  0.558800  0.640700  0.993820  1.0
  C  C1541  1  0.109300  0.808800  0.243820  1.0
  C  C1542  1  0.390700  0.191200  0.743820  1.0
  C  C1543  1  0.441200  0.859300  0.993820  1.0
  C  C1544  1  0.058800  0.140700  0.493820  1.0
  C  C1545  1  0.413800  0.741100  0.256600  1.0
  C  C1546  1  0.086200  0.258900  0.756600  1.0
  C  C1547  1  0.008900  0.663800  0.506600  1.0
  C  C1548  1  0.491100  0.336200  0.006600  1.0
  C  C1549  1  0.913800  0.241100  0.756600  1.0
  C  C1550  1  0.586200  0.758900  0.256600  1.0
  C  C1551  1  0.508900  0.163800  0.006600  1.0
  C  C1552  1  0.991100  0.836200  0.506600  1.0
  C  C1553  1  0.586200  0.258900  0.743400  1.0
  C  C1554  1  0.913800  0.741100  0.243400  1.0
  C  C1555  1  0.991100  0.336200  0.493400  1.0
  C  C1556  1  0.508900  0.663800  0.993400  1.0
  C  C1557  1  0.086200  0.758900  0.243400  1.0
  C  C1558  1  0.413800  0.241100  0.743400  1.0
  C  C1559  1  0.491100  0.836200  0.993400  1.0
  C  C1560  1  0.008900  0.163800  0.493400  1.0
  C  C1561  1  0.429900  0.764900  0.231800  1.0
  C  C1562  1  0.070100  0.235100  0.731800  1.0
  C  C1563  1  0.985100  0.679900  0.481800  1.0
  C  C1564  1  0.514900  0.320100  0.981800  1.0
  C  C1565  1  0.929900  0.264900  0.731800  1.0
  C  C1566  1  0.570100  0.735100  0.231800  1.0
  C  C1567  1  0.485100  0.179900  0.981800  1.0
  C  C1568  1  0.014900  0.820100  0.481800  1.0
  C  C1569  1  0.570100  0.235100  0.768200  1.0
  C  C1570  1  0.929900  0.764900  0.268200  1.0
  C  C1571  1  0.014900  0.320100  0.518200  1.0
  C  C1572  1  0.485100  0.679900  0.018200  1.0
  C  C1573  1  0.070100  0.735100  0.268200  1.0
  C  C1574  1  0.429900  0.264900  0.768200  1.0
  C  C1575  1  0.514900  0.820100  0.018200  1.0
  C  C1576  1  0.985100  0.179900  0.518200  1.0
  C  C1577  1  0.421900  0.736500  0.207500  1.0
  C  C1578  1  0.078100  0.263500  0.707500  1.0
  C  C1579  1  0.013500  0.671900  0.457500  1.0
  C  C1580  1  0.486500  0.328100  0.957500  1.0
  C  C1581  1  0.921900  0.236500  0.707500  1.0
  C  C1582  1  0.578100  0.763500  0.207500  1.0
  C  C1583  1  0.513500  0.171900  0.957500  1.0
  C  C1584  1  0.986500  0.828100  0.457500  1.0
  C  C1585  1  0.578100  0.263500  0.792500  1.0
  C  C1586  1  0.921900  0.736500  0.292500  1.0
  C  C1587  1  0.986500  0.328100  0.542500  1.0
  C  C1588  1  0.513500  0.671900  0.042500  1.0
  C  C1589  1  0.078100  0.763500  0.292500  1.0
  C  C1590  1  0.421900  0.236500  0.792500  1.0
  C  C1591  1  0.486500  0.828100  0.042500  1.0
  C  C1592  1  0.013500  0.171900  0.542500  1.0
  C  C1593  1  0.398300  0.685200  0.208000  1.0
  C  C1594  1  0.101700  0.314800  0.708000  1.0
  C  C1595  1  0.064800  0.648300  0.458000  1.0
  C  C1596  1  0.435200  0.351700  0.958000  1.0
  C  C1597  1  0.898300  0.185200  0.708000  1.0
  C  C1598  1  0.601700  0.814800  0.208000  1.0
  C  C1599  1  0.564800  0.148300  0.958000  1.0
  C  C1600  1  0.935200  0.851700  0.458000  1.0
  C  C1601  1  0.601700  0.314800  0.792000  1.0
  C  C1602  1  0.898300  0.685200  0.292000  1.0
  C  C1603  1  0.935200  0.351700  0.542000  1.0
  C  C1604  1  0.564800  0.648300  0.042000  1.0
  C  C1605  1  0.101700  0.814800  0.292000  1.0
  C  C1606  1  0.398300  0.185200  0.792000  1.0
  C  C1607  1  0.435200  0.851700  0.042000  1.0
  C  C1608  1  0.064800  0.148300  0.542000  1.0
  C  C1609  1  0.086300  0.007100  0.516020  1.0
  C  C1610  1  0.413700  0.992900  0.016020  1.0
  C  C1611  1  0.742900  0.336300  0.766020  1.0
  C  C1612  1  0.757100  0.663700  0.266020  1.0
  C  C1613  1  0.586300  0.507100  0.016020  1.0
  C  C1614  1  0.913700  0.492900  0.516020  1.0
  C  C1615  1  0.242900  0.836300  0.266020  1.0
  C  C1616  1  0.257100  0.163700  0.766020  1.0
  C  C1617  1  0.913700  0.992900  0.483980  1.0
  C  C1618  1  0.586300  0.007100  0.983980  1.0
  C  C1619  1  0.257100  0.663700  0.233980  1.0
  C  C1620  1  0.242900  0.336300  0.733980  1.0
  C  C1621  1  0.413700  0.492900  0.983980  1.0
  C  C1622  1  0.086300  0.507100  0.483980  1.0
  C  C1623  1  0.757100  0.163700  0.733980  1.0
  C  C1624  1  0.742900  0.836300  0.233980  1.0
  C  C1625  1  0.075900  0.951900  0.516400  1.0
  C  C1626  1  0.424100  0.048100  0.016400  1.0
  C  C1627  1  0.798100  0.325900  0.766400  1.0
  C  C1628  1  0.701900  0.674100  0.266400  1.0
  C  C1629  1  0.575900  0.451900  0.016400  1.0
  C  C1630  1  0.924100  0.548100  0.516400  1.0
  C  C1631  1  0.298100  0.825900  0.266400  1.0
  C  C1632  1  0.201900  0.174100  0.766400  1.0
  C  C1633  1  0.924100  0.048100  0.483600  1.0
  C  C1634  1  0.575900  0.951900  0.983600  1.0
  C  C1635  1  0.201900  0.674100  0.233600  1.0
  C  C1636  1  0.298100  0.325900  0.733600  1.0
  C  C1637  1  0.424100  0.548100  0.983600  1.0
  C  C1638  1  0.075900  0.451900  0.483600  1.0
  C  C1639  1  0.701900  0.174100  0.733600  1.0
  C  C1640  1  0.798100  0.825900  0.233600  1.0
  C  C1641  1  0.116000  0.915400  0.512400  1.0
  C  C1642  1  0.384000  0.084600  0.012400  1.0
  C  C1643  1  0.834600  0.366000  0.762400  1.0
  C  C1644  1  0.665400  0.634000  0.262400  1.0
  C  C1645  1  0.616000  0.415400  0.012400  1.0
  C  C1646  1  0.884000  0.584600  0.512400  1.0
  C  C1647  1  0.334600  0.866000  0.262400  1.0
  C  C1648  1  0.165400  0.134000  0.762400  1.0
  C  C1649  1  0.884000  0.084600  0.487600  1.0
  C  C1650  1  0.616000  0.915400  0.987600  1.0
  C  C1651  1  0.165400  0.634000  0.237600  1.0
  C  C1652  1  0.334600  0.366000  0.737600  1.0
  C  C1653  1  0.384000  0.584600  0.987600  1.0
  C  C1654  1  0.116000  0.415400  0.487600  1.0
  C  C1655  1  0.665400  0.134000  0.737600  1.0
  C  C1656  1  0.834600  0.866000  0.237600  1.0
  C  C1657  1  0.167500  0.934400  0.507900  1.0
  C  C1658  1  0.332500  0.065600  0.007900  1.0
  C  C1659  1  0.815600  0.417500  0.757900  1.0
  C  C1660  1  0.684400  0.582500  0.257900  1.0
  C  C1661  1  0.667500  0.434400  0.007900  1.0
  C  C1662  1  0.832500  0.565600  0.507900  1.0
  C  C1663  1  0.315600  0.917500  0.257900  1.0
  C  C1664  1  0.184400  0.082500  0.757900  1.0
  C  C1665  1  0.832500  0.065600  0.492100  1.0
  C  C1666  1  0.667500  0.934400  0.992100  1.0
  C  C1667  1  0.184400  0.582500  0.242100  1.0
  C  C1668  1  0.315600  0.417500  0.742100  1.0
  C  C1669  1  0.332500  0.565600  0.992100  1.0
  C  C1670  1  0.167500  0.434400  0.492100  1.0
  C  C1671  1  0.684400  0.082500  0.742100  1.0
  C  C1672  1  0.815600  0.917500  0.242100  1.0
  C  C1673  1  0.176700  0.990100  0.508020  1.0
  C  C1674  1  0.323300  0.009900  0.008020  1.0
  C  C1675  1  0.759900  0.426700  0.758020  1.0
  C  C1676  1  0.740100  0.573300  0.258020  1.0
  C  C1677  1  0.676700  0.490100  0.008020  1.0
  C  C1678  1  0.823300  0.509900  0.508020  1.0
  C  C1679  1  0.259900  0.926700  0.258020  1.0
  C  C1680  1  0.240100  0.073300  0.758020  1.0
  C  C1681  1  0.823300  0.009900  0.491980  1.0
  C  C1682  1  0.676700  0.990100  0.991980  1.0
  C  C1683  1  0.240100  0.573300  0.241980  1.0
  C  C1684  1  0.259900  0.426700  0.741980  1.0
  C  C1685  1  0.323300  0.509900  0.991980  1.0
  C  C1686  1  0.176700  0.490100  0.491980  1.0
  C  C1687  1  0.740100  0.073300  0.741980  1.0
  C  C1688  1  0.759900  0.926700  0.241980  1.0
  C  C1689  1  0.229400  0.014800  0.503100  1.0
  C  C1690  1  0.270600  0.985200  0.003100  1.0
  C  C1691  1  0.735200  0.479400  0.753100  1.0
  C  C1692  1  0.764800  0.520600  0.253100  1.0
  C  C1693  1  0.729400  0.514800  0.003100  1.0
  C  C1694  1  0.770600  0.485200  0.503100  1.0
  C  C1695  1  0.235200  0.979400  0.253100  1.0
  C  C1696  1  0.264800  0.020600  0.753100  1.0
  C  C1697  1  0.770600  0.985200  0.496900  1.0
  C  C1698  1  0.729400  0.014800  0.996900  1.0
  C  C1699  1  0.264800  0.520600  0.246900  1.0
  C  C1700  1  0.235200  0.479400  0.746900  1.0
  C  C1701  1  0.270600  0.485200  0.996900  1.0
  C  C1702  1  0.229400  0.514800  0.496900  1.0
  C  C1703  1  0.764800  0.020600  0.746900  1.0
  C  C1704  1  0.735200  0.979400  0.246900  1.0
  C  C1705  1  0.282300  0.090300  0.499490  1.0
  C  C1706  1  0.217700  0.909700  0.999490  1.0
  C  C1707  1  0.659700  0.532300  0.749490  1.0
  C  C1708  1  0.840300  0.467700  0.249490  1.0
  C  C1709  1  0.782300  0.590300  0.999490  1.0
  C  C1710  1  0.717700  0.409700  0.499490  1.0
  C  C1711  1  0.159700  0.032300  0.249490  1.0
  C  C1712  1  0.340300  0.967700  0.749490  1.0
  C  C1713  1  0.717700  0.909700  0.500510  1.0
  C  C1714  1  0.782300  0.090300  0.000510  1.0
  C  C1715  1  0.340300  0.467700  0.250510  1.0
  C  C1716  1  0.159700  0.532300  0.750510  1.0
  C  C1717  1  0.217700  0.409700  0.000510  1.0
  C  C1718  1  0.282300  0.590300  0.500510  1.0
  C  C1719  1  0.840300  0.967700  0.750510  1.0
  C  C1720  1  0.659700  0.032300  0.250510  1.0
  C  C1721  1  0.309900  0.113400  0.521420  1.0
  C  C1722  1  0.190100  0.886600  0.021420  1.0
  C  C1723  1  0.636600  0.559900  0.771420  1.0
  C  C1724  1  0.863400  0.440100  0.271420  1.0
  C  C1725  1  0.809900  0.613400  0.021420  1.0
  C  C1726  1  0.690100  0.386600  0.521420  1.0
  C  C1727  1  0.136600  0.059900  0.271420  1.0
  C  C1728  1  0.363400  0.940100  0.771420  1.0
  C  C1729  1  0.690100  0.886600  0.478580  1.0
  C  C1730  1  0.809900  0.113400  0.978580  1.0
  C  C1731  1  0.363400  0.440100  0.228580  1.0
  C  C1732  1  0.136600  0.559900  0.728580  1.0
  C  C1733  1  0.190100  0.386600  0.978580  1.0
  C  C1734  1  0.309900  0.613400  0.478580  1.0
  C  C1735  1  0.863400  0.940100  0.728580  1.0
  C  C1736  1  0.636600  0.059900  0.228580  1.0
  C  C1737  1  0.358200  0.140800  0.516470  1.0
  C  C1738  1  0.141800  0.859200  0.016470  1.0
  C  C1739  1  0.609200  0.608200  0.766470  1.0
  C  C1740  1  0.890800  0.391800  0.266470  1.0
  C  C1741  1  0.858200  0.640800  0.016470  1.0
  C  C1742  1  0.641800  0.359200  0.516470  1.0
  C  C1743  1  0.109200  0.108200  0.266470  1.0
  C  C1744  1  0.390800  0.891800  0.766470  1.0
  C  C1745  1  0.641800  0.859200  0.483530  1.0
  C  C1746  1  0.858200  0.140800  0.983530  1.0
  C  C1747  1  0.390800  0.391800  0.233530  1.0
  C  C1748  1  0.109200  0.608200  0.733530  1.0
  C  C1749  1  0.141800  0.359200  0.983530  1.0
  C  C1750  1  0.358200  0.640800  0.483530  1.0
  C  C1751  1  0.890800  0.891800  0.733530  1.0
  C  C1752  1  0.609200  0.108200  0.233530  1.0
  C  C1753  1  0.378900  0.145100  0.489460  1.0
  C  C1754  1  0.121100  0.854900  0.989460  1.0
  C  C1755  1  0.604900  0.628900  0.739460  1.0
  C  C1756  1  0.895100  0.371100  0.239460  1.0
  C  C1757  1  0.878900  0.645100  0.989460  1.0
  C  C1758  1  0.621100  0.354900  0.489460  1.0
  C  C1759  1  0.104900  0.128900  0.239460  1.0
  C  C1760  1  0.395100  0.871100  0.739460  1.0
  C  C1761  1  0.621100  0.854900  0.510540  1.0
  C  C1762  1  0.878900  0.145100  0.010540  1.0
  C  C1763  1  0.395100  0.371100  0.260540  1.0
  C  C1764  1  0.104900  0.628900  0.760540  1.0
  C  C1765  1  0.121100  0.354900  0.010540  1.0
  C  C1766  1  0.378900  0.645100  0.510540  1.0
  C  C1767  1  0.895100  0.871100  0.760540  1.0
  C  C1768  1  0.604900  0.128900  0.260540  1.0
  C  C1769  1  0.351200  0.121300  0.467950  1.0
  C  C1770  1  0.148800  0.878700  0.967950  1.0
  C  C1771  1  0.628700  0.601200  0.717950  1.0
  C  C1772  1  0.871300  0.398800  0.217950  1.0
  C  C1773  1  0.851200  0.621300  0.967950  1.0
  C  C1774  1  0.648800  0.378700  0.467950  1.0
  C  C1775  1  0.128700  0.101200  0.217950  1.0
  C  C1776  1  0.371300  0.898800  0.717950  1.0
  C  C1777  1  0.648800  0.878700  0.532050  1.0
  C  C1778  1  0.851200  0.121300  0.032050  1.0
  C  C1779  1  0.371300  0.398800  0.282050  1.0
  C  C1780  1  0.128700  0.601200  0.782050  1.0
  C  C1781  1  0.148800  0.378700  0.032050  1.0
  C  C1782  1  0.351200  0.621300  0.532050  1.0
  C  C1783  1  0.871300  0.898800  0.782050  1.0
  C  C1784  1  0.628700  0.101200  0.282050  1.0
  C  C1785  1  0.303100  0.093900  0.472800  1.0
  C  C1786  1  0.196900  0.906100  0.972800  1.0
  C  C1787  1  0.656100  0.553100  0.722800  1.0
  C  C1788  1  0.843900  0.446900  0.222800  1.0
  C  C1789  1  0.803100  0.593900  0.972800  1.0
  C  C1790  1  0.696900  0.406100  0.472800  1.0
  C  C1791  1  0.156100  0.053100  0.222800  1.0
  C  C1792  1  0.343900  0.946900  0.722800  1.0
  C  C1793  1  0.696900  0.906100  0.527200  1.0
  C  C1794  1  0.803100  0.093900  0.027200  1.0
  C  C1795  1  0.343900  0.446900  0.277200  1.0
  C  C1796  1  0.156100  0.553100  0.777200  1.0
  C  C1797  1  0.196900  0.406100  0.027200  1.0
  C  C1798  1  0.303100  0.593900  0.527200  1.0
  C  C1799  1  0.843900  0.946900  0.777200  1.0
  C  C1800  1  0.656100  0.053100  0.277200  1.0
  C  C1801  1  0.431100  0.175100  0.485950  1.0
  C  C1802  1  0.068900  0.824900  0.985950  1.0
  C  C1803  1  0.574900  0.681100  0.735950  1.0
  C  C1804  1  0.925100  0.318900  0.235950  1.0
  C  C1805  1  0.931100  0.675100  0.985950  1.0
  C  C1806  1  0.568900  0.324900  0.485950  1.0
  C  C1807  1  0.074900  0.181100  0.235950  1.0
  C  C1808  1  0.425100  0.818900  0.735950  1.0
  C  C1809  1  0.568900  0.824900  0.514050  1.0
  C  C1810  1  0.931100  0.175100  0.014050  1.0
  C  C1811  1  0.425100  0.318900  0.264050  1.0
  C  C1812  1  0.074900  0.681100  0.764050  1.0
  C  C1813  1  0.068900  0.324900  0.014050  1.0
  C  C1814  1  0.431100  0.675100  0.514050  1.0
  C  C1815  1  0.925100  0.818900  0.764050  1.0
  C  C1816  1  0.574900  0.181100  0.264050  1.0
  C  C1817  1  0.478500  0.145900  0.497750  1.0
  C  C1818  1  0.021500  0.854100  0.997750  1.0
  C  C1819  1  0.604100  0.728500  0.747750  1.0
  C  C1820  1  0.895900  0.271500  0.247750  1.0
  C  C1821  1  0.978500  0.645900  0.997750  1.0
  C  C1822  1  0.521500  0.354100  0.497750  1.0
  C  C1823  1  0.104100  0.228500  0.247750  1.0
  C  C1824  1  0.395900  0.771500  0.747750  1.0
  C  C1825  1  0.521500  0.854100  0.502250  1.0
  C  C1826  1  0.978500  0.145900  0.002250  1.0
  C  C1827  1  0.395900  0.271500  0.252250  1.0
  C  C1828  1  0.104100  0.728500  0.752250  1.0
  C  C1829  1  0.021500  0.354100  0.002250  1.0
  C  C1830  1  0.478500  0.645900  0.502250  1.0
  C  C1831  1  0.895900  0.771500  0.752250  1.0
  C  C1832  1  0.604100  0.228500  0.252250  1.0
  C  C1833  1  0.481200  0.091200  0.506500  1.0
  C  C1834  1  0.018800  0.908800  0.006500  1.0
  C  C1835  1  0.658800  0.731200  0.756500  1.0
  C  C1836  1  0.841200  0.268800  0.256500  1.0
  C  C1837  1  0.981200  0.591200  0.006500  1.0
  C  C1838  1  0.518800  0.408800  0.506500  1.0
  C  C1839  1  0.158800  0.231200  0.256500  1.0
  C  C1840  1  0.341200  0.768800  0.756500  1.0
  C  C1841  1  0.518800  0.908800  0.493500  1.0
  C  C1842  1  0.981200  0.091200  0.993500  1.0
  C  C1843  1  0.341200  0.268800  0.243500  1.0
  C  C1844  1  0.158800  0.731200  0.743500  1.0
  C  C1845  1  0.018800  0.408800  0.993500  1.0
  C  C1846  1  0.481200  0.591200  0.493500  1.0
  C  C1847  1  0.841200  0.768800  0.743500  1.0
  C  C1848  1  0.658800  0.231200  0.243500  1.0
  C  C1849  1  0.528600  0.067000  0.515100  1.0
  C  C1850  1  0.971400  0.933000  0.015100  1.0
  C  C1851  1  0.683000  0.778600  0.765100  1.0
  C  C1852  1  0.817000  0.221400  0.265100  1.0
  C  C1853  1  0.028600  0.567000  0.015100  1.0
  C  C1854  1  0.471400  0.433000  0.515100  1.0
  C  C1855  1  0.183000  0.278600  0.265100  1.0
  C  C1856  1  0.317000  0.721400  0.765100  1.0
  C  C1857  1  0.471400  0.933000  0.484900  1.0
  C  C1858  1  0.028600  0.067000  0.984900  1.0
  C  C1859  1  0.317000  0.221400  0.234900  1.0
  C  C1860  1  0.183000  0.778600  0.734900  1.0
  C  C1861  1  0.971400  0.433000  0.984900  1.0
  C  C1862  1  0.528600  0.567000  0.484900  1.0
  C  C1863  1  0.817000  0.721400  0.734900  1.0
  C  C1864  1  0.683000  0.278600  0.234900  1.0
  C  C1865  1  0.576000  0.096500  0.515700  1.0
  C  C1866  1  0.924000  0.903500  0.015700  1.0
  C  C1867  1  0.653500  0.826000  0.765700  1.0
  C  C1868  1  0.846500  0.174000  0.265700  1.0
  C  C1869  1  0.076000  0.596500  0.015700  1.0
  C  C1870  1  0.424000  0.403500  0.515700  1.0
  C  C1871  1  0.153500  0.326000  0.265700  1.0
  C  C1872  1  0.346500  0.674000  0.765700  1.0
  C  C1873  1  0.424000  0.903500  0.484300  1.0
  C  C1874  1  0.076000  0.096500  0.984300  1.0
  C  C1875  1  0.346500  0.174000  0.234300  1.0
  C  C1876  1  0.153500  0.826000  0.734300  1.0
  C  C1877  1  0.924000  0.403500  0.984300  1.0
  C  C1878  1  0.576000  0.596500  0.484300  1.0
  C  C1879  1  0.846500  0.674000  0.734300  1.0
  C  C1880  1  0.653500  0.326000  0.234300  1.0
  C  C1881  1  0.575200  0.149400  0.508100  1.0
  C  C1882  1  0.924800  0.850600  0.008100  1.0
  C  C1883  1  0.600600  0.825200  0.758100  1.0
  C  C1884  1  0.899400  0.174800  0.258100  1.0
  C  C1885  1  0.075200  0.649400  0.008100  1.0
  C  C1886  1  0.424800  0.350600  0.508100  1.0
  C  C1887  1  0.100600  0.325200  0.258100  1.0
  C  C1888  1  0.399400  0.674800  0.758100  1.0
  C  C1889  1  0.424800  0.850600  0.491900  1.0
  C  C1890  1  0.075200  0.149400  0.991900  1.0
  C  C1891  1  0.399400  0.174800  0.241900  1.0
  C  C1892  1  0.100600  0.825200  0.741900  1.0
  C  C1893  1  0.924800  0.350600  0.991900  1.0
  C  C1894  1  0.575200  0.649400  0.491900  1.0
  C  C1895  1  0.899400  0.674800  0.741900  1.0
  C  C1896  1  0.600600  0.325200  0.241900  1.0
  C  C1897  1  0.527800  0.175800  0.499000  1.0
  C  C1898  1  0.972200  0.824200  0.999000  1.0
  C  C1899  1  0.574200  0.777800  0.749000  1.0
  C  C1900  1  0.925800  0.222200  0.249000  1.0
  C  C1901  1  0.027800  0.675800  0.999000  1.0
  C  C1902  1  0.472200  0.324200  0.499000  1.0
  C  C1903  1  0.074200  0.277800  0.249000  1.0
  C  C1904  1  0.425800  0.722200  0.749000  1.0
  C  C1905  1  0.472200  0.824200  0.501000  1.0
  C  C1906  1  0.027800  0.175800  0.001000  1.0
  C  C1907  1  0.425800  0.222200  0.251000  1.0
  C  C1908  1  0.074200  0.777800  0.751000  1.0
  C  C1909  1  0.972200  0.324200  0.001000  1.0
  C  C1910  1  0.527800  0.675800  0.501000  1.0
  C  C1911  1  0.925800  0.722200  0.751000  1.0
  C  C1912  1  0.574200  0.277800  0.251000  1.0
  C  C1913  1  0.528700  0.231100  0.489500  1.0
  C  C1914  1  0.971300  0.768900  0.989500  1.0
  C  C1915  1  0.518900  0.778700  0.739500  1.0
  C  C1916  1  0.981100  0.221300  0.239500  1.0
  C  C1917  1  0.028700  0.731100  0.989500  1.0
  C  C1918  1  0.471300  0.268900  0.489500  1.0
  C  C1919  1  0.018900  0.278700  0.239500  1.0
  C  C1920  1  0.481100  0.721300  0.739500  1.0
  C  C1921  1  0.471300  0.768900  0.510500  1.0
  C  C1922  1  0.028700  0.231100  0.010500  1.0
  C  C1923  1  0.481100  0.221300  0.260500  1.0
  C  C1924  1  0.018900  0.778700  0.760500  1.0
  C  C1925  1  0.971300  0.268900  0.010500  1.0
  C  C1926  1  0.528700  0.731100  0.510500  1.0
  C  C1927  1  0.981100  0.721300  0.760500  1.0
  C  C1928  1  0.518900  0.278700  0.260500  1.0
  C  C1929  1  0.433300  0.223600  0.475400  1.0
  C  C1930  1  0.066700  0.776400  0.975400  1.0
  C  C1931  1  0.526400  0.683300  0.725400  1.0
  C  C1932  1  0.973600  0.316700  0.225400  1.0
  C  C1933  1  0.933300  0.723600  0.975400  1.0
  C  C1934  1  0.566700  0.276400  0.475400  1.0
  C  C1935  1  0.026400  0.183300  0.225400  1.0
  C  C1936  1  0.473600  0.816700  0.725400  1.0
  C  C1937  1  0.566700  0.776400  0.524600  1.0
  C  C1938  1  0.933300  0.223600  0.024600  1.0
  C  C1939  1  0.473600  0.316700  0.274600  1.0
  C  C1940  1  0.026400  0.683300  0.774600  1.0
  C  C1941  1  0.066700  0.276400  0.024600  1.0
  C  C1942  1  0.433300  0.723600  0.524600  1.0
  C  C1943  1  0.973600  0.816700  0.774600  1.0
  C  C1944  1  0.526400  0.183300  0.274600  1.0
  C  C1945  1  0.481500  0.253700  0.476600  1.0
  C  C1946  1  0.018500  0.746300  0.976600  1.0
  C  C1947  1  0.496300  0.731500  0.726600  1.0
  C  C1948  1  0.003700  0.268500  0.226600  1.0
  C  C1949  1  0.981500  0.753700  0.976600  1.0
  C  C1950  1  0.518500  0.246300  0.476600  1.0
  C  C1951  1  0.996300  0.231500  0.226600  1.0
  C  C1952  1  0.503700  0.768500  0.726600  1.0
  C  C1953  1  0.518500  0.746300  0.523400  1.0
  C  C1954  1  0.981500  0.253700  0.023400  1.0
  C  C1955  1  0.503700  0.268500  0.273400  1.0
  C  C1956  1  0.996300  0.731500  0.773400  1.0
  C  C1957  1  0.018500  0.246300  0.023400  1.0
  C  C1958  1  0.481500  0.753700  0.523400  1.0
  C  C1959  1  0.003700  0.768500  0.773400  1.0
  C  C1960  1  0.496300  0.231500  0.273400  1.0
  C  C1961  1  0.479700  0.306600  0.465600  1.0
  C  C1962  1  0.020300  0.693400  0.965600  1.0
  C  C1963  1  0.443400  0.729700  0.715600  1.0
  C  C1964  1  0.056600  0.270300  0.215600  1.0
  C  C1965  1  0.979700  0.806600  0.965600  1.0
  C  C1966  1  0.520300  0.193400  0.465600  1.0
  C  C1967  1  0.943400  0.229700  0.215600  1.0
  C  C1968  1  0.556600  0.770300  0.715600  1.0
  C  C1969  1  0.520300  0.693400  0.534400  1.0
  C  C1970  1  0.979700  0.306600  0.034400  1.0
  C  C1971  1  0.556600  0.270300  0.284400  1.0
  C  C1972  1  0.943400  0.729700  0.784400  1.0
  C  C1973  1  0.020300  0.193400  0.034400  1.0
  C  C1974  1  0.479700  0.806600  0.534400  1.0
  C  C1975  1  0.056600  0.770300  0.784400  1.0
  C  C1976  1  0.443400  0.229700  0.284400  1.0
  C  C1977  1  0.434900  0.324800  0.449700  1.0
  C  C1978  1  0.065100  0.675200  0.949700  1.0
  C  C1979  1  0.425200  0.684900  0.699700  1.0
  C  C1980  1  0.074800  0.315100  0.199700  1.0
  C  C1981  1  0.934900  0.824800  0.949700  1.0
  C  C1982  1  0.565100  0.175200  0.449700  1.0
  C  C1983  1  0.925200  0.184900  0.199700  1.0
  C  C1984  1  0.574800  0.815100  0.699700  1.0
  C  C1985  1  0.565100  0.675200  0.550300  1.0
  C  C1986  1  0.934900  0.324800  0.050300  1.0
  C  C1987  1  0.574800  0.315100  0.300300  1.0
  C  C1988  1  0.925200  0.684900  0.800300  1.0
  C  C1989  1  0.065100  0.175200  0.050300  1.0
  C  C1990  1  0.434900  0.824800  0.550300  1.0
  C  C1991  1  0.074800  0.815100  0.800300  1.0
  C  C1992  1  0.425200  0.184900  0.300300  1.0
  C  C1993  1  0.435500  0.374600  0.437500  1.0
  C  C1994  1  0.064500  0.625400  0.937500  1.0
  C  C1995  1  0.375400  0.685500  0.687500  1.0
  C  C1996  1  0.124600  0.314500  0.187500  1.0
  C  C1997  1  0.935500  0.874600  0.937500  1.0
  C  C1998  1  0.564500  0.125400  0.437500  1.0
  C  C1999  1  0.875400  0.185500  0.187500  1.0
  C  C2000  1  0.624600  0.814500  0.687500  1.0
  C  C2001  1  0.564500  0.625400  0.562500  1.0
  C  C2002  1  0.935500  0.374600  0.062500  1.0
  C  C2003  1  0.624600  0.314500  0.312500  1.0
  C  C2004  1  0.875400  0.685500  0.812500  1.0
  C  C2005  1  0.064500  0.125400  0.062500  1.0
  C  C2006  1  0.435500  0.874600  0.562500  1.0
  C  C2007  1  0.124600  0.814500  0.812500  1.0
  C  C2008  1  0.375400  0.185500  0.312500  1.0
  C  C2009  1  0.480100  0.408600  0.440500  1.0
  C  C2010  1  0.019900  0.591400  0.940500  1.0
  C  C2011  1  0.341400  0.730100  0.690500  1.0
  C  C2012  1  0.158600  0.269900  0.190500  1.0
  C  C2013  1  0.980100  0.908600  0.940500  1.0
  C  C2014  1  0.519900  0.091400  0.440500  1.0
  C  C2015  1  0.841400  0.230100  0.190500  1.0
  C  C2016  1  0.658600  0.769900  0.690500  1.0
  C  C2017  1  0.519900  0.591400  0.559500  1.0
  C  C2018  1  0.980100  0.408600  0.059500  1.0
  C  C2019  1  0.658600  0.269900  0.309500  1.0
  C  C2020  1  0.841400  0.730100  0.809500  1.0
  C  C2021  1  0.019900  0.091400  0.059500  1.0
  C  C2022  1  0.480100  0.908600  0.559500  1.0
  C  C2023  1  0.158600  0.769900  0.809500  1.0
  C  C2024  1  0.341400  0.230100  0.309500  1.0
  C  C2025  1  0.523000  0.392400  0.455900  1.0
  C  C2026  1  0.977000  0.607600  0.955900  1.0
  C  C2027  1  0.357600  0.773000  0.705900  1.0
  C  C2028  1  0.142400  0.227000  0.205900  1.0
  C  C2029  1  0.023000  0.892400  0.955900  1.0
  C  C2030  1  0.477000  0.107600  0.455900  1.0
  C  C2031  1  0.857600  0.273000  0.205900  1.0
  C  C2032  1  0.642400  0.727000  0.705900  1.0
  C  C2033  1  0.477000  0.607600  0.544100  1.0
  C  C2034  1  0.023000  0.392400  0.044100  1.0
  C  C2035  1  0.642400  0.227000  0.294100  1.0
  C  C2036  1  0.857600  0.773000  0.794100  1.0
  C  C2037  1  0.977000  0.107600  0.044100  1.0
  C  C2038  1  0.523000  0.892400  0.544100  1.0
  C  C2039  1  0.142400  0.727000  0.794100  1.0
  C  C2040  1  0.357600  0.273000  0.294100  1.0
  C  C2041  1  0.524800  0.341100  0.468900  1.0
  C  C2042  1  0.975200  0.658900  0.968900  1.0
  C  C2043  1  0.408900  0.774800  0.718900  1.0
  C  C2044  1  0.091100  0.225200  0.218900  1.0
  C  C2045  1  0.024800  0.841100  0.968900  1.0
  C  C2046  1  0.475200  0.158900  0.468900  1.0
  C  C2047  1  0.908900  0.274800  0.218900  1.0
  C  C2048  1  0.591100  0.725200  0.718900  1.0
  C  C2049  1  0.475200  0.658900  0.531100  1.0
  C  C2050  1  0.024800  0.341100  0.031100  1.0
  C  C2051  1  0.591100  0.225200  0.281100  1.0
  C  C2052  1  0.908900  0.774800  0.781100  1.0
  C  C2053  1  0.975200  0.158900  0.031100  1.0
  C  C2054  1  0.524800  0.841100  0.531100  1.0
  C  C2055  1  0.091100  0.725200  0.781100  1.0
  C  C2056  1  0.408900  0.274800  0.281100  1.0
  C  C2057  1  0.570400  0.324000  0.483200  1.0
  C  C2058  1  0.929600  0.676000  0.983200  1.0
  C  C2059  1  0.426000  0.820400  0.733200  1.0
  C  C2060  1  0.074000  0.179600  0.233200  1.0
  C  C2061  1  0.070400  0.824000  0.983200  1.0
  C  C2062  1  0.429600  0.176000  0.483200  1.0
  C  C2063  1  0.926000  0.320400  0.233200  1.0
  C  C2064  1  0.574000  0.679600  0.733200  1.0
  C  C2065  1  0.429600  0.676000  0.516800  1.0
  C  C2066  1  0.070400  0.324000  0.016800  1.0
  C  C2067  1  0.574000  0.179600  0.266800  1.0
  C  C2068  1  0.926000  0.820400  0.766800  1.0
  C  C2069  1  0.929600  0.176000  0.016800  1.0
  C  C2070  1  0.570400  0.824000  0.516800  1.0
  C  C2071  1  0.074000  0.679600  0.766800  1.0
  C  C2072  1  0.426000  0.320400  0.266800  1.0
  C  C2073  1  0.571700  0.267800  0.492500  1.0
  C  C2074  1  0.928300  0.732200  0.992500  1.0
  C  C2075  1  0.482200  0.821700  0.742500  1.0
  C  C2076  1  0.017800  0.178300  0.242500  1.0
  C  C2077  1  0.071700  0.767800  0.992500  1.0
  C  C2078  1  0.428300  0.232200  0.492500  1.0
  C  C2079  1  0.982200  0.321700  0.242500  1.0
  C  C2080  1  0.517800  0.678300  0.742500  1.0
  C  C2081  1  0.428300  0.732200  0.507500  1.0
  C  C2082  1  0.071700  0.267800  0.007500  1.0
  C  C2083  1  0.517800  0.178300  0.257500  1.0
  C  C2084  1  0.982200  0.821700  0.757500  1.0
  C  C2085  1  0.928300  0.232200  0.007500  1.0
  C  C2086  1  0.571700  0.767800  0.507500  1.0
  C  C2087  1  0.017800  0.678300  0.757500  1.0
  C  C2088  1  0.482200  0.321700  0.257500  1.0
  N  N2089  1  0.082000  0.404700  0.381900  1
  N  N2090  1  0.418000  0.595300  0.881900  1
  N  N2091  1  0.345300  0.332000  0.631900  1
  N  N2092  1  0.154700  0.668000  0.131900  1
  N  N2093  1  0.582000  0.904700  0.881900  1
  N  N2094  1  0.918000  0.095300  0.381900  1
  N  N2095  1  0.845300  0.832000  0.131900  1
  N  N2096  1  0.654700  0.168000  0.631900  1
  N  N2097  1  0.918000  0.595300  0.618100  1
  N  N2098  1  0.582000  0.404700  0.118100  1
  N  N2099  1  0.654700  0.668000  0.368100  1
  N  N2100  1  0.845300  0.332000  0.868100  1
  N  N2101  1  0.418000  0.095300  0.118100  1
  N  N2102  1  0.082000  0.904700  0.618100  1
  N  N2103  1  0.154700  0.168000  0.868100  1
  N  N2104  1  0.345300  0.832000  0.368100  1
  N  N2105  1  0.096000  0.743200  0.416200  1
  N  N2106  1  0.404000  0.256800  0.916200  1
  N  N2107  1  0.006800  0.346000  0.666200  1
  N  N2108  1  0.493200  0.654000  0.166200  1
  N  N2109  1  0.596000  0.243200  0.916200  1
  N  N2110  1  0.904000  0.756800  0.416200  1
  N  N2111  1  0.506800  0.846000  0.166200  1
  N  N2112  1  0.993200  0.154000  0.666200  1
  N  N2113  1  0.904000  0.256800  0.583800  1
  N  N2114  1  0.596000  0.743200  0.083800  1
  N  N2115  1  0.993200  0.654000  0.333800  1
  N  N2116  1  0.506800  0.346000  0.833800  1
  N  N2117  1  0.404000  0.756800  0.083800  1
  N  N2118  1  0.096000  0.243200  0.583800  1
  N  N2119  1  0.493200  0.154000  0.833800  1
  N  N2120  1  0.006800  0.846000  0.333800  1
  N  N2121  1  0.110800  0.767200  0.434700  1
  N  N2122  1  0.389200  0.232800  0.934700  1
  N  N2123  1  0.982800  0.360800  0.684700  1
  N  N2124  1  0.517200  0.639200  0.184700  1
  N  N2125  1  0.610800  0.267200  0.934700  1
  N  N2126  1  0.889200  0.732800  0.434700  1
  N  N2127  1  0.482800  0.860800  0.184700  1
  N  N2128  1  0.017200  0.139200  0.684700  1
  N  N2129  1  0.889200  0.232800  0.565300  1
  N  N2130  1  0.610800  0.767200  0.065300  1
  N  N2131  1  0.017200  0.639200  0.315300  1
  N  N2132  1  0.482800  0.360800  0.815300  1
  N  N2133  1  0.389200  0.732800  0.065300  1
  N  N2134  1  0.110800  0.267200  0.565300  1
  N  N2135  1  0.517200  0.139200  0.815300  1
  N  N2136  1  0.982800  0.860800  0.315300  1
  N  N2137  1  0.178500  0.100200  0.552360  1.0
  N  N2138  1  0.321500  0.899800  0.052360  1.0
  N  N2139  1  0.649800  0.428500  0.802360  1.0
  N  N2140  1  0.850200  0.571500  0.302360  1.0
  N  N2141  1  0.678500  0.600200  0.052360  1.0
  N  N2142  1  0.821500  0.399800  0.552360  1.0
  N  N2143  1  0.149800  0.928500  0.302360  1.0
  N  N2144  1  0.350200  0.071500  0.802360  1.0
  N  N2145  1  0.821500  0.899800  0.447640  1.0
  N  N2146  1  0.678500  0.100200  0.947640  1.0
  N  N2147  1  0.350200  0.571500  0.197640  1.0
  N  N2148  1  0.149800  0.428500  0.697640  1.0
  N  N2149  1  0.321500  0.399800  0.947640  1.0
  N  N2150  1  0.178500  0.600200  0.447640  1.0
  N  N2151  1  0.850200  0.071500  0.697640  1.0
  N  N2152  1  0.649800  0.928500  0.197640  1.0
  N  N2153  1  0.189500  0.175400  0.516260  1.0
  N  N2154  1  0.310500  0.824600  0.016260  1.0
  N  N2155  1  0.574600  0.439500  0.766260  1.0
  N  N2156  1  0.925400  0.560500  0.266260  1.0
  N  N2157  1  0.689500  0.675400  0.016260  1.0
  N  N2158  1  0.810500  0.324600  0.516260  1.0
  N  N2159  1  0.074600  0.939500  0.266260  1.0
  N  N2160  1  0.425400  0.060500  0.766260  1.0
  N  N2161  1  0.810500  0.824600  0.483740  1.0
  N  N2162  1  0.689500  0.175400  0.983740  1.0
  N  N2163  1  0.425400  0.560500  0.233740  1.0
  N  N2164  1  0.074600  0.439500  0.733740  1.0
  N  N2165  1  0.310500  0.324600  0.983740  1.0
  N  N2166  1  0.189500  0.675400  0.483740  1.0
  N  N2167  1  0.925400  0.060500  0.733740  1.0
  N  N2168  1  0.574600  0.939500  0.233740  1.0
  N  N2169  1  0.358600  0.612100  0.276840  1.0
  N  N2170  1  0.141400  0.387900  0.776840  1.0
  N  N2171  1  0.137900  0.608600  0.526840  1.0
  N  N2172  1  0.362100  0.391400  0.026840  1.0
  N  N2173  1  0.858600  0.112100  0.776840  1.0
  N  N2174  1  0.641400  0.887900  0.276840  1.0
  N  N2175  1  0.637900  0.108600  0.026840  1.0
  N  N2176  1  0.862100  0.891400  0.526840  1.0
  N  N2177  1  0.641400  0.387900  0.723160  1.0
  N  N2178  1  0.858600  0.612100  0.223160  1.0
  N  N2179  1  0.862100  0.391400  0.473160  1.0
  N  N2180  1  0.637900  0.608600  0.973160  1.0
  N  N2181  1  0.141400  0.887900  0.223160  1.0
  N  N2182  1  0.358600  0.112100  0.723160  1.0
  N  N2183  1  0.362100  0.891400  0.973160  1.0
  N  N2184  1  0.137900  0.108600  0.473160  1.0
  N  N2185  1  0.382100  0.662500  0.231940  1.0
  N  N2186  1  0.117900  0.337500  0.731940  1.0
  N  N2187  1  0.087500  0.632100  0.481940  1.0
  N  N2188  1  0.412500  0.367900  0.981940  1.0
  N  N2189  1  0.882100  0.162500  0.731940  1.0
  N  N2190  1  0.617900  0.837500  0.231940  1.0
  N  N2191  1  0.587500  0.132100  0.981940  1.0
  N  N2192  1  0.912500  0.867900  0.481940  1.0
  N  N2193  1  0.617900  0.337500  0.768060  1.0
  N  N2194  1  0.882100  0.662500  0.268060  1.0
  N  N2195  1  0.912500  0.367900  0.518060  1.0
  N  N2196  1  0.587500  0.632100  0.018060  1.0
  N  N2197  1  0.117900  0.837500  0.268060  1.0
  N  N2198  1  0.382100  0.162500  0.768060  1.0
  N  N2199  1  0.412500  0.867900  0.018060  1.0
  N  N2200  1  0.087500  0.132100  0.518060  1.0
  N  N2201  1  0.137100  0.026100  0.512480  1.0
  N  N2202  1  0.362900  0.973900  0.012480  1.0
  N  N2203  1  0.723900  0.387100  0.762480  1.0
  N  N2204  1  0.776100  0.612900  0.262480  1.0
  N  N2205  1  0.637100  0.526100  0.012480  1.0
  N  N2206  1  0.862900  0.473900  0.512480  1.0
  N  N2207  1  0.223900  0.887100  0.262480  1.0
  N  N2208  1  0.276100  0.112900  0.762480  1.0
  N  N2209  1  0.862900  0.973900  0.487520  1.0
  N  N2210  1  0.637100  0.026100  0.987520  1.0
  N  N2211  1  0.276100  0.612900  0.237520  1.0
  N  N2212  1  0.223900  0.387100  0.737520  1.0
  N  N2213  1  0.362900  0.473900  0.987520  1.0
  N  N2214  1  0.137100  0.526100  0.487520  1.0
  N  N2215  1  0.776100  0.112900  0.737520  1.0
  N  N2216  1  0.723900  0.887100  0.237520  1.0
  N  N2217  1  0.229900  0.067100  0.504200  1.0
  N  N2218  1  0.270100  0.932900  0.004200  1.0
  N  N2219  1  0.682900  0.479900  0.754200  1.0
  N  N2220  1  0.817100  0.520100  0.254200  1.0
  N  N2221  1  0.729900  0.567100  0.004200  1.0
  N  N2222  1  0.770100  0.432900  0.504200  1.0
  N  N2223  1  0.182900  0.979900  0.254200  1.0
  N  N2224  1  0.317100  0.020100  0.754200  1.0
  N  N2225  1  0.770100  0.932900  0.495800  1.0
  N  N2226  1  0.729900  0.067100  0.995800  1.0
  N  N2227  1  0.317100  0.520100  0.245800  1.0
  N  N2228  1  0.182900  0.479900  0.745800  1.0
  N  N2229  1  0.270100  0.432900  0.995800  1.0
  N  N2230  1  0.229900  0.567100  0.495800  1.0
  N  N2231  1  0.817100  0.020100  0.745800  1.0
  N  N2232  1  0.682900  0.979900  0.245800  1.0
  F  F2233  1  0.017300  0.033400  0.433600  1
  F  F2234  1  0.482700  0.966600  0.933600  1
  F  F2235  1  0.716600  0.267300  0.683600  1
  F  F2236  1  0.783400  0.732700  0.183600  1
  F  F2237  1  0.517300  0.533400  0.933600  1
  F  F2238  1  0.982700  0.466600  0.433600  1
  F  F2239  1  0.216600  0.767300  0.183600  1
  F  F2240  1  0.283400  0.232700  0.683600  1
  F  F2241  1  0.982700  0.966600  0.566400  1
  F  F2242  1  0.517300  0.033400  0.066400  1
  F  F2243  1  0.283400  0.732700  0.316400  1
  F  F2244  1  0.216600  0.267300  0.816400  1
  F  F2245  1  0.482700  0.466600  0.066400  1
  F  F2246  1  0.017300  0.533400  0.566400  1
  F  F2247  1  0.783400  0.232700  0.816400  1
  F  F2248  1  0.716600  0.767300  0.316400  1
  F  F2249  1  0.086600  0.973300  0.418700  1
  F  F2250  1  0.413400  0.026700  0.918700  1
  F  F2251  1  0.776700  0.336600  0.668700  1
  F  F2252  1  0.723300  0.663400  0.168700  1
  F  F2253  1  0.586600  0.473300  0.918700  1
  F  F2254  1  0.913400  0.526700  0.418700  1
  F  F2255  1  0.276700  0.836600  0.168700  1
  F  F2256  1  0.223300  0.163400  0.668700  1
  F  F2257  1  0.913400  0.026700  0.581300  1
  F  F2258  1  0.586600  0.973300  0.081300  1
  F  F2259  1  0.223300  0.663400  0.331300  1
  F  F2260  1  0.276700  0.336600  0.831300  1
  F  F2261  1  0.413400  0.526700  0.081300  1
  F  F2262  1  0.086600  0.473300  0.581300  1
  F  F2263  1  0.723300  0.163400  0.831300  1
  F  F2264  1  0.776700  0.836600  0.331300  1
  F  F2265  1  0.023800  0.950100  0.455550  1
  F  F2266  1  0.476200  0.049900  0.955550  1
  F  F2267  1  0.799900  0.273800  0.705550  1
  F  F2268  1  0.700100  0.726200  0.205550  1
  F  F2269  1  0.523800  0.450100  0.955550  1
  F  F2270  1  0.976200  0.549900  0.455550  1
  F  F2271  1  0.299900  0.773800  0.205550  1
  F  F2272  1  0.200100  0.226200  0.705550  1
  F  F2273  1  0.976200  0.049900  0.544450  1
  F  F2274  1  0.523800  0.950100  0.044450  1
  F  F2275  1  0.200100  0.726200  0.294450  1
  F  F2276  1  0.299900  0.273800  0.794450  1
  F  F2277  1  0.476200  0.549900  0.044450  1
  F  F2278  1  0.023800  0.450100  0.544450  1
  F  F2279  1  0.700100  0.226200  0.794450  1
  F  F2280  1  0.799900  0.773800  0.294450  1
  F  F2281  1  0.021000  0.906800  0.409640  1
  F  F2282  1  0.479000  0.093200  0.909640  1
  F  F2283  1  0.843200  0.271000  0.659640  1
  F  F2284  1  0.656800  0.729000  0.159640  1
  F  F2285  1  0.521000  0.406800  0.909640  1
  F  F2286  1  0.979000  0.593200  0.409640  1
  F  F2287  1  0.343200  0.771000  0.159640  1
  F  F2288  1  0.156800  0.229000  0.659640  1
  F  F2289  1  0.979000  0.093200  0.590360  1
  F  F2290  1  0.521000  0.906800  0.090360  1
  F  F2291  1  0.156800  0.729000  0.340360  1
  F  F2292  1  0.343200  0.271000  0.840360  1
  F  F2293  1  0.479000  0.593200  0.090360  1
  F  F2294  1  0.021000  0.406800  0.590360  1
  F  F2295  1  0.656800  0.229000  0.840360  1
  F  F2296  1  0.843200  0.771000  0.340360  1
  F  F2297  1  0.950800  0.967400  0.424450  1
  F  F2298  1  0.549200  0.032600  0.924450  1
  F  F2299  1  0.782600  0.200800  0.674450  1
  F  F2300  1  0.717400  0.799200  0.174450  1
  F  F2301  1  0.450800  0.467400  0.924450  1
  F  F2302  1  0.049200  0.532600  0.424450  1
  F  F2303  1  0.282600  0.700800  0.174450  1
  F  F2304  1  0.217400  0.299200  0.674450  1
  F  F2305  1  0.049200  0.032600  0.575550  1
  F  F2306  1  0.450800  0.967400  0.075550  1
  F  F2307  1  0.217400  0.799200  0.325550  1
  F  F2308  1  0.282600  0.200800  0.825550  1
  F  F2309  1  0.549200  0.532600  0.075550  1
  F  F2310  1  0.950800  0.467400  0.575550  1
  F  F2311  1  0.717400  0.299200  0.825550  1
  F  F2312  1  0.782600  0.700800  0.325550  1
  F  F2313  1  0.012100  0.994000  0.388180  1
  F  F2314  1  0.487900  0.006000  0.888180  1
  F  F2315  1  0.756000  0.262100  0.638180  1
  F  F2316  1  0.744000  0.737900  0.138180  1
  F  F2317  1  0.512100  0.494000  0.888180  1
  F  F2318  1  0.987900  0.506000  0.388180  1
  F  F2319  1  0.256000  0.762100  0.138180  1
  F  F2320  1  0.244000  0.237900  0.638180  1
  F  F2321  1  0.987900  0.006000  0.611820  1
  F  F2322  1  0.512100  0.994000  0.111820  1
  F  F2323  1  0.244000  0.737900  0.361820  1
  F  F2324  1  0.256000  0.262100  0.861820  1
  F  F2325  1  0.487900  0.506000  0.111820  1
  F  F2326  1  0.012100  0.494000  0.611820  1
  F  F2327  1  0.744000  0.237900  0.861820  1
  F  F2328  1  0.756000  0.762100  0.361820  1
  F  F2329  1  0.207300  0.901800  0.449700  1
  F  F2330  1  0.292700  0.098200  0.949700  1
  F  F2331  1  0.848200  0.457300  0.699700  1
  F  F2332  1  0.651800  0.542700  0.199700  1
  F  F2333  1  0.707300  0.401800  0.949700  1
  F  F2334  1  0.792700  0.598200  0.449700  1
  F  F2335  1  0.348200  0.957300  0.199700  1
  F  F2336  1  0.151800  0.042700  0.699700  1
  F  F2337  1  0.792700  0.098200  0.550300  1
  F  F2338  1  0.707300  0.901800  0.050300  1
  F  F2339  1  0.151800  0.542700  0.300300  1
  F  F2340  1  0.348200  0.457300  0.800300  1
  F  F2341  1  0.292700  0.598200  0.050300  1
  F  F2342  1  0.207300  0.401800  0.550300  1
  F  F2343  1  0.651800  0.042700  0.800300  1
  F  F2344  1  0.848200  0.957300  0.300300  1
  F  F2345  1  0.248600  0.809600  0.432600  1
  F  F2346  1  0.251400  0.190400  0.932600  1
  F  F2347  1  0.940400  0.498600  0.682600  1
  F  F2348  1  0.559600  0.501400  0.182600  1
  F  F2349  1  0.748600  0.309600  0.932600  1
  F  F2350  1  0.751400  0.690400  0.432600  1
  F  F2351  1  0.440400  0.998600  0.182600  1
  F  F2352  1  0.059600  0.001400  0.682600  1
  F  F2353  1  0.751400  0.190400  0.567400  1
  F  F2354  1  0.748600  0.809600  0.067400  1
  F  F2355  1  0.059600  0.501400  0.317400  1
  F  F2356  1  0.440400  0.498600  0.817400  1
  F  F2357  1  0.251400  0.690400  0.067400  1
  F  F2358  1  0.248600  0.309600  0.567400  1
  F  F2359  1  0.559600  0.001400  0.817400  1
  F  F2360  1  0.940400  0.998600  0.317400  1
  F  F2361  1  0.265200  0.893500  0.410400  1
  F  F2362  1  0.234800  0.106500  0.910400  1
  F  F2363  1  0.856500  0.515200  0.660400  1
  F  F2364  1  0.643500  0.484800  0.160400  1
  F  F2365  1  0.765200  0.393500  0.910400  1
  F  F2366  1  0.734800  0.606500  0.410400  1
  F  F2367  1  0.356500  0.015200  0.160400  1
  F  F2368  1  0.143500  0.984800  0.660400  1
  F  F2369  1  0.734800  0.106500  0.589600  1
  F  F2370  1  0.765200  0.893500  0.089600  1
  F  F2371  1  0.143500  0.484800  0.339600  1
  F  F2372  1  0.356500  0.515200  0.839600  1
  F  F2373  1  0.234800  0.606500  0.089600  1
  F  F2374  1  0.265200  0.393500  0.589600  1
  F  F2375  1  0.643500  0.984800  0.839600  1
  F  F2376  1  0.856500  0.015200  0.339600  1
  F  F2377  1  0.335700  0.854200  0.438900  1
  F  F2378  1  0.164300  0.145800  0.938900  1
  F  F2379  1  0.895800  0.585700  0.688900  1
  F  F2380  1  0.604200  0.414300  0.188900  1
  F  F2381  1  0.835700  0.354200  0.938900  1
  F  F2382  1  0.664300  0.645800  0.438900  1
  F  F2383  1  0.395800  0.085700  0.188900  1
  F  F2384  1  0.104200  0.914300  0.688900  1
  F  F2385  1  0.664300  0.145800  0.561100  1
  F  F2386  1  0.835700  0.854200  0.061100  1
  F  F2387  1  0.104200  0.414300  0.311100  1
  F  F2388  1  0.395800  0.585700  0.811100  1
  F  F2389  1  0.164300  0.645800  0.061100  1
  F  F2390  1  0.335700  0.354200  0.561100  1
  F  F2391  1  0.604200  0.914300  0.811100  1
  F  F2392  1  0.895800  0.085700  0.311100  1
  F  F2393  1  0.298800  0.939500  0.451900  1
  F  F2394  1  0.201200  0.060500  0.951900  1
  F  F2395  1  0.810500  0.548800  0.701900  1
  F  F2396  1  0.689500  0.451200  0.201900  1
  F  F2397  1  0.798800  0.439500  0.951900  1
  F  F2398  1  0.701200  0.560500  0.451900  1
  F  F2399  1  0.310500  0.048800  0.201900  1
  F  F2400  1  0.189500  0.951200  0.701900  1
  F  F2401  1  0.701200  0.060500  0.548100  1
  F  F2402  1  0.798800  0.939500  0.048100  1
  F  F2403  1  0.189500  0.451200  0.298100  1
  F  F2404  1  0.310500  0.548800  0.798100  1
  F  F2405  1  0.201200  0.560500  0.048100  1
  F  F2406  1  0.298800  0.439500  0.548100  1
  F  F2407  1  0.689500  0.951200  0.798100  1
  F  F2408  1  0.810500  0.048800  0.298100  1
  F  F2409  1  0.286600  0.877000  0.485800  1
  F  F2410  1  0.213400  0.123000  0.985800  1
  F  F2411  1  0.873000  0.536600  0.735800  1
  F  F2412  1  0.627000  0.463400  0.235800  1
  F  F2413  1  0.786600  0.377000  0.985800  1
  F  F2414  1  0.713400  0.623000  0.485800  1
  F  F2415  1  0.373000  0.036600  0.235800  1
  F  F2416  1  0.127000  0.963400  0.735800  1
  F  F2417  1  0.713400  0.123000  0.514200  1
  F  F2418  1  0.786600  0.877000  0.014200  1
  F  F2419  1  0.127000  0.463400  0.264200  1
  F  F2420  1  0.373000  0.536600  0.764200  1
  F  F2421  1  0.213400  0.623000  0.014200  1
  F  F2422  1  0.286600  0.377000  0.514200  1
  F  F2423  1  0.627000  0.963400  0.764200  1
  F  F2424  1  0.873000  0.036600  0.264200  1
  F  F2425  1  0.500000  0.750000  0.360600  1
  F  F2426  1  0.000000  0.250000  0.860600  1
  F  F2427  1  0.000000  0.750000  0.610600  1
  F  F2428  1  0.500000  0.250000  0.110600  1
  F  F2429  1  0.500000  0.250000  0.639400  1
  F  F2430  1  0.000000  0.750000  0.139400  1
  F  F2431  1  0.000000  0.250000  0.389400  1
  F  F2432  1  0.500000  0.750000  0.889400  1
  F  F2433  1  0.496400  0.708300  0.303300  1
  F  F2434  1  0.003600  0.291700  0.803300  1
  F  F2435  1  0.041700  0.746400  0.553300  1
  F  F2436  1  0.458300  0.253600  0.053300  1
  F  F2437  1  0.996400  0.208300  0.803300  1
  F  F2438  1  0.503600  0.791700  0.303300  1
  F  F2439  1  0.541700  0.246400  0.053300  1
  F  F2440  1  0.958300  0.753600  0.553300  1
  F  F2441  1  0.503600  0.291700  0.696700  1
  F  F2442  1  0.996400  0.708300  0.196700  1
  F  F2443  1  0.958300  0.253600  0.446700  1
  F  F2444  1  0.541700  0.746400  0.946700  1
  F  F2445  1  0.003600  0.791700  0.196700  1
  F  F2446  1  0.496400  0.208300  0.696700  1
  F  F2447  1  0.458300  0.753600  0.946700  1
  F  F2448  1  0.041700  0.246400  0.446700  1
  F  F2449  1  0.460100  0.695600  0.332900  1
  F  F2450  1  0.039900  0.304400  0.832900  1
  F  F2451  1  0.054400  0.710100  0.582900  1
  F  F2452  1  0.445600  0.289900  0.082900  1
  F  F2453  1  0.960100  0.195600  0.832900  1
  F  F2454  1  0.539900  0.804400  0.332900  1
  F  F2455  1  0.554400  0.210100  0.082900  1
  F  F2456  1  0.945600  0.789900  0.582900  1
  F  F2457  1  0.539900  0.304400  0.667100  1
  F  F2458  1  0.960100  0.695600  0.167100  1
  F  F2459  1  0.945600  0.289900  0.417100  1
  F  F2460  1  0.554400  0.710100  0.917100  1
  F  F2461  1  0.039900  0.804400  0.167100  1
  F  F2462  1  0.460100  0.195600  0.667100  1
  F  F2463  1  0.445600  0.789900  0.917100  1
  F  F2464  1  0.054400  0.210100  0.417100  1
  F  F2465  1  0.435100  0.765700  0.327800  1.0
  F  F2466  1  0.064900  0.234300  0.827800  1.0
  F  F2467  1  0.984300  0.685100  0.577800  1.0
  F  F2468  1  0.515700  0.314900  0.077800  1.0
  F  F2469  1  0.935100  0.265700  0.827800  1.0
  F  F2470  1  0.564900  0.734300  0.327800  1.0
  F  F2471  1  0.484300  0.185100  0.077800  1.0
  F  F2472  1  0.015700  0.814900  0.577800  1.0
  F  F2473  1  0.564900  0.234300  0.672200  1.0
  F  F2474  1  0.935100  0.765700  0.172200  1.0
  F  F2475  1  0.015700  0.314900  0.422200  1.0
  F  F2476  1  0.484300  0.685100  0.922200  1.0
  F  F2477  1  0.064900  0.734300  0.172200  1.0
  F  F2478  1  0.435100  0.265700  0.672200  1.0
  F  F2479  1  0.515700  0.814900  0.922200  1.0
  F  F2480  1  0.984300  0.185100  0.422200  1.0
