
#######################################################################
#
#                 Cambridge Crystallographic Data Centre
#                                CCDC 
#
#######################################################################
#
# If this CIF has been generated from an entry in the Cambridge 
# Structural Database, then it will include bibliographic, chemical, 
# crystal, experimental, refinement or atomic coordinate data resulting 
# from the CCDC's data processing and validation procedures.
#
#######################################################################

data_SAYGUX
_chemical_formula_moiety         
'C204 H144 Fe4 N24 8+,3.333(C2 F6 N1 O4 S2 1-),10(C6 H6),4.667(As1 F6 1-)'
_chemical_name_systematic        
"hexakis(\m-N,N'-[naphthalene-2,6-diyldi(4,1-phenylene)]bis[1-(pyridin-2-yl)methanimine])-tetra-iron(ii)  bis[(trifluoromethyl)sulfonyl]azanide hexafluoro-arsenic benzene solvate"
_symmetry_cell_setting           monoclinic
_symmetry_space_group_name_H-M   'C 2/c'
_symmetry_Int_Tables_number      15
_space_group_name_Hall           '-C 2yn'
loop_
_symmetry_equiv_pos_site_id
_symmetry_equiv_pos_as_xyz
1 x,y,z
2 -x,y,1/2-z
3 1/2+x,1/2+y,z
4 1/2-x,1/2+y,1/2-z
5 -x,-y,-z
6 x,-y,1/2+z
7 1/2-x,1/2-y,-z
8 1/2+x,1/2-y,1/2+z
_cell_length_a                   42.0550(17)
_cell_length_b                   16.8720(7)
_cell_length_c                   42.2649(18)
_cell_angle_alpha                90
_cell_angle_beta                 98.2840(10)
_cell_angle_gamma                90
_cell_volume                     29676.2
_exptl_crystal_colour            purple
_exptl_crystal_description       block
_cell_formula_units_Z            4
loop_
_atom_site_label
_atom_site_type_symbol
_atom_site_fract_x
_atom_site_fract_y
_atom_site_fract_z
Fe1 Fe 0.27903(5) -0.07792(13) 0.17393(5)
Fe2 Fe 0.46153(5) 0.74443(10) 0.46510(4)
N1 N 0.2792(2) -0.1887(6) 0.1908(2)
N2 N 0.3002(2) -0.0592(6) 0.2178(2)
N3 N 0.4288(2) 0.7283(5) 0.4266(2)
N4 N 0.4502(2) 0.8561(5) 0.4559(2)
C1 C 0.2689(3) -0.2553(8) 0.1747(3)
H1 H 0.2610 -0.2513 0.1525
C2 C 0.2693(3) -0.3279(8) 0.1889(3)
H2 H 0.2621 -0.3735 0.1768
C3 C 0.2805(3) -0.3342(9) 0.2210(3)
H3 H 0.2814 -0.3843 0.2314
C4 C 0.2904(3) -0.2662(8) 0.2381(3)
H4 H 0.2978 -0.2691 0.2604
C5 C 0.2895(3) -0.1957(8) 0.2227(3)
C6 C 0.3009(3) -0.1206(8) 0.2367(3)
H5 H 0.3086 -0.1161 0.2589
C7 C 0.3115(3) 0.0152(7) 0.2325(3)
C8 C 0.3394(3) 0.0480(7) 0.2258(3)
H6 H 0.3507 0.0245 0.2103
C9 C 0.3514(3) 0.1163(7) 0.2420(3)
H7 H 0.3713 0.1373 0.2378
C10 C 0.3351(3) 0.1545(7) 0.2638(3)
C11 C 0.3057(3) 0.1228(9) 0.2685(3)
H8 H 0.2934 0.1488 0.2826
C12 C 0.2940(3) 0.0541(8) 0.2531(3)
H9 H 0.2738 0.0335 0.2567
C13 C 0.3488(3) 0.2274(7) 0.2809(3)
C14 C 0.3443(3) 0.2392(7) 0.3115(3)
H10 H 0.3323 0.2018 0.3217
C15 C 0.3575(3) 0.3082(7) 0.3287(3)
C16 C 0.3524(3) 0.3224(7) 0.3601(3)
H11 H 0.3405 0.2860 0.3708
C17 C 0.3651(3) 0.3903(7) 0.3754(3)
H12 H 0.3614 0.4003 0.3967
C18 C 0.3831(3) 0.4447(7) 0.3604(3)
C19 C 0.3887(3) 0.4310(7) 0.3301(3)
H13 H 0.4010 0.4678 0.3200
C20 C 0.3762(3) 0.3616(7) 0.3132(3)
C21 C 0.3810(3) 0.3489(8) 0.2811(3)
H14 H 0.3933 0.3849 0.2704
C22 C 0.3674(3) 0.2831(7) 0.2660(3)
H15 H 0.3704 0.2739 0.2445
C23 C 0.3953(3) 0.5184(6) 0.3787(3)
C24 C 0.3785(3) 0.5537(7) 0.4004(3)
H16 H 0.3590 0.5303 0.4047
C25 C 0.3893(3) 0.6225(7) 0.4162(3)
H17 H 0.3771 0.6464 0.4309
C26 C 0.4171(3) 0.6556(6) 0.4108(2)
C27 C 0.4362(3) 0.6192(7) 0.3901(3)
H18 H 0.4566 0.6400 0.3874
C28 C 0.4241(3) 0.5522(7) 0.3739(3)
H19 H 0.4360 0.5286 0.3589
C29 C 0.4128(3) 0.7904(6) 0.4174(3)
H20 H 0.3942 0.7888 0.4017
C30 C 0.4251(3) 0.8654(6) 0.4330(3)
C31 C 0.4124(3) 0.9384(7) 0.4236(3)
H21 H 0.3943 0.9428 0.4075
C32 C 0.4270(4) 1.0052(8) 0.4383(3)
H22 H 0.4189 1.0567 0.4327
C33 C 0.4528(3) 0.9955(7) 0.4607(3)
H23 H 0.4635 1.0407 0.4705
C34 C 0.4639(3) 0.9211(6) 0.4695(3)
H24 H 0.4818 0.9159 0.4858
N5 N 0.4255(2) 0.7304(5) 0.49063(19)
N6 N 0.4648(2) 0.6283(5) 0.47287(19)
N7 N 0.7233(2) 0.0356(7) 0.3375(2)
N8 N 0.7614(2) -0.0513(7) 0.3095(2)
C35 C 0.4064(3) 0.7854(7) 0.5014(3)
H25 H 0.4105 0.8395 0.4971
C36 C 0.3820(3) 0.7690(8) 0.5177(3)
H26 H 0.3704 0.8105 0.5260
C37 C 0.3744(3) 0.6916(7) 0.5222(3)
H27 H 0.3564 0.6783 0.5324
C38 C 0.3931(3) 0.6334(7) 0.5118(3)
H28 H 0.3888 0.5791 0.5155
C39 C 0.4179(3) 0.6542(6) 0.4961(3)
C40 C 0.4411(3) 0.5993(7) 0.4856(3)
H29 H 0.4388 0.5437 0.4881
C41 C 0.4872(2) 0.5745(6) 0.4620(2)
C42 C 0.4766(3) 0.5126(6) 0.4417(2)
H30 H 0.4544 0.5015 0.4364
C43 C 0.4993(2) 0.4674(6) 0.4293(3)
H31 H 0.4922 0.4242 0.4157
C44 C 0.5317(2) 0.4822(6) 0.4357(3)
C45 C 0.5419(3) 0.5423(6) 0.4576(2)
H32 H 0.5642 0.5520 0.4635
C46 C 0.5201(2) 0.5870(6) 0.4707(3)
H33 H 0.5274 0.6270 0.4859
C47 C 0.5559(3) 0.4369(6) 0.4211(3)
C48 C 0.5528(3) 0.3581(6) 0.4160(3)
H34 H 0.5338 0.3325 0.4203
C49 C 0.5772(3) 0.3116(6) 0.4044(3)
C50 C 0.5760(3) 0.2292(6) 0.4028(3)
H35 H 0.5576 0.2018 0.4078
C51 C 0.6014(3) 0.1872(7) 0.3939(3)
H36 H 0.6007 0.1310 0.3934
C52 C 0.6284(3) 0.2268(7) 0.3855(3)
C53 C 0.6295(3) 0.3061(7) 0.3866(3)
H37 H 0.6473 0.3326 0.3799
C54 C 0.6049(3) 0.3516(6) 0.3975(3)
C55 C 0.6075(3) 0.4349(7) 0.4014(3)
H38 H 0.6257 0.4621 0.3960
C56 C 0.5839(3) 0.4754(7) 0.4128(3)
H39 H 0.5860 0.5311 0.4155
C57 C 0.6546(3) 0.1782(7) 0.3740(3)
C58 C 0.6673(3) 0.1131(7) 0.3908(3)
H40 H 0.6603 0.1003 0.4106
C59 C 0.6900(3) 0.0659(8) 0.3795(3)
H41 H 0.6983 0.0204 0.3911
C60 C 0.7006(3) 0.0855(7) 0.3510(3)
C61 C 0.6885(3) 0.1535(7) 0.3339(3)
H42 H 0.6956 0.1674 0.3143
C62 C 0.6662(3) 0.1988(7) 0.3460(3)
H43 H 0.6584 0.2456 0.3350
C63 C 0.7476(3) 0.0723(9) 0.3311(3)
H44 H 0.7514 0.1266 0.3363
C64 C 0.7703(3) 0.0238(9) 0.3144(3)
C65 C 0.7972(3) 0.0560(9) 0.3046(4)
H45 H 0.8027 0.1101 0.3084
C66 C 0.8159(3) 0.0064(10) 0.2887(4)
H46 H 0.8355 0.0246 0.2826
C67 C 0.8057(3) -0.0685(9) 0.2823(4)
H47 H 0.8170 -0.1012 0.2695
C68 C 0.7792(3) -0.0989(9) 0.2938(3)
H48 H 0.7736 -0.1531 0.2907
N9 N 0.2577(2) -0.1071(6) 0.1310(2)
N10 N 0.3178(2) -0.1060(7) 0.1541(2)
C69 C 0.2264(3) -0.1052(9) 0.1191(3)
H49 H 0.2117 -0.0889 0.1329
C70 C 0.2143(3) -0.1253(10) 0.0883(3)
H50 H 0.1919 -0.1220 0.0811
C71 C 0.2352(3) -0.1506(11) 0.0678(4)
H51 H 0.2273 -0.1662 0.0465
C72 C 0.2681(3) -0.1526(10) 0.0790(3)
H52 H 0.2832 -0.1672 0.0654
C73 C 0.2781(3) -0.1325(9) 0.1109(3)
C74 C 0.3113(3) -0.1299(8) 0.1253(3)
H53 H 0.3279 -0.1455 0.1136
C75 C 0.3509(3) -0.0996(7) 0.1683(3)
C76 C 0.3619(3) -0.1374(8) 0.1964(3)
H54 H 0.3477 -0.1695 0.2065
C77 C 0.3935(3) -0.1285(8) 0.2100(3)
H55 H 0.4011 -0.1555 0.2294
C78 C 0.4146(3) -0.0808(8) 0.1959(3)
C79 C 0.4032(3) -0.0435(8) 0.1678(3)
H56 H 0.4173 -0.0106 0.1580
C80 C 0.3721(3) -0.0518(8) 0.1534(3)
H57 H 0.3648 -0.0260 0.1337
C81 C 0.4556(3) -0.0679(8) 0.2441(3)
H58 H 0.4385 -0.0674 0.2565
C82 C 0.4487(3) -0.0721(8) 0.2113(3)
C83 C 0.4734(3) -0.0668(8) 0.1929(3)
H59 H 0.4686 -0.0658 0.1703
C84 C 0.5054(3) -0.0630(7) 0.2076(3)
H60 H 0.5223 -0.0596 0.1949
C85 C 0.5123(3) -0.0641(8) 0.2404(3)
N11 N 0.4942(2) 0.7685(5) 0.5027(2)
N12 N 0.5003(2) 0.7579(5) 0.4432(2)
C86 C 0.4903(3) 0.7692(7) 0.5336(3)
H61 H 0.4692 0.7625 0.5389
C87 C 0.5153(3) 0.7792(7) 0.5582(3)
H62 H 0.5114 0.7801 0.5798
C88 C 0.5464(3) 0.7878(7) 0.5510(3)
H63 H 0.5641 0.7921 0.5677
C89 C 0.5512(3) 0.7902(7) 0.5191(3)
H64 H 0.5720 0.7988 0.5134
C90 C 0.5247(3) 0.7794(6) 0.4957(3)
C91 C 0.5261(3) 0.7738(7) 0.4619(3)
H65 H 0.5457 0.7818 0.4538
C92 C 0.5030(3) 0.7495(6) 0.4097(2)
C93 C 0.4830(3) 0.7924(7) 0.3872(3)
H66 H 0.4675 0.8276 0.3936
C94 C 0.4857(3) 0.7831(7) 0.3549(3)
H67 H 0.4719 0.8119 0.3392
C95 C 0.5086(3) 0.7322(7) 0.3455(3)
C96 C 0.5282(3) 0.6916(8) 0.3683(3)
H68 H 0.5440 0.6572 0.3619
C97 C 0.5260(3) 0.6986(7) 0.4004(3)
H69 H 0.5399 0.6693 0.4159
C98 C 0.5403(3) 0.7189(8) 0.2998(3)
H70 H 0.5593 0.7168 0.3150
C99 C 0.5104(3) 0.7229(8) 0.3105(3)
C100 C 0.4830(3) 0.7235(8) 0.2884(3)
H71 H 0.4626 0.7263 0.2956
C101 C 0.4842(3) 0.7202(8) 0.2551(3)
C102 C 0.4573(4) 0.7178(9) 0.2319(3)
H72 H 0.4366 0.7154 0.2384
N9A N 0.7423(2) -0.1071(6) 0.3690(2)
N10A N 0.6822(2) -0.1060(7) 0.3459(2)
C69A C 0.7736(3) -0.1052(9) 0.3809(3)
H49A H 0.7883 -0.0889 0.3671
C70A C 0.7857(3) -0.1253(10) 0.4117(3)
H50A H 0.8081 -0.1220 0.4189
C71A C 0.7648(3) -0.1506(11) 0.4322(4)
H51A H 0.7727 -0.1662 0.4535
C72A C 0.7319(3) -0.1526(10) 0.4210(3)
H52A H 0.7168 -0.1672 0.4346
C73A C 0.7219(3) -0.1325(9) 0.3891(3)
C74A C 0.6887(3) -0.1299(8) 0.3747(3)
H53A H 0.6721 -0.1455 0.3864
C75A C 0.6491(3) -0.0996(7) 0.3317(3)
C76A C 0.6381(3) -0.1374(8) 0.3036(3)
H54A H 0.6523 -0.1695 0.2935
C77A C 0.6065(3) -0.1285(8) 0.2900(3)
H55A H 0.5989 -0.1555 0.2706
C78A C 0.5854(3) -0.0808(8) 0.3041(3)
C79A C 0.5968(3) -0.0435(8) 0.3322(3)
H56A H 0.5827 -0.0106 0.3420
C80A C 0.6279(3) -0.0518(8) 0.3466(3)
H57A H 0.6352 -0.0260 0.3663
C81A C 0.5444(3) -0.0679(8) 0.2559(3)
H58A H 0.5615 -0.0674 0.2435
C82A C 0.5513(3) -0.0721(8) 0.2887(3)
C83A C 0.5266(3) -0.0668(8) 0.3071(3)
H59A H 0.5314 -0.0658 0.3297
C84A C 0.4946(3) -0.0630(7) 0.2924(3)
H60A H 0.4777 -0.0596 0.3051
C85A C 0.4877(3) -0.0641(8) 0.2596(3)
N11A N 0.5058(2) 0.7685(5) -0.0027(2)
N12A N 0.4997(2) 0.7579(5) 0.0568(2)
C86A C 0.5097(3) 0.7692(7) -0.0336(3)
H61A H 0.5308 0.7625 -0.0389
C87A C 0.4847(3) 0.7792(7) -0.0582(3)
H62A H 0.4886 0.7801 -0.0798
C88A C 0.4536(3) 0.7878(7) -0.0510(3)
H63A H 0.4359 0.7921 -0.0677
C89A C 0.4488(3) 0.7902(7) -0.0191(3)
H64A H 0.4280 0.7988 -0.0134
C90A C 0.4753(3) 0.7794(6) 0.0043(3)
C91A C 0.4739(3) 0.7738(7) 0.0381(3)
H65A H 0.4543 0.7818 0.0462
C92A C 0.4970(3) 0.7495(6) 0.0903(2)
C93A C 0.5170(3) 0.7924(7) 0.1128(3)
H66A H 0.5325 0.8276 0.1064
C94A C 0.5143(3) 0.7831(7) 0.1451(3)
H67A H 0.5281 0.8119 0.1608
C95A C 0.4914(3) 0.7322(7) 0.1545(3)
C96A C 0.4718(3) 0.6916(8) 0.1317(3)
H68A H 0.4560 0.6572 0.1381
C97A C 0.4740(3) 0.6986(7) 0.0996(3)
H69A H 0.4601 0.6693 0.0841
C98A C 0.4597(3) 0.7189(8) 0.2002(3)
H70A H 0.4407 0.7168 0.1850
C99A C 0.4896(3) 0.7229(8) 0.1895(3)
C100A C 0.5170(3) 0.7235(8) 0.2116(3)
H71A H 0.5374 0.7263 0.2044
C101A C 0.5158(3) 0.7202(8) 0.2449(3)
C102A C 0.5427(4) 0.7178(9) 0.2681(3)
H72A H 0.5634 0.7154 0.2616
Fe1A Fe 0.72097(5) -0.07792(13) 0.32607(5)
Fe2A Fe 0.53847(5) 0.74443(10) 0.03490(4)
N1A N 0.7208(2) -0.1887(6) 0.3092(2)
N2A N 0.6998(2) -0.0592(6) 0.2822(2)
N3A N 0.5712(2) 0.7283(5) 0.0734(2)
N4A N 0.5498(2) 0.8561(5) 0.0441(2)
C1A C 0.7311(3) -0.2553(8) 0.3253(3)
H1A H 0.7390 -0.2513 0.3475
C2A C 0.7307(3) -0.3279(8) 0.3111(3)
H2A H 0.7379 -0.3735 0.3232
C3A C 0.7195(3) -0.3342(9) 0.2790(3)
H3A H 0.7186 -0.3843 0.2686
C4A C 0.7096(3) -0.2662(8) 0.2619(3)
H4A H 0.7022 -0.2691 0.2396
C5A C 0.7105(3) -0.1957(8) 0.2773(3)
C6A C 0.6991(3) -0.1206(8) 0.2633(3)
H5A H 0.6914 -0.1161 0.2411
C7A C 0.6885(3) 0.0152(7) 0.2675(3)
C8A C 0.6606(3) 0.0480(7) 0.2742(3)
H6A H 0.6493 0.0245 0.2897
C9A C 0.6486(3) 0.1163(7) 0.2580(3)
H7A H 0.6287 0.1373 0.2622
C10A C 0.6649(3) 0.1545(7) 0.2362(3)
C11A C 0.6943(3) 0.1228(9) 0.2315(3)
H8A H 0.7066 0.1488 0.2174
C12A C 0.7060(3) 0.0541(8) 0.2469(3)
H9A H 0.7262 0.0335 0.2433
C13A C 0.6512(3) 0.2274(7) 0.2191(3)
C14A C 0.6557(3) 0.2392(7) 0.1885(3)
H10A H 0.6677 0.2018 0.1783
C15A C 0.6425(3) 0.3082(7) 0.1713(3)
C16A C 0.6476(3) 0.3224(7) 0.1399(3)
H11A H 0.6595 0.2860 0.1292
C17A C 0.6349(3) 0.3903(7) 0.1246(3)
H12A H 0.6386 0.4003 0.1033
C18A C 0.6169(3) 0.4447(7) 0.1396(3)
C19A C 0.6113(3) 0.4310(7) 0.1699(3)
H13A H 0.5990 0.4678 0.1800
C20A C 0.6238(3) 0.3616(7) 0.1868(3)
C21A C 0.6190(3) 0.3489(8) 0.2189(3)
H14A H 0.6067 0.3849 0.2296
C22A C 0.6326(3) 0.2831(7) 0.2340(3)
H15A H 0.6296 0.2739 0.2555
C23A C 0.6047(3) 0.5184(6) 0.1213(3)
C24A C 0.6215(3) 0.5537(7) 0.0996(3)
H16A H 0.6410 0.5303 0.0953
C25A C 0.6107(3) 0.6225(7) 0.0838(3)
H17A H 0.6229 0.6464 0.0691
C26A C 0.5829(3) 0.6556(6) 0.0892(2)
C27A C 0.5638(3) 0.6192(7) 0.1099(3)
H18A H 0.5434 0.6400 0.1126
C28A C 0.5759(3) 0.5522(7) 0.1261(3)
H19A H 0.5640 0.5286 0.1411
C29A C 0.5872(3) 0.7904(6) 0.0826(3)
H20A H 0.6058 0.7888 0.0983
C30A C 0.5749(3) 0.8654(6) 0.0670(3)
C31A C 0.5876(3) 0.9384(7) 0.0764(3)
H21A H 0.6057 0.9428 0.0925
C32A C 0.5730(4) 1.0052(8) 0.0617(3)
H22A H 0.5811 1.0567 0.0673
C33A C 0.5472(3) 0.9955(7) 0.0393(3)
H23A H 0.5365 1.0407 0.0295
C34A C 0.5361(3) 0.9211(6) 0.0305(3)
H24A H 0.5182 0.9159 0.0142
N5A N 0.5745(2) 0.7304(5) 0.00937(19)
N6A N 0.5352(2) 0.6283(5) 0.02713(19)
N7A N 0.2767(2) 0.0356(7) 0.1625(2)
N8A N 0.2386(2) -0.0513(7) 0.1905(2)
C35A C 0.5936(3) 0.7854(7) -0.0014(3)
H25A H 0.5895 0.8395 0.0029
C36A C 0.6180(3) 0.7690(8) -0.0177(3)
H26A H 0.6296 0.8105 -0.0260
C37A C 0.6256(3) 0.6916(7) -0.0222(3)
H27A H 0.6436 0.6783 -0.0324
C38A C 0.6069(3) 0.6334(7) -0.0118(3)
H28A H 0.6112 0.5791 -0.0155
C39A C 0.5821(3) 0.6542(6) 0.0039(3)
C40A C 0.5589(3) 0.5993(7) 0.0144(3)
H29A H 0.5612 0.5437 0.0119
C41A C 0.5128(2) 0.5745(6) 0.0380(2)
C42A C 0.5234(3) 0.5126(6) 0.0583(2)
H30A H 0.5456 0.5015 0.0636
C43A C 0.5007(2) 0.4674(6) 0.0707(3)
H31A H 0.5078 0.4242 0.0843
C44A C 0.4683(2) 0.4822(6) 0.0643(3)
C45A C 0.4581(3) 0.5423(6) 0.0424(2)
H32A H 0.4358 0.5520 0.0365
C46A C 0.4799(2) 0.5870(6) 0.0293(3)
H33A H 0.4726 0.6270 0.0141
C47A C 0.4441(3) 0.4369(6) 0.0789(3)
C48A C 0.4472(3) 0.3581(6) 0.0840(3)
H34A H 0.4662 0.3325 0.0797
C49A C 0.4228(3) 0.3116(6) 0.0956(3)
C50A C 0.4240(3) 0.2292(6) 0.0972(3)
H35A H 0.4424 0.2018 0.0922
C51A C 0.3986(3) 0.1872(7) 0.1061(3)
H36A H 0.3993 0.1310 0.1066
C52A C 0.3716(3) 0.2268(7) 0.1145(3)
C53A C 0.3705(3) 0.3061(7) 0.1134(3)
H37A H 0.3527 0.3326 0.1201
C54A C 0.3951(3) 0.3516(6) 0.1025(3)
C55A C 0.3925(3) 0.4349(7) 0.0986(3)
H38A H 0.3743 0.4621 0.1040
C56A C 0.4161(3) 0.4754(7) 0.0872(3)
H39A H 0.4140 0.5311 0.0845
C57A C 0.3454(3) 0.1782(7) 0.1260(3)
C58A C 0.3327(3) 0.1131(7) 0.1092(3)
H40A H 0.3397 0.1003 0.0894
C59A C 0.3100(3) 0.0659(8) 0.1205(3)
H41A H 0.3017 0.0204 0.1089
C60A C 0.2994(3) 0.0855(7) 0.1490(3)
C61A C 0.3115(3) 0.1535(7) 0.1661(3)
H42A H 0.3044 0.1674 0.1857
C62A C 0.3338(3) 0.1988(7) 0.1540(3)
H43A H 0.3416 0.2456 0.1650
C63A C 0.2524(3) 0.0723(9) 0.1689(3)
H44A H 0.2486 0.1266 0.1637
C64A C 0.2297(3) 0.0238(9) 0.1856(3)
C65A C 0.2028(3) 0.0560(9) 0.1954(4)
H45A H 0.1973 0.1101 0.1916
C66A C 0.1841(3) 0.0064(10) 0.2113(4)
H46A H 0.1645 0.0246 0.2174
C67A C 0.1943(3) -0.0685(9) 0.2177(4)
H47A H 0.1830 -0.1012 0.2305
C68A C 0.2208(3) -0.0989(9) 0.2062(3)
H48A H 0.2264 -0.1531 0.2093
C103 C 0.4337(4) 0.2897(8) 0.2247(4)
H73 H 0.4291 0.3447 0.2260
C104 C 0.4485(4) 0.2494(10) 0.2515(3)
H74 H 0.4540 0.2768 0.2712
C105 C 0.4552(4) 0.1690(10) 0.2495(3)
H75 H 0.4653 0.1415 0.2679
C106 C 0.4471(5) 0.1290(8) 0.2208(4)
H76 H 0.4517 0.0741 0.2194
C107 C 0.4323(4) 0.1693(10) 0.1939(3)
H77 H 0.4268 0.1420 0.1743
C108 C 0.4256(4) 0.2497(10) 0.1959(3)
H78 H 0.4155 0.2773 0.1775
C109 C 0.4694(3) 0.5061(11) 0.2957(4)
H79 H 0.4518 0.5357 0.2851
C110 C 0.4864(4) 0.5338(9) 0.3242(4)
H80 H 0.4804 0.5824 0.3330
C111 C 0.5121(4) 0.4904(12) 0.3397(3)
H81 H 0.5237 0.5094 0.3592
C112 C 0.5208(4) 0.4193(12) 0.3268(5)
H82 H 0.5384 0.3896 0.3374
C113 C 0.5038(5) 0.3915(10) 0.2983(5)
H83 H 0.5098 0.3429 0.2895
C114 C 0.4781(4) 0.4349(12) 0.2828(3)
H84 H 0.4665 0.4160 0.2633
C115 C 0.3671(5) 1.2922(12) 0.5808(4)
H85 H 0.3725 1.2778 0.5605
C116 C 0.3840(4) 1.2596(10) 0.6084(6)
H86 H 0.4009 1.2229 0.6070
C117 C 0.3763(5) 1.2808(12) 0.6382(4)
H87 H 0.3878 1.2585 0.6571
C118 C 0.3516(6) 1.3345(13) 0.6403(4)
H88 H 0.3463 1.3489 0.6606
C119 C 0.3347(5) 1.3671(12) 0.6126(6)
H89 H 0.3178 1.4038 0.6141
C120 C 0.3425(5) 1.3459(13) 0.5829(4)
H90 H 0.3309 1.3682 0.5640
C121 C 0.4918(3) 0.2346(11) 0.3478(3)
H91 H 0.5115 0.2549 0.3427
C122 C 0.4680(4) 0.2863(7) 0.3548(3)
H92 H 0.4715 0.3419 0.3545
C123 C 0.4391(3) 0.2566(10) 0.3622(3)
H93 H 0.4229 0.2920 0.3669
C124 C 0.4340(3) 0.1753(11) 0.3626(3)
H94 H 0.4143 0.1550 0.3676
C125 C 0.4578(5) 0.1236(7) 0.3556(4)
H95 H 0.4543 0.0680 0.3559
C126 C 0.4867(4) 0.1532(10) 0.3482(3)
H96 H 0.5029 0.1179 0.3435
C127 C 0.1531(3) 0.0048(11) 0.2945(4)
H97 H 0.1756 -0.0012 0.2944
C128 C 0.1362(4) 0.0631(10) 0.2759(4)
H98 H 0.1471 0.0970 0.2631
C129 C 0.1034(4) 0.0719(10) 0.2760(4)
H99 H 0.0918 0.1118 0.2633
C130 C 0.0874(3) 0.0223(11) 0.2948(4)
H100 H 0.0650 0.0283 0.2949
C131 C 0.1043(4) -0.0360(10) 0.3134(4)
H101 H 0.0934 -0.0699 0.3262
C132 C 0.1371(4) -0.0448(10) 0.3133(4)
H102 H 0.1487 -0.0847 0.3260
C133 C 0.2174(7) -0.2605(18) -0.0075(6)
H103 H 0.1950 -0.2691 -0.0132
C134 C 0.2378(7) -0.320(2) 0.0095(7)
H104 H 0.2290 -0.3680 0.0164
C135 C 0.2689(7) -0.3074(18) 0.0149(6)
H105 H 0.2824 -0.3483 0.0247
C133F C 0.2826(7) -0.2395(18) 0.0075(6)
H103F H 0.3050 -0.2309 0.0132
C134F C 0.2622(7) -0.180(2) -0.0095(7)
H104F H 0.2710 -0.1320 -0.0164
C135F C 0.2311(7) -0.1926(18) -0.0149(6)
H105F H 0.2176 -0.1517 -0.0247
As1 As 0.12400(4) -0.12586(10) 0.01789(4)
F1 F 0.1465(3) -0.0668(8) 0.0443(2)
F2 F 0.1011(3) -0.1815(6) -0.0090(2)
F3 F 0.1253(2) -0.0590(5) -0.0123(2)
F4 F 0.1208(3) -0.1916(6) 0.0474(2)
F5 F 0.1585(3) -0.1648(8) 0.0094(3)
F6 F 0.0898(2) -0.0849(7) 0.0262(2)
As2 As 0.24022(6) -0.13515(18) 0.30922(7)
F7 F 0.2819(3) -0.1231(11) 0.3075(4)
F8 F 0.2000(3) -0.1520(12) 0.3075(5)
F9 F 0.2314(4) -0.0450(8) 0.2901(4)
F10 F 0.2487(4) -0.2171(10) 0.3316(4)
F11 F 0.2388(4) -0.1828(10) 0.2727(3)
F12 F 0.2450(6) -0.0952(13) 0.3464(4)
S1 S 0.44437(10) 0.9967(2) 0.55352(9)
S2 S 0.38301(15) 1.0616(4) 0.55051(13)
N13 N 0.4075(2) 0.9914(7) 0.5580(3)
O1 O 0.4561(3) 1.0548(5) 0.5336(2)
O2 O 0.4530(3) 0.9161(5) 0.5475(3)
O3 O 0.3983(4) 1.1380(7) 0.5460(4)
O4 O 0.3589(3) 1.0607(8) 0.5706(3)
C136 C 0.4631(3) 1.0168(8) 0.5942(2)
C137 C 0.3622(4) 1.0418(13) 0.5102(3)
F13 F 0.4537(2) 1.0868(5) 0.6025(2)
F14 F 0.4944(2) 1.0164(6) 0.5952(2)
F15 F 0.4544(2) 0.9622(5) 0.61358(19)
F16 F 0.3828(3) 1.0404(11) 0.4898(3)
F17 F 0.3506(4) 0.9687(11) 0.5134(4)
F18 F 0.3401(4) 1.0931(11) 0.5026(3)
S3 S 0.39901(15) -0.1005(4) 0.33098(15)
S4 S 0.3733(3) -0.2302(6) 0.2920(2)
N14 N 0.4006(4) -0.1626(8) 0.3025(3)
O5 O 0.4307(3) -0.0748(9) 0.3455(3)
O6 O 0.3768(3) -0.1226(10) 0.3518(3)
O7 O 0.3754(5) -0.2538(12) 0.2602(3)
O8 O 0.3430(3) -0.2063(11) 0.3003(4)
C138 C 0.3814(4) -0.0118(8) 0.3107(4)
C139 C 0.3858(5) -0.3149(10) 0.3177(4)
F19 F 0.3800(4) 0.0457(8) 0.3313(4)
F20 F 0.3525(3) -0.0269(9) 0.2956(4)
F21 F 0.3997(4) 0.0135(8) 0.2903(4)
F22 F 0.4131(5) -0.3395(12) 0.3100(4)
F23 F 0.3870(4) -0.2905(10) 0.3461(3)
F24 F 0.3636(4) -0.3673(9) 0.3091(4)
F25? F 0.2762(5) -0.0982(17) 0.3295(8)
F26? F 0.2054(5) -0.1827(14) 0.2883(6)
F27? F 0.2488(7) -0.1135(16) 0.2729(4)
F28? F 0.2244(6) -0.147(2) 0.3446(5)
F29? F 0.2574(5) -0.2277(10) 0.3116(6)
F30? F 0.2188(5) -0.0530(12) 0.3149(7)
As3? As 0.3805(2) -0.2414(7) 0.30375(19)
F31? F 0.4123(4) -0.1908(14) 0.2943(5)
F32? F 0.3484(6) -0.2929(17) 0.3110(7)
F33? F 0.3593(6) -0.1560(13) 0.3020(7)
F34? F 0.3925(6) -0.2266(17) 0.3427(4)
F35? F 0.3671(7) -0.257(2) 0.2647(5)
F36? F 0.4044(14) -0.322(3) 0.3043(8)
loop_
_geom_bond_atom_site_label_1
_geom_bond_atom_site_label_2
_geom_bond_site_symmetry_1
_geom_bond_site_symmetry_2
Fe1 N1 1_555 1_555
Fe2 N3 1_555 1_555
N1 C1 1_555 1_555
N2 Fe1 1_555 1_555
N3 C26 1_555 1_555
N4 Fe2 1_555 1_555
C1 H1 1_555 1_555
C2 C1 1_555 1_555
H2 C2 1_555 1_555
C3 C2 1_555 1_555
H3 C3 1_555 1_555
C4 C3 1_555 1_555
H4 C4 1_555 1_555
C5 N1 1_555 1_555
C6 N2 1_555 1_555
H5 C6 1_555 1_555
C7 N2 1_555 1_555
C8 C7 1_555 1_555
H6 C8 1_555 1_555
C9 C8 1_555 1_555
H7 C9 1_555 1_555
C10 C9 1_555 1_555
C11 C10 1_555 1_555
H8 C11 1_555 1_555
C12 C7 1_555 1_555
H9 C12 1_555 1_555
C13 C10 1_555 1_555
C14 C13 1_555 1_555
H10 C14 1_555 1_555
C15 C14 1_555 1_555
C16 C15 1_555 1_555
H11 C16 1_555 1_555
C17 C16 1_555 1_555
H12 C17 1_555 1_555
C18 C17 1_555 1_555
C19 C18 1_555 1_555
H13 C19 1_555 1_555
C20 C15 1_555 1_555
C21 C20 1_555 1_555
H14 C21 1_555 1_555
C22 C13 1_555 1_555
H15 C22 1_555 1_555
C23 C18 1_555 1_555
C24 C23 1_555 1_555
H16 C24 1_555 1_555
C25 C24 1_555 1_555
H17 C25 1_555 1_555
C26 C25 1_555 1_555
C27 C26 1_555 1_555
H18 C27 1_555 1_555
C28 C23 1_555 1_555
H19 C28 1_555 1_555
C29 N3 1_555 1_555
H20 C29 1_555 1_555
C30 N4 1_555 1_555
C31 C30 1_555 1_555
H21 C31 1_555 1_555
C32 C31 1_555 1_555
H22 C32 1_555 1_555
C33 C32 1_555 1_555
H23 C33 1_555 1_555
C34 N4 1_555 1_555
H24 C34 1_555 1_555
N5 Fe2 1_555 1_555
N6 Fe2 1_555 1_555
N7 C60 1_555 1_555
N8 C64 1_555 1_555
C35 N5 1_555 1_555
H25 C35 1_555 1_555
C36 C35 1_555 1_555
H26 C36 1_555 1_555
C37 C36 1_555 1_555
H27 C37 1_555 1_555
C38 C37 1_555 1_555
H28 C38 1_555 1_555
C39 N5 1_555 1_555
C40 N6 1_555 1_555
H29 C40 1_555 1_555
C41 N6 1_555 1_555
C42 C41 1_555 1_555
H30 C42 1_555 1_555
C43 C42 1_555 1_555
H31 C43 1_555 1_555
C44 C43 1_555 1_555
C45 C44 1_555 1_555
H32 C45 1_555 1_555
C46 C41 1_555 1_555
H33 C46 1_555 1_555
C47 C44 1_555 1_555
C48 C47 1_555 1_555
H34 C48 1_555 1_555
C49 C48 1_555 1_555
C50 C49 1_555 1_555
H35 C50 1_555 1_555
C51 C50 1_555 1_555
H36 C51 1_555 1_555
C52 C51 1_555 1_555
C53 C52 1_555 1_555
H37 C53 1_555 1_555
C54 C49 1_555 1_555
C55 C54 1_555 1_555
H38 C55 1_555 1_555
C56 C47 1_555 1_555
H39 C56 1_555 1_555
C57 C52 1_555 1_555
C58 C57 1_555 1_555
H40 C58 1_555 1_555
C59 C58 1_555 1_555
H41 C59 1_555 1_555
C60 C59 1_555 1_555
C61 C60 1_555 1_555
H42 C61 1_555 1_555
C62 C57 1_555 1_555
H43 C62 1_555 1_555
C63 N7 1_555 1_555
H44 C63 1_555 1_555
C64 C63 1_555 1_555
C65 C64 1_555 1_555
H45 C65 1_555 1_555
C66 C65 1_555 1_555
H46 C66 1_555 1_555
C67 C66 1_555 1_555
H47 C67 1_555 1_555
C68 N8 1_555 1_555
H48 C68 1_555 1_555
N9 Fe1 1_555 1_555
N10 Fe1 1_555 1_555
C69 N9 1_555 1_555
H49 C69 1_555 1_555
C70 C69 1_555 1_555
H50 C70 1_555 1_555
C71 C70 1_555 1_555
H51 C71 1_555 1_555
C72 C71 1_555 1_555
H52 C72 1_555 1_555
C73 N9 1_555 1_555
C74 N10 1_555 1_555
H53 C74 1_555 1_555
C75 N10 1_555 1_555
C76 C75 1_555 1_555
H54 C76 1_555 1_555
C77 C76 1_555 1_555
H55 C77 1_555 1_555
C78 C77 1_555 1_555
C79 C78 1_555 1_555
H56 C79 1_555 1_555
C80 C75 1_555 1_555
H57 C80 1_555 1_555
C81 H58 1_555 1_555
C82 C78 1_555 1_555
C83 C82 1_555 1_555
H59 C83 1_555 1_555
C84 C83 1_555 1_555
H60 C84 1_555 1_555
C85 C84 1_555 1_555
N11 Fe2 1_555 1_555
N12 Fe2 1_555 1_555
C86 N11 1_555 1_555
H61 C86 1_555 1_555
C87 C86 1_555 1_555
H62 C87 1_555 1_555
C88 C87 1_555 1_555
H63 C88 1_555 1_555
C89 C88 1_555 1_555
H64 C89 1_555 1_555
C90 N11 1_555 1_555
C91 N12 1_555 1_555
H65 C91 1_555 1_555
C92 N12 1_555 1_555
C93 C92 1_555 1_555
H66 C93 1_555 1_555
C94 C93 1_555 1_555
H67 C94 1_555 1_555
C95 C94 1_555 1_555
C96 C95 1_555 1_555
H68 C96 1_555 1_555
C97 C92 1_555 1_555
H69 C97 1_555 1_555
C98 H70 1_555 1_555
C99 C95 1_555 1_555
C100 C99 1_555 1_555
H71 C100 1_555 1_555
C101 C100 1_555 1_555
C102 C101 1_555 1_555
H72 C102 1_555 1_555
C103 H73 1_555 1_555
C104 C103 1_555 1_555
H74 C104 1_555 1_555
C105 C104 1_555 1_555
H75 C105 1_555 1_555
C106 C105 1_555 1_555
H76 C106 1_555 1_555
C107 C106 1_555 1_555
H77 C107 1_555 1_555
C108 C103 1_555 1_555
H78 C108 1_555 1_555
C109 H79 1_555 1_555
C110 C109 1_555 1_555
H80 C110 1_555 1_555
C111 C110 1_555 1_555
H81 C111 1_555 1_555
C112 C111 1_555 1_555
H82 C112 1_555 1_555
C113 C112 1_555 1_555
H83 C113 1_555 1_555
C114 C109 1_555 1_555
H84 C114 1_555 1_555
C115 H85 1_555 1_555
C116 C115 1_555 1_555
H86 C116 1_555 1_555
C117 C116 1_555 1_555
H87 C117 1_555 1_555
C118 C117 1_555 1_555
H88 C118 1_555 1_555
C119 C118 1_555 1_555
H89 C119 1_555 1_555
C120 C115 1_555 1_555
H90 C120 1_555 1_555
C121 H91 1_555 1_555
C122 C121 1_555 1_555
H92 C122 1_555 1_555
C123 C122 1_555 1_555
H93 C123 1_555 1_555
C124 C123 1_555 1_555
H94 C124 1_555 1_555
C125 C124 1_555 1_555
H95 C125 1_555 1_555
C126 C121 1_555 1_555
H96 C126 1_555 1_555
C127 H97 1_555 1_555
C128 C127 1_555 1_555
H98 C128 1_555 1_555
C129 C128 1_555 1_555
H99 C129 1_555 1_555
C130 C129 1_555 1_555
H100 C130 1_555 1_555
C131 C130 1_555 1_555
H101 C131 1_555 1_555
C132 C127 1_555 1_555
H102 C132 1_555 1_555
C133 H103 1_555 1_555
C134 C133 1_555 1_555
H104 C134 1_555 1_555
C135 C134 1_555 1_555
H105 C135 1_555 1_555
As1 F1 1_555 1_555
F2 As1 1_555 1_555
F3 As1 1_555 1_555
F4 As1 1_555 1_555
F5 As1 1_555 1_555
F6 As1 1_555 1_555
As2 F7 1_555 1_555
F8 As2 1_555 1_555
F9 As2 1_555 1_555
F10 As2 1_555 1_555
F11 As2 1_555 1_555
F12 As2 1_555 1_555
S1 N13 1_555 1_555
S2 N13 1_555 1_555
O1 S1 1_555 1_555
O2 S1 1_555 1_555
O3 S2 1_555 1_555
O4 S2 1_555 1_555
C136 S1 1_555 1_555
C137 S2 1_555 1_555
F13 C136 1_555 1_555
F14 C136 1_555 1_555
F15 C136 1_555 1_555
F16 C137 1_555 1_555
F17 C137 1_555 1_555
F18 C137 1_555 1_555
S3 N14 1_555 1_555
S4 N14 1_555 1_555
O5 S3 1_555 1_555
O6 S3 1_555 1_555
O7 S4 1_555 1_555
O8 S4 1_555 1_555
C138 S3 1_555 1_555
C139 S4 1_555 1_555
F19 C138 1_555 1_555
F20 C138 1_555 1_555
F21 C138 1_555 1_555
F22 C139 1_555 1_555
F23 C139 1_555 1_555
F24 C139 1_555 1_555
N9A C69A 1_555 1_555
N10A C74A 1_555 1_555
C69A H49A 1_555 1_555
C70A C69A 1_555 1_555
H50A C70A 1_555 1_555
C71A C70A 1_555 1_555
H51A C71A 1_555 1_555
C72A C71A 1_555 1_555
H52A C72A 1_555 1_555
C73A N9A 1_555 1_555
C74A C73A 1_555 1_555
H53A C74A 1_555 1_555
C75A N10A 1_555 1_555
C76A C75A 1_555 1_555
H54A C76A 1_555 1_555
C77A C76A 1_555 1_555
H55A C77A 1_555 1_555
C78A C77A 1_555 1_555
C79A C78A 1_555 1_555
H56A C79A 1_555 1_555
C80A C75A 1_555 1_555
H57A C80A 1_555 1_555
C81A C85 1_555 1_555
H58A C81A 1_555 1_555
C82A C78A 1_555 1_555
C83A C82A 1_555 1_555
H59A C83A 1_555 1_555
C84A C83A 1_555 1_555
H60A C84A 1_555 1_555
C85A C81 1_555 1_555
N11A C86A 1_555 1_555
N12A C91A 1_555 1_555
C86A H61A 1_555 1_555
C87A C86A 1_555 1_555
H62A C87A 1_555 1_555
C88A C87A 1_555 1_555
H63A C88A 1_555 1_555
C89A C88A 1_555 1_555
H64A C89A 1_555 1_555
C90A N11A 1_555 1_555
C91A C90A 1_555 1_555
H65A C91A 1_555 1_555
C92A N12A 1_555 1_555
C93A C92A 1_555 1_555
H66A C93A 1_555 1_555
C94A C93A 1_555 1_555
H67A C94A 1_555 1_555
C95A C94A 1_555 1_555
C96A C95A 1_555 1_555
H68A C96A 1_555 1_555
C97A C92A 1_555 1_555
H69A C97A 1_555 1_555
C98A C102 1_555 1_555
H70A C98A 1_555 1_555
C99A C95A 1_555 1_555
C100A C99A 1_555 1_555
H71A C100A 1_555 1_555
C101A C101 1_555 1_555
C102A C98 1_555 1_555
H72A C102A 1_555 1_555
Fe1A N7 1_555 1_555
Fe2A N11A 1_555 1_555
N1A Fe1A 1_555 1_555
N2A Fe1A 1_555 1_555
N3A Fe2A 1_555 1_555
N4A Fe2A 1_555 1_555
C1A N1A 1_555 1_555
H1A C1A 1_555 1_555
C2A C1A 1_555 1_555
H2A C2A 1_555 1_555
C3A C2A 1_555 1_555
H3A C3A 1_555 1_555
C4A C3A 1_555 1_555
H4A C4A 1_555 1_555
C5A N1A 1_555 1_555
C6A N2A 1_555 1_555
H5A C6A 1_555 1_555
C7A N2A 1_555 1_555
C8A C7A 1_555 1_555
H6A C8A 1_555 1_555
C9A C8A 1_555 1_555
H7A C9A 1_555 1_555
C10A C9A 1_555 1_555
C11A C10A 1_555 1_555
H8A C11A 1_555 1_555
C12A C7A 1_555 1_555
H9A C12A 1_555 1_555
C13A C10A 1_555 1_555
C14A C13A 1_555 1_555
H10A C14A 1_555 1_555
C15A C14A 1_555 1_555
C16A C15A 1_555 1_555
H11A C16A 1_555 1_555
C17A C16A 1_555 1_555
H12A C17A 1_555 1_555
C18A C17A 1_555 1_555
C19A C18A 1_555 1_555
H13A C19A 1_555 1_555
C20A C15A 1_555 1_555
C21A C20A 1_555 1_555
H14A C21A 1_555 1_555
C22A C13A 1_555 1_555
H15A C22A 1_555 1_555
C23A C18A 1_555 1_555
C24A C23A 1_555 1_555
H16A C24A 1_555 1_555
C25A C24A 1_555 1_555
H17A C25A 1_555 1_555
C26A N3A 1_555 1_555
C27A C26A 1_555 1_555
H18A C27A 1_555 1_555
C28A C23A 1_555 1_555
H19A C28A 1_555 1_555
C29A N3A 1_555 1_555
H20A C29A 1_555 1_555
C30A N4A 1_555 1_555
C31A C30A 1_555 1_555
H21A C31A 1_555 1_555
C32A C31A 1_555 1_555
H22A C32A 1_555 1_555
C33A C32A 1_555 1_555
H23A C33A 1_555 1_555
C34A N4A 1_555 1_555
H24A C34A 1_555 1_555
N5A Fe2A 1_555 1_555
N6A Fe2A 1_555 1_555
N7A Fe1 1_555 1_555
N8A Fe1 1_555 1_555
C35A N5A 1_555 1_555
H25A C35A 1_555 1_555
C36A C35A 1_555 1_555
H26A C36A 1_555 1_555
C37A C36A 1_555 1_555
H27A C37A 1_555 1_555
C38A C37A 1_555 1_555
H28A C38A 1_555 1_555
C39A N5A 1_555 1_555
C40A N6A 1_555 1_555
H29A C40A 1_555 1_555
C41A N6A 1_555 1_555
C42A C41A 1_555 1_555
H30A C42A 1_555 1_555
C43A C42A 1_555 1_555
H31A C43A 1_555 1_555
C44A C43A 1_555 1_555
C45A C44A 1_555 1_555
H32A C45A 1_555 1_555
C46A C41A 1_555 1_555
H33A C46A 1_555 1_555
C47A C44A 1_555 1_555
C48A C47A 1_555 1_555
H34A C48A 1_555 1_555
C49A C48A 1_555 1_555
C50A C49A 1_555 1_555
H35A C50A 1_555 1_555
C51A C50A 1_555 1_555
H36A C51A 1_555 1_555
C52A C51A 1_555 1_555
C53A C52A 1_555 1_555
H37A C53A 1_555 1_555
C54A C49A 1_555 1_555
C55A C54A 1_555 1_555
H38A C55A 1_555 1_555
C56A C47A 1_555 1_555
H39A C56A 1_555 1_555
C57A C52A 1_555 1_555
C58A C57A 1_555 1_555
H40A C58A 1_555 1_555
C59A C58A 1_555 1_555
H41A C59A 1_555 1_555
C60A N7A 1_555 1_555
C61A C60A 1_555 1_555
H42A C61A 1_555 1_555
C62A C57A 1_555 1_555
H43A C62A 1_555 1_555
C63A N7A 1_555 1_555
H44A C63A 1_555 1_555
C64A N8A 1_555 1_555
C65A C64A 1_555 1_555
H45A C65A 1_555 1_555
C66A C65A 1_555 1_555
H46A C66A 1_555 1_555
C67A C66A 1_555 1_555
H47A C67A 1_555 1_555
C68A N8A 1_555 1_555
H48A C68A 1_555 1_555
C133F C135 1_555 1_555
H103F C133F 1_555 1_555
C134F C133F 1_555 1_555
H104F C134F 1_555 1_555
C135F C133 1_555 1_555
H105F C135F 1_555 1_555
C4 C5 1_555 1_555
C5 C6 1_555 1_555
C11 C12 1_555 1_555
C19 C20 1_555 1_555
C21 C22 1_555 1_555
C27 C28 1_555 1_555
C29 C30 1_555 1_555
C33 C34 1_555 1_555
N8 Fe1A 1_555 1_555
C38 C39 1_555 1_555
C39 C40 1_555 1_555
C45 C46 1_555 1_555
C53 C54 1_555 1_555
C55 C56 1_555 1_555
C61 C62 1_555 1_555
C67 C68 1_555 1_555
C72 C73 1_555 1_555
C73 C74 1_555 1_555
C79 C80 1_555 1_555
C81 C82 1_555 1_555
C85 C85A 1_555 1_555
C89 C90 1_555 1_555
C90 C91 1_555 1_555
C96 C97 1_555 1_555
C98 C99 1_555 1_555
C107 C108 1_555 1_555
C113 C114 1_555 1_555
C119 C120 1_555 1_555
C125 C126 1_555 1_555
C131 C132 1_555 1_555
N9A Fe1A 1_555 1_555
N10A Fe1A 1_555 1_555
C72A C73A 1_555 1_555
C79A C80A 1_555 1_555
C81A C82A 1_555 1_555
C84A C85A 1_555 1_555
N12A Fe2A 1_555 1_555
C89A C90A 1_555 1_555
C96A C97A 1_555 1_555
C98A C99A 1_555 1_555
C100A C101A 1_555 1_555
C101A C102A 1_555 1_555
C4A C5A 1_555 1_555
C5A C6A 1_555 1_555
C11A C12A 1_555 1_555
C19A C20A 1_555 1_555
C21A C22A 1_555 1_555
C25A C26A 1_555 1_555
C27A C28A 1_555 1_555
C29A C30A 1_555 1_555
C33A C34A 1_555 1_555
C38A C39A 1_555 1_555
C39A C40A 1_555 1_555
C45A C46A 1_555 1_555
C53A C54A 1_555 1_555
C55A C56A 1_555 1_555
C59A C60A 1_555 1_555
C61A C62A 1_555 1_555
C63A C64A 1_555 1_555
C67A C68A 1_555 1_555
C134F C135F 1_555 1_555

#END
