
#######################################################################
#
#                 Cambridge Crystallographic Data Centre
#                                CCDC 
#
#######################################################################
#
# If this CIF has been generated from an entry in the Cambridge 
# Structural Database, then it will include bibliographic, chemical, 
# crystal, experimental, refinement or atomic coordinate data resulting 
# from the CCDC's data processing and validation procedures.
#
#######################################################################

data_SAYHIM
_chemical_formula_moiety         
'C228 H156 Fe4 N24 8+,7(C2 F6 N1 O4 S2 1-),F6 P1 1-,0.5(C2 H3 N1)'
_chemical_name_systematic        
"hexakis(\m-N,N'-[anthracene-2,6-diyldi(4,1-phenylene)]bis[1-(pyridin-2-yl)methanimine])-tetra-iron(ii) heptakis(bis[(trifluoromethyl)sulfonyl]azanide) hexafluorophosphate acetonitrile solvate"
_symmetry_cell_setting           rhombohedral
_symmetry_space_group_name_H-M   'R -3'
_symmetry_Int_Tables_number      148
_space_group_name_Hall           '-R 3'
loop_
_symmetry_equiv_pos_site_id
_symmetry_equiv_pos_as_xyz
1 x,y,z
2 -y,x-y,z
3 -x+y,-x,z
4 2/3+x,1/3+y,1/3+z
5 2/3-y,1/3+x-y,1/3+z
6 2/3-x+y,1/3-x,1/3+z
7 1/3+x,2/3+y,2/3+z
8 1/3-y,2/3+x-y,2/3+z
9 1/3-x+y,2/3-x,2/3+z
10 -x,-y,-z
11 y,-x+y,-z
12 x-y,x,-z
13 1/3-x,2/3-y,2/3-z
14 1/3+y,2/3-x+y,2/3-z
15 1/3+x-y,2/3+x,2/3-z
16 2/3-x,1/3-y,1/3-z
17 2/3+y,1/3-x+y,1/3-z
18 2/3+x-y,1/3+x,1/3-z
_cell_length_a                   80.9755(12)
_cell_length_b                   80.9755(12)
_cell_length_c                   30.8130(7)
_cell_angle_alpha                90
_cell_angle_beta                 90
_cell_angle_gamma                120
_cell_volume                     174973
_exptl_crystal_colour            purple
_exptl_crystal_description       block
_cell_formula_units_Z            18
loop_
_atom_site_label
_atom_site_type_symbol
_atom_site_fract_x
_atom_site_fract_y
_atom_site_fract_z
Fe1 Fe 0.09813(3) 0.17039(3) 0.09504(6)
Fe2 Fe 0.09289(3) 0.16929(3) 0.77065(6)
Fe3 Fe 0.28493(3) 0.42213(3) 0.44497(7)
Fe4 Fe 0.33051(3) 0.19086(3) 0.43383(7)
N1 N 0.07050(15) 0.15373(18) 0.0989(3)
N2 N 0.09740(15) 0.15213(16) 0.1394(3)
N3 N 0.30405(14) 0.17080(16) 0.4522(4)
N4 N 0.33672(17) 0.17988(17) 0.4872(4)
C1 C 0.05685(19) 0.1554(2) 0.0776(4)
H1 H 0.0603 0.1664 0.0603
C2 C 0.0376(2) 0.1412(3) 0.0803(5)
H2 H 0.0284 0.1422 0.0632
C3 C 0.0319(2) 0.1257(3) 0.1081(6)
H3 H 0.0188 0.1165 0.1113
C4 C 0.0459(2) 0.1239(2) 0.1314(5)
H4 H 0.0425 0.1132 0.1499
C5 C 0.0652(2) 0.1384(2) 0.1265(5)
C6 C 0.08032(19) 0.1377(2) 0.1475(4)
H5 H 0.0783 0.1275 0.1662
C7 C 0.11371(17) 0.15208(19) 0.1582(4)
C8 C 0.12148(19) 0.14216(19) 0.1378(4)
H6 H 0.1158 0.1350 0.1122
C9 C 0.13788(19) 0.14289(19) 0.1555(4)
H7 H 0.1437 0.1368 0.1407
C10 C 0.14577(17) 0.15242(19) 0.1945(4)
C11 C 0.13670(18) 0.1613(2) 0.2157(4)
H8 H 0.1411 0.1671 0.2432
C12 C 0.12139(19) 0.1615(2) 0.1963(4)
H9 H 0.1161 0.1683 0.2099
C13 C 0.16299(18) 0.15257(19) 0.2141(4)
C14 C 0.17760(19) 0.1540(2) 0.1859(4)
H10 H 0.1762 0.1543 0.1553
C15 C 0.1938(2) 0.1551(2) 0.2030(4)
H11 H 0.2038 0.1568 0.1840
C16 C 0.19604(19) 0.1537(2) 0.2486(4)
C17 C 0.21245(19) 0.1551(2) 0.2668(4)
H12 H 0.2226 0.1568 0.2484
C18 C 0.21427(18) 0.1539(2) 0.3117(4)
C19 C 0.23147(18) 0.1562(2) 0.3307(4)
H13 H 0.2418 0.1583 0.3124
C20 C 0.23336(18) 0.1556(2) 0.3748(4)
C21 C 0.2172(2) 0.1509(3) 0.4019(4)
H14 H 0.2180 0.1487 0.4320
C22 C 0.2006(2) 0.1495(2) 0.3856(4)
H15 H 0.1905 0.1475 0.4045
C23 C 0.19889(18) 0.1511(2) 0.3390(4)
C24 C 0.18221(19) 0.1500(2) 0.3218(4)
H16 H 0.1720 0.1480 0.3402
C25 C 0.18116(18) 0.1519(2) 0.2764(4)
C26 C 0.16446(18) 0.1513(2) 0.2575(4)
H17 H 0.1544 0.1499 0.2758
C27 C 0.25199(19) 0.1596(2) 0.3940(4)
C28 C 0.2566(2) 0.1660(2) 0.4375(4)
H18 H 0.2475 0.1673 0.4543
C29 C 0.27380(19) 0.1704(2) 0.4566(4)
H19 H 0.2771 0.1761 0.4845
C30 C 0.28622(18) 0.1663(2) 0.4338(4)
C31 C 0.28171(18) 0.15870(19) 0.3915(4)
H20 H 0.2902 0.1560 0.3760
C32 C 0.26465(19) 0.1553(2) 0.3726(4)
H21 H 0.2615 0.1499 0.3443
C33 C 0.3032(2) 0.1616(2) 0.4870(4)
H22 H 0.2913 0.1522 0.4988
C34 C 0.3212(2) 0.1661(2) 0.5072(5)
C35 C 0.3226(2) 0.1571(2) 0.5454(4)
H23 H 0.3115 0.1478 0.5601
C36 C 0.3405(2) 0.1621(2) 0.5605(5)
H24 H 0.3419 0.1560 0.5853
C37 C 0.3565(2) 0.1763(2) 0.5393(5)
H25 H 0.3689 0.1801 0.5499
C38 C 0.3542(2) 0.1851(2) 0.5019(5)
H26 H 0.3651 0.1947 0.4871
N5 N 0.10075(15) 0.15427(16) 0.0497(3)
N6 N 0.12669(14) 0.18412(14) 0.0894(3)
N7 N 0.28957(15) 0.41050(14) 0.3921(3)
N8 N 0.31211(15) 0.44074(15) 0.4357(4)
C39 C 0.08672(19) 0.1381(2) 0.0313(4)
H27 H 0.0738 0.1344 0.0374
C40 C 0.0905(2) 0.1267(2) 0.0035(4)
H28 H 0.0803 0.1157 -0.0095
C41 C 0.1094(2) 0.1316(2) -0.0049(4)
H29 H 0.1122 0.1235 -0.0218
C42 C 0.1242(2) 0.1487(2) 0.0121(4)
H30 H 0.1372 0.1531 0.0046
C43 C 0.11931(19) 0.15920(19) 0.0405(4)
C44 C 0.13282(18) 0.17615(18) 0.0613(4)
H31 H 0.1460 0.1817 0.0552
C45 C 0.14127(17) 0.20098(18) 0.1113(4)
C46 C 0.14121(18) 0.21809(18) 0.1078(4)
H32 H 0.1317 0.2187 0.0912
C47 C 0.15535(17) 0.23430(18) 0.1290(4)
H33 H 0.1558 0.2461 0.1249
C48 C 0.16877(17) 0.23366(18) 0.1556(4)
C49 C 0.16803(18) 0.21595(18) 0.1587(4)
H34 H 0.1772 0.2150 0.1762
C50 C 0.15465(17) 0.20015(18) 0.1376(4)
H35 H 0.1545 0.1884 0.1410
C51 C 0.18392(17) 0.25145(18) 0.1785(4)
C52 C 0.20277(17) 0.25466(19) 0.1815(4)
H36 H 0.2055 0.2453 0.1706
C53 C 0.21726(18) 0.27110(18) 0.2000(5)
H37 H 0.2299 0.2731 0.2004
C54 C 0.21347(17) 0.28510(18) 0.2184(4)
C55 C 0.22769(17) 0.30199(17) 0.2375(4)
H38 H 0.2405 0.3046 0.2373
C56 C 0.22342(17) 0.31503(17) 0.2569(4)
C57 C 0.23753(18) 0.33171(18) 0.2800(4)
H39 H 0.2503 0.3341 0.2812
C58 C 0.23331(17) 0.34402(17) 0.3000(4)
C59 C 0.21401(17) 0.34014(18) 0.2980(4)
H40 H 0.2109 0.3488 0.3112
C60 C 0.19973(18) 0.32424(18) 0.2774(4)
H41 H 0.1871 0.3220 0.2770
C61 C 0.20421(17) 0.31104(18) 0.2567(4)
C62 C 0.18983(17) 0.29444(17) 0.2359(4)
H42 H 0.1771 0.2921 0.2350
C63 C 0.19422(17) 0.28156(18) 0.2166(4)
C64 C 0.17953(17) 0.26379(18) 0.1960(4)
H43 H 0.1667 0.2611 0.1953
C65 C 0.24860(17) 0.36148(17) 0.3220(4)
C66 C 0.24702(17) 0.37808(17) 0.3259(4)
H44 H 0.2365 0.3783 0.3128
C67 C 0.26046(17) 0.39405(18) 0.3484(4)
H45 H 0.2593 0.4051 0.3496
C68 C 0.27556(17) 0.39384(17) 0.3691(4)
C69 C 0.27772(18) 0.37753(17) 0.3651(4)
H46 H 0.2884 0.3775 0.3779
C70 C 0.26415(18) 0.36163(18) 0.3424(4)
H47 H 0.2655 0.3506 0.3407
C71 C 0.30737(18) 0.41801(18) 0.3830(4)
H48 H 0.3116 0.4126 0.3615
C72 C 0.32062(19) 0.43478(19) 0.4062(4)
C73 C 0.34055(18) 0.4448(2) 0.3980(5)
H49 H 0.3458 0.4406 0.3761
C74 C 0.3520(2) 0.4605(2) 0.4219(6)
H50 H 0.3654 0.4669 0.4187
C75 C 0.3433(2) 0.4670(2) 0.4516(5)
H51 H 0.3508 0.4785 0.4671
C76 C 0.32365(19) 0.4564(2) 0.4582(5)
H52 H 0.3182 0.4605 0.4800
N9 N 0.09659(15) 0.18750(17) 0.0523(3)
N10 N 0.09703(14) 0.18822(17) 0.1364(3)
N11 N 0.09514(17) 0.14968(18) 0.7342(3)
N12 N 0.09840(17) 0.15557(18) 0.8174(3)
C77 C 0.09673(19) 0.1866(2) 0.0084(4)
H53 H 0.0978 0.1767 -0.0056
C78 C 0.0953(2) 0.2005(2) -0.0160(4)
H54 H 0.0958 0.1998 -0.0468
C79 C 0.0934(2) 0.2154(2) 0.0021(4)
H55 H 0.0926 0.2247 -0.0152
C80 C 0.0926(2) 0.2156(2) 0.0473(4)
H56 H 0.0909 0.2249 0.0617
C81 C 0.0946(2) 0.2016(2) 0.0720(4)
C82 C 0.09509(19) 0.2017(2) 0.1179(4)
H57 H 0.0941 0.2110 0.1344
C83 C 0.09792(18) 0.18784(19) 0.1834(3)
C84 C 0.11434(18) 0.20230(19) 0.2043(4)
H58 H 0.1242 0.2125 0.1884
C85 C 0.11539(19) 0.2009(2) 0.2495(4)
H59 H 0.1264 0.2105 0.2641
C86 C 0.10131(18) 0.18641(19) 0.2739(3)
C87 C 0.08479(18) 0.17301(19) 0.2514(4)
H60 H 0.0745 0.1631 0.2672
C88 C 0.08326(18) 0.17398(19) 0.2074(4)
H61 H 0.0719 0.1649 0.1933
C89 C 0.1033(2) 0.1848(2) 0.3220(4)
C90 C 0.1156(2) 0.2016(2) 0.3463(4)
H62 H 0.1225 0.2134 0.3316
C91 C 0.1175(2) 0.2008(2) 0.3906(4)
H63 H 0.1253 0.2122 0.4061
C92 C 0.1080(2) 0.1832(2) 0.4136(4)
C93 C 0.1086(3) 0.1817(2) 0.4589(4)
H64 H 0.1156 0.1930 0.4756
C94 C 0.0991(3) 0.1639(2) 0.4800(4)
C95 C 0.0999(2) 0.1626(2) 0.5267(4)
H65 H 0.1086 0.1736 0.5426
C96 C 0.0889(3) 0.1462(2) 0.5484(4)
C97 C 0.0772(3) 0.1292(2) 0.5242(5)
H66 H 0.0701 0.1174 0.5389
C98 C 0.0762(4) 0.1300(2) 0.4797(5)
H67 H 0.0689 0.1185 0.4639
C99 C 0.0861(3) 0.1478(2) 0.4566(4)
C100 C 0.0845(3) 0.1489(2) 0.4110(4)
H68 H 0.0761 0.1378 0.3950
C101 C 0.0954(3) 0.1664(2) 0.3893(4)
C102 C 0.0934(3) 0.1684(2) 0.3427(4)
H69 H 0.0845 0.1575 0.3267
C103 C 0.0904(2) 0.1455(2) 0.5971(4)
C104 C 0.1083(2) 0.1565(2) 0.6173(4)
H70 H 0.1194 0.1630 0.6000
C105 C 0.1098(2) 0.1578(2) 0.6619(4)
H71 H 0.1219 0.1654 0.6750
C106 C 0.0936(2) 0.1478(2) 0.6880(4)
C107 C 0.0758(2) 0.1360(2) 0.6684(4)
H72 H 0.0648 0.1287 0.6859
C108 C 0.0743(2) 0.1350(2) 0.6235(4)
H73 H 0.0623 0.1271 0.6104
C109 C 0.0967(2) 0.1373(2) 0.7571(4)
H74 H 0.0964 0.1266 0.7437
C110 C 0.0991(2) 0.1399(2) 0.8037(4)
C111 C 0.1002(3) 0.1268(2) 0.8327(4)
H75 H 0.1004 0.1159 0.8221
C112 C 0.1010(3) 0.1304(3) 0.8764(4)
H76 H 0.1010 0.1217 0.8969
C113 C 0.1017(3) 0.1474(3) 0.8905(4)
H77 H 0.1032 0.1506 0.9204
C114 C 0.1003(2) 0.1593(2) 0.8601(4)
H78 H 0.1006 0.1705 0.8700
N13 N 0.09229(17) 0.18817(17) 0.8115(3)
N14 N 0.12026(15) 0.18965(18) 0.7685(3)
N15 N 0.33216(16) 0.21293(17) 0.4682(3)
N16 N 0.35758(16) 0.21049(17) 0.4212(4)
C115 C 0.0770(2) 0.1864(2) 0.8333(4)
H79 H 0.0648 0.1754 0.8292
C116 C 0.0790(2) 0.2009(2) 0.8620(5)
H80 H 0.0682 0.1991 0.8780
C117 C 0.0966(2) 0.2179(2) 0.8674(5)
H81 H 0.0976 0.2281 0.8847
C118 C 0.1124(2) 0.2191(2) 0.8464(4)
H82 H 0.1247 0.2297 0.8512
C119 C 0.1100(2) 0.2042(2) 0.8176(4)
C120 C 0.1249(2) 0.2042(2) 0.7942(4)
H83 H 0.1377 0.2142 0.7970
C121 C 0.1354(2) 0.1896(2) 0.7430(4)
C122 C 0.1444(2) 0.2037(2) 0.7108(5)
H84 H 0.1409 0.2132 0.7063
C123 C 0.1585(2) 0.2032(2) 0.6856(5)
H85 H 0.1645 0.2126 0.6637
C124 C 0.1641(2) 0.1898(2) 0.6913(4)
C125 C 0.1555(2) 0.1771(2) 0.7263(4)
H86 H 0.1601 0.1687 0.7336
C126 C 0.1409(2) 0.1763(2) 0.7502(4)
H87 H 0.1347 0.1667 0.7716
C127 C 0.1793(2) 0.1889(2) 0.6636(5)
C128 C 0.1772(2) 0.1710(2) 0.6516(5)
H88 H 0.1659 0.1596 0.6594
C129 C 0.1912(2) 0.1697(2) 0.6290(5)
H89 H 0.1893 0.1576 0.6205
C130 C 0.2086(2) 0.1866(2) 0.6182(5)
C131 C 0.2240(2) 0.1861(2) 0.5985(5)
H90 H 0.2228 0.1741 0.5917
C132 C 0.24080(19) 0.2029(2) 0.5889(5)
C133 C 0.25692(19) 0.2028(2) 0.5692(4)
H91 H 0.2562 0.1909 0.5643
C134 C 0.27298(19) 0.2187(2) 0.5575(4)
C135 C 0.2743(2) 0.2366(2) 0.5669(5)
H92 H 0.2857 0.2481 0.5599
C136 C 0.2596(2) 0.2378(2) 0.5856(6)
H93 H 0.2609 0.2499 0.5912
C137 C 0.2422(2) 0.2208(2) 0.5970(5)
C138 C 0.2264(2) 0.2215(2) 0.6158(5)
H94 H 0.2271 0.2334 0.6206
C139 C 0.2101(2) 0.2046(2) 0.6270(5)
C140 C 0.1943(2) 0.2050(2) 0.6501(5)
H95 H 0.1949 0.2168 0.6553
C141 C 0.28874(19) 0.2175(2) 0.5352(4)
C142 C 0.2998(2) 0.2308(2) 0.5030(4)
H96 H 0.2977 0.2411 0.4960
C143 C 0.3138(2) 0.2289(2) 0.4813(5)
H97 H 0.3208 0.2376 0.4588
C144 C 0.31789(18) 0.2145(2) 0.4916(4)
C145 C 0.30801(19) 0.20177(19) 0.5258(4)
H98 H 0.3110 0.1923 0.5344
C146 C 0.2936(2) 0.2037(2) 0.5467(4)
H99 H 0.2868 0.1951 0.5697
C147 C 0.34861(19) 0.2283(2) 0.4646(5)
H100 H 0.3511 0.2397 0.4792
C148 C 0.36314(19) 0.2280(2) 0.4378(4)
C149 C 0.3811(2) 0.2442(2) 0.4291(5)
H101 H 0.3846 0.2561 0.4423
C150 C 0.3935(2) 0.2424(2) 0.4010(5)
H102 H 0.4055 0.2531 0.3936
C151 C 0.3877(2) 0.2244(2) 0.3839(5)
H103 H 0.3960 0.2226 0.3652
C152 C 0.3699(2) 0.2090(2) 0.3941(5)
H104 H 0.3662 0.1970 0.3814
N17 N 0.06492(16) 0.15104(16) 0.7750(3)
N18 N 0.08418(16) 0.17843(15) 0.7210(3)
N19 N 0.25732(16) 0.40416(14) 0.4489(3)
N20 N 0.27551(17) 0.43682(16) 0.4103(4)
C153 C 0.0555(2) 0.1368(2) 0.8054(5)
H105 H 0.0623 0.1354 0.8290
C154 C 0.0358(2) 0.1243(2) 0.8013(5)
H106 H 0.0293 0.1145 0.8221
C155 C 0.0254(2) 0.1262(2) 0.7672(5)
H107 H 0.0120 0.1180 0.7654
C156 C 0.0351(2) 0.1402(2) 0.7354(5)
H108 H 0.0285 0.1411 0.7109
C157 C 0.0547(2) 0.1528(2) 0.7409(4)
C158 C 0.0658(2) 0.1682(2) 0.7131(5)
H109 H 0.0601 0.1711 0.6894
C159 C 0.09542(18) 0.19388(18) 0.6914(4)
C160 C 0.1055(2) 0.21249(19) 0.7075(4)
H110 H 0.1044 0.2150 0.7372
C161 C 0.11708(19) 0.22718(19) 0.6797(4)
H111 H 0.1237 0.2399 0.6906
C162 C 0.11939(18) 0.22401(18) 0.6360(4)
C163 C 0.10752(19) 0.20574(18) 0.6205(4)
H112 H 0.1073 0.2034 0.5903
C164 C 0.09596(18) 0.19082(19) 0.6479(4)
H113 H 0.0883 0.1784 0.6363
C165 C 0.13327(18) 0.23997(18) 0.6068(4)
C166 C 0.12845(18) 0.24104(18) 0.5627(4)
H114 H 0.1166 0.2316 0.5512
C167 C 0.14116(18) 0.25594(18) 0.5367(4)
H115 H 0.1377 0.2565 0.5075
C168 C 0.15909(18) 0.27036(19) 0.5520(4)
C169 C 0.17186(18) 0.28605(18) 0.5277(4)
H116 H 0.1686 0.2871 0.4986
C170 C 0.18944(19) 0.30036(19) 0.5441(4)
C171 C 0.20159(18) 0.31747(18) 0.5200(4)
H117 H 0.1981 0.3187 0.4913
C172 C 0.2178(2) 0.33181(18) 0.5368(4)
C173 C 0.2238(2) 0.3295(2) 0.5794(4)
H118 H 0.2356 0.3391 0.5908
C174 C 0.2124(2) 0.3135(2) 0.6037(5)
H119 H 0.2164 0.3122 0.6319
C175 C 0.19458(19) 0.29857(19) 0.5866(4)
C176 C 0.18163(19) 0.28301(19) 0.6123(4)
H120 H 0.1849 0.2821 0.6414
C177 C 0.16410(19) 0.26898(19) 0.5960(4)
C178 C 0.15032(18) 0.25306(18) 0.6221(4)
H121 H 0.1535 0.2519 0.6512
C179 C 0.22853(19) 0.35040(18) 0.5130(4)
C180 C 0.22883(18) 0.35153(18) 0.4668(4)
H122 H 0.2226 0.3402 0.4501
C181 C 0.23802(18) 0.36896(17) 0.4461(4)
H123 H 0.2377 0.3695 0.4154
C182 C 0.24777(18) 0.38587(17) 0.4699(4)
C183 C 0.2480(2) 0.38532(19) 0.5156(4)
H124 H 0.2541 0.3967 0.5322
C184 C 0.2391(2) 0.36749(19) 0.5359(4)
H125 H 0.2402 0.3669 0.5664
C185 C 0.2464(2) 0.40939(19) 0.4286(5)
H126 H 0.2330 0.4014 0.4271
C186 C 0.2562(2) 0.42804(19) 0.4086(5)
C187 C 0.2466(2) 0.4368(2) 0.3882(5)
H127 H 0.2331 0.4306 0.3877
C188 C 0.2573(2) 0.4542(2) 0.3695(5)
H128 H 0.2513 0.4603 0.3553
C189 C 0.2771(2) 0.4629(2) 0.3716(5)
H129 H 0.2848 0.4752 0.3595
C190 C 0.2857(2) 0.45376(19) 0.3911(5)
H130 H 0.2992 0.4597 0.3909
N21 N 0.28358(18) 0.43410(17) 0.5003(4)
N22 N 0.29301(16) 0.40835(16) 0.4869(4)
N23 N 0.32315(15) 0.19872(16) 0.3793(3)
N24 N 0.33199(18) 0.17264(17) 0.3924(4)
C191 C 0.2790(2) 0.4480(2) 0.5048(5)
H131 H 0.2753 0.4524 0.4801
C192 C 0.2799(2) 0.4560(2) 0.5459(5)
H132 H 0.2766 0.4657 0.5488
C193 C 0.2855(3) 0.4499(3) 0.5824(6)
H133 H 0.2853 0.4548 0.6103
C194 C 0.2914(3) 0.4365(3) 0.5774(5)
H134 H 0.2957 0.4324 0.6016
C195 C 0.2907(3) 0.4290(2) 0.5352(5)
C196 C 0.2956(2) 0.4148(2) 0.5267(5)
H135 H 0.3006 0.4102 0.5487
C197 C 0.2984(2) 0.3943(2) 0.4768(5)
C198 C 0.2841(2) 0.3749(2) 0.4732(5)
H136 H 0.2710 0.3709 0.4768
C199 C 0.2902(2) 0.3618(2) 0.4641(6)
H137 H 0.2809 0.3486 0.4642
C200 C 0.3087(2) 0.3669(2) 0.4551(6)
C201 C 0.3224(2) 0.3864(2) 0.4594(7)
H138 H 0.3355 0.3904 0.4557
C202 C 0.3170(2) 0.3996(2) 0.4691(6)
H139 H 0.3264 0.4128 0.4703
C203 C 0.3143(2) 0.3523(2) 0.4427(6)
C204 C 0.3319(2) 0.3545(2) 0.4589(7)
H140 H 0.3401 0.3655 0.4753
C205 C 0.3370(2) 0.3412(2) 0.4512(7)
H141 H 0.3489 0.3431 0.4621
C206 C 0.3251(2) 0.3243(2) 0.4272(7)
C207 C 0.3294(2) 0.3096(2) 0.4201(6)
H142 H 0.3413 0.3112 0.4298
C208 C 0.3163(2) 0.2926(2) 0.3988(6)
C209 C 0.3195(2) 0.2766(2) 0.3939(6)
H143 H 0.3307 0.2775 0.4061
C210 C 0.3073(2) 0.2605(2) 0.3726(6)
C211 C 0.2898(2) 0.2584(2) 0.3557(7)
H144 H 0.2809 0.2468 0.3419
C212 C 0.2859(3) 0.2732(2) 0.3596(8)
H145 H 0.2743 0.2717 0.3485
C213 C 0.2996(3) 0.2910(2) 0.3804(7)
C214 C 0.2955(3) 0.3058(2) 0.3869(6)
H146 H 0.2846 0.3050 0.3732
C215 C 0.3069(2) 0.3216(2) 0.4127(6)
C216 C 0.3022(2) 0.3364(2) 0.4223(6)
H147 H 0.2901 0.3346 0.4138
C217 C 0.3110(2) 0.2441(2) 0.3700(5)
C218 C 0.3299(2) 0.2475(2) 0.3647(5)
H148 H 0.3401 0.2600 0.3593
C219 C 0.3334(2) 0.2326(2) 0.3673(5)
H149 H 0.3461 0.2350 0.3641
C220 C 0.3188(2) 0.2138(2) 0.3744(4)
C221 C 0.3000(2) 0.2104(2) 0.3786(5)
H150 H 0.2898 0.1978 0.3829
C222 C 0.2964(2) 0.2254(2) 0.3765(5)
H151 H 0.2836 0.2228 0.3796
C223 C 0.3239(2) 0.1902(2) 0.3449(5)
H152 H 0.3220 0.1939 0.3170
C224 C 0.3280(2) 0.1749(2) 0.3503(5)
C225 C 0.3297(3) 0.1642(3) 0.3166(5)
H153 H 0.3279 0.1665 0.2872
C226 C 0.3341(3) 0.1504(3) 0.3268(6)
H154 H 0.3334 0.1417 0.3053
C227 C 0.3396(3) 0.1493(3) 0.3693(6)
H155 H 0.3447 0.1413 0.3759
C228 C 0.3374(3) 0.1601(2) 0.4018(5)
H156 H 0.3399 0.1585 0.4311
N25 N 0.1960(4) 0.3122(4) 0.4025(9)
C229 C 0.1957(5) 0.3010(6) 0.3861(11)
C230 C 0.1970(4) 0.2860(5) 0.3609(9)
H157 H 0.1846 0.2743 0.3607
H158 H 0.2065 0.2834 0.3744
H159 H 0.2009 0.2904 0.3311
P1 P 0.21104(8) 0.40598(8) 0.5303(2)
F1 F 0.20805(12) 0.41716(14) 0.5679(3)
F2 F 0.21574(17) 0.42331(16) 0.4993(4)
F3 F 0.18941(13) 0.39767(12) 0.5161(3)
F4 F 0.20493(13) 0.38854(14) 0.5619(4)
F5 F 0.21421(14) 0.39362(16) 0.4957(4)
F6 F 0.23271(13) 0.41476(14) 0.5477(4)
S1 S 0.3545(3) 0.4981(3) 0.5908(9)
S2 S 0.3940(2) 0.5249(2) 0.6053(7)
N26 N 0.3726(4) 0.5100(5) 0.6282(10)
O1 O 0.3391(5) 0.4837(6) 0.6133(16)
O2 O 0.3641(5) 0.4961(5) 0.5533(12)
C231 C 0.3498(6) 0.5166(5) 0.5726(13)
O3 O 0.3927(5) 0.5195(5) 0.5610(9)
O4 O 0.3973(5) 0.5433(4) 0.6099(12)
C232 C 0.4119(4) 0.5200(5) 0.6298(11)
F7 F 0.3326(6) 0.5131(6) 0.5776(15)
F8 F 0.3552(7) 0.5195(7) 0.5300(13)
F9 F 0.3609(8) 0.5325(6) 0.5918(19)
F10 F 0.4181(4) 0.5263(4) 0.6694(9)
F11 F 0.4073(5) 0.5019(4) 0.6338(11)
F12 F 0.4294(4) 0.5286(4) 0.6096(10)
S3 S 0.3097(3) 0.5031(4) 0.4729(7)
S4 S 0.3101(4) 0.5262(4) 0.4066(8)
N27 N 0.3216(5) 0.5224(5) 0.4408(11)
O5 O 0.2932(5) 0.5011(6) 0.4905(13)
O6 O 0.3125(4) 0.4891(4) 0.4528(10)
O7 O 0.2997(7) 0.5349(6) 0.4284(14)
O8 O 0.3004(6) 0.5108(5) 0.3754(13)
C233 C 0.3262(5) 0.5096(5) 0.5206(10)
C234 C 0.3226(6) 0.5445(5) 0.3635(12)
F13 F 0.3303(6) 0.5260(5) 0.5361(12)
F14 F 0.3422(5) 0.5112(6) 0.5033(12)
F15 F 0.3189(6) 0.4963(6) 0.5499(12)
F16 F 0.3305(8) 0.5622(5) 0.3745(18)
F17 F 0.3326(6) 0.5393(7) 0.3417(15)
F18 F 0.3085(7) 0.5424(8) 0.3360(14)
S5? S 0.3040(3) 0.5038(3) 0.4708(7)
S6? S 0.3160(4) 0.5408(4) 0.4286(7)
N28? N 0.3030(5) 0.5225(4) 0.4593(12)
O9? O 0.2858(4) 0.4896(4) 0.4870(12)
O10? O 0.3114(6) 0.4967(6) 0.4362(11)
O11? O 0.3190(5) 0.5582(4) 0.4466(11)
O12? O 0.3300(6) 0.5374(7) 0.4076(14)
C235? C 0.3211(5) 0.5077(5) 0.5142(10)
C236? C 0.2997(5) 0.5405(6) 0.3844(11)
F19? F 0.3195(6) 0.5158(6) 0.5482(11)
F20? F 0.3384(4) 0.5193(6) 0.4969(12)
F21? F 0.3209(5) 0.4919(4) 0.5281(12)
F22? F 0.3080(7) 0.5572(6) 0.3650(15)
F23? F 0.2872(5) 0.5408(6) 0.4124(13)
F24? F 0.2962(6) 0.5265(6) 0.3594(13)
S7? S 0.05015(18) 0.15525(19) -0.0683(3)
S8? S 0.0395(3) 0.1774(3) -0.0147(8)
N29? N 0.0458(5) 0.1623(4) -0.0246(9)
O13? O 0.0707(3) 0.1645(5) -0.0779(12)
O14? O 0.0403(5) 0.1581(5) -0.1042(9)
O15? O 0.0513(5) 0.1933(5) -0.0487(12)
O16? O 0.0455(4) 0.1836(4) 0.0291(8)
C237? C 0.0464(5) 0.1321(4) -0.0591(10)
C238? C 0.0181(4) 0.1776(5) -0.0247(11)
F25? F 0.0421(4) 0.1250(4) -0.0202(8)
F26? F 0.0415(5) 0.1200(4) -0.0891(11)
F27? F 0.0665(5) 0.1375(6) -0.0547(15)
F28? F 0.0089(4) 0.1674(4) -0.0583(8)
F29? F 0.0231(6) 0.1960(5) -0.0321(15)
F30? F 0.0089(6) 0.1750(7) 0.0123(12)
S9? S 0.0329(3) 0.1458(3) -0.0702(6)
S10? S 0.0273(3) 0.1716(3) -0.0296(8)
N30? N 0.0200(5) 0.1568(4) -0.0671(11)
O17? O 0.0171(3) 0.1267(3) -0.0594(9)
O18? O 0.0395(5) 0.1514(6) -0.1170(9)
O19? O 0.0208(6) 0.1653(5) 0.0129(10)
O20? O 0.0475(5) 0.1724(7) -0.0287(16)
C239? C 0.0507(4) 0.1418(5) -0.0546(12)
C240? C 0.0366(5) 0.1963(4) -0.0400(12)
F31? F 0.0508(6) 0.1365(7) -0.0143(11)
F32? F 0.0469(6) 0.1246(5) -0.0759(16)
F33? F 0.0680(4) 0.1535(5) -0.0668(10)
F34? F 0.0537(5) 0.2064(5) -0.0205(13)
F35? F 0.0271(6) 0.2040(6) -0.0246(15)
F36? F 0.0400(5) 0.2004(4) -0.0822(9)
S11? S 0.1126(3) 0.2699(3) 0.4372(8)
S12? S 0.1477(3) 0.2730(3) 0.4173(7)
N31? N 0.1322(4) 0.2702(7) 0.4509(11)
O21? O 0.1173(7) 0.2855(5) 0.4108(15)
O22? O 0.1018(7) 0.2662(8) 0.4773(13)
O23? O 0.1627(7) 0.2932(5) 0.4196(16)
O24? O 0.1550(8) 0.2602(8) 0.4317(16)
C241? C 0.0983(5) 0.2483(5) 0.4050(12)
C242? C 0.1446(6) 0.2685(6) 0.3600(9)
F37? F 0.1104(5) 0.2468(5) 0.3803(12)
F38? F 0.0907(6) 0.2340(5) 0.4338(14)
F39? F 0.0845(5) 0.2490(5) 0.3849(12)
F40? F 0.1311(5) 0.2707(6) 0.3418(12)
F41? F 0.1472(4) 0.2541(4) 0.3505(9)
F42? F 0.1602(6) 0.2836(6) 0.3371(13)
S13? S 0.1374(3) 0.2784(3) 0.3160(7)
S14? S 0.1305(3) 0.2744(3) 0.4077(6)
N32? N 0.1408(6) 0.2726(6) 0.3657(7)
O25? O 0.1190(4) 0.2745(6) 0.3103(14)
O26? O 0.1545(5) 0.2946(4) 0.3012(14)
O27? O 0.1253(5) 0.2887(5) 0.4032(13)
O28? O 0.1427(5) 0.2753(5) 0.4421(10)
C243? C 0.1403(5) 0.2594(5) 0.2870(11)
C244? C 0.1072(4) 0.2527(4) 0.4146(12)
F43? F 0.1289(5) 0.2431(4) 0.3048(13)
F44? F 0.1386(6) 0.2604(6) 0.2465(10)
F45? F 0.1580(5) 0.2630(6) 0.2968(14)
F46? F 0.1080(5) 0.2376(4) 0.4020(13)
F47? F 0.0937(5) 0.2536(6) 0.3912(13)
F48? F 0.1013(4) 0.2500(5) 0.4559(10)
O29? O 0.1199(4) 0.2470(4) 0.3624(11)
S15? S 0.1030(2) 0.2520(2) 0.4066(5)
S16? S 0.1380(2) 0.2622(2) 0.3749(5)
O30? O 0.0926(5) 0.2596(5) 0.4348(13)
O31? O 0.0926(4) 0.2459(5) 0.3691(9)
O32? O 0.1535(4) 0.2682(6) 0.3989(13)
N33? N 0.1246(3) 0.2680(4) 0.4133(10)
F49? F 0.0849(3) 0.2151(3) 0.4146(7)
C245? C 0.0948(4) 0.2303(4) 0.4409(9)
C246? C 0.1425(5) 0.2811(4) 0.3331(9)
F50? F 0.1083(2) 0.2303(3) 0.4595(6)
F51? F 0.0824(3) 0.2311(3) 0.4689(7)
F52? F 0.1368(5) 0.2753(5) 0.2934(9)
F53? F 0.1608(3) 0.2949(4) 0.3328(9)
F54? F 0.1332(3) 0.2891(3) 0.3481(7)
loop_
_geom_bond_atom_site_label_1
_geom_bond_atom_site_label_2
_geom_bond_site_symmetry_1
_geom_bond_site_symmetry_2
Fe1 N1 1_555 1_555
Fe2 N11 1_555 1_555
Fe3 N7 1_555 1_555
Fe4 N3 1_555 1_555
N1 C1 1_555 1_555
N2 Fe1 1_555 1_555
N3 C30 1_555 1_555
N4 Fe4 1_555 1_555
C1 H1 1_555 1_555
C2 C1 1_555 1_555
H2 C2 1_555 1_555
C3 C2 1_555 1_555
H3 C3 1_555 1_555
C4 C3 1_555 1_555
H4 C4 1_555 1_555
C5 N1 1_555 1_555
C6 N2 1_555 1_555
H5 C6 1_555 1_555
C7 N2 1_555 1_555
C8 C7 1_555 1_555
H6 C8 1_555 1_555
C9 C8 1_555 1_555
H7 C9 1_555 1_555
C10 C9 1_555 1_555
C11 C10 1_555 1_555
H8 C11 1_555 1_555
C12 C7 1_555 1_555
H9 C12 1_555 1_555
C13 C10 1_555 1_555
C14 C13 1_555 1_555
H10 C14 1_555 1_555
C15 C14 1_555 1_555
H11 C15 1_555 1_555
C16 C15 1_555 1_555
C17 C16 1_555 1_555
H12 C17 1_555 1_555
C18 C17 1_555 1_555
C19 C18 1_555 1_555
H13 C19 1_555 1_555
C20 C19 1_555 1_555
C21 C20 1_555 1_555
H14 C21 1_555 1_555
C22 C21 1_555 1_555
H15 C22 1_555 1_555
C23 C18 1_555 1_555
C24 C23 1_555 1_555
H16 C24 1_555 1_555
C25 C16 1_555 1_555
C26 C13 1_555 1_555
H17 C26 1_555 1_555
C27 C20 1_555 1_555
C28 C27 1_555 1_555
H18 C28 1_555 1_555
C29 C28 1_555 1_555
H19 C29 1_555 1_555
C30 C29 1_555 1_555
C31 C30 1_555 1_555
H20 C31 1_555 1_555
C32 C27 1_555 1_555
H21 C32 1_555 1_555
C33 N3 1_555 1_555
H22 C33 1_555 1_555
C34 N4 1_555 1_555
C35 C34 1_555 1_555
H23 C35 1_555 1_555
C36 C35 1_555 1_555
H24 C36 1_555 1_555
C37 C36 1_555 1_555
H25 C37 1_555 1_555
C38 N4 1_555 1_555
H26 C38 1_555 1_555
N5 Fe1 1_555 1_555
N6 Fe1 1_555 1_555
N7 C68 1_555 1_555
N8 Fe3 1_555 1_555
C39 N5 1_555 1_555
H27 C39 1_555 1_555
C40 C39 1_555 1_555
H28 C40 1_555 1_555
C41 C40 1_555 1_555
H29 C41 1_555 1_555
C42 C41 1_555 1_555
H30 C42 1_555 1_555
C43 N5 1_555 1_555
C44 N6 1_555 1_555
H31 C44 1_555 1_555
C45 N6 1_555 1_555
C46 C45 1_555 1_555
H32 C46 1_555 1_555
C47 C46 1_555 1_555
H33 C47 1_555 1_555
C48 C47 1_555 1_555
C49 C48 1_555 1_555
H34 C49 1_555 1_555
C50 C45 1_555 1_555
H35 C50 1_555 1_555
C51 C48 1_555 1_555
C52 C51 1_555 1_555
H36 C52 1_555 1_555
C53 C52 1_555 1_555
H37 C53 1_555 1_555
C54 C53 1_555 1_555
C55 C54 1_555 1_555
H38 C55 1_555 1_555
C56 C55 1_555 1_555
C57 C56 1_555 1_555
H39 C57 1_555 1_555
C58 C57 1_555 1_555
C59 C58 1_555 1_555
H40 C59 1_555 1_555
C60 C59 1_555 1_555
H41 C60 1_555 1_555
C61 C56 1_555 1_555
C62 C61 1_555 1_555
H42 C62 1_555 1_555
C63 C54 1_555 1_555
C64 C51 1_555 1_555
H43 C64 1_555 1_555
C65 C58 1_555 1_555
C66 C65 1_555 1_555
H44 C66 1_555 1_555
C67 C66 1_555 1_555
H45 C67 1_555 1_555
C68 C67 1_555 1_555
C69 C68 1_555 1_555
H46 C69 1_555 1_555
C70 C65 1_555 1_555
H47 C70 1_555 1_555
C71 N7 1_555 1_555
H48 C71 1_555 1_555
C72 N8 1_555 1_555
C73 C72 1_555 1_555
H49 C73 1_555 1_555
C74 C73 1_555 1_555
H50 C74 1_555 1_555
C75 C74 1_555 1_555
H51 C75 1_555 1_555
C76 N8 1_555 1_555
H52 C76 1_555 1_555
N9 Fe1 1_555 1_555
N10 Fe1 1_555 1_555
N11 C106 1_555 1_555
N12 Fe2 1_555 1_555
C77 N9 1_555 1_555
H53 C77 1_555 1_555
C78 C77 1_555 1_555
H54 C78 1_555 1_555
C79 C78 1_555 1_555
H55 C79 1_555 1_555
C80 C79 1_555 1_555
H56 C80 1_555 1_555
C81 N9 1_555 1_555
C82 N10 1_555 1_555
H57 C82 1_555 1_555
C83 N10 1_555 1_555
C84 C83 1_555 1_555
H58 C84 1_555 1_555
C85 C84 1_555 1_555
H59 C85 1_555 1_555
C86 C85 1_555 1_555
C87 C86 1_555 1_555
H60 C87 1_555 1_555
C88 C83 1_555 1_555
H61 C88 1_555 1_555
C89 C86 1_555 1_555
C90 C89 1_555 1_555
H62 C90 1_555 1_555
C91 C90 1_555 1_555
H63 C91 1_555 1_555
C92 C91 1_555 1_555
C93 C92 1_555 1_555
H64 C93 1_555 1_555
C94 C93 1_555 1_555
C95 C94 1_555 1_555
H65 C95 1_555 1_555
C96 C95 1_555 1_555
C97 C96 1_555 1_555
H66 C97 1_555 1_555
C98 C97 1_555 1_555
H67 C98 1_555 1_555
C99 C94 1_555 1_555
C100 C99 1_555 1_555
H68 C100 1_555 1_555
C101 C92 1_555 1_555
C102 C89 1_555 1_555
H69 C102 1_555 1_555
C103 C96 1_555 1_555
C104 C103 1_555 1_555
H70 C104 1_555 1_555
C105 C104 1_555 1_555
H71 C105 1_555 1_555
C106 C105 1_555 1_555
C107 C106 1_555 1_555
H72 C107 1_555 1_555
C108 C103 1_555 1_555
H73 C108 1_555 1_555
C109 N11 1_555 1_555
H74 C109 1_555 1_555
C110 N12 1_555 1_555
C111 C110 1_555 1_555
H75 C111 1_555 1_555
C112 C111 1_555 1_555
H76 C112 1_555 1_555
C113 C112 1_555 1_555
H77 C113 1_555 1_555
C114 N12 1_555 1_555
H78 C114 1_555 1_555
N13 Fe2 1_555 1_555
N14 Fe2 1_555 1_555
N15 Fe4 1_555 1_555
N16 Fe4 1_555 1_555
C115 N13 1_555 1_555
H79 C115 1_555 1_555
C116 C115 1_555 1_555
H80 C116 1_555 1_555
C117 C116 1_555 1_555
H81 C117 1_555 1_555
C118 C117 1_555 1_555
H82 C118 1_555 1_555
C119 N13 1_555 1_555
C120 N14 1_555 1_555
H83 C120 1_555 1_555
C121 N14 1_555 1_555
C122 C121 1_555 1_555
H84 C122 1_555 1_555
C123 C122 1_555 1_555
H85 C123 1_555 1_555
C124 C123 1_555 1_555
C125 C124 1_555 1_555
H86 C125 1_555 1_555
C126 C121 1_555 1_555
H87 C126 1_555 1_555
C127 C124 1_555 1_555
C128 C127 1_555 1_555
H88 C128 1_555 1_555
C129 C128 1_555 1_555
H89 C129 1_555 1_555
C130 C129 1_555 1_555
C131 C130 1_555 1_555
H90 C131 1_555 1_555
C132 C131 1_555 1_555
C133 C132 1_555 1_555
H91 C133 1_555 1_555
C134 C133 1_555 1_555
C135 C134 1_555 1_555
H92 C135 1_555 1_555
C136 C135 1_555 1_555
H93 C136 1_555 1_555
C137 C132 1_555 1_555
C138 C137 1_555 1_555
H94 C138 1_555 1_555
C139 C130 1_555 1_555
C140 C127 1_555 1_555
H95 C140 1_555 1_555
C141 C134 1_555 1_555
C142 C141 1_555 1_555
H96 C142 1_555 1_555
C143 C142 1_555 1_555
H97 C143 1_555 1_555
C144 N15 1_555 1_555
C145 C144 1_555 1_555
H98 C145 1_555 1_555
C146 C141 1_555 1_555
H99 C146 1_555 1_555
C147 N15 1_555 1_555
H100 C147 1_555 1_555
C148 N16 1_555 1_555
C149 C148 1_555 1_555
H101 C149 1_555 1_555
C150 C149 1_555 1_555
H102 C150 1_555 1_555
C151 C150 1_555 1_555
H103 C151 1_555 1_555
C152 N16 1_555 1_555
H104 C152 1_555 1_555
N17 Fe2 1_555 1_555
N18 Fe2 1_555 1_555
N19 Fe3 1_555 1_555
N20 Fe3 1_555 1_555
C153 N17 1_555 1_555
H105 C153 1_555 1_555
C154 C153 1_555 1_555
H106 C154 1_555 1_555
C155 C154 1_555 1_555
H107 C155 1_555 1_555
C156 C155 1_555 1_555
H108 C156 1_555 1_555
C157 N17 1_555 1_555
C158 N18 1_555 1_555
H109 C158 1_555 1_555
C159 N18 1_555 1_555
C160 C159 1_555 1_555
H110 C160 1_555 1_555
C161 C160 1_555 1_555
H111 C161 1_555 1_555
C162 C161 1_555 1_555
C163 C162 1_555 1_555
H112 C163 1_555 1_555
C164 C159 1_555 1_555
H113 C164 1_555 1_555
C165 C162 1_555 1_555
C166 C165 1_555 1_555
H114 C166 1_555 1_555
C167 C166 1_555 1_555
H115 C167 1_555 1_555
C168 C167 1_555 1_555
C169 C168 1_555 1_555
H116 C169 1_555 1_555
C170 C169 1_555 1_555
C171 C170 1_555 1_555
H117 C171 1_555 1_555
C172 C171 1_555 1_555
C173 C172 1_555 1_555
H118 C173 1_555 1_555
C174 C173 1_555 1_555
H119 C174 1_555 1_555
C175 C170 1_555 1_555
C176 C175 1_555 1_555
H120 C176 1_555 1_555
C177 C168 1_555 1_555
C178 C165 1_555 1_555
H121 C178 1_555 1_555
C179 C172 1_555 1_555
C180 C179 1_555 1_555
H122 C180 1_555 1_555
C181 C180 1_555 1_555
H123 C181 1_555 1_555
C182 N19 1_555 1_555
C183 C182 1_555 1_555
H124 C183 1_555 1_555
C184 C179 1_555 1_555
H125 C184 1_555 1_555
C185 N19 1_555 1_555
H126 C185 1_555 1_555
C186 N20 1_555 1_555
C187 C186 1_555 1_555
H127 C187 1_555 1_555
C188 C187 1_555 1_555
H128 C188 1_555 1_555
C189 C188 1_555 1_555
H129 C189 1_555 1_555
C190 N20 1_555 1_555
H130 C190 1_555 1_555
N21 Fe3 1_555 1_555
N22 Fe3 1_555 1_555
N23 Fe4 1_555 1_555
N24 Fe4 1_555 1_555
C191 N21 1_555 1_555
H131 C191 1_555 1_555
C192 C191 1_555 1_555
H132 C192 1_555 1_555
C193 C192 1_555 1_555
H133 C193 1_555 1_555
C194 C193 1_555 1_555
H134 C194 1_555 1_555
C195 N21 1_555 1_555
C196 N22 1_555 1_555
H135 C196 1_555 1_555
C197 N22 1_555 1_555
C198 C197 1_555 1_555
H136 C198 1_555 1_555
C199 C198 1_555 1_555
H137 C199 1_555 1_555
C200 C199 1_555 1_555
C201 C200 1_555 1_555
H138 C201 1_555 1_555
C202 C197 1_555 1_555
H139 C202 1_555 1_555
C203 C200 1_555 1_555
C204 C203 1_555 1_555
H140 C204 1_555 1_555
C205 C204 1_555 1_555
H141 C205 1_555 1_555
C206 C205 1_555 1_555
C207 C206 1_555 1_555
H142 C207 1_555 1_555
C208 C207 1_555 1_555
C209 C208 1_555 1_555
H143 C209 1_555 1_555
C210 C209 1_555 1_555
C211 C210 1_555 1_555
H144 C211 1_555 1_555
C212 C211 1_555 1_555
H145 C212 1_555 1_555
C213 C208 1_555 1_555
C214 C213 1_555 1_555
H146 C214 1_555 1_555
C215 C206 1_555 1_555
C216 C203 1_555 1_555
H147 C216 1_555 1_555
C217 C210 1_555 1_555
C218 C217 1_555 1_555
H148 C218 1_555 1_555
C219 C218 1_555 1_555
H149 C219 1_555 1_555
C220 N23 1_555 1_555
C221 C220 1_555 1_555
H150 C221 1_555 1_555
C222 C217 1_555 1_555
H151 C222 1_555 1_555
C223 N23 1_555 1_555
H152 C223 1_555 1_555
C224 N24 1_555 1_555
C225 C224 1_555 1_555
H153 C225 1_555 1_555
C226 C225 1_555 1_555
H154 C226 1_555 1_555
C227 C226 1_555 1_555
H155 C227 1_555 1_555
C228 N24 1_555 1_555
H156 C228 1_555 1_555
N25 C229 1_555 1_555
C229 C230 1_555 1_555
C230 H157 1_555 1_555
H158 C230 1_555 1_555
H159 C230 1_555 1_555
P1 F1 1_555 1_555
F2 P1 1_555 1_555
F3 P1 1_555 1_555
F4 P1 1_555 1_555
F5 P1 1_555 1_555
F6 P1 1_555 1_555
S1 N26 1_555 1_555
S2 N26 1_555 1_555
O1 S1 1_555 1_555
O2 S1 1_555 1_555
C231 S1 1_555 1_555
O3 S2 1_555 1_555
O4 S2 1_555 1_555
C232 S2 1_555 1_555
F7 C231 1_555 1_555
F8 C231 1_555 1_555
F9 C231 1_555 1_555
F10 C232 1_555 1_555
F11 C232 1_555 1_555
F12 C232 1_555 1_555
S3 N27 1_555 1_555
S4 N27 1_555 1_555
O5 S3 1_555 1_555
O6 S3 1_555 1_555
O7 S4 1_555 1_555
O8 S4 1_555 1_555
C233 S3 1_555 1_555
C234 S4 1_555 1_555
F13 C233 1_555 1_555
F14 C233 1_555 1_555
F15 C233 1_555 1_555
F16 C234 1_555 1_555
F17 C234 1_555 1_555
F18 C234 1_555 1_555
C4 C5 1_555 1_555
C5 C6 1_555 1_555
C11 C12 1_555 1_555
C22 C23 1_555 1_555
C24 C25 1_555 1_555
C25 C26 1_555 1_555
C31 C32 1_555 1_555
C33 C34 1_555 1_555
C37 C38 1_555 1_555
C42 C43 1_555 1_555
C43 C44 1_555 1_555
C49 C50 1_555 1_555
C60 C61 1_555 1_555
C62 C63 1_555 1_555
C63 C64 1_555 1_555
C69 C70 1_555 1_555
C71 C72 1_555 1_555
C75 C76 1_555 1_555
C80 C81 1_555 1_555
C81 C82 1_555 1_555
C87 C88 1_555 1_555
C98 C99 1_555 1_555
C100 C101 1_555 1_555
C101 C102 1_555 1_555
C107 C108 1_555 1_555
C109 C110 1_555 1_555
C113 C114 1_555 1_555
C118 C119 1_555 1_555
C119 C120 1_555 1_555
C125 C126 1_555 1_555
C136 C137 1_555 1_555
C138 C139 1_555 1_555
C139 C140 1_555 1_555
C143 C144 1_555 1_555
C145 C146 1_555 1_555
C147 C148 1_555 1_555
C151 C152 1_555 1_555
C156 C157 1_555 1_555
C157 C158 1_555 1_555
C163 C164 1_555 1_555
C174 C175 1_555 1_555
C176 C177 1_555 1_555
C177 C178 1_555 1_555
C181 C182 1_555 1_555
C183 C184 1_555 1_555
C185 C186 1_555 1_555
C189 C190 1_555 1_555
C194 C195 1_555 1_555
C195 C196 1_555 1_555
C201 C202 1_555 1_555
C212 C213 1_555 1_555
C214 C215 1_555 1_555
C215 C216 1_555 1_555
C219 C220 1_555 1_555
C221 C222 1_555 1_555
C223 C224 1_555 1_555
C227 C228 1_555 1_555

#END
